#------------------------------------------------------------------------------
#$Date: 2016-08-05 06:12:05 +0300 (Fri, 05 Aug 2016) $
#$Revision: 184879 $
#$URL: file:///home/coder/svn-repositories/cod/cif/1/54/37/1543795.cif $
#------------------------------------------------------------------------------
#
# This file is available in the Crystallography Open Database (COD),
# http://www.crystallography.net/
#
# All data on this site have been placed in the public domain by the
# contributors.
#
data_1543795
loop_
_publ_author_name
'Mandal, Anup'
'Sahoo, Harekrishna'
'Baidya, Mahiuddin'
_publ_section_title
;
 Copper-Catalyzed 8-Aminoquinoline-Directed Selenylation of Arene and
 Heteroarene C-H Bonds.
;
_journal_issue                   13
_journal_name_full               'Organic letters'
_journal_page_first              3202
_journal_page_last               3205
_journal_paper_doi               10.1021/acs.orglett.6b01420
_journal_volume                  18
_journal_year                    2016
_chemical_formula_moiety         'C20 H14 N2 O3 S Se'
_chemical_formula_sum            'C20 H14 N2 O3 S Se'
_chemical_formula_weight         441.35
_space_group_crystal_system      monoclinic
_space_group_IT_number           14
_space_group_name_Hall           '-P 2ybc'
_space_group_name_H-M_alt        'P 1 21/c 1'
_symmetry_space_group_name_Hall  '-P 2ybc'
_symmetry_space_group_name_H-M   'P 1 21/c 1'
_atom_sites_solution_hydrogens   mixed
_audit_creation_method           SHELXL-2014/7
_cell_angle_alpha                90
_cell_angle_beta                 91.7272(15)
_cell_angle_gamma                90
_cell_formula_units_Z            4
_cell_length_a                   14.7324(5)
_cell_length_b                   8.1294(2)
_cell_length_c                   15.0674(5)
_cell_measurement_reflns_used    6565
_cell_measurement_temperature    296(2)
_cell_measurement_theta_max      26.13
_cell_measurement_theta_min      2.52
_cell_volume                     1803.74(10)
_computing_cell_refinement       'Bruker SAINT'
_computing_data_collection       'Bruker APEX2'
_computing_data_reduction        'Bruker SAINT'
_computing_molecular_graphics    'Bruker SHELXTL'
_computing_publication_material  'SHELXL-2013 (Sheldrick, 2013)'
_computing_structure_refinement  'SHELXL-2014 (Sheldrick, 2014)'
_computing_structure_solution    'SHELXL-97 (Sheldrick, 2008)'
_diffrn_ambient_temperature      296(2)
_diffrn_measured_fraction_theta_full 1.000
_diffrn_measured_fraction_theta_max 1.000
_diffrn_measurement_device_type  'Bruker APEXII CCD detector'
_diffrn_radiation_type           MoK\a
_diffrn_radiation_wavelength     0.71073
_diffrn_reflns_av_R_equivalents  0.0239
_diffrn_reflns_av_unetI/netI     0.0251
_diffrn_reflns_Laue_measured_fraction_full 1.000
_diffrn_reflns_Laue_measured_fraction_max 1.000
_diffrn_reflns_limit_h_max       17
_diffrn_reflns_limit_h_min       -14
_diffrn_reflns_limit_k_max       9
_diffrn_reflns_limit_k_min       -7
_diffrn_reflns_limit_l_max       17
_diffrn_reflns_limit_l_min       -17
_diffrn_reflns_number            11957
_diffrn_reflns_point_group_measured_fraction_full 1.000
_diffrn_reflns_point_group_measured_fraction_max 1.000
_diffrn_reflns_theta_full        24.997
_diffrn_reflns_theta_max         24.997
_diffrn_reflns_theta_min         1.383
_exptl_absorpt_coefficient_mu    2.221
_exptl_absorpt_correction_T_max  0.761
_exptl_absorpt_correction_T_min  0.607
_exptl_absorpt_correction_type   multi-scan
_exptl_absorpt_process_details   'SADABS V2014/5(Bruker AXS.Inc)'
_exptl_crystal_colour            colourless
_exptl_crystal_density_diffrn    1.625
_exptl_crystal_description       Rectangular
_exptl_crystal_F_000             888
_exptl_crystal_size_max          0.250
_exptl_crystal_size_mid          0.220
_exptl_crystal_size_min          0.130
_refine_diff_density_max         0.256
_refine_diff_density_min         -0.339
_refine_diff_density_rms         0.049
_refine_ls_extinction_method     none
_refine_ls_goodness_of_fit_ref   1.031
_refine_ls_hydrogen_treatment    mixed
_refine_ls_matrix_type           full
_refine_ls_number_parameters     248
_refine_ls_number_reflns         3175
_refine_ls_number_restraints     0
_refine_ls_restrained_S_all      1.031
_refine_ls_R_factor_all          0.0356
_refine_ls_R_factor_gt           0.0263
_refine_ls_shift/su_max          0.001
_refine_ls_shift/su_mean         0.000
_refine_ls_structure_factor_coef Fsqd
_refine_ls_weighting_details
'w=1/[\s^2^(Fo^2^)+(0.0269P)^2^+0.9952P] where P=(Fo^2^+2Fc^2^)/3'
_refine_ls_weighting_scheme      calc
_refine_ls_wR_factor_gt          0.0587
_refine_ls_wR_factor_ref         0.0624
_reflns_Friedel_coverage         0.000
_reflns_number_gt                2666
_reflns_number_total             3175
_reflns_threshold_expression     'I > 2\s(I)'
_cod_data_source_file            ol6b01420_si_005.cif
_cod_data_source_block           275
_cod_database_code               1543795
_shelx_shelxl_version_number     2014/7
_shelx_space_group_comment
;
The symmetry employed for this shelxl refinement is uniquely defined
by the following loop, which should always be used as a source of
symmetry information in preference to the above space-group names.
They are only intended as comments.
;
_shelx_estimated_absorpt_t_min   0.607
_shelx_estimated_absorpt_t_max   0.761
_shelx_res_file
;

    275.res created by SHELXL-2014/7

TITL 275 in P2(1)/c
CELL 0.71073  14.73240   8.12940  15.06740  90.0000  91.7272  90.0000
ZERR    4.00   0.00050   0.00020   0.00050   0.0000   0.0015   0.0000
LATT 1
SYMM -X, 0.5+Y, 0.5-Z
SFAC C  H  N  O  S  Se
UNIT 80  56  8  12  4  4
OMIT -3 50
L.S. 8
ACTA
BOND $H
FMAP 2
PLAN 5
CONF
SIZE 0.13 0.22 0.25
TEMP 23.000
WGHT    0.026900    0.995200
FVAR       0.12466
MOLE 1
C1    1    0.368367    0.630889    0.397033    11.00000    0.04048    0.04935 =
         0.03826   -0.00466   -0.00465    0.00214
AFIX  43
H1    2    0.364765    0.651266    0.336294    11.00000   -1.20000
AFIX   0
C2    1    0.302109    0.530114    0.433323    11.00000    0.03528    0.04628 =
         0.06062   -0.00850   -0.00757   -0.00060
AFIX  43
H2    2    0.256578    0.484027    0.397177    11.00000   -1.20000
AFIX   0
C3    1    0.305117    0.500663    0.521401    11.00000    0.03341    0.04007 =
         0.06220    0.00189    0.00484   -0.00163
AFIX  43
H3    2    0.260817    0.435431    0.546487    11.00000   -1.20000
AFIX   0
C4    1    0.375296    0.568545    0.575617    11.00000    0.02967    0.03746 =
         0.04417    0.00059    0.00432    0.00589
C5    1    0.384267    0.545620    0.668415    11.00000    0.03978    0.05107 =
         0.04729    0.01155    0.01190    0.00314
AFIX  43
H5    2    0.341834    0.482868    0.697882    11.00000   -1.20000
AFIX   0
C6    1    0.454667    0.615075    0.714355    11.00000    0.04669    0.05482 =
         0.03266    0.00732    0.00557    0.00777
AFIX  43
H6    2    0.459960    0.598249    0.775343    11.00000   -1.20000
AFIX   0
C7    1    0.520069    0.711881    0.672792    11.00000    0.03746    0.04352 =
         0.03431   -0.00047   -0.00080    0.00404
AFIX  43
H7    2    0.567828    0.758021    0.706001    11.00000   -1.20000
AFIX   0
C8    1    0.512916    0.737799    0.582829    11.00000    0.02841    0.03512 =
         0.03211    0.00092    0.00240    0.00370
C9    1    0.439671    0.666786    0.532440    11.00000    0.02881    0.03250 =
         0.03482   -0.00084    0.00277    0.00721
C10   1    0.652269    0.900019    0.558849    11.00000    0.03261    0.03683 =
         0.02942   -0.00195    0.00111    0.00499
C11   1    0.703450    0.982965    0.488223    11.00000    0.03591    0.03477 =
         0.02607   -0.00185   -0.00029    0.00599
C12   1    0.782570    1.068122    0.499100    11.00000    0.03271    0.03531 =
         0.02871   -0.00098    0.00315    0.00426
C13   1    0.814692    1.137830    0.419919    11.00000    0.04503    0.04257 =
         0.03400    0.00449    0.00821    0.00133
AFIX  43
H13   2    0.868020    1.198467    0.416690    11.00000   -1.20000
AFIX   0
C14   1    0.758717    1.105719    0.349909    11.00000    0.05609    0.05198 =
         0.02995    0.00839    0.00920    0.00704
AFIX  43
H14   2    0.768240    1.143412    0.292661    11.00000   -1.20000
AFIX   0
C15   1    0.884920    0.878334    0.647039    11.00000    0.02808    0.04443 =
         0.04215    0.00660   -0.00503   -0.00364
C16   1    0.871977    0.842961    0.734770    11.00000    0.05118    0.06475 =
         0.04587    0.00968   -0.00831   -0.01627
AFIX  43
H16   2    0.848069    0.921100    0.772618    11.00000   -1.20000
AFIX   0
C17   1    0.895260    0.689269    0.765088    11.00000    0.06482    0.08227 =
         0.07315    0.03864   -0.02482   -0.02248
AFIX  43
H17   2    0.887911    0.662888    0.824500    11.00000   -1.20000
AFIX   0
C18   1    0.928960    0.575218    0.709115    11.00000    0.04577    0.06566 =
         0.13488    0.04195   -0.02284   -0.00351
AFIX  43
H18   2    0.943628    0.470886    0.730417    11.00000   -1.20000
AFIX   0
C19   1    0.941631    0.611996    0.621559    11.00000    0.04978    0.05599 =
         0.13094   -0.00155    0.01281    0.01208
AFIX  43
H19   2    0.964251    0.532582    0.583688    11.00000   -1.20000
AFIX   0
C20   1    0.920633    0.768053    0.589494    11.00000    0.04234    0.05377 =
         0.07072    0.00421    0.01186    0.00547
AFIX  43
H20   2    0.930591    0.796365    0.530782    11.00000   -1.20000
AFIX   0
N1    3    0.435397    0.698551    0.443487    11.00000    0.03391    0.04190 =
         0.03199   -0.00037   -0.00061    0.00487
N2    3    0.572124    0.832696    0.533206    11.00000    0.03606    0.04650 =
         0.02517    0.00370   -0.00337   -0.00406
O1    4    0.684021    0.896407    0.634262    11.00000    0.03787    0.07124 =
         0.02791    0.00389   -0.00199   -0.00772
O2    4    0.804350    1.191140    0.683249    11.00000    0.06751    0.05744 =
         0.04027   -0.01779    0.00239    0.00837
O3    4    0.945995    1.182076    0.572056    11.00000    0.04954    0.06327 =
         0.05420    0.00650    0.00084   -0.02149
S1    5    0.668474    0.988206    0.378110    11.00000    0.04418    0.05543 =
         0.02807    0.00017   -0.00375    0.00425
SE1   6    0.855172    1.094822    0.606130    11.00000    0.03824    0.03892 =
         0.03080   -0.00261    0.00026   -0.00369
H1N   2    0.557891    0.838455    0.484582    11.00000    0.02658
HKLF 4

REM  275 in P2(1)/c
REM R1 =  0.0263 for    2666 Fo > 4sig(Fo)  and  0.0356 for all    3175 data
REM    248 parameters refined using      0 restraints

END

WGHT      0.0273      0.9784

REM Highest difference peak  0.256,  deepest hole -0.339,  1-sigma level  0.049
Q1    1   0.6857  0.9275  0.5201  11.00000  0.05    0.26
Q2    1   0.8667  0.9710  0.6407  11.00000  0.05    0.21
Q3    1   0.5207  0.7034  0.6250  11.00000  0.05    0.19
Q4    1   0.3722  0.5751  0.6209  11.00000  0.05    0.19
Q5    1   0.4828  0.6755  0.6841  11.00000  0.05    0.18
;
_shelx_res_checksum              2188
_shelx_hkl_file
;
   1   0   0    2.09    0.09
  -1   0   0    2.86    0.10
  -2   0   0   19.28    0.48
  -2   0   0   18.88    0.49
   2   0   0   17.96    0.49
   2   0   0   18.17    0.48
  -3   0   0   45.17    1.07
   3   0   0   44.58    1.08
   3   0   0   45.99    1.06
  -3   0   0   44.61    1.05
   4   0   0  376.32    7.68
   4   0   0  362.25    7.63
  -4   0   0  364.99    7.62
  -4   0   0  367.92    7.66
  -5   0   0  133.75    2.94
   5   0   0  129.95    2.96
  -5   0   0  133.59    2.91
   5   0   0  132.79    2.91
  -6   0   0   77.86    1.84
   6   0   0   76.61    1.88
  -6   0   0   75.28    1.80
   6   0   0   76.24    1.81
   7   0   0   21.96    0.76
   7   0   0   22.05    0.82
  -7   0   0   22.70    0.74
  -7   0   0   24.94    0.78
   8   0   0   21.07    0.84
   8   0   0   20.98    0.77
  -8   0   0   21.65    0.76
  -8   0   0   20.80    0.74
   9   0   0    4.07    0.39
  -9   0   0    3.93    0.36
   9   0   0    4.55    0.46
  -9   0   0    3.98    0.36
 -10   0   0   59.16    1.62
  10   0   0   59.86    1.64
 -10   0   0   60.99    1.65
  10   0   0   63.73    1.78
  11   0   0   63.72    1.74
  11   0   0   66.44    1.89
 -11   0   0   61.95    1.73
 -12   0   0    3.68    0.43
  12   0   0    2.39    0.48
  12   0   0    1.87    0.38
  13   0   0   17.24    0.98
  13   0   0   15.82    0.82
  14   0   0   22.78    1.01
  14   0   0   24.10    1.21
  15   0   0    1.44    0.44
  16   0   0    2.61    0.50
  17   0   0   11.08    0.86
  18   0   0    2.18    0.57
   1   1   0   85.26    1.75
  -1   1   0   84.64    1.79
  -2  -1   0    6.68    0.16
  -2  -1   0    6.84    0.20
   2  -1   0    6.36    0.22
   2  -1   0    6.46    0.23
   2   1   0    6.48    0.18
  -2   1   0    6.16    0.24
   2   1   0    6.69    0.21
   3  -1   0   17.99    0.52
  -3  -1   0   17.77    0.44
  -3  -1   0   18.10    0.47
   3  -1   0   16.60    0.50
   3   1   0   18.07    0.48
  -3   1   0   18.17    0.52
   3   1   0   18.13    0.47
  -3   1   0   18.12    0.52
  -4  -1   0  246.11    5.04
   4  -1   0  234.45    5.10
   4  -1   0  239.49    5.14
  -4  -1   0  242.30    5.06
  -4   1   0  242.69    5.14
   4   1   0  245.61    5.09
   4   1   0  250.77    5.09
  -4   1   0  241.69    5.12
   5  -1   0   14.62    0.55
  -5  -1   0   14.55    0.47
   5  -1   0   15.10    0.52
  -5  -1   0   13.87    0.46
   5   1   0   14.31    0.52
   5   1   0   14.94    0.51
  -5   1   0   15.83    0.56
  -5   1   0   15.38    0.54
   6  -1   0   26.01    0.77
  -6  -1   0   26.64    0.70
  -6  -1   0   20.31    0.67
   6   1   0   23.34    0.76
  -6   1   0   22.68    0.77
  -6   1   0   21.04    0.72
  -7  -1   0    7.91    0.39
  -7  -1   0    9.02    0.44
   7  -1   0    7.95    0.44
  -7   1   0    9.10    0.50
   7   1   0    7.16    0.47
  -7   1   0    8.02    0.47
   7   1   0    7.60    0.42
  -8  -1   0   46.59    1.28
  -8  -1   0   50.65    1.32
   8  -1   0   50.21    1.37
   8   1   0   49.57    1.42
   8   1   0   51.32    1.36
  -8   1   0   51.97    1.37
  -8   1   0   51.41    1.41
   9  -1   0   20.66    0.80
  -9  -1   0   18.16    0.70
  -9  -1   0   18.49    0.69
   9   1   0   19.00    0.76
  -9   1   0   19.93    0.78
  -9   1   0   20.39    0.81
   9   1   0   18.59    0.82
 -10  -1   0    0.11    0.22
  10  -1   0    0.81    0.29
  10  -1   0   -0.07    0.12
  10   1   0    0.31    0.25
  10   1   0    0.07    0.28
 -10   1   0    0.23    0.27
 -10   1   0    0.33    0.24
  11  -1   0    8.96    0.66
  11   1   0    8.41    0.62
  11   1   0    9.10    0.71
 -11   1   0    8.79    0.59
  12  -1   0    2.21    0.39
  12   1   0    2.49    0.41
 -12   1   0    2.03    0.33
  12   1   0    2.09    0.43
  13  -1   0   24.13    1.00
  13   1   0   22.83    1.12
  13   1   0   23.68    1.02
  14  -1   0    6.78    0.64
  14   1   0    5.56    0.65
  14   1   0    5.73    0.56
  15  -1   0    0.53    0.44
  15   1   0    0.24    0.37
  16  -1   0    6.78    0.68
  16   1   0    5.34    0.60
  17  -1   0    0.21    0.43
  17   1   0    0.90    0.50
  18  -1   0    0.57    0.47
  18   1   0    1.70    0.55
   0   2   0   82.64    1.69
   1  -2   0    1.04    0.08
  -1   2   0    1.07    0.09
  -2  -2   0  356.67    7.23
   2  -2   0  361.74    7.30
  -2  -2   0  374.33    7.24
  -2   2   0  344.96    7.33
   2   2   0  343.05    7.29
  -3  -2   0  257.70    5.22
   3  -2   0  255.45    5.31
   3   2   0  249.89    5.27
   3   2   0  257.70    5.23
  -3   2   0  253.75    5.32
  -3   2   0  257.01    5.34
  -4  -2   0   52.29    1.15
   4  -2   0   51.73    1.24
   4   2   0   50.80    1.14
  -4   2   0   51.01    1.25
  -4   2   0   52.50    1.26
   4   2   0   50.06    1.19
  -5  -2   0   19.53    0.47
   5  -2   0   19.95    0.64
  -5  -2   0   20.78    0.56
   5  -2   0   19.13    0.63
   5   2   0   19.54    0.57
  -5   2   0   20.97    0.67
  -5   2   0   19.31    0.64
   5   2   0   19.61    0.60
   6  -2   0   83.16    2.01
   6  -2   0   82.55    1.98
  -6  -2   0   82.61    1.81
  -6  -2   0   82.31    1.89
  -6   2   0   84.00    2.02
   6   2   0   84.93    1.95
  -6   2   0   86.91    2.01
   6   2   0   84.56    1.94
   7  -2   0   11.67    0.54
   7  -2   0   11.98    0.58
  -7  -2   0   12.34    0.47
  -7  -2   0   11.98    0.48
   7   2   0   12.33    0.55
   7   2   0   11.13    0.51
  -7   2   0   12.57    0.58
  -7   2   0   12.71    0.58
   8  -2   0    0.08    0.24
   8  -2   0    0.43    0.24
  -8  -2   0    0.23    0.19
   8   2   0    0.45    0.26
  -8   2   0    0.56    0.25
   8   2   0    0.44    0.23
  -8   2   0    0.73    0.28
   9  -2   0    0.57    0.29
  -9  -2   0    0.79    0.22
  -9   2   0    0.61    0.28
  -9   2   0    0.80    0.27
   9   2   0    0.90    0.27
   9   2   0    0.31    0.26
  10  -2   0    4.27    0.51
  10  -2   0    4.12    0.44
 -10   2   0    4.83    0.50
  10   2   0    3.68    0.42
  10   2   0    4.10    0.40
 -10   2   0    3.65    0.42
  11  -2   0   20.24    0.88
  11  -2   0   18.63    0.94
 -11   2   0   18.87    0.89
  11   2   0   18.77    0.92
  11   2   0   19.55    0.83
  12  -2   0    0.49    0.36
  12  -2   0    0.92    0.42
 -12   2   0    0.65    0.33
  12   2   0    0.69    0.40
  12   2   0    0.97    0.36
  13  -2   0   14.11    0.81
  13   2   0   16.46    0.96
  13   2   0   15.73    0.84
  14  -2   0    0.42    0.41
  14   2   0   -0.58    0.37
  14   2   0    0.34    0.35
  15  -2   0    2.76    0.50
  15   2   0    2.72    0.50
  15   2   0    2.12    0.56
  16  -2   0    1.59    0.52
  16   2   0    1.26    0.48
  17  -2   0    1.67    0.55
  17   2   0    1.17    0.50
  18  -2   0    0.42    0.48
  18   2   0    0.46    0.46
   0   3   0    0.00    0.05
   1  -3   0   93.34    1.89
  -1   3   0   89.37    1.94
   2   3   0   79.80    1.62
  -2   3   0   76.73    1.73
   3  -3   0   14.08    0.42
  -3   3   0   13.97    0.48
  -3   3   0   13.90    0.44
   3   3   0   14.37    0.39
   4  -3   0  165.36    3.40
  -4  -3   0  158.07    3.26
  -4   3   0  154.08    3.45
  -4   3   0  156.89    3.42
   4   3   0  157.88    3.27
   4   3   0  159.31    3.35
  -5  -3   0   49.84    1.11
   5  -3   0   50.52    1.25
  -5   3   0   51.18    1.29
   5   3   0   49.41    1.21
  -5   3   0   50.60    1.30
   5   3   0   49.62    1.14
   6  -3   0   24.90    0.78
  -6  -3   0   24.95    0.65
   6   3   0   24.58    0.73
   6   3   0   23.88    0.69
  -6   3   0   23.70    0.81
  -6   3   0   24.93    0.82
   7  -3   0    7.35    0.47
  -7  -3   0    7.73    0.35
   7   3   0    7.53    0.44
   7   3   0    7.81    0.42
  -7   3   0    6.92    0.49
  -7   3   0    8.44    0.53
   8  -3   0   30.37    0.99
  -8  -3   0   30.27    0.86
  -8   3   0   32.07    1.06
  -8   3   0   31.59    1.01
   8   3   0   31.79    0.98
   8   3   0   30.75    0.95
   9  -3   0   87.12    2.21
  -9  -3   0   86.42    2.07
   9   3   0   89.27    2.22
  -9   3   0   94.07    2.25
  -9   3   0   87.47    2.28
   9   3   0   89.55    2.16
  10  -3   0    1.32    0.37
  10  -3   0    1.56    0.37
  10   3   0    1.56    0.32
 -10   3   0    1.64    0.37
 -10   3   0    1.22    0.34
  10   3   0    1.60    0.38
  11  -3   0    0.78    0.32
  11  -3   0   -0.01    0.28
 -11   3   0    0.44    0.29
  11   3   0    0.21    0.32
  11   3   0    0.60    0.28
  12  -3   0   35.41    1.33
  12  -3   0   36.14    1.26
  12   3   0   35.31    1.20
 -12   3   0   35.22    1.31
  12   3   0   35.30    1.32
  13  -3   0    8.04    0.67
  13   3   0    7.29    0.60
  13   3   0    6.35    0.62
  14  -3   0    6.53    0.65
  14   3   0    5.23    0.63
  14   3   0    5.14    0.57
  15  -3   0   15.00    0.96
  15   3   0   13.51    0.86
  15   3   0   12.03    1.00
  16  -3   0    4.58    0.60
  16   3   0    4.55    0.59
  17  -3   0    0.97    0.53
  17   3   0    1.87    0.53
   0   4   0   79.13    1.68
  -1   4   0   62.17    1.39
   2  -4   0    0.14    0.08
  -2   4   0    0.15    0.12
  -3   4   0  111.43    2.36
   3   4   0  105.10    2.27
  -3   4   0  108.38    2.42
   4  -4   0   65.06    1.44
  -4   4   0   62.78    1.49
  -4   4   0   62.54    1.53
   4   4   0   58.98    1.39
   5  -4   0   21.13    0.66
  -5   4   0   21.51    0.71
   5   4   0   20.58    0.61
  -5   4   0   21.64    0.74
   5   4   0   21.13    0.53
   6  -4   0   -0.01    0.19
   6   4   0    0.32    0.18
   6   4   0    0.28    0.15
  -6   4   0    0.57    0.22
  -6   4   0    0.59    0.25
   7  -4   0   32.62    0.98
  -7  -4   0   32.19    0.79
   7   4   0   32.05    0.89
  -7   4   0   34.49    1.06
  -7   4   0   33.03    1.06
   7   4   0   30.71    0.92
  -8  -4   0   17.08    0.53
   8  -4   0   16.57    0.71
  -8   4   0   17.43    0.75
   8   4   0   15.69    0.65
   8   4   0   16.27    0.66
  -8   4   0   17.54    0.79
  -9  -4   0    1.03    0.20
   9  -4   0    1.15    0.31
  -9   4   0    1.10    0.29
  -9   4   0    1.22    0.34
   9   4   0    1.57    0.32
   9   4   0    1.34    0.29
  10  -4   0   43.61    1.33
  10   4   0   43.49    1.36
 -10   4   0   42.40    1.43
 -10   4   0   46.36    1.40
  10   4   0   44.61    1.30
  11  -4   0    1.94    0.40
  11   4   0    2.29    0.37
  11   4   0    2.50    0.43
 -11   4   0    2.56    0.47
  12  -4   0    4.16    0.49
  12   4   0    3.34    0.44
  12   4   0    4.90    0.58
  13  -4   0    2.50    0.49
  13   4   0    2.11    0.42
  13   4   0    1.76    0.47
  14  -4   0    7.16    0.65
  14   4   0    6.77    0.61
  14   4   0    6.21    0.67
  15  -4   0    0.60    0.46
  15   4   0    1.09    0.42
  15   4   0    0.12    0.43
  16  -4   0    0.40    0.48
  16   4   0    0.26    0.48
  16   4   0    0.22    0.44
  17  -4   0    1.98    0.56
  17   4   0    2.09    0.53
   0   5   0    0.16    0.08
  -1   5   0    0.18    0.12
  -2   5   0    1.79    0.20
   3  -5   0    0.34    0.11
  -3   5   0    0.35    0.19
  -3   5   0    0.27    0.16
   3   5   0    0.26    0.07
   4   5   0    0.83    0.13
  -4   5   0    0.85    0.22
  -4   5   0    0.78    0.19
   5  -5   0    7.57    0.37
   5   5   0    6.49    0.22
  -5   5   0    5.94    0.44
   5   5   0    5.53    0.32
  -5   5   0    6.31    0.44
   6  -5   0    1.73    0.26
   7  -5   0   13.06    0.60
   7   5   0   13.40    0.51
  -7   5   0   14.29    0.72
  -7   5   0   14.67    0.70
   7   5   0   13.25    0.55
   8  -5   0    5.32    0.43
  -8  -5   0    5.50    0.23
  -8  -5   0    5.32    0.24
   8   5   0    5.09    0.42
  -8   5   0    4.55    0.44
   8   5   0    5.06    0.43
  -8   5   0    5.65    0.50
   9  -5   0    1.06    0.32
  -9  -5   0    0.71    0.16
  -9   5   0    1.11    0.37
   9   5   0    0.45    0.29
   9   5   0    0.71    0.27
  -9   5   0    0.71    0.33
  10  -5   0    3.16    0.42
 -10   5   0    3.40    0.47
  10   5   0    3.08    0.38
  10   5   0    2.94    0.41
 -10   5   0    3.42    0.50
  11  -5   0    1.85    0.40
  11   5   0    1.88    0.42
  11   5   0    2.42    0.38
 -11   5   0    1.89    0.40
  12  -5   0    0.99    0.41
  12   5   0    0.22    0.33
  12   5   0   -0.05    0.37
  13  -5   0    3.39    0.52
  13   5   0    2.95    0.54
  13   5   0    2.29    0.44
  14  -5   0    1.46    0.48
  14   5   0   -0.14    0.41
  14   5   0    0.76    0.38
  15  -5   0    0.80    0.48
  15   5   0    0.68    0.41
  15   5   0   -0.11    0.49
  16   5   0    1.00    0.45
  16   5   0    0.03    0.49
   0   6   0   12.19    0.34
  -1   6   0   23.85    0.63
  -2   6   0    0.18    0.15
  -3   6   0   50.37    1.27
  -3   6   0   50.93    1.24
   4  -6   0   16.61    0.47
   4   6   0   15.96    0.40
  -4   6   0   16.75    0.62
  -4   6   0   16.20    0.63
   5  -6   0   -0.02    0.15
   5   6   0    0.11    0.12
  -5   6   0   -0.31    0.22
  -5   6   0    0.14    0.22
   6  -6   0    5.86    0.38
   6   6   0    5.69    0.28
  -6   6   0    5.19    0.44
   6   6   0    5.52    0.33
  -6   6   0    5.61    0.51
   7  -6   0    2.72    0.31
  -7   6   0    2.32    0.38
   7   6   0    2.52    0.25
  -7   6   0    2.90    0.40
   7   6   0    2.43    0.27
   8  -6   0   32.96    1.01
  -8   6   0   33.65    1.18
  -8   6   0   31.70    1.14
   8   6   0   32.12    0.95
   8   6   0   32.57    0.96
   9  -6   0    8.80    0.60
   9   6   0    8.36    0.58
  -9   6   0    8.28    0.63
  -9   6   0    9.50    0.72
   9   6   0    9.33    0.54
  10  -6   0   11.00    0.70
 -10   6   0   13.56    0.84
  10   6   0   11.44    0.63
  10   6   0   11.82    0.72
  11  -6   0    4.86    0.51
 -11   6   0    5.15    0.68
  11   6   0    4.08    0.52
  11   6   0    3.95    0.43
  12  -6   0    0.19    0.64
  12   6   0   -0.02    0.39
  12   6   0   -0.08    0.32
  13   6   0    9.39    0.88
  13   6   0   10.09    0.73
  14   6   0    6.55    0.60
  14   6   0    7.26    0.74
  15   6   0    1.87    0.58
  15   6   0    2.65    0.49
   0   7   0    0.05    0.09
  -1   7   0    9.39    0.34
  -2   7   0   15.84    0.53
  -3   7   0    0.21    0.19
  -3   7   0    0.09    0.19
  -4   7   0    7.54    0.48
  -4   7   0    7.30    0.47
   5  -7   0   23.22    0.60
  -5   7   0   22.95    0.84
   5   7   0   21.68    0.52
  -5   7   0   22.00    0.82
   6  -7   0   11.95    0.47
   6   7   0   11.54    0.39
   6   7   0   12.12    0.39
  -6   7   0   12.70    0.70
   7   7   0    0.04    0.19
   7   7   0   -0.15    0.17
  -7   7   0    0.43    0.32
   8   7   0    7.89    0.50
  -8   7   0    8.56    0.70
   8   7   0    7.06    0.44
   9   7   0    9.10    0.53
   9   7   0   10.90    0.64
  -9   7   0   11.06    0.79
 -10   7   0    1.80    0.44
  10   7   0    2.75    0.43
  10   7   0    1.76    0.33
  11   7   0    3.93    0.42
  11   7   0    4.18    0.53
  12   7   0    3.70    0.44
  12   7   0    3.76    0.56
  13   7   0    0.51    0.36
  13   7   0   -0.31    0.42
   0   8   0    1.85    0.70
  -1   8   0   -0.05    0.13
  -2   8   0    1.91    0.25
  -3   8   0    1.55    0.28
  -4   8   0   -0.25    0.24
  -5   8   0    5.92    0.57
  -6   8   0    6.28    0.56
   6   8   0    6.27    0.30
   7   8   0   -0.07    0.14
  -7   8   0    0.71    0.34
   7   8   0   -0.20    0.20
  -8   8   0    0.16    0.34
   8   8   0   -0.24    0.17
   8   8   0   -0.09    0.25
   9   8   0   -0.25    0.21
  -9   8   0    0.17    0.36
   9   8   0   -0.07    0.30
  10   8   0    0.01    0.35
  10   8   0   -0.35    0.24
  11   8   0    0.39    0.42
  11   8   0   -0.02    0.29
  -1   9   0    7.95    0.44
  -2   9   0    6.27    0.48
  -3   9   0    1.46    0.32
  -4   9   0    1.27    0.33
  -5   9   0    3.60    0.46
  -6   9   0    4.01    0.50
   6   9   0    3.56    0.28
  -7   9   0    0.04    0.35
   7   9   0    0.00    0.22
  -8   9   0    1.15    0.43
   8   9   0    1.76    0.34
  -9   9   0    2.76    0.58
   9   9   0    2.47    0.42
   0  10   0   11.26    0.52
  -1  10   0    1.48    0.30
  -2  10   0    1.68    0.34
  -3  10   0    1.85    0.38
  -4  10   0    3.40    0.47
  18   0  -1    0.39    0.51
  17   0  -1    0.63    0.45
  16   0  -1   -0.21    0.44
  15   0  -1    0.09    0.43
  14   0  -1    0.03    0.35
  14   0  -1    0.08    0.41
  13   0  -1    0.11    0.33
  13   0  -1    0.39    0.39
  12   0  -1   -0.01    0.33
 -12   0   1    0.22    0.25
  12   0  -1   -0.18    0.34
  11   0  -1    1.85    0.39
 -11   0   1    0.54    0.25
 -10   0   1    0.39    0.27
  10   0  -1    1.33    0.32
 -10   0   1    0.42    0.23
  10   0  -1   -0.23    0.26
   9   0  -1   -0.19    0.22
   9   0  -1    0.12    0.23
  -9   0   1   -0.07    0.20
  -9   0   1    0.25    0.22
  -8   0   1   -0.12    0.22
   8   0  -1   -0.30    0.23
   8   0  -1   -0.23    0.20
  -8   0   1   -0.29    0.18
   7   0  -1   -0.03    0.18
  -7   0   1   -0.10    0.14
   7   0  -1   -0.05    0.18
  -7   0   1   -0.03    0.18
   6   0  -1    0.01    0.17
   6   0  -1   -0.13    0.14
  -6   0   1    0.23    0.15
  -6   0   1   -0.22    0.14
  -5   0   1    0.02    0.13
   5   0  -1   -0.15    0.13
  -5   0   1    0.10    0.13
   5   0  -1   -0.01    0.14
   4   0  -1   -0.17    0.11
   4   0  -1    0.21    0.12
  -4   0   1   -0.09    0.10
  -4   0   1    0.08    0.12
  -3   0   1   -0.06    0.07
   3   0  -1   -0.04    0.08
   3   0  -1    0.03    0.09
  -3   0   1   -0.01    0.08
   2   0  -1    0.03    0.05
  -2   0   1   -0.05    0.05
  -2   0   1    0.14    0.05
  -1   0   1   -0.10    0.06
   1   0  -1   -0.13    0.06
  -1   0   1    0.01    0.06
   0   0  -1   -0.11    0.03
   0   0   1   -0.10    0.03
  -1   0  -1   -0.12    0.04
  -2   0  -1    0.05    0.05
   2   0   1    0.08    0.05
   2   0   1    0.06    0.05
  -2   0  -1    0.10    0.05
   3   0   1    0.12    0.09
   3   0   1    0.05    0.08
  -3   0  -1    0.08    0.08
  -3   0  -1    0.00    0.07
  -4   0  -1   -0.03    0.09
   4   0   1    0.07    0.12
   4   0   1   -0.01    0.10
   5   0   1    0.11    0.14
   5   0   1   -0.05    0.14
  -5   0  -1    0.00    0.11
  -5   0  -1   -0.04    0.11
   6   0   1    0.06    0.15
  -6   0  -1    0.22    0.14
  -6   0  -1    0.32    0.14
  -7   0  -1    0.01    0.15
  -7   0  -1   -0.18    0.15
   7   0   1   -0.03    0.20
   7   0   1   -0.24    0.18
   8   0   1   -0.10    0.21
  -8   0  -1   -0.03    0.20
   8   0   1   -0.14    0.23
  -8   0  -1   -0.14    0.17
   9   0   1    0.43    0.24
   9   0   1    0.13    0.27
  -9   0  -1   -0.03    0.19
  -9   0  -1   -0.32    0.21
 -10   0  -1   -0.32    0.26
 -10   0  -1    0.20    0.20
  10   0   1   -0.28    0.24
  10   0   1   -0.32    0.32
  11   0   1    0.21    0.28
 -11   0  -1    0.29    0.22
  11   0   1    0.01    0.35
 -12   0  -1    0.22    0.22
  12   0   1    0.27    0.40
  12   0   1   -0.31    0.29
  13   0   1   -0.19    0.37
  13   0   1   -0.04    0.36
  14   0   1    0.24    0.44
  14   0   1    0.09    0.35
  15   0   1    0.42    0.43
  16   0   1   -0.17    0.39
  17   0   1    0.51    0.49
  18   0   1    0.59    0.45
  18  -1  -1    0.36    0.51
  18   1  -1    1.58    0.51
  17  -1  -1    4.86    0.62
  17   1  -1    4.18    0.63
  16  -1  -1   17.38    1.04
  16   1  -1   16.53    1.01
  15  -1  -1    4.15    0.56
  15   1  -1    3.67    0.52
  14  -1  -1    1.50    0.46
  14   1  -1    0.88    0.46
  14   1  -1    1.33    0.40
  13  -1  -1   14.14    0.85
  13   1  -1   14.33    0.92
  13   1  -1   13.26    0.82
  12  -1  -1   24.04    1.00
  12   1  -1   21.64    0.96
  12   1  -1   22.31    1.04
 -12   1   1   24.10    0.95
  11  -1  -1   51.35    1.51
 -11   1   1   51.61    1.51
  11   1  -1   49.83    1.46
  11   1  -1   50.95    1.58
 -10  -1   1   38.70    1.15
  10  -1  -1   39.50    1.21
  10   1  -1   38.54    1.28
  10   1  -1   38.29    1.18
 -10   1   1   40.10    1.23
 -10   1   1   39.68    1.23
  -9  -1   1    3.12    0.34
   9  -1  -1    2.22    0.33
  -9  -1   1    3.38    0.32
  -9   1   1    2.59    0.31
   9   1  -1    2.75    0.38
  -9   1   1    3.07    0.35
   9   1  -1    1.98    0.30
  -8  -1   1   26.96    0.85
   8  -1  -1   29.13    0.93
  -8  -1   1   31.83    0.93
   8   1  -1   28.13    0.91
  -8   1   1   30.05    0.97
  -8   1   1   30.30    0.95
   8   1  -1   28.88    0.96
   7  -1  -1   32.27    0.95
  -7  -1   1   33.50    0.94
  -7  -1   1   30.29    0.87
  -7   1   1   31.95    0.95
   7   1  -1   30.64    0.93
  -7   1   1   32.54    0.99
   7   1  -1   32.82    0.97
   6  -1  -1  240.05    5.14
  -6  -1   1  236.33    5.07
  -6  -1   1  248.01    5.13
   6   1  -1  239.12    5.13
   6   1  -1  232.30    5.11
  -6   1   1  249.19    5.16
  -5  -1   1   31.34    0.81
   5  -1  -1   29.26    0.82
   5  -1  -1   28.71    0.88
  -5  -1   1   29.73    0.75
   5   1  -1   29.99    0.79
  -5   1   1   29.90    0.88
   5   1  -1   28.83    0.79
  -5   1   1   30.41    0.83
  -4  -1   1    8.12    0.27
   4  -1  -1    7.25    0.37
   4  -1  -1    9.11    0.35
  -4  -1   1    8.42    0.33
  -4   1   1    8.55    0.38
   4   1  -1    8.42    0.30
  -4   1   1    7.97    0.33
   4   1  -1    7.51    0.31
   3  -1  -1  223.61    4.53
  -3  -1   1  218.62    4.52
   3  -1  -1  205.80    4.59
  -3  -1   1  220.39    4.47
  -3   1   1  213.12    4.59
   3   1  -1  218.60    4.52
   3   1  -1  216.71    4.49
  -3   1   1  223.15    4.53
  -2  -1   1  271.75    5.61
   2  -1  -1  279.58    5.62
   2  -1  -1  259.13    5.67
   2   1  -1  276.63    5.63
   2   1  -1  281.25    5.61
  -2   1   1  281.55    5.62
  -2   1   1  266.60    5.67
  -1  -1   1   22.43    0.49
   1  -1  -1   20.11    0.50
   1  -1  -1   22.66    0.53
  -1   1   1   21.83    0.54
  -1   1   1   22.11    0.51
   1   1  -1   22.56    0.49
   1   1  -1   21.75    0.49
   0  -1   1  277.85    5.62
   0   1  -1  270.83    5.60
   0   1   1  270.90    5.61
   0   1  -1  276.20    5.66
  -1  -1  -1  201.08    4.03
   1  -1   1  194.15    4.05
   1   1   1  201.02    4.06
  -1   1  -1  199.80    4.05
   1   1   1  203.79    4.03
   1   1   1  184.94    4.06
  -2  -1  -1   22.19    0.50
   2  -1   1   22.32    0.55
  -2  -1  -1   21.32    0.51
   2   1   1   22.64    0.55
  -2   1  -1   22.97    0.55
   2   1   1   21.85    0.51
   3  -1   1    7.35    0.29
  -3  -1  -1    6.95    0.25
  -3  -1  -1    7.26    0.24
   3   1   1    7.73    0.25
  -3   1  -1    7.30    0.29
   3   1   1    7.32    0.30
  -3   1  -1    7.64    0.28
  -4  -1  -1  276.95    5.97
   4  -1   1  295.51    6.03
   4  -1   1  287.22    6.01
  -4  -1  -1  294.17    5.95
   4   1   1  288.81    6.03
   4   1   1  287.50    5.95
  -4   1  -1  279.74    6.00
  -4   1  -1  288.94    6.02
  -5  -1  -1  125.48    2.66
   5  -1   1  119.63    2.75
   5  -1   1  123.93    2.73
  -5  -1  -1  121.41    2.69
  -5   1  -1  123.15    2.75
  -5   1  -1  121.51    2.72
   5   1   1  124.53    2.77
   5   1   1  124.89    2.69
  -6  -1  -1    7.77    0.35
   6  -1   1    6.00    0.39
   6  -1   1    9.53    0.44
  -6  -1  -1    8.23    0.38
   6   1   1    8.50    0.41
  -6   1  -1    7.60    0.40
   6   1   1    8.56    0.46
  -6   1  -1    8.66    0.45
   7  -1   1   10.32    0.51
  -7  -1  -1   10.34    0.46
  -7  -1  -1   10.98    0.46
   7   1   1   10.42    0.50
   7   1   1   10.06    0.54
  -7   1  -1   10.40    0.51
  -7   1  -1   10.61    0.52
  -8  -1  -1   40.17    1.12
   8  -1   1   41.34    1.18
  -8  -1  -1   41.01    1.13
   8   1   1   41.07    1.25
  -8   1  -1   41.79    1.17
  -8   1  -1   41.90    1.22
   8   1   1   39.64    1.15
  -9  -1  -1   71.47    1.80
  -9  -1  -1   68.95    1.79
   9  -1   1   74.35    1.87
  -9   1  -1   73.82    1.85
   9   1   1   73.04    1.84
  -9   1  -1   71.62    1.90
   9   1   1   73.89    1.95
 -10  -1  -1   21.05    0.83
  10  -1   1   17.24    0.77
 -10   1  -1   18.48    0.81
  10   1   1   17.87    0.78
  10   1   1   18.92    0.89
 -10   1  -1   17.86    0.76
  11  -1   1   26.91    0.98
  11   1   1   26.29    0.96
  11   1   1   27.84    1.11
 -11   1  -1   24.69    1.01
  12  -1   1   -0.16    0.17
  12  -1   1    0.71    0.32
  12   1   1    0.59    0.37
 -12   1  -1    0.45    0.25
  12   1   1    0.40    0.30
  13  -1   1    9.38    0.75
  13   1   1    8.86    0.67
  13   1   1    9.58    0.87
  14  -1   1   11.25    0.77
  14   1   1   11.04    0.80
  14   1   1   11.52    0.94
  15  -1   1   14.66    0.88
  15   1   1   17.43    0.97
  16  -1   1    1.63    0.50
  16   1   1    0.58    0.42
  17  -1   1    0.68    0.45
  17   1   1    1.89    0.53
  18  -1   1    2.07    0.52
  18   1   1    1.92    0.55
  18  -2  -1    1.65    0.52
  18   2  -1    1.29    0.56
  17  -2  -1    5.14    0.66
  17   2  -1    4.85    0.64
  16  -2  -1    0.82    0.49
  16   2  -1    0.82    0.42
  15  -2  -1   22.37    1.12
  15   2  -1   23.34    1.09
  15   2  -1   21.22    1.18
  14  -2  -1    3.29    0.53
  14   2  -1    2.39    0.54
  14   2  -1    2.31    0.48
  13  -2  -1    1.99    0.46
  13   2  -1    1.43    0.41
  13   2  -1    2.00    0.40
  12  -2  -1   51.21    1.68
  12  -2  -1   49.47    1.52
  12   2  -1   50.22    1.61
  12   2  -1   50.53    1.51
 -12   2   1   49.77    1.54
  11  -2  -1   14.00    0.76
  11  -2  -1   13.49    0.83
 -11   2   1   12.80    0.72
  11   2  -1   14.13    0.80
  11   2  -1   13.58    0.72
  10  -2  -1   21.37    0.87
  10  -2  -1   22.69    1.00
 -10   2   1   24.63    0.90
  10   2  -1   23.87    0.95
 -10   2   1   22.75    0.92
  10   2  -1   24.09    0.88
   9  -2  -1    4.04    0.45
  -9  -2   1    4.10    0.36
   9  -2  -1    2.58    0.37
  -9   2   1    3.93    0.41
   9   2  -1    4.00    0.42
   9   2  -1    2.90    0.34
  -9   2   1    2.50    0.31
   8  -2  -1   39.89    1.22
   8  -2  -1   37.71    1.13
  -8  -2   1   38.34    1.06
   8   2  -1   37.81    1.10
  -8   2   1   38.90    1.20
   8   2  -1   37.78    1.12
  -8   2   1   38.79    1.14
   7  -2  -1   13.70    0.57
   7  -2  -1   14.21    0.65
  -7  -2   1   15.25    0.50
  -7  -2   1   14.51    0.54
  -7   2   1   14.66    0.65
  -7   2   1   13.56    0.58
   7   2  -1   14.06    0.56
   7   2  -1   14.07    0.56
  -6  -2   1    8.10    0.39
   6  -2  -1    8.83    0.48
   6  -2  -1    8.17    0.44
  -6  -2   1    8.77    0.30
  -6   2   1    8.56    0.43
   6   2  -1    8.17    0.38
   6   2  -1    9.12    0.41
  -6   2   1    9.56    0.49
   5  -2  -1   12.41    0.47
  -5  -2   1   11.78    0.42
  -5  -2   1   11.90    0.32
   5  -2  -1   11.89    0.49
  -5   2   1   11.60    0.46
   5   2  -1   11.62    0.39
  -5   2   1   12.86    0.52
   5   2  -1   11.78    0.44
   4  -2  -1   60.91    1.44
   4  -2  -1   63.82    1.41
  -4  -2   1   59.60    1.37
   4   2  -1   60.57    1.38
  -4   2   1   61.72    1.42
  -4   2   1   59.71    1.47
   4   2  -1   60.45    1.33
   3  -2  -1  186.91    3.81
  -3  -2   1  174.88    3.78
   3  -2  -1  186.85    3.83
  -3   2   1  185.59    3.83
   3   2  -1  178.64    3.78
   3   2  -1  183.34    3.74
  -3   2   1  178.11    3.87
  -2  -2   1 1000.00   19.20
   2  -2  -1  956.28   19.40
   2   2  -1  918.77   19.30
  -2   2   1  921.51   19.40
  -2   2   1  909.02   19.47
   1   2  -1   79.40    1.62
   1   2  -1   78.25    1.62
  -1   2   1   80.01    1.65
  -1   2   1   77.26    1.65
   0  -2   1   77.08    1.63
   0  -2   1   79.91    1.62
   0   2  -1   78.74    1.64
   0   2   1   80.51    1.64
   1  -2   1    1.65    0.11
   1   2   1    2.40    0.09
  -1   2  -1    2.61    0.13
  -2  -2  -1  343.61    6.75
   2  -2   1  317.30    6.84
   2   2   1  335.66    6.78
  -2   2  -1  330.13    6.83
  -3  -2  -1   12.17    0.32
   3  -2   1   12.48    0.42
   3   2   1   12.24    0.33
   3   2   1   12.55    0.34
  -3   2  -1   12.59    0.41
  -4  -2  -1    1.39    0.12
   4  -2   1    1.60    0.20
  -4   2  -1    1.29    0.18
   4   2   1    1.59    0.16
   4   2   1    1.49    0.14
  -4   2  -1    1.28    0.16
   5  -2   1   13.32    0.51
  -5  -2  -1   13.15    0.36
  -5  -2  -1   14.28    0.41
   5   2   1   13.72    0.49
  -5   2  -1   13.30    0.50
  -5   2  -1   13.21    0.50
   5   2   1   13.94    0.46
  -6  -2  -1    5.81    0.25
  -6  -2  -1    4.75    0.27
   6   2   1    5.13    0.37
   6   2   1    4.64    0.32
  -6   2  -1    6.53    0.38
  -6   2  -1    5.74    0.38
  -7  -2  -1    0.56    0.16
   7  -2   1    0.29    0.22
   7  -2   1    0.47    0.20
   7   2   1    0.46    0.20
  -7   2  -1    0.66    0.24
  -7   2  -1    0.56    0.20
   7   2   1    0.32    0.23
  -8  -2  -1   37.68    1.02
   8  -2   1   39.06    1.14
   8  -2   1   35.50    1.15
  -8   2  -1   36.31    1.11
  -8   2  -1   35.82    1.14
   8   2   1   39.51    1.10
   8   2   1   38.55    1.17
   9  -2   1   95.11    2.42
   9  -2   1   95.54    2.33
  -9  -2  -1   92.89    2.23
   9   2   1  100.07    2.42
  -9   2  -1   90.55    2.37
  -9   2  -1  102.18    2.37
   9   2   1   92.28    2.29
  10  -2   1   14.30    0.70
  10  -2   1   13.13    0.76
  10   2   1   15.56    0.80
  10   2   1   14.42    0.69
 -10   2  -1   13.92    0.72
 -10   2  -1   14.30    0.75
  11  -2   1    0.09    0.31
  11  -2   1    0.74    0.32
  11   2   1   -0.29    0.30
  11   2   1    0.69    0.32
 -11   2  -1    0.34    0.28
  12  -2   1   33.94    1.18
  12   2   1   35.63    1.32
  12   2   1   35.20    1.19
 -12   2  -1   31.63    1.21
  13  -2   1   18.63    0.90
  13   2   1   20.64    1.08
  13   2   1   19.89    0.93
  14  -2   1   13.23    0.81
  14   2   1   13.78    0.98
  14   2   1   13.72    0.84
  15  -2   1    1.03    0.42
  15   2   1    0.88    0.45
  15   2   1    0.38    0.53
  16  -2   1   14.71    0.92
  16   2   1   13.87    0.94
  17  -2   1    3.35    0.57
  17   2   1    2.82    0.53
  18  -2   1    0.75    0.48
  18   2   1    0.28    0.49
  17  -3  -1    1.80    0.54
  17   3  -1    1.53    0.52
  16  -3  -1    0.62    0.48
  16   3  -1    1.43    0.47
  15  -3  -1    0.90    0.43
  15   3  -1    0.29    0.44
  15   3  -1    0.80    0.42
  14  -3  -1    2.43    0.48
  14   3  -1    2.81    0.48
  14   3  -1    3.10    0.56
  13  -3  -1    1.91    0.47
  13   3  -1    1.40    0.38
  13   3  -1    1.31    0.48
  12  -3  -1    0.16    0.37
  12  -3  -1    0.06    0.36
  12   3  -1    0.46    0.33
 -12   3   1    0.31    0.28
  11  -3  -1    0.27    0.35
  11  -3  -1    0.58    0.35
  11   3  -1    1.08    0.38
 -11   3   1    0.98    0.34
  11   3  -1    0.16    0.30
  10  -3  -1    6.95    0.60
  10  -3  -1    5.27    0.48
  10   3  -1    6.08    0.57
  10   3  -1    5.97    0.47
 -10   3   1    6.87    0.55
 -10   3   1    5.11    0.48
  -9  -3   1    6.57    0.43
   9  -3  -1    6.53    0.55
   9  -3  -1    6.80    0.51
   9   3  -1    6.57    0.49
  -9   3   1    7.96    0.54
   9   3  -1    7.26    0.53
  -9   3   1    7.46    0.59
   8  -3  -1   -0.31    0.21
  -8  -3   1   -0.40    0.15
   8  -3  -1   -0.02    0.24
  -8   3   1   -0.05    0.22
   8   3  -1   -0.12    0.21
   8   3  -1   -0.28    0.19
  -8   3   1   -0.07    0.24
   7  -3  -1    6.99    0.44
  -7  -3   1    6.19    0.34
   7  -3  -1    6.37    0.42
  -7   3   1    7.06    0.48
   7   3  -1    6.87    0.39
  -7   3   1    7.21    0.51
   7   3  -1    6.16    0.40
   6  -3  -1    2.50    0.25
   6  -3  -1    3.07    0.29
  -6   3   1    3.79    0.33
   6   3  -1    2.86    0.26
  -6   3   1    4.23    0.39
   6   3  -1    2.60    0.22
   5  -3  -1   14.85    0.50
  -5  -3   1   12.72    0.39
   5   3  -1   12.62    0.45
  -5   3   1   13.99    0.53
   5   3  -1   13.40    0.39
  -5   3   1   12.54    0.54
  -4  -3   1   14.36    0.36
  -4  -3   1   15.04    0.37
   4  -3  -1   14.39    0.47
  -4   3   1   14.10    0.50
   4   3  -1   14.04    0.43
  -4   3   1   14.23    0.52
   4   3  -1   14.01    0.36
   3  -3  -1    8.02    0.30
  -3   3   1    8.09    0.34
   3   3  -1    8.19    0.26
  -3   3   1    8.18    0.34
   2   3  -1   14.43    0.34
  -2   3   1   14.81    0.41
  -2   3   1   14.71    0.42
   1  -3  -1    5.00    0.16
  -1   3   1    4.87    0.19
   1   3  -1    5.27    0.15
   1   3  -1    5.13    0.15
   0   3  -1   26.14    0.57
   0   3   1   25.49    0.57
   1  -3   1  193.13    3.92
   1   3   1  188.24    3.89
  -1   3  -1  191.73    3.95
   2  -3   1    0.00    0.02
   2   3   1    0.06    0.05
  -2   3  -1    0.41    0.11
   3  -3   1    6.80    0.31
   3   3   1    7.58    0.23
  -3   3  -1    6.85    0.32
  -4  -3  -1   -0.02    0.07
   4  -3   1   -0.20    0.13
  -4   3  -1   -0.08    0.12
   4   3   1   -0.01    0.10
  -4   3  -1   -0.25    0.14
   4   3   1   -0.17    0.08
   5  -3   1    4.09    0.34
  -5  -3  -1    4.33    0.21
  -5   3  -1    3.31    0.29
  -5   3  -1    3.97    0.32
   5   3   1    3.56    0.26
   5   3   1    4.86    0.27
  -6  -3  -1   13.38    0.41
   6  -3   1   12.65    0.56
  -6   3  -1   12.22    0.54
   6   3   1   12.79    0.51
   6   3   1   13.21    0.49
  -6   3  -1   13.69    0.57
   7  -3   1   32.18    1.00
  -7  -3  -1   34.06    0.85
  -7   3  -1   33.65    1.01
   7   3   1   33.10    0.94
  -7   3  -1   33.36    1.04
   7   3   1   32.23    0.98
  -8  -3  -1    0.08    0.15
   8  -3   1   -0.03    0.24
   8   3   1   -0.07    0.22
  -8   3  -1   -0.01    0.25
   8   3   1   -0.06    0.22
  -8   3  -1   -0.42    0.20
   9  -3   1   15.63    0.73
  -9  -3  -1   14.17    0.57
  -9   3  -1   14.55    0.74
  -9   3  -1   13.70    0.69
   9   3   1   15.28    0.75
   9   3   1   15.83    0.68
  10  -3   1   16.39    0.77
  10   3   1   14.62    0.69
 -10   3  -1   13.98    0.75
 -10   3  -1   13.76    0.70
  10   3   1   14.37    0.78
  11  -3   1    7.97    0.65
 -11   3  -1    7.07    0.65
  11   3   1    6.92    0.62
  11   3   1    7.10    0.58
  12  -3   1    3.62    0.46
  12   3   1    3.12    0.43
 -12   3  -1    3.83    0.49
  12   3   1    4.65    0.59
  13  -3   1    0.60    0.42
  13   3   1    0.46    0.35
  13   3   1    0.45    0.39
  14  -3   1    0.91    0.40
  14   3   1    0.89    0.39
  14   3   1    0.25    0.46
  15  -3   1    0.57    0.42
  15   3   1    0.63    0.39
  15   3   1   -0.22    0.46
  16  -3   1    3.89    0.61
  16   3   1    3.69    0.57
  17  -3   1    1.08    0.53
  17   3   1    0.95    0.48
  17  -4  -1    1.12    0.48
  17   4  -1    0.60    0.46
  16  -4  -1    2.74    0.57
  16   4  -1    3.15    0.62
  16   4  -1    2.58    0.53
  15  -4  -1    9.27    0.78
  15   4  -1   10.00    0.88
  15   4  -1    9.84    0.81
  14  -4  -1    9.46    0.75
  14   4  -1   10.51    0.91
  14   4  -1   10.92    0.79
  13  -4  -1    0.80    0.41
  13   4  -1    0.18    0.41
  13   4  -1    0.28    0.35
  12  -4  -1    2.71    0.47
  12   4  -1    2.37    0.46
  12   4  -1    2.04    0.40
  11  -4  -1   23.28    0.95
  11   4  -1   25.68    0.96
  11   4  -1   25.38    1.02
 -11   4   1   24.68    1.08
  10  -4  -1    0.20    0.31
 -10   4   1   -0.07    0.32
  10   4  -1   -0.06    0.28
  10   4  -1    0.35    0.28
 -10   4   1    0.08    0.28
   9  -4  -1    0.58    0.29
  -9  -4   1    0.80    0.19
  -9   4   1    0.63    0.28
   9   4  -1    0.57    0.27
   9   4  -1    1.08    0.28
  -9   4   1    0.91    0.34
   8  -4  -1   25.93    0.90
  -8  -4   1   25.43    0.72
  -8   4   1   26.31    0.99
  -8   4   1   27.03    0.96
   8   4  -1   26.01    0.83
   8   4  -1   26.78    0.82
   7  -4  -1    3.65    0.33
  -7  -4   1    3.82    0.24
  -7   4   1    3.93    0.37
   7   4  -1    3.33    0.32
  -7   4   1    3.24    0.36
   7   4  -1    3.76    0.32
   6  -4  -1   20.48    0.68
  -6  -4   1   20.93    0.52
  -6  -4   1   20.18    0.51
   6   4  -1   20.42    0.63
  -6   4   1   21.45    0.76
  -6   4   1   21.58    0.79
   6   4  -1   20.27    0.58
  -5  -4   1    0.28    0.07
  -5  -4   1    0.30    0.08
  -5   4   1    0.50    0.22
  -5   4   1    0.40    0.23
   4  -4  -1  215.54    4.56
   4   4  -1  221.16    4.52
  -4   4   1  216.94    4.66
  -4   4   1  217.56    4.65
  -3   4   1    6.84    0.34
  -3   4   1    6.85    0.32
   3   4  -1    6.47    0.22
   2  -4  -1   49.78    1.07
   2   4  -1   48.56    1.04
  -2   4   1   48.02    1.11
  -2   4   1   50.42    1.14
  -1   4   1   17.13    0.45
   1   4  -1   17.07    0.39
   0   4  -1   14.54    0.36
   0   4   1   14.20    0.35
  -1   4  -1    1.23    0.13
   1   4   1    1.25    0.09
   2  -4   1   30.85    0.71
  -2   4  -1   30.80    0.77
   2   4   1   30.37    0.66
   3   4   1   28.57    0.65
  -3   4  -1   28.58    0.78
   4  -4   1    1.34    0.19
  -4   4  -1    1.40    0.22
  -4   4  -1    1.83    0.23
   4   4   1    1.99    0.16
  -5  -4  -1   -0.04    0.06
   5  -4   1   -0.18    0.17
   5   4   1    0.26    0.14
   5   4   1    0.05    0.11
  -5   4  -1   -0.12    0.19
  -5   4  -1   -0.09    0.16
  -6  -4  -1   33.87    0.78
   6  -4   1   33.81    0.98
  -6   4  -1   33.33    1.01
  -6   4  -1   35.21    1.02
   6   4   1   33.53    0.91
   6   4   1   34.42    0.89
   7  -4   1   29.69    0.94
  -7  -4  -1   30.75    0.75
  -7   4  -1   29.61    0.98
  -7   4  -1   29.56    0.99
   7   4   1   30.36    0.90
   7   4   1   30.79    0.90
  -8  -4  -1    0.82    0.17
   8  -4   1    0.46    0.27
  -8   4  -1    0.92    0.32
   8   4   1    0.50    0.24
  -8   4  -1    0.77    0.27
   8   4   1    0.61    0.26
  -9  -4  -1   11.11    0.49
   9  -4   1   10.59    0.59
  -9   4  -1    9.57    0.68
   9   4   1   11.86    0.66
  -9   4  -1    9.31    0.65
   9   4   1   10.94    0.59
  10  -4   1   43.62    1.33
  10   4   1   43.77    1.38
 -10   4  -1   41.51    1.40
 -10   4  -1   41.69    1.36
  10   4   1   42.08    1.27
  11  -4   1    4.68    0.49
  11   4   1    4.85    0.46
  11   4   1    3.86    0.50
 -11   4  -1    3.35    0.46
  12  -4   1    1.07    0.40
  12   4   1    0.87    0.41
  12   4   1    0.93    0.36
  13  -4   1   21.33    1.02
  13   4   1   22.01    0.95
  13   4   1   20.75    1.08
  14  -4   1    1.55    0.48
  14   4   1    1.16    0.42
  14   4   1    0.96    0.48
  15  -4   1    2.12    0.51
  15   4   1    0.37    0.49
  15   4   1    1.24    0.44
  16  -4   1    2.71    0.57
  16   4   1    2.60    0.53
  16   4   1    2.36    0.59
  17  -4   1    4.22    0.64
  17   4   1    4.09    0.60
  16   5  -1    4.19    0.70
  16   5  -1    5.03    0.60
  15  -5  -1    2.17    0.56
  15   5  -1    3.36    0.52
  15   5  -1    2.31    0.57
  14  -5  -1    6.99    0.68
  14   5  -1    6.64    0.62
  14   5  -1    5.74    0.68
  13  -5  -1    4.02    0.52
  13   5  -1    4.44    0.58
  13   5  -1    4.67    0.52
  12  -5  -1    2.78    0.47
  12   5  -1    2.61    0.43
  12   5  -1    2.51    0.47
  11  -5  -1    2.47    0.42
  11   5  -1    2.18    0.38
 -11   5   1    2.64    0.43
  11   5  -1    3.08    0.45
  10  -5  -1   31.60    1.09
  10   5  -1   29.57    1.03
 -10   5   1   31.83    1.23
  10   5  -1   33.12    1.08
 -10   5   1   33.24    1.16
   9  -5  -1   16.28    0.73
  -9  -5   1   15.20    0.49
  -9  -5   1   15.82    0.48
   9   5  -1   15.27    0.67
   9   5  -1   16.09    0.68
  -9   5   1   16.38    0.81
  -9   5   1   16.41    0.86
  -8  -5   1    3.29    0.21
   8  -5  -1    3.62    0.37
  -8  -5   1    3.80    0.22
  -8   5   1    3.61    0.44
   8   5  -1    3.75    0.34
  -8   5   1    4.40    0.46
   8   5  -1    4.14    0.33
   7  -5  -1   20.71    0.73
  -7   5   1   21.60    0.85
  -7   5   1   21.13    0.87
   7   5  -1   20.59    0.63
   7   5  -1   19.54    0.67
   6  -5  -1  121.79    2.70
  -6   5   1  122.17    2.84
   6   5  -1  121.18    2.64
  -6   5   1  119.56    2.85
   6   5  -1  121.87    2.58
   5  -5  -1   35.21    0.91
  -5   5   1   35.87    1.06
  -5   5   1   35.29    1.05
   5   5  -1   35.52    0.86
   5   5  -1   34.57    0.79
  -4   5   1    6.35    0.40
  -4   5   1    6.22    0.41
   4   5  -1    5.70    0.24
   3  -5  -1  128.53    2.64
  -3   5   1  123.52    2.73
  -3   5   1  127.36    2.78
   3   5  -1  121.48    2.58
  -2   5   1   11.50    0.43
  -2   5   1   11.02    0.37
   1   5  -1   15.96    0.37
  -1   5   1   15.75    0.47
   0   5  -1   43.32    0.95
   0   5   1   44.06    0.97
  -1   5  -1   48.77    1.08
   1   5   1   47.04    1.00
   1   5   1   46.66    1.00
   2  -5   1    3.15    0.12
  -2   5  -1    3.39    0.25
   3  -5   1   25.58    0.64
   3   5   1   25.59    0.59
  -3   5  -1   26.92    0.75
  -4   5  -1   18.65    0.64
  -4   5  -1   17.80    0.63
   4   5   1   18.51    0.50
   5  -5   1   62.31    1.45
   5   5   1   59.51    1.31
   5   5   1   59.57    1.40
  -5   5  -1   60.71    1.53
  -5   5  -1   61.06    1.53
   6  -5   1    9.46    0.48
   6   5   1    8.35    0.39
  -6   5  -1    9.58    0.54
  -6   5  -1    9.48    0.54
   6   5   1    8.95    0.43
   7  -5   1   78.54    1.91
   7   5   1   76.62    1.83
  -7   5  -1   77.98    1.98
  -7   5  -1   76.96    1.99
   7   5   1   79.01    1.85
  -8  -5  -1   19.78    0.51
   8  -5   1   18.66    0.78
   8   5   1   21.12    0.73
  -8   5  -1   19.38    0.83
  -8   5  -1   20.60    0.88
   8   5   1   20.41    0.77
   9  -5   1   12.94    0.69
  -9  -5  -1   13.63    0.45
  -9   5  -1   14.33    0.80
   9   5   1   15.71    0.74
   9   5   1   16.43    0.69
  -9   5  -1   13.42    0.75
  10  -5   1    0.36    0.33
 -10   5  -1   -0.41    0.32
  10   5   1    0.03    0.28
  10   5   1   -0.18    0.31
 -10   5  -1    0.00    0.31
  11  -5   1   16.46    0.84
  11   5   1   15.82    0.76
  11   5   1   14.99    0.86
 -11   5  -1   15.48    0.90
  12  -5   1    9.96    0.74
  12   5   1   10.05    0.69
  12   5   1    9.31    0.80
  13  -5   1    4.63    0.57
  13   5   1    3.88    0.57
  13   5   1    4.11    0.49
  14  -5   1    6.86    0.67
  14   5   1    6.81    0.60
  14   5   1    5.97    0.68
  15  -5   1    1.89    0.51
  15   5   1    1.71    0.45
  15   5   1    0.77    0.54
  16   5   1    1.21    0.46
  16   5   1    0.52    0.53
  15   6  -1    0.27    0.40
  15   6  -1   -0.26    0.47
  14   6  -1    5.70    0.71
  14   6  -1    5.19    0.57
  13   6  -1    0.37    0.43
  13   6  -1    0.47    0.37
  12   6  -1    0.26    0.39
  12   6  -1    0.47    0.34
  11  -6  -1    3.46    0.47
  11   6  -1    4.06    0.50
  11   6  -1    3.38    0.42
 -11   6   1    2.40    0.47
  10  -6  -1    1.60    0.36
  10   6  -1    1.69    0.36
 -10   6   1    2.47    0.48
  10   6  -1    1.42    0.32
   9  -6  -1    0.53    0.29
   9   6  -1    0.24    0.25
  -9   6   1    0.18    0.32
  -9   6   1    0.83    0.37
   9   6  -1    0.08    0.26
   8  -6  -1    2.95    0.34
   8   6  -1    2.16    0.28
  -8   6   1    2.20    0.37
  -8   6   1    2.38    0.40
   8   6  -1    2.50    0.29
   7  -6  -1   14.70    0.58
   7   6  -1   13.95    0.53
  -7   6   1   13.66    0.75
   7   6  -1   13.36    0.50
  -7   6   1   14.37    0.75
   6  -6  -1    4.00    0.30
   6   6  -1    3.41    0.25
  -6   6   1    3.46    0.39
  -6   6   1    3.70    0.41
   6   6  -1    5.04    0.30
   5  -6  -1    3.17    0.24
  -5   6   1    3.19    0.36
   5   6  -1    3.94    0.23
  -5   6   1    2.52    0.34
   4  -6  -1    0.39    0.14
  -4   6   1    0.36    0.21
   4   6  -1    0.49    0.10
  -4   6   1    0.18    0.22
  -3   6   1    0.30    0.21
  -3   6   1    0.71    0.18
  -2   6   1    3.63    0.27
  -2   6   1    3.50    0.28
   1   6  -1   17.80    0.40
  -1   6   1   16.51    0.54
   0   6  -1    4.62    0.20
   0   6   1    4.28    0.25
  -1   6  -1    1.90    0.16
  -2   6  -1    0.10    0.13
   3  -6   1    5.05    0.17
  -3   6  -1    5.55    0.36
   4  -6   1    0.54    0.14
   4   6   1    0.61    0.13
  -4   6  -1    0.69    0.22
  -4   6  -1    0.65    0.22
   5  -6   1    3.27    0.27
   5   6   1    2.72    0.22
  -5   6  -1    3.04    0.33
  -5   6  -1    3.08    0.33
   6  -6   1    1.49    0.24
   6   6   1    2.10    0.21
   6   6   1    1.85    0.22
  -6   6  -1    2.07    0.32
  -6   6  -1    1.94    0.33
   7  -6   1    3.72    0.35
   7   6   1    4.14    0.33
  -7   6  -1    3.28    0.39
  -7   6  -1    3.73    0.43
   7   6   1    3.74    0.31
   8  -6   1   10.54    0.58
   8   6   1   10.63    0.53
  -8   6  -1   11.21    0.72
   8   6   1    9.00    0.57
  -8   6  -1   10.45    0.68
   9  -6   1    0.51    0.31
   9   6   1    0.89    0.28
   9   6   1    0.64    0.32
  -9   6  -1   -0.12    0.34
  -9   6  -1    0.97    0.38
  10  -6   1    4.43    0.47
  10   6   1    4.59    0.43
 -10   6  -1    3.48    0.46
  10   6   1    4.68    0.51
  11  -6   1    1.05    0.39
  11   6   1    1.27    0.34
 -11   6  -1    0.96    0.46
  11   6   1    1.15    0.41
  12   6   1    1.03    0.44
  12   6   1    1.00    0.36
  13   6   1    3.48    0.47
  13   6   1    2.88    0.56
  14   6   1    0.10    0.37
  14   6   1   -0.05    0.46
  15   6   1    0.08    0.50
  15   6   1    0.88    0.41
  13   7  -1    2.75    0.55
  13   7  -1    2.60    0.45
  12   7  -1    0.24    0.39
  12   7  -1    0.17    0.34
  11   7  -1    0.14    0.31
  11   7  -1    0.21    0.36
 -10   7   1    2.42    0.49
  10   7  -1    2.26    0.35
  10   7  -1    3.16    0.42
   9   7  -1    0.56    0.26
  -9   7   1    1.82    0.45
   9   7  -1    0.76    0.30
  -8   7   1    0.03    0.33
   8   7  -1   -0.11    0.23
   8   7  -1   -0.08    0.21
   7   7  -1    0.17    0.18
  -7   7   1    0.61    0.32
   7   7  -1    0.54    0.20
   6  -7  -1    0.04    0.18
   6   7  -1    0.34    0.15
   6   7  -1    0.19    0.14
  -6   7   1    0.47    0.29
   5  -7  -1    9.21    0.35
  -5   7   1    8.89    0.60
  -5   7   1    9.25    0.56
   5   7  -1    8.85    0.28
  -4   7   1    2.45    0.32
  -4   7   1    2.43    0.31
  -3   7   1    3.09    0.31
  -3   7   1    4.45    0.39
  -2   7   1    1.62    0.22
  -2   7   1    1.45    0.21
  -1   7   1    0.04    0.14
   0   7   1    0.80    0.13
   0   7  -1    0.82    0.11
  -1   7  -1   28.91    0.71
  -2   7  -1    0.47    0.16
  -3   7  -1    4.19    0.33
  -4   7  -1    1.61    0.28
  -4   7  -1    0.82    0.23
   5  -7   1   11.43    0.38
  -5   7  -1   10.06    0.56
   5   7   1    9.95    0.32
  -5   7  -1   11.23    0.61
   6  -7   1    0.66    0.20
   6   7   1    0.38    0.17
   6   7   1    0.28    0.16
  -6   7  -1    0.85    0.30
  -7   7  -1    4.53    0.48
   7   7   1    3.86    0.29
   7   7   1    4.18    0.34
   8   7   1    2.73    0.31
   8   7   1    2.54    0.35
  -8   7  -1    2.96    0.45
   9   7   1   -0.08    0.31
   9   7   1   -0.29    0.23
  -9   7  -1    0.27    0.35
  10   7   1    0.24    0.27
  10   7   1    0.57    0.37
 -10   7  -1    0.87    0.42
  11   7   1    4.42    0.55
  11   7   1    4.45    0.44
  12   7   1    2.42    0.52
  12   7   1    2.43    0.40
  13   7   1    0.98    0.49
  13   7   1    0.87    0.37
  11   8  -1    4.57    0.42
  11   8  -1    4.01    0.52
  10   8  -1   -0.10    0.34
  10   8  -1    0.00    0.25
  -9   8   1    0.25    0.40
   9   8  -1   -0.06    0.28
   9   8  -1   -0.16    0.22
   8   8  -1    9.90    0.43
   8   8  -1   10.27    0.53
  -8   8   1   10.88    0.82
  -7   8   1    8.74    0.72
   7   8  -1    7.99    0.33
   7   8  -1    7.69    0.41
   6   8  -1    2.85    0.25
  -6   8   1    2.35    0.41
  -5   8   1    8.59    0.65
  -4   8   1    9.94    0.62
  -3   8   1    6.70    0.50
  -2   8   1    6.15    0.43
  -1   8   1   30.06    0.80
  -1   8   1   29.23    0.78
   0   8   1    6.28    0.22
   0   8  -1    6.54    0.23
  -1   8  -1    3.28    0.27
   2   8   1    3.95    0.80
  -3   8  -1   24.55    0.82
  -4   8  -1    0.37    0.26
  -5   8  -1    3.52    0.40
  -6   8  -1   18.83    0.87
   6   8   1   18.92    0.57
   7   8   1    2.74    0.20
   7   8   1    2.95    0.33
  -7   8  -1    3.14    0.46
   8   8   1    0.90    0.21
  -8   8  -1    1.11    0.39
   8   8   1    0.77    0.31
   9   8   1    9.32    0.69
   9   8   1    7.36    0.47
  -9   8  -1    8.83    0.80
  10   8   1    4.35    0.53
  10   8   1    3.37    0.35
  11   8   1   -0.21    0.27
  11   8   1   -0.09    0.39
  -9   9   1    0.27    0.44
   9   9  -1    0.21    0.31
  -8   9   1    0.12    0.40
   8   9  -1   -0.14    0.26
  -7   9   1    1.65    0.44
   7   9  -1    1.20    0.24
   6   9  -1    5.37    0.31
  -6   9   1    5.37    0.57
  -5   9   1    0.36    0.34
  -4   9   1    3.00    0.42
  -3   9   1    0.86    0.32
  -2   9   1    7.96    0.54
  -1   9   1    0.18    0.13
  -1   9   1    0.27    0.22
   0   9   1    4.70    0.34
   1   9   1    1.13    0.71
  -2   9  -1    0.59    0.25
  -3   9  -1    0.31    0.28
  -4   9  -1    7.54    0.61
  -5   9  -1    1.83    0.38
  -6   9  -1    0.03    0.34
   6   9   1   -0.11    0.20
   7   9   1    1.29    0.31
  -7   9  -1    0.73    0.39
  -8   9  -1    1.96    0.47
   8   9   1    2.27    0.39
   9   9   1    0.03    0.35
  -9   9  -1   -0.13    0.47
  -4  10   1    0.34    0.36
  -3  10   1    1.07    0.36
  -2  10   1    0.56    0.32
  -1  10   1    5.01    0.43
   0  10   1    0.51    0.26
   1  10   1    0.24    0.20
  -1  10  -1    0.22    0.25
  -2  10  -1    1.24    0.32
  -3  10  -1    0.27    0.31
  -4  10  -1    2.84    0.45
  18   0  -2    1.65    0.51
  17   0  -2   12.51    0.98
  16   0  -2    0.49    0.47
  15   0  -2   50.09    1.67
  14   0  -2   15.32    0.92
  14   0  -2   14.86    0.97
  13   0  -2   44.39    1.55
  13   0  -2   41.56    1.39
 -12   0   2   43.24    1.34
  12   0  -2   44.33    1.49
  12   0  -2   41.46    1.39
  11   0  -2   -0.30    0.27
  11   0  -2    0.08    0.29
 -11   0   2    0.09    0.27
  10   0  -2    3.77    0.43
  10   0  -2    4.82    0.45
 -10   0   2    4.55    0.41
   9   0  -2   41.95    1.26
  -9   0   2   46.00    1.28
  -9   0   2   44.37    1.27
   9   0  -2   46.80    1.37
  -8   0   2  169.91    3.83
   8   0  -2  177.79    3.92
   8   0  -2  170.33    3.83
  -8   0   2  172.57    3.84
   7   0  -2    2.30    0.26
  -7   0   2    1.88    0.24
  -7   0   2    1.71    0.23
   7   0  -2    2.00    0.29
  -6   0   2  106.56    2.46
   6   0  -2  110.78    2.47
   6   0  -2  111.13    2.51
  -6   0   2  109.52    2.45
  -5   0   2   26.80    0.72
   5   0  -2   25.87    0.75
   5   0  -2   25.84    0.72
  -5   0   2   26.19    0.74
   4   0  -2    4.88    0.24
  -4   0   2    4.27    0.22
  -4   0   2    4.52    0.25
   4   0  -2    4.11    0.25
  -3   0   2   99.74    2.12
   3   0  -2   98.20    2.12
   3   0  -2   98.81    2.11
  -3   0   2   97.29    2.10
   2   0  -2  651.05   13.50
  -2   0   2  659.31   13.74
  -2   0   2  678.83   13.83
  -1   0   2  482.41   10.04
   1   0  -2  499.69   10.16
   1   0  -2  478.77   10.08
  -1   0   2  490.88   10.13
  -1   0   2  496.67   10.07
   0   0   2  196.08    4.06
   0   0  -2  197.47    4.06
   0   0  -2  195.03    4.05
   0   0   2  199.85    4.06
  -1   0  -2   34.58    0.78
   1   0   2   35.81    0.78
  -2   0  -2  347.31    7.20
   2   0   2  356.02    7.20
  -3   0  -2  520.45   10.51
   3   0   2  504.47   10.51
  -3   0  -2  515.99   10.55
   4   0   2    1.11    0.17
  -4   0  -2    0.96    0.13
  -4   0  -2    0.65    0.11
   4   0   2    0.60    0.12
  -5   0  -2    5.95    0.34
   5   0   2    6.05    0.36
  -5   0  -2    6.22    0.30
   5   0   2    6.13    0.30
   6   0   2   63.21    1.53
  -6   0  -2   63.97    1.58
  -6   0  -2   64.29    1.52
   6   0   2   63.06    1.61
  -7   0  -2   74.60    1.76
   7   0   2   74.30    1.88
  -7   0  -2   73.51    1.81
   7   0   2   70.62    1.76
  -8   0  -2    8.21    0.48
   8   0   2    7.82    0.55
  -8   0  -2    8.20    0.48
   8   0   2    8.45    0.50
   9   0   2   28.28    0.96
   9   0   2   28.16    1.05
  -9   0  -2   28.21    0.97
  -9   0  -2   27.59    0.92
 -10   0  -2    3.45    0.41
  10   0   2    2.86    0.40
  10   0   2    3.78    0.51
 -11   0  -2   18.47    0.81
  11   0   2   20.78    0.89
  11   0   2   21.10    0.99
  12   0   2   49.70    1.63
 -12   0  -2   47.98    1.44
  12   0   2   44.10    1.42
  13   0   2   28.23    1.25
  13   0   2   25.74    1.09
  14   0   2   13.37    0.87
  14   0   2   13.44    0.99
  15   0   2    5.72    0.63
  16   0   2    0.38    0.46
  17   0   2    4.25    0.65
  18   0   2    5.97    0.69
  18  -1  -2    2.38    0.58
  18   1  -2    2.35    0.58
  17  -1  -2    3.81    0.64
  17   1  -2    3.47    0.61
  16  -1  -2    0.89    0.50
  16   1  -2    1.31    0.46
  15  -1  -2    0.90    0.47
  15   1  -2    0.38    0.39
  14  -1  -2   10.23    0.82
  14   1  -2    9.43    0.84
  14   1  -2   10.01    0.79
  13  -1  -2    0.10    0.27
  13  -1  -2    0.05    0.34
  13   1  -2    0.21    0.34
  13   1  -2    0.82    0.43
  12  -1  -2    3.88    0.48
  12   1  -2    4.46    0.50
 -12   1   2    5.72    0.54
  12   1  -2    5.53    0.54
  11  -1  -2    4.94    0.49
  11   1  -2    5.81    0.49
 -11   1   2    6.21    0.55
  10  -1  -2   13.02    0.71
 -10  -1   2   13.64    0.66
  10   1  -2   12.34    0.64
  10   1  -2   13.04    0.72
 -10   1   2   13.18    0.65
 -10   1   2   13.24    0.68
  -9  -1   2   -0.15    0.19
   9  -1  -2   -0.03    0.10
   9  -1  -2   -0.07    0.26
  -9  -1   2    0.19    0.19
  -9   1   2    0.21    0.22
   9   1  -2   -0.06    0.24
   9   1  -2    0.06    0.25
  -9   1   2    0.15    0.24
  -8  -1   2    6.14    0.38
   8  -1  -2    5.64    0.44
  -8  -1   2    6.75    0.44
  -8   1   2    7.56    0.47
   8   1  -2    5.53    0.44
   8   1  -2    6.56    0.46
  -8   1   2    6.99    0.47
  -7  -1   2   33.86    0.93
   7  -1  -2   37.33    1.03
  -7  -1   2   33.52    0.97
  -7   1   2   35.71    1.05
   7   1  -2   35.23    1.00
   7   1  -2   34.31    1.00
  -7   1   2   36.73    1.01
  -6  -1   2    0.62    0.14
   6  -1  -2    0.53    0.18
   6  -1  -2    0.55    0.18
  -6  -1   2    0.41    0.16
  -6   1   2    0.36    0.17
   6   1  -2    0.55    0.16
  -6   1   2    0.64    0.17
   6   1  -2    0.23    0.17
  -5  -1   2   12.90    0.40
   5  -1  -2   12.25    0.51
  -5  -1   2   12.10    0.43
   5  -1  -2   12.95    0.45
  -5   1   2   12.19    0.43
  -5   1   2   12.34    0.50
   5   1  -2   12.09    0.43
  -4  -1   2   45.82    1.03
  -4  -1   2   45.07    1.06
   4  -1  -2   46.83    1.16
   4  -1  -2   45.00    1.07
   4   1  -2   45.28    1.05
  -4   1   2   44.51    1.06
  -4   1   2   42.98    1.12
   4   1  -2   46.52    1.07
   3  -1  -2    7.75    0.28
  -3  -1   2    7.77    0.24
  -3  -1   2    7.79    0.26
   3  -1  -2    7.74    0.33
   3   1  -2    7.40    0.26
  -3   1   2    7.59    0.32
   3   1  -2    7.50    0.25
  -3   1   2    7.31    0.26
  -2  -1   2    1.78    0.12
   2  -1  -2    1.62    0.16
   2  -1  -2    2.02    0.13
  -2  -1   2    1.99    0.12
   2   1  -2    1.97    0.13
  -2   1   2    1.86    0.13
  -2   1   2    1.77    0.16
   2   1  -2    1.81    0.12
  -1  -1   2  154.67    3.23
   1  -1  -2  156.44    3.24
  -1  -1   2  154.60    3.22
   1  -1  -2  154.10    3.25
   1   1  -2  159.42    3.23
  -1   1   2  157.62    3.25
  -1   1   2  159.63    3.24
   1   1  -2  154.86    3.22
   0  -1   2    7.47    0.21
   0  -1  -2    7.65    0.21
   0  -1   2    6.93    0.21
   0  -1  -2    7.35    0.20
   0  -1  -2    7.44    0.22
   0   1   2    7.29    0.22
   0   1  -2    7.57    0.21
   0   1   2    7.36    0.21
   0   1   2    7.19    0.21
   0   1  -2    7.18    0.22
  -1  -1  -2   11.92    0.31
  -1  -1  -2   12.12    0.31
   1  -1   2   12.27    0.31
  -1  -1  -2   12.24    0.30
  -1   1  -2   12.12    0.32
   1   1   2   12.09    0.31
   2  -1   2  160.68    3.32
  -2  -1  -2  160.94    3.33
  -2  -1  -2  159.13    3.30
  -2   1  -2  160.78    3.32
   2   1   2  158.14    3.34
   2   1   2  157.95    3.31
  -3  -1  -2  101.94    2.22
  -3  -1  -2  104.79    2.28
   3  -1   2  107.16    2.26
  -3   1  -2  107.33    2.26
   3   1   2  105.46    2.23
   3   1   2  105.62    2.29
   4  -1   2   73.96    1.64
  -4  -1  -2   71.58    1.59
  -4  -1  -2   73.81    1.66
   4   1   2   71.51    1.60
  -4   1  -2   72.44    1.64
   4   1   2   72.77    1.69
  -5  -1  -2   40.60    1.00
   5  -1   2   43.76    1.07
  -5  -1  -2   40.70    1.06
  -5   1  -2   40.84    1.04
   5   1   2   40.39    1.10
   5   1   2   41.79    1.01
   6  -1   2   49.00    1.23
  -6  -1  -2   49.47    1.24
   6   1   2   49.01    1.30
  -6   1  -2   46.70    1.22
   6   1   2   46.26    1.18
  -6   1  -2   46.45    1.25
   7  -1   2   57.37    1.47
  -7  -1  -2   58.53    1.47
  -7  -1  -2   55.75    1.40
  -7   1  -2   56.79    1.46
   7   1   2   57.31    1.43
   7   1   2   59.37    1.56
  -7   1  -2   57.84    1.51
  -8  -1  -2    0.21    0.15
   8  -1   2    0.01    0.24
   8  -1   2   -0.08    0.12
  -8  -1  -2   -0.08    0.16
   8   1   2   -0.25    0.23
  -8   1  -2   -0.09    0.22
  -8   1  -2    0.26    0.21
   8   1   2    0.00    0.21
  -9  -1  -2    9.36    0.49
  -9  -1  -2   10.15    0.52
   9  -1   2   10.62    0.62
  -9   1  -2    9.97    0.58
  -9   1  -2    9.78    0.55
   9   1   2    9.02    0.53
   9   1   2   10.37    0.69
  10  -1   2   38.13    1.20
 -10  -1  -2   41.43    1.41
 -10   1  -2   37.87    1.24
  10   1   2   39.66    1.34
  10   1   2   38.09    1.20
 -10   1  -2   37.29    1.19
  11  -1   2    4.85    0.49
 -11   1  -2    4.93    0.49
  11   1   2    3.53    0.43
  11   1   2    5.35    0.58
  12  -1   2    0.41    0.36
  12  -1   2   -0.03    0.18
  12   1   2    0.57    0.37
  12   1   2    0.31    0.31
 -12   1  -2    0.78    0.34
  13  -1   2    8.98    0.69
  13   1   2    9.38    0.75
  13   1   2    9.56    0.84
  14  -1   2    6.16    0.62
  14   1   2    6.06    0.58
  14   1   2    7.11    0.75
  15  -1   2    1.88    0.46
  15   1   2    2.26    0.47
  16  -1   2    1.93    0.48
  16   1   2    1.52    0.48
  17  -1   2    3.75    0.61
  17   1   2    3.65    0.61
  18  -1   2    1.14    0.54
  18   1   2    0.99    0.51
  18  -2  -2    1.77    0.59
  18   2  -2    2.36    0.60
  17  -2  -2    1.60    0.55
  17   2  -2    0.72    0.47
  16  -2  -2    1.45    0.53
  16   2  -2    1.28    0.49
  15  -2  -2    1.42    0.49
  15   2  -2    1.97    0.54
  15   2  -2    2.33    0.52
  14  -2  -2    2.87    0.48
  14   2  -2    2.13    0.49
  14   2  -2    2.59    0.50
  13  -2  -2   16.36    0.86
  13   2  -2   15.51    0.94
  13   2  -2   15.12    0.86
  12  -2  -2    1.53    0.39
  12  -2  -2    1.75    0.46
 -12   2   2    1.76    0.39
  12   2  -2    1.92    0.38
  11  -2  -2    1.43    0.39
  11  -2  -2    0.80    0.33
  11   2  -2    1.22    0.35
 -11   2   2    1.00    0.33
  11   2  -2    1.15    0.34
  10  -2  -2    4.11    0.50
  10  -2  -2    3.22    0.40
  10   2  -2    3.42    0.41
 -10   2   2    2.86    0.38
  10   2  -2    3.36    0.40
 -10   2   2    2.57    0.36
  -9  -2   2    4.20    0.37
   9  -2  -2    4.26    0.44
   9  -2  -2    3.56    0.41
  -9   2   2    4.73    0.44
  -9   2   2    3.98    0.38
   9   2  -2    3.52    0.37
   9   2  -2    4.46    0.41
  -8  -2   2   24.75    0.78
   8  -2  -2   23.73    0.89
   8  -2  -2   23.28    0.83
  -8   2   2   23.12    0.86
  -8   2   2   22.05    0.81
   8   2  -2   23.06    0.78
   8   2  -2   23.02    0.79
   7  -2  -2   19.83    0.72
  -7  -2   2   20.15    0.67
   7  -2  -2   20.36    0.78
  -7   2   2   21.51    0.78
   7   2  -2   19.58    0.65
  -7   2   2   19.52    0.69
   7   2  -2   20.51    0.68
   6  -2  -2   96.73    2.18
  -6  -2   2   97.09    2.15
  -6  -2   2   94.55    2.03
   6  -2  -2   94.70    2.26
   6   2  -2   92.11    2.10
   6   2  -2   91.68    2.13
  -6   2   2   96.58    2.27
  -6   2   2   91.68    2.16
   5  -2  -2    0.24    0.16
  -5  -2   2    0.09    0.12
   5  -2  -2   -0.08    0.13
  -5   2   2    0.09    0.13
   5   2  -2    0.21    0.14
   5   2  -2    0.07    0.11
  -5   2   2   -0.02    0.13
  -4  -2   2    9.97    0.34
   4  -2  -2    9.61    0.41
   4  -2  -2    9.16    0.36
   4   2  -2   10.08    0.35
  -4   2   2    8.81    0.43
  -4   2   2   10.46    0.37
   4   2  -2    9.63    0.31
  -3  -2   2   22.18    0.54
   3  -2  -2   21.45    0.61
   3  -2  -2   21.51    0.57
  -3   2   2   22.78    0.66
   3   2  -2   21.70    0.54
   3   2  -2   21.26    0.52
  -3   2   2   21.42    0.57
  -2  -2   2  470.49    9.76
   2  -2  -2  487.94    9.71
   2  -2  -2  456.96    9.78
   2   2  -2  489.30    9.68
  -2   2   2  485.00    9.71
  -2   2   2  451.62    9.77
   2   2  -2  483.49    9.76
  -1  -2   2   45.28    0.98
   1  -2  -2   47.91    0.97
  -1  -2   2   47.11    0.99
   1   2  -2   46.94    1.01
   1   2  -2   46.14    1.00
  -1   2   2   45.83    1.01
  -1   2   2   44.26    1.05
   0  -2   2   18.04    0.43
   0   2  -2   18.65    0.44
   0   2   2   17.94    0.43
   0   2   2   18.35    0.43
   0   2   2   17.98    0.44
   1  -2   2    9.90    0.31
   1   2   2   12.85    0.30
  -1   2  -2   11.95    0.32
   1   2   2   12.19    0.28
   1   2   2   12.37    0.31
   2  -2   2    0.43    0.10
  -2  -2  -2    0.47    0.07
   2   2   2    0.36    0.08
   2   2   2    0.32    0.08
  -2   2  -2    0.34    0.09
   2   2   2    0.38    0.06
  -3  -2  -2    2.82    0.15
   3  -2   2    3.23    0.22
   3   2   2    2.81    0.16
  -3   2  -2    2.74    0.20
   3   2   2    2.70    0.19
  -4  -2  -2    7.44    0.26
   4  -2   2    7.53    0.35
  -4  -2  -2    6.72    0.22
   4   2   2    7.37    0.34
   4   2   2    7.50    0.28
  -4   2  -2    7.74    0.34
  -4   2  -2    7.58    0.35
  -5  -2  -2   40.82    1.01
  -5  -2  -2   44.93    1.04
   5  -2   2   45.16    1.16
   5   2   2   44.74    1.06
   5   2   2   45.16    1.16
  -5   2  -2   47.28    1.15
  -5   2  -2   44.73    1.15
  -6  -2  -2    0.13    0.10
   6  -2   2    0.10    0.17
  -6  -2  -2    0.37    0.13
   6   2   2    0.16    0.15
  -6   2  -2    0.17    0.17
   6   2   2   -0.02    0.17
  -6   2  -2    0.37    0.17
   7  -2   2    3.06    0.32
  -7  -2  -2    3.33    0.27
   7   2   2    3.86    0.30
  -7   2  -2    3.43    0.33
  -7   2  -2    3.65    0.33
   7   2   2    2.81    0.33
  -8  -2  -2   60.65    1.45
   8  -2   2   57.25    1.55
   8   2   2   57.83    1.49
   8   2   2   58.28    1.61
  -8   2  -2   57.83    1.59
  -8   2  -2   57.51    1.55
   9  -2   2    8.49    0.54
  -9  -2  -2    7.25    0.45
  -9   2  -2    8.25    0.59
   9   2   2    7.41    0.61
  -9   2  -2    7.45    0.52
   9   2   2    7.37    0.52
  10  -2   2   12.33    0.67
  10   2   2   14.31    0.80
 -10   2  -2   14.57    0.74
 -10   2  -2   13.22    0.72
  10   2   2   13.96    0.70
  11  -2   2    2.32    0.37
  11   2   2    2.23    0.45
  11   2   2    1.37    0.34
  12  -2   2   10.87    0.75
  12   2   2   10.02    0.70
  12   2   2   11.15    0.85
 -12   2  -2   10.63    0.74
  13  -2   2    3.64    0.48
  13   2   2    4.65    0.64
  13   2   2    2.90    0.44
  14  -2   2    2.80    0.51
  14   2   2    1.86    0.46
  14   2   2    1.81    0.51
  15  -2   2    0.41    0.40
  15   2   2    0.55    0.39
  15   2   2    0.41    0.43
  16  -2   2    0.27    0.46
  16   2   2    0.44    0.45
  17  -2   2    1.61    0.50
  17   2   2    1.66    0.53
  18  -2   2    1.14    0.54
  18   2   2    0.90    0.51
  17  -3  -2    4.10    0.66
  17   3  -2    3.72    0.59
  16  -3  -2    3.90    0.63
  16   3  -2    3.77    0.59
  15  -3  -2    6.93    0.67
  15   3  -2    9.98    0.95
  15   3  -2    8.82    0.72
  14  -3  -2   23.53    1.05
  14   3  -2   20.55    1.13
  14   3  -2   22.51    1.04
  13  -3  -2    3.30    0.49
  13   3  -2    4.56    0.59
  13   3  -2    3.03    0.46
  12  -3  -2    1.90    0.44
  12  -3  -2    2.01    0.47
  12   3  -2    2.11    0.45
 -12   3   2    1.78    0.37
  12   3  -2    1.63    0.40
  11  -3  -2   18.93    0.93
  11  -3  -2   19.31    0.86
  11   3  -2   17.83    0.82
  11   3  -2   18.77    0.88
 -11   3   2   20.01    0.89
  10  -3  -2   25.90    1.04
  10  -3  -2   23.34    0.96
 -10   3   2   26.78    1.02
  10   3  -2   25.21    0.93
  10   3  -2   25.60    0.92
 -10   3   2   25.09    0.97
   9  -3  -2    7.94    0.58
  -9  -3   2    8.93    0.55
   9  -3  -2    9.39    0.63
   9   3  -2    8.77    0.54
  -9   3   2    9.01    0.62
   9   3  -2    8.11    0.52
  -9   3   2    9.65    0.60
   8  -3  -2   46.29    1.29
  -8  -3   2   47.60    1.22
   8  -3  -2   46.57    1.37
  -8   3   2   47.79    1.40
   8   3  -2   45.20    1.26
   8   3  -2   46.93    1.23
  -8   3   2   48.51    1.34
   7  -3  -2   59.47    1.51
   7  -3  -2   59.44    1.57
  -7  -3   2   59.86    1.44
  -7   3   2   60.47    1.64
   7   3  -2   58.91    1.43
  -7   3   2   60.87    1.55
   7   3  -2   59.11    1.47
  -6  -3   2   88.83    2.02
   6  -3  -2   85.80    2.11
   6  -3  -2   94.79    2.09
  -6   3   2   89.36    2.20
   6   3  -2   91.94    2.05
  -6   3   2   93.05    2.12
   6   3  -2   87.76    1.99
   5  -3  -2   61.66    1.49
   5  -3  -2   64.79    1.48
  -5  -3   2   62.47    1.43
  -5   3   2   62.11    1.60
  -5   3   2   62.79    1.49
   5   3  -2   62.67    1.43
   5   3  -2   60.64    1.39
  -4  -3   2   42.21    0.99
  -4  -3   2   43.15    0.95
   4  -3  -2   42.67    1.03
   4  -3  -2   43.92    1.04
   4   3  -2   43.62    1.00
  -4   3   2   42.79    1.06
   4   3  -2   43.06    0.96
  -4   3   2   43.12    1.15
   3  -3  -2  154.96    3.25
  -3  -3   2  145.07    3.19
  -3  -3   2  158.98    3.17
  -3   3   2  154.42    3.35
  -3   3   2  157.43    3.26
   3   3  -2  153.48    3.21
  -2  -3   2   50.65    1.11
  -2  -3   2   52.61    1.09
  -2   3   2   53.55    1.24
   2   3  -2   53.32    1.13
   2   3  -2   53.19    1.14
  -2   3   2   52.80    1.18
   1  -3  -2   68.82    1.48
  -1  -3   2   70.16    1.43
  -1   3   2   69.17    1.51
   1   3  -2   68.18    1.47
   1   3  -2   70.30    1.47
  -1   3   2   69.58    1.49
   0  -3   2   20.67    0.47
   0  -3   2   21.24    0.49
   0   3   2   20.56    0.50
   0   3  -2   20.46    0.49
   1  -3   2    0.70    0.10
   1  -3   2    0.86    0.10
   1   3   2    0.50    0.08
   1   3   2    0.48    0.08
  -1   3  -2    0.61    0.09
   2  -3   2   41.52    1.03
  -2   3  -2   45.65    1.02
   2   3   2   45.26    0.97
   3  -3   2  128.78    2.79
  -3  -3  -2  129.98    2.64
   3   3   2  126.18    2.68
   3   3   2  124.44    2.68
  -3   3  -2  131.29    2.76
  -4  -3  -2   33.55    0.77
   4  -3   2   34.57    0.93
   4   3   2   33.47    0.85
  -4   3  -2   34.68    0.90
   4   3   2   33.35    0.80
   5  -3   2    0.38    0.18
  -5  -3  -2    0.60    0.11
   5   3   2    0.38    0.13
  -5   3  -2    0.23    0.17
  -5   3  -2    0.47    0.18
   5   3   2    0.29    0.16
  -6  -3  -2   48.57    1.11
   6  -3   2   48.80    1.29
   6   3   2   46.64    1.26
   6   3   2   48.18    1.17
  -6   3  -2   48.02    1.27
  -6   3  -2   46.70    1.27
  -7  -3  -2   72.02    1.63
   7  -3   2   74.92    1.82
   7   3   2   71.04    1.70
  -7   3  -2   70.51    1.80
   7   3   2   70.14    1.80
  -8  -3  -2   17.09    0.56
   8  -3   2   17.20    0.73
   8   3   2   15.95    0.65
   8   3   2   17.00    0.74
  -8   3  -2   16.33    0.72
  -8   3  -2   16.25    0.73
   9  -3   2    8.02    0.59
   9   3   2    8.82    0.53
  -9   3  -2    8.14    0.62
  -9   3  -2    8.43    0.60
   9   3   2    7.59    0.60
  10  -3   2   24.98    0.95
 -10   3  -2   23.77    0.99
  10   3   2   23.71    0.89
  10   3   2   26.32    1.02
 -10   3  -2   22.12    0.94
  11  -3   2   24.16    0.98
 -11   3  -2   22.29    1.00
  11   3   2   24.12    1.06
  11   3   2   21.44    0.91
  12  -3   2    9.43    0.72
 -12   3  -2    8.55    0.76
  12   3   2    8.51    0.77
  12   3   2    7.89    0.65
  13  -3   2   17.02    0.87
  13   3   2   16.06    1.01
  13   3   2   16.39    0.86
  14  -3   2   18.83    0.95
  14   3   2   19.26    0.95
  14   3   2   18.61    1.10
  15  -3   2    0.45    0.40
  15   3   2   -0.07    0.38
  15   3   2    0.62    0.43
  16  -3   2   12.96    0.96
  16   3   2   12.51    0.91
  17  -3   2   12.54    0.99
  17   3   2   11.38    0.94
  17  -4  -2    0.92    0.54
  17   4  -2    0.12    0.46
  16  -4  -2    6.29    0.68
  16   4  -2    8.60    0.86
  16   4  -2    6.54    0.68
  15  -4  -2    1.05    0.49
  15   4  -2    1.66    0.46
  15   4  -2    0.32    0.49
  14  -4  -2    1.17    0.45
  14   4  -2    1.02    0.43
  14   4  -2    1.09    0.48
  13  -4  -2    0.48    0.41
  13   4  -2    0.13    0.39
  13   4  -2    0.83    0.38
  12  -4  -2   16.02    0.82
  12   4  -2   14.78    0.79
  12   4  -2   14.78    0.87
  11  -4  -2   10.53    0.73
  11   4  -2   10.25    0.68
  11   4  -2   13.63    0.76
 -11   4   2   11.77    0.77
  10  -4  -2   44.45    1.37
  10   4  -2   44.47    1.32
 -10   4   2   46.64    1.41
 -10   4   2   45.07    1.45
  10   4  -2   43.85    1.30
   9  -4  -2   22.57    0.85
  -9   4   2   22.00    0.86
   9   4  -2   20.40    0.79
   9   4  -2   21.69    0.79
  -9   4   2   21.25    0.94
   8  -4  -2    3.61    0.38
  -8  -4   2    2.64    0.25
   8   4  -2    3.16    0.32
  -8   4   2    2.67    0.35
   8   4  -2    3.37    0.31
  -8   4   2    3.35    0.42
   7  -4  -2    6.29    0.43
  -7  -4   2    5.77    0.30
  -7  -4   2    5.62    0.28
  -7   4   2    5.56    0.45
   7   4  -2    5.76    0.39
   7   4  -2    5.55    0.36
  -7   4   2    6.04    0.54
  -6  -4   2   20.50    0.53
   6  -4  -2   20.78    0.67
  -6  -4   2   19.97    0.54
  -6   4   2   20.67    0.80
  -6   4   2   20.04    0.72
   6   4  -2   20.35    0.58
   6   4  -2   19.95    0.62
  -5  -4   2  288.97    5.85
  -5  -4   2  285.72    5.86
   5  -4  -2  286.26    5.99
  -5   4   2  281.55    6.05
   5   4  -2  284.61    5.89
  -5   4   2  285.56    6.14
   5   4  -2  289.60    5.94
   4  -4  -2   47.61    1.15
   4   4  -2   47.44    1.10
  -4   4   2   50.60    1.29
  -4   4   2   48.71    1.20
  -3   4   2   44.09    1.14
   3   4  -2   44.93    0.99
  -3   4   2   45.03    1.08
   2  -4  -2    1.00    0.12
   2   4  -2    1.10    0.10
  -2   4   2    1.10    0.14
   2   4  -2    1.15    0.11
  -2   4   2    1.06    0.15
   1   4  -2   89.53    1.88
  -1   4   2   91.55    1.90
  -1   4   2   87.23    1.91
   0   4   2    2.26    0.16
   0   4  -2    2.40    0.16
   1  -4   2  106.98    2.24
   1  -4   2  110.03    2.25
   1   4   2  107.71    2.25
   1   4   2  108.45    2.25
  -1   4  -2  106.39    2.28
   2  -4   2    7.44    0.29
   2   4   2    7.78    0.24
  -2   4  -2    7.88    0.30
   3  -4   2    5.74    0.29
  -3   4  -2    7.04    0.33
   3   4   2    6.88    0.24
   4  -4   2    1.52    0.21
  -4   4  -2    1.44    0.21
   4   4   2    1.63    0.15
   4   4   2    1.92    0.16
   5  -4   2   51.14    1.32
  -5  -4  -2   52.43    1.13
   5   4   2   53.11    1.26
  -5   4  -2   52.08    1.34
   5   4   2   52.05    1.21
  -5   4  -2   53.11    1.35
   6  -4   2    6.76    0.43
  -6  -4  -2    5.99    0.26
  -6   4  -2    6.25    0.44
   6   4   2    6.38    0.35
   6   4   2    5.73    0.39
  -6   4  -2    5.42    0.43
   7  -4   2    4.09    0.37
  -7  -4  -2    4.56    0.26
   7   4   2    4.36    0.38
   7   4   2    3.85    0.31
  -7   4  -2    2.94    0.32
  -7   4  -2    4.88    0.41
   8  -4   2   17.79    0.75
  -8  -4  -2   17.25    0.54
   8   4   2   16.80    0.67
  -8   4  -2   17.55    0.76
   8   4   2   18.10    0.76
  -8   4  -2   17.65    0.78
   9  -4   2   16.15    0.74
   9   4   2   14.67    0.75
  -9   4  -2   13.80    0.74
  -9   4  -2   14.98    0.78
   9   4   2   13.75    0.64
  10  -4   2    4.94    0.50
  10   4   2    3.41    0.41
 -10   4  -2    4.41    0.54
  10   4   2    3.87    0.47
 -10   4  -2    4.17    0.51
  11  -4   2   11.23    0.68
  11   4   2    8.97    0.63
  11   4   2   10.56    0.77
 -11   4  -2   10.02    0.75
  12  -4   2    6.81    0.60
  12   4   2    5.80    0.61
  12   4   2    6.58    0.56
  13  -4   2    7.21    0.62
  13   4   2    6.69    0.58
  13   4   2    7.61    0.69
  14  -4   2    0.34    0.43
  14   4   2    0.22    0.38
  14   4   2   -0.14    0.43
  15  -4   2    3.12    0.54
  15   4   2    2.02    0.46
  15   4   2    2.12    0.59
  16  -4   2    3.31    0.56
  16   4   2    3.45    0.57
  16   4   2    2.85    0.68
  17  -4   2    2.65    0.56
  17   4   2    2.64    0.56
  16   5  -2   -0.18    0.49
  16   5  -2    0.35    0.44
  15  -5  -2    1.84    0.54
  15   5  -2    0.97    0.53
  15   5  -2    0.99    0.44
  14  -5  -2    0.42    0.39
  14   5  -2    0.49    0.44
  14   5  -2   -0.29    0.37
  13  -5  -2    2.03    0.46
  13   5  -2    1.70    0.42
  13   5  -2    1.23    0.45
  12  -5  -2   -0.13    0.35
  12   5  -2    0.14    0.34
  12   5  -2    0.08    0.35
  11  -5  -2    1.51    0.39
  11   5  -2    2.02    0.40
 -11   5   2    2.41    0.47
  11   5  -2    2.24    0.39
 -10  -5   2    0.10    0.18
  10  -5  -2   -0.03    0.30
  10   5  -2    0.95    0.31
 -10   5   2    0.71    0.36
  10   5  -2    0.16    0.28
 -10   5   2   -0.15    0.31
  -9  -5   2    4.94    0.29
   9  -5  -2    4.27    0.43
  -9  -5   2    4.33    0.28
  -9   5   2    5.70    0.51
   9   5  -2    4.95    0.40
  -9   5   2    4.80    0.51
   9   5  -2    5.39    0.47
  -8  -5   2    3.71    0.23
  -8  -5   2    3.99    0.23
   8  -5  -2    4.23    0.38
   8   5  -2    4.43    0.34
  -8   5   2    3.03    0.41
  -8   5   2    4.63    0.46
   8   5  -2    4.16    0.35
  -7  -5   2   12.16    0.33
   7  -5  -2   13.61    0.58
  -7  -5   2   12.44    0.33
  -7   5   2   13.34    0.72
  -7   5   2   12.77    0.65
   7   5  -2   12.80    0.49
   7   5  -2   12.76    0.52
   6  -5  -2    3.99    0.31
  -6   5   2    4.21    0.42
   6   5  -2    3.73    0.28
   6   5  -2    4.39    0.32
  -6   5   2    4.26    0.40
   5  -5  -2   -0.01    0.16
  -5   5   2   -0.02    0.21
  -5   5   2    0.31    0.23
   5   5  -2    0.24    0.12
   4   5  -2    4.88    0.24
  -4   5   2    5.38    0.37
  -4   5   2    4.89    0.41
   3  -5  -2    6.92    0.29
   3   5  -2    6.80    0.25
  -3   5   2    6.87    0.36
  -3   5   2    7.58    0.40
   2  -5  -2   14.86    0.37
  -2   5   2   15.40    0.49
   2   5  -2   15.25    0.38
  -2   5   2   14.03    0.47
   2   5  -2   14.84    0.39
   1   5  -2    3.03    0.17
  -1   5   2    3.21    0.19
  -1   5   2    3.02    0.21
   0   5   2    0.93    0.11
   0   5  -2    0.87    0.11
   1   5   2    2.22    0.15
   1   5   2    1.99    0.15
  -1   5  -2    1.92    0.15
   2  -5   2    3.35    0.17
   2  -5   2    3.17    0.17
   2   5   2    3.38    0.17
  -2   5  -2    3.38    0.24
   2   5   2    3.30    0.17
   3  -5   2   -0.05    0.11
  -3   5  -2    0.02    0.14
   3   5   2    0.10    0.09
   4  -5   2   -0.07    0.08
   4   5   2    0.20    0.11
  -4   5  -2    0.15    0.17
   5  -5   2    3.66    0.30
  -5   5  -2    4.26    0.34
   5   5   2    4.86    0.27
   5   5   2    2.98    0.27
  -5   5  -2    3.91    0.36
   6  -5   2    0.02    0.21
   6   5   2    0.42    0.20
  -6   5  -2    0.34    0.25
   6   5   2    0.36    0.18
  -6   5  -2    0.50    0.25
   7  -5   2   10.32    0.58
  -7  -5  -2   11.05    0.30
  -7   5  -2   11.10    0.63
   7   5   2   11.54    0.52
  -7   5  -2   11.55    0.62
   7   5   2   11.18    0.58
  -8  -5  -2    0.64    0.13
   8  -5   2    0.46    0.28
  -8   5  -2    0.54    0.28
  -8   5  -2    0.24    0.28
   8   5   2    0.44    0.24
   8   5   2    0.28    0.27
   9  -5   2    8.72    0.63
  -9  -5  -2    7.05    0.34
   9   5   2    6.98    0.53
   9   5   2    7.35    0.61
  -9   5  -2    7.32    0.59
  -9   5  -2    8.64    0.68
  10  -5   2    2.04    0.38
  10   5   2    1.52    0.38
 -10   5  -2    0.23    0.35
  10   5   2    1.23    0.32
 -10   5  -2    1.01    0.38
  11  -5   2    1.46    0.39
  11   5   2    1.32    0.36
  11   5   2    0.94    0.39
 -11   5  -2    1.58    0.44
  12  -5   2    0.74    0.38
  12   5   2    0.92    0.35
  12   5   2    0.22    0.41
  13  -5   2    0.64    0.41
  13   5   2   -0.01    0.34
  13   5   2    0.45    0.44
  14  -5   2    1.14    0.47
  14   5   2    0.47    0.37
  14   5   2   -0.09    0.44
  15  -5   2    0.14    0.47
  15   5   2   -0.51    0.46
  15   5   2    0.50    0.41
  16   5   2    0.51    0.43
  16   5   2    0.19    0.52
  15   6  -2    0.70    0.44
  15   6  -2    0.85    0.55
  14   6  -2    1.20    0.53
  14   6  -2    1.34    0.46
  13   6  -2    0.31    0.37
  13   6  -2    0.18    0.43
  12   6  -2    9.88    0.71
  12   6  -2   11.20    0.81
  11  -6  -2    5.44    0.54
  11   6  -2    5.11    0.48
 -11   6   2    4.05    0.71
  11   6  -2    5.74    0.53
  10  -6  -2    4.68    0.47
 -10   6   2    4.64    0.53
  10   6  -2    4.35    0.43
  10   6  -2    5.47    0.47
   9  -6  -2    8.88    0.56
   9   6  -2    9.13    0.54
   9   6  -2    9.31    0.56
  -9   6   2    9.09    0.67
  -9   6   2   10.02    0.75
   8  -6  -2    4.55    0.39
  -8   6   2    4.19    0.48
  -8   6   2    4.76    0.48
   8   6  -2    4.57    0.41
   8   6  -2    4.33    0.34
   7  -6  -2   19.82    0.70
  -7   6   2   21.02    0.92
  -7   6   2   20.63    0.87
   7   6  -2   20.25    0.65
   7   6  -2   20.72    0.63
   6  -6  -2   48.81    1.22
   6   6  -2   49.20    1.13
  -6   6   2   48.88    1.38
  -6   6   2   48.88    1.44
   6   6  -2   47.73    1.15
   5  -6  -2   43.64    1.21
  -5   6   2   55.38    1.43
   5   6  -2   53.49    1.19
  -5   6   2   56.43    1.48
   4  -6  -2    5.33    0.29
  -4   6   2    4.36    0.36
   4   6  -2    5.05    0.25
  -4   6   2    5.78    0.47
   3  -6  -2   25.14    0.58
  -3   6   2   26.15    0.78
  -3   6   2   25.30    0.79
   3   6  -2   24.33    0.60
  -2   6   2   33.16    0.89
  -2   6   2   33.63    0.89
   1   6  -2   15.33    0.41
  -1   6   2   16.00    0.46
  -1   6   2   15.86    0.49
   0   6  -2    0.10    0.11
   0   6   2    0.08    0.12
  -1   6  -2   80.19    1.75
   1   6   2   79.65    1.69
   1   6   2   80.64    1.70
   2   6   2    8.63    0.26
   2   6   2    8.54    0.26
  -2   6  -2    8.97    0.36
   3  -6   2    0.07    0.10
   3  -6   2   -0.07    0.09
  -3   6  -2   -0.21    0.15
   3   6   2    0.08    0.09
   3   6   2    0.09    0.09
   4  -6   2    3.13    0.22
   4   6   2    3.18    0.21
  -4   6  -2    3.41    0.30
   5   6   2   43.37    1.03
   5   6   2   43.81    1.05
  -5   6  -2   44.24    1.24
  -5   6  -2   44.73    1.20
   6  -6   2    9.61    0.48
  -6   6  -2    8.80    0.55
  -6   6  -2    9.70    0.59
   6   6   2    9.04    0.46
   6   6   2    9.88    0.44
   7  -6   2    1.07    0.27
  -7   6  -2    1.81    0.34
   7   6   2    1.24    0.25
  -7   6  -2    2.01    0.35
   7   6   2    1.48    0.30
   8  -6   2   20.42    0.81
  -8   6  -2   21.03    0.89
   8   6   2   22.04    0.86
   8   6   2   22.26    0.78
  -8   6  -2   22.48    0.94
   9  -6   2    7.74    0.57
  -9   6  -2    8.77    0.71
  -9   6  -2    8.11    0.65
   9   6   2    9.32    0.56
   9   6   2    8.33    0.63
  10  -6   2    2.74    0.42
  10   6   2    2.81    0.38
  10   6   2    2.33    0.43
 -10   6  -2    2.96    0.49
  11  -6   2   11.05    0.76
  11   6   2   11.06    0.67
  11   6   2   11.66    0.83
  12   6   2   11.36    0.88
  12   6   2   12.47    0.73
  13   6   2    0.22    0.34
  13   6   2    0.13    0.43
  14   6   2   -0.19    0.44
  14   6   2   -0.12    0.37
  15   6   2   11.17    0.83
  13   7  -2    3.09    0.48
  13   7  -2    3.81    0.58
  12   7  -2    1.84    0.40
  12   7  -2    1.99    0.46
  11   7  -2    1.33    0.40
  11   7  -2    0.83    0.33
  10   7  -2    4.81    0.42
  10   7  -2    5.39    0.49
 -10   7   2    4.61    0.55
   9   7  -2    4.23    0.36
  -9   7   2    3.53    0.50
   9   7  -2    4.23    0.39
   8   7  -2   21.30    0.69
   8   7  -2   21.61    0.73
  -8   7   2   21.96    1.02
   7   7  -2   18.22    0.58
  -7   7   2   18.62    0.91
   7   7  -2   18.56    0.60
   6  -7  -2    3.55    0.29
   6   7  -2    3.06    0.23
  -6   7   2    3.29    0.44
   6   7  -2    3.11    0.27
   5  -7  -2    0.30    0.16
  -5   7   2    0.45    0.29
  -5   7   2   -0.09    0.27
   5   7  -2    0.22    0.13
  -4   7   2   21.79    0.80
  -4   7   2   22.56    0.84
  -3   7   2   29.54    0.92
  -3   7   2   28.60    0.90
  -2   7   2    0.68    0.21
  -2   7   2    0.05    0.20
  -1   7   2    7.85    0.37
   1   7  -2    8.01    0.26
  -1   7   2    7.35    0.39
   0   7   2    0.23    0.15
   0   7   2    0.62    0.13
   0   7  -2    0.77    0.13
  -1   7  -2    3.32    0.25
   1   7   2    2.84    0.16
   1   7   2    2.50    0.21
  -2   7  -2    2.05    0.20
  -3   7  -2   16.95    0.57
   4   7   2    9.74    0.32
  -4   7  -2   10.79    0.48
   5  -7   2    9.70    0.38
   5   7   2    9.39    0.37
  -5   7  -2   11.08    0.56
   5   7   2    9.76    0.37
  -5   7  -2   10.56    0.61
   6  -7   2    2.77    0.27
  -6   7  -2    2.81    0.38
   6   7   2    2.93    0.30
   6   7   2    2.59    0.24
  -7   7  -2   22.58    0.95
   7   7   2   22.30    0.81
   7   7   2   22.39    0.71
   8   7   2    1.62    0.27
  -8   7  -2    1.69    0.39
   8   7   2    1.41    0.33
   9   7   2    3.84    0.37
   9   7   2    4.11    0.49
  -9   7  -2    3.86    0.54
 -10   7  -2    6.89    0.68
  10   7   2    6.36    0.53
  10   7   2    6.94    0.61
  11   7   2    1.75    0.35
  11   7   2    1.42    0.45
  12   7   2    0.02    0.32
  12   7   2    0.04    0.41
  13   7   2    4.26    0.50
  13   7   2    3.61    0.62
  11   8  -2    0.50    0.31
  11   8  -2    1.02    0.39
  10   8  -2    4.96    0.39
  10   8  -2    4.66    0.47
   9   8  -2    3.39    0.32
   9   8  -2    3.92    0.41
  -9   8   2    3.84    0.58
   8   8  -2    0.45    0.25
   8   8  -2    0.08    0.20
  -8   8   2    0.33    0.38
   7   8  -2    1.13    0.19
  -7   8   2    0.95    0.38
   7   8  -2    1.74    0.24
  -6   8   2    0.66    0.36
   6   8  -2    1.12    0.19
   6   8  -2    0.80    0.13
  -5   8   2    0.56    0.33
  -4   8   2    0.08    0.29
  -3   8   2    0.24    0.27
  -2   8   2    1.56    0.29
  -1   8   2    1.53    0.18
  -1   8   2    1.90    0.25
   0   8   2    0.28    0.16
   0   8   2   -0.12    0.12
   0   8  -2   -0.13    0.12
   0   8   2   -0.07    0.12
   1   8   2   -0.14    0.51
   2   8   2    0.19    0.54
   3   8   2    2.26    0.66
  -4   8  -2    0.30    0.27
  -5   8  -2    2.93    0.40
   6   8   2    1.26    0.27
  -6   8  -2    1.78    0.37
   6   8   2    1.26    0.14
  -7   8  -2    2.62    0.43
   7   8   2    2.93    0.36
   7   8   2    2.48    0.23
   8   8   2    0.04    0.30
   8   8   2    0.30    0.21
  -8   8  -2    0.73    0.38
  -9   8  -2    0.36    0.40
   9   8   2   -0.59    0.32
   9   8   2   -0.02    0.23
  10   8   2   -0.11    0.37
  10   8   2    0.20    0.26
  11   8   2    0.96    0.32
  11   8   2    0.69    0.44
  -8   9   2    1.34    0.45
   8   9  -2    1.21    0.29
   7   9  -2    5.03    0.39
  -7   9   2    4.39    0.56
  -6   9   2    0.14    0.37
   6   9  -2   -0.01    0.18
  -5   9   2    0.23    0.35
  -4   9   2    3.11    0.45
  -3   9   2    9.89    0.66
  -2   9   2    0.52    0.29
  -1   9   2    8.14    0.53
  -1   9   2    8.59    0.34
   0   9   2    5.18    0.42
   1   9   2    2.17    0.25
   2   9   2    0.34    0.64
  -3   9  -2   21.50    0.84
  -4   9  -2    1.83    0.36
  -5   9  -2    0.12    0.31
  -6   9  -2    1.91    0.42
   6   9   2    1.21    0.28
   7   9   2    5.01    0.44
  -7   9  -2    4.60    0.56
   8   9   2    0.27    0.33
  -8   9  -2    0.30    0.40
  -4  10   2    0.83    0.39
  -3  10   2    1.46    0.40
  -2  10   2    6.50    0.63
  -1  10   2    1.91    0.36
   0  10   2   -0.45    0.26
   1  10   2    3.69    0.33
  -2  10  -2    3.15    0.38
  -3  10  -2    2.49    0.40
  18   0  -3    0.88    0.51
  17   0  -3    0.41    0.48
  16   0  -3    0.49    0.43
  15   0  -3   -0.30    0.43
  14   0  -3    0.14    0.37
  14   0  -3   -0.02    0.39
  13   0  -3   -0.31    0.33
  13   0  -3    0.50    0.35
  12   0  -3   -0.23    0.31
 -12   0   3    0.14    0.26
  11   0  -3    0.08    0.30
  11   0  -3   -0.44    0.29
 -11   0   3   -0.10    0.26
 -10   0   3    0.19    0.23
  10   0  -3    0.16    0.26
  10   0  -3    0.10    0.27
  -9   0   3    0.00    0.19
  -9   0   3    0.18    0.22
   9   0  -3    0.07    0.25
   9   0  -3   -0.15    0.25
   8   0  -3    0.27    0.24
  -8   0   3    0.08    0.18
  -8   0   3   -0.06    0.18
   8   0  -3   -0.01    0.21
  -7   0   3    0.03    0.15
  -7   0   3   -0.14    0.15
   7   0  -3   -0.08    0.18
   7   0  -3   -0.02    0.17
   6   0  -3   -0.01    0.17
   6   0  -3    0.05    0.14
  -6   0   3   -0.02    0.15
  -6   0   3    0.18    0.15
   5   0  -3   -0.14    0.12
  -5   0   3   -0.18    0.10
  -5   0   3    0.11    0.11
   5   0  -3    0.06    0.13
   4   0  -3   -0.09    0.10
  -4   0   3   -0.04    0.09
  -4   0   3   -0.01    0.09
   4   0  -3    0.12    0.11
  -3   0   3   -0.02    0.08
   3   0  -3   -0.16    0.09
  -3   0   3    0.04    0.10
   3   0  -3   -0.11    0.09
   2   0  -3   -0.05    0.08
  -2   0   3   -0.03    0.07
   2   0  -3   -0.09    0.07
  -2   0   3    0.01    0.07
   1   0  -3   -0.03    0.06
   1   0  -3    0.03    0.06
  -1   0   3    0.01    0.06
  -1   0   3   -0.05    0.06
  -1   0   3    0.00    0.07
   1   0  -3    0.01    0.07
   0   0   3   -0.03    0.07
   0   0  -3   -0.17    0.07
   0   0  -3   -0.06    0.07
   0   0   3   -0.05    0.07
  -1   0  -3   -0.18    0.07
   1   0   3   -0.22    0.07
   2   0   3   -0.16    0.08
  -2   0  -3   -0.20    0.08
   3   0   3    0.01    0.10
  -3   0  -3    0.06    0.08
   4   0   3    0.03    0.11
  -4   0  -3   -0.05    0.10
  -4   0  -3   -0.12    0.10
  -5   0  -3    0.02    0.11
   5   0   3   -0.07    0.12
  -5   0  -3    0.01    0.11
   6   0   3    0.04    0.16
  -6   0  -3    0.02    0.14
   6   0   3    0.01    0.15
  -6   0  -3    0.27    0.17
   7   0   3   -0.13    0.17
  -7   0  -3    0.02    0.15
   7   0   3    0.13    0.18
  -7   0  -3   -0.02    0.18
   8   0   3   -0.25    0.22
  -8   0  -3    0.09    0.18
   8   0   3    0.05    0.22
  -8   0  -3   -0.05    0.17
  -9   0  -3   -0.04    0.21
   9   0   3    0.20    0.25
   9   0   3   -0.30    0.26
  -9   0  -3   -0.04    0.21
 -10   0  -3   -0.17    0.23
  10   0   3   -0.13    0.28
  10   0   3    0.13    0.26
 -11   0  -3    0.36    0.26
  11   0   3    0.10    0.36
  11   0   3    0.21    0.33
 -12   0  -3    0.62    0.31
  12   0   3    0.07    0.36
  12   0   3    0.04    0.35
  13   0   3   -0.31    0.39
  13   0   3    0.47    0.39
  14   0   3   -0.36    0.37
  15   0   3    0.43    0.39
  16   0   3    0.06    0.41
  17   0   3    0.57    0.50
  18   0   3    0.70    0.51
  18  -1  -3    4.22    0.67
  18   1  -3    4.94    0.70
  17  -1  -3    0.41    0.51
  17   1  -3    0.77    0.51
  16  -1  -3    3.54    0.59
  16   1  -3    4.05    0.61
  15  -1  -3   15.08    0.91
  15   1  -3   15.48    0.91
  14  -1  -3    0.91    0.40
  14   1  -3    0.51    0.40
  14   1  -3    1.00    0.44
  13  -1  -3    9.77    0.73
  13  -1  -3    6.81    0.63
  13   1  -3    9.87    0.81
  13   1  -3   10.20    0.71
  12  -1  -3    5.48    0.57
  12  -1  -3    3.05    0.44
  12   1  -3    4.24    0.51
 -12   1   3    5.87    0.53
  12   1  -3    5.25    0.58
  11  -1  -3   34.59    1.19
  11   1  -3   37.51    1.26
  11   1  -3   34.55    1.17
 -11   1   3   36.92    1.22
 -10  -1   3    3.27    0.50
  10  -1  -3    2.49    0.40
 -10   1   3    2.66    0.40
  10   1  -3    2.66    0.36
  10   1  -3    3.63    0.43
 -10   1   3    3.42    0.42
  -9  -1   3   86.22    2.08
   9  -1  -3   88.67    2.19
  -9  -1   3   86.52    2.14
   9   1  -3   87.85    2.16
   9   1  -3   87.10    2.18
  -9   1   3   91.57    2.21
  -9   1   3   87.72    2.15
   8  -1  -3   49.92    1.34
  -8  -1   3   45.42    1.27
  -8  -1   3   47.77    1.24
  -8   1   3   48.55    1.35
  -8   1   3   48.63    1.30
   8   1  -3   48.83    1.32
   8   1  -3   48.98    1.31
  -7  -1   3    6.08    0.34
  -7  -1   3    5.36    0.34
   7  -1  -3    5.78    0.42
   7  -1  -3    3.90    0.37
  -7   1   3    4.94    0.40
   7   1  -3    5.61    0.37
   7   1  -3    5.43    0.38
  -7   1   3    5.40    0.38
   6  -1  -3    9.51    0.48
  -6  -1   3   10.16    0.39
   6  -1  -3    9.50    0.43
  -6  -1   3    9.80    0.41
  -6   1   3   10.21    0.42
  -6   1   3   10.05    0.47
   6   1  -3   10.31    0.44
   6   1  -3   10.14    0.43
  -5  -1   3  156.54    3.40
   5  -1  -3  165.51    3.52
   5  -1  -3  158.72    3.43
  -5  -1   3  164.11    3.39
  -5   1   3  159.51    3.42
   5   1  -3  158.69    3.42
  -5   1   3  157.52    3.49
   5   1  -3  157.91    3.41
  -4  -1   3   62.43    1.43
   4  -1  -3   64.59    1.51
   4  -1  -3   63.94    1.46
  -4  -1   3   64.63    1.42
  -4   1   3   62.31    1.44
  -4   1   3   64.99    1.50
   4   1  -3   64.35    1.44
   4   1  -3   63.56    1.44
  -3  -1   3   40.52    0.92
   3  -1  -3   39.44    0.95
   3  -1  -3   40.41    0.98
  -3  -1   3   40.29    0.93
   3   1  -3   40.24    0.93
  -3   1   3   39.66    0.94
   3   1  -3   39.58    0.94
  -3   1   3   41.16    0.98
  -2  -1   3   16.14    0.42
   2  -1  -3   16.53    0.45
  -2  -1   3   16.07    0.43
   2  -1  -3   15.72    0.45
   2   1  -3   16.06    0.43
   2   1  -3   16.25    0.43
  -2   1   3   16.73    0.45
  -2   1   3   16.25    0.45
  -1  -1   3   39.93    0.90
  -1  -1   3   39.33    0.89
   1  -1  -3   39.24    0.90
   1  -1  -3   40.27    0.91
  -1   1   3   39.59    0.90
   1   1  -3   39.96    0.89
  -1   1   3   39.50    0.90
   1   1  -3   40.06    0.91
  -1   1   3   39.15    0.90
   0  -1  -3   50.22    1.09
   0  -1   3   51.21    1.10
   0  -1   3   49.92    1.11
   0  -1  -3   49.05    1.09
   0  -1  -3   50.01    1.11
   0   1   3   49.86    1.10
   0   1  -3   48.78    1.09
   0   1   3   48.91    1.10
   0   1  -3   49.62    1.11
   0   1   3   50.88    1.10
  -1  -1  -3    1.22    0.10
  -1  -1  -3    0.90    0.09
   1  -1   3    0.84    0.10
   1   1   3    0.85    0.10
  -1   1  -3    0.66    0.09
  -2  -1  -3  403.04    8.31
  -2  -1  -3  403.28    8.34
   2  -1   3  400.41    8.32
  -2   1  -3  405.24    8.33
   2   1   3  417.70    8.32
  -3  -1  -3   86.19    1.88
   3  -1   3   89.14    1.91
  -3  -1  -3   84.58    1.91
   3   1   3   89.01    1.89
  -3   1  -3   88.13    1.90
   4  -1   3    2.49    0.21
  -4  -1  -3    2.00    0.17
  -4  -1  -3    2.40    0.21
   4   1   3    2.16    0.18
  -4   1  -3    2.25    0.19
   4   1   3    2.41    0.22
   5  -1   3    0.41    0.14
  -5  -1  -3    0.43    0.13
  -5  -1  -3    0.47    0.14
  -5   1  -3    0.23    0.14
   5   1   3    0.60    0.15
  -5   1  -3    0.38    0.14
   5   1   3    0.37    0.17
  -6  -1  -3  115.14    2.61
   6  -1   3  115.11    2.58
  -6  -1  -3  117.17    2.54
  -6   1  -3  113.74    2.62
   6   1   3  111.90    2.66
   6   1   3  114.69    2.54
  -6   1  -3  119.30    2.59
   7  -1   3   77.78    1.90
  -7  -1  -3   80.49    1.86
  -7  -1  -3   79.14    1.93
  -7   1  -3   80.09    1.96
   7   1   3   78.57    2.00
  -7   1  -3   82.53    1.92
   7   1   3   79.69    1.87
  -8  -1  -3   41.94    1.16
  -8  -1  -3   39.67    1.09
   8  -1   3   38.14    1.13
   8   1   3   39.23    1.11
   8   1   3   39.65    1.24
  -8   1  -3   39.20    1.13
  -8   1  -3   40.02    1.19
  -9  -1  -3    5.97    0.45
   9  -1   3    4.08    0.40
  -9  -1  -3    5.17    0.40
   9   1   3    4.28    0.38
  -9   1  -3    5.32    0.43
  -9   1  -3    5.42    0.49
   9   1   3    6.27    0.56
  10  -1   3    5.47    0.49
  10   1   3    5.54    0.48
 -10   1  -3    4.48    0.44
  10   1   3    4.78    0.49
  11  -1   3    2.63    0.43
 -11   1  -3    2.26    0.36
  11   1   3    1.29    0.38
  11   1   3    1.84    0.38
  12  -1   3   35.26    1.27
  12   1   3   35.01    1.25
 -12   1  -3   35.35    1.27
  12   1   3   38.13    1.41
  13  -1   3   15.23    0.83
  13   1   3   14.77    0.98
  13   1   3   14.69    0.88
  14  -1   3    4.12    0.55
  14   1   3    3.38    0.58
  14   1   3    3.30    0.53
  15  -1   3    2.73    0.54
  15   1   3    3.32    0.52
  16  -1   3    1.97    0.53
  16   1   3    1.78    0.51
  17  -1   3    6.14    0.69
  17   1   3    5.48    0.64
  18  -1   3    0.92    0.53
  18   1   3    1.60    0.57
  18  -2  -3    0.69    0.52
  18   2  -3    1.50    0.56
  17  -2  -3   14.48    0.98
  17   2  -3   15.02    1.03
  16  -2  -3    3.30    0.61
  16   2  -3    3.35    0.58
  15  -2  -3   -0.21    0.38
  15   2  -3    0.13    0.46
  15   2  -3    0.21    0.43
  14  -2  -3   12.38    0.82
  14   2  -3   11.19    0.91
  14   2  -3   12.60    0.86
  13  -2  -3   24.60    1.10
  13   2  -3   24.79    1.03
  13   2  -3   26.95    1.16
  12  -2  -3    0.29    0.33
  12  -2  -3    0.04    0.34
  12   2  -3    0.14    0.34
  12   2  -3   -0.02    0.33
 -12   2   3    0.29    0.29
  11  -2  -3    7.66    0.65
  11  -2  -3    5.44    0.52
 -11   2   3    6.69    0.59
  11   2  -3    5.35    0.50
  11   2  -3    6.64    0.54
  10  -2  -3   51.78    1.53
  10  -2  -3   45.76    1.39
 -10   2   3   48.47    1.44
  10   2  -3   46.81    1.39
 -10   2   3   46.78    1.38
  10   2  -3   45.87    1.36
  -9  -2   3   48.59    1.32
   9  -2  -3   49.77    1.48
   9  -2  -3   47.26    1.36
  -9   2   3   47.89    1.41
   9   2  -3   46.02    1.33
  -9   2   3   47.50    1.34
   9   2  -3   47.12    1.33
  -8  -2   3    5.68    0.40
   8  -2  -3    4.49    0.41
   8  -2  -3    5.64    0.49
   8   2  -3    5.07    0.40
  -8   2   3    5.11    0.40
  -8   2   3    5.75    0.48
   8   2  -3    5.03    0.40
  -7  -2   3   38.94    1.04
   7  -2  -3   38.35    1.17
   7  -2  -3   37.48    1.06
  -7   2   3   38.40    1.06
   7   2  -3   37.61    1.02
   7   2  -3   38.04    1.05
  -7   2   3   39.00    1.15
  -6  -2   3   51.64    1.19
   6  -2  -3   52.26    1.30
   6  -2  -3   53.00    1.41
  -6  -2   3   51.26    1.27
   6   2  -3   51.40    1.25
  -6   2   3   51.73    1.29
   6   2  -3   52.72    1.28
  -6   2   3   52.79    1.40
  -5  -2   3   10.52    0.40
   5  -2  -3   11.51    0.45
   5  -2  -3   10.99    0.50
  -5   2   3   11.22    0.43
   5   2  -3   11.01    0.39
   5   2  -3   11.08    0.41
  -5   2   3   11.89    0.52
  -4  -2   3    0.65    0.12
   4  -2  -3    0.69    0.16
  -4  -2   3    0.83    0.12
  -4   2   3    0.89    0.19
   4   2  -3    0.87    0.14
   4   2  -3    1.02    0.13
  -4   2   3    0.74    0.14
   3  -2  -3  109.97    2.44
  -3  -2   3  112.86    2.33
   3  -2  -3  110.62    2.37
  -3  -2   3  109.00    2.33
   3   2  -3  111.74    2.34
  -3   2   3  108.67    2.37
   3   2  -3  109.10    2.35
  -3   2   3  108.54    2.43
   2  -2  -3   13.27    0.39
  -2  -2   3   13.40    0.36
   2  -2  -3   12.45    0.41
  -2  -2   3   12.66    0.35
   2   2  -3   12.70    0.37
  -2   2   3   13.17    0.38
   2   2  -3   12.66    0.36
  -2   2   3   12.71    0.42
   1  -2  -3   66.41    1.42
  -1  -2   3   67.11    1.40
   1  -2  -3   62.34    1.43
  -1  -2   3   57.88    1.39
  -1   2   3   66.33    1.42
   1   2  -3   64.95    1.40
  -1   2   3   67.41    1.43
   1   2  -3   66.80    1.42
   0  -2   3   11.74    0.33
   0  -2  -3   11.67    0.31
   0  -2   3   11.81    0.34
   0   2   3   11.68    0.33
   0   2  -3   12.16    0.34
   0   2   3   11.97    0.34
   0   2   3   11.82    0.34
  -1  -2  -3  234.99    4.96
  -1  -2  -3  249.09    5.00
  -1  -2  -3  234.77    4.96
   1  -2   3  250.68    5.04
   1  -2   3  244.32    5.02
   1   2   3  243.38    5.00
   1   2   3  244.49    5.02
   1   2   3  242.80    5.01
  -1   2  -3  245.17    5.03
   2  -2   3   22.45    0.58
  -2  -2  -3   22.20    0.50
  -2  -2  -3   22.27    0.52
  -2  -2  -3   23.25    0.55
  -2   2  -3   22.65    0.58
   2   2   3   22.85    0.56
  -3  -2  -3   34.18    0.82
  -3  -2  -3   35.75    0.79
   3  -2   3   36.54    0.88
  -3  -2  -3   36.36    0.83
   3   2   3   37.36    0.89
  -3   2  -3   35.26    0.88
   3   2   3   36.97    0.85
  -4  -2  -3  179.79    3.76
   4  -2   3  180.87    3.83
  -4  -2  -3  170.08    3.77
   4   2   3  180.66    3.77
   4   2   3  182.78    3.85
  -4   2  -3  183.41    3.83
  -5  -2  -3    0.53    0.13
  -5  -2  -3    0.58    0.12
   5  -2   3    0.49    0.17
   5   2   3    0.60    0.18
  -5   2  -3    0.61    0.17
  -5   2  -3    0.54    0.17
   5   2   3    0.48    0.14
   6  -2   3   12.87    0.52
  -6  -2  -3   12.49    0.45
  -6  -2  -3   12.71    0.44
   6   2   3   12.98    0.47
  -6   2  -3   12.89    0.51
  -6   2  -3   11.95    0.53
   6   2   3   12.28    0.56
   7  -2   3   86.34    2.08
  -7  -2  -3   87.68    1.97
  -7   2  -3   87.19    2.08
  -7   2  -3   85.08    2.10
   7   2   3   87.82    2.14
   7   2   3   85.19    1.99
  -8  -2  -3   91.52    2.07
   8  -2   3   88.40    2.18
  -8   2  -3   88.76    2.17
   8   2   3   92.26    2.27
   8   2   3   86.64    2.10
  -8   2  -3   88.15    2.21
   9  -2   3    8.13    0.55
   9   2   3    8.99    0.64
   9   2   3    8.20    0.49
  -9   2  -3    7.77    0.57
  -9   2  -3    7.95    0.52
  10  -2   3   45.85    1.37
  10   2   3   46.62    1.47
  10   2   3   41.12    1.30
 -10   2  -3   45.85    1.36
 -10   2  -3   45.64    1.43
  11  -2   3  108.79    2.70
  11   2   3  111.60    2.84
  11   2   3  107.16    2.67
 -11   2  -3  109.37    2.78
  12  -2   3    6.49    0.59
  12   2   3    5.93    0.64
  12   2   3    6.07    0.56
 -12   2  -3    4.00    0.48
  13  -2   3    2.01    0.47
  13   2   3    1.83    0.41
  13   2   3    2.51    0.55
  14  -2   3   13.96    0.91
  14   2   3   15.82    1.04
  14   2   3   13.94    0.82
  15  -2   3   17.96    1.02
  15   2   3   17.63    1.25
  15   2   3   17.74    0.95
  16  -2   3    1.03    0.50
  16   2   3    1.09    0.48
  17  -2   3    2.58    0.56
  17   2   3    2.32    0.51
  18  -2   3    1.88    0.53
  18   2   3    2.42    0.63
  17  -3  -3    1.62    0.53
  17   3  -3    2.59    0.58
  16  -3  -3    2.14    0.55
  16   3  -3    1.57    0.52
  15  -3  -3    0.49    0.47
  15   3  -3   -0.14    0.39
  15   3  -3   -0.43    0.44
  14  -3  -3    0.33    0.43
  14   3  -3   -0.29    0.41
  14   3  -3   -0.20    0.39
  13  -3  -3    1.71    0.46
  13   3  -3    1.12    0.41
  13   3  -3    1.99    0.46
  12  -3  -3   12.56    1.27
  12  -3  -3   11.58    0.74
  12   3  -3   13.35    0.81
 -12   3   3   12.06    0.85
  12   3  -3   11.40    0.74
  11  -3  -3    2.60    0.45
  11  -3  -3    3.41    0.51
 -11   3   3    3.25    0.43
  11   3  -3    3.06    0.42
  10  -3  -3   15.32    0.80
  10  -3  -3   12.09    0.72
  10   3  -3   15.75    0.72
 -10   3   3   14.46    0.77
 -10   3   3   12.29    0.67
  10   3  -3   13.18    0.68
   9  -3  -3    0.19    0.29
   9  -3  -3    0.31    0.28
  -9   3   3    0.68    0.26
   9   3  -3    0.29    0.26
  -9   3   3    0.62    0.28
   9   3  -3    0.47    0.26
  -8  -3   3    3.14    0.31
   8  -3  -3    2.36    0.33
   8  -3  -3    3.20    0.36
   8   3  -3    2.61    0.29
   8   3  -3    2.98    0.33
  -8   3   3    3.25    0.40
  -8   3   3    2.60    0.33
  -7  -3   3   17.78    0.61
   7  -3  -3   17.64    0.66
   7  -3  -3   16.63    0.69
   7   3  -3   16.97    0.59
  -7   3   3   17.23    0.73
  -7   3   3   17.92    0.67
   7   3  -3   17.91    0.62
  -6  -3   3   25.27    0.72
   6  -3  -3   22.94    0.79
   6  -3  -3   25.61    0.76
  -6  -3   3   23.82    0.65
  -6   3   3   24.66    0.85
   6   3  -3   24.17    0.68
  -6   3   3   24.25    0.76
   6   3  -3   23.85    0.71
   5  -3  -3    1.26    0.20
  -5  -3   3    1.00    0.14
  -5  -3   3    1.23    0.16
   5  -3  -3    1.11    0.19
  -5   3   3    0.92    0.21
   5   3  -3    1.17    0.16
   5   3  -3    0.93    0.16
  -5   3   3    1.14    0.19
  -4  -3   3   40.67    0.94
   4  -3  -3   38.93    1.00
   4  -3  -3   40.06    0.98
  -4   3   3   39.57    0.99
  -4   3   3   39.29    1.09
   4   3  -3   39.66    0.92
   4   3  -3   39.00    0.94
   3  -3  -3   14.83    0.44
   3  -3  -3   14.78    0.46
  -3  -3   3   15.16    0.40
  -3  -3   3   15.17    0.41
  -3   3   3   14.29    0.54
  -3   3   3   15.06    0.46
   3   3  -3   15.13    0.43
  -2  -3   3   11.59    0.31
   2  -3  -3   11.35    0.36
  -2  -3   3   10.64    0.30
  -2   3   3   10.33    0.41
  -2   3   3   10.83    0.36
   2   3  -3   11.25    0.35
   2   3  -3   11.07    0.33
  -1  -3   3   71.57    1.52
  -1  -3   3   71.94    1.52
  -1   3   3   71.82    1.60
   1   3  -3   71.55    1.56
  -1   3   3   72.59    1.57
   1   3  -3   71.44    1.54
   0  -3   3    2.71    0.15
   0  -3   3    2.57    0.15
   0   3   3    2.67    0.17
   0   3   3    2.71    0.18
   0   3   3    2.63    0.17
   0   3  -3    2.70    0.17
   1  -3   3   -0.04    0.04
   1  -3   3   -0.04    0.09
   1   3   3    0.10    0.09
   1   3   3   -0.05    0.09
   1   3   3   -0.03    0.07
  -1   3  -3   -0.02    0.09
   2  -3   3    4.67    0.25
  -2  -3  -3    4.55    0.18
   2   3   3    4.71    0.21
   2   3   3    4.97    0.22
   2   3   3    4.68    0.18
  -2   3  -3    4.80    0.24
   3  -3   3   58.53    1.35
  -3  -3  -3   58.06    1.25
  -3   3  -3   55.39    1.33
   3   3   3   57.77    1.31
   3   3   3   57.76    1.28
   4  -3   3   55.30    1.34
  -4  -3  -3   54.57    1.21
   4   3   3   52.13    1.30
   4   3   3   55.70    1.24
  -4   3  -3   56.17    1.32
   5  -3   3   15.82    0.58
  -5  -3  -3   14.62    0.44
   5   3   3   14.44    0.55
   5   3   3   14.67    0.47
  -5   3  -3   14.87    0.55
  -6  -3  -3    0.23    0.13
   6  -3   3    0.25    0.21
  -6   3  -3    0.43    0.19
   6   3   3    0.17    0.20
   6   3   3    0.35    0.16
  -6   3  -3    0.03    0.20
   7  -3   3    0.48    0.23
  -7  -3  -3    0.35    0.16
  -7   3  -3    0.40    0.22
   7   3   3    0.26    0.18
  -7   3  -3    0.37    0.21
   7   3   3    0.18    0.22
  -8  -3  -3    2.03    0.24
   8  -3   3    1.80    0.34
  -8   3  -3    1.56    0.30
   8   3   3    2.16    0.28
   8   3   3    1.80    0.33
  -8   3  -3    1.68    0.30
   9  -3   3    0.04    0.29
  -9   3  -3   -0.41    0.22
   9   3   3    0.33    0.25
   9   3   3    0.10    0.27
  -9   3  -3    0.03    0.25
  10  -3   3    3.11    0.42
  10   3   3    2.31    0.36
  10   3   3    2.50    0.42
 -10   3  -3    1.74    0.36
 -10   3  -3    2.12    0.38
  11  -3   3   11.33    0.70
  11   3   3   11.70    0.83
  11   3   3   10.96    0.69
 -11   3  -3   12.10    0.80
  12  -3   3    0.35    0.33
  12   3   3    0.36    0.36
  12   3   3   -0.27    0.35
  13  -3   3    0.14    0.39
  13   3   3   -0.20    0.36
  13   3   3    0.43    0.37
  14  -3   3    1.62    0.43
  14   3   3    1.49    0.40
  14   3   3    0.22    0.40
  15  -3   3    2.45    0.53
  15   3   3    1.81    0.50
  15   3   3    1.98    0.46
  16  -3   3    0.21    0.45
  16   3   3    0.73    0.45
  17  -3   3    0.91    0.52
  17   3   3    0.73    0.49
  17  -4  -3    4.60    0.68
  17   4  -3    4.38    0.65
  16  -4  -3    0.40    0.49
  16   4  -3    0.34    0.47
  16   4  -3    0.38    0.82
  15  -4  -3    0.23    0.42
  15   4  -3    0.01    0.42
  15   4  -3    0.24    0.47
  14  -4  -3    3.90    0.58
  14   4  -3    4.04    0.62
  14   4  -3    3.78    0.55
  13  -4  -3    4.04    0.56
  13   4  -3    3.37    0.48
  13   4  -3    4.13    0.55
  12  -4  -3    3.56    0.51
  12   4  -3    4.98    0.53
  12   4  -3    3.78    0.48
  11  -4  -3    0.03    0.34
  11   4  -3    0.36    0.31
  11   4  -3    0.79    0.34
 -11   4   3    0.46    0.31
  10  -4  -3    2.16    0.38
 -10   4   3    1.96    0.37
 -10   4   3    3.44    0.44
  10   4  -3    2.78    0.37
   9  -4  -3    8.89    0.59
  -9   4   3    9.65    0.67
   9   4  -3   10.00    0.55
   9   4  -3    9.57    0.55
  -9   4   3    8.49    0.56
  -8  -4   3   -0.04    0.15
  -8  -4   3   -0.15    0.17
   8  -4  -3    0.01    0.23
  -8   4   3    0.19    0.23
   8   4  -3    0.06    0.21
   8   4  -3   -0.21    0.22
  -8   4   3   -0.03    0.24
   7  -4  -3   39.56    1.11
  -7  -4   3   38.59    1.01
   7   4  -3   40.27    1.03
  -7   4   3   39.62    1.25
  -7   4   3   39.31    1.14
   7   4  -3   40.83    1.06
   6  -4  -3   21.70    0.69
  -6  -4   3   20.90    0.61
  -6  -4   3   22.12    0.57
   6   4  -3   21.49    0.62
  -6   4   3   21.07    0.82
  -6   4   3   22.28    0.74
   6   4  -3   22.69    0.66
  -5  -4   3   25.94    0.62
  -5  -4   3   24.12    0.65
   5  -4  -3   25.05    0.74
   5   4  -3   25.59    0.66
  -5   4   3   26.99    0.77
  -5   4   3   26.86    0.89
   5   4  -3   25.01    0.69
  -4  -4   3  139.62    2.76
   4  -4  -3  134.67    2.87
  -4  -4   3  125.79    2.77
  -4   4   3  133.36    3.02
   4   4  -3  130.64    2.82
  -4   4   3  133.59    2.90
  -3  -4   3   40.37    0.90
  -3  -4   3   42.74    0.88
   3  -4  -3   43.10    1.01
  -3   4   3   41.12    1.13
   3   4  -3   42.64    0.97
  -3   4   3   42.12    1.02
   2   4  -3   55.58    1.26
  -2   4   3   55.54    1.37
   2   4  -3   58.64    1.25
  -2   4   3   57.12    1.29
  -1  -4   3    9.63    0.25
  -1   4   3    9.90    0.38
  -1   4   3   10.03    0.33
   1   4  -3    9.27    0.31
   0  -4   3   50.14    1.08
   0  -4   3   48.43    1.11
   0   4   3   48.75    1.14
   0   4   3   52.68    1.14
   0   4  -3   52.75    1.14
   0   4   3   51.59    1.13
   1  -4   3    1.28    0.14
   1  -4   3    1.13    0.12
   1   4   3    1.22    0.13
  -1   4  -3    1.04    0.13
   1   4   3    1.42    0.12
   1   4   3    1.05    0.12
   2  -4   3   17.76    0.49
   2   4   3   16.79    0.41
   2   4   3   16.61    0.45
  -2   4  -3   17.06    0.50
   2   4   3   17.19    0.44
   2   4   3   17.48    0.47
   3  -4   3   36.98    0.97
   3   4   3   36.98    0.87
   3   4   3   36.83    0.88
  -3   4  -3   37.52    0.94
   3   4   3   37.16    0.83
  -4  -4  -3    7.97    0.24
   4  -4   3    8.01    0.41
   4   4   3    7.54    0.35
   4   4   3    8.07    0.31
  -4   4  -3    8.33    0.39
   5  -4   3    5.06    0.38
  -5  -4  -3    4.04    0.20
   5   4   3    4.09    0.28
  -5   4  -3    4.51    0.35
   5   4   3    3.98    0.34
  -6  -4  -3    0.09    0.12
   6  -4   3    0.41    0.22
   6   4   3    0.24    0.20
  -6   4  -3    0.46    0.23
  -6   4  -3    0.17    0.20
   6   4   3    0.33    0.16
  -7  -4  -3    9.48    0.37
   7  -4   3    9.76    0.55
  -7   4  -3    9.19    0.56
   7   4   3    9.95    0.56
   7   4   3    9.46    0.45
  -7   4  -3    9.02    0.51
  -8  -4  -3   30.58    0.82
   8  -4   3   32.03    1.04
   8   4   3   30.70    1.05
  -8   4  -3   29.84    1.05
   8   4   3   31.98    0.93
  -8   4  -3   30.55    1.01
   9  -4   3    7.33    0.58
   9   4   3    6.27    0.56
   9   4   3    4.21    0.39
  -9   4  -3    6.16    0.53
  -9   4  -3    6.28    0.59
  10  -4   3   12.00    0.72
 -10   4  -3   10.90    0.70
  10   4   3   11.33    0.77
  10   4   3   11.02    0.63
 -10   4  -3   10.84    0.76
  11  -4   3    6.35    0.57
  11   4   3    5.25    0.49
 -11   4  -3    4.63    0.52
  11   4   3    5.97    0.60
  12  -4   3    3.25    0.49
  12   4   3    4.44    0.59
  12   4   3    2.96    0.45
  13  -4   3    0.24    0.40
  13   4   3    0.04    0.42
  13   4   3    0.36    0.38
  14  -4   3    4.56    0.57
  14   4   3    4.27    0.55
  14   4   3    5.12    0.69
  15  -4   3    2.26    0.48
  15   4   3    1.89    0.56
  15   4   3    1.72    0.47
  16  -4   3    0.47    0.44
  16   4   3    0.09    0.44
  16   5  -3    4.62    0.63
  16   5  -3    3.67    0.67
  15  -5  -3    5.02    0.68
  15   5  -3    4.99    0.62
  15   5  -3    5.22    0.70
  14  -5  -3    0.54    0.46
  14   5  -3    0.64    0.43
  14   5  -3    0.64    0.46
  13  -5  -3   -0.14    0.39
  13   5  -3   -0.47    0.36
  13   5  -3    0.30    0.37
  12  -5  -3   11.80    0.79
  12   5  -3   11.69    0.80
  12   5  -3   11.25    0.73
  11  -5  -3   18.33    0.89
  11   5  -3   19.36    0.86
 -11   5   3   20.83    1.00
  11   5  -3   20.40    0.90
 -10  -5   3    4.24    0.31
  10  -5  -3    4.22    0.46
 -10   5   3    4.06    0.47
 -10   5   3    5.49    0.56
  10   5  -3    3.40    0.40
  10   5  -3    4.98    0.45
   9  -5  -3    4.37    0.43
  -9  -5   3    4.05    0.29
   9   5  -3    4.17    0.38
  -9   5   3    3.74    0.45
  -9   5   3    4.68    0.54
   9   5  -3    3.72    0.37
  -8  -5   3   49.16    1.14
  -8  -5   3   47.11    1.16
   8  -5  -3   51.24    1.37
  -8   5   3   51.11    1.45
  -8   5   3   50.65    1.53
   8   5  -3   51.11    1.29
   8   5  -3   50.88    1.31
  -7  -5   3   31.54    0.76
   7  -5  -3   34.07    0.97
  -7  -5   3   32.83    0.76
  -7   5   3   32.79    1.13
   7   5  -3   31.83    0.87
  -7   5   3   33.18    1.04
   7   5  -3   32.02    0.90
   6  -5  -3   22.86    0.72
   6   5  -3   22.94    0.65
   6   5  -3   22.59    0.67
  -6   5   3   23.62    0.79
  -6   5   3   23.15    0.91
   5  -5  -3  130.28    2.82
  -5   5   3  128.07    3.01
   5   5  -3  128.80    2.73
   5   5  -3  129.59    2.76
  -5   5   3  127.49    2.89
   4  -5  -3    9.05    0.38
  -4   5   3    9.44    0.54
  -4   5   3    9.73    0.45
   4   5  -3   10.01    0.36
   3  -5  -3    6.34    0.29
  -3   5   3    5.80    0.43
   3   5  -3    6.14    0.28
  -3   5   3    6.81    0.35
   2  -5  -3    7.52    0.27
  -2   5   3    7.27    0.40
   2   5  -3    7.13    0.30
   2   5  -3    7.34    0.27
  -2   5   3    7.98    0.33
   1   5  -3  108.79    2.25
  -1   5   3  106.76    2.28
  -1   5   3  102.99    2.34
   0   5   3    0.80    0.14
   0   5  -3    1.02    0.14
   0   5   3    0.89    0.14
   0   5   3    0.86    0.13
   1  -5   3   38.34    0.83
   1  -5   3   39.41    0.83
   1   5   3   37.64    0.88
   1   5   3   38.31    0.89
  -1   5  -3   38.26    0.92
   2  -5   3    7.55    0.30
   2  -5   3    8.32    0.29
   2   5   3    7.95    0.29
  -2   5  -3    8.39    0.33
   2   5   3    8.37    0.30
   3  -5   3   24.52    0.68
  -3   5  -3   25.41    0.70
   3   5   3   25.03    0.62
   3   5   3   23.59    0.61
   3   5   3   24.87    0.57
   4  -5   3    0.26    0.16
   4   5   3    0.28    0.13
  -4   5  -3    0.19    0.18
   4   5   3    0.11    0.13
   5  -5   3   67.13    1.64
  -5   5  -3   68.88    1.65
   5   5   3   66.03    1.51
   5   5   3   66.44    1.59
   6  -5   3   33.28    1.00
   6   5   3   32.51    0.97
   6   5   3   32.88    0.87
  -6   5  -3   33.75    1.02
  -6   5  -3   33.21    1.05
  -7  -5  -3    3.44    0.20
   7  -5   3    3.07    0.35
  -7   5  -3    3.09    0.39
  -7   5  -3    3.16    0.37
   7   5   3    3.13    0.28
   7   5   3    3.55    0.38
   8  -5   3    0.82    0.29
  -8  -5  -3    0.62    0.15
   8   5   3    0.53    0.24
  -8   5  -3    0.26    0.29
  -8   5  -3    0.39    0.28
   8   5   3    0.84    0.31
   9  -5   3   43.49    1.31
  -9   5  -3   40.28    1.30
   9   5   3   42.22    1.22
   9   5   3   43.67    1.36
  -9   5  -3   42.04    1.38
  10  -5   3   19.64    0.86
 -10   5  -3   17.67    0.93
 -10   5  -3   17.28    0.83
  10   5   3   17.65    0.78
  10   5   3   18.54    0.92
  11  -5   3    1.07    0.38
  11   5   3    1.07    0.43
 -11   5  -3    0.45    0.41
  11   5   3    0.66    0.34
  12  -5   3    8.40    0.67
  12   5   3    9.16    0.78
  12   5   3    8.15    0.65
  13  -5   3    5.90    0.59
  13   5   3    4.74    0.53
  13   5   3    5.86    0.69
  14  -5   3    1.21    0.47
  14   5   3    0.34    0.45
  14   5   3    1.48    0.43
  15  -5   3    6.88    0.72
  15   5   3    5.66    0.71
  15   5   3    6.55    0.65
  14   6  -3    2.25    0.53
  14   6  -3    1.60    0.49
  13   6  -3    1.50    0.46
  13   6  -3    0.97    0.41
  12   6  -3    1.09    0.41
  12   6  -3    0.70    0.38
  11  -6  -3   -0.16    0.33
  11   6  -3    0.17    0.31
  11   6  -3    0.15    0.34
  10  -6  -3    2.70    0.42
  10   6  -3    2.57    0.37
 -10   6   3    2.34    0.44
  10   6  -3    3.06    0.39
   9  -6  -3    4.50    0.43
   9   6  -3    4.30    0.39
   9   6  -3    5.10    0.40
  -9   6   3    5.48    0.63
  -9   6   3    4.16    0.50
   8  -6  -3   -0.10    0.24
  -8   6   3    0.80    0.31
   8   6  -3   -0.08    0.21
   8   6  -3    0.21    0.24
  -8   6   3    0.02    0.28
   7  -6  -3   22.83    0.77
  -7   6   3   23.55    0.90
   7   6  -3   23.57    0.71
   7   6  -3   22.52    0.70
  -7   6   3   24.82    1.01
   6  -6  -3    3.43    0.30
   6   6  -3    3.61    0.30
  -6   6   3    3.58    0.43
  -6   6   3    3.66    0.38
   6   6  -3    3.44    0.26
  -5   6   3    0.76    0.29
  -5   6   3    0.53    0.25
   5   6  -3    0.55    0.17
   4  -6  -3    2.08    0.21
   4   6  -3    2.45    0.20
  -4   6   3    1.86    0.32
  -4   6   3    2.13    0.29
   3  -6  -3    9.75    0.33
  -3   6   3    9.48    0.54
   3   6  -3    9.91    0.35
  -3   6   3    9.79    0.46
   2   6  -3    0.58    0.12
  -2   6   3    0.46    0.17
  -2   6   3    0.59    0.21
  -1   6   3    6.50    0.31
  -1   6   3    5.71    0.37
   1   6  -3    6.77    0.27
   0   6  -3    0.61    0.14
   0   6   3    0.45    0.14
   0   6   3    0.35    0.13
   0   6   3    0.27    0.15
  -1   6  -3   10.82    0.39
   1   6   3   11.09    0.35
   1   6   3   10.40    0.34
   1   6   3   11.55    0.35
  -2   6  -3    0.45    0.16
   2   6   3    0.42    0.12
   2   6   3    0.36    0.12
   3  -6   3   12.52    0.38
   3  -6   3   12.19    0.39
   3   6   3   12.18    0.37
   3   6   3   12.96    0.39
  -3   6  -3   12.57    0.47
   4  -6   3    1.10    0.18
  -4   6  -3    1.26    0.22
   4   6   3    1.39    0.13
   4   6   3    1.03    0.17
   4   6   3    1.08    0.15
   5   6   3    3.20    0.23
  -5   6  -3    3.24    0.32
   5   6   3    3.12    0.28
   6  -6   3    2.04    0.28
  -6   6  -3    0.99    0.30
   6   6   3    2.11    0.23
  -6   6  -3    1.97    0.31
   6   6   3    1.72    0.28
   7  -6   3    6.97    0.49
  -7   6  -3    8.00    0.62
   7   6   3    7.50    0.54
   7   6   3    7.75    0.45
  -7   6  -3    7.49    0.55
   8  -6   3    0.43    0.28
   8   6   3    0.25    0.30
  -8   6  -3    0.55    0.33
   8   6   3    0.33    0.24
  -8   6  -3    0.29    0.30
   9  -6   3    0.33    0.30
  -9   6  -3    0.15    0.32
  -9   6  -3   -0.23    0.50
   9   6   3    0.45    0.33
   9   6   3    0.13    0.26
  10  -6   3    0.58    0.34
  10   6   3   -0.30    0.33
  10   6   3    0.03    0.29
 -10   6  -3    0.03    0.34
  11  -6   3    9.77    0.73
  11   6   3    8.89    0.81
  11   6   3   11.06    0.70
  12   6   3    0.76    0.35
  12   6   3    0.61    0.44
  13   6   3    1.69    0.52
  13   6   3    1.21    0.40
  14   6   3    3.14    0.50
  14   6   3    2.30    0.59
  13   7  -3    0.50    0.46
  13   7  -3    0.30    0.39
  12   7  -3    3.08    0.46
  12   7  -3    3.95    0.54
  11   7  -3    0.15    0.32
  11   7  -3    0.47    0.37
  10   7  -3    1.10    0.34
  10   7  -3    0.29    0.30
 -10   7   3    0.73    0.42
   9   7  -3    0.60    0.28
  -9   7   3    0.96    0.42
   9   7  -3    0.25    0.25
   8   7  -3    0.79    0.24
  -8   7   3    1.65    0.41
   8   7  -3    0.88    0.27
   7   7  -3    6.30    0.40
   7   7  -3    5.63    0.38
  -7   7   3    5.60    0.56
   6  -7  -3    0.44    0.25
   6   7  -3    0.38    0.18
  -6   7   3    0.47    0.33
   6   7  -3    0.46    0.18
   5  -7  -3    9.54    0.40
  -5   7   3    9.09    0.70
   5   7  -3    9.14    0.37
  -5   7   3    9.63    0.67
  -4   7   3   -0.07    0.23
  -4   7   3   -0.01    0.27
  -3   7   3   -0.13    0.20
  -3   7   3   -0.25    0.24
  -2   7   3    4.33    0.38
  -2   7   3    4.28    0.36
  -1   7   3   25.94    0.82
  -1   7   3   27.98    0.76
   1   7  -3   27.71    0.67
  -1   7   3   27.46    0.72
   0   7   3    0.65    0.16
   0   7  -3    0.55    0.14
   0   7   3    0.28    0.18
   0   7   3    0.29    0.15
   1   7   3    8.77    0.36
   1   7   3    9.90    0.33
   1   7   3    9.50    0.32
  -1   7  -3    9.73    0.38
   2   7   3    3.40    0.20
  -2   7  -3    3.09    0.24
   2   7   3    3.49    0.20
   3   7   3    8.70    0.30
   3   7   3    8.54    0.29
  -3   7  -3    9.24    0.43
   4  -7   3    2.55    0.20
   4  -7   3    2.81    0.18
  -4   7  -3    2.37    0.28
   4   7   3    2.61    0.22
   4   7   3    2.52    0.18
   4   7   3    2.80    0.23
   4   7   3    2.82    0.23
   5  -7   3   23.23    0.66
  -5   7  -3   24.58    0.91
   5   7   3   24.14    0.64
   5   7   3   21.82    0.71
   5   7   3   24.70    0.65
   6   7   3    0.04    0.18
  -6   7  -3   -0.03    0.29
   6   7   3    0.01    0.23
   7   7   3    1.94    0.27
   7   7   3    2.38    0.35
  -7   7  -3    1.86    0.37
  -8   7  -3    0.35    0.33
   8   7   3    0.08    0.29
   8   7   3   -0.01    0.24
   9   7   3    9.15    0.57
   9   7   3    7.61    0.68
  -9   7  -3    9.31    0.77
  10   7   3    0.86    0.30
  10   7   3    0.85    0.41
 -10   7  -3    1.14    0.51
  11   7   3    1.53    0.36
  11   7   3    1.13    0.44
  12   7   3    1.12    0.48
  12   7   3    1.16    0.36
  13   7   3   -0.03    0.45
  13   7   3    1.34    0.39
  11   8  -3    0.82    0.33
  11   8  -3    1.32    0.40
  10   8  -3    0.90    0.31
  10   8  -3    1.17    0.37
   9   8  -3   17.02    0.66
  -9   8   3   17.93    1.03
   9   8  -3   18.04    0.76
   8   8  -3    2.25    0.31
   8   8  -3    1.68    0.26
  -8   8   3    2.28    0.48
   7   8  -3    8.85    0.46
  -7   8   3    8.36    0.76
   7   8  -3    8.26    0.40
   6   8  -3    3.69    0.33
  -6   8   3    3.82    0.49
   6   8  -3    4.26    0.29
  -5   8   3    4.58    0.51
  -4   8   3    3.93    0.46
  -3   8   3   20.57    0.85
  -2   8   3    6.36    0.52
   1   8  -3    0.61    0.15
  -1   8   3    0.48    0.25
  -1   8   3    0.62    0.18
   0   8   3    7.37    0.31
   0   8   3    7.10    0.44
   1   8   3   15.03    0.40
   1   8   3   14.20    0.51
   1   8   3   14.45    0.46
   2   8   3    0.27    0.15
   3   8   3   10.54    1.05
   4   8   3    7.96    0.36
   4   8   3    7.77    0.31
   5   8   3    4.54    0.26
  -5   8  -3    5.14    0.48
   5   8   3    4.93    0.38
   6   8   3    3.32    0.25
  -6   8  -3    2.96    0.43
   6   8   3    3.33    0.34
   7   8   3    9.04    0.43
  -7   8  -3    8.49    0.73
   7   8   3    7.95    0.57
  -8   8  -3    4.61    0.56
   8   8   3    4.45    0.34
   8   8   3    3.64    0.44
  -9   8  -3    0.22    0.40
   9   8   3   -0.30    0.33
   9   8   3    0.14    0.25
  10   8   3    1.83    0.32
  10   8   3    1.72    0.44
  11   8   3    5.64    0.47
  11   8   3    5.43    0.64
   8   9  -3    2.01    0.32
  -8   9   3    2.10    0.49
   7   9  -3   -0.24    0.23
  -7   9   3    0.33    0.41
   6   9  -3    0.62    0.21
  -6   9   3    0.49    0.40
  -5   9   3    4.48    0.54
  -4   9   3    2.01    0.42
  -3   9   3   -0.01    0.32
  -2   9   3    1.70    0.36
  -2   9   3    1.76    0.24
  -1   9   3    2.06    0.35
  -1   9   3    2.63    0.22
   0   9   3    3.04    0.25
   0   9   3    2.29    0.31
   1   9   3   -0.40    0.21
   2   9   3   13.44    0.46
   3   9   3    0.14    0.80
  -4   9  -3   -0.04    0.30
   4   9   3    0.18    0.15
  -5   9  -3    3.18    0.45
  -6   9  -3    2.34    0.44
   6   9   3    2.33    0.30
  -7   9  -3    0.17    0.39
   7   9   3    0.39    0.28
  -8   9  -3    1.64    0.48
   8   9   3    1.19    0.35
  -3  10   3    2.56    0.45
  -2  10   3   -0.24    0.32
  -1  10   3   -0.36    0.29
   0  10   3    0.74    0.29
   1  10   3    0.94    0.25
   2  10   3    0.18    0.19
  -3  10  -3    0.15    0.33
   3  10   3    0.16    0.17
  18   0  -4    3.86    0.66
  17   0  -4    7.90    0.76
  16   0  -4    0.75    0.52
  15   0  -4   34.79    1.39
  14   0  -4    4.21    0.58
  13   0  -4    0.26    0.38
  13   0  -4    0.35    0.37
  12   0  -4    0.20    0.34
 -12   0   4    0.31    0.29
  12   0  -4    0.25    0.34
  11   0  -4  125.15    3.04
  11   0  -4  122.11    2.95
 -11   0   4  117.64    2.91
  10   0  -4   29.81    1.06
 -10   0   4   27.94    0.97
  10   0  -4   27.72    1.00
   9   0  -4    2.99    0.35
  -9   0   4    3.10    0.32
  -9   0   4    3.16    0.33
   9   0  -4    3.36    0.37
   8   0  -4   86.73    2.10
  -8   0   4   82.01    2.01
   8   0  -4   87.03    2.08
  -8   0   4   85.23    2.06
  -7   0   4    0.68    0.19
   7   0  -4    1.19    0.23
  -7   0   4    1.06    0.21
   7   0  -4    0.52    0.19
  -6   0   4  103.28    2.35
  -6   0   4  109.78    2.39
   6   0  -4  106.10    2.38
   6   0  -4  102.91    2.39
  -5   0   4   14.18    0.47
   5   0  -4   14.83    0.51
  -5   0   4   14.80    0.50
   5   0  -4   14.00    0.50
   4   0  -4  138.65    3.02
  -4   0   4  142.58    3.02
   4   0  -4  137.21    3.01
  -4   0   4  142.81    3.01
  -3   0   4   91.57    2.00
  -3   0   4   92.43    1.99
   3   0  -4   89.67    1.99
  -2   0   4   46.34    1.08
   2   0  -4   47.93    1.10
   2   0  -4   47.76    1.09
  -2   0   4   47.42    1.09
  -2   0   4   46.84    1.09
   1   0  -4  143.69    3.02
   1   0  -4  142.38    3.01
   1   0  -4  140.17    3.03
  -1   0   4  145.30    3.03
  -1   0   4  144.32    3.02
   0   0   4  369.24    7.63
   0   0  -4  373.86    7.61
   0   0   4  368.13    7.61
   0   0  -4  370.79    7.63
   1   0   4    2.00    0.17
  -1   0  -4    1.83    0.16
   1   0   4    1.56    0.16
  -2   0  -4   35.57    0.85
   2   0   4   35.94    0.86
   3   0   4   92.91    2.03
  -3   0  -4   93.14    2.03
   4   0   4  198.21    4.16
  -4   0  -4  201.78    4.22
  -4   0  -4  191.21    4.15
   5   0   4   23.64    0.68
  -5   0  -4   23.37    0.66
  -5   0  -4   23.44    0.72
  -6   0  -4  295.69    6.33
  -6   0  -4  294.09    6.26
   6   0   4  304.28    6.27
  -7   0  -4    3.97    0.32
  -7   0  -4    4.06    0.36
   7   0   4    3.48    0.31
  -8   0  -4    2.56    0.31
  -8   0  -4    3.45    0.32
   8   0   4    2.98    0.31
  -9   0  -4   58.55    1.61
   9   0   4   55.09    1.52
  -9   0  -4   60.62    1.55
  10   0   4   81.65    2.08
 -10   0  -4   82.58    2.13
  11   0   4    4.45    0.47
 -11   0  -4    6.33    0.55
  12   0   4   25.39    1.05
 -12   0  -4   29.87    1.22
  13   0   4   23.72    1.09
  14   0   4    0.40    0.43
  15   0   4    1.93    0.52
  16   0   4    1.26    0.48
  17   0   4    7.45    0.77
  18   0   4    0.26    0.51
  18  -1  -4    1.07    0.51
  18   1  -4    0.79    0.54
  17  -1  -4    2.15    0.59
  17   1  -4    1.84    0.57
  16  -1  -4    2.06    0.52
  16   1  -4    2.04    0.50
  15  -1  -4    1.42    0.47
  15   1  -4    1.12    0.45
  14  -1  -4   -0.37    0.35
  14   1  -4    0.05    0.41
  14   1  -4   -0.31    0.36
  13  -1  -4   16.03    0.94
  13  -1  -4   17.27    0.90
  13   1  -4   18.15    0.95
  13   1  -4   17.76    0.99
  12  -1  -4   -0.10    0.33
  12  -1  -4   -0.24    0.23
 -12   1   4    0.44    0.34
  12   1  -4    0.33    0.37
  12   1  -4    0.37    0.37
  11  -1  -4    0.92    0.38
  11  -1  -4    0.67    0.28
 -11   1   4    1.20    0.32
  11   1  -4    1.15    0.38
  10  -1  -4   22.70    0.93
  10   1  -4   23.71    0.92
  10   1  -4   22.87    0.91
 -10   1   4   23.43    0.91
  -9  -1   4   26.89    0.86
  -9  -1   4   27.22    0.90
   9  -1  -4   27.53    0.97
   9   1  -4   29.37    0.97
  -9   1   4   27.22    0.97
  -9   1   4   27.81    0.92
   9   1  -4   29.07    0.97
  -8  -1   4   14.67    0.55
   8  -1  -4   13.06    0.60
  -8  -1   4   13.99    0.57
  -8   1   4   13.02    0.62
  -8   1   4   14.59    0.60
   8   1  -4   13.33    0.60
   8   1  -4   12.89    0.58
   7  -1  -4   49.37    1.46
  -7  -1   4   56.17    1.39
   7  -1  -4   57.62    1.44
  -7  -1   4   56.93    1.37
  -7   1   4   56.27    1.47
  -7   1   4   58.00    1.41
   7   1  -4   54.92    1.40
   7   1  -4   58.06    1.43
  -6  -1   4    0.94    0.18
   6  -1  -4    0.92    0.21
  -6  -1   4    0.95    0.16
   6  -1  -4    0.85    0.21
   6   1  -4    1.06    0.21
  -6   1   4    0.89    0.18
   6   1  -4    1.15    0.20
  -6   1   4    1.00    0.21
   5  -1  -4   23.08    0.68
  -5  -1   4   23.19    0.64
   5  -1  -4   23.15    0.71
  -5  -1   4   22.28    0.64
  -5   1   4   24.14    0.67
   5   1  -4   22.38    0.65
   5   1  -4   22.83    0.67
  -5   1   4   22.99    0.71
  -4  -1   4   12.94    0.42
   4  -1  -4   14.65    0.47
  -4  -1   4   13.70    0.43
   4  -1  -4   13.62    0.48
  -4   1   4   14.41    0.49
   4   1  -4   13.40    0.45
   4   1  -4   13.48    0.44
  -4   1   4   14.27    0.46
   3  -1  -4    8.01    0.33
  -3  -1   4    7.71    0.29
   3  -1  -4    7.89    0.32
  -3  -1   4    7.85    0.30
  -3   1   4    7.95    0.32
   3   1  -4    7.44    0.30
  -3   1   4    7.72    0.32
   3   1  -4    7.71    0.31
   2  -1  -4   25.47    0.65
   2  -1  -4   24.39    0.63
  -2  -1   4   25.25    0.63
  -2  -1   4   24.08    0.62
   2   1  -4   24.60    0.63
  -2   1   4   24.15    0.64
  -2   1   4   24.58    0.63
   2   1  -4   24.47    0.62
   2   1  -4   25.22    0.64
  -2   1   4   23.94    0.62
  -1  -1   4   29.23    0.70
   1  -1  -4   28.90    0.72
   1  -1  -4   28.53    0.70
  -1  -1   4   28.60    0.71
   1   1  -4   29.31    0.70
  -1   1   4   30.15    0.72
  -1   1   4   29.08    0.71
   1   1  -4   28.68    0.72
  -1   1   4   28.60    0.72
   0  -1  -4    6.39    0.24
   0  -1  -4    6.57    0.27
   0  -1  -4    6.61    0.25
   0  -1   4    6.80    0.27
   0  -1   4    6.74    0.25
   0   1   4    6.45    0.25
   0   1   4    7.08    0.27
   0   1  -4    6.80    0.27
   0   1   4    6.66    0.26
   0   1  -4    6.60    0.26
   1  -1   4   67.77    1.51
  -1  -1  -4   66.11    1.48
   1  -1   4   67.36    1.49
  -1  -1  -4   68.06    1.48
   1   1   4   67.69    1.50
  -1   1  -4   68.25    1.49
   1   1   4   67.20    1.48
   2  -1   4  126.49    2.66
  -2  -1  -4  124.28    2.64
   2   1   4  124.61    2.65
  -2   1  -4  122.83    2.66
  -3  -1  -4   13.72    0.44
   3  -1   4   13.31    0.42
  -3  -1  -4   13.31    0.41
  -3   1  -4   13.11    0.42
   3   1   4   13.21    0.42
  -4  -1  -4   23.97    0.67
   4  -1   4   23.13    0.66
  -4  -1  -4   23.15    0.63
   4   1   4   24.49    0.65
  -4   1  -4   23.51    0.66
  -5  -1  -4  128.95    2.78
  -5  -1  -4  130.28    2.84
   5  -1   4  130.76    2.82
   5   1   4  128.32    2.79
  -5   1  -4  126.00    2.81
  -5   1  -4  126.46    2.87
  -6  -1  -4    5.68    0.33
  -6  -1  -4    5.52    0.36
   6  -1   4    5.46    0.35
  -6   1  -4    4.79    0.36
  -6   1  -4    4.98    0.33
   6   1   4    4.81    0.31
   7  -1   4    1.14    0.23
  -7  -1  -4    0.96    0.19
  -7  -1  -4    0.85    0.21
  -7   1  -4    1.14    0.22
   7   1   4    0.86    0.20
  -7   1  -4    0.62    0.19
  -8  -1  -4   51.43    1.31
  -8  -1  -4   52.40    1.38
   8  -1   4   50.04    1.35
  -8   1  -4   48.41    1.39
   8   1   4   49.22    1.46
  -8   1  -4   51.23    1.37
   8   1   4   48.66    1.32
   9  -1   4   11.75    0.63
  -9  -1  -4   10.62    0.57
  -9   1  -4   10.30    0.62
   9   1   4   11.39    0.56
   9   1   4   11.20    0.69
  -9   1  -4   10.03    0.56
  10  -1   4    9.38    0.60
  10   1   4    9.54    0.62
 -10   1  -4    9.56    0.66
  10   1   4    8.37    0.69
  11  -1   4   22.39    0.96
 -11   1  -4   21.80    0.95
  11   1   4   21.71    1.05
  11   1   4   21.89    0.89
  12  -1   4    6.21    0.57
  12   1   4    7.18    0.66
 -12   1  -4    8.24    0.66
  12   1   4    8.03    0.63
  13  -1   4    0.20    0.37
  13   1   4   -0.05    0.35
  13   1   4    0.03    0.38
  14  -1   4    1.18    0.46
  14   1   4    0.74    0.48
  14   1   4    1.14    0.46
  15  -1   4    3.97    0.59
  15   1   4    4.34    0.60
  16  -1   4    0.60    0.44
  16   1   4    1.03    0.51
  17  -1   4    0.37    0.47
  17   1   4    0.26    0.48
  18  -1   4    0.23    0.52
  18   1   4    0.97    0.51
  18  -2  -4    1.67    0.58
  18   2  -4    1.00    0.52
  17  -2  -4    5.25    0.67
  17   2  -4    6.30    0.74
  16  -2  -4    0.31    0.48
  16   2  -4    0.60    0.45
  15  -2  -4    4.11    0.57
  15   2  -4    5.89    1.02
  15   2  -4    3.45    0.54
  14  -2  -4    0.18    0.40
  14   2  -4    0.25    0.44
  14   2  -4    0.16    0.38
  13  -2  -4   -0.44    0.35
  13   2  -4    0.92    0.41
  13   2  -4    0.05    0.38
  12  -2  -4    1.82    0.42
  12  -2  -4    2.61    0.46
  12   2  -4    2.05    0.44
 -12   2   4    2.62    0.45
  12   2  -4    2.68    0.48
  11  -2  -4    1.11    0.37
  11  -2  -4    1.11    0.36
 -11   2   4    3.19    0.47
  11   2  -4    1.29    0.34
  11   2  -4    2.43    0.42
  10  -2  -4   16.77    0.82
  10  -2  -4   17.83    0.87
  10   2  -4   22.47    0.84
 -10   2   4   17.89    0.84
  10   2  -4   17.99    0.77
 -10   2   4   16.73    0.84
   9  -2  -4   32.92    1.12
   9  -2  -4   29.88    1.03
  -9   2   4   30.36    0.99
   9   2  -4   32.01    1.00
   9   2  -4   29.94    0.98
  -9   2   4   31.08    1.08
   8  -2  -4    5.89    0.51
   8  -2  -4    6.44    0.45
  -8  -2   4    5.88    0.40
   8   2  -4    5.84    0.42
  -8   2   4    6.26    0.45
  -8   2   4    6.52    0.51
   8   2  -4    5.66    0.43
   7  -2  -4   16.83    0.65
  -7  -2   4   16.48    0.58
   7  -2  -4   16.50    0.71
  -7   2   4   16.49    0.60
   7   2  -4   16.83    0.62
   7   2  -4   16.15    0.59
  -7   2   4   17.56    0.70
  -6  -2   4    9.09    0.40
   6  -2  -4    9.26    0.46
   6  -2  -4    9.89    0.51
  -6   2   4    8.79    0.41
   6   2  -4    9.38    0.41
   6   2  -4    9.50    0.41
  -6   2   4    9.00    0.49
  -5  -2   4   25.86    0.70
   5  -2  -4   25.60    0.74
   5  -2  -4   26.94    0.83
  -5  -2   4   26.60    0.69
   5   2  -4   25.07    0.70
  -5   2   4   26.05    0.81
   5   2  -4   24.83    0.71
  -5   2   4   25.81    0.73
   4  -2  -4  200.56    4.30
   4  -2  -4  199.74    4.22
  -4  -2   4  203.14    4.18
  -4  -2   4  195.95    4.18
  -4   2   4  198.90    4.22
   4   2  -4  202.30    4.19
  -4   2   4  199.93    4.29
   4   2  -4  194.15    4.19
   3  -2  -4   13.66    0.48
  -3  -2   4   13.34    0.40
  -3  -2   4   13.58    0.40
   3  -2  -4   13.19    0.44
  -3   2   4   13.59    0.47
   3   2  -4   13.78    0.41
  -3   2   4   13.08    0.42
   3   2  -4   12.65    0.42
   2  -2  -4    0.25    0.11
  -2  -2   4    0.26    0.10
   2  -2  -4    0.07    0.11
  -2  -2   4    0.31    0.10
   2   2  -4    0.12    0.12
   2   2  -4    0.23    0.10
  -2   2   4    0.15    0.12
  -2   2   4    0.34    0.12
  -1  -2   4    2.17    0.17
   1  -2  -4    2.39    0.19
  -1  -2   4    2.17    0.18
   1  -2  -4    2.09    0.17
   1   2  -4    2.20    0.17
   1   2  -4    2.21    0.17
  -1   2   4    2.27    0.19
  -1   2   4    2.17    0.17
  -1   2   4    2.27    0.19
   0  -2  -4   49.12    1.09
   0  -2   4   49.25    1.11
   0  -2   4   49.50    1.12
   0   2  -4   49.24    1.12
   0   2   4   49.17    1.12
   0   2   4   48.99    1.11
   0   2   4   48.87    1.13
   1  -2   4    7.00    0.28
   1  -2   4    7.18    0.29
  -1  -2  -4    7.35    0.24
  -1  -2  -4    7.54    0.27
   1   2   4    7.24    0.28
   1   2   4    7.36    0.29
  -1   2  -4    7.02    0.28
   1   2   4    7.35    0.27
  -2  -2  -4    6.76    0.23
   2  -2   4    6.56    0.28
  -2  -2  -4    6.84    0.27
  -2  -2  -4    7.00    0.25
  -2   2  -4    6.86    0.28
   2   2   4    6.68    0.28
   3  -2   4   30.02    0.77
  -3  -2  -4   30.28    0.74
  -3  -2  -4   29.76    0.71
  -3  -2  -4   30.51    0.75
   3   2   4   31.09    0.76
  -3   2  -4   29.50    0.77
   4  -2   4   20.18    0.60
  -4  -2  -4   19.59    0.58
  -4  -2  -4   20.23    0.55
  -4   2  -4   19.96    0.60
   4   2   4   19.48    0.57
   5  -2   4   21.80    0.67
  -5  -2  -4   22.04    0.65
  -5  -2  -4   22.24    0.62
   5   2   4   21.97    0.64
  -5   2  -4   22.62    0.68
   5   2   4   22.51    0.72
  -6  -2  -4   22.24    0.76
   6  -2   4   21.12    0.71
  -6  -2  -4   20.66    0.63
   6   2   4   20.72    0.65
   6   2   4   20.73    0.75
  -6   2  -4   21.62    0.71
  -6   2  -4   20.91    0.73
  -7  -2  -4    7.02    0.38
   7  -2   4    7.36    0.44
  -7   2  -4    7.29    0.47
   7   2   4    7.20    0.42
  -7   2  -4    7.00    0.44
   7   2   4    6.24    0.49
  -8  -2  -4   -0.25    0.17
   8  -2   4   -0.11    0.25
   8   2   4   -0.24    0.23
   8   2   4    0.20    0.20
  -8   2  -4   -0.07    0.20
  -8   2  -4   -0.48    0.22
   9  -2   4    2.35    0.37
   9   2   4    2.24    0.31
  -9   2  -4    2.40    0.37
   9   2   4    2.89    0.44
  -9   2  -4    2.80    0.37
  10  -2   4   24.14    0.93
  10   2   4   23.05    1.02
  10   2   4   23.29    0.89
 -10   2  -4   24.05    0.98
  11  -2   4   14.27    0.78
 -11   2  -4   13.30    0.83
  11   2   4   14.15    0.72
  11   2   4   13.89    0.89
  12  -2   4    6.59    0.59
  12   2   4    5.96    0.56
  12   2   4    5.66    0.61
  13  -2   4    0.43    0.40
  13   2   4   -0.14    0.42
  13   2   4    0.08    0.39
  14  -2   4    0.49    0.40
  14   2   4    0.27    0.38
  14   2   4   -0.42    0.39
  15  -2   4    3.10    0.57
  15   2   4    2.70    0.54
  16  -2   4    1.77    0.55
  16   2   4    0.69    0.50
  17  -2   4    2.99    0.61
  17   2   4    1.71    0.54
  17  -3  -4    9.73    0.89
  17   3  -4    7.61    0.78
  16  -3  -4    3.71    0.65
  16   3  -4    4.59    0.66
  15  -3  -4    5.09    0.63
  15   3  -4    5.25    0.67
  15   3  -4    5.50    0.66
  14  -3  -4    0.34    0.45
  14   3  -4    0.06    0.41
  14   3  -4    0.48    0.40
  13  -3  -4   23.58    1.09
  13   3  -4   23.48    1.09
  13   3  -4   22.83    1.04
  12  -3  -4   14.67    0.82
  12   3  -4   15.81    0.85
  12   3  -4   16.96    0.88
  11  -3  -4    0.00    0.30
  11  -3  -4    0.11    0.31
 -11   3   4    0.17    0.29
  11   3  -4   -0.22    0.30
  11   3  -4    0.41    0.32
  10  -3  -4    0.17    0.28
  10  -3  -4    0.38    0.29
  10   3  -4    0.38    0.31
 -10   3   4   -0.11    0.27
 -10   3   4    0.81    0.31
  10   3  -4    1.02    0.29
   9  -3  -4   68.75    1.79
   9  -3  -4   70.56    1.88
  -9   3   4   65.03    1.76
   9   3  -4   68.56    1.75
   9   3  -4   67.68    1.73
  -9   3   4   69.57    1.88
   8  -3  -4   21.50    0.85
   8  -3  -4   21.58    0.77
  -8  -3   4   21.46    0.73
   8   3  -4   21.61    0.74
   8   3  -4   21.57    0.76
  -8   3   4   21.44    0.86
  -8   3   4   20.74    0.78
   7  -3  -4   26.09    0.81
  -7  -3   4   25.61    0.72
  -7  -3   4   24.91    0.77
   7  -3  -4   25.29    0.89
  -7   3   4   24.43    0.81
   7   3  -4   25.78    0.76
   7   3  -4   25.52    0.78
  -7   3   4   25.58    0.91
   6  -3  -4   34.97    0.95
  -6  -3   4   33.84    0.86
   6  -3  -4   32.66    1.02
  -6  -3   4   34.48    0.90
   6   3  -4   34.59    0.89
   6   3  -4   33.21    0.91
  -6   3   4   32.76    1.04
  -6   3   4   32.73    0.93
   5  -3  -4   20.45    0.64
  -5  -3   4   20.44    0.59
  -5  -3   4   20.15    0.57
   5  -3  -4   20.39    0.70
  -5   3   4   20.15    0.63
   5   3  -4   19.88    0.58
   5   3  -4   20.51    0.61
  -5   3   4   20.36    0.73
  -4  -3   4    8.31    0.31
   4  -3  -4    7.98    0.39
  -4  -3   4    8.11    0.31
   4  -3  -4    7.83    0.38
   4   3  -4    7.81    0.32
  -4   3   4    8.01    0.36
  -4   3   4    7.93    0.43
   4   3  -4    8.61    0.35
   3  -3  -4   88.14    2.04
  -3  -3   4   91.06    1.96
   3  -3  -4   92.04    2.03
   3   3  -4   92.25    2.01
  -3   3   4   93.82    2.02
  -3   3   4   91.65    2.09
   2  -3  -4  108.54    2.32
   2  -3  -4  101.84    2.29
  -2  -3   4  106.23    2.27
  -2   3   4  108.12    2.32
  -2   3   4  107.76    2.36
   2   3  -4  109.09    2.29
   2   3  -4  107.84    2.31
  -1  -3   4    0.04    0.06
  -1  -3   4    0.34    0.10
   1  -3  -4    0.46    0.12
   1   3  -4    0.55    0.12
   1   3  -4    0.33    0.13
  -1   3   4    0.36    0.13
  -1   3   4    0.39    0.13
  -1   3   4    0.31    0.12
   0  -3   4   67.27    1.49
   0  -3   4   66.75    1.47
   0   3  -4   67.14    1.50
   0   3   4   69.00    1.51
   0   3   4   68.07    1.49
   0   3   4   66.55    1.49
   1  -3   4  125.48    2.66
   1  -3   4  124.63    2.65
   1   3   4  124.02    2.66
  -1   3  -4  125.03    2.66
   1   3   4  122.27    2.63
   1   3   4  126.06    2.64
   2  -3   4   40.81    0.98
  -2  -3  -4   40.33    0.92
  -2   3  -4   41.25    0.98
   2   3   4   40.43    0.95
   2   3   4   40.35    0.94
  -3  -3  -4    1.96    0.16
   3  -3   4    1.59    0.18
   3   3   4    1.77    0.17
  -3   3  -4    1.58    0.17
   4  -3   4   68.10    1.58
  -4  -3  -4   66.70    1.49
   4   3   4   66.18    1.52
  -4   3  -4   66.23    1.57
   4   3   4   68.05    1.58
   5  -3   4  125.42    2.80
  -5  -3  -4  125.62    2.69
  -5   3  -4  126.28    2.79
   5   3   4  125.68    2.81
   5   3   4  124.66    2.72
  -6  -3  -4   10.03    0.40
   6  -3   4   11.41    0.54
  -6   3  -4   10.64    0.51
   6   3   4   10.22    0.44
   6   3   4   10.06    0.53
  -6   3  -4   10.75    0.56
   7  -3   4    3.77    0.36
  -7  -3  -4    4.10    0.31
  -7   3  -4    3.88    0.37
   7   3   4    3.89    0.31
   7   3   4    3.10    0.35
  -7   3  -4    3.86    0.35
   8  -3   4   71.83    1.85
  -8  -3  -4   71.32    1.68
  -8   3  -4   69.98    1.86
   8   3   4   70.31    1.89
  -8   3  -4   70.81    1.82
   8   3   4   72.99    1.74
   9  -3   4   30.87    1.08
   9   3   4   31.60    0.98
   9   3   4   33.13    1.15
  -9   3  -4   29.30    1.03
  -9   3  -4   31.63    1.09
  10  -3   4    4.63    0.47
 -10   3  -4    5.71    0.56
  10   3   4    5.06    0.54
  10   3   4    4.21    0.41
  11  -3   4   26.72    1.06
  11   3   4   24.35    0.97
  11   3   4   25.25    1.12
 -11   3  -4   25.67    1.09
  12  -3   4   19.55    0.96
  12   3   4   19.39    1.04
  12   3   4   18.79    0.89
  13  -3   4    0.42    0.41
  13   3   4   -0.38    0.40
  13   3   4    0.06    0.36
  14  -3   4    6.30    0.65
  14   3   4    7.33    0.81
  14   3   4    6.11    0.63
  15  -3   4   14.67    0.99
  15   3   4   13.84    1.08
  15   3   4   14.75    0.95
  16  -3   4    2.63    0.59
  16   3   4    2.44    0.55
  17  -3   4    0.21    0.52
  17   3   4    0.53    0.48
  16  -4  -4    1.00    0.56
  16   4  -4    0.23    0.48
  15  -4  -4    0.10    0.43
  15   4  -4   -0.34    0.43
  15   4  -4    0.18    0.49
  14  -4  -4    4.08    0.57
  14   4  -4    4.85    0.59
  14   4  -4    4.53    0.57
  13  -4  -4    2.22    0.51
  13   4  -4    2.95    0.49
  13   4  -4    2.11    0.46
  12  -4  -4   14.27    0.86
  12   4  -4   14.99    0.86
  12   4  -4   13.97    0.80
  11  -4  -4   17.70    0.88
  11   4  -4   17.11    0.82
  11   4  -4   17.68    0.85
 -11   4   4   17.85    0.91
  10  -4  -4    0.46    0.29
 -10  -4   4    0.34    0.23
 -10   4   4    0.52    0.35
  10   4  -4    0.76    0.31
 -10   4   4    0.23    0.27
  10   4  -4    0.21    0.29
   9  -4  -4   -0.01    0.24
  -9  -4   4    0.32    0.20
  -9   4   4    0.20    0.24
   9   4  -4    0.41    0.24
  -9   4   4    0.39    0.32
   9   4  -4    0.03    0.26
  -8  -4   4   19.25    0.60
  -8  -4   4   19.84    0.67
   8  -4  -4   18.87    0.74
  -8   4   4   18.72    0.86
   8   4  -4   19.72    0.70
   8   4  -4   19.20    0.68
  -8   4   4   18.39    0.75
  -7  -4   4   48.30    1.20
   7  -4  -4   47.65    1.26
  -7  -4   4   42.77    1.11
   7   4  -4   47.62    1.21
  -7   4   4   46.77    1.40
  -7   4   4   46.66    1.28
   7   4  -4   48.16    1.19
  -6  -4   4    0.41    0.16
  -6  -4   4   -0.01    0.07
   6  -4  -4    0.69    0.22
   6   4  -4    0.48    0.19
   6   4  -4    0.25    0.17
  -6   4   4    0.32    0.21
  -6   4   4    0.59    0.26
  -5  -4   4   10.12    0.39
   5  -4  -4   10.53    0.45
  -5  -4   4   10.10    0.35
   5   4  -4   10.67    0.43
   5   4  -4   10.40    0.39
  -5   4   4    9.54    0.56
  -5   4   4    9.72    0.46
  -4  -4   4   27.85    0.67
  -4  -4   4   27.42    0.69
   4  -4  -4   28.24    0.77
  -4   4   4   26.88    0.77
  -4   4   4   27.43    0.88
   4   4  -4   27.03    0.73
   3  -4  -4   15.33    0.50
  -3  -4   4   15.74    0.41
  -3  -4   4   15.74    0.42
  -3   4   4   14.97    0.59
   3   4  -4   15.48    0.46
   3   4  -4   14.66    0.48
  -3   4   4   15.95    0.51
   2  -4  -4   16.12    0.48
  -2  -4   4   15.86    0.42
  -2  -4   4   15.91    0.42
  -2   4   4   16.99    0.51
   2   4  -4   16.70    0.50
   2   4  -4   16.00    0.46
  -2   4   4   16.02    0.55
  -1  -4   4   74.30    1.61
  -1  -4   4   76.47    1.62
  -1   4   4   76.13    1.68
  -1   4   4   76.76    1.71
   1   4  -4   74.91    1.65
  -1   4   4   74.61    1.67
   0  -4   4   28.02    0.67
   0  -4   4   28.70    0.68
   0   4   4   27.35    0.71
   0   4   4   27.51    0.70
   0   4   4   27.59    0.70
   0   4  -4   26.96    0.70
   1  -4   4   15.95    0.46
   1   4   4   15.88    0.47
   1   4   4   16.23    0.47
   1   4   4   15.83    0.45
  -1   4  -4   16.72    0.49
   2  -4   4   20.00    0.57
   2  -4   4   17.80    0.54
  -2   4  -4   19.03    0.56
   2   4   4   18.77    0.52
   2   4   4   18.50    0.50
   2   4   4   18.86    0.54
   3  -4   4   19.48    0.62
  -3   4  -4   19.10    0.58
   3   4   4   19.31    0.54
   4  -4   4    7.89    0.43
  -4  -4  -4    7.89    0.28
   4   4   4    7.84    0.38
   4   4   4    7.51    0.34
  -4   4  -4    7.39    0.38
  -5  -4  -4    3.75    0.23
   5  -4   4    3.28    0.31
   5   4   4    3.64    0.34
  -5   4  -4    3.40    0.29
   5   4   4    3.40    0.25
   6  -4   4    9.15    0.52
  -6  -4  -4    9.76    0.37
   6   4   4    8.87    0.51
  -6   4  -4   10.18    0.51
   6   4   4    9.49    0.43
   7  -4   4   24.06    0.86
  -7  -4  -4   23.68    0.66
  -7   4  -4   23.91    0.84
   7   4   4   23.31    0.86
  -7   4  -4   22.16    0.87
   7   4   4   23.20    0.74
   8  -4   4    2.15    0.36
  -8   4  -4    1.94    0.35
   8   4   4    1.50    0.33
   8   4   4    1.79    0.28
  -8   4  -4    1.62    0.31
   9  -4   4   50.48    1.48
   9   4   4   48.16    1.35
   9   4   4   51.17    1.54
  -9   4  -4   51.21    1.49
  -9   4  -4   50.76    1.53
  10  -4   4    7.64    0.58
 -10   4  -4    5.60    0.54
  10   4   4    6.19    0.58
  10   4   4    5.69    0.47
 -10   4  -4    6.13    0.55
  11  -4   4    0.46    0.35
  11   4   4   -0.02    0.30
  11   4   4   -0.18    0.35
 -11   4  -4   -0.22    0.31
  12  -4   4    1.13    0.41
  12   4   4    0.85    0.41
  12   4   4    1.33    0.39
  13  -4   4   14.79    0.85
  13   4   4   14.52    0.86
  13   4   4   14.64    1.00
  14  -4   4    3.80    0.57
  14   4   4    3.43    0.64
  14   4   4    2.92    0.51
  15  -4   4    4.79    0.60
  15   4   4    6.30    0.66
  15   4   4    4.75    0.68
  16  -4   4    0.75    0.52
  16   4   4   -0.13    0.43
  15  -5  -4    0.53    0.59
  15   5  -4    0.87    0.50
  15   5  -4    0.09    0.46
  14  -5  -4    0.22    0.44
  14   5  -4    0.25    0.46
  14   5  -4   -0.41    0.39
  13  -5  -4    1.87    0.51
  13   5  -4    0.85    0.42
  13   5  -4    1.32    0.44
  12  -5  -4   -0.54    0.35
  12   5  -4   -0.17    0.35
  12   5  -4    0.55    0.37
  11  -5  -4   -0.10    0.33
 -11   5   4    0.19    0.40
  11   5  -4    0.13    0.33
 -10  -5   4   -0.05    0.07
  10  -5  -4    0.21    0.32
  10   5  -4    0.13    0.29
 -10   5   4    0.43    0.33
  10   5  -4    0.46    0.30
 -10   5   4    0.39    0.32
  -9  -5   4   -0.03    0.16
   9  -5  -4   -0.08    0.28
  -9   5   4    0.46    0.33
   9   5  -4   -0.05    0.25
   9   5  -4    0.15    0.26
  -9   5   4    0.14    0.30
  -8  -5   4   15.33    0.49
  -8  -5   4   13.32    0.50
   8  -5  -4   16.42    0.68
  -8   5   4   17.45    0.75
   8   5  -4   17.35    0.64
   8   5  -4   15.18    0.63
  -8   5   4   15.35    0.82
   7  -5  -4    5.36    0.44
  -7  -5   4    4.05    0.27
  -7  -5   4    4.81    0.26
   7   5  -4    4.45    0.33
  -7   5   4    5.93    0.48
  -7   5   4    4.67    0.46
   7   5  -4    5.54    0.39
  -6  -5   4    2.39    0.19
   6  -5  -4    2.72    0.29
  -6  -5   4    2.54    0.18
   6   5  -4    2.53    0.24
  -6   5   4    2.52    0.31
   6   5  -4    2.35    0.25
  -6   5   4    2.22    0.35
   5  -5  -4    2.09    0.25
  -5  -5   4    1.64    0.13
  -5  -5   4    1.94    0.12
  -5   5   4    1.82    0.27
   5   5  -4    2.05    0.20
   5   5  -4    2.10    0.23
  -5   5   4    2.04    0.33
   4  -5  -4   -0.04    0.17
  -4   5   4    0.05    0.18
   4   5  -4   -0.17    0.16
  -4   5   4   -0.21    0.21
   3   5  -4    1.27    0.18
  -3   5   4    1.71    0.27
  -3   5   4    1.55    0.20
   2  -5  -4    5.02    0.27
   2   5  -4    5.28    0.26
  -2   5   4    5.55    0.30
  -2   5   4    4.95    0.38
   2   5  -4    5.15    0.30
  -1   5   4    0.15    0.14
   1   5  -4    0.04    0.12
  -1   5   4   -0.40    0.15
  -1   5   4   -0.04    0.13
   0  -5   4    1.36    0.10
   0  -5   4    1.34    0.12
   0   5   4    1.85    0.19
   0   5   4    1.62    0.17
   0   5   4    1.32    0.17
   0   5  -4    1.33    0.16
   1  -5   4    2.35    0.18
   1  -5   4    2.38    0.19
   1   5   4    2.23    0.18
   1   5   4    2.33    0.18
  -1   5  -4    2.59    0.21
   1   5   4    2.28    0.19
   2  -5   4    0.52    0.15
   2  -5   4    0.53    0.14
   2   5   4    0.67    0.14
   2   5   4    0.54    0.14
  -2   5  -4    0.61    0.16
   2   5   4    0.68    0.12
   3  -5   4    0.04    0.15
   3  -5   4    0.04    0.07
  -3   5  -4    0.02    0.15
   3   5   4   -0.05    0.13
   3   5   4    0.08    0.13
   3   5   4    0.16    0.11
   4  -5   4   -0.02    0.18
  -4   5  -4    0.03    0.17
   4   5   4    0.07    0.15
   4   5   4    0.10    0.16
   5  -5   4    0.61    0.22
   5   5   4    0.56    0.20
   5   5   4    0.94    0.18
  -5   5  -4    0.88    0.22
   6  -5   4    4.29    0.38
  -6  -5  -4    4.47    0.21
   6   5   4    4.42    0.37
   6   5   4    4.19    0.34
  -6   5  -4    4.27    0.37
   7  -5   4    2.21    0.34
  -7  -5  -4    2.28    0.18
  -7   5  -4    2.11    0.33
  -7   5  -4    1.93    0.37
   7   5   4    1.93    0.26
   7   5   4    1.92    0.33
  -8  -5  -4    0.03    0.15
   8  -5   4    0.24    0.28
  -8   5  -4   -0.63    0.26
   8   5   4    0.12    0.23
   8   5   4   -0.29    0.27
  -8   5  -4   -0.05    0.26
   9  -5   4    0.18    0.29
  -9   5  -4    0.43    0.33
   9   5   4    0.28    0.32
   9   5   4    0.27    0.26
  -9   5  -4    0.55    0.31
  10  -5   4    0.36    0.33
 -10   5  -4   -0.26    0.32
  10   5   4    0.13    0.29
  10   5   4   -0.25    0.33
 -10   5  -4    0.01    0.32
  11  -5   4    0.65    0.37
  11   5   4   -0.30    0.35
  11   5   4    0.41    0.32
  12  -5   4    0.78    0.40
  12   5   4    0.25    0.35
  12   5   4   -0.36    0.39
  13  -5   4    0.63    0.43
  13   5   4    0.38    0.46
  13   5   4    1.06    0.41
  14  -5   4    0.76    0.46
  14   5   4    2.15    0.47
  14   5   4    0.49    0.47
  15  -5   4    1.56    0.80
  15   5   4   -0.49    0.47
  15   5   4    0.52    0.43
  14   6  -4    6.48    0.73
  14   6  -4    5.09    0.62
  13   6  -4    2.40    0.48
  13   6  -4    3.16    0.54
  12   6  -4    4.06    0.53
  12   6  -4    3.18    0.47
  11  -6  -4    6.98    0.68
  11   6  -4    8.40    0.69
  11   6  -4    6.91    0.55
  10  -6  -4    1.94    0.40
  10   6  -4    2.80    0.38
  10   6  -4    2.72    0.39
 -10   6   4    3.04    0.52
   9  -6  -4   -0.11    0.28
  -9  -6   4    0.15    0.09
  -9   6   4    0.46    0.32
   9   6  -4   -0.05    0.25
   9   6  -4    0.43    0.26
   8  -6  -4    6.21    0.50
  -8   6   4    5.08    0.51
  -8   6   4    6.24    0.52
   8   6  -4    6.38    0.45
   8   6  -4    6.20    0.46
   7  -6  -4   51.15    1.32
   7   6  -4   48.42    1.25
  -7   6   4   48.14    1.40
   7   6  -4   49.14    1.24
  -7   6   4   49.83    1.52
   6  -6  -4    2.18    0.27
  -6   6   4    1.61    0.35
  -6   6   4    1.64    0.31
   6   6  -4    1.56    0.22
   6   6  -4    1.73    0.24
   5  -6  -4   18.73    0.65
  -5   6   4   23.63    0.77
   5   6  -4   23.66    0.67
  -5   6   4   22.21    0.88
   4  -6  -4   32.77    0.85
   4   6  -4   31.74    0.84
  -4   6   4   31.27    1.04
  -4   6   4   33.55    0.94
   3  -6  -4   36.46    0.87
   3   6  -4   36.42    0.90
  -3   6   4   35.77    0.96
  -3   6   4   34.22    1.06
  -2   6   4    6.99    0.46
   2   6  -4    7.17    0.32
  -2   6   4    8.06    0.38
  -1   6   4   36.31    0.90
   1   6  -4   34.99    0.87
  -1   6   4   35.71    0.90
  -1   6   4   35.93    0.97
   0   6  -4   42.22    1.00
   0   6   4   40.68    0.99
   0   6   4   39.95    0.98
   0   6   4   40.77    1.02
   1   6   4    0.11    0.14
   1   6   4    0.04    0.14
   1   6   4   -0.08    0.14
  -1   6  -4    0.06    0.15
   2  -6   4    7.12    0.26
   2  -6   4    7.16    0.26
   2   6   4    7.41    0.32
   2   6   4    6.96    0.30
  -2   6  -4    6.93    0.36
   2   6   4    6.89    0.32
   3  -6   4   30.56    0.77
   3  -6   4   29.19    0.78
  -3   6  -4   30.30    0.84
   3   6   4   30.64    0.77
   3   6   4   30.56    0.76
   3   6   4   29.40    0.73
   4  -6   4    3.89    0.29
   4  -6   4    3.96    0.29
   4   6   4    4.02    0.30
   4   6   4    4.34    0.28
  -4   6  -4    3.98    0.32
   4   6   4    3.86    0.32
   5  -6   4    1.47    0.25
   5   6   4    2.00    0.25
  -5   6  -4    1.29    0.26
   5   6   4    1.09    0.19
   6  -6   4   10.57    0.55
  -6   6  -4   10.66    0.56
   6   6   4   10.91    0.55
  -6   6  -4   11.84    0.68
   6   6   4   11.00    0.46
   7  -6   4   29.01    0.95
  -7   6  -4   27.36    0.97
   7   6   4   26.93    0.95
  -7   6  -4   28.74    1.06
   7   6   4   28.57    0.84
   8  -6   4    3.54    0.40
   8   6   4    3.04    0.41
  -8   6  -4    3.73    0.45
   8   6   4    3.36    0.32
  -8   6  -4    2.46    0.39
   9  -6   4   14.74    0.73
  -9  -6  -4   12.87    0.36
   9   6   4   13.66    0.78
  -9   6  -4   14.11    0.84
   9   6   4   14.07    0.65
  10  -6   4    6.23    0.55
  10   6   4    6.00    0.49
 -10   6  -4    5.18    0.57
  10   6   4    6.22    0.61
  11  -6   4    2.25    0.58
  11   6   4    2.06    0.39
  11   6   4    1.54    0.46
  12   6   4    0.58    0.37
  12   6   4   -0.49    0.39
  13   6   4    5.68    0.71
  13   6   4    5.41    0.56
  14   6   4    5.41    0.73
  14   6   4    7.10    0.63
  13   7  -4    2.89    0.55
  13   7  -4    1.63    0.46
  12   7  -4    1.01    0.40
  12   7  -4    2.15    0.48
  11   7  -4    4.64    0.51
  11   7  -4    3.10    0.42
 -10   7   4    7.13    0.86
  10   7  -4    5.49    0.49
  10   7  -4    5.77    0.46
   9   7  -4    6.56    0.54
  -9   7   4    6.27    0.62
   9   7  -4    6.15    0.51
  -8   7   4    1.82    0.43
   8   7  -4    1.63    0.29
   8   7  -4    1.61    0.28
  -7   7   4    3.58    0.49
   7   7  -4    3.66    0.31
   7   7  -4    3.90    0.31
   6   7  -4    3.04    0.27
  -6   7   4    3.20    0.45
   6   7  -4    3.60    0.33
   5  -7  -4   23.62    0.72
  -5   7   4   23.49    0.96
   5   7  -4   23.06    0.68
  -4   7   4    0.86    0.27
  -4   7   4    0.77    0.31
  -3   7   4   11.66    0.53
  -3   7   4   10.95    0.63
  -2   7   4   14.53    0.54
  -2   7   4   13.73    0.64
   2   7  -4   15.04    0.45
   1   7  -4    2.34    0.20
  -1   7   4    2.35    0.23
  -1   7   4    2.17    0.23
  -1   7   4    1.87    0.28
   0   7   4    1.62    0.24
   0   7  -4    1.60    0.19
   0   7   4    1.44    0.19
   0   7   4    1.68    0.20
  -1   7  -4   16.25    0.52
   1   7   4   15.75    0.48
   1   7   4   15.48    0.48
   1   7   4   16.03    0.51
   2   7   4    3.11    0.21
   2   7   4    2.84    0.21
  -2   7  -4    3.03    0.26
   2   7   4    2.99    0.26
   3   7   4    7.79    0.34
  -3   7  -4    8.72    0.43
   3   7   4    8.56    0.35
   3   7   4    8.24    0.33
   4  -7   4   13.99    0.45
   4  -7   4   14.01    0.45
   4   7   4   14.38    0.47
   4   7   4   13.69    0.45
  -4   7  -4   13.34    0.69
   5  -7   4    9.51    0.51
   5   7   4    9.10    0.40
   5   7   4   10.20    0.42
   5   7   4    9.76    0.48
   6   7   4    0.62    0.24
  -6   7  -4    0.89    0.35
   6   7   4    0.66    0.20
  -7   7  -4    8.55    0.69
   7   7   4    8.38    0.58
   7   7   4    8.71    0.47
   8   7   4    6.50    0.53
  -8   7  -4    7.02    0.62
   8   7   4    6.64    0.49
  -9   7  -4   12.72    0.88
   9   7   4   13.25    0.66
   9   7   4   13.21    0.79
  10   7   4    0.64    0.32
  10   7   4    0.02    0.37
  11   7   4    9.84    0.66
  11   7   4    6.98    0.70
  12   7   4    2.53    0.55
  12   7   4    2.84    0.45
  13   7   4    1.22    0.39
  13   7   4   -0.20    0.46
  11   8  -4    0.26    0.38
  11   8  -4    0.02    0.32
  10   8  -4    1.49    0.38
  10   8  -4    1.25    0.33
  -9   8   4    4.07    0.57
   9   8  -4    3.52    0.36
   9   8  -4    4.38    0.42
   8   8  -4    1.12    0.30
   8   8  -4    1.07    0.26
  -8   8   4    1.69    0.47
  -7   8   4    1.09    0.43
   7   8  -4    0.91    0.26
   7   8  -4    0.87    0.23
   6   8  -4    0.73    0.22
   6   8  -4    0.66    0.21
  -6   8   4    0.51    0.38
  -5   8   4   -0.21    0.32
  -4   8   4    1.20    0.37
  -3   8   4   -0.34    0.28
  -2   8   4    0.14    0.28
  -2   8   4    0.13    0.21
  -1   8   4    0.07    0.19
  -1   8   4   -0.14    0.24
   0   8   4    4.76    0.41
   0   8   4    5.34    0.31
   1   8   4    0.24    0.15
   1   8   4    0.11    0.18
   2   8   4    0.01    0.16
   2   8   4    0.06    0.13
   3   8   4   -0.05    0.12
   3   8   4    0.15    0.16
   4   8   4    0.06    0.14
   5   8   4    0.08    0.16
   6   8   4    0.26    0.19
  -6   8  -4    0.18    0.34
   7   8   4    1.62    0.26
  -7   8  -4    1.71    0.42
   7   8   4    1.44    0.33
  -8   8  -4    0.06    0.37
   8   8   4   -0.06    0.30
   8   8   4    0.75    0.26
  -9   8  -4    0.06    0.42
   9   8   4    0.22    0.35
   9   8   4    0.61    0.27
  10   8   4    0.64    0.29
  10   8   4    0.00    0.37
  -8   9   4    1.20    0.47
   8   9  -4    0.54    0.29
   7   9  -4    0.55    0.26
  -7   9   4    0.72    0.44
   6   9  -4    3.25    0.31
  -6   9   4    2.78    0.51
  -5   9   4    3.21    0.50
  -4   9   4   -0.04    0.35
  -3   9   4    9.66    0.71
  -3   9   4   10.15    0.52
  -2   9   4    2.33    0.28
  -2   9   4    2.11    0.38
  -1   9   4    0.89    0.21
  -1   9   4    0.88    0.30
   0   9   4    1.28    0.19
   0   9   4    0.92    0.26
   1   9   4    5.65    0.41
   2   9   4    8.62    0.42
   3   9   4    0.23    0.19
  -5   9  -4    5.57    0.55
  -6   9  -4    1.57    0.43
  -7   9  -4    0.52    0.40
  -8   9  -4    0.75    0.44
  -2  10   4   -0.26    0.31
  -1  10   4    4.73    0.43
   0  10   4    5.46    0.49
   1  10   4    0.40    0.24
   2  10   4    2.89    0.28
  18   0  -5    0.15    0.49
  17   0  -5    0.20    0.48
  16   0  -5   -0.28    0.43
  15   0  -5   -0.10    0.41
  14   0  -5   -0.05    0.38
  13   0  -5    0.09    0.36
  13   0  -5   -0.22    0.36
 -12   0   5   -0.07    0.28
  12   0  -5    0.26    0.33
  12   0  -5   -0.14    0.37
 -11   0   5    0.21    0.26
  11   0  -5    0.18    0.35
  11   0  -5    0.45    0.30
  10   0  -5   -0.33    0.28
 -10   0   5   -0.21    0.24
  10   0  -5    0.07    0.25
   9   0  -5   -0.10    0.26
  -9   0   5   -0.25    0.20
  -9   0   5    0.17    0.26
   9   0  -5   -0.12    0.27
  -8   0   5    0.11    0.19
  -8   0   5    0.08    0.19
   8   0  -5    0.17    0.20
   8   0  -5   -0.06    0.24
   7   0  -5    0.27    0.19
   6   0  -5    0.06    0.17
  -6   0   5    0.09    0.16
   6   0  -5    0.21    0.18
  -6   0   5   -0.03    0.14
  -5   0   5   -0.04    0.12
   5   0  -5   -0.03    0.15
   5   0  -5    0.08    0.15
  -5   0   5   -0.14    0.14
  -4   0   5   -0.06    0.11
  -4   0   5   -0.07    0.11
   4   0  -5    0.14    0.14
   4   0  -5   -0.01    0.11
  -3   0   5   -0.15    0.10
   3   0  -5    0.02    0.10
   3   0  -5    0.03    0.13
  -3   0   5    0.03    0.11
  -3   0   5    0.03    0.12
   2   0  -5   -0.01    0.10
  -2   0   5    0.00    0.11
  -2   0   5    0.07    0.11
   2   0  -5    0.00    0.12
  -2   0   5   -0.13    0.09
   1   0  -5   -0.05    0.10
  -1   0   5   -0.05    0.12
   1   0  -5   -0.03    0.09
   1   0  -5   -0.12    0.12
  -1   0   5   -0.05    0.11
   0   0  -5   -0.09    0.09
   0   0   5    0.00    0.11
   0   0  -5    0.01    0.12
   0   0   5    0.01    0.12
   1   0   5    0.04    0.12
  -1   0  -5    0.10    0.10
   1   0   5   -0.15    0.11
   2   0   5   -0.18    0.12
  -2   0  -5   -0.10    0.11
   3   0   5   -0.13    0.13
  -3   0  -5   -0.03    0.11
  -4   0  -5   -0.12    0.12
   4   0   5    0.03    0.15
  -5   0  -5   -0.17    0.15
   5   0   5   -0.13    0.17
  -5   0  -5   -0.04    0.14
   6   0   5    0.18    0.19
  -6   0  -5    0.53    0.18
  -6   0  -5    0.14    0.17
   7   0   5   -0.08    0.18
  -7   0  -5   -0.05    0.17
  -7   0  -5    0.01    0.15
  -8   0  -5    0.02    0.23
   8   0   5   -0.02    0.21
  -8   0  -5    0.02    0.20
  -9   0  -5    0.00    0.24
   9   0   5    0.03    0.27
 -10   0  -5    0.17    0.28
  10   0   5    0.10    0.27
 -11   0  -5    0.19    0.27
  11   0   5   -0.27    0.32
  12   0   5    0.26    0.33
  13   0   5   -0.08    0.36
  14   0   5    0.20    0.45
  15   0   5    0.39    0.48
  16   0   5    0.45    0.50
  17   0   5    0.58    0.53
  18  -1  -5    1.10    0.57
  18   1  -5    0.65    0.49
  17  -1  -5    8.48    0.82
  17   1  -5    9.52    0.84
  16  -1  -5    2.06    0.58
  16   1  -5    1.73    0.54
  15  -1  -5    8.32    0.75
  15   1  -5   10.13    0.82
  14  -1  -5    0.53    0.45
  14   1  -5    0.06    0.43
  14   1  -5    0.27    0.41
  13  -1  -5   10.19    0.82
  13   1  -5   10.76    0.82
  13   1  -5    9.30    0.72
  12  -1  -5    9.82    0.73
  12  -1  -5   10.81    0.73
 -12   1   5   11.94    0.75
  12   1  -5   11.51    0.78
  12   1  -5   11.45    0.73
  11  -1  -5   52.09    1.69
  11  -1  -5   59.10    1.68
  11   1  -5   58.86    1.70
  11   1  -5   60.16    1.67
 -11   1   5   61.59    1.70
  10  -1  -5   27.79    1.10
  10  -1  -5   34.35    1.12
  10   1  -5   34.41    1.11
 -10   1   5   33.71    1.13
  10   1  -5   35.29    1.14
  -9  -1   5    4.37    0.38
   9  -1  -5    4.45    0.46
   9  -1  -5    3.84    0.40
  -9   1   5    4.53    0.44
   9   1  -5    3.44    0.38
   9   1  -5    4.46    0.44
  -9   1   5    4.19    0.39
   8  -1  -5    8.92    0.55
   8  -1  -5    7.93    0.52
  -8  -1   5    8.80    0.45
  -8  -1   5    9.99    0.47
  -8   1   5    9.21    0.47
  -8   1   5    8.31    0.52
   8   1  -5    8.43    0.51
   8   1  -5    9.15    0.54
  -7  -1   5   72.77    1.70
  -7  -1   5   70.00    1.69
   7  -1  -5   69.25    1.79
   7  -1  -5   72.76    1.76
  -7   1   5   73.84    1.73
   7   1  -5   70.93    1.73
   7   1  -5   72.39    1.75
  -7   1   5   70.93    1.79
   6  -1  -5  147.38    3.33
  -6  -1   5  154.14    3.29
   6  -1  -5  150.01    3.37
  -6  -1   5  153.95    3.29
   6   1  -5  150.29    3.31
   6   1  -5  150.04    3.32
  -6   1   5  154.47    3.38
  -6   1   5  152.56    3.31
  -5  -1   5   10.11    0.39
   5  -1  -5    9.67    0.42
  -5  -1   5    9.43    0.39
   5  -1  -5    9.94    0.44
   5   1  -5    9.95    0.43
  -5   1   5    9.69    0.42
   5   1  -5    9.80    0.41
  -5   1   5   10.52    0.45
   4  -1  -5   77.53    1.81
   4  -1  -5   80.70    1.82
  -4  -1   5   79.89    1.78
  -4  -1   5   79.43    1.78
  -4   1   5   78.86    1.79
   4   1  -5   78.41    1.79
  -4   1   5   79.61    1.82
   3  -1  -5   17.48    0.55
  -3  -1   5   17.99    0.52
   3  -1  -5   17.55    0.54
  -3  -1   5   18.08    0.52
   3   1  -5   17.59    0.53
  -3   1   5   17.89    0.55
  -3   1   5   19.18    0.55
   3   1  -5   17.83    0.55
   2  -1  -5   47.86    1.13
   2  -1  -5   48.08    1.15
  -2  -1   5   47.27    1.12
  -2  -1   5   48.05    1.13
  -2   1   5   47.52    1.14
  -2   1   5   48.36    1.14
   2   1  -5   47.58    1.14
  -2   1   5   47.73    1.12
   2   1  -5   48.25    1.12
   2   1  -5   47.93    1.13
   1  -1  -5   28.24    0.73
  -1  -1   5   27.93    0.71
   1  -1  -5   27.23    0.71
   1  -1  -5   27.84    0.70
  -1  -1   5   27.99    0.72
   1   1  -5   27.97    0.71
  -1   1   5   28.00    0.72
  -1   1   5   28.26    0.73
  -1   1   5   26.53    0.71
   0  -1  -5  176.06    3.69
   0  -1   5  176.20    3.69
   0  -1  -5  173.15    3.71
   0  -1  -5  179.31    3.68
   0   1   5  177.66    3.69
   0   1  -5  171.23    3.71
   0   1   5  173.97    3.70
   0   1  -5  173.37    3.69
  -1  -1  -5   13.08    0.40
  -1  -1  -5   12.48    0.40
   1  -1   5   12.15    0.42
   1  -1   5   12.47    0.42
   1   1   5   11.75    0.40
  -1   1  -5   13.07    0.41
   1   1   5   12.74    0.43
   2  -1   5   27.09    0.71
  -2  -1  -5   26.79    0.69
  -2   1  -5   25.99    0.69
   2   1   5   25.62    0.69
   3  -1   5   33.22    0.85
  -3  -1  -5   32.71    0.83
   3   1   5   33.06    0.84
  -3   1  -5   32.85    0.85
   4  -1   5  139.53    2.98
  -4  -1  -5  137.81    2.96
  -4  -1  -5  134.44    3.00
   4   1   5  139.24    2.97
  -4   1  -5  135.17    2.97
  -5  -1  -5   55.09    1.35
   5  -1   5   53.34    1.32
  -5  -1  -5   51.98    1.28
   5   1   5   53.87    1.31
  -5   1  -5   55.15    1.32
  -6  -1  -5   40.08    1.09
   6  -1   5   39.31    1.06
  -6  -1  -5   40.30    1.04
   6   1   5   40.06    1.04
  -6   1  -5   39.66    1.12
  -6   1  -5   39.81    1.06
   7  -1   5   24.69    0.81
  -7  -1  -5   25.36    0.83
  -7  -1  -5   24.18    0.76
  -7   1  -5   24.18    0.84
   7   1   5   25.65    0.79
  -7   1  -5   24.20    0.78
  -8  -1  -5   12.83    0.55
  -8  -1  -5   11.98    0.59
   8  -1   5   13.24    0.62
  -8   1  -5   13.07    0.62
   8   1   5   12.62    0.58
  -8   1  -5   11.58    0.55
   9  -1   5    1.63    0.32
  -9  -1  -5    2.77    0.36
  -9   1  -5    2.01    0.34
   9   1   5    2.12    0.33
  -9   1  -5    2.00    0.35
  10  -1   5   60.35    1.67
  10   1   5   61.38    1.66
 -10   1  -5   61.52    1.75
  11  -1   5    3.40    0.45
 -11   1  -5    4.31    0.49
  11   1   5    4.54    0.49
  12  -1   5    1.89    0.41
  12   1   5    1.75    0.42
  13  -1   5    2.13    0.51
  13   1   5    3.13    0.52
  14  -1   5    7.31    0.70
  14   1   5    6.77    0.67
  15  -1   5    9.60    0.82
  15   1   5   11.60    0.94
  16  -1   5    1.94    0.54
  16   1   5    1.39    0.50
  17  -1   5    3.75    0.62
  17   1   5    4.22    0.62
  17  -2  -5    0.76    0.55
  17   2  -5    0.36    0.50
  16  -2  -5    1.92    0.54
  16   2  -5    1.79    0.55
  15  -2  -5    8.40    0.78
  15   2  -5    7.14    0.69
  14  -2  -5    4.55    0.61
  14   2  -5    5.02    0.60
  14   2  -5    5.66    0.63
  13  -2  -5   12.72    0.88
  13   2  -5   13.28    0.89
  13   2  -5   12.71    0.84
  12  -2  -5   12.85    0.90
  12  -2  -5   10.90    0.73
  12   2  -5   10.35    0.75
  12   2  -5    9.40    0.74
  11  -2  -5   19.14    0.92
  11  -2  -5   18.60    0.89
  11   2  -5   16.73    0.84
  11   2  -5   17.96    0.87
 -11   2   5   17.26    0.86
  10  -2  -5    0.33    0.31
  10  -2  -5    1.09    0.37
 -10   2   5    0.79    0.32
  10   2  -5    0.29    0.31
  10   2  -5    1.08    0.31
   9  -2  -5   23.88    0.97
   9  -2  -5   24.61    0.92
   9   2  -5   27.12    0.89
  -9   2   5   23.32    0.86
  -9   2   5   25.34    0.95
   9   2  -5   24.37    0.89
   8  -2  -5   69.79    1.75
   8  -2  -5   70.14    1.85
  -8  -2   5   67.66    1.67
  -8   2   5   68.15    1.71
   8   2  -5   67.63    1.69
   8   2  -5   68.46    1.72
  -8   2   5   67.01    1.80
   7  -2  -5   12.77    0.62
  -7  -2   5   12.87    0.51
   7  -2  -5   13.24    0.59
   7   2  -5   13.81    0.56
  -7   2   5   13.36    0.54
   7   2  -5   12.20    0.53
  -7   2   5   12.65    0.62
  -6  -2   5   37.38    1.00
   6  -2  -5   40.45    1.15
  -6  -2   5   39.39    1.00
   6  -2  -5   39.04    1.07
   6   2  -5   38.67    1.04
   6   2  -5   39.42    1.03
  -6   2   5   40.17    1.13
  -6   2   5   38.74    1.05
   5  -2  -5    5.24    0.38
  -5  -2   5    4.79    0.29
   5  -2  -5    4.40    0.35
  -5  -2   5    5.01    0.29
   5   2  -5    4.33    0.32
  -5   2   5    4.45    0.37
  -5   2   5    4.85    0.33
   5   2  -5    4.74    0.31
   4  -2  -5   95.89    2.19
   4  -2  -5   95.47    2.15
  -4  -2   5   95.23    2.10
  -4  -2   5   94.81    2.10
   4   2  -5   95.96    2.12
   4   2  -5   94.66    2.13
  -4   2   5   95.76    2.14
  -4   2   5   96.40    2.19
   3  -2  -5   20.43    0.62
  -3  -2   5   20.64    0.58
   3  -2  -5   21.35    0.63
  -3  -2   5   20.08    0.58
   3   2  -5   20.17    0.61
  -3   2   5   20.91    0.63
  -3   2   5   20.78    0.60
   3   2  -5   19.98    0.59
  -2  -2   5  147.43    3.16
   2  -2  -5  149.06    3.20
  -2  -2   5  150.83    3.16
   2  -2  -5  149.52    3.19
  -2   2   5  149.69    3.20
  -2   2   5  148.49    3.19
   2   2  -5  149.50    3.19
   2   2  -5  147.69    3.16
  -2   2   5  148.26    3.18
   1  -2  -5   24.17    0.66
  -1  -2   5   23.81    0.64
   1  -2  -5   24.17    0.64
  -1  -2   5   24.87    0.64
  -1   2   5   24.19    0.65
  -1   2   5   24.26    0.65
   1   2  -5   24.29    0.67
  -1   2   5   23.82    0.65
   1   2  -5   23.32    0.63
   0  -2  -5    2.02    0.17
   0  -2   5    1.97    0.17
   0  -2   5    1.92    0.18
   0  -2  -5    2.18    0.18
   0   2   5    1.87    0.18
   0   2   5    2.19    0.20
   0   2   5    2.18    0.19
   0   2  -5    2.08    0.18
  -1  -2  -5   37.61    0.91
   1  -2   5   39.09    0.95
  -1  -2  -5   36.02    0.88
   1  -2   5   37.71    0.92
  -1   2  -5   40.75    0.94
   1   2   5   37.52    0.92
   1   2   5   37.54    0.94
  -2  -2  -5  172.98    3.62
  -2  -2  -5  174.37    3.60
   2  -2   5  168.61    3.64
   2   2   5  171.41    3.64
  -2   2  -5  173.04    3.66
   3  -2   5  127.27    2.78
  -3  -2  -5  129.04    2.72
  -3  -2  -5  130.03    2.75
  -3  -2  -5  127.58    2.76
   3   2   5  129.14    2.76
  -3   2  -5  126.11    2.78
  -4  -2  -5   14.29    0.47
   4  -2   5   14.32    0.51
  -4  -2  -5   14.04    0.46
   4   2   5   13.94    0.49
  -4   2  -5   14.76    0.51
  -5  -2  -5   68.19    1.61
  -5  -2  -5   67.42    1.56
   5  -2   5   68.71    1.62
  -5   2  -5   67.64    1.62
   5   2   5   68.44    1.59
  -6  -2  -5  138.17    3.06
   6  -2   5  140.83    3.12
   6   2   5  140.38    3.08
  -6   2  -5  137.28    3.12
  -6   2  -5  146.13    3.22
  -7  -2  -5    0.32    0.19
   7  -2   5    0.08    0.23
  -7   2  -5    0.23    0.22
  -7   2  -5    0.36    0.22
   7   2   5    0.34    0.19
   8  -2   5   72.39    1.84
   8   2   5   73.95    1.80
  -8   2  -5   70.50    1.89
  -8   2  -5   75.96    1.86
   9  -2   5   50.25    1.44
   9   2   5   52.61    1.38
  -9   2  -5   51.08    1.49
  -9   2  -5   48.86    1.42
  10  -2   5   12.15    0.69
 -10   2  -5   11.89    0.75
  10   2   5   12.69    0.68
  11  -2   5    8.42    0.65
 -11   2  -5    9.14    0.71
  11   2   5    8.74    0.61
  12  -2   5   19.25    0.94
  12   2   5   21.40    0.91
  13  -2   5    4.34    0.58
  13   2   5    3.92    0.55
  14  -2   5    2.89    0.51
  14   2   5    3.18    0.56
  15  -2   5    1.52    0.51
  15   2   5    1.22    0.52
  16  -2   5   10.68    0.88
  16   2   5    9.85    0.85
  17  -2   5    0.18    0.53
  17   2   5    0.51    0.53
  17  -3  -5    0.02    0.53
  17   3  -5    0.39    0.51
  16  -3  -5    1.49    0.58
  16   3  -5    1.48    0.55
  15  -3  -5   -0.25    0.46
  15   3  -5   -0.11    0.43
  15   3  -5   -0.23    0.46
  14  -3  -5    2.86    0.57
  14   3  -5    2.28    0.53
  14   3  -5    2.48    0.54
  13  -3  -5   -0.36    0.36
  13   3  -5    0.39    0.36
  13   3  -5    0.32    0.41
  12  -3  -5    3.33    0.51
  12   3  -5    5.37    0.57
  12   3  -5    4.11    0.52
  11  -3  -5   -0.07    0.36
  11  -3  -5   -0.24    0.31
  11   3  -5    0.12    0.32
  11   3  -5    0.00    0.33
 -11   3   5    0.25    0.33
  10  -3  -5    5.79    0.52
  10  -3  -5    5.16    0.51
 -10   3   5    6.39    0.61
  10   3  -5    5.56    0.54
  10   3  -5    5.52    0.48
   9  -3  -5    1.25    0.31
   9  -3  -5    2.11    0.38
   9   3  -5    1.70    0.33
  -9   3   5    1.56    0.32
  -9   3   5    1.64    0.35
   8  -3  -5    6.55    0.53
   8  -3  -5    5.65    0.45
  -8  -3   5    7.23    0.42
   8   3  -5    6.72    0.47
   8   3  -5    7.75    0.46
  -8   3   5    7.61    0.51
  -8   3   5    5.89    0.56
  -7  -3   5    2.45    0.25
  -7  -3   5    2.86    0.25
   7  -3  -5    2.88    0.32
   7  -3  -5    2.98    0.34
   7   3  -5    2.59    0.29
   7   3  -5    2.53    0.26
  -7   3   5    3.13    0.39
  -7   3   5    3.02    0.32
   6  -3  -5   -0.04    0.18
  -6  -3   5   -0.15    0.15
  -6  -3   5    0.02    0.15
   6  -3  -5    0.04    0.18
   6   3  -5    0.15    0.16
   6   3  -5   -0.30    0.17
  -6   3   5   -0.02    0.23
  -6   3   5    0.32    0.19
  -5  -3   5   16.08    0.51
   5  -3  -5   16.26    0.63
  -5  -3   5   16.44    0.51
   5  -3  -5   15.90    0.58
  -5   3   5   16.23    0.65
  -5   3   5   16.55    0.58
   5   3  -5   16.63    0.56
   5   3  -5   16.02    0.53
   4  -3  -5    1.27    0.21
   4  -3  -5    0.75    0.19
  -4  -3   5    0.93    0.15
  -4  -3   5    0.95    0.15
   4   3  -5    1.10    0.16
   4   3  -5    0.86    0.18
  -4   3   5    1.02    0.19
  -4   3   5    0.63    0.20
  -3  -3   5    1.68    0.16
   3  -3  -5    1.75    0.21
  -3  -3   5    1.70    0.17
   3  -3  -5    1.85    0.21
  -3   3   5    1.59    0.20
  -3   3   5    1.51    0.22
   3   3  -5    1.82    0.18
   3   3  -5    1.86    0.21
   2  -3  -5    0.58    0.16
  -2  -3   5    0.49    0.13
  -2  -3   5    0.55    0.13
   2  -3  -5    0.46    0.13
   2   3  -5    0.49    0.16
  -2   3   5    0.53    0.15
  -2   3   5    0.59    0.15
  -2   3   5    0.74    0.17
   2   3  -5    0.51    0.13
  -1  -3   5    1.80    0.16
   1  -3  -5    1.78    0.18
   1  -3  -5    1.82    0.16
  -1  -3   5    1.84    0.16
  -1   3   5    1.71    0.18
  -1   3   5    2.17    0.20
  -1   3   5    1.50    0.18
   1   3  -5    1.88    0.17
   1   3  -5    1.69    0.19
   0  -3   5    0.67    0.13
   0  -3  -5    0.57    0.10
   0  -3   5    0.52    0.13
   0   3   5    0.50    0.14
   0   3   5    0.63    0.16
   0   3   5    0.46    0.13
   0   3  -5    0.65    0.14
   1  -3   5   21.54    0.59
   1  -3   5   21.45    0.60
   1   3   5   20.93    0.60
   1   3   5   20.92    0.60
   1   3   5   20.95    0.58
  -1   3  -5   21.89    0.60
  -2  -3  -5    3.56    0.22
   2  -3   5    3.20    0.25
   2  -3   5    3.66    0.27
   2   3   5    3.09    0.25
  -2   3  -5    3.56    0.26
   2   3   5    3.20    0.25
  -3  -3  -5   50.09    1.14
   3  -3   5   48.41    1.19
  -3   3  -5   48.14    1.19
   3   3   5   49.81    1.17
  -4  -3  -5   10.98    0.40
   4  -3   5   11.03    0.46
  -4   3  -5   11.41    0.46
   4   3   5   11.24    0.43
   5  -3   5   25.63    0.79
  -5  -3  -5   25.99    0.71
  -5   3  -5   25.54    0.77
   5   3   5   26.22    0.74
  -6  -3  -5    1.78    0.21
   6  -3   5    1.52    0.25
  -6   3  -5    1.72    0.26
   6   3   5    1.59    0.24
  -7  -3  -5   16.61    0.57
   7  -3   5   16.06    0.67
  -7   3  -5   17.28    0.69
  -7   3  -5   17.74    0.75
   7   3   5   16.85    0.62
   8  -3   5    2.20    0.33
  -8   3  -5    2.48    0.38
   8   3   5    2.22    0.30
  -8   3  -5    2.69    0.37
   8   3   5    2.90    0.41
   9  -3   5   19.30    0.85
   9   3   5   17.41    0.89
   9   3   5   19.52    0.75
  -9   3  -5   17.93    0.80
  -9   3  -5   18.95    0.85
  10  -3   5   -0.11    0.30
  10   3   5   -0.34    0.30
  10   3   5    0.00    0.29
 -10   3  -5    0.32    0.33
  11  -3   5    0.00    0.32
  11   3   5   -0.42    0.29
 -11   3  -5   -0.33    0.31
  11   3   5   -0.28    0.33
  12  -3   5    0.52    0.41
  12   3   5    0.19    0.36
  12   3   5   -0.26    0.38
  13  -3   5   12.82    0.88
  13   3   5   13.65    1.02
  13   3   5   12.14    0.83
  14  -3   5    0.85    0.45
  14   3   5   -0.04    0.45
  14   3   5    0.43    0.42
  15  -3   5    1.27    0.46
  15   3   5    0.80    0.47
  16  -3   5    0.08    0.44
  16   3   5    0.15    0.49
  17  -3   5    0.49    0.52
  17   3   5    0.64    0.52
  16  -4  -5    1.32    0.59
  16   4  -5    0.81    0.51
  15  -4  -5    4.06    0.67
  15   4  -5    4.09    0.62
  15   4  -5    4.45    0.63
  14  -4  -5   -0.40    0.45
  14   4  -5    0.26    0.44
  14   4  -5    0.20    0.45
  13  -4  -5    0.02    0.44
  13   4  -5    0.66    0.43
  13   4  -5    0.20    0.41
 -12  -4   5    7.76    0.57
  12  -4  -5    7.61    0.67
  12   4  -5    7.63    0.63
  12   4  -5    8.99    0.75
 -11  -4   5    1.52    0.31
  11  -4  -5    1.30    0.41
 -11   4   5    1.87    0.45
  11   4  -5    2.40    0.41
  11   4  -5    1.55    0.38
 -10  -4   5    1.91    0.29
  10  -4  -5    1.97    0.41
  10   4  -5    1.45    0.35
  10   4  -5    2.11    0.36
 -10   4   5    2.52    0.42
 -10   4   5    1.99    0.43
   9  -4  -5    7.75    0.54
  -9  -4   5    6.84    0.42
   9   4  -5    7.42    0.53
  -9   4   5    8.06    0.66
  -9   4   5    8.38    0.57
   9   4  -5    6.76    0.54
  -8  -4   5   25.52    0.74
   8  -4  -5   24.95    0.87
   8   4  -5   25.89    0.82
   8   4  -5   24.31    0.84
  -8   4   5   24.66    0.88
  -8   4   5   25.47    0.99
  -7   4   5    2.37    0.31
   7   4  -5    0.13    0.22
  -7   4   5    1.43    0.31
   6  -4  -5    8.90    0.47
  -6  -4   5    7.33    0.35
  -6  -4   5    7.09    0.38
   6   4  -5    7.42    0.40
  -6   4   5    8.22    0.46
   6   4  -5    7.69    0.43
  -6   4   5    8.29    0.57
   5  -4  -5   46.66    1.20
  -5  -4   5   46.65    1.11
  -5   4   5   46.00    1.30
  -5   4   5   46.83    1.19
   5   4  -5   45.50    1.13
   5   4  -5   45.38    1.16
   4  -4  -5   33.98    0.92
  -4  -4   5   33.75    0.83
   4   4  -5   32.61    0.89
  -4   4   5   34.63    1.02
  -4   4   5   34.06    0.92
  -3  -4   5    5.82    0.27
  -3  -4   5    5.33    0.26
   3  -4  -5    5.97    0.34
   3   4  -5    5.82    0.34
   3   4  -5    5.76    0.30
  -3   4   5    5.98    0.34
  -3   4   5    6.25    0.41
  -2  -4   5   36.62    0.87
   2  -4  -5   37.91    0.94
  -2  -4   5   34.60    0.87
  -2   4   5   38.20    0.95
  -2   4   5   37.89    0.99
   2   4  -5   37.62    0.91
   2   4  -5   37.34    0.95
  -1  -4   5   22.96    0.60
  -1   4   5   23.71    0.66
   1   4  -5   22.88    0.64
  -1   4   5   23.50    0.67
  -1   4   5   24.03    0.66
   0  -4   5   -0.09    0.05
   0  -4   5    0.14    0.12
   0   4   5   -0.09    0.13
   0   4  -5    0.11    0.13
   0   4   5   -0.03    0.12
   0   4   5    0.08    0.15
   1  -4   5    0.21    0.13
   1  -4   5    0.30    0.14
  -1   4  -5    0.37    0.14
   1   4   5    0.21    0.13
   1   4   5    0.02    0.15
   1   4   5    0.14    0.14
   2  -4   5   40.19    0.98
   2  -4   5   38.77    0.98
   2   4   5   39.16    0.98
  -2   4  -5   38.93    0.99
   2   4   5   38.88    0.96
   2   4   5   39.27    0.95
  -3  -4  -5    1.45    0.14
   3  -4   5    1.65    0.21
  -3   4  -5    1.51    0.20
   3   4   5    1.22    0.19
  -4  -4  -5    6.00    0.28
   4  -4   5    6.13    0.39
  -4   4  -5    5.83    0.36
   4   4   5    6.09    0.34
  -5  -4  -5   13.63    0.44
   5  -4   5   13.06    0.57
   5   4   5   13.96    0.51
  -5   4  -5   13.22    0.54
  -6  -4  -5   28.15    0.74
   6  -4   5   26.89    0.90
   6   4   5   28.16    0.81
  -6   4  -5   27.44    0.87
  -7  -4  -5    0.77    0.19
   7  -4   5    0.52    0.27
   7   4   5    0.65    0.22
  -7   4  -5    0.56    0.29
  -7   4  -5    0.36    0.26
   7   4   5    0.40    0.27
   8  -4   5   12.93    0.69
  -8   4  -5   13.22    0.73
   8   4   5   13.07    0.60
  -8   4  -5   13.10    0.67
   8   4   5   11.66    0.71
   9  -4   5   21.12    0.89
  -9   4  -5   19.39    0.89
   9   4   5   18.75    0.76
   9   4   5   18.10    0.90
  -9   4  -5   19.24    0.85
  10  -4   5    1.43    0.38
  10   4   5    0.94    0.38
 -10   4  -5    1.81    0.42
  10   4   5    0.83    0.31
  11  -4   5    0.21    0.36
  11   4   5    0.32    0.33
  11   4   5   -0.26    0.33
  12  -4   5    5.71    0.61
  12   4   5    5.56    0.56
  12   4   5    6.27    0.70
  13  -4   5    2.94    0.53
  13   4   5    2.40    0.56
  13   4   5    2.29    0.47
  14  -4   5    0.40    0.45
  14   4   5   -0.29    0.45
  14   4   5   -0.29    0.41
  15  -4   5    1.20    0.50
  15   4   5    1.08    0.47
  15   4   5    0.89    0.55
  16  -4   5    5.03    0.64
  16   4   5    6.45    0.71
  15   5  -5    0.04    0.46
  15   5  -5   -0.19    0.46
  14  -5  -5   11.36    0.94
  14   5  -5   12.39    0.97
  14   5  -5   12.23    0.93
  13  -5  -5    1.49    0.50
  13   5  -5    1.44    0.46
  13   5  -5    2.00    0.50
  12  -5  -5    0.73    0.41
  12   5  -5    0.52    0.39
  12   5  -5    0.72    0.38
  11  -5  -5    3.20    0.49
  11   5  -5    2.90    0.44
  11   5  -5    3.54    0.46
 -10  -5   5   14.96    0.58
  10  -5  -5   19.15    0.84
 -10   5   5   17.71    0.84
 -10   5   5   18.23    0.93
  10   5  -5   17.78    0.80
  10   5  -5   18.95    0.79
   9  -5  -5    3.42    0.39
   9   5  -5    3.78    0.38
  -9   5   5    2.95    0.42
  -9   5   5    3.61    0.42
   9   5  -5    2.96    0.37
  -8  -5   5    5.95    0.34
   8  -5  -5    6.17    0.50
   8   5  -5    6.60    0.47
   8   5  -5    5.65    0.46
  -8   5   5    5.07    0.49
  -8   5   5    6.35    0.49
  -7  -5   5   33.86    0.91
  -7  -5   5   33.26    0.85
   7  -5  -5   35.70    1.04
   7   5  -5   34.85    0.96
  -7   5   5   33.82    1.17
   7   5  -5   33.61    0.98
  -7   5   5   33.85    1.05
   6  -5  -5   30.24    0.89
  -6  -5   5   29.14    0.77
  -6  -5   5   28.82    0.72
  -6   5   5   28.94    0.90
  -6   5   5   28.31    1.02
   6   5  -5   29.11    0.84
   6   5  -5   28.44    0.82
  -5  -5   5    4.15    0.26
  -5  -5   5    3.79    0.23
   5  -5  -5    5.29    0.38
  -5   5   5    4.29    0.42
   5   5  -5    3.98    0.32
  -5   5   5    4.12    0.34
   5   5  -5    4.12    0.31
   4  -5  -5   49.49    1.22
  -4  -5   5   46.47    1.10
  -4  -5   5   49.15    1.07
  -4   5   5   47.89    1.34
  -4   5   5   48.74    1.23
   4   5  -5   49.34    1.20
   3  -5  -5  114.25    2.45
  -3  -5   5  109.59    2.33
  -3  -5   5  111.44    2.32
  -3   5   5  110.71    2.55
   3   5  -5  109.92    2.44
  -3   5   5  109.15    2.46
   3   5  -5  110.14    2.40
  -2  -5   5    9.87    0.30
  -2  -5   5    9.36    0.30
   2   5  -5    9.74    0.38
   2   5  -5    8.50    0.42
  -2   5   5   10.73    0.49
  -2   5   5   10.68    0.42
  -1  -5   5   11.40    0.35
  -1  -5   5   12.74    0.38
  -1   5   5   13.60    0.50
  -1   5   5   13.24    0.46
   1   5  -5   11.69    0.43
  -1   5   5   12.80    0.47
   0  -5   5   40.50    0.94
   0  -5   5   42.53    0.97
   0   5   5   41.02    1.02
   0   5  -5   41.16    1.01
   0   5   5   40.48    1.01
   0   5   5   39.95    1.01
   1  -5   5   38.94    0.94
   1  -5   5   37.86    0.92
   1   5   5   37.90    0.96
   1   5   5   36.95    0.93
   1   5   5   38.41    0.95
  -1   5  -5   38.20    0.96
   2  -5   5    0.71    0.17
  -2   5  -5    0.93    0.19
   2   5   5    0.61    0.15
   2   5   5    0.49    0.17
   2   5   5    0.50    0.17
   3  -5   5   67.46    1.57
   3  -5   5   66.64    1.61
   3   5   5   66.73    1.55
   3   5   5   68.10    1.54
  -3   5  -5   66.50    1.59
   3   5   5   67.13    1.52
   4  -5   5    8.60    0.47
   4   5   5    8.86    0.40
  -4   5  -5    9.27    0.44
   5  -5   5    6.62    0.45
   5   5   5    6.53    0.38
  -5   5  -5    6.15    0.42
  -6  -5  -5    1.40    0.16
   6  -5   5    1.72    0.30
   6   5   5    1.37    0.24
  -6   5  -5    0.93    0.26
   7  -5   5   96.74    2.30
  -7  -5  -5   89.26    2.01
   7   5   5   92.33    2.13
  -7   5  -5   90.48    2.24
   7   5   5   90.73    2.27
  -7   5  -5   93.42    2.35
   8  -5   5    7.10    0.59
   8   5   5    6.91    0.61
   8   5   5    7.47    0.49
  -8   5  -5    7.54    0.58
  -8   5  -5    7.39    0.65
   9  -5   5    3.83    0.46
   9   5   5    4.12    0.49
  -9   5  -5    4.19    0.51
   9   5   5    3.41    0.37
  -9   5  -5    3.32    0.45
  10  -5   5    2.58    0.43
  10   5   5    2.04    0.35
 -10   5  -5    2.68    0.48
  10   5   5    1.95    0.42
  11  -5   5    9.20    0.72
  11   5   5    8.25    0.66
  11   5   5    8.22    0.72
  12  -5   5    7.03    0.64
  12   5   5    5.22    0.64
  12   5   5    6.04    0.56
  13  -5   5    6.29    0.62
  13   5   5    6.14    0.60
  13   5   5    6.41    0.73
  14  -5   5    5.53    0.65
  14   5   5    4.16    0.57
  14   5   5    2.93    0.61
  15   5   5    0.30    0.42
  15   5   5   -1.00    0.50
  14   6  -5   -0.08    0.45
  14   6  -5    0.97    0.49
  13   6  -5    0.00    0.43
  13   6  -5    0.42    0.42
  12   6  -5    1.16    0.43
  12   6  -5    1.77    0.46
  11   6  -5    2.29    0.43
  11   6  -5    1.90    0.40
  10  -6  -5   -0.10    0.34
  10   6  -5    0.33    0.32
  10   6  -5    0.14    0.30
 -10   6   5    0.10    0.39
   9  -6  -5   -0.07    0.30
  -9   6   5    0.16    0.33
   9   6  -5    0.13    0.28
   9   6  -5    0.45    0.29
   8  -6  -5    1.87    0.34
  -8  -6   5    1.14    0.11
  -8  -6   5    1.48    0.14
  -8   6   5    0.58    0.34
   8   6  -5    1.18    0.29
   8   6  -5    1.27    0.28
  -8   6   5    1.85    0.41
   7  -6  -5    2.97    0.35
  -7   6   5    3.28    0.39
  -7   6   5    3.52    0.46
   7   6  -5    4.47    0.41
   7   6  -5    2.53    0.31
   6  -6  -5    0.78    0.24
  -6   6   5    0.48    0.27
   6   6  -5    0.24    0.20
   6   6  -5    0.43    0.22
  -6   6   5    0.58    0.32
   5  -6  -5    1.57    0.25
   5   6  -5    1.53    0.24
  -5   6   5    1.73    0.29
  -5   6   5    1.45    0.34
  -4   6   5    8.04    0.45
   4   6  -5    7.51    0.41
  -4   6   5    7.20    0.56
   3  -6  -5    0.13    0.16
  -3   6   5    0.22    0.20
  -3   6   5   -0.06    0.24
   3   6  -5    0.12    0.18
  -2   6   5   10.61    0.54
   2   6  -5   11.48    0.42
  -2   6   5   11.03    0.47
  -2   6   5   11.24    0.48
  -1   6   5   24.38    0.71
  -1   6   5   25.90    0.78
  -1   6   5   25.94    0.73
   1   6  -5   25.23    0.70
   0   6   5    5.86    0.36
   0   6   5    5.91    0.34
   0   6  -5    5.40    0.33
   0   6   5    5.97    0.37
   1  -6   5    1.61    0.15
   1  -6   5    1.79    0.13
   1   6   5    1.37    0.20
  -1   6  -5    1.73    0.22
   1   6   5    1.74    0.20
   1   6   5    1.74    0.21
   2  -6   5    7.43    0.35
   2  -6   5    7.88    0.33
   2   6   5    8.24    0.38
  -2   6  -5    9.66    0.44
   2   6   5    8.73    0.38
   2   6   5    9.16    0.37
   3  -6   5    0.99    0.20
   3  -6   5    1.03    0.19
   3   6   5    0.96    0.19
  -3   6  -5    1.33    0.23
   3   6   5    0.93    0.18
   3   6   5    0.87    0.17
   4   6   5    3.57    0.27
   4   6   5    3.13    0.25
  -4   6  -5    3.55    0.31
   5  -6   5    4.87    0.41
  -5   6  -5    4.81    0.38
   5   6   5    4.73    0.35
   6  -6   5    2.85    0.34
   6   6   5    2.62    0.27
  -6   6  -5    2.93    0.35
   7  -6   5    5.87    0.47
  -7   6  -5    5.30    0.51
  -7   6  -5    5.49    0.46
   7   6   5    4.64    0.35
   8  -6   5    0.12    0.29
   8   6   5   -0.15    0.23
   8   6   5   -0.12    0.29
  -8   6  -5   -0.04    0.30
   9  -6   5    5.89    0.52
  -9   6  -5    6.63    0.64
   9   6   5    5.16    0.43
   9   6   5    5.23    0.54
  10  -6   5    1.12    0.38
  10   6   5    0.74    0.33
  10   6   5    0.51    0.38
  11   6   5    2.19    0.41
  11   6   5    2.24    0.50
  12   6   5    1.62    0.42
  12   6   5    1.11    0.50
  13   6   5    0.13    0.40
  13   6   5   -0.09    0.45
  14   6   5    0.18    0.41
  14   6   5   -0.08    0.51
  12   7  -5   -0.47    0.35
  12   7  -5    0.50    0.44
  11   7  -5    0.43    0.38
  11   7  -5   -0.21    0.34
  10   7  -5   12.53    0.72
  10   7  -5   10.77    0.68
  -9   7   5    3.32    0.51
   9   7  -5    3.98    0.41
   9   7  -5    2.64    0.36
   8   7  -5    2.08    0.32
  -8   7   5    1.73    0.43
   8   7  -5    2.03    0.31
  -7   7   5    1.93    0.42
   7   7  -5    2.18    0.29
   7   7  -5    1.97    0.28
   6   7  -5    0.81    0.24
  -6   7   5    0.50    0.34
   6   7  -5    0.54    0.22
   5   7  -5    0.18    0.21
  -5   7   5    0.15    0.31
  -4   7   5    3.26    0.42
  -3   7   5    8.14    0.53
  -3   7   5    7.44    0.56
  -2   7   5    2.63    0.27
  -2   7   5    2.76    0.28
   2   7  -5    2.64    0.22
  -2   7   5    2.84    0.34
  -1   7   5    1.44    0.23
  -1   7   5    1.02    0.20
  -1   7   5    1.00    0.25
   1   7  -5    1.14    0.19
   0   7   5    1.35    0.22
   0   7   5    1.14    0.20
   0   7   5    1.36    0.24
   0   7  -5    0.92    0.20
   1   7   5   12.38    0.49
  -1   7  -5   13.40    0.50
   1   7   5   13.31    0.48
   1   7   5   12.95    0.47
   2   7   5    0.16    0.17
  -2   7  -5    0.20    0.20
   2   7   5    0.24    0.17
   2   7   5    0.34    0.17
   3  -7   5    2.44    0.18
   3  -7   5    2.22    0.17
   3   7   5    2.18    0.22
   3   7   5    2.53    0.24
   3   7   5    2.24    0.23
   4  -7   5    5.64    0.41
   4   7   5    6.97    0.44
   4   7   5    6.34    0.36
   5   7   5    2.23    0.24
   6   7   5    1.11    0.23
   7   7   5   10.28    0.51
  -7   7  -5   10.73    0.76
  -8   7  -5    3.15    0.46
   8   7   5    3.10    0.34
  -9   7  -5    1.79    0.43
   9   7   5    3.20    0.38
  10   7   5    0.44    0.31
  11   7   5    3.87    0.46
  11   7   5    2.79    0.54
  12   7   5    0.56    0.37
  10   8  -5    0.46    0.35
  10   8  -5   -0.11    0.29
   9   8  -5    6.16    0.45
   9   8  -5    7.03    0.60
  -9   8   5    8.00    0.99
   8   8  -5    3.94    0.36
  -8   8   5    4.62    0.59
   8   8  -5    4.50    0.40
   7   8  -5    0.71    0.28
  -7   8   5    0.85    0.41
   7   8  -5    0.21    0.24
   6   8  -5    4.37    0.35
   6   8  -5    4.62    0.33
  -6   8   5    4.01    0.52
  -5   8   5   13.72    0.82
  -4   8   5    1.88    0.40
  -3   8   5    0.31    0.30
  -3   8   5    0.35    0.25
  -2   8   5   16.57    0.62
  -2   8   5   17.61    0.74
  -1   8   5    9.38    0.47
  -1   8   5    9.83    0.55
   0   8   5   -0.06    0.19
   0   8   5   -0.05    0.22
   1   8   5    4.58    0.32
   1   8   5    4.40    0.37
   2   8   5    6.75    0.35
   2   8   5    6.96    0.40
   3   8   5    4.26    0.30
   3   8   5    4.73    0.37
   4   8   5    0.41    0.18
   5   8   5   14.77    0.51
   6   8   5    5.88    0.40
  -6   8  -5    7.06    0.63
   7   8   5    0.12    0.23
  -7   8  -5    0.15    0.38
  -8   8  -5    4.36    0.57
   8   8   5    3.27    0.35
   9   8   5    8.00    0.58
  10   8   5    2.93    0.40
   7   9  -5    2.20    0.34
  -7   9   5    2.29    0.51
  -6   9   5    4.84    0.58
   6   9  -5    4.77    0.46
  -5   9   5    0.48    0.39
  -4   9   5    0.33    0.28
  -4   9   5    0.09    0.36
  -3   9   5    4.29    0.37
  -3   9   5    4.16    0.47
  -2   9   5    3.25    0.32
  -2   9   5    3.45    0.41
  -1   9   5    0.58    0.23
  -1   9   5    0.55    0.28
   0   9   5    7.09    0.38
   0   9   5    7.21    0.49
   1   9   5    0.04    0.23
   1   9   5    0.24    0.17
   2   9   5    0.46    0.22
   3   9   5   -0.02    0.21
  -5   9  -5   -0.44    0.36
  -6   9  -5    0.81    0.42
  -7   9  -5    0.34    0.41
  17   0  -6    6.72    0.75
  16   0  -6    2.65    0.64
  15   0  -6    0.33    0.45
  14   0  -6   -0.05    0.41
  13   0  -6   25.29    1.15
  13   0  -6   25.56    1.24
  12   0  -6   28.42    1.17
  12   0  -6   28.49    1.16
  11   0  -6    8.41    0.65
 -11   0   6    7.63    0.58
  11   0  -6    9.14    0.69
 -10   0   6   28.51    1.00
  10   0  -6   31.16    1.10
  10   0  -6   30.09    1.09
   9   0  -6   86.76    2.15
   9   0  -6   84.74    2.17
  -9   0   6   88.11    2.14
  -8   0   6   16.64    0.62
  -8   0   6   15.79    0.65
   8   0  -6   15.85    0.67
   8   0  -6   16.22    0.67
  -7   0   6   25.97    0.82
   7   0  -6   25.29    0.83
   7   0  -6   25.42    0.84
  -7   0   6   24.79    0.78
   6   0  -6  175.23    3.86
  -6   0   6  179.31    3.83
  -6   0   6  179.89    3.86
   6   0  -6  172.32    3.85
  -5   0   6   10.24    0.44
  -5   0   6   10.03    0.43
   5   0  -6    9.76    0.44
   5   0  -6    9.24    0.44
   4   0  -6   55.89    1.38
  -4   0   6   55.88    1.35
  -4   0   6   57.51    1.37
   4   0  -6   56.99    1.37
  -4   0   6   58.45    1.37
   3   0  -6   64.91    1.54
  -3   0   6   64.74    1.52
   3   0  -6   66.36    1.52
  -3   0   6   64.31    1.51
  -3   0   6   65.21    1.51
   2   0  -6   35.29    0.91
   2   0  -6   33.95    0.87
  -2   0   6   33.42    0.88
  -2   0   6   34.82    0.89
   2   0  -6   34.98    0.89
   1   0  -6   16.60    0.52
  -1   0   6   17.92    0.53
   1   0  -6   16.28    0.52
  -1   0   6   17.35    0.53
   0   0   6  114.30    2.56
   0   0  -6  117.91    2.54
   0   0  -6  120.76    2.58
   0   0   6  115.53    2.54
   1   0   6  161.81    3.42
   1   0   6  156.23    3.39
  -1   0  -6  157.53    3.38
   2   0   6  247.34    5.15
  -2   0  -6  243.19    5.15
  -3   0  -6    4.64    0.30
   3   0   6    5.02    0.31
   4   0   6  213.53    4.51
  -4   0  -6  210.75    4.51
  -5   0  -6   97.58    2.23
   5   0   6  100.12    2.24
  -6   0  -6    9.88    0.50
   6   0   6    9.74    0.48
  -6   0  -6    9.88    0.44
   7   0   6    2.31    0.28
  -7   0  -6    2.73    0.28
  -7   0  -6    1.84    0.26
  -8   0  -6   95.92    2.35
   8   0   6   95.89    2.28
  -8   0  -6   95.57    2.35
  -9   0  -6    6.25    0.55
   9   0   6    6.13    0.49
 -10   0  -6   56.24    1.62
  10   0   6   53.73    1.53
  11   0   6    0.41    0.33
 -11   0  -6    0.77    0.35
  12   0   6   12.09    0.82
  13   0   6    5.46    0.61
  14   0   6   35.80    1.42
  15   0   6    3.34    0.58
  16   0   6    1.02    0.56
  17   0   6    1.14    0.55
  17  -1  -6    0.84    0.57
  17   1  -6    0.15    0.48
  16  -1  -6    0.59    0.54
  16   1  -6    0.03    0.52
  15  -1  -6    0.71    0.51
  15   1  -6    0.10    0.44
  14  -1  -6    8.05    0.75
  14   1  -6    6.46    0.66
  13  -1  -6   -0.45    0.37
  13   1  -6   -0.29    0.36
  13   1  -6   -0.49    0.40
  12  -1  -6    2.43    0.46
  12  -1  -6    2.49    0.46
  12   1  -6    2.32    0.48
  12   1  -6    2.10    0.41
  11  -1  -6    4.12    0.48
  11  -1  -6    3.76    0.48
 -11   1   6    4.11    0.47
  11   1  -6    4.78    0.51
  11   1  -6    4.33    0.49
  10  -1  -6   12.91    0.72
  10  -1  -6   12.69    0.70
  10   1  -6   13.52    0.72
  10   1  -6   11.18    0.72
 -10   1   6   12.72    0.70
   9  -1  -6    5.17    0.45
   9  -1  -6    5.45    0.49
  -9  -1   6    6.18    0.46
   9   1  -6    5.54    0.50
  -9   1   6    5.48    0.50
   9   1  -6    5.23    0.44
  -8  -1   6   54.44    1.37
   8  -1  -6   51.32    1.46
   8  -1  -6   51.86    1.42
  -8  -1   6   54.08    1.48
  -8   1   6   50.99    1.37
   8   1  -6   51.25    1.42
   8   1  -6   52.29    1.41
  -8   1   6   54.00    1.45
   7  -1  -6   47.63    1.32
  -7  -1   6   48.75    1.24
   7  -1  -6   45.33    1.27
  -7  -1   6   49.24    1.25
  -7   1   6   47.28    1.25
   7   1  -6   48.07    1.27
  -7   1   6   49.76    1.33
   7   1  -6   47.39    1.27
  -6  -1   6    0.49    0.17
   6  -1  -6    1.38    0.23
   6  -1  -6    3.15    0.31
  -6   1   6    0.50    0.19
   6   1  -6    2.31    0.28
  -5  -1   6    3.34    0.27
   5  -1  -6    3.64    0.32
  -5  -1   6    3.49    0.29
   5  -1  -6    3.63    0.31
  -5  -1   6    3.81    0.28
   5   1  -6    3.35    0.29
  -5   1   6    2.66    0.24
  -5   1   6    2.86    0.26
   5   1  -6    3.91    0.31
  -4  -1   6   46.87    1.15
   4  -1  -6   46.43    1.18
   4  -1  -6   47.33    1.20
  -4  -1   6   47.89    1.16
   4   1  -6   46.99    1.18
  -4   1   6   46.18    1.16
  -4   1   6   46.74    1.18
  -4   1   6   45.06    1.16
   4   1  -6   48.30    1.17
  -3  -1   6    0.25    0.14
   3  -1  -6    0.19    0.13
   3  -1  -6    0.18    0.16
  -3  -1   6    0.06    0.14
   3   1  -6    0.37    0.16
   3   1  -6    0.12    0.15
  -3   1   6    0.07    0.16
  -3   1   6    0.22    0.14
  -3   1   6    0.18    0.14
  -2  -1   6    4.36    0.27
   2  -1  -6    4.08    0.29
   2  -1  -6    4.29    0.26
  -2  -1   6    4.35    0.28
   2   1  -6    4.49    0.27
  -2   1   6    4.54    0.28
   2   1  -6    4.41    0.27
  -2   1   6    4.01    0.27
  -2   1   6    4.31    0.27
   2   1  -6    4.75    0.32
   1  -1  -6    0.29    0.12
   1  -1  -6    0.49    0.17
   1  -1  -6    0.56    0.14
  -1  -1   6    0.95    0.15
  -1  -1   6    0.51    0.14
  -1   1   6    0.95    0.15
  -1   1   6    0.51    0.15
  -1   1   6    0.72    0.14
   1   1  -6    0.55    0.14
   1   1  -6    0.34    0.15
   0  -1  -6   19.99    0.58
   0  -1  -6   20.17    0.58
   0  -1  -6   20.71    0.61
   0  -1   6   20.95    0.61
   0  -1   6   20.87    0.59
   0   1  -6   20.51    0.58
   0   1   6   21.08    0.61
   0   1  -6   20.58    0.62
   0   1   6   18.94    0.59
  -1  -1  -6   21.71    0.62
  -1  -1  -6   21.61    0.61
   1  -1   6   21.40    0.62
   1  -1   6   22.59    0.65
   1   1   6   21.51    0.63
   1   1   6   22.13    0.64
  -1   1  -6   22.25    0.63
   2  -1   6    1.57    0.19
  -2  -1  -6    0.92    0.15
   2  -1   6    1.29    0.18
   2   1   6    1.16    0.18
   2   1   6    1.12    0.18
  -2   1  -6    1.48    0.18
   3  -1   6   77.11    1.78
  -3  -1  -6   79.48    1.77
  -3   1  -6   77.11    1.79
   3   1   6   78.74    1.78
  -4  -1  -6   13.97    0.48
   4  -1   6   14.06    0.51
   4   1   6   14.85    0.51
  -4   1  -6   14.57    0.52
   5  -1   6   15.14    0.55
  -5  -1  -6   14.99    0.52
  -5  -1  -6   14.83    0.57
   5   1   6   15.66    0.56
  -5   1  -6   14.72    0.55
  -6  -1  -6   33.08    0.93
   6  -1   6   33.95    0.96
  -6   1  -6   33.14    1.03
   6   1   6   33.28    0.95
  -6   1  -6   34.21    0.95
   7  -1   6    2.51    0.30
  -7  -1  -6    3.15    0.33
  -7  -1  -6    3.48    0.31
  -7   1  -6    3.27    0.37
   7   1   6    2.91    0.32
  -7   1  -6    3.25    0.31
   8  -1   6    2.61    0.33
  -8  -1  -6    2.95    0.35
  -8   1  -6    2.48    0.33
  -8   1  -6    2.98    0.33
   8   1   6    2.70    0.32
   9  -1   6   10.90    0.64
   9   1   6   10.55    0.58
  10  -1   6   19.21    0.82
 -10   1  -6   19.32    0.90
  10   1   6   20.74    0.81
  11  -1   6    0.35    0.37
  11   1   6   -0.14    0.32
 -11   1  -6    0.39    0.36
  12  -1   6    3.73    0.53
  12   1   6    3.78    0.51
  13  -1   6    8.90    0.73
  13   1   6    7.92    0.68
  14  -1   6    3.39    0.55
  14   1   6    4.21    0.60
  15  -1   6    0.59    0.46
  15   1   6    0.79    0.47
  16  -1   6    1.79    0.52
  16   1   6    1.85    0.57
  17  -1   6    2.41    0.57
  17   1   6    1.79    0.55
  17  -2  -6    3.55    0.70
  17   2  -6    2.74    0.61
  16  -2  -6   -0.41    0.45
  16   2  -6   -0.14    0.50
  15  -2  -6   -0.04    0.44
  15   2  -6   -0.02    0.47
  14  -2  -6    0.36    0.44
  14   2  -6    0.41    0.44
  14   2  -6    0.72    0.49
  13  -2  -6    5.82    0.62
  13   2  -6    6.13    0.61
  13   2  -6    5.99    0.60
  12  -2  -6    1.99    0.44
  12   2  -6    1.71    0.41
  12   2  -6    1.33    0.39
  11  -2  -6    0.46    0.34
  11  -2  -6    1.11    0.40
  11   2  -6    1.12    0.38
 -11   2   6    0.60    0.32
  11   2  -6    0.71    0.37
  10  -2  -6    3.07    0.42
  10  -2  -6    2.45    0.43
 -10   2   6    2.87    0.40
  10   2  -6    3.35    0.44
  10   2  -6    3.17    0.40
   9  -2  -6    0.47    0.29
   9  -2  -6    0.28    0.28
   9   2  -6    0.20    0.26
  -9   2   6    0.42    0.25
   9   2  -6    0.58    0.25
  -9   2   6    0.88    0.32
   8  -2  -6   12.70    0.67
   8  -2  -6   12.34    0.62
   8   2  -6   12.27    0.62
  -8   2   6   11.95    0.66
  -8   2   6   13.33    0.58
   8   2  -6   13.39    0.60
  -7  -2   6   12.79    0.52
   7  -2  -6   13.01    0.57
   7  -2  -6   12.69    0.63
  -7  -2   6   13.32    0.54
  -7   2   6   11.97    0.61
   7   2  -6   12.46    0.57
  -7   2   6   12.63    0.57
   7   2  -6   12.94    0.55
   6  -2  -6   38.91    1.13
  -6  -2   6   37.65    1.01
  -6  -2   6   38.40    1.01
   6  -2  -6   38.30    1.07
  -6   2   6   39.24    1.05
   6   2  -6   38.04    1.04
   6   2  -6   38.60    1.06
  -6   2   6   40.06    1.13
   5  -2  -6    1.80    0.25
  -5  -2   6    1.19    0.18
  -5  -2   6    1.73    0.21
   5  -2  -6    1.81    0.25
   5   2  -6    1.43    0.21
   5   2  -6    1.03    0.22
  -5   2   6    1.21    0.22
  -5   2   6    1.46    0.21
   4  -2  -6   14.43    0.54
  -4  -2   6   14.49    0.50
  -4  -2   6   13.95    0.48
   4  -2  -6   14.39    0.55
   4   2  -6   14.74    0.54
   4   2  -6   15.19    0.52
  -4   2   6   15.25    0.53
  -4   2   6   14.36    0.55
   3  -2  -6   19.61    0.63
  -3  -2   6   20.16    0.59
   3  -2  -6   19.69    0.61
  -3  -2   6   19.56    0.58
   3   2  -6   18.90    0.56
  -3   2   6   18.70    0.61
   3   2  -6   18.95    0.62
  -3   2   6   18.80    0.59
  -3   2   6   19.39    0.61
   3   2  -6   19.32    0.59
   2  -2  -6   39.03    1.00
  -2  -2   6   38.29    0.96
  -2  -2   6   39.08    0.96
   2  -2  -6   39.24    0.98
   2   2  -6   39.35    0.96
  -2   2   6   37.92    0.99
   2   2  -6   38.61    1.00
  -2   2   6   38.50    0.97
  -2   2   6   38.88    0.99
  -1  -2   6    3.85    0.27
   1  -2  -6    3.50    0.28
  -1  -2   6    3.54    0.26
   1  -2  -6    3.54    0.24
   1   2  -6    3.48    0.24
   1   2  -6    3.87    0.28
  -1   2   6    3.67    0.28
  -1   2   6    3.46    0.29
  -1   2   6    3.56    0.26
   0  -2   6    4.47    0.28
   0  -2  -6    4.06    0.25
   0  -2  -6    4.02    0.24
   0  -2   6    4.46    0.28
   0   2  -6    4.27    0.28
   0   2   6    4.10    0.28
   0   2   6    4.12    0.29
   0   2   6    4.02    0.27
  -1  -2  -6    1.22    0.15
   1  -2   6    0.71    0.15
   1  -2   6    0.92    0.17
  -1  -2  -6    0.85    0.15
  -1   2  -6    1.08    0.17
   1   2   6    0.69    0.15
   1   2   6    0.91    0.17
   2  -2   6    8.77    0.38
  -2  -2  -6    8.72    0.36
   2  -2   6    9.28    0.41
  -2  -2  -6    8.15    0.33
   2   2   6    8.29    0.37
   2   2   6    8.55    0.39
  -2   2  -6    8.74    0.37
  -3  -2  -6    0.96    0.15
  -3  -2  -6    0.74    0.15
  -3  -2  -6    0.79    0.16
   3  -2   6    0.20    0.16
   3   2   6    0.56    0.18
  -3   2  -6    0.46    0.17
  -4  -2  -6   68.69    1.53
   4  -2   6   65.92    1.59
  -4  -2  -6   67.98    1.56
  -4  -2  -6   66.25    1.58
   4   2   6   67.46    1.58
  -4   2  -6   66.57    1.60
  -5  -2  -6   13.85    0.62
  -5  -2  -6   12.89    0.48
  -5   2  -6   13.68    0.52
  -6  -2  -6    1.14    0.20
   6  -2   6    1.51    0.27
  -6   2  -6    1.45    0.24
   6   2   6    1.45    0.24
   7  -2   6    0.75    0.25
  -7  -2  -6    0.59    0.21
   7   2   6    0.81    0.23
  -7   2  -6    0.72    0.23
  -7   2  -6    0.35    0.24
   8  -2   6   36.75    1.11
  -8   2  -6   35.22    1.07
  -8   2  -6   34.77    1.15
   8   2   6   35.37    1.05
   9  -2   6    2.04    0.36
  -9   2  -6    1.54    0.30
   9   2   6    2.38    0.36
  10  -2   6    7.11    0.56
  10   2   6    7.25    0.54
 -10   2  -6    7.20    0.61
  11  -2   6   -0.01    0.33
 -11   2  -6    0.41    0.58
  11   2   6    0.88    0.33
  12  -2   6    0.96    0.40
  12   2   6    1.28    0.42
  13  -2   6    8.01    0.71
  13   2   6    5.74    0.58
  14  -2   6    2.70    0.57
  14   2   6    2.81    0.56
  15  -2   6    2.97    0.61
  15   2   6    2.72    0.59
  16  -2   6    1.46    0.52
  16   2   6    1.32    0.54
  17  -2   6    0.80    0.55
  17   2   6    1.01    0.58
  17  -3  -6    1.63    0.57
  17   3  -6    0.27    0.59
  16  -3  -6   -0.02    0.52
  16   3  -6   -0.19    0.44
  15  -3  -6    6.51    0.76
  15   3  -6    5.61    0.67
  14  -3  -6   13.46    0.92
  14   3  -6   17.56    1.05
  14   3  -6   15.20    0.98
  13  -3  -6    0.08    0.39
  13   3  -6   -0.11    0.39
  13   3  -6    0.08    0.39
  12  -3  -6    5.01    0.59
  12   3  -6    6.60    0.63
  12   3  -6    5.04    0.56
  11  -3  -6    3.54    0.50
 -11   3   6    4.04    0.54
  11   3  -6    3.39    0.46
  11   3  -6    4.16    0.46
  10  -3  -6   31.13    1.16
  10  -3  -6   29.92    1.08
 -10  -3   6   32.15    0.98
 -10   3   6   29.40    1.14
  10   3  -6   30.80    1.05
  10   3  -6   30.43    1.06
  -9  -3   6    2.79    0.32
   9  -3  -6    2.37    0.38
   9  -3  -6    2.64    0.36
   9   3  -6    2.47    0.34
  -9   3   6    3.26    0.36
   9   3  -6    2.65    0.35
  -9   3   6    2.76    0.40
   8  -3  -6   41.76    1.29
   8  -3  -6   40.95    1.21
  -8  -3   6   40.69    1.09
   8   3  -6   41.49    1.18
  -8   3   6   39.50    1.28
   8   3  -6   40.63    1.15
  -8   3   6   41.19    1.19
  -7  -3   6   31.48    0.95
  -7  -3   6   27.93    0.83
   7  -3  -6   28.38    0.93
   7  -3  -6   28.85    0.99
   7   3  -6   28.11    0.86
  -7   3   6   27.52    0.98
   7   3  -6   28.57    0.89
  -7   3   6   30.03    0.92
  -6  -3   6    0.94    0.20
   6  -3  -6    1.11    0.26
  -6  -3   6    1.15    0.19
   6  -3  -6    1.35    0.26
   6   3  -6    1.05    0.24
   6   3  -6    1.08    0.21
  -6   3   6    1.42    0.30
  -6   3   6    1.32    0.25
  -5  -3   6   43.49    1.08
   5  -3  -6   45.28    1.17
   5  -3  -6   43.59    1.22
  -5  -3   6   43.84    1.08
  -5   3   6   42.49    1.13
  -5   3   6   44.29    1.22
   5   3  -6   44.28    1.14
   5   3  -6   43.10    1.12
   4  -3  -6   84.73    1.96
  -4  -3   6   84.59    1.90
  -4  -3   6   82.52    1.89
   4  -3  -6   82.60    2.00
   4   3  -6   84.45    1.92
   4   3  -6   85.70    1.95
  -4   3   6   83.92    1.94
  -4   3   6   86.61    2.01
   3  -3  -6    9.14    0.42
  -3  -3   6    7.77    0.35
  -3  -3   6    8.16    0.36
   3  -3  -6    8.04    0.40
  -3   3   6    8.10    0.42
   3   3  -6    8.19    0.36
  -3   3   6    7.96    0.39
  -3   3   6    7.99    0.40
   3   3  -6    8.02    0.40
  -2  -3   6   46.17    1.06
   2  -3  -6   44.41    1.10
   2  -3  -6   42.09    1.08
  -2  -3   6   45.04    1.06
   2   3  -6   41.86    1.06
  -2   3   6   42.68    1.10
  -2   3   6   42.29    1.08
   2   3  -6   42.69    1.10
  -2   3   6   43.51    1.09
  -1  -3   6   76.89    1.70
   1  -3  -6   72.55    1.69
   1  -3  -6   75.13    1.73
  -1  -3   6   77.27    1.70
  -1   3   6   76.98    1.73
  -1   3   6   73.86    1.72
  -1   3   6   74.96    1.72
   1   3  -6   75.15    1.74
   1   3  -6   74.18    1.70
   0  -3   6   77.89    1.74
   0  -3  -6   76.18    1.76
   0  -3   6   77.38    1.75
   0   3  -6   77.73    1.75
   0   3   6   75.82    1.75
   0   3   6   78.10    1.77
   0   3   6   78.04    1.76
   1  -3   6    7.61    0.35
   1  -3   6    7.59    0.36
  -1  -3  -6    8.54    0.33
   1   3   6    8.21    0.36
   1   3   6    7.23    0.36
  -1   3  -6    8.09    0.37
   1   3   6    7.65    0.37
  -2  -3  -6   37.61    0.93
   2  -3   6   37.99    0.99
   2  -3   6   37.51    0.96
   2   3   6   37.41    0.98
   2   3   6   37.47    0.96
  -2   3  -6   37.52    0.98
  -3  -3  -6  104.72    2.26
   3  -3   6  101.98    2.30
   3   3   6  102.59    2.29
  -3   3  -6  103.60    2.32
   4  -3   6   45.95    1.17
  -4  -3  -6   45.88    1.11
   4   3   6   46.04    1.14
  -4   3  -6   44.19    1.16
   5  -3   6   59.01    1.49
  -5  -3  -6   60.54    1.42
   5   3   6   60.79    1.45
  -5   3  -6   59.10    1.49
   6  -3   6   74.97    1.83
  -6  -3  -6   74.73    1.74
   6   3   6   75.16    1.78
  -6   3  -6   76.13    1.84
   7  -3   6    7.66    0.53
  -7   3  -6    7.89    0.51
   7   3   6    7.71    0.47
  -7   3  -6    8.43    0.59
   8  -3   6    1.24    0.29
  -8   3  -6    1.99    0.37
  -8   3  -6    0.98    0.28
   8   3   6    1.45    0.30
   9  -3   6   12.14    0.66
   9   3   6   11.28    0.61
  -9   3  -6   11.14    0.75
  -9   3  -6   10.52    0.69
  10  -3   6   25.63    1.01
 -10   3  -6   26.71    1.08
  10   3   6   27.62    0.97
  11  -3   6    1.66    0.43
  11   3   6    1.40    0.34
  12  -3   6    4.43    0.58
  12   3   6    5.26    0.56
  13  -3   6   10.61    0.89
  13   3   6   11.41    0.84
  14  -3   6    5.81    0.63
  14   3   6    5.54    0.63
  15  -3   6    0.44    0.49
  15   3   6    0.41    0.43
  16  -3   6    4.16    0.62
  16   3   6    4.43    0.66
  16  -4  -6    6.24    0.78
  16   4  -6    4.93    0.69
  15  -4  -6   -0.03    0.52
  15   4  -6    0.07    0.50
  15   4  -6    0.63    0.51
  14  -4  -6    1.83    0.53
  14   4  -6    2.39    0.56
  14   4  -6    1.68    0.52
  13  -4  -6    3.59    0.58
  13   4  -6    3.63    0.56
  13   4  -6    4.41    0.58
 -12  -4   6    0.99    0.34
  12  -4  -6    0.58    0.39
  12   4  -6    0.40    0.39
  12   4  -6    1.06    0.40
  11  -4  -6    2.68    0.47
 -11  -4   6    3.03    0.36
  11   4  -6    1.76    0.41
  11   4  -6    1.94    0.41
 -10  -4   6   18.60    0.70
  10  -4  -6   19.06    0.87
 -10   4   6   17.70    0.92
  10   4  -6   19.04    0.85
  10   4  -6   18.39    0.81
   9  -4  -6   24.72    0.93
  -9  -4   6   23.35    0.77
   9   4  -6   23.71    0.87
   9   4  -6   24.77    0.87
  -9   4   6   23.94    0.91
  -9   4   6   23.04    1.01
   8  -4  -6   -0.08    0.27
  -8  -4   6    0.03    0.20
   8   4  -6    0.06    0.25
   8   4  -6    0.40    0.24
  -8   4   6   -0.15    0.27
  -8   4   6    0.42    0.28
   7  -4  -6   -0.04    0.24
  -7  -4   6    0.04    0.18
   7   4  -6    0.21    0.23
   7   4  -6   -0.03    0.20
  -7   4   6    0.07    0.25
  -7   4   6    0.09    0.22
  -6  -4   6   56.32    1.38
   6  -4  -6   56.57    1.47
  -6  -4   6   57.78    1.36
  -6   4   6   57.33    1.47
   6   4  -6   56.82    1.44
   6   4  -6   58.93    1.42
  -6   4   6   57.47    1.58
   5  -4  -6   43.84    1.16
  -5  -4   6   44.16    1.07
  -5  -4   6   42.35    1.07
  -5   4   6   43.14    1.25
  -5   4   6   43.81    1.16
   5   4  -6   43.53    1.11
   5   4  -6   43.48    1.15
  -4  -4   6   18.24    0.56
   4  -4  -6   19.12    0.64
  -4  -4   6   17.91    0.55
  -4   4   6   18.36    0.63
  -4   4   6   17.38    0.69
   4   4  -6   18.90    0.63
  -3  -4   6   37.94    0.92
   3  -4  -6   37.31    0.99
  -3  -4   6   36.34    0.91
   3   4  -6   36.23    0.93
  -3   4   6   36.55    0.99
   3   4  -6   37.36    0.99
  -3   4   6   36.80    1.03
   2  -4  -6   11.90    0.47
  -2  -4   6   11.98    0.42
  -2  -4   6   12.16    0.41
  -2   4   6   12.35    0.50
  -2   4   6   12.41    0.48
   2   4  -6   11.88    0.44
   2   4  -6   11.19    0.49
  -2   4   6   12.22    0.48
  -1  -4   6   20.04    0.58
  -1  -4   6   19.46    0.56
  -1   4   6   20.44    0.62
   1   4  -6   18.92    0.60
  -1   4   6   20.16    0.63
  -1   4   6   19.18    0.62
   0  -4   6   25.28    0.68
   0  -4   6   24.75    0.69
   0   4  -6   25.79    0.71
   0   4   6   24.39    0.72
   0   4   6   24.12    0.71
   0   4   6   25.84    0.73
   1  -4   6   77.42    1.73
   1  -4   6   77.25    1.75
   1   4   6   75.80    1.74
   1   4   6   75.38    1.76
   1   4   6   76.28    1.75
  -1   4  -6   77.92    1.77
   2  -4   6    0.80    0.18
   2  -4   6    1.21    0.20
   2   4   6    0.83    0.19
   2   4   6    0.92    0.19
   2   4   6    0.74    0.17
  -2   4  -6    1.10    0.20
  -3  -4  -6    0.43    0.14
   3  -4   6    0.47    0.20
   3  -4   6    0.29    0.17
   3   4   6    0.46    0.18
   3   4   6    0.26    0.18
  -3   4  -6    0.61    0.19
  -4  -4  -6   23.11    0.65
   4  -4   6   22.89    0.74
   4   4   6   23.23    0.70
  -4   4  -6   23.22    0.73
   5  -4   6   21.20    0.74
  -5  -4  -6   21.22    0.63
  -5   4  -6   22.47    0.74
   5   4   6   21.99    0.70
  -6  -4  -6    0.19    0.17
   6  -4   6    0.27    0.23
   6   4   6    0.05    0.22
  -6   4  -6    0.35    0.23
   7  -4   6   44.63    1.31
   7   4   6   43.48    1.21
  -7   4  -6   46.55    1.29
   8  -4   6    2.90    0.40
  -8   4  -6    2.97    0.37
  -8   4  -6    2.35    0.39
   8   4   6    3.51    0.36
   9  -4   6    0.02    0.29
  -9   4  -6    0.07    0.31
   9   4   6    0.06    0.27
  -9   4  -6   -0.08    0.30
  10  -4   6    0.43    0.32
  10   4   6    0.15    0.30
 -10   4  -6    0.18    0.30
  11  -4   6    9.93    0.78
  11   4   6    8.70    0.66
  12  -4   6   14.85    0.91
  12   4   6   12.57    0.81
  13  -4   6    2.14    0.52
  13   4   6    1.60    0.46
  14  -4   6    1.71    0.51
  14   4   6    1.75    0.49
  15  -4   6    0.84    0.46
  15   4   6    0.68    0.48
  16  -4   6    1.90    0.53
  16   4   6    2.19    0.57
  15   5  -6    0.52    0.51
  15   5  -6    0.47    0.48
  14  -5  -6   -0.51    0.48
  14   5  -6    0.44    0.48
  14   5  -6   -0.32    0.44
  13  -5  -6    0.63    0.45
  13   5  -6    0.34    0.43
  13   5  -6    0.80    0.46
  12  -5  -6   -0.34    0.35
  12   5  -6    0.09    0.39
  12   5  -6   -0.33    0.37
  11  -5  -6    1.65    0.42
  11   5  -6    1.75    0.41
  11   5  -6    1.42    0.38
  10  -5  -6   -0.09    0.34
  10   5  -6    0.40    0.31
 -10   5   6    0.42    0.40
  10   5  -6    0.20    0.32
   9  -5  -6    0.10    0.30
  -9  -5   6    0.03    0.19
  -9   5   6    0.13    0.34
  -9   5   6    0.08    0.28
   9   5  -6    0.30    0.28
   9   5  -6    0.07    0.29
   8  -5  -6    2.50    0.37
  -8   5   6    3.05    0.45
  -8   5   6    2.46    0.34
   8   5  -6    2.75    0.34
   8   5  -6    2.27    0.34
  -7  -5   6    2.23    0.23
   7  -5  -6    1.92    0.33
  -7   5   6    2.20    0.41
   7   5  -6    2.40    0.31
   7   5  -6    2.07    0.29
   6  -5  -6    1.79    0.29
  -6   5   6    0.53    0.32
   6   5  -6    1.06    0.23
  -6   5   6    0.76    0.26
  -5  -5   6    4.16    0.28
   5  -5  -6    4.05    0.34
  -5  -5   6    4.81    0.28
  -5   5   6    3.95    0.41
   5   5  -6    4.24    0.34
   5   5  -6    3.68    0.30
  -5   5   6    4.12    0.34
   4  -5  -6   -0.24    0.19
  -4  -5   6    0.07    0.13
  -4  -5   6    0.06    0.13
  -4   5   6   -0.21    0.20
   4   5  -6    0.04    0.20
  -4   5   6   -0.16    0.23
  -3  -5   6    0.14    0.12
   3  -5  -6   -0.18    0.18
  -3  -5   6   -0.06    0.12
  -3   5   6    0.00    0.18
   3   5  -6    0.32    0.20
  -3   5   6   -0.31    0.21
   3   5  -6   -0.16    0.16
  -2  -5   6    1.02    0.15
  -2  -5   6    0.88    0.14
   2  -5  -6    0.60    0.19
  -2   5   6    1.32    0.22
  -2   5   6    0.67    0.22
   2   5  -6    0.93    0.19
  -2   5   6    1.04    0.24
  -1  -5   6    3.70    0.26
  -1  -5   6    4.10    0.25
  -1   5   6    4.13    0.35
  -1   5   6    4.00    0.32
   1   5  -6    3.87    0.31
  -1   5   6    3.36    0.29
   0  -5   6    0.49    0.15
   0  -5   6    0.49    0.15
   0   5   6    0.40    0.19
   0   5   6    0.50    0.18
   0   5  -6    0.62    0.19
   0   5   6    0.36    0.17
   1  -5   6    6.93    0.34
   1   5   6    6.69    0.37
   1   5   6    6.39    0.36
   1   5   6    6.46    0.37
  -1   5  -6    6.57    0.37
   2  -5   6    0.58    0.19
   2  -5   6    0.71    0.19
   2   5   6    0.82    0.19
   2   5   6    0.66    0.19
  -2   5  -6    0.87    0.21
   2   5   6    0.81    0.18
   3  -5   6    0.36    0.19
   3  -5   6    0.58    0.20
   3   5   6    0.54    0.19
  -3   5  -6    0.41    0.20
   3   5   6    0.46    0.19
   4  -5   6    3.97    0.34
   4   5   6    4.41    0.36
   4   5   6    3.84    0.29
  -4   5  -6    4.07    0.34
  -5  -5  -6    0.11    0.14
   5  -5   6    0.43    0.24
   5   5   6    0.00    0.19
  -5   5  -6   -0.21    0.20
  -6  -5  -6   14.22    0.48
   6  -5   6   13.90    0.70
   6   5   6   13.78    0.58
  -6   5  -6   16.52    0.67
   7  -5   6    0.82    0.31
   7   5   6    0.54    0.25
  -7   5  -6    0.89    0.30
   8  -5   6    0.11    0.29
  -8   5  -6    0.05    0.28
   8   5   6    0.00    0.25
  -8   5  -6    0.04    0.31
   9  -5   6    0.58    0.35
  -9   5  -6    0.11    0.31
  -9   5  -6    0.15    0.30
   9   5   6    0.71    0.29
  10  -5   6    1.78    0.42
  10   5   6    1.01    0.33
  11  -5   6    1.44    0.43
  11   5   6    0.89    0.35
  12  -5   6    0.98    0.43
  12   5   6    0.34    0.37
  13  -5   6    0.68    0.43
  13   5   6    0.58    0.41
  14  -5   6    0.58    0.55
  14   5   6   -0.11    0.43
  15   5   6    1.43    0.52
  14   6  -6    5.68    0.67
  14   6  -6    7.72    0.78
  13   6  -6    3.15    0.54
  13   6  -6    4.64    0.63
  12   6  -6    6.95    0.63
  12   6  -6    6.05    0.59
  11   6  -6    1.27    0.40
  11   6  -6    0.92    0.39
  10  -6  -6   14.11    0.97
  10   6  -6   13.58    0.74
  10   6  -6   14.06    0.75
   9  -6  -6   13.45    0.75
   9   6  -6   12.94    0.68
  -9   6   6   12.55    0.86
   9   6  -6   13.59    0.68
   8  -6  -6    0.22    0.30
  -8   6   6    0.82    0.39
   8   6  -6    0.47    0.29
   8   6  -6    0.24    0.26
   7  -6  -6    2.09    0.33
  -7  -6   6    1.47    0.15
  -7  -6   6    1.82    0.15
  -7   6   6    1.99    0.35
   7   6  -6    1.87    0.30
  -7   6   6    1.25    0.38
   7   6  -6    1.90    0.29
   6  -6  -6   22.44    0.77
  -6  -6   6   21.75    0.51
  -6   6   6   23.10    0.95
  -6   6   6   23.06    0.83
   6   6  -6   22.34    0.76
   6   6  -6   22.68    0.74
   5  -6  -6   11.41    0.53
  -5   6   6   12.20    0.57
  -5   6   6   11.17    0.68
   5   6  -6   11.76    0.54
   4  -6  -6    3.11    0.29
  -4   6   6    3.53    0.33
  -4   6   6    4.04    0.42
   4   6  -6    3.70    0.32
  -3   6   6   21.11    0.73
  -3   6   6   22.99    0.73
  -3   6   6   22.67    0.82
   3   6  -6   22.72    0.66
  -2   6   6    8.86    0.44
   2   6  -6    8.27    0.40
  -2   6   6    9.31    0.52
  -2   6   6    7.88    0.45
  -1  -6   6   20.33    0.54
  -1  -6   6   22.48    0.52
  -1   6   6   21.99    0.69
  -1   6   6   21.91    0.72
   1   6  -6   21.44    0.66
  -1   6   6   22.19    0.69
   0  -6   6   12.98    0.44
   0  -6   6   14.13    0.40
   0   6   6   14.32    0.54
   0   6   6   13.97    0.54
   0   6  -6   14.64    0.53
   0   6   6   14.13    0.52
   1  -6   6   25.61    0.72
   1  -6   6   26.09    0.67
   1   6   6   24.95    0.75
  -1   6  -6   25.70    0.76
   1   6   6   26.06    0.75
   1   6   6   26.62    0.76
   2  -6   6    7.32    0.40
   2  -6   6    7.58    0.36
  -2   6  -6    7.47    0.42
   2   6   6    7.33    0.39
   2   6   6    6.67    0.40
   2   6   6    7.48    0.40
   3   6   6    0.39    0.20
  -3   6  -6    0.17    0.20
   3   6   6    0.10    0.19
   4  -6   6   16.35    0.65
  -4   6  -6   15.33    0.63
   4   6   6   15.92    0.57
   4   6   6   15.97    0.58
   5  -6   6   35.16    1.06
   5   6   6   32.94    0.93
  -5   6  -6   33.44    1.01
   5   6   6   34.10    0.96
   6  -6   6    0.41    0.27
   6   6   6    0.18    0.23
  -6   6  -6    0.03    0.25
   7  -6   6   18.22    0.78
  -7   6  -6   19.67    1.02
   7   6   6   18.91    0.69
   8  -6   6   10.66    0.65
   8   6   6    9.58    0.55
  -8   6  -6    9.95    0.76
   9  -6   6    0.88    0.35
   9   6   6    0.10    0.27
  -9   6  -6    0.28    0.35
  10   6   6    0.81    0.34
  11   6   6    7.34    0.58
  12   6   6    5.47    0.56
  13   6   6    0.20    0.41
  12   7  -6    2.20    0.49
  12   7  -6    2.65    0.49
  11   7  -6    1.52    0.42
  11   7  -6    0.90    0.39
  10   7  -6    1.33    0.38
  10   7  -6    1.05    0.37
   9   7  -6    0.11    0.30
   9   7  -6    0.31    0.31
  -9   7   6    0.37    0.41
   8   7  -6    8.51    0.56
   8   7  -6    8.05    0.57
  -8   7   6    8.53    0.79
   7   7  -6    3.03    0.34
   7   7  -6    2.95    0.33
  -7   7   6    3.04    0.50
  -6   7   6    0.58    0.36
   6   7  -6    0.39    0.24
   6   7  -6    0.33    0.25
   5   7  -6   12.41    0.56
  -5   7   6   11.15    0.73
  -4   7   6   18.79    0.83
  -3   7   6    3.52    0.34
  -3   7   6    3.94    0.41
  -2   7   6    4.64    0.40
  -2   7   6    5.45    0.44
  -1   7   6   15.23    0.71
   1   7  -6   15.13    0.61
  -1   7   6   14.70    0.58
  -1   7   6   15.21    0.62
   0   7  -6    5.05    0.43
   0   7   6    5.00    0.39
   0   7   6    5.55    0.42
   0   7   6    5.09    0.42
   1   7   6   -0.04    0.20
   1   7   6    0.16    0.21
   1   7   6    0.20    0.21
   2  -7   6   12.95    0.39
   2  -7   6   13.24    0.37
   2   7   6   12.07    0.52
   2   7   6   12.63    0.51
   3   7   6   17.18    0.61
   3   7   6   17.95    0.60
   4   7   6    0.12    0.21
   5   7   6   14.26    0.55
   6   7   6   10.28    0.51
  -7   7  -6    6.77    0.62
   7   7   6    5.98    0.45
  -8   7  -6    0.54    0.42
   8   7   6   -0.19    0.25
   9   7   6   11.40    0.64
  10   7   6    5.33    0.48
  11   7   6    0.16    0.34
  12   7   6    0.14    0.36
  10   8  -6    0.56    0.38
  10   8  -6    0.70    0.34
   9   8  -6    0.62    0.34
   9   8  -6    0.21    0.30
   8   8  -6    0.78    0.30
  -8   8   6    0.92    0.47
   8   8  -6    0.93    0.32
   7   8  -6    0.75    0.30
   7   8  -6    0.97    0.29
  -7   8   6    1.09    0.45
  -6   8   6    1.19    0.42
   6   8  -6    0.97    0.27
  -5   8   6   -0.01    0.36
  -4   8   6    1.01    0.31
  -4   8   6    0.65    0.36
  -3   8   6    3.98    0.44
  -3   8   6    3.76    0.36
  -2   8   6    1.05    0.31
  -2   8   6    0.74    0.27
  -1   8   6    0.15    0.25
  -1   8   6    0.44    0.24
   0   8   6    0.79    0.25
   0   8   6    0.67    0.23
   1   8   6    0.03    0.20
   1   8   6    0.01    0.21
   2   8   6    0.71    0.22
   2   8   6    0.62    0.21
   3   8   6    0.41    0.22
   3   8   6    0.41    0.20
   4   8   6    0.43    0.21
   5   8   6    3.78    0.30
   6   8   6    0.11    0.22
  -7   8  -6    0.70    0.41
   7   8   6    0.71    0.26
  -8   8  -6    0.25    0.46
   8   8   6    0.33    0.26
   9   8   6    0.91    0.31
  10   8   6    0.39    0.32
  -7   9   6    1.89    0.51
   7   9  -6    1.61    0.34
   6   9  -6   -0.07    0.28
  -6   9   6   -0.36    0.39
  -5   9   6    2.43    0.48
  -5   9   6    2.85    0.39
  -4   9   6    3.06    0.47
  -4   9   6    2.75    0.37
  -3   9   6    0.01    0.28
  -3   9   6   -0.26    0.31
  -2   9   6    0.37    0.27
  -2   9   6    0.45    0.32
  -1   9   6    3.33    0.38
  -1   9   6    3.31    0.32
   0   9   6    1.64    0.30
   0   9   6    1.43    0.25
   1   9   6    1.51    0.28
   1   9   6    1.12    0.24
   2   9   6    1.80    0.23
   2   9   6    1.74    0.29
  -6   9  -6    2.33    0.50
  17   0  -7    0.27    0.49
  16   0  -7   -0.48    0.49
  15   0  -7   -0.50    0.43
  14   0  -7   -0.45    0.44
  13   0  -7    0.20    0.40
  12   0  -7   -0.33    0.40
  12   0  -7   -0.22    0.33
  11   0  -7   -0.38    0.36
 -11   0   7   -0.26    0.24
  11   0  -7    0.23    0.34
  10   0  -7   -0.01    0.34
  10   0  -7    0.03    0.28
 -10   0   7   -0.05    0.24
   9   0  -7   -0.19    0.28
  -9   0   7    0.01    0.27
   9   0  -7    0.22    0.26
   8   0  -7    0.10    0.25
  -8   0   7   -0.10    0.20
   8   0  -7    0.16    0.24
  -7   0   7   -0.07    0.20
   7   0  -7    0.15    0.21
   7   0  -7    0.00    0.22
  -7   0   7   -0.22    0.19
  -6   0   7   -0.05    0.18
   6   0  -7    0.36    0.22
  -6   0   7   -0.05    0.22
   6   0  -7    0.30    0.20
  -6   0   7    0.11    0.18
  -5   0   7    0.09    0.20
   5   0  -7    0.10    0.19
  -5   0   7   -0.23    0.15
   5   0  -7    0.04    0.15
  -5   0   7   -0.15    0.17
   4   0  -7   -0.03    0.17
   4   0  -7   -0.04    0.14
  -4   0   7   -0.11    0.16
  -4   0   7    0.07    0.15
  -4   0   7   -0.29    0.17
   3   0  -7    0.10    0.19
   3   0  -7   -0.07    0.15
  -3   0   7   -0.08    0.16
  -3   0   7   -0.16    0.15
  -2   0   7   -0.10    0.17
   2   0  -7   -0.02    0.13
  -2   0   7   -0.13    0.14
   2   0  -7   -0.04    0.14
   2   0  -7   -0.04    0.16
  -1   0   7   -0.14    0.17
   1   0  -7   -0.06    0.14
   1   0  -7    0.06    0.17
  -1   0   7   -0.02    0.13
   1   0  -7    0.08    0.14
   0   0   7   -0.11    0.14
   0   0  -7   -0.05    0.14
   0   0  -7    0.10    0.10
   0   0   7    0.03    0.15
   1   0   7    0.02    0.15
  -1   0  -7   -0.05    0.14
   1   0   7    0.01    0.16
   2   0   7   -0.23    0.17
  -2   0  -7    0.04    0.15
   2   0   7    0.03    0.17
  -3   0  -7    0.04    0.18
  -4   0  -7   -0.08    0.16
   5   0   7   -0.14    0.17
  -5   0  -7   -0.05    0.16
   6   0   7   -0.11    0.19
  -6   0  -7    0.22    0.21
  -6   0  -7    0.00    0.19
   7   0   7   -0.09    0.25
  -7   0  -7   -0.12    0.21
  -7   0  -7   -0.06    0.19
  -8   0  -7    0.15    0.24
   8   0   7    0.32    0.26
  -9   0  -7   -0.12    0.22
   9   0   7   -0.15    0.26
  10   0   7    0.03    0.32
 -10   0  -7   -0.32    0.27
 -11   0  -7    0.48    0.54
  11   0   7   -0.01    0.32
  12   0   7   -0.07    0.35
  13   0   7    0.04    0.43
  14   0   7    0.30    0.47
  15   0   7   -0.02    0.44
  16   0   7    1.06    0.57
  17   0   7    0.23    0.51
  17  -1  -7   -0.04    0.51
  17   1  -7    0.15    0.50
  16  -1  -7    2.76    0.61
  16   1  -7    2.83    0.60
  15  -1  -7    6.22    0.71
  15   1  -7    5.81    0.68
  14  -1  -7    0.47    0.50
  14   1  -7    0.15    0.47
  13  -1  -7    3.36    0.58
  13   1  -7    3.53    0.56
  13   1  -7    2.92    0.50
  12  -1  -7   23.47    1.04
  12   1  -7   21.50    1.05
  12   1  -7   22.41    1.05
  11  -1  -7    4.88    0.53
  11  -1  -7    4.68    0.49
  11   1  -7    6.22    0.57
  11   1  -7    4.35    0.50
 -11   1   7    4.47    0.48
  10  -1  -7    1.65    0.38
  10  -1  -7    2.00    0.41
  10   1  -7    1.32    0.38
  10   1  -7    1.71    0.35
 -10   1   7    1.23    0.32
   9  -1  -7   87.12    2.15
   9  -1  -7   82.52    2.16
   9   1  -7   86.51    2.14
   9   1  -7   81.75    2.10
  -9   1   7   81.83    2.14
  -8  -1   7   35.15    1.01
   8  -1  -7   33.58    1.08
   8  -1  -7   33.96    1.06
   8   1  -7   33.25    1.05
  -8   1   7   35.21    1.04
  -8   1   7   32.22    1.06
   8   1  -7   33.84    1.05
   7  -1  -7    1.69    0.29
  -7  -1   7    1.91    0.26
  -7  -1   7    2.00    0.28
  -7  -1   7    2.01    0.26
   7  -1  -7    1.86    0.30
   7   1  -7    1.67    0.31
  -7   1   7    1.61    0.26
   7   1  -7    1.79    0.26
  -7   1   7    2.56    0.31
   6  -1  -7   45.65    1.26
   6  -1  -7   47.19    1.27
  -6  -1   7   46.55    1.22
  -6  -1   7   47.71    1.22
  -6  -1   7   44.87    1.19
  -6   1   7   47.98    1.27
   6   1  -7   45.59    1.24
  -6   1   7   48.96    1.24
   6   1  -7   45.64    1.23
  -5  -1   7   69.06    1.61
   5  -1  -7   66.35    1.64
   5  -1  -7   66.63    1.64
  -5  -1   7   68.04    1.59
  -5   1   7   66.30    1.62
   5   1  -7   62.67    1.62
   5   1  -7   67.00    1.62
  -5   1   7   67.93    1.65
  -5   1   7   69.07    1.62
   4  -1  -7   22.78    0.72
  -4  -1   7   23.20    0.69
   4  -1  -7   22.75    0.71
  -4  -1   7   23.42    0.68
   4   1  -7   22.09    0.71
  -4   1   7   22.28    0.69
   4   1  -7   22.53    0.70
  -4   1   7   22.07    0.69
  -4   1   7   21.84    0.70
   3  -1  -7   26.03    0.80
  -3  -1   7   26.32    0.76
  -3  -1   7   27.41    0.76
   3  -1  -7   26.75    0.77
   3   1  -7   26.83    0.77
   3   1  -7   26.17    0.79
  -3   1   7   25.74    0.76
  -3   1   7   26.32    0.77
  -3   1   7   25.77    0.76
   2  -1  -7   85.40    2.00
   2  -1  -7   87.72    1.98
  -2  -1   7   86.08    1.97
  -2  -1   7   86.55    1.97
  -2   1   7   87.97    1.99
   2   1  -7   87.24    1.98
   2   1  -7   87.61    2.01
  -2   1   7   86.78    1.99
  -2   1   7   86.80    1.98
   2   1  -7   86.42    1.96
   1  -1  -7    6.79    0.33
   1  -1  -7    6.65    0.37
  -1  -1   7    7.21    0.37
  -1  -1   7    6.29    0.36
   1  -1  -7    6.97    0.35
  -1   1   7    6.62    0.36
  -1   1   7    6.41    0.36
   1   1  -7    6.93    0.35
   1   1  -7    7.06    0.38
   0  -1  -7   73.07    1.67
   0  -1   7   73.58    1.70
   0  -1   7   70.92    1.67
   0  -1  -7   72.99    1.68
   0   1   7   71.66    1.68
   0   1   7   73.75    1.70
   0   1  -7   72.72    1.68
   1  -1   7   33.78    0.91
   1  -1   7   31.93    0.87
  -1  -1  -7   33.07    0.87
  -1  -1  -7   33.04    0.87
   1   1   7   32.46    0.89
   1   1   7   32.55    0.87
  -1   1  -7   32.10    0.87
   2  -1   7  320.29    6.59
  -2  -1  -7  308.97    6.53
   2  -1   7  309.66    6.54
  -2   1  -7  313.26    6.54
   2   1   7  313.48    6.57
   2   1   7  308.68    6.54
   3  -1   7    8.89    0.42
  -3  -1  -7    8.89    0.42
   3   1   7    9.71    0.42
  -3   1  -7    9.31    0.43
  -4  -1  -7   35.73    0.96
   4  -1   7   36.91    0.98
   4   1   7   36.37    0.98
  -4   1  -7   34.70    0.96
  -5  -1  -7    2.16    0.26
   5  -1   7    2.66    0.30
  -5  -1  -7    2.70    0.26
   5   1   7    2.07    0.26
  -5   1  -7    2.68    0.28
   6  -1   7   60.47    1.52
  -6  -1  -7   59.99    1.56
  -6  -1  -7   59.43    1.49
   6   1   7   62.01    1.52
  -6   1  -7   61.14    1.52
  -7  -1  -7    1.30    0.22
   7  -1   7    2.09    0.32
   7   1   7    2.02    0.31
  -7   1  -7    2.58    0.36
  -7   1  -7    2.14    0.29
  -8  -1  -7   77.29    2.05
   8  -1   7   79.00    1.96
   8   1   7   78.76    1.94
  -8   1  -7   76.66    2.02
   9  -1   7    7.33    0.54
   9   1   7    8.53    0.60
  -9   1  -7    6.09    0.54
  10  -1   7    0.45    0.34
 -10   1  -7    0.23    0.27
  10   1   7    0.25    0.30
  11  -1   7    0.97    0.40
  11   1   7    0.26    0.32
  12  -1   7   24.11    1.04
  12   1   7   23.68    1.00
  13  -1   7   18.86    1.00
  13   1   7   21.47    1.07
  14  -1   7    1.63    0.49
  14   1   7    2.74    0.53
  15  -1   7    7.91    0.79
  15   1   7    7.01    0.71
  16  -1   7    0.94    0.59
  16   1   7    0.57    0.49
  17  -1   7    2.07    0.62
  17   1   7    1.77    0.63
  17  -2  -7    0.87    0.62
  17   2  -7    0.80    0.60
  16  -2  -7    2.44    0.60
  16   2  -7    3.44    0.61
  15  -2  -7   -0.19    0.51
  15   2  -7   -0.04    0.48
  14  -2  -7    5.35    0.65
  14   2  -7    6.25    0.70
  13  -2  -7    8.36    0.72
  13   2  -7    9.10    0.82
  13   2  -7    8.65    0.73
  12  -2  -7    0.42    0.43
  12   2  -7    0.33    0.40
  12   2  -7    0.54    0.41
  11  -2  -7   17.45    0.96
  11  -2  -7   16.20    0.86
  11   2  -7   17.32    0.89
  11   2  -7   18.60    0.89
  10  -2  -7   37.71    1.30
  10  -2  -7   36.72    1.25
  10   2  -7   36.70    1.20
 -10   2   7   35.67    1.26
  10   2  -7   38.60    1.25
  -9  -2   7   11.88    0.60
   9  -2  -7   11.66    0.69
   9  -2  -7   10.01    0.65
   9   2  -7   10.36    0.61
   9   2  -7   10.98    0.65
  -9   2   7   10.10    0.66
   8  -2  -7   24.54    0.91
   8  -2  -7   24.39    0.93
  -8  -2   7   24.41    0.80
  -8   2   7   25.24    0.87
  -8   2   7   23.45    0.91
   8   2  -7   24.81    0.85
   8   2  -7   23.97    0.87
  -7  -2   7   90.46    2.12
   7  -2  -7   91.78    2.26
   7  -2  -7   93.13    2.22
  -7   2   7   91.52    2.26
   7   2  -7   88.83    2.17
   7   2  -7   92.73    2.17
  -7   2   7   93.42    2.18
  -6  -2   7    6.83    0.42
  -6  -2   7    7.18    0.40
   6  -2  -7    6.42    0.45
   6  -2  -7    7.16    0.48
  -6   2   7    6.35    0.41
   6   2  -7    6.71    0.43
  -6   2   7    7.57    0.48
   6   2  -7    7.54    0.46
   5  -2  -7   16.01    0.63
   5  -2  -7   15.87    0.62
  -5  -2   7   15.53    0.57
  -5  -2   7   16.60    0.56
   5   2  -7   16.29    0.62
  -5   2   7   15.96    0.63
   5   2  -7   16.01    0.59
  -5   2   7   16.56    0.60
   4  -2  -7   19.54    0.66
   4  -2  -7   20.14    0.69
  -4  -2   7   19.38    0.61
  -4  -2   7   19.78    0.62
   4   2  -7   19.66    0.65
  -4   2   7   19.60    0.66
   4   2  -7   20.49    0.68
  -4   2   7   19.78    0.65
  -4   2   7   20.01    0.68
   3  -2  -7   39.59    1.06
   3  -2  -7   39.47    1.04
  -3  -2   7   39.07    1.01
  -3  -2   7   40.10    1.02
   3   2  -7   40.18    1.03
   3   2  -7   38.88    1.00
   3   2  -7   38.41    1.06
  -3   2   7   40.44    1.05
  -3   2   7   39.85    1.05
  -3   2   7   39.66    1.04
  -2  -2   7    5.31    0.34
   2  -2  -7    5.89    0.38
   2  -2  -7    5.42    0.33
  -2  -2   7    5.61    0.34
  -2   2   7    5.54    0.37
   2   2  -7    6.05    0.34
  -2   2   7    5.59    0.35
  -2   2   7    5.60    0.34
   2   2  -7    5.21    0.38
  -1  -2   7   44.19    1.09
   1  -2  -7   43.00    1.12
   1  -2  -7   42.91    1.07
  -1  -2   7   42.95    1.09
   1   2  -7   44.17    1.08
  -1   2   7   43.14    1.10
  -1   2   7   42.50    1.10
   1   2  -7   42.52    1.13
  -1   2   7   43.05    1.11
   0  -2  -7   62.70    1.47
   0  -2   7   63.93    1.50
   0  -2   7   64.95    1.52
   0  -2  -7   63.14    1.48
   0   2   7   62.13    1.51
   0   2  -7   64.34    1.50
   0   2   7   63.80    1.51
  -1  -2  -7   30.16    0.81
  -1  -2  -7   30.53    0.80
   1  -2   7   29.97    0.82
   1  -2   7   30.87    0.86
   1   2   7   30.28    0.85
  -1   2  -7   30.82    0.83
   1   2   7   28.96    0.83
   2  -2   7   16.99    0.58
   2  -2   7   16.43    0.56
  -2  -2  -7   17.45    0.56
  -2  -2  -7   16.14    0.53
   2   2   7   17.29    0.58
  -2   2  -7   16.38    0.58
   2   2   7   17.89    0.59
  -3  -2  -7   47.11    1.14
   3  -2   7   46.28    1.19
  -3  -2  -7   47.22    1.16
  -3   2  -7   45.12    1.18
   3   2   7   48.71    1.19
  -4  -2  -7  100.23    2.26
   4  -2   7   96.07    2.21
  -4  -2  -7   95.99    2.15
  -4  -2  -7   94.71    2.17
   4   2   7   96.08    2.19
  -4   2  -7   94.93    2.21
  -5  -2  -7    0.31    0.18
   5  -2   7    0.30    0.20
   5   2   7   -0.03    0.20
  -5   2  -7    0.23    0.18
   6  -2   7   14.05    0.61
  -6  -2  -7   14.06    0.56
  -6   2  -7   14.13    0.60
   6   2   7   13.63    0.56
   7  -2   7   28.27    0.92
  -7   2  -7   28.38    0.93
   7   2   7   29.50    0.92
  -7   2  -7   28.06    1.02
   8  -2   7    1.62    0.32
  -8   2  -7    2.64    0.42
  -8   2  -7    2.71    0.39
   8   2   7    2.30    0.35
   9  -2   7    1.11    0.33
   9   2   7    1.04    0.31
  -9   2  -7    1.79    0.40
  10  -2   7   35.03    1.19
 -10   2  -7   36.65    1.27
  10   2   7   36.99    1.16
  11  -2   7   21.99    1.01
  11   2   7   22.52    0.92
  12  -2   7    2.23    0.49
  12   2   7    2.69    0.49
  13  -2   7    1.58    0.47
  13   2   7    1.64    0.49
  14  -2   7   18.29    1.10
  14   2   7   17.82    1.00
  15  -2   7    4.34    0.69
  15   2   7    4.09    0.66
  16  -2   7    3.97    0.69
  16   2   7    2.93    0.65
  16  -3  -7    3.20    0.70
  16   3  -7    2.87    0.65
  15  -3  -7    0.60    0.48
  15   3  -7   -0.66    0.45
  14  -3  -7    0.58    0.51
  14   3  -7    0.28    0.48
  14   3  -7    0.50    0.48
 -13  -3   7    3.66    0.50
  13  -3  -7    4.20    0.58
  13   3  -7    4.00    0.60
  13   3  -7    2.37    0.53
  12  -3  -7    9.00    0.74
 -12  -3   7    9.10    0.66
  12   3  -7    9.90    0.80
  12   3  -7    8.91    0.70
  11  -3  -7   -0.31    0.33
 -11  -3   7    0.13    0.31
  11   3  -7    0.08    0.35
  11   3  -7   -0.11    0.32
  10  -3  -7    2.90    0.42
 -10  -3   7    3.41    0.39
  10  -3  -7    3.75    0.48
 -10   3   7    2.69    0.42
  10   3  -7    3.64    0.41
  10   3  -7    3.03    0.45
  -9  -3   7    8.14    0.50
   9  -3  -7    8.27    0.62
   9  -3  -7    7.49    0.57
  -9   3   7    8.07    0.64
   9   3  -7    8.12    0.57
   9   3  -7    7.06    0.58
  -8  -3   7    3.00    0.32
   8  -3  -7    3.08    0.38
   8  -3  -7    3.62    0.44
   8   3  -7    2.64    0.31
  -8   3   7    2.33    0.37
   8   3  -7    2.40    0.34
  -8   3   7    2.82    0.34
  -7  -3   7   11.36    0.51
   7  -3  -7   10.99    0.61
   7  -3  -7   12.45    0.64
   7   3  -7   11.18    0.55
  -7   3   7   12.07    0.58
  -7   3   7   11.04    0.63
   7   3  -7   10.54    0.57
  -6  -3   7   25.42    0.82
   6  -3  -7   24.28    0.87
   6  -3  -7   23.66    0.80
  -6  -3   7   24.75    0.75
  -6   3   7   23.59    0.87
   6   3  -7   24.49    0.81
   6   3  -7   24.46    0.78
  -6   3   7   24.28    0.81
   5  -3  -7   10.83    0.54
  -5  -3   7   10.54    0.44
   5  -3  -7   10.39    0.53
  -5  -3   7    9.80    0.44
  -5   3   7   10.21    0.50
   5   3  -7    9.99    0.51
  -5   3   7   10.42    0.54
   5   3  -7   10.48    0.48
   4  -3  -7   16.99    0.64
   4  -3  -7   17.10    0.64
  -4  -3   7   18.14    0.58
  -4  -3   7   16.79    0.56
  -4   3   7   17.34    0.66
  -4   3   7   18.17    0.61
   4   3  -7   17.18    0.60
   4   3  -7   17.34    0.63
  -3  -3   7    8.32    0.38
   3  -3  -7    8.09    0.41
  -3  -3   7    8.29    0.41
   3  -3  -7    8.82    0.45
   3   3  -7    7.80    0.44
  -3   3   7    8.35    0.43
  -3   3   7    8.01    0.44
   3   3  -7    8.36    0.39
  -3   3   7    8.84    0.45
   2  -3  -7    3.74    0.28
   2  -3  -7    2.91    0.27
  -2  -3   7    3.45    0.27
  -2  -3   7    3.63    0.30
  -2   3   7    3.08    0.27
  -2   3   7    3.93    0.32
   2   3  -7    3.19    0.25
   2   3  -7    3.99    0.32
  -2   3   7    3.11    0.29
  -1  -3   7    0.70    0.18
  -1  -3   7    0.49    0.17
   1  -3  -7    0.82    0.17
   1  -3  -7    0.49    0.20
   1   3  -7    0.56    0.21
  -1   3   7    0.23    0.18
  -1   3   7    0.42    0.20
   1   3  -7    0.41    0.17
  -1   3   7    0.27    0.16
   0  -3   7   26.92    0.76
   0  -3   7   25.92    0.76
   0   3   7   26.42    0.76
   0   3   7   26.97    0.78
   0   3  -7   27.83    0.77
   0   3   7   27.15    0.78
   1  -3   7   23.81    0.72
   1  -3   7   23.62    0.70
  -1  -3  -7   23.96    0.67
   1   3   7   23.12    0.71
   1   3   7   22.94    0.70
  -1   3  -7   24.28    0.72
   2  -3   7    7.61    0.40
   2  -3   7    8.03    0.42
  -2  -3  -7    8.41    0.38
   2   3   7    8.58    0.42
  -2   3  -7    7.93    0.41
   2   3   7    8.31    0.43
   3  -3   7    3.63    0.30
   3  -3   7    4.45    0.35
  -3  -3  -7    3.53    0.29
  -3   3  -7    3.57    0.31
   3   3   7    3.30    0.28
   3   3   7    3.89    0.31
  -4  -3  -7    4.36    0.32
   4  -3   7    5.87    0.41
   4   3   7    5.31    0.38
  -4   3  -7    3.49    0.30
   5  -3   7   34.98    0.99
  -5  -3  -7   33.98    0.93
   5   3   7   33.93    0.98
  -5   3  -7   35.84    1.01
   6  -3   7    0.06    0.24
  -6   3  -7   -0.10    0.20
   6   3   7   -0.10    0.21
   7  -3   7    0.03    0.23
  -7   3  -7   -0.11    0.21
   7   3   7    0.14    0.24
   8  -3   7    2.88    0.37
  -8   3  -7    3.76    0.39
   8   3   7    2.61    0.34
  -8   3  -7    3.26    0.42
   9  -3   7    3.52    0.44
   9   3   7    3.60    0.41
  -9   3  -7    2.88    0.42
  10  -3   7    1.25    0.40
  10   3   7    0.99    0.36
 -10   3  -7    1.93    0.43
  11  -3   7    4.14    0.55
  11   3   7    4.40    0.50
  12  -3   7    5.47    0.60
  12   3   7    7.34    0.63
  13  -3   7    1.13    0.45
  13   3   7    1.20    0.47
  14  -3   7    0.23    0.45
  14   3   7    0.61    0.48
  15  -3   7    1.42    0.56
  15   3   7    1.62    0.55
  16  -3   7    2.01    0.59
  16   3   7    1.44    0.57
  16  -4  -7    0.13    0.52
  16   4  -7   -0.20    0.53
  15  -4  -7    1.85    0.62
  15   4  -7    2.20    0.57
  14  -4  -7    2.75    0.61
  14   4  -7    2.76    0.58
  14   4  -7    4.53    0.68
  13  -4  -7    3.69    0.57
  13   4  -7    4.84    0.61
  13   4  -7    4.64    0.62
  12  -4  -7   -0.01    0.38
 -12  -4   7    0.13    0.55
  12   4  -7   -0.14    0.37
  12   4  -7   -0.27    0.38
 -11  -4   7    6.15    0.47
  11  -4  -7    6.77    0.62
  11   4  -7    7.10    0.67
  11   4  -7    7.70    0.61
 -10  -4   7    8.05    0.52
  10  -4  -7    7.09    0.58
  10   4  -7    6.36    0.53
 -10   4   7    8.45    0.71
  10   4  -7    8.42    0.63
  -9  -4   7    0.97    0.27
   9  -4  -7    0.98    0.37
   9   4  -7    1.48    0.34
  -9   4   7    0.86    0.36
  -9   4   7    0.76    0.38
   9   4  -7    1.24    0.32
   8  -4  -7    5.28    0.46
  -8  -4   7    5.39    0.41
  -8   4   7    5.21    0.45
  -8   4   7    5.96    0.56
   8   4  -7    5.31    0.44
   8   4  -7    5.39    0.48
   7  -4  -7    6.20    0.51
  -7  -4   7    5.49    0.38
   7   4  -7    5.92    0.47
  -7   4   7    5.93    0.45
   7   4  -7    6.14    0.46
  -7   4   7    5.67    0.50
   6  -4  -7    3.60    0.37
  -6  -4   7    4.07    0.30
   6   4  -7    3.38    0.31
  -6   4   7    3.98    0.40
  -6   4   7    4.07    0.37
   6   4  -7    3.46    0.35
  -5  -4   7    5.16    0.35
  -5  -4   7    4.71    0.33
   5  -4  -7    5.61    0.43
   5   4  -7    4.55    0.37
  -5   4   7    4.48    0.36
   5   4  -7    4.76    0.39
  -5   4   7    5.05    0.47
  -4  -4   7    8.67    0.40
   4  -4  -7    8.32    0.47
  -4  -4   7    8.47    0.39
  -4   4   7    8.76    0.46
  -4   4   7    8.62    0.51
   4   4  -7    8.08    0.48
   3  -4  -7   21.54    0.72
  -3  -4   7   22.35    0.65
  -3  -4   7   21.04    0.63
  -3   4   7   21.12    0.74
  -3   4   7   21.42    0.71
   3   4  -7   21.05    0.73
  -3   4   7   21.78    0.71
   3   4  -7   21.90    0.67
  -2  -4   7    8.91    0.40
   2  -4  -7    9.39    0.44
  -2  -4   7    9.54    0.41
   2   4  -7    9.64    0.48
   2   4  -7    9.13    0.43
  -2   4   7    8.90    0.44
  -2   4   7    9.49    0.47
  -2   4   7    9.44    0.47
  -1  -4   7    9.60    0.40
  -1  -4   7    8.83    0.40
  -1   4   7    8.43    0.44
   1   4  -7    8.67    0.42
  -1   4   7    8.39    0.43
  -1   4   7    8.89    0.45
   0  -4   7   49.10    1.22
   0  -4   7   49.89    1.21
   0   4   7   47.91    1.23
   0   4   7   51.06    1.25
   0   4   7   49.97    1.25
   0   4  -7   50.09    1.24
   1  -4   7   22.73    0.69
   1  -4   7   22.49    0.66
   1   4   7   21.08    0.69
  -1   4  -7   22.23    0.69
   1   4   7   21.39    0.68
   1   4   7   21.61    0.69
   2  -4   7    5.86    0.36
   2  -4   7    5.78    0.37
   2   4   7    5.66    0.39
  -2   4  -7    5.74    0.37
   2   4   7    5.77    0.37
   3  -4   7   52.28    1.41
  -3  -4  -7   49.60    1.21
   3  -4   7   49.85    1.28
   3   4   7   51.42    1.26
  -3   4  -7   50.40    1.29
   3   4   7   50.06    1.29
   4  -4   7   19.68    0.68
  -4  -4  -7   19.15    0.60
   4   4   7   18.67    0.66
   4   4   7   18.67    0.64
  -4   4  -7   18.78    0.67
   5  -4   7    0.15    0.24
   5   4   7   -0.01    0.22
  -5   4  -7    0.33    0.24
   6  -4   7   64.28    1.63
  -6   4  -7   61.84    1.62
   6   4   7   62.26    1.57
   7  -4   7    8.36    0.57
  -7   4  -7    8.18    0.56
   7   4   7    8.00    0.51
   8  -4   7    5.57    0.50
  -8   4  -7    6.19    0.50
   8   4   7    5.02    0.42
  -8   4  -7    5.25    0.51
   9  -4   7   -0.12    0.32
   9   4   7    0.17    0.29
  -9   4  -7   -0.25    0.33
  10  -4   7   17.79    0.92
  10   4   7   17.29    0.80
  11  -4   7    3.60    0.53
  11   4   7    3.54    0.46
  12  -4   7    0.39    0.44
  12   4   7    0.33    0.38
  13  -4   7    0.42    0.45
  13   4   7    0.31    0.43
  14  -4   7    4.35    0.64
  14   4   7    2.70    0.53
  15  -4   7    3.00    0.57
  15   4   7    3.67    0.62
  15   5  -7    1.26    0.56
  14   5  -7    0.30    0.48
  14   5  -7   -0.63    0.45
  13  -5  -7   -0.17    0.48
  13   5  -7    0.16    0.46
  13   5  -7   -0.76    0.41
  12  -5  -7   19.23    1.04
  12   5  -7   20.13    0.99
  12   5  -7   19.89    0.98
  11  -5  -7    6.20    0.60
  11   5  -7    7.45    0.68
  11   5  -7    6.43    0.58
  10  -5  -7   12.66    0.79
  10   5  -7   13.92    0.78
  10   5  -7   13.18    0.73
  -9  -5   7    8.09    0.46
   9  -5  -7    8.98    0.66
  -9   5   7    9.32    0.74
  -9   5   7    7.96    0.62
   9   5  -7    8.74    0.60
   9   5  -7    9.97    0.62
   8  -5  -7   17.37    0.78
  -8  -5   7   17.11    0.61
  -8   5   7   17.75    0.77
  -8   5   7   17.61    0.89
   8   5  -7   17.75    0.73
   8   5  -7   18.42    0.77
  -7  -5   7    0.45    0.17
   7  -5  -7    1.44    0.33
   7   5  -7    0.65    0.26
  -7   5   7    0.89    0.29
   7   5  -7    0.79    0.29
  -7   5   7    1.05    0.37
   6  -5  -7   43.02    1.22
  -6   5   7   42.26    1.20
   6   5  -7   41.48    1.19
  -6   5   7   40.99    1.31
   6   5  -7   43.01    1.15
   5  -5  -7   49.73    1.33
  -5  -5   7   51.52    1.30
   5   5  -7   50.66    1.30
  -5   5   7   49.25    1.33
  -5   5   7   50.21    1.43
   5   5  -7   51.59    1.34
  -4  -5   7    4.36    0.29
  -4  -5   7    3.19    0.26
   4  -5  -7    4.53    0.36
  -4   5   7    3.72    0.35
  -4   5   7    3.62    0.37
  -4   5   7    3.94    0.34
   4   5  -7    4.09    0.35
  -3  -5   7   -0.05    0.15
  -3  -5   7   -0.06    0.13
   3  -5  -7    0.16    0.21
   3   5  -7   -0.18    0.22
  -3   5   7    0.17    0.23
   3   5  -7    0.22    0.19
  -3   5   7    0.07    0.22
  -3   5   7   -0.06    0.21
  -2  -5   7   34.96    0.90
  -2   5   7   35.56    0.99
  -2   5   7   36.26    1.00
  -2   5   7   35.92    1.02
   2   5  -7   36.26    0.96
  -1  -5   7   90.78    2.01
   1   5  -7   90.24    2.07
  -1   5   7   91.87    2.11
  -1   5   7   90.58    2.09
  -1   5   7   90.52    2.09
   0  -5   7    1.25    0.20
   0  -5   7    0.96    0.18
   0   5  -7    0.94    0.23
   0   5   7    0.72    0.22
   0   5   7    0.67    0.24
   0   5   7    0.95    0.22
   1  -5   7   30.78    0.84
   1  -5   7   30.49    0.84
   1   5   7   29.27    0.86
  -1   5  -7   31.63    0.88
   1   5   7   29.70    0.87
   1   5   7   30.86    0.88
   2  -5   7   22.22    0.68
  -2   5  -7   21.50    0.71
   2   5   7   21.77    0.70
   2   5   7   20.67    0.68
   2   5   7   20.49    0.68
   3  -5   7    7.38    0.44
   3   5   7    7.29    0.43
   3   5   7    7.18    0.42
  -3   5  -7    7.42    0.46
   4  -5   7    9.00    0.50
   4   5   7    7.82    0.46
  -4   5  -7    8.16    0.50
   4   5   7    8.25    0.46
   5  -5   7   51.01    1.35
  -5   5  -7   47.34    1.33
   5   5   7   49.48    1.28
   6  -5   7    3.50    0.40
   6   5   7    3.22    0.33
  -6   5  -7    3.41    0.38
   7  -5   7    6.75    0.53
  -7   5  -7    7.52    0.56
   7   5   7    7.65    0.53
   8  -5   7    5.72    0.53
  -8   5  -7    5.31    0.47
  -8   5  -7    7.06    0.65
   8   5   7    6.37    0.52
   9  -5   7   11.91    0.76
   9   5   7   11.31    0.66
  -9   5  -7   11.67    0.83
  10  -5   7    6.01    0.57
  10   5   7    6.44    0.52
  11  -5   7    7.29    0.67
  11   5   7    6.89    0.57
  12  -5   7    3.94    0.57
  12   5   7    4.24    0.52
  13  -5   7    3.55    0.59
  13   5   7    3.30    0.54
  14   5   7    1.12    0.48
  13   6  -7    1.87    0.51
  13   6  -7    1.41    0.50
  12   6  -7    0.11    0.41
  12   6  -7    0.15    0.41
  11   6  -7    0.01    0.36
  11   6  -7    0.15    0.38
  10   6  -7    0.61    0.35
  10   6  -7    0.44    0.35
   9  -6  -7    8.00    0.69
  -9   6   7    6.42    0.61
   9   6  -7    6.51    0.58
   9   6  -7    6.34    0.52
   8  -6  -7    1.04    0.34
  -8   6   7    1.24    0.41
   8   6  -7    1.22    0.31
   8   6  -7    0.74    0.31
   7  -6  -7    0.53    0.29
   7   6  -7    0.85    0.29
   7   6  -7    0.57    0.27
  -7   6   7    0.84    0.36
  -6  -6   7    0.10    0.15
  -6  -6   7   -0.05    0.13
   6  -6  -7   -0.18    0.24
   6   6  -7    0.30    0.26
  -6   6   7    0.20    0.27
  -6   6   7   -0.15    0.30
   6   6  -7    0.06    0.23
   5  -6  -7    0.49    0.25
  -5  -6   7    0.30    0.12
  -5  -6   7    0.32    0.14
   5   6  -7    0.45    0.26
  -5   6   7    0.43    0.32
  -5   6   7    0.15    0.25
  -4  -6   7    3.26    0.22
  -4  -6   7    3.71    0.24
   4  -6  -7    3.65    0.33
  -4   6   7    3.22    0.35
   4   6  -7    3.36    0.34
  -4   6   7    4.06    0.36
  -4   6   7    3.97    0.42
  -3  -6   7    8.29    0.32
  -3  -6   7    8.51    0.32
   3   6  -7    8.81    0.43
  -3   6   7    8.72    0.55
  -3   6   7    9.52    0.53
  -3   6   7    9.17    0.49
  -2  -6   7    1.44    0.16
  -2  -6   7    1.29    0.15
  -2   6   7    1.39    0.27
  -2   6   7    1.46    0.28
  -2   6   7    1.16    0.25
   2   6  -7    1.12    0.22
  -1  -6   7    7.05    0.32
  -1  -6   7    7.05    0.31
  -1   6   7    7.06    0.43
  -1   6   7    7.21    0.46
  -1   6   7    7.67    0.46
   1   6  -7    7.88    0.42
   0  -6   7    5.86    0.31
   0  -6   7    6.08    0.33
   0   6  -7    6.57    0.40
   0   6   7    6.14    0.44
   0   6   7    6.32    0.43
   0   6   7    6.56    0.41
   1  -6   7    2.21    0.23
   1   6   7    1.89    0.27
   1   6   7    2.10    0.26
   1   6   7    2.20    0.27
  -1   6  -7    2.36    0.28
   2   6   7    1.71    0.25
   2   6   7    1.70    0.26
  -2   6  -7    1.68    0.27
   2   6   7    1.55    0.25
   3  -6   7    9.65    0.51
  -3   6  -7   10.30    0.53
   3   6   7    9.57    0.49
   3   6   7    9.68    0.50
   4  -6   7    0.79    0.25
   4   6   7    0.21    0.23
  -4   6  -7    0.04    0.23
   4   6   7    0.44    0.22
   5  -6   7    0.23    0.26
   5   6   7   -0.05    0.22
   5   6   7    0.10    0.25
  -5   6  -7   -0.06    0.25
   6  -6   7    3.24    0.40
   6   6   7    3.27    0.33
  -6   6  -7    3.58    0.57
   7  -6   7    2.17    0.39
   7   6   7    2.44    0.33
   8  -6   7    0.53    0.33
   8   6   7    0.18    0.27
  -8   6  -7    0.02    0.38
   9  -6   7    1.25    0.62
   9   6   7    0.49    0.31
  10   6   7    2.48    0.40
  11   6   7    2.89    0.44
  12   6   7    0.03    0.38
  13   6   7    2.51    0.50
  12   7  -7    3.16    0.54
  12   7  -7    2.83    0.52
  11   7  -7    1.70    0.44
  11   7  -7    1.55    0.44
  10   7  -7    1.68    0.41
  10   7  -7    1.22    0.39
   9   7  -7    0.46    0.34
   9   7  -7    0.62    0.35
   8   7  -7    0.21    0.29
   8   7  -7    0.51    0.32
  -8   7   7    0.13    0.37
   7   7  -7    0.36    0.28
   7   7  -7    0.24    0.29
  -7   7   7    0.27    0.37
  -6   7   7    3.86    0.49
   6   7  -7    4.14    0.38
   6   7  -7    4.10    0.39
  -5   7   7    0.03    0.29
   5   7  -7    0.03    0.25
  -5   7   7    0.14    0.32
  -4   7   7    0.15    0.28
  -4   7   7   -0.24    0.29
  -3   7   7    0.29    0.27
  -3   7   7    0.32    0.28
  -2   7   7    0.22    0.26
  -2   7   7    0.58    0.28
  -1   7   7    9.12    0.54
  -1   7   7    9.51    0.51
   0   7   7    0.25    0.23
   0   7   7    0.29    0.25
   1  -7   7    8.80    0.31
   1   7   7    9.61    0.51
   1   7   7    8.77    0.50
   2   7   7    0.13    0.22
   2   7   7    0.23    0.24
   3   7   7    9.22    0.49
   4   7   7    0.96    0.25
   5   7   7   12.69    0.56
   6   7   7    1.65    0.30
   7   7   7    1.27    0.29
   8   7   7    0.13    0.27
  -8   7  -7   -0.39    0.37
   9   7   7    3.28    0.41
  10   7   7    1.01    0.36
  11   7   7    1.83    0.42
   9   8  -7    1.51    0.37
   9   8  -7    1.52    0.40
   8   8  -7    5.57    0.47
  -8   8   7    3.49    0.88
   8   8  -7    5.76    0.47
   7   8  -7    7.43    0.57
   7   8  -7    8.23    0.56
  -7   8   7    7.11    0.67
   6   8  -7    0.82    0.30
  -6   8   7    0.40    0.39
  -5   8   7    0.41    0.32
  -5   8   7    0.10    0.36
  -4   8   7    8.03    0.68
  -4   8   7    8.56    0.59
  -3   8   7   11.94    0.61
  -3   8   7   11.22    0.70
  -2   8   7    0.43    0.28
  -2   8   7    0.30    0.28
  -1   8   7    1.81    0.33
  -1   8   7    1.87    0.31
   0   8   7   12.88    0.58
   0   8   7   13.85    0.64
   1   8   7   11.03    0.57
   1   8   7   10.48    0.52
   2   8   7    2.35    0.32
   2   8   7    2.25    0.29
   3   8   7    8.27    0.48
   4   8   7   10.22    0.51
   5   8   7   -0.07    0.23
   6   8   7    4.51    0.36
  -7   8  -7   11.14    0.91
   7   8   7    9.00    0.55
   8   8   7    1.15    0.31
   9   8   7    0.78    0.32
   6   9  -7    1.00    0.34
  -6   9   7    0.92    0.38
  -6   9   7    1.15    0.47
  -5   9   7    1.28    0.36
  -5   9   7    0.59    0.41
  -4   9   7    2.35    0.45
  -4   9   7    2.41    0.39
  -3   9   7    1.36    0.39
  -3   9   7    0.74    0.33
  -2   9   7    2.13    0.34
  -2   9   7    2.10    0.38
  -1   9   7    0.49    0.27
  -1   9   7    0.46    0.30
   0   9   7    0.09    0.25
   0   9   7   -0.11    0.27
   1   9   7    2.04    0.33
   1   9   7    2.13    0.28
   2   9   7    1.59    0.26
   2   9   7    1.48    0.31
   3   9   7    0.48    0.23
   4   9   7    5.00    0.39
  17   0  -8    0.63    0.56
  16   0  -8    0.35    0.52
  15   0  -8   19.52    1.20
  14   0  -8    7.05    0.72
  13   0  -8   -0.42    0.44
  12   0  -8   22.69    1.05
  12   0  -8   23.85    1.61
  11   0  -8   64.63    1.90
  11   0  -8   67.81    1.92
 -10   0   8    8.45    0.60
  10   0  -8    9.66    0.66
  10   0  -8   10.25    0.68
  -9   0   8   72.53    1.88
   9   0  -8   72.43    1.90
   9   0  -8   69.92    1.89
   8   0  -8   60.46    1.63
   8   0  -8   58.70    1.62
  -8   0   8   62.78    1.62
  -7   0   8   19.73    0.73
  -7   0   8   22.61    0.77
   7   0  -8   19.42    0.76
   7   0  -8   19.15    0.76
  -6   0   8    4.47    0.39
   6   0  -8    3.70    0.36
  -6   0   8    3.70    0.33
  -6   0   8    3.88    0.34
   6   0  -8    4.29    0.39
   5   0  -8  124.25    2.81
   5   0  -8  121.66    2.83
  -5   0   8  126.73    2.81
  -5   0   8  120.48    2.78
  -5   0   8  127.16    2.79
   4   0  -8   37.98    1.09
  -4   0   8   40.04    1.06
   4   0  -8   38.37    1.06
  -4   0   8   39.87    1.07
   3   0  -8    8.93    0.49
  -3   0   8    9.10    0.44
  -3   0   8    8.68    0.43
   3   0  -8    8.39    0.43
   2   0  -8    0.07    0.22
  -2   0   8   -0.03    0.17
  -2   0   8   -0.07    0.19
   2   0  -8    0.42    0.17
   2   0  -8    0.36    0.17
   1   0  -8  159.22    3.48
   1   0  -8  158.95    3.42
  -1   0   8  154.68    3.44
  -1   0   8  158.65    3.44
   0   0  -8   35.05    0.95
   0   0   8   36.59    0.98
   0   0   8   34.22    0.95
   1   0   8    2.85    0.27
   1   0   8    3.21    0.30
  -1   0  -8    2.95    0.27
   2   0   8  260.00    5.58
  -2   0  -8  261.69    5.54
   2   0   8  263.34    5.55
   3   0   8    3.99    0.34
   3   0   8    3.09    0.29
  -3   0  -8    3.76    0.31
  -4   0  -8   46.02    1.21
   4   0   8   47.60    1.24
   5   0   8    3.00    0.32
  -5   0  -8    2.62    0.27
  -6   0  -8   82.16    2.00
   6   0   8   85.29    2.02
   7   0   8   36.96    1.11
  -7   0  -8   37.04    1.16
  -8   0  -8   14.71    0.71
   8   0   8   14.32    0.66
  -9   0  -8    5.18    0.51
   9   0   8    4.79    0.48
 -10   0  -8    6.40    0.61
  10   0   8    6.35    0.56
  11   0   8    8.63    0.67
  12   0   8   44.55    1.46
  13   0   8   32.56    1.33
  14   0   8    0.79    0.51
  15   0   8    0.43    0.54
  16   0   8   10.68    0.92
  17  -1  -8    0.20    0.53
  17   1  -8    0.22    0.54
  16  -1  -8    0.27    0.53
  16   1  -8    0.55    0.55
  15  -1  -8    8.64    0.86
  15   1  -8    8.38    0.84
  14  -1  -8    1.81    0.56
  14   1  -8    1.66    0.55
  13  -1  -8    0.52    0.50
  13   1  -8    0.82    0.49
  12  -1  -8    2.61    0.54
  12   1  -8    2.94    0.54
  12   1  -8    3.50    0.51
  11  -1  -8    3.26    0.49
  11  -1  -8    4.01    0.50
  11   1  -8    4.39    0.52
  11   1  -8    2.75    0.46
  10  -1  -8    7.14    0.58
  10  -1  -8    9.00    0.68
 -10   1   8    8.42    0.63
  10   1  -8    7.24    0.58
  10   1  -8    8.91    0.65
  -9  -1   8   14.79    0.68
   9  -1  -8   14.76    0.74
   9  -1  -8   14.51    0.74
   9   1  -8   15.05    0.73
  -9   1   8   14.86    0.74
   9   1  -8   14.80    0.73
   8  -1  -8    1.35    0.30
  -8  -1   8    1.34    0.31
  -8  -1   8    2.31    0.34
   8  -1  -8    1.71    0.35
   8   1  -8    1.67    0.36
  -8   1   8    1.85    0.34
   8   1  -8    2.12    0.36
   7  -1  -8   34.73    1.08
  -7  -1   8   34.49    1.02
   7  -1  -8   35.54    1.09
  -7  -1   8   35.07    1.02
  -7   1   8   36.05    1.09
  -7   1   8   34.72    1.03
   7   1  -8   34.44    1.09
   7   1  -8   34.30    1.05
  -6  -1   8    9.41    0.51
  -6  -1   8    9.78    0.47
   6  -1  -8    9.62    0.53
   6  -1  -8    9.60    0.53
   6   1  -8    9.34    0.52
   6   1  -8    9.94    0.51
  -6   1   8   10.70    0.52
  -6   1   8    9.18    0.51
  -6   1   8    9.39    0.48
   5  -1  -8    7.89    0.47
  -5  -1   8    8.19    0.44
  -5  -1   8    7.78    0.43
   5  -1  -8    8.21    0.48
   5   1  -8    7.85    0.46
   5   1  -8    8.46    0.47
  -5   1   8    8.30    0.47
  -5   1   8    8.80    0.50
  -5   1   8    8.51    0.47
   4  -1  -8    8.37    0.43
  -4  -1   8    7.61    0.42
  -4  -1   8    9.23    0.44
   4  -1  -8    7.93    0.46
   4   1  -8    8.30    0.46
   4   1  -8    8.36    0.45
  -4   1   8    8.49    0.43
  -4   1   8    8.22    0.47
  -4   1   8    8.61    0.45
  -3  -1   8    1.09    0.21
   3  -1  -8    0.76    0.20
   3  -1  -8    0.94    0.25
  -3  -1   8    0.86    0.20
   3   1  -8    0.90    0.19
   3   1  -8    0.75    0.23
  -3   1   8    0.87    0.19
  -3   1   8    1.13    0.21
  -3   1   8    0.94    0.24
   3   1  -8    0.71    0.19
  -2  -1   8    3.70    0.31
   2  -1  -8    4.13    0.34
  -2  -1   8    3.14    0.28
   2  -1  -8    3.79    0.31
   2   1  -8    3.68    0.32
   2   1  -8    3.16    0.30
  -2   1   8    3.08    0.27
   2   1  -8    3.86    0.29
  -2   1   8    3.51    0.30
   1  -1  -8    8.74    0.41
   1  -1  -8    8.54    0.47
  -1  -1   8    8.53    0.41
   1  -1  -8    8.34    0.41
  -1  -1   8    8.31    0.44
  -1   1   8    9.15    0.43
   1   1  -8    8.44    0.45
  -1   1   8    8.58    0.41
   1   1  -8    8.58    0.42
   0  -1   8   38.81    1.03
   0  -1  -8   38.13    1.01
   0  -1  -8   38.78    1.00
   0  -1   8   37.66    1.02
   0   1   8   38.41    1.04
   0   1   8   38.81    1.02
   0   1  -8   39.26    1.02
   1  -1   8    0.52    0.22
  -1  -1  -8    0.89    0.20
   1  -1   8    0.81    0.21
  -1  -1  -8    0.77    0.18
   1   1   8    0.97    0.21
   1   1   8    0.59    0.19
  -1   1  -8    0.68    0.19
   2  -1   8   -0.11    0.17
  -2  -1  -8    0.08    0.18
   2  -1   8    0.16    0.19
  -2  -1  -8    0.16    0.17
   2   1   8   -0.23    0.17
  -2   1  -8    0.07    0.17
   2   1   8    0.02    0.20
   3  -1   8    9.51    0.49
  -3  -1  -8    8.95    0.42
   3  -1   8    9.31    0.48
   3   1   8    9.12    0.46
  -3   1  -8    9.66    0.44
   3   1   8    9.17    0.47
  -4  -1  -8   36.97    1.00
   4  -1   8   37.44    1.04
   4   1   8   38.09    1.04
  -4   1  -8   36.67    1.02
   5  -1   8   10.18    0.53
  -5  -1  -8    9.31    0.45
  -5   1  -8    9.70    0.48
   5   1   8    9.46    0.48
   6  -1   8   -0.10    0.23
  -6  -1  -8    0.36    0.21
  -6   1  -8    0.50    0.22
   6   1   8    0.26    0.25
   7  -1   8   11.14    0.58
  -7  -1  -8   10.87    0.58
   7   1   8   11.59    0.62
  -7   1  -8   11.34    0.67
   8  -1   8    7.02    0.52
   8   1   8    7.08    0.56
  -8   1  -8    6.81    0.58
   9  -1   8   19.87    0.81
  -9   1  -8   17.60    0.85
   9   1   8   20.50    0.84
  10  -1   8   13.94    0.78
  10   1   8   13.43    0.72
 -10   1  -8   14.51    1.02
  11  -1   8   10.64    0.78
  11   1   8   10.69    0.76
  12  -1   8    4.53    0.55
  12   1   8    4.55    0.53
  13  -1   8    0.44    0.42
  13   1   8    0.19    0.40
  14  -1   8    1.99    0.52
  14   1   8    2.44    0.58
  15  -1   8    3.60    0.62
  15   1   8    5.35    0.73
  16  -1   8    0.69    0.56
  16   1   8    0.29    0.55
  16  -2  -8    0.19    0.53
  16   2  -8   -0.29    0.55
  15  -2  -8    2.71    0.64
  15   2  -8    2.60    0.58
  14  -2  -8    1.50    0.57
  14   2  -8    0.93    0.49
  13  -2  -8    1.29    0.48
  13   2  -8    0.83    0.47
  13   2  -8    1.25    0.48
 -12  -2   8   -0.09    0.37
  12  -2  -8   -0.09    0.38
  12   2  -8   -0.35    0.36
  12   2  -8    0.05    0.37
  11  -2  -8    5.28    0.59
 -11  -2   8    5.53    0.53
  11   2  -8    4.53    0.53
  11   2  -8    5.59    0.57
 -10  -2   8    0.02    0.30
  10  -2  -8    0.79    0.36
  10  -2  -8    0.21    0.38
 -10   2   8    0.53    0.37
  10   2  -8    0.23    0.31
  10   2  -8    0.21    0.32
   9  -2  -8    6.87    0.59
   9  -2  -8    6.71    0.56
  -9  -2   8    6.89    0.53
   9   2  -8    6.88    0.56
   9   2  -8    6.74    0.57
  -9   2   8    6.06    0.59
   8  -2  -8    0.06    0.30
   8  -2  -8   -0.41    0.26
  -8  -2   8    0.01    0.26
   8   2  -8    0.07    0.24
  -8   2   8   -0.17    0.27
   8   2  -8    0.06    0.30
  -7  -2   8    0.17    0.25
   7  -2  -8    0.03    0.25
   7  -2  -8   -0.05    0.26
  -7   2   8    0.00    0.25
   7   2  -8    0.06    0.23
   7   2  -8    0.13    0.25
  -7   2   8    0.38    0.24
   6  -2  -8    2.69    0.33
   6  -2  -8    2.49    0.30
  -6  -2   8    3.18    0.33
   6   2  -8    2.80    0.30
   6   2  -8    2.90    0.32
  -6   2   8    2.96    0.33
  -6   2   8    3.83    0.35
   5  -2  -8   16.45    0.65
   5  -2  -8   17.34    0.66
  -5  -2   8   16.46    0.62
  -5  -2   8   16.41    0.60
  -5   2   8   17.74    0.66
  -5   2   8   17.27    0.67
   5   2  -8   16.81    0.65
  -5   2   8   16.14    0.64
   5   2  -8   17.03    0.64
   4  -2  -8    3.02    0.29
  -4  -2   8    4.13    0.34
   4  -2  -8    2.91    0.31
  -4  -2   8    2.86    0.28
  -4   2   8    3.00    0.29
  -4   2   8    3.27    0.32
   4   2  -8    3.84    0.35
  -4   2   8    3.10    0.29
   4   2  -8    3.58    0.32
  -3  -2   8    2.34    0.26
   3  -2  -8    2.41    0.27
   3  -2  -8    1.97    0.29
  -3  -2   8    1.79    0.25
  -3   2   8    1.72    0.23
   3   2  -8    2.21    0.30
   3   2  -8    1.97    0.23
  -3   2   8    1.99    0.25
   3   2  -8    2.31    0.26
  -3   2   8    2.01    0.28
  -2  -2   8    0.29    0.18
   2  -2  -8   -0.08    0.20
   2  -2  -8    0.10    0.15
  -2  -2   8    0.20    0.20
  -2   2   8    0.14    0.18
   2   2  -8   -0.08    0.21
  -2   2   8    0.08    0.19
   2   2  -8    0.18    0.18
  -2   2   8    0.20    0.18
  -1  -2   8    7.13    0.41
   1  -2  -8    6.86    0.37
   1  -2  -8    7.17    0.41
  -1  -2   8    6.32    0.39
  -1   2   8    7.25    0.42
  -1   2   8    6.84    0.43
  -1   2   8    7.19    0.39
   1   2  -8    6.59    0.45
   1   2  -8    6.83    0.37
   0  -2   8  102.34    2.32
   0  -2  -8  101.83    2.27
   0  -2   8  102.51    2.30
   0  -2  -8  100.98    2.27
   0   2   8  100.86    2.31
   0   2   8  101.85    2.31
   0   2  -8  100.00    2.29
  -1  -2  -8   22.98    0.69
   1  -2   8   22.18    0.72
  -1  -2  -8   23.25    0.70
   1  -2   8   23.47    0.74
  -1   2  -8   22.53    0.72
   1   2   8   23.60    0.74
   1   2   8   22.83    0.73
  -2  -2  -8   15.71    0.55
   2  -2   8   15.06    0.58
   2  -2   8   14.78    0.57
  -2  -2  -8   14.27    0.51
  -2   2  -8   14.70    0.57
   2   2   8   14.58    0.56
   2   2   8   15.13    0.58
  -3  -2  -8    0.69    0.18
  -3  -2  -8    0.50    0.20
   3  -2   8    0.51    0.22
   3   2   8    0.42    0.22
   3   2   8    0.78    0.24
  -3   2  -8    0.47    0.19
  -4  -2  -8    2.97    0.28
   4  -2   8    2.21    0.27
  -4  -2  -8    3.34    0.28
   4   2   8    2.91    0.31
  -4   2  -8    3.04    0.29
   5  -2   8    0.06    0.23
   5   2   8   -0.30    0.23
  -5   2  -8    0.18    0.20
   6  -2   8   44.04    1.24
  -6   2  -8   43.16    1.22
   6   2   8   43.50    1.21
   7  -2   8    0.36    0.28
  -7   2  -8    0.08    0.24
   7   2   8    0.25    0.25
   8  -2   8   28.98    0.98
   8   2   8   30.35    0.99
  -8   2  -8   27.66    1.07
   9  -2   8    1.89    0.40
  -9   2  -8    1.33    0.33
   9   2   8    1.55    0.34
  10  -2   8    4.69    0.53
  10   2   8    4.66    0.50
  11  -2   8    9.24    0.70
  11   2   8    9.63    0.74
  12  -2   8    7.26    0.66
  12   2   8    8.59    0.69
  13  -2   8    1.16    0.46
  13   2   8    0.61    0.46
  14  -2   8   -0.14    0.49
  14   2   8   -0.16    0.47
  15  -2   8    1.02    0.52
  15   2   8   -0.15    0.52
  16  -2   8   -0.06    0.55
  16   2   8    0.16    0.55
  16  -3  -8    2.09    0.68
  16   3  -8    2.61    0.64
  15  -3  -8    1.76    0.58
  15   3  -8    2.55    0.63
  14  -3  -8    4.01    0.63
  14   3  -8    4.52    0.66
 -13  -3   8   20.05    0.94
  13  -3  -8   18.05    1.09
  13   3  -8   19.98    1.09
  13   3  -8   17.62    1.04
  12  -3  -8    1.47    0.50
 -12  -3   8    2.20    0.43
  12   3  -8    3.26    0.53
  12   3  -8    2.91    0.52
 -11  -3   8    1.89    0.38
  11  -3  -8    1.65    0.47
  11   3  -8    1.61    0.42
  11   3  -8    1.31    0.42
 -10  -3   8   23.19    0.89
  10  -3  -8   24.70    1.03
  10   3  -8   23.26    0.94
  10   3  -8   22.84    0.97
   9  -3  -8   16.94    0.80
   9  -3  -8   17.09    0.84
  -9  -3   8   16.34    0.70
   9   3  -8   16.12    0.80
   9   3  -8   16.33    0.76
  -9   3   8   17.27    0.85
  -8  -3   8    1.54    0.30
   8  -3  -8    2.20    0.39
   8  -3  -8    2.83    0.40
  -8   3   8    1.89    0.32
   8   3  -8    1.35    0.33
   8   3  -8    2.23    0.35
  -8   3   8    2.08    0.38
   7  -3  -8   27.89    0.99
   7  -3  -8   27.94    0.96
  -7  -3   8   26.80    0.85
  -7   3   8   25.52    0.88
   7   3  -8   27.15    0.93
   7   3  -8   26.39    0.89
  -7   3   8   27.60    0.99
   6  -3  -8   23.10    0.82
   6  -3  -8   23.50    0.86
  -6  -3   8   23.70    0.76
   6   3  -8   24.26    0.80
   6   3  -8   23.10    0.80
  -6   3   8   24.73    0.81
  -6   3   8   23.07    0.87
   5  -3  -8    2.09    0.30
  -5  -3   8    1.69    0.26
   5  -3  -8    2.48    0.32
   5   3  -8    2.09    0.32
  -5   3   8    1.62    0.28
  -5   3   8    1.88    0.30
  -5   3   8    1.88    0.27
   5   3  -8    2.40    0.30
   4  -3  -8    2.50    0.27
  -4  -3   8    1.58    0.23
  -4  -3   8    1.80    0.26
   4  -3  -8    1.83    0.30
  -4   3   8    2.43    0.31
   4   3  -8    1.71    0.24
   4   3  -8    1.86    0.30
  -4   3   8    1.95    0.29
  -4   3   8    1.94    0.28
  -3  -3   8   38.61    1.03
   3  -3  -8   39.06    1.09
   3  -3  -8   38.18    1.06
  -3  -3   8   39.57    1.03
   3   3  -8   37.69    1.02
  -3   3   8   38.90    1.05
  -3   3   8   39.15    1.06
  -3   3   8   37.55    1.08
   3   3  -8   38.33    1.09
   2  -3  -8   87.16    2.07
   2  -3  -8   89.93    2.13
  -2  -3   8   86.25    2.01
  -2  -3   8   89.52    2.02
   2   3  -8   87.22    2.08
   2   3  -8   87.78    2.02
  -2   3   8   87.64    2.06
  -2   3   8   88.27    2.05
  -2   3   8   86.45    2.05
  -1  -3   8   -0.03    0.20
   1  -3  -8    0.28    0.20
  -1  -3   8   -0.08    0.18
  -1   3   8    0.16    0.21
   1   3  -8    0.26    0.19
   1   3  -8    0.13    0.23
  -1   3   8    0.21    0.24
   0  -3   8   81.41    1.88
   0  -3   8   80.72    1.86
   0   3  -8   80.01    1.87
   0   3   8   79.89    1.88
   0   3   8   78.80    1.89
   0   3   8   78.54    1.87
   1  -3   8   44.12    1.15
  -1  -3  -8   42.88    1.09
   1  -3   8   42.87    1.12
   1   3   8   42.98    1.14
  -1   3  -8   43.75    1.14
   1   3   8   42.91    1.15
   2  -3   8   12.46    0.53
   2  -3   8   12.96    0.56
  -2  -3  -8   13.64    0.50
   2   3   8   13.39    0.55
   2   3   8   13.15    0.55
  -2   3  -8   12.69    0.52
   3  -3   8   19.17    0.77
  -3  -3  -8   17.22    0.61
   3  -3   8   17.49    0.64
   3   3   8   17.16    0.65
   3   3   8   17.62    0.64
  -3   3  -8   17.56    0.65
   4  -3   8  101.81    2.36
   4   3   8  102.44    2.35
  -4   3  -8  102.43    2.38
   5  -3   8   19.10    0.71
  -5   3  -8   17.56    0.67
   5   3   8   17.38    0.65
   6  -3   8    9.93    0.54
   6   3   8    9.04    0.53
  -6   3  -8    9.63    0.55
   7  -3   8   15.16    0.71
   7   3   8   14.91    0.67
  -7   3  -8   15.10    0.70
   8  -3   8   33.51    1.11
  -8   3  -8   36.12    1.25
   8   3   8   35.87    1.08
   9  -3   8    4.91    0.50
  -9   3  -8    4.48    0.50
   9   3   8    4.80    0.45
  10  -3   8    2.64    0.43
  10   3   8    3.02    0.41
  11  -3   8   39.72    1.37
  11   3   8   40.53    1.34
  12  -3   8    0.44    0.45
  12   3   8    0.31    0.40
  13  -3   8    0.39    0.42
  13   3   8    0.44    0.46
  14  -3   8    5.91    0.73
  14   3   8    6.46    0.71
  15  -3   8    8.00    0.84
  15   3   8    6.43    0.73
  15  -4  -8    0.71    0.61
  15   4  -8    1.70    0.57
  14  -4  -8    2.97    0.64
  14   4  -8    2.18    0.57
  14   4  -8    3.04    0.64
  13  -4  -8   -0.03    0.50
  13   4  -8    0.69    0.49
  13   4  -8    0.15    0.44
  12  -4  -8    8.98    0.76
  12   4  -8    9.52    0.75
  12   4  -8    9.82    0.79
  11  -4  -8   15.53    0.93
 -11  -4   8   16.19    0.76
  11   4  -8   15.96    0.86
  11   4  -8   16.40    0.89
  10  -4  -8   -0.15    0.38
 -10  -4   8    0.13    0.28
  10   4  -8    0.27    0.34
  10   4  -8    0.11    0.36
  -9  -4   8    4.66    0.39
   9  -4  -8    4.59    0.49
   9   4  -8    4.32    0.42
  -9   4   8    3.93    0.48
   9   4  -8    5.89    0.51
   8  -4  -8   27.27    1.00
  -8  -4   8   25.70    0.83
   8   4  -8   26.69    0.92
  -8   4   8   26.10    0.92
  -8   4   8   26.51    1.05
   8   4  -8   26.36    0.95
  -7  -4   8    4.94    0.36
   7  -4  -8    4.25    0.42
   7   4  -8    4.28    0.41
   7   4  -8    4.10    0.37
  -7   4   8    5.37    0.52
  -7   4   8    4.31    0.41
   6  -4  -8    2.43    0.34
  -6  -4   8    2.50    0.29
  -6   4   8    2.38    0.38
  -6   4   8    2.34    0.32
   6   4  -8    2.93    0.36
   6   4  -8    2.73    0.33
  -5  -4   8   23.28    0.72
   5  -4  -8   21.85    0.79
  -5   4   8   21.89    0.77
   5   4  -8   21.65    0.76
  -5   4   8   22.73    0.78
  -5   4   8   23.04    0.85
   5   4  -8   21.58    0.79
  -4  -4   8   15.45    0.55
   4  -4  -8   14.14    0.62
   4   4  -8   14.88    0.61
  -4   4   8   15.06    0.61
  -4   4   8   15.40    0.66
   4   4  -8   15.16    0.64
  -4   4   8   14.59    0.62
   3  -4  -8   23.84    0.79
  -3  -4   8   23.76    0.73
   3   4  -8   22.86    0.73
  -3   4   8   23.27    0.81
   3   4  -8   23.06    0.81
  -3   4   8   23.76    0.79
  -3   4   8   24.33    0.78
   2  -4  -8   35.41    1.03
  -2  -4   8   37.39    0.97
  -2  -4   8   36.16    0.97
   2   4  -8   35.94    0.98
   2   4  -8   35.77    1.05
  -2   4   8   35.18    1.01
  -2   4   8   35.83    1.02
  -2   4   8   36.04    1.03
  -1  -4   8   30.19    0.86
  -1  -4   8   32.58    0.89
   1   4  -8   29.97    0.88
  -1   4   8   30.71    0.91
  -1   4   8   30.91    0.91
  -1   4   8   31.07    0.91
   0  -4   8    5.43    0.42
   0  -4   8    6.14    0.38
   0   4  -8    5.72    0.41
   0   4   8    5.53    0.40
   0   4   8    5.38    0.41
   0   4   8    5.64    0.40
   1  -4   8    0.24    0.19
   1   4   8   -0.05    0.20
   1   4   8    0.34    0.23
  -1   4  -8    0.09    0.21
   2  -4   8    7.88    0.44
   2   4   8    8.83    0.49
   2   4   8    8.16    0.46
  -2   4  -8    8.76    0.47
   3  -4   8   48.57    1.26
   3   4   8   47.88    1.27
  -3   4  -8   47.90    1.27
   3   4   8   46.17    1.24
   4  -4   8    0.94    0.26
   4   4   8    0.59    0.25
   4   4   8    1.09    0.28
  -4   4  -8    0.80    0.27
   5  -4   8   14.58    0.64
   5   4   8   12.89    0.59
  -5   4  -8   12.47    0.58
   6  -4   8    0.29    0.26
  -6   4  -8    0.19    0.24
   6   4   8    0.07    0.25
   7  -4   8   10.93    0.64
  -7   4  -8   11.28    0.59
   7   4   8   11.06    0.59
   8  -4   8    0.04    0.30
   8   4   8   -0.16    0.29
  -8   4  -8    0.54    0.34
   9  -4   8   39.43    1.33
   9   4   8   40.70    1.24
  -9   4  -8   39.97    1.61
  10  -4   8    3.62    0.49
  10   4   8    3.50    0.44
  11  -4   8    2.09    0.50
  11   4   8    1.49    0.42
  12  -4   8    0.55    0.47
  12   4   8    0.24    0.41
  13  -4   8    9.87    0.83
  13   4   8   10.14    0.83
  14  -4   8    1.76    0.52
  14   4   8    1.51    0.51
  15  -4   8    5.10    0.73
  15   4   8    3.70    0.65
  14   5  -8   -0.39    0.48
  14   5  -8   -0.33    0.49
  13  -5  -8    0.23    0.57
  13   5  -8    0.95    0.50
  13   5  -8    0.48    0.49
  12  -5  -8   -0.24    0.44
  12   5  -8   -0.46    0.43
  12   5  -8    0.29    0.41
  11  -5  -8    0.30    0.45
  11   5  -8    0.70    0.41
  11   5  -8    0.71    0.38
  10  -5  -8    0.57    0.40
  10   5  -8    0.68    0.34
  10   5  -8    0.67    0.38
   9  -5  -8    0.04    0.36
   9   5  -8    0.24    0.34
  -9   5   8   -0.15    0.36
   9   5  -8    0.18    0.30
   8  -5  -8    0.74    0.35
  -8  -5   8    0.32    0.22
  -8   5   8    0.45    0.33
   8   5  -8    0.34    0.32
   8   5  -8    0.63    0.30
  -8   5   8    1.08    0.33
   7  -5  -8    0.42    0.31
  -7  -5   8    0.11    0.21
   7   5  -8    0.28    0.29
   7   5  -8    0.45    0.27
  -7   5   8    0.23    0.31
  -7   5   8    0.22    0.28
   6  -5  -8    3.31    0.38
  -6  -5   8    3.48    0.30
  -6   5   8    3.39    0.39
  -6   5   8    3.88    0.48
   6   5  -8    3.34    0.36
   6   5  -8    3.37    0.38
   5  -5  -8    0.69    0.28
  -5  -5   8    1.08    0.22
  -5   5   8    0.86    0.28
   5   5  -8    1.00    0.29
   5   5  -8    0.53    0.26
  -5   5   8    0.70    0.30
  -5   5   8    1.18    0.33
   4  -5  -8    1.03    0.27
  -4  -5   8    0.62    0.21
  -4   5   8    0.71    0.26
  -4   5   8    0.79    0.28
   4   5  -8    0.75    0.28
  -4   5   8    0.71    0.29
   3  -5  -8    1.88    0.30
  -3  -5   8    1.86    0.23
  -3   5   8    2.07    0.33
  -3   5   8    1.88    0.32
  -3   5   8    1.61    0.29
   3   5  -8    1.91    0.31
   3   5  -8    1.98    0.26
  -2  -5   8   32.62    0.87
  -2   5   8   31.78    0.98
   2   5  -8   32.61    0.92
  -2   5   8   32.70    0.99
  -2   5   8   32.85    0.96
  -1  -5   8    0.44    0.18
  -1   5   8    0.48    0.23
  -1   5   8    0.86    0.26
   1   5  -8    0.81    0.23
  -1   5   8    1.52    0.25
   0  -5   8    1.05    0.21
   0   5   8    0.79    0.24
   0   5   8    0.68    0.25
   0   5  -8    1.25    0.25
   0   5   8    0.82    0.23
   1  -5   8    3.09    0.29
   1   5   8    3.48    0.32
   1   5   8    3.50    0.32
   1   5   8    3.01    0.30
  -1   5  -8    3.59    0.33
   2  -5   8    7.63    0.43
   2   5   8    6.50    0.45
  -2   5  -8    7.13    0.47
   2   5   8    6.69    0.46
   3  -5   8   -0.28    0.20
   3   5   8   -0.46    0.22
  -3   5  -8    0.06    0.23
   3   5   8    0.15    0.22
   4  -5   8    6.56    0.48
   4   5   8    4.34    0.37
  -4   5  -8    5.77    0.43
   4   5   8    4.81    0.39
   5  -5   8    1.53    0.30
   5   5   8    1.29    0.29
   5   5   8    1.31    0.30
  -5   5  -8    1.04    0.28
   6  -5   8    1.18    0.32
  -6   5  -8    1.22    0.29
   6   5   8    0.72    0.28
   7  -5   8    0.63    0.32
  -7   5  -8    0.73    0.29
   7   5   8    0.37    0.28
   8  -5   8    0.50    0.35
  -8   5  -8    0.53    0.35
   8   5   8    0.46    0.31
  -8   5  -8    0.83    0.41
   9  -5   8    0.21    0.36
   9   5   8   -0.08    0.31
  10  -5   8   -0.09    0.37
  10   5   8    0.11    0.34
  11  -5   8    0.04    0.40
  11   5   8    0.34    0.37
  12  -5   8    1.01    0.48
  12   5   8    0.89    0.42
  13   5   8   -0.02    0.44
  14   5   8    1.00    0.50
  13   6  -8    0.85    0.49
  13   6  -8    0.62    0.48
  12   6  -8    7.89    0.68
  12   6  -8    6.49    0.65
  11   6  -8   10.21    0.82
  11   6  -8   12.45    0.83
  10   6  -8    1.21    0.40
  10   6  -8    0.97    0.37
   9   6  -8    1.15    0.38
   9   6  -8    1.10    0.36
   8  -6  -8    4.52    0.57
   8   6  -8    4.55    0.43
  -8   6   8    4.39    0.56
   8   6  -8    4.99    0.47
   7  -6  -8    3.82    0.43
   7   6  -8    4.64    0.44
   7   6  -8    5.09    0.42
  -7   6   8    4.00    0.49
   6  -6  -8    2.64    0.37
   6   6  -8    2.70    0.36
  -6   6   8    3.13    0.46
   6   6  -8    2.67    0.34
  -5  -6   8    1.11    0.23
   5  -6  -8    1.40    0.30
  -5   6   8    1.01    0.32
   5   6  -8    1.14    0.28
  -5   6   8    1.60    0.46
   5   6  -8    1.03    0.31
  -5   6   8    0.94    0.33
   4  -6  -8    7.06    0.50
  -4  -6   8    6.85    0.34
  -4   6   8    7.36    0.58
  -4   6   8    7.07    0.52
  -4   6   8    8.02    0.54
   4   6  -8    6.89    0.53
  -3  -6   8    8.96    0.38
  -3   6   8    9.83    0.58
   3   6  -8    8.82    0.47
  -3   6   8    9.43    0.60
  -3   6   8    9.00    0.53
  -2  -6   8   14.72    0.50
   2   6  -8   13.59    0.58
  -2   6   8   14.87    0.63
  -2   6   8   15.15    0.67
  -2   6   8   15.28    0.67
  -1  -6   8   37.75    0.96
  -1   6   8   37.31    1.08
   1   6  -8   37.00    1.04
  -1   6   8   37.42    1.08
  -1   6   8   38.78    1.07
   0  -6   8    1.37    0.22
   0   6   8    1.02    0.26
   0   6   8    1.98    0.29
   0   6   8    1.35    0.29
   0   6  -8    1.75    0.28
   1   6   8    0.81    0.25
  -1   6  -8    0.64    0.25
   1   6   8    0.38    0.25
   1   6   8    0.38    0.26
   2  -6   8   22.64    0.75
   2   6   8   22.43    0.77
  -2   6  -8   23.13    0.79
   2   6   8   22.62    0.78
   3  -6   8   39.93    1.11
  -3   6  -8   38.79    1.14
   3   6   8   39.64    1.13
   3   6   8   38.78    1.10
   4  -6   8    3.16    0.36
  -4   6  -8    2.52    0.38
   4   6   8    1.96    0.31
   5  -6   8   17.67    0.76
   5   6   8   17.46    0.69
   6  -6   8    2.98    0.41
   6   6   8    3.02    0.35
   7  -6   8    8.49    0.66
   7   6   8    7.24    0.55
   8  -6   8    1.28    0.63
   8   6   8    1.19    0.33
  -8   6  -8    1.30    0.50
   9   6   8   12.99    0.72
  10   6   8    3.61    0.46
  11   6   8   -0.21    0.37
  12   6   8    0.68    0.42
  11   7  -8    0.50    0.42
  11   7  -8    1.47    0.45
  10   7  -8    4.86    0.53
  10   7  -8    4.25    0.52
   9   7  -8    3.13    0.44
   9   7  -8    3.26    0.46
   8   7  -8    2.01    0.39
  -8   7   8    1.87    0.65
   8   7  -8    1.85    0.38
   7   7  -8    3.13    0.41
  -7   7   8    2.06    0.46
   7   7  -8    2.85    0.38
   6   7  -8   10.07    0.60
  -6   7   8   10.41    0.69
   6   7  -8   10.82    0.63
  -6   7   8    8.78    0.75
  -5   7   8    2.67    0.43
  -5   7   8    2.89    0.41
   5   7  -8    2.81    0.38
  -4   7   8    4.35    0.43
  -4   7   8    5.19    0.49
  -3   7   8    9.40    0.63
  -3   7   8    9.78    0.60
  -2   7   8   11.44    0.64
  -2   7   8   11.81    0.61
  -1   7   8    0.50    0.28
  -1   7   8   -0.03    0.27
   0   7   8    3.88    0.37
   0   7   8    3.59    0.37
   1   7   8   38.50    1.09
   1   7   8   37.52    1.10
   2   7   8    2.56    0.33
   2   7   8    2.59    0.34
   3   7   8    0.69    0.26
   4   7   8    9.23    0.54
   5   7   8    8.72    0.54
   6   7   8    0.73    0.30
   7   7   8   10.77    0.62
   8   7   8    6.87    0.57
   9   7   8    0.70    0.34
  10   7   8    0.89    0.38
  11   7   8    5.61    0.55
   9   8  -8    0.09    0.35
   9   8  -8    0.18    0.35
   8   8  -8    0.20    0.34
   8   8  -8    0.23    0.33
   7   8  -8    0.02    0.32
  -7   8   8   -0.56    0.39
  -7   8   8   -0.52    0.37
   7   8  -8   -0.18    0.31
  -6   8   8   -0.06    0.35
  -6   8   8    0.20    0.40
   6   8  -8    0.24    0.31
  -5   8   8    0.53    0.34
  -5   8   8    0.05    0.36
  -4   8   8    0.21    0.35
  -4   8   8    0.18    0.33
  -3   8   8    2.11    0.39
  -3   8   8    1.30    0.35
  -2   8   8    0.38    0.30
  -2   8   8    0.45    0.32
  -1   8   8   -0.24    0.28
  -1   8   8   -0.08    0.27
   0   8   8    3.91    0.40
   0   8   8    3.89    0.38
   1   8   8    1.05    0.30
   1   8   8    1.10    0.29
   2   8   8    0.15    0.26
   2   8   8    0.13    0.25
   3   8   8    2.52    0.32
   4   8   8    0.48    0.26
   5   8   8   -0.03    0.25
   6   8   8   -0.17    0.26
   7   8   8   -0.20    0.27
   8   8   8    1.21    0.34
  -5   9   8    0.66    0.39
  -4   9   8    0.70    0.37
  -4   9   8    0.54    0.40
  -3   9   8    3.27    0.41
  -3   9   8    3.48    0.47
  -2   9   8    1.56    0.34
  -2   9   8    1.57    0.37
  -1   9   8    0.19    0.29
  -1   9   8    0.32    0.32
   0   9   8    3.40    0.37
   0   9   8    3.15    0.40
   1   9   8    7.45    0.52
   1   9   8    7.39    0.58
   2   9   8    0.21    0.26
   3   9   8    3.99    0.36
   4   9   8   -0.19    0.24
  16   0  -9   -0.48    0.49
  15   0  -9   -0.28    0.53
  14   0  -9   -0.89    0.43
  13   0  -9   -0.14    0.48
  12   0  -9   -0.09    0.44
  11   0  -9   -0.17    0.38
  11   0  -9    0.08    0.36
  10   0  -9   -0.07    0.33
  10   0  -9    0.23    0.39
 -10   0   9   -0.40    0.32
  -9   0   9    0.30    0.34
   9   0  -9    0.23    0.32
   9   0  -9    0.11    0.33
  -9   0   9   -0.17    0.25
   8   0  -9   -0.20    0.30
   8   0  -9   -0.10    0.27
  -8   0   9   -0.37    0.26
  -8   0   9   -0.23    0.31
  -7   0   9    0.16    0.26
   7   0  -9    0.08    0.27
  -7   0   9   -0.02    0.23
   7   0  -9    0.05    0.28
   6   0  -9    0.14    0.26
   6   0  -9   -0.03    0.19
  -6   0   9    0.07    0.22
  -6   0   9   -0.07    0.26
  -5   0   9   -0.08    0.22
   5   0  -9   -0.40    0.27
   5   0  -9   -0.03    0.20
  -5   0   9   -0.08    0.22
  -4   0   9    0.01    0.21
   4   0  -9   -0.11    0.23
   4   0  -9   -0.07    0.18
  -4   0   9   -0.14    0.20
  -3   0   9   -0.02    0.19
   3   0  -9   -0.03    0.23
   3   0  -9   -0.24    0.18
  -3   0   9    0.01    0.20
   2   0  -9   -0.10    0.17
  -2   0   9    0.13    0.21
  -2   0   9    0.14    0.19
   2   0  -9    0.04    0.24
   2   0  -9   -0.03    0.17
   1   0  -9    0.11    0.22
   1   0  -9    0.07    0.18
  -1   0   9    0.05    0.18
   1   0  -9   -0.03    0.10
  -1   0   9   -0.11    0.22
   0   0  -9    0.05    0.17
   0   0   9   -0.13    0.21
   0   0   9    0.00    0.20
   0   0  -9   -0.06    0.05
   1   0   9    0.26    0.19
   1   0   9    0.17    0.21
  -1   0  -9    0.05    0.17
  -2   0  -9   -0.10    0.17
   2   0   9    0.05    0.22
   2   0   9    0.10    0.23
   3   0   9   -0.08    0.23
   3   0   9   -0.08    0.23
  -3   0  -9    0.01    0.20
  -4   0  -9   -0.10    0.21
   4   0   9    0.31    0.23
   5   0   9   -0.06    0.23
  -5   0  -9   -0.44    0.21
   6   0   9   -0.20    0.27
  -7   0  -9    0.16    0.26
   7   0   9   -0.10    0.29
   8   0   9    0.27    0.32
  -8   0  -9    0.20    0.27
  -9   0  -9   -0.08    0.22
   9   0   9    0.18    0.31
  10   0   9   -0.18    0.33
  11   0   9   -0.14    0.40
  12   0   9   -0.13    0.44
  13   0   9    0.32    0.44
  14   0   9    0.18    0.52
  15   0   9   -0.18    0.53
  16   0   9    0.88    0.59
  16  -1  -9    0.09    0.54
  16   1  -9   -0.54    0.53
  15  -1  -9    4.00    0.72
  15   1  -9    2.89    0.63
  14  -1  -9    3.01    0.63
  14   1  -9    2.48    0.57
  13  -1  -9    7.55    0.77
  13   1  -9    6.27    0.72
  12  -1  -9    0.73    0.49
  12   1  -9    0.87    0.45
  11  -1  -9   40.71    1.40
 -11  -1   9   41.80    1.36
  11   1  -9   41.89    1.44
  11   1  -9   40.10    1.38
 -10  -1   9    7.19    0.59
  10  -1  -9    6.71    0.65
  10  -1  -9    6.76    0.63
  10   1  -9    6.07    0.56
  10   1  -9    7.44    0.61
   9  -1  -9    6.57    0.55
   9  -1  -9    5.54    0.49
  -9  -1   9    6.21    0.50
   9   1  -9    7.92    0.61
   9   1  -9    6.86    0.59
  -9   1   9    6.17    0.57
   8  -1  -9    2.63    0.40
   8  -1  -9    3.32    0.39
  -8  -1   9    2.99    0.38
  -8   1   9    3.83    0.42
   8   1  -9    2.62    0.36
   8   1  -9    3.21    0.44
  -8   1   9    3.23    0.43
   7  -1  -9   33.63    1.10
  -7  -1   9   34.98    1.08
   7  -1  -9   35.37    1.11
   7   1  -9   35.25    1.13
   7   1  -9   34.72    1.08
  -7   1   9   35.29    1.11
  -7   1   9   34.39    1.10
   6  -1  -9   57.34    1.54
   6  -1  -9   58.70    1.53
  -6  -1   9   58.31    1.50
   6   1  -9   54.07    1.51
  -6   1   9   56.68    1.49
  -6   1   9   57.31    1.49
   6   1  -9   56.42    1.50
  -6   1   9   56.85    1.52
   5  -1  -9   20.16    0.74
  -5  -1   9   20.61    0.74
   5  -1  -9   20.71    0.80
   5   1  -9   20.16    0.73
  -5   1   9   19.50    0.72
  -5   1   9   20.87    0.74
  -5   1   9   20.60    0.75
   5   1  -9   19.43    0.78
   4  -1  -9   43.03    1.18
  -4  -1   9   44.49    1.17
   4  -1  -9   42.24    1.22
  -4  -1   9   43.69    1.18
  -4   1   9   43.73    1.20
  -4   1   9   44.08    1.20
   4   1  -9   44.30    1.19
  -4   1   9   43.35    1.18
   4   1  -9   43.35    1.22
  -3  -1   9    9.96    0.46
   3  -1  -9    9.89    0.55
   3  -1  -9    9.64    0.47
  -3  -1   9    9.47    0.48
   3   1  -9   10.16    0.46
  -3   1   9   10.30    0.50
   3   1  -9    9.91    0.52
  -3   1   9    9.54    0.47
   3   1  -9    9.98    0.50
  -2  -1   9   17.28    0.62
   2  -1  -9   16.13    0.60
  -2  -1   9   16.97    0.62
   2  -1  -9   15.42    0.64
   2   1  -9   15.71    0.61
   2   1  -9   16.37    0.60
  -2   1   9   16.51    0.63
   2   1  -9   16.25    0.68
  -2   1   9   15.94    0.62
   1  -1  -9   12.91    0.57
   1  -1  -9   12.04    0.51
  -1  -1   9   12.91    0.56
  -1  -1   9   11.41    0.51
   1  -1  -9   13.05    0.53
  -1   1   9   12.62    0.53
   1   1  -9   12.81    0.54
   1   1  -9   11.94    0.52
   1   1  -9   12.32    0.57
  -1   1   9   11.69    0.56
   0  -1  -9  122.62    2.78
   0  -1   9  126.14    2.81
   0  -1   9  123.39    2.79
   0  -1  -9  127.04    2.78
   0   1  -9  124.51    2.78
   0   1   9  123.91    2.80
   0   1   9  121.72    2.80
  -1  -1  -9    0.34    0.21
  -1  -1  -9    0.25    0.20
   1  -1   9    0.21    0.22
   1  -1   9    0.27    0.21
  -1   1  -9    0.06    0.21
   1   1   9    0.39    0.24
   1   1   9    0.10    0.20
  -2  -1  -9   31.79    0.89
  -2  -1  -9   30.44    0.90
   2  -1   9   32.21    0.92
   2  -1   9   30.03    0.95
  -2   1  -9   31.31    0.91
   2   1   9   31.18    0.94
   2   1   9   31.00    0.91
   3  -1   9   12.08    0.57
   3  -1   9   12.88    0.59
  -3  -1  -9   11.53    0.52
  -3   1  -9   11.82    0.51
   3   1   9   11.81    0.58
   3   1   9   10.95    0.55
  -4  -1  -9   45.45    1.31
   4  -1   9   46.54    1.26
   4   1   9   46.68    1.25
  -4   1  -9   48.20    1.25
   5  -1   9    0.22    0.24
   5   1   9    0.93    0.29
  -5   1  -9    0.50    0.24
  -6  -1  -9   25.56    0.91
   6  -1   9   24.89    0.90
   6   1   9   25.90    0.89
   7  -1   9   31.91    1.03
   7   1   9   32.90    1.06
   8  -1   9    2.65    0.40
  -8   1  -9    3.36    0.43
   8   1   9    3.26    0.39
   9  -1   9    5.96    0.53
   9   1   9    5.31    0.47
  -9   1  -9    4.20    0.47
  10  -1   9    6.21    0.55
  10   1   9    8.05    0.62
  11  -1   9   11.98    0.77
  11   1   9   11.59    0.75
  12  -1   9    1.34    0.49
  12   1   9    0.88    0.47
  13  -1   9    5.33    0.63
  13   1   9    6.60    0.70
  14  -1   9    4.81    0.65
  14   1   9    5.88    0.68
  15  -1   9    0.63    0.55
  15   1   9    1.12    0.58
  16  -1   9    5.45    0.78
  16   1   9    5.01    0.76
  16  -2  -9    2.21    0.65
  16   2  -9    1.63    0.63
  15  -2  -9    6.38    0.80
 -15  -2   9    7.10    0.79
  15   2  -9    7.27    0.84
 -14  -2   9   -0.05    0.46
  14  -2  -9   -0.15    0.48
  14   2  -9    0.16    0.52
  13  -2  -9   13.92    1.05
 -13  -2   9   16.05    0.92
  13   2  -9   14.53    1.01
 -12  -2   9    6.17    0.57
  12  -2  -9    7.47    0.71
  12   2  -9    6.26    0.61
  12   2  -9    7.05    0.70
 -11  -2   9    0.39    0.36
  11  -2  -9   -0.19    0.41
  11   2  -9   -0.13    0.41
  11   2  -9    0.03    0.39
 -10  -2   9    9.60    0.59
  10  -2  -9    7.65    0.63
  10   2  -9    9.80    0.69
  10   2  -9    9.08    0.67
   9  -2  -9   15.11    0.83
   9  -2  -9   15.18    0.81
  -9  -2   9   14.55    0.72
   9   2  -9   15.45    0.77
   9   2  -9   15.88    0.81
  -9   2   9   14.11    0.79
  -8  -2   9    9.89    0.60
   8  -2  -9    9.61    0.63
   8  -2  -9   10.20    0.68
   8   2  -9    9.82    0.61
   8   2  -9   10.19    0.61
  -8   2   9    9.67    0.63
   7  -2  -9    5.86    0.50
  -7  -2   9    5.41    0.44
   7  -2  -9    6.49    0.52
   7   2  -9    6.27    0.51
  -7   2   9    5.14    0.46
   7   2  -9    6.81    0.56
  -7   2   9    5.78    0.52
   6  -2  -9   18.22    0.73
  -6  -2   9   17.28    0.69
   6  -2  -9   16.91    0.75
  -6   2   9   17.66    0.71
   6   2  -9   17.50    0.69
  -6   2   9   17.45    0.70
   6   2  -9   17.73    0.72
  -6   2   9   17.46    0.73
  -5  -2   9   31.58    0.94
   5  -2  -9   32.12    1.01
   5  -2  -9   32.16    0.99
  -5   2   9   32.70    1.01
  -5   2   9   32.14    0.98
   5   2  -9   31.91    1.02
  -5   2   9   32.07    0.97
   5   2  -9   31.03    0.97
   4  -2  -9    4.50    0.41
   4  -2  -9    4.58    0.40
  -4  -2   9    4.63    0.37
   4   2  -9    4.37    0.40
  -4   2   9    5.08    0.42
  -4   2   9    3.95    0.34
   4   2  -9    4.44    0.41
  -4   2   9    5.38    0.41
  -3  -2   9   34.13    0.98
  -3  -2   9   34.21    0.97
   3  -2  -9   33.48    1.03
   3  -2  -9   34.30    0.99
   3   2  -9   33.96    0.97
  -3   2   9   35.41    1.02
   3   2  -9   34.58    0.99
  -3   2   9   34.54    1.01
   3   2  -9   33.16    1.02
  -3   2   9   33.43    0.98
   2  -2  -9   49.07    1.32
   2  -2  -9   49.12    1.26
  -2  -2   9   48.98    1.27
   2   2  -9   48.63    1.26
   2   2  -9   49.31    1.32
  -2   2   9   47.82    1.28
  -2   2   9   49.02    1.29
  -2   2   9   47.75    1.27
  -1  -2   9   19.56    0.69
  -1  -2   9   20.08    0.68
   1  -2  -9   19.13    0.70
   1  -2  -9   20.88    0.67
   1   2  -9   19.55    0.75
  -1   2   9   19.86    0.71
  -1   2   9   20.87    0.73
   1   2  -9   19.88    0.67
   0  -2  -9   36.40    0.99
   0  -2  -9   36.14    0.98
   0  -2   9   35.10    1.02
   0  -2   9   36.47    1.02
   0   2   9   35.69    1.02
   0   2   9   36.69    1.04
   0   2  -9   37.15    1.02
   1  -2   9   51.50    1.35
  -1  -2  -9   52.30    1.32
   1  -2   9   53.09    1.38
  -1  -2  -9   53.34    1.32
   1   2   9   53.49    1.37
   1   2   9   53.75    1.39
  -1   2  -9   53.10    1.36
   2  -2   9   31.84    0.97
  -2  -2  -9   32.86    0.92
   2  -2   9   31.50    0.93
  -2  -2  -9   31.99    0.90
  -2   2  -9   31.12    0.94
   2   2   9   32.22    0.97
   2   2   9   31.53    0.94
  -3  -2  -9    3.53    0.34
   3  -2   9    3.25    0.31
   3   2   9    2.94    0.33
   3   2   9    2.90    0.32
  -3   2  -9    3.23    0.31
  -4  -2  -9   30.79    0.87
   4  -2   9   29.44    0.91
   4   2   9   29.71    0.91
   4   2   9   30.95    0.96
  -4   2  -9   28.77    0.90
   5  -2   9   52.56    1.41
  -5  -2  -9   54.19    1.40
   5   2   9   52.61    1.41
  -5   2  -9   53.66    1.42
   6  -2   9    9.69    0.55
  -6   2  -9    9.77    0.53
   6   2   9    9.21    0.57
   7  -2   9    2.79    0.39
   7   2   9    1.98    0.36
   8  -2   9   37.49    1.20
  -8   2  -9   35.62    1.26
   8   2   9   36.38    1.16
   9  -2   9   12.59    0.71
   9   2   9   13.12    0.74
  10  -2   9    1.27    0.39
  10   2   9    0.63    0.38
  11  -2   9   31.12    1.22
  11   2   9   30.24    1.17
  12  -2   9   12.46    0.90
  12   2   9   13.71    0.82
  13  -2   9    2.95    0.58
  13   2   9    2.28    0.51
  14  -2   9    1.52    0.57
  14   2   9    1.18    0.49
  15  -2   9   10.18    0.87
  15   2   9    9.88    0.89
  15  -3  -9   -0.50    0.51
  15   3  -9   -0.21    0.55
  14  -3  -9    1.58    0.61
  14   3  -9    2.66    0.64
  13  -3  -9   -0.03    0.45
 -13  -3   9    0.36    0.42
  13   3  -9    0.13    0.52
  13   3  -9    0.03    0.50
  12  -3  -9    0.97    0.50
 -12  -3   9    1.69    0.44
  12   3  -9    1.05    0.47
  12   3  -9    1.20    0.46
 -11  -3   9    0.23    0.35
  11  -3  -9   -0.15    0.41
  11   3  -9   -0.15    0.36
  11   3  -9    0.23    0.35
  10  -3  -9    4.20    0.51
 -10  -3   9    4.07    0.45
  10   3  -9    3.98    0.51
  10   3  -9    3.78    0.46
   9  -3  -9   -0.01    0.36
  -9  -3   9    0.02    0.28
  -9   3   9    0.05    0.36
   9   3  -9    0.17    0.28
   9   3  -9    0.00    0.35
   8  -3  -9    7.81    0.59
   8  -3  -9    7.29    0.68
  -8  -3   9    6.18    0.50
   8   3  -9    7.43    0.60
  -8   3   9    6.47    0.61
   8   3  -9    7.13    0.56
   7  -3  -9    7.17    0.58
   7  -3  -9    5.69    0.48
  -7  -3   9    7.03    0.51
  -7   3   9    7.17    0.49
   7   3  -9    7.28    0.53
   7   3  -9    6.89    0.56
  -7   3   9    6.91    0.59
  -6  -3   9   -0.06    0.23
   6  -3  -9    0.28    0.29
   6  -3  -9    0.24    0.28
   6   3  -9    0.06    0.29
  -6   3   9    0.14    0.26
   6   3  -9    0.08    0.25
  -6   3   9   -0.04    0.30
  -6   3   9    0.03    0.26
   5  -3  -9    1.70    0.33
  -5  -3   9    1.46    0.27
   5  -3  -9    1.81    0.32
  -5   3   9    1.62    0.32
   5   3  -9    1.17    0.27
   5   3  -9    1.30    0.32
  -5   3   9    1.31    0.27
  -5   3   9    1.37    0.31
   4  -3  -9    0.68    0.37
  -4  -3   9    0.28    0.23
   4  -3  -9    0.39    0.27
  -4   3   9    0.14    0.22
   4   3  -9    0.11    0.26
  -4   3   9    0.18    0.23
  -4   3   9    0.43    0.25
   4   3  -9    0.36    0.23
  -3  -3   9   44.34    1.19
   3  -3  -9   46.40    1.27
  -3   3   9   46.03    1.23
  -3   3   9   44.46    1.24
   3   3  -9   44.67    1.19
  -3   3   9   45.71    1.24
   3   3  -9   45.19    1.27
   3   3  -9   44.68    1.22
   2  -3  -9   39.83    1.13
  -2  -3   9   39.17    1.07
  -2   3   9   39.82    1.11
   2   3  -9   37.53    1.14
   2   3  -9   38.64    1.07
  -2   3   9   40.43    1.11
  -2   3   9   37.67    1.08
  -1  -3   9   -0.08    0.21
  -1   3   9   -0.19    0.21
   1   3  -9   -0.04    0.20
  -1   3   9    0.13    0.23
  -1   3   9    0.59    0.20
   0  -3   9    8.83    0.47
   0   3  -9    9.08    0.48
   0   3   9    8.52    0.49
   0   3   9    8.39    0.49
   1  -3   9   10.87    0.52
   1   3   9   10.81    0.51
  -1   3  -9   11.05    0.50
   1   3   9   10.64    0.51
   2  -3   9    2.10    0.27
   2   3   9    1.91    0.29
  -2   3  -9    2.02    0.29
   2   3   9    1.98    0.30
   3  -3   9   17.90    0.69
   3   3   9   18.24    0.70
   3   3   9   19.13    0.72
  -3   3  -9   18.77    0.70
   4  -3   9    0.67    0.27
   4   3   9    0.70    0.27
  -4   3  -9    0.86    0.24
   4   3   9    0.77    0.28
   5  -3   9    1.74    0.33
   5   3   9    2.03    0.33
  -5   3  -9    1.85    0.29
   6  -3   9    7.67    0.52
   6   3   9    7.93    0.54
  -6   3  -9    8.70    0.56
   7  -3   9   14.58    0.75
   7   3   9   14.94    0.70
   8  -3   9    0.54    0.31
   8   3   9    0.35    0.32
   9  -3   9    1.66    0.41
   9   3   9    1.12    0.38
  10  -3   9    1.77    0.44
  10   3   9    2.01    0.44
  11  -3   9    0.80    0.45
  11   3   9    1.03    0.42
  12  -3   9    1.63    0.47
  12   3   9    1.70    0.48
  13  -3   9    0.40    0.50
  13   3   9    0.93    0.44
  14  -3   9   -0.23    0.46
  14   3   9    0.42    0.46
  15  -3   9    0.59    0.57
  15   3   9    0.62    0.56
  15  -4  -9    2.47    0.71
  15   4  -9    2.74    0.69
  14  -4  -9   -0.07    0.55
  14   4  -9   -0.90    0.49
  13  -4  -9    9.77    0.86
  13   4  -9    9.66    0.79
  13   4  -9    8.00    0.76
  12  -4  -9    7.00    0.73
  12   4  -9    7.09    0.70
  12   4  -9    8.80    0.81
  11  -4  -9   -0.06    0.45
  11   4  -9   -0.14    0.37
  11   4  -9   -0.04    0.40
  10  -4  -9    0.55    0.41
 -10  -4   9    0.60    0.31
  10   4  -9    1.05    0.38
  10   4  -9    0.59    0.39
   9  -4  -9   10.61    0.73
  -9  -4   9   10.84    0.58
   9   4  -9   10.32    0.71
   9   4  -9   10.57    0.67
  -8  -4   9    0.23    0.26
   8  -4  -9    0.78    0.37
  -8   4   9    0.52    0.38
   8   4  -9    0.37    0.29
   8   4  -9    0.79    0.34
  -7  -4   9    2.54    0.33
   7  -4  -9    2.25    0.38
   7   4  -9    2.50    0.40
  -7   4   9    2.73    0.38
   7   4  -9    2.03    0.34
  -7   4   9    2.41    0.40
   6  -4  -9    0.48    0.31
  -6  -4   9    0.58    0.25
   6   4  -9    0.44    0.28
  -6   4   9    0.62    0.34
  -6   4   9    0.34    0.31
  -6   4   9    0.44    0.29
   6   4  -9    0.27    0.30
   5  -4  -9   21.66    0.81
  -5  -4   9   20.80    0.72
  -5   4   9   20.40    0.84
   5   4  -9   20.84    0.77
  -5   4   9   20.06    0.80
   5   4  -9   20.47    0.80
  -5   4   9   20.04    0.77
  -4  -4   9   -0.23    0.22
   4  -4  -9    0.02    0.26
  -4   4   9    0.18    0.26
  -4   4   9   -0.07    0.23
   4   4  -9    0.10    0.23
   4   4  -9   -0.28    0.26
  -4   4   9   -0.13    0.24
  -3  -4   9    9.34    0.49
   3  -4  -9    9.44    0.54
   3   4  -9    8.69    0.49
   3   4  -9    8.24    0.56
  -3   4   9    9.35    0.54
  -3   4   9    9.30    0.56
  -3   4   9    8.74    0.52
  -2  -4   9   44.97    1.16
   2  -4  -9   43.89    1.22
  -2   4   9   43.96    1.21
   2   4  -9   42.18    1.24
  -2   4   9   43.18    1.21
   2   4  -9   43.81    1.17
  -2   4   9   43.09    1.20
  -1  -4   9   23.17    0.75
  -1   4   9   23.90    0.81
   1   4  -9   23.57    0.77
  -1   4   9   23.74    0.82
  -1   4   9   24.28    0.81
   0  -4   9    0.24    0.23
   0   4   9    0.47    0.27
   0   4   9    0.44    0.24
   0   4   9    0.83    0.25
   0   4  -9    0.35    0.24
   1  -4   9   32.25    0.96
  -1   4  -9   34.43    1.00
   1   4   9   34.11    1.00
   1   4   9   34.71    1.01
   2  -4   9   36.35    1.04
   2   4   9   37.54    1.07
  -2   4  -9   36.37    1.06
   2   4   9   35.95    1.05
   3  -4   9    2.09    0.31
   3   4   9    2.30    0.32
   3   4   9    2.44    0.32
  -3   4  -9    2.31    0.33
   4  -4   9   10.58    0.59
   4   4   9   10.65    0.56
   4   4   9   11.29    0.60
  -4   4  -9   10.63    0.54
   5  -4   9   21.40    0.81
   5   4   9   21.79    0.81
   5   4   9   21.64    0.79
  -5   4  -9   21.59    0.81
   6  -4   9    2.24    0.37
  -6   4  -9    1.67    0.32
   6   4   9    1.75    0.33
   7  -4   9    0.44    0.31
   7   4   9    0.12    0.30
   8  -4   9    8.29    0.67
   8   4   9    8.96    0.63
   9  -4   9   10.44    0.70
   9   4   9   11.50    0.74
  10  -4   9    0.76    0.42
  10   4   9    0.73    0.39
  11  -4   9    0.93    0.46
  11   4   9    0.21    0.40
  12  -4   9    9.31    0.79
  12   4   9   11.07    0.83
  13  -4   9    0.59    0.49
  13   4   9    0.64    0.49
  14  -4   9   -0.03    0.50
  14   4   9    0.39    0.51
  14   5  -9   10.62    0.90
  13   5  -9    1.14    0.54
  13   5  -9    2.50    0.58
  12  -5  -9    3.11    0.62
  12   5  -9    2.86    0.57
  12   5  -9    2.84    0.55
  11  -5  -9    9.92    0.77
  11   5  -9   10.36    0.79
  11   5  -9   10.75    0.86
  10  -5  -9    4.69    0.57
  10   5  -9    6.02    0.57
  10   5  -9    4.83    0.49
   9  -5  -9    0.65    0.36
   9   5  -9    0.35    0.37
   9   5  -9    0.93    0.34
  -8  -5   9   15.35    0.94
   8  -5  -9   17.54    0.84
   8   5  -9   18.42    0.83
   8   5  -9   17.69    0.79
  -8   5   9   18.42    0.94
  -7  -5   9   11.36    0.54
   7  -5  -9   10.81    0.66
   7   5  -9   10.85    0.68
  -7   5   9   11.44    0.65
  -7   5   9   10.59    0.74
   7   5  -9   11.47    0.64
  -6  -5   9    0.94    0.26
   6  -5  -9    0.87    0.32
   6   5  -9    0.71    0.32
   6   5  -9    0.97    0.30
  -6   5   9    0.79    0.33
  -6   5   9    1.15    0.33
  -6   5   9    0.50    0.34
  -5  -5   9    3.64    0.32
   5  -5  -9    3.65    0.40
  -5   5   9    3.50    0.42
   5   5  -9    3.10    0.35
   5   5  -9    2.48    0.38
  -5   5   9    3.65    0.41
  -5   5   9    3.30    0.38
  -4  -5   9   38.90    1.05
   4  -5  -9   40.62    1.16
  -4   5   9   39.17    1.21
  -4   5   9   38.92    1.16
   4   5  -9   39.41    1.18
  -4   5   9   37.62    1.14
   3  -5  -9   30.45    0.98
  -3  -5   9   32.93    0.91
  -3   5   9   32.60    1.02
   3   5  -9   32.41    1.04
  -3   5   9   31.94    1.03
   3   5  -9   32.45    0.96
  -3   5   9   33.10    1.00
  -2  -5   9    0.81    0.23
  -2   5   9    0.93    0.28
   2   5  -9    1.51    0.28
  -2   5   9    1.74    0.33
  -2   5   9    1.84    0.30
  -1  -5   9   29.27    0.86
  -1   5   9   29.79    0.94
  -1   5   9   28.32    0.94
   1   5  -9   29.64    0.91
  -1   5   9   31.17    0.94
   0  -5   9    1.46    0.25
   0   5  -9    1.45    0.29
   0   5   9    1.39    0.31
   0   5   9    1.79    0.29
   0   5   9    1.86    0.30
   1  -5   9   36.58    1.02
  -1   5  -9   34.66    1.06
   1   5   9   36.09    1.06
   1   5   9   37.90    1.07
   2  -5   9    5.43    0.45
   2   5   9    6.75    0.48
  -2   5  -9    5.52    0.46
   2   5   9    6.42    0.48
   3  -5   9   56.85    1.46
   3   5   9   55.77    1.47
  -3   5  -9   53.57    1.47
   3   5   9   57.18    1.46
   4  -5   9    0.32    0.26
   4   5   9    0.44    0.27
   4   5   9    0.14    0.26
  -4   5  -9    0.15    0.26
   5  -5   9    1.01    0.30
   5   5   9    1.14    0.31
  -5   5  -9    1.41    0.33
   5   5   9    0.73    0.29
   6  -5   9   12.36    0.67
  -6   5  -9   12.51    0.66
   6   5   9   12.02    0.65
   6   5   9   12.08    0.80
   7  -5   9   30.91    1.08
  -7   5  -9   29.15    1.06
   7   5   9   29.62    0.99
   8  -5   9    0.76    0.37
   8   5   9    0.47    0.34
   9  -5   9   24.58    1.06
   9   5   9   24.02    0.95
  10  -5   9    3.36    0.53
  10   5   9    3.29    0.48
  11  -5   9    4.56    0.61
  11   5   9    4.56    0.54
  12  -5   9    0.38    0.62
  12   5   9   -0.13    0.41
  13   5   9   11.03    0.92
  12   6  -9    1.61    0.52
  12   6  -9    1.39    0.48
  11   6  -9   -0.05    0.43
  11   6  -9   -0.21    0.38
  10   6  -9    1.09    0.40
  10   6  -9    0.35    0.41
   9   6  -9    0.21    0.36
   9   6  -9    0.07    0.33
   8   6  -9   -0.01    0.31
   8   6  -9    0.11    0.34
   7   6  -9    0.73    0.34
  -7   6   9    0.79    0.37
  -7   6   9    0.80    0.41
   7   6  -9    0.64    0.31
   6  -6  -9    2.31    0.43
  -6   6   9    2.70    0.43
   6   6  -9    2.20    0.36
   6   6  -9    2.32    0.39
  -6   6   9    3.11    0.47
   5  -6  -9    0.27    0.30
  -5   6   9    0.46    0.35
   5   6  -9    0.58    0.32
  -5   6   9    0.20    0.32
   5   6  -9    0.79    0.30
   4  -6  -9    1.89    0.32
   4   6  -9    1.58    0.34
  -4   6   9    1.74    0.37
  -4   6   9    1.94    0.37
  -3  -6   9    0.24    0.19
  -3   6   9   -0.07    0.28
  -3   6   9   -0.30    0.29
  -2  -6   9   12.20    0.50
  -2   6   9   15.58    1.05
  -2   6   9   15.88    0.71
  -2   6   9   15.65    0.70
  -1   6   9    1.51    0.30
  -1   6   9    1.60    0.38
  -1   6   9    1.40    0.31
   0  -6   9    0.74    0.22
   0   6  -9    0.90    0.44
   0   6   9    0.73    0.35
   0   6   9    0.81    0.30
   0   6   9    0.90    0.27
   1  -6   9    4.12    0.35
   1   6   9    3.38    0.37
   1   6   9    3.86    0.36
   2  -6   9    3.05    0.34
   2   6   9    3.32    0.37
   3  -6   9    0.28    0.25
   3   6   9    0.53    0.28
   4  -6   9    0.06    0.26
   4   6   9   -0.25    0.27
   5  -6   9   15.39    0.72
   5   6   9   15.78    0.70
   6  -6   9    0.85    0.41
   6   6   9    0.72    0.32
   7   6   9    7.60    0.60
   8   6   9    0.18    0.32
   9   6   9    3.95    0.47
  10   6   9   -0.21    0.36
  11   6   9    3.75    0.53
  12   6   9    1.24    0.46
  10   7  -9    0.85    0.42
  10   7  -9    1.52    0.43
   9   7  -9    0.57    0.38
   9   7  -9    0.04    0.38
   8   7  -9    5.86    0.52
  -8   7   9    4.98    0.58
   8   7  -9    5.86    0.54
  -7   7   9    0.31    0.44
  -7   7   9    0.23    0.38
   7   7  -9    0.28    0.35
   7   7  -9    0.48    0.33
  -6   7   9    0.12    0.39
  -6   7   9    0.35    0.36
   6   7  -9    0.06    0.32
   6   7  -9    0.14    0.31
   5   7  -9   -0.10    0.29
  -5   7   9    0.48    0.35
  -5   7   9   -0.06    0.32
  -4   7   9    6.50    0.52
  -4   7   9    6.11    0.53
  -3   7   9    5.03    0.45
  -3   7   9    4.27    0.46
  -2   7   9    2.52    0.38
  -2   7   9    2.92    0.39
  -1   7   9    3.15    0.38
  -1   7   9    3.20    0.38
   0   7   9    5.03    0.43
   0   7   9    5.71    0.46
   1   7   9    0.24    0.29
   1   7   9    0.19    0.27
   2   7   9   -0.14    0.27
   3   7   9   15.00    0.66
   4   7   9   -0.27    0.27
   5   7   9    0.45    0.31
   6   7   9    0.03    0.30
   7   7   9    4.87    0.46
   8   7   9    0.86    0.34
   9   7   9    0.22    0.35
  10   7   9    0.60    0.40
   8   8  -9    1.83    0.42
   8   8  -9    2.50    0.44
  -8   8   9    2.69    0.51
   7   8  -9    0.29    0.36
  -7   8   9   -0.38    0.39
   7   8  -9    0.10    0.35
   6   8  -9    7.00    0.64
  -6   8   9    7.40    0.59
  -6   8   9    7.61    0.67
  -5   8   9    8.52    0.69
  -5   8   9    7.82    0.74
   5   8  -9    7.82    0.64
  -4   8   9   -0.17    0.34
  -4   8   9   -0.16    0.34
  -3   8   9    2.88    0.42
  -3   8   9    3.43    0.45
  -2   8   9   10.03    0.70
  -2   8   9   11.40    0.67
  -1   8   9   10.12    0.64
  -1   8   9   10.58    0.67
   0   8   9    4.96    0.44
   0   8   9    4.96    0.46
   1   8   9    6.74    0.56
   1   8   9    6.47    0.57
   2   8   9    3.56    0.39
   3   8   9    1.02    0.31
   4   8   9    0.52    0.31
   5   8   9   15.84    0.70
   6   8   9    0.07    0.30
   7   8   9    0.77    0.33
  -2   9   9   -0.48    0.33
  -2   9   9    0.08    0.32
  -1   9   9    1.20    0.37
  -1   9   9    1.45    0.37
   0   9   9    0.75    0.34
   0   9   9    0.62    0.32
   1   9   9    0.27    0.31
   1   9   9    0.07    0.30
   2   9   9    0.07    0.28
  16   0 -10    4.45    0.76
  15   0 -10    3.27    0.68
  14   0 -10    4.95    0.75
  13   0 -10   26.98    1.25
 -12   0  10   -0.32    0.38
  12   0 -10   -0.20    0.48
  11   0 -10    8.34    0.73
 -11   0  10    7.08    0.65
  10   0 -10    5.64    0.53
  10   0 -10    5.92    0.58
 -10   0  10    6.21    0.56
   9   0 -10   29.09    1.09
  -9   0  10   32.12    1.20
   9   0 -10   28.99    1.09
  -9   0  10   29.44    1.05
   8   0 -10    8.98    0.63
  -8   0  10    9.72    0.61
  -8   0  10    9.14    0.64
   8   0 -10    9.99    0.71
   7   0 -10   70.58    1.85
  -7   0  10   72.08    1.84
  -7   0  10   69.93    1.82
   7   0 -10   70.92    1.89
  -6   0  10   29.51    1.00
   6   0 -10   30.09    1.03
   6   0 -10   31.39    1.00
   5   0 -10   13.40    0.65
  -5   0  10   13.63    0.65
   5   0 -10   11.98    0.59
  -4   0  10    0.37    0.25
   4   0 -10    0.65    0.24
   4   0 -10    0.33    0.27
  -3   0  10   82.28    1.97
  -3   0  10   81.92    1.97
   3   0 -10   79.49    2.01
   2   0 -10   70.57    1.69
  -2   0  10   68.12    1.71
  -2   0  10   67.77    1.70
   2   0 -10   68.48    1.77
   1   0 -10   45.46    1.28
  -1   0  10   45.49    1.25
  -1   0  10   45.84    1.25
   1   0 -10   45.63    1.20
   0   0 -10   49.51    1.31
   0   0  10   50.46    1.36
   0   0  10   52.18    1.36
  -1   0 -10   19.69    0.68
   1   0  10   20.28    0.72
  -1   0 -10   18.93    0.69
   1   0  10   19.19    0.73
   2   0  10    6.26    0.45
  -2   0 -10    5.93    0.41
   2   0  10    5.29    0.43
   3   0  10   25.66    0.85
   3   0  10   25.87    0.88
  -3   0 -10   26.11    0.94
   4   0  10   81.22    2.02
   4   0  10   78.53    1.95
   5   0  10   14.71    0.65
   6   0  10   36.75    1.11
  -7   0 -10    4.85    0.51
   7   0  10    3.82    0.41
   8   0  10   56.54    1.58
  -8   0 -10   58.27    1.68
   9   0  10    0.68    0.38
  10   0  10   16.32    0.83
  11   0  10    8.37    0.69
  12   0  10    3.26    0.57
  13   0  10    2.06    0.58
  14   0  10   21.59    1.14
  15   0  10    3.46    0.63
  16  -1 -10   -0.50    0.54
 -16  -1  10   -0.39    0.55
  16   1 -10   -1.22    0.54
 -15  -1  10    1.95    0.56
  15  -1 -10    1.65    0.62
  15   1 -10    2.01    0.68
 -14  -1  10   -0.03    0.50
  14  -1 -10   -0.54    0.49
  14   1 -10   -0.44    0.53
 -13  -1  10   -0.08    0.42
  13  -1 -10    0.50    0.50
  13   1 -10    0.35    0.54
  12  -1 -10    1.19    0.49
 -12  -1  10    1.36    0.47
  12   1 -10    0.05    0.44
  11  -1 -10    0.00    0.40
 -11  -1  10   -0.19    0.38
  11   1 -10    0.13    0.40
  11   1 -10   -0.07    0.44
 -10  -1  10    2.04    0.44
  10  -1 -10    1.89    0.48
 -10   1  10    2.04    0.43
  10   1 -10    1.78    0.48
  10   1 -10    2.01    0.42
   9  -1 -10    1.01    0.39
   9  -1 -10    1.54    0.35
  -9  -1  10    0.88    0.34
   9   1 -10    1.09    0.38
  -9   1  10    1.37    0.41
   9   1 -10    0.81    0.37
   8  -1 -10   33.76    1.16
   8  -1 -10   35.01    1.17
  -8  -1  10   32.62    1.09
   8   1 -10   33.73    1.15
  -8   1  10   37.67    1.19
   8   1 -10   34.41    1.14
  -8   1  10   35.61    1.14
   7  -1 -10    0.28    0.30
  -7  -1  10    0.46    0.28
   7  -1 -10    0.53    0.30
  -7   1  10    0.47    0.30
   7   1 -10    0.35    0.31
  -7   1  10    0.43    0.30
   7   1 -10    0.32    0.25
   6  -1 -10    1.01    0.33
  -6  -1  10    1.31    0.33
   6  -1 -10    0.68    0.28
  -6   1  10    1.08    0.31
   6   1 -10    0.91    0.33
  -6   1  10    0.87    0.31
   6   1 -10    0.55    0.27
  -5  -1  10   62.13    1.60
   5  -1 -10   62.71    1.63
   5  -1 -10   61.90    1.66
   5   1 -10   63.39    1.62
  -5   1  10   62.03    1.62
  -5   1  10   64.43    1.65
   5   1 -10   60.12    1.65
   4  -1 -10   10.78    0.55
  -4  -1  10   10.42    0.57
   4  -1 -10   10.70    0.58
   4   1 -10   10.64    0.56
  -4   1  10   10.95    0.56
   4   1 -10    9.71    0.57
  -4   1  10   10.65    0.53
   3  -1 -10    0.49    0.21
   3  -1 -10    0.36    0.26
  -3  -1  10    0.54    0.25
   3   1 -10    0.24    0.27
  -3   1  10    0.64    0.26
   3   1 -10    0.42    0.21
  -3   1  10    0.71    0.24
   3   1 -10    0.61    0.23
  -2  -1  10   17.64    0.74
   2  -1 -10   17.44    0.74
  -2  -1  10   17.76    0.66
   2  -1 -10   17.06    0.66
  -2   1  10   17.63    0.71
   2   1 -10   17.55    0.72
   2   1 -10   17.73    0.66
  -2   1  10   17.71    0.69
   2   1 -10   18.66    0.69
  -1  -1  10   27.95    0.89
  -1  -1  10   28.31    0.89
   1  -1 -10   26.24    0.90
   1  -1 -10   27.66    0.84
   1  -1 -10   26.54    0.85
   1   1 -10   27.28    0.88
  -1   1  10   28.85    0.90
   1   1 -10   26.85    0.84
  -1   1  10   28.69    0.88
   1   1 -10   27.50    0.91
   0  -1  10    0.01    0.22
   0  -1 -10    0.20    0.19
   0  -1  10    0.24    0.26
   0  -1 -10    0.22    0.20
   0   1  10    0.26    0.23
   0   1 -10    0.14    0.20
   0   1  10    0.23    0.24
  -1  -1 -10   25.95    0.84
   1  -1  10   26.30    0.87
  -1  -1 -10   27.41    0.93
   1  -1  10   26.86    0.89
   1   1  10   27.60    0.87
   1   1  10   25.54    0.87
  -1   1 -10   26.40    0.83
   2  -1  10   24.84    0.84
   2  -1  10   23.80    0.95
  -2  -1 -10   24.65    0.80
  -2   1 -10   25.08    0.80
   2   1  10   24.06    0.83
   2   1  10   24.95    0.82
   3  -1  10   12.50    0.58
  -3  -1 -10   13.18    0.57
   3   1  10   12.16    0.61
   3   1  10   11.34    0.58
  -3   1 -10   12.63    0.57
   4  -1  10    0.25    0.28
   4   1  10    0.63    0.27
   4   1  10    0.39    0.29
  -4   1 -10    0.27    0.29
   5  -1  10   20.74    0.78
   5   1  10   20.53    0.80
   6  -1  10   28.01    0.98
  -6  -1 -10   30.19    1.40
   6   1  10   28.27    0.95
   7  -1  10    0.58    0.34
   7   1  10    1.23    0.35
   8  -1  10    3.21    0.45
  -8   1 -10    4.13    0.52
   8   1  10    3.92    0.43
   9  -1  10   21.86    0.96
   9   1  10   22.56    0.96
  10  -1  10    0.90    0.39
  10   1  10    0.75    0.41
  11  -1  10   -0.20    0.37
  11   1  10    0.38    0.44
  12  -1  10    4.39    0.60
  12   1  10    3.46    0.53
  13  -1  10    3.39    0.57
  13   1  10    3.77    0.61
  14  -1  10   -0.18    0.53
  14   1  10    0.16    0.53
  15  -1  10    0.24    0.51
  15   1  10    0.57    0.52
  15  -2 -10   -0.38    0.59
  15   2 -10    0.16    0.52
 -14  -2  10    0.38    0.50
  14  -2 -10    1.62    0.57
  14   2 -10    0.82    0.59
  13  -2 -10    2.25    0.58
 -13  -2  10    2.44    0.54
  13   2 -10    2.14    0.59
  12  -2 -10   -0.17    0.49
 -12  -2  10   -0.43    0.40
  12   2 -10   -0.32    0.46
 -11  -2  10    6.97    0.61
  11  -2 -10    7.45    0.72
  11   2 -10    5.56    0.64
  11   2 -10    8.59    0.71
  10  -2 -10    0.45    0.39
 -10  -2  10    0.82    0.38
  10   2 -10    1.18    0.37
  10   2 -10    0.55    0.42
  -9  -2  10    1.44    0.36
   9  -2 -10    1.42    0.44
   9   2 -10    1.59    0.40
  -9   2  10    1.15    0.42
   9   2 -10    2.08    0.41
   8  -2 -10    0.38    0.37
  -8  -2  10    0.16    0.31
   8  -2 -10    0.55    0.28
  -8   2  10    0.23    0.33
  -8   2  10    0.22    0.30
   8   2 -10    0.14    0.28
   8   2 -10    0.64    0.38
   7  -2 -10   26.02    0.95
   7  -2 -10   26.14    0.99
  -7  -2  10   25.65    0.91
   7   2 -10   25.97    0.98
  -7   2  10   25.42    0.93
  -7   2  10   27.18    0.99
   7   2 -10   25.31    0.92
  -6  -2  10   -0.11    0.24
   6  -2 -10   -0.23    0.30
   6  -2 -10    0.10    0.26
  -6   2  10   -0.09    0.27
   6   2 -10   -0.08    0.24
   6   2 -10   -0.14    0.28
  -6   2  10    0.03    0.30
   5  -2 -10    6.85    0.52
   5  -2 -10    7.04    0.50
  -5  -2  10    6.40    0.46
  -5   2  10    6.63    0.51
  -5   2  10    6.49    0.52
  -5   2  10    6.61    0.49
   5   2 -10    7.14    0.52
   5   2 -10    7.27    0.52
   4  -2 -10    5.26    0.46
   4  -2 -10    6.02    0.48
  -4  -2  10    5.68    0.42
   4   2 -10    4.91    0.47
  -4   2  10    5.23    0.43
   4   2 -10    4.36    0.41
  -4   2  10    6.22    0.48
  -4   2  10    5.79    0.46
  -3  -2  10   26.82    0.88
   3  -2 -10   28.45    0.88
   3  -2 -10   28.47    0.96
  -3   2  10   27.56    0.89
   3   2 -10   27.40    0.85
   3   2 -10   25.84    0.92
   3   2 -10   27.72    0.90
  -3   2  10   27.10    0.90
  -3   2  10   27.39    0.90
   2  -2 -10   23.60    0.86
   2  -2 -10   24.71    0.79
  -2  -2  10   24.34    0.82
   2   2 -10   23.01    0.84
   2   2 -10   22.51    0.80
   2   2 -10   23.37    0.78
  -2   2  10   24.85    0.85
  -2   2  10   23.25    0.80
  -1  -2  10    4.16    0.37
   1  -2 -10    5.61    0.38
  -1   2  10    3.47    0.36
  -1   2  10    4.44    0.39
   1   2 -10    5.02    0.38
   0  -2 -10   15.46    0.60
   0  -2  10   15.18    0.65
   0   2  10   15.93    0.64
   0   2  10   15.80    0.67
   0   2 -10   15.85    0.64
   1  -2  10   -0.13    0.22
  -1  -2 -10    0.95    0.22
   1   2  10   -0.08    0.21
   1   2  10    0.17    0.26
  -1   2 -10   -0.07    0.20
   2  -2  10   14.16    0.63
  -2  -2 -10   14.47    0.58
  -2   2 -10   14.74    0.60
   2   2  10   13.67    0.64
   2   2  10   13.84    0.61
   3  -2  10    1.22    0.30
  -3  -2 -10    1.57    0.26
   3   2  10    1.36    0.31
   3   2  10    1.19    0.28
  -3   2 -10    0.98    0.27
  -4  -2 -10   41.30    1.14
   4  -2  10   41.89    1.20
  -4   2 -10   40.68    1.19
   4   2  10   42.27    1.20
   4   2  10   41.34    1.23
   5  -2  10    2.92    0.38
   5   2  10    3.37    0.40
   6  -2  10    3.25    0.42
   6   2  10    3.09    0.39
   7  -2  10    0.52    0.35
   7   2  10    1.06    0.35
   8  -2  10    0.27    0.36
   8   2  10    0.49    0.32
   9  -2  10    8.38    0.65
   9   2  10    8.23    0.63
  10  -2  10   21.07    0.96
  10   2  10   22.65    1.00
  11  -2  10    0.58    0.45
  11   2  10    0.83    0.45
  12  -2  10    1.05    0.46
  12   2  10    0.80    0.44
  13  -2  10   -0.06    0.46
  13   2  10    0.13    0.50
  14  -2  10    2.07    0.60
  14   2  10    3.08    0.63
  15  -2  10    0.18    0.60
  15   2  10   -0.16    0.53
  15  -3 -10    6.49    0.84
  15   3 -10    7.27    0.88
  14  -3 -10    1.38    0.66
  14   3 -10    1.11    0.60
  13  -3 -10    5.68    0.75
  13   3 -10    4.04    0.67
  12  -3 -10    8.28    0.78
 -12  -3  10    9.32    0.70
  12   3 -10    9.67    0.79
  12   3 -10    9.83    0.84
 -11  -3  10    4.23    0.50
  11  -3 -10    4.40    0.59
  11   3 -10    3.32    0.47
  11   3 -10    3.56    0.55
 -10  -3  10   -0.17    0.34
  10  -3 -10   -0.08    0.41
  10   3 -10   -0.18    0.33
  10   3 -10    0.44    0.37
   9  -3 -10    9.84    0.70
  -9  -3  10   10.78    0.65
   9   3 -10   10.38    0.70
   9   3 -10    9.67    0.72
  -8  -3  10   15.01    0.70
   8  -3 -10   14.89    0.80
   8   3 -10   14.77    0.73
   8   3 -10   13.48    0.77
  -8   3  10   13.25    0.78
  -8   3  10   13.65    0.78
  -7  -3  10    7.15    0.55
   7  -3 -10    6.52    0.55
   7   3 -10    5.89    0.51
   7   3 -10    5.88    0.55
  -7   3  10    7.22    0.61
  -7   3  10    5.93    0.51
  -6  -3  10    8.14    0.53
   6  -3 -10    8.40    0.62
   6   3 -10    7.33    0.60
  -6   3  10    8.06    0.60
   6   3 -10    7.67    0.56
  -6   3  10    8.27    0.52
  -6   3  10    7.70    0.55
  -5  -3  10   10.86    0.60
   5  -3 -10   11.48    0.66
  -5   3  10   11.29    0.57
   5   3 -10   10.92    0.60
  -5   3  10   10.98    0.63
   5   3 -10   10.91    0.65
  -5   3  10   11.03    0.65
   4  -3 -10   58.78    1.58
  -4  -3  10   58.76    1.50
  -4   3  10   57.12    1.53
  -4   3  10   58.77    1.57
   4   3 -10   57.28    1.53
  -4   3  10   58.78    1.54
   4   3 -10   57.26    1.56
   3  -3 -10    9.92    0.55
  -3  -3  10    9.31    0.53
   3   3 -10    8.45    0.54
   3   3 -10    9.04    0.56
   3   3 -10    9.18    0.48
  -3   3  10    9.93    0.59
  -3   3  10    8.51    0.50
  -3   3  10    9.73    0.56
  -2  -3  10   11.00    0.56
   2  -3 -10   12.48    0.59
  -2   3  10   10.89    0.60
   2   3 -10   10.67    0.63
  -2   3  10   11.18    0.59
  -2   3  10   11.30    0.57
   2   3 -10   10.80    0.55
  -1  -3  10   71.27    1.75
   1   3 -10   70.80    1.75
  -1   3  10   72.22    1.78
  -1   3  10   69.40    1.77
   0  -3  10    6.12    0.48
   0   3 -10    6.66    0.48
   0   3  10    8.01    0.54
   0   3  10    5.92    0.49
   1  -3  10   26.48    0.87
   1   3  10   25.61    0.86
   1   3  10   26.74    0.89
  -1   3 -10   26.82    0.88
   2  -3  10   61.36    1.56
   2   3  10   58.49    1.56
   2   3  10   61.90    1.57
  -2   3 -10   60.02    1.56
   3  -3  10   26.02    0.84
  -3   3 -10   24.48    0.86
   3   3  10   25.57    0.89
   3   3  10   24.26    0.86
   4  -3  10    0.68    0.29
  -4   3 -10    0.39    0.25
   4   3  10    0.48    0.27
   4   3  10    0.30    0.26
   5  -3  10   79.77    1.95
  -5   3 -10   74.67    1.92
   5   3  10   77.13    1.93
   5   3  10   76.39    1.96
   6  -3  10   31.90    1.05
   6   3  10   32.62    1.05
   7  -3  10    0.45    0.35
   7   3  10    0.49    0.32
   8  -3  10    1.20    0.38
   8   3  10    1.69    0.40
   9  -3  10   23.48    1.02
   9   3  10   23.10    0.92
  10  -3  10   16.32    0.87
  10   3  10   16.79    0.88
  11  -3  10    1.52    0.49
  11   3  10    1.37    0.43
  12  -3  10    5.18    0.63
  12   3  10    4.47    0.59
  13  -3  10    5.66    0.68
  13   3  10    6.27    0.68
  14  -3  10    0.57    0.59
  14   3  10    0.63    0.52
  14  -4 -10    4.85    0.79
  14   4 -10    4.88    0.76
  13  -4 -10    1.38    0.60
  13   4 -10    0.80    0.56
  12  -4 -10    0.89    0.55
  12   4 -10    1.06    0.53
  12   4 -10    1.20    0.45
  11  -4 -10   -0.19    0.45
  11   4 -10    0.86    0.42
  11   4 -10    0.92    0.46
  10  -4 -10   13.47    0.88
 -10  -4  10   12.76    0.69
  10   4 -10   13.57    0.81
  10   4 -10   11.90    0.83
  -9  -4  10    1.99    0.36
   9  -4 -10    1.98    0.46
   9   4 -10    2.17    0.46
   9   4 -10    1.63    0.37
  -8  -4  10    1.75    0.34
   8  -4 -10    1.81    0.42
  -8   4  10    2.55    0.46
   8   4 -10    2.61    0.38
   8   4 -10    2.23    0.43
   7  -4 -10    0.09    0.32
  -7  -4  10   -0.20    0.28
  -7   4  10    0.31    0.32
   7   4 -10    0.31    0.32
  -7   4  10    0.30    0.36
   7   4 -10    0.23    0.28
  -6  -4  10   23.40    0.81
   6  -4 -10   22.49    0.90
  -6   4  10   21.31    0.85
   6   4 -10   21.80    0.85
  -6   4  10   22.62    0.93
  -6   4  10   23.09    0.86
   6   4 -10   21.08    0.89
  -5  -4  10   22.49    0.80
   5  -4 -10   22.73    0.88
  -5   4  10   22.19    0.89
  -5   4  10   22.88    0.89
  -5   4  10   22.41    0.84
   5   4 -10   22.76    0.90
   5   4 -10   22.23    0.84
  -4  -4  10   31.42    0.95
   4  -4 -10   27.97    1.00
   4   4 -10   31.11    0.99
  -4   4  10   30.93    1.03
  -4   4  10   30.22    0.99
   4   4 -10   30.49    1.04
  -4   4  10   28.90    0.98
   3  -4 -10   24.03    0.86
  -3  -4  10   23.25    0.79
  -3   4  10   22.36    0.82
   3   4 -10   22.71    0.78
  -3   4  10   22.81    0.85
  -3   4  10   23.69    0.86
   3   4 -10   22.09    0.87
  -2  -4  10    0.36    0.25
  -2   4  10    0.22    0.26
  -2   4  10    0.36    0.25
   2   4 -10    0.05    0.23
  -2   4  10    0.36    0.29
  -1  -4  10   11.83    0.58
  -1   4  10   11.60    0.62
   1   4 -10   12.00    0.58
  -1   4  10   12.04    0.61
  -1   4  10   12.27    0.61
   0  -4  10    3.55    0.35
   0   4 -10    3.99    0.38
   0   4  10    4.88    0.41
   0   4  10    3.72    0.40
   1  -4  10   62.74    1.58
   1   4  10   63.89    1.64
   1   4  10   60.91    1.60
  -1   4 -10   61.13    1.60
   2  -4  10    0.10    0.26
   2   4  10   -0.02    0.24
  -2   4 -10    0.26    0.27
   2   4  10   -0.17    0.25
   3  -4  10   17.39    0.71
  -3   4 -10   17.01    0.71
   3   4  10   16.89    0.72
   3   4  10   15.99    0.70
   4  -4  10    1.09    0.31
   4   4  10    0.76    0.29
   4   4  10    0.85    0.31
  -4   4 -10    0.61    0.29
   5  -4  10    2.61    0.37
   5   4  10    2.63    0.36
  -5   4 -10    3.20    0.38
   5   4  10    2.73    0.38
   6  -4  10   -0.08    0.31
   6   4  10    0.20    0.30
   6   4  10   -0.33    0.28
   7  -4  10   35.58    1.19
   7   4  10   34.82    1.13
   8  -4  10    1.95    0.43
   8   4  10    1.51    0.38
   9  -4  10    7.61    0.65
   9   4  10    7.40    0.59
  10  -4  10    2.61    0.52
  10   4  10    2.55    0.46
  11  -4  10    2.08    0.52
  11   4  10    1.77    0.47
  12  -4  10    5.72    0.70
  12   4  10    6.35    0.66
  13  -4  10    7.39    0.76
  13   4  10    7.05    0.72
  13   5 -10   -0.23    0.52
  12   5 -10    0.57    0.45
  12   5 -10    0.24    0.49
  11  -5 -10    1.44    0.50
  11   5 -10    1.50    0.43
  11   5 -10    1.30    0.47
  10  -5 -10    0.18    0.40
  10   5 -10    0.01    0.35
  10   5 -10   -0.53    0.39
   9  -5 -10    1.23    0.42
   9   5 -10    0.73    0.40
   9   5 -10    1.27    0.39
   8  -5 -10    0.70    0.36
  -8   5  10    0.84    0.41
   8   5 -10    0.98    0.34
   8   5 -10    0.36    0.36
   7  -5 -10    0.39    0.35
  -7  -5  10   -0.15    0.41
   7   5 -10   -0.22    0.33
  -7   5  10    0.07    0.36
   7   5 -10   -0.56    0.30
  -7   5  10    0.38    0.36
   6  -5 -10    0.04    0.32
  -6  -5  10    0.08    0.24
  -6   5  10   -0.07    0.34
   6   5 -10   -0.34    0.31
   6   5 -10   -0.20    0.29
  -6   5  10    0.02    0.30
  -6   5  10   -0.12    0.31
  -5  -5  10    0.15    0.25
   5  -5 -10   -0.15    0.30
   5   5 -10    0.13    0.29
  -5   5  10    0.25    0.29
   5   5 -10   -0.31    0.31
  -5   5  10    0.06    0.30
  -5   5  10   -0.02    0.30
   4  -5 -10    3.75    0.42
  -4  -5  10    3.54    0.33
  -4   5  10    2.97    0.41
  -4   5  10    3.84    0.40
   4   5 -10    3.64    0.43
  -4   5  10    4.02    0.45
   4   5 -10    3.72    0.39
  -3  -5  10    1.10    0.26
   3  -5 -10    0.99    0.30
  -3   5  10    1.11    0.33
   3   5 -10    1.35    0.34
   3   5 -10    1.05    0.28
  -3   5  10    1.28    0.31
  -3   5  10    1.10    0.31
  -2  -5  10    4.44    0.36
  -2   5  10    4.79    0.43
   2   5 -10    5.61    0.42
  -2   5  10    4.83    0.42
  -2   5  10    4.76    0.42
  -1  -5  10    4.57    0.36
  -1   5  10    4.33    0.42
  -1   5  10    3.99    0.38
   1   5 -10    4.54    0.40
  -1   5  10    4.31    0.41
   0  -5  10   16.66    0.65
   0   5  10   16.41    0.72
   0   5  10   15.60    0.70
   0   5  10   16.37    0.70
   0   5 -10   16.09    0.68
   1  -5  10    0.29    0.24
  -1   5 -10    0.29    0.29
   1   5  10    0.69    0.29
   1   5  10    0.64    0.30
   2  -5  10    0.71    0.28
   2   5  10    0.61    0.29
   2   5  10    0.59    0.29
  -2   5 -10    0.42    0.28
   3  -5  10    0.64    0.28
   3   5  10    1.05    0.30
  -3   5 -10    0.32    0.27
   3   5  10    0.61    0.30
   4  -5  10    0.08    0.28
   4   5  10   -0.07    0.27
   4   5  10    0.25    0.28
  -4   5 -10   -0.32    0.27
   5  -5  10    0.58    0.31
   5   5  10    0.33    0.32
  -5   5 -10    0.68    0.31
   6  -5  10   -0.07    0.31
   6   5  10    0.13    0.31
  -6   5 -10    0.11    0.36
   7  -5  10   -0.39    0.33
   7   5  10   -0.34    0.31
   8  -5  10   -0.22    0.36
   8   5  10    0.02    0.34
   9  -5  10    0.15    0.40
   9   5  10   -0.56    0.34
  10  -5  10    3.59    0.55
  10   5  10    3.79    0.50
  11  -5  10    0.19    0.72
  11   5  10    0.35    0.42
  12   5  10    0.36    0.44
  11   6 -10    0.93    0.49
  11   6 -10    0.89    0.44
  10   6 -10   10.08    0.82
  10   6 -10   10.02    0.79
   9   6 -10    1.38    0.42
  -9   6  10    0.39    0.46
   9   6 -10    0.88    0.43
   8   6 -10   -0.14    0.37
   8   6 -10    0.71    0.37
  -8   6  10    0.39    0.42
   7   6 -10    2.60    0.44
   7   6 -10    2.79    0.41
  -7   6  10    2.59    0.46
   6   6 -10    2.79    0.40
  -6   6  10    3.36    0.47
  -6   6  10    3.06    0.47
   6   6 -10    3.23    0.44
  -5   6  10    2.86    0.43
  -5   6  10    3.41    0.45
   5   6 -10    3.53    0.44
   5   6 -10    2.89    0.41
  -4   6  10   21.01    0.87
  -4   6  10   20.77    0.90
  -3   6  10   23.33    0.93
  -3   6  10   24.53    0.93
  -2   6  10    1.55    0.34
  -2   6  10    1.84    0.37
  -1   6  10    0.50    0.33
  -1   6  10    0.51    0.29
   0  -6  10   17.33    0.78
   0   6  10   16.93    0.76
   0   6  10   16.24    0.74
   1  -6  10   31.64    1.05
   1   6  10   32.99    1.05
   2  -6  10    0.14    0.30
   2   6  10    0.06    0.29
   3  -6  10   18.66    0.89
   3   6  10   17.98    0.77
   4   6  10    1.96    0.36
   5   6  10    5.69    0.47
   6   6  10   -0.18    0.32
   7   6  10   21.87    0.90
   8   6  10    3.68    0.47
   9   6  10    0.23    0.36
  10   6  10    0.32    0.39
  11   6  10    6.45    0.62
   9   7 -10    1.72    0.46
   9   7 -10    1.81    0.44
  -9   7  10    2.00    0.53
   8   7 -10    4.60    0.52
  -8   7  10    5.02    0.59
   8   7 -10    5.11    0.53
   7   7 -10    4.11    0.49
  -7   7  10    3.57    0.51
   7   7 -10    4.32    0.49
  -6   7  10    4.94    0.53
   6   7 -10    5.59    0.53
  -6   7  10    6.25    0.71
   6   7 -10    5.13    0.50
  -5   7  10    8.73    0.75
   5   7 -10    8.29    0.65
  -5   7  10    7.51    0.60
  -4   7  10    1.50    0.41
  -4   7  10    1.16    0.39
  -3   7  10   -0.14    0.31
  -3   7  10    0.31    0.34
  -2   7  10    4.43    0.47
  -2   7  10    4.44    0.46
  -1   7  10   13.79    0.72
  -1   7  10   13.36    0.72
   0   7  10    1.42    0.34
   0   7  10    1.73    0.37
   1   7  10    4.74    0.44
   2   7  10    1.16    0.35
   3   7  10   14.92    0.71
   4   7  10   -0.32    0.31
   5   7  10   13.42    0.70
   6   7  10    4.43    0.45
   7   7  10    0.12    0.35
   8   7  10    2.85    0.45
   9   7  10    4.92    0.53
  -6   8  10    0.32    0.42
   6   8 -10   -0.64    0.35
  -5   8  10    0.70    0.40
   5   8 -10    1.04    0.38
  -5   8  10    1.47    0.49
  -4   8  10    0.03    0.37
  -4   8  10    0.40    0.38
  -3   8  10    0.04    0.36
  -3   8  10    0.05    0.34
  -2   8  10    0.71    0.36
  -2   8  10    0.77    0.36
  -1   8  10   -0.51    0.32
  -1   8  10    0.29    0.34
   0   8  10    0.18    0.31
   0   8  10    0.38    0.34
   1   8  10    2.63    0.39
   2   8  10    3.88    0.43
   3   8  10   -0.15    0.31
   4   8  10    1.46    0.37
   5   8  10    0.44    0.33
   6   8  10    0.43    0.34
  15   0 -11   -0.29    0.54
 -15   0  11    0.75    0.60
  14   0 -11   -0.10    0.59
 -14   0  11   -0.10    0.53
  13   0 -11   -0.74    0.53
 -13   0  11   -0.32    0.48
 -12   0  11   -0.38    0.46
  12   0 -11   -0.05    0.46
 -11   0  11   -0.37    0.39
  11   0 -11    0.04    0.42
  10   0 -11   -0.07    0.42
 -10   0  11   -0.15    0.40
   9   0 -11    0.39    0.37
   9   0 -11   -0.04    0.35
  -9   0  11   -0.20    0.37
   8   0 -11    0.50    0.35
   8   0 -11    0.17    0.32
  -8   0  11   -0.27    0.31
  -7   0  11    0.53    0.35
   7   0 -11    0.20    0.26
   7   0 -11    0.65    0.35
   6   0 -11   -0.26    0.34
  -6   0  11   -0.35    0.31
   6   0 -11   -0.07    0.22
  -5   0  11   -0.26    0.30
   5   0 -11    0.02    0.22
   5   0 -11   -0.21    0.29
   4   0 -11    0.02    0.31
   4   0 -11    0.17    0.22
  -4   0  11    0.33    0.28
  -3   0  11   -0.16    0.29
   3   0 -11   -0.05    0.09
   3   0 -11    0.17    0.28
   2   0 -11   -0.03    0.08
   2   0 -11   -0.08    0.30
  -2   0  11   -0.11    0.28
  -1   0  11   -0.09    0.25
   1   0 -11    0.03    0.16
   0   0 -11    0.10    0.19
   0   0  11   -0.04    0.24
   1   0  11    0.11    0.28
  -1   0 -11    0.07    0.20
   2   0  11   -0.08    0.28
   3   0  11    0.16    0.27
   4   0  11    0.12    0.28
   5   0  11    0.03    0.30
   6   0  11   -0.05    0.29
   7   0  11   -0.18    0.31
  -7   0 -11   -0.51    0.31
   8   0  11    0.08    0.37
   9   0  11   -0.16    0.39
  10   0  11   -0.30    0.35
  11   0  11   -0.46    0.44
  12   0  11    0.35    0.50
  13   0  11    0.14    0.48
  14   0  11   -0.23    0.53
  15  -1 -11    1.81    0.70
 -15  -1  11    1.68    0.63
  15   1 -11    2.60    0.73
  14  -1 -11    1.08    0.63
 -14  -1  11   -0.14    0.52
 -14   1  11    0.49    0.56
  14   1 -11    0.97    0.57
  13  -1 -11   10.34    0.88
 -13  -1  11    8.91    0.75
  13   1 -11    9.77    0.86
 -13   1  11    9.60    0.80
  12  -1 -11    1.24    0.55
 -12  -1  11    1.24    0.50
 -12   1  11    1.16    0.48
  12   1 -11    0.92    0.55
 -11  -1  11    0.82    0.44
  11  -1 -11    0.70    0.48
 -11   1  11   -0.16    0.44
  11   1 -11    0.91    0.50
  10  -1 -11    4.56    0.61
 -10  -1  11    4.54    0.51
 -10   1  11    4.75    0.57
  10   1 -11    5.69    0.86
  10   1 -11    4.42    0.59
   9  -1 -11   14.26    0.83
  -9  -1  11   15.09    0.82
   9   1 -11   14.40    0.82
  -9   1  11   15.78    0.80
   9   1 -11   15.85    0.90
  -8  -1  11   21.14    0.87
   8  -1 -11   20.10    0.92
   8  -1 -11   21.42    0.94
   8   1 -11   21.66    0.93
   8   1 -11   21.68    0.91
  -8   1  11   22.95    0.94
  -7  -1  11    8.12    0.58
   7  -1 -11    9.43    0.71
   7  -1 -11    8.35    0.61
  -7   1  11    7.97    0.60
   7   1 -11    8.79    0.64
   7   1 -11    8.17    0.60
  -7   1  11    7.90    0.60
   6  -1 -11   27.04    1.03
   6  -1 -11   29.20    1.00
  -6  -1  11   26.52    0.93
  -6   1  11   28.37    0.98
   6   1 -11   26.05    1.02
  -6   1  11   27.80    1.00
   6   1 -11   26.66    0.96
  -5  -1  11    6.51    0.49
   5  -1 -11    6.62    0.51
   5  -1 -11    5.52    0.48
  -5   1  11    5.84    0.49
   5   1 -11    5.77    0.52
   5   1 -11    4.86    0.47
   4  -1 -11   39.79    1.25
   4  -1 -11   40.10    1.21
  -4  -1  11   43.15    1.23
   4   1 -11   43.08    1.30
  -4   1  11   42.13    1.22
   4   1 -11   41.91    1.23
   3  -1 -11   48.51    1.41
   3  -1 -11   47.15    1.32
  -3  -1  11   47.32    1.32
   3   1 -11   48.51    1.39
   3   1 -11   47.42    1.33
  -3   1  11   48.41    1.33
   3   1 -11   47.51    1.30
   2  -1 -11   54.63    1.43
   2  -1 -11   54.32    1.51
  -2  -1  11   53.51    1.42
   2   1 -11   53.03    1.44
   2   1 -11   53.33    1.40
  -2   1  11   52.62    1.44
   2   1 -11   53.78    1.52
  -2   1  11   52.00    1.43
  -1  -1  11    3.03    0.37
   1   1 -11    2.16    0.30
  -1   1  11    3.10    0.38
  -1   1  11    2.83    0.34
   1   1 -11    2.98    0.35
   0  -1 -11    0.75    0.26
   0  -1  11    0.25    0.29
   0   1  11    0.15    0.28
   0   1 -11    0.25    0.25
   0   1  11    0.30    0.27
  -1  -1 -11   35.31    1.05
   1  -1  11   35.82    1.09
   1   1  11   34.04    1.06
  -1   1 -11   35.85    1.07
   1   1  11   34.92    1.08
   2  -1  11   47.74    1.35
  -2  -1 -11   49.83    1.32
   2   1  11   48.53    1.37
   2   1  11   48.00    1.36
   3  -1  11   29.70    0.99
  -3  -1 -11   29.77    0.94
   3   1  11   29.19    0.96
   3   1  11   29.00    1.01
   4  -1  11   31.02    1.00
   4   1  11   31.31    1.17
   4   1  11   30.37    1.02
   5  -1  11    0.16    0.29
   5   1  11    0.20    0.32
   6  -1  11   30.08    1.02
   6   1  11   30.46    1.02
   7  -1  11    8.33    0.67
   7   1  11    8.56    0.66
   8  -1  11   24.28    1.01
   8   1  11   24.89    1.00
   9  -1  11   -0.26    0.37
   9   1  11   -0.02    0.38
  10  -1  11    0.31    0.39
  10   1  11    0.22    0.38
  11  -1  11    1.09    0.48
  11   1  11    1.89    0.51
  12  -1  11   13.30    0.98
  12   1  11   12.75    0.95
  13  -1  11    0.16    0.49
  13   1  11    0.01    0.52
  14  -1  11   13.35    1.01
  14   1  11   15.51    1.09
  15  -2 -11    3.14    0.78
  15   2 -11    4.17    0.73
 -14  -2  11    2.33    0.68
  14  -2 -11    2.66    0.65
  14   2 -11    2.66    0.67
  13  -2 -11   -0.40    0.49
 -13  -2  11    0.40    0.49
  13   2 -11   -0.15    0.55
  12  -2 -11    0.84    0.54
 -12  -2  11    0.05    0.45
 -12   2  11    0.11    0.50
  12   2 -11    0.81    0.54
 -11  -2  11   10.05    0.78
  11  -2 -11    9.01    0.76
 -11   2  11   10.32    0.79
  11   2 -11    9.59    0.80
  10  -2 -11    2.95    0.54
 -10  -2  11    2.73    0.48
  10   2 -11    2.68    0.53
 -10   2  11    2.22    0.47
  10   2 -11    2.98    0.50
   9  -2 -11    2.07    0.45
  -9  -2  11    2.35    0.40
   9   2 -11    2.15    0.44
   9   2 -11    2.55    0.41
  -9   2  11    2.32    0.49
   8  -2 -11    3.39    0.48
  -8  -2  11    4.06    0.46
   8   2 -11    5.19    0.51
  -8   2  11    2.98    0.47
   8   2 -11    3.92    0.49
   7  -2 -11   59.13    1.68
   7  -2 -11   57.89    1.66
  -7  -2  11   57.50    1.59
  -7   2  11   61.18    1.71
   7   2 -11   62.16    1.71
  -7   2  11   59.97    1.67
   7   2 -11   58.57    1.64
   6  -2 -11    0.09    0.34
   6  -2 -11    0.48    0.28
  -6  -2  11   -0.05    0.28
   6   2 -11    0.30    0.27
  -6   2  11    0.00    0.34
  -6   2  11   -0.03    0.27
   6   2 -11    0.23    0.31
   5  -2 -11   18.94    0.81
  -5  -2  11   18.22    0.77
   5  -2 -11   18.15    0.77
   5   2 -11   18.94    0.81
   5   2 -11   18.71    0.78
  -5   2  11   18.71    0.79
  -5   2  11   17.75    0.77
   4  -2 -11   52.51    1.52
  -4  -2  11   53.94    1.46
   4  -2 -11   54.77    1.47
  -4   2  11   53.18    1.47
   4   2 -11   54.63    1.54
  -4   2  11   53.91    1.49
   4   2 -11   52.65    1.47
   3  -2 -11   16.76    0.75
   3  -2 -11   17.59    0.70
  -3  -2  11   17.80    0.71
  -3   2  11   17.24    0.76
  -3   2  11   17.67    0.71
   3   2 -11   17.21    0.67
   3   2 -11   16.84    0.80
   3   2 -11   18.16    0.74
   2  -2 -11    0.85    0.30
  -2  -2  11    0.42    0.30
  -2   2  11    1.02    0.31
   2   2 -11    0.47    0.24
   2   2 -11    0.52    0.25
  -2   2  11    0.62    0.30
   2   2 -11    0.60    0.34
   1  -2 -11   85.09    2.06
  -1  -2  11   86.81    2.10
   1   2 -11   88.22    2.09
  -1   2  11   85.08    2.11
  -1   2  11   85.52    2.10
   0  -2  11   57.16    1.54
   0  -2 -11   63.22    1.52
   0   2  11   57.49    1.54
   0   2  11   56.99    1.55
   0   2 -11   57.54    1.53
   1  -2  11    4.22    0.41
   1   2  11    5.12    0.45
   1   2  11    4.59    0.43
  -1   2 -11    5.82    0.44
  -2  -2 -11   34.38    1.01
   2  -2  11   34.09    1.04
   2   2  11   32.89    1.04
  -2   2 -11   32.94    1.05
   2   2  11   35.10    1.09
  -3  -2 -11   72.17    1.77
   3  -2  11   72.17    1.83
  -3   2 -11   71.46    1.94
   3   2  11   69.46    1.83
   3   2  11   70.95    1.81
   4  -2  11    2.05    0.37
   4   2  11    1.64    0.36
   4   2  11    2.03    0.37
   5  -2  11    1.41    0.36
   5   2  11    1.16    0.32
   5   2  11    1.69    0.39
   6  -2  11   55.83    1.55
   6   2  11   52.56    1.51
   7  -2  11    9.35    0.68
   7   2  11    8.35    0.65
   8  -2  11    0.05    0.37
   8   2  11    0.02    0.37
   9  -2  11    0.23    0.42
   9   2  11    0.30    0.39
  10  -2  11   43.41    1.46
  10   2  11   41.33    1.41
  11  -2  11    2.00    0.48
  11   2  11    2.67    0.54
  12  -2  11    1.22    0.53
  12   2  11    1.40    0.48
  13  -2  11    5.71    0.72
  13   2  11    4.75    0.63
  14  -2  11    6.24    0.79
  14   2  11    4.23    0.64
  14  -3 -11   -0.94    0.52
  14   3 -11   -0.44    0.58
  13  -3 -11   -0.34    0.54
  13   3 -11    0.12    0.55
  12  -3 -11    0.15    0.48
 -12  -3  11    0.41    0.55
  12   3 -11    0.27    0.52
 -11  -3  11    3.11    0.51
  11  -3 -11    3.21    0.56
  11   3 -11    4.16    0.60
  11   3 -11    3.32    0.51
 -11   3  11    2.77    0.54
 -10  -3  11    7.03    0.58
  10  -3 -11    6.14    0.62
  10   3 -11    5.13    0.59
 -10   3  11    5.48    0.59
  10   3 -11    5.10    0.52
  -9  -3  11    0.03    0.33
   9  -3 -11    0.11    0.40
   9   3 -11    0.15    0.40
   9   3 -11   -0.11    0.34
  -9   3  11   -0.32    0.39
   8  -3 -11    1.60    0.44
  -8  -3  11    2.75    0.40
   8   3 -11    1.83    0.38
   8   3 -11    2.42    0.43
  -8   3  11    2.38    0.46
  -7  -3  11    3.47    0.41
   7  -3 -11    2.41    0.45
  -7   3  11    3.69    0.62
  -7   3  11    3.38    0.44
   7   3 -11    3.03    0.40
   7   3 -11    2.79    0.44
  -6  -3  11    7.36    0.56
   6  -3 -11    9.12    0.67
   6   3 -11    7.90    0.65
   6   3 -11    7.79    0.59
  -6   3  11    7.45    0.57
  -6   3  11    7.54    0.62
   5  -3 -11    5.65    0.51
  -5  -3  11    6.52    0.48
   5   3 -11    5.90    0.51
  -5   3  11    6.52    0.58
   5   3 -11    6.27    0.55
  -5   3  11    6.83    0.55
  -4  -3  11    1.46    0.32
   4  -3 -11    1.33    0.36
  -4   3  11    1.35    0.37
  -4   3  11    1.62    0.34
   4   3 -11    1.23    0.31
  -4   3  11    1.32    0.30
   4   3 -11    1.10    0.35
   3  -3 -11    2.09    0.37
  -3  -3  11    2.21    0.35
   3   3 -11    2.11    0.34
  -3   3  11    1.49    0.28
  -3   3  11    1.90    0.31
  -3   3  11    2.15    0.38
   3   3 -11    2.24    0.37
   3   3 -11    2.07    0.31
  -2  -3  11    1.95    0.34
   2  -3 -11    1.60    0.35
   2   3 -11    1.72    0.36
  -2   3  11    2.10    0.35
   2   3 -11    1.50    0.31
  -2   3  11    1.50    0.34
  -1  -3  11   10.55    0.55
  -1   3  11    9.52    0.55
   1   3 -11    9.89    0.56
  -1   3  11    9.82    0.62
   0  -3  11    2.03    0.35
   0   3  11    2.18    0.34
   0   3  11    2.66    0.37
   0   3 -11    2.52    0.35
   1  -3  11   11.48    0.61
   1   3  11   11.07    0.59
  -1   3 -11   12.31    0.62
   1   3  11   11.96    0.66
   2  -3  11    5.57    0.46
   2   3  11    4.68    0.43
   2   3  11    6.28    0.48
  -2   3 -11    5.87    0.46
   3  -3  11    0.23    0.27
  -3   3 -11    0.34    0.31
   3   3  11    0.70    0.32
   3   3  11    0.54    0.32
   4  -3  11    6.53    0.51
   4   3  11    4.77    0.43
   4   3  11    7.12    0.57
   5  -3  11   -0.41    0.30
   5   3  11    0.17    0.33
   5   3  11    0.30    0.32
   6  -3  11    0.00    0.33
   6   3  11    0.01    0.29
   6   3  11    0.03    0.32
   7  -3  11    1.83    0.38
   7   3  11    1.51    0.38
   8  -3  11    6.36    0.58
   8   3  11    6.79    0.57
   9  -3  11   -0.08    0.36
   9   3  11    0.30    0.39
  10  -3  11   -0.11    0.43
  10   3  11    0.39    0.41
  11  -3  11    4.10    0.61
  11   3  11    2.46    0.51
  12  -3  11    0.82    0.53
  12   3  11    0.99    0.52
  13  -3  11    1.27    0.59
  13   3  11    0.44    0.49
  13  -4 -11    0.27    0.59
  13   4 -11   -0.47    0.51
  12  -4 -11    1.00    0.57
  12   4 -11    0.99    0.53
  11  -4 -11   12.29    0.96
  11   4 -11   12.02    0.92
  11   4 -11   11.96    0.87
 -11   4  11   11.70    0.87
  10  -4 -11    1.72    0.50
  10   4 -11    2.25    0.47
 -10   4  11    1.34    0.47
  10   4 -11    1.53    0.46
   9  -4 -11    0.44    0.44
  -9  -4  11    0.13    0.33
   9   4 -11    0.75    0.41
   9   4 -11    0.76    0.36
  -9   4  11    0.46    0.45
  -8  -4  11    1.58    0.36
   8  -4 -11    1.16    0.41
   8   4 -11    2.18    0.46
   8   4 -11    1.53    0.39
  -8   4  11    2.11    0.48
   7  -4 -11    5.22    0.51
  -7  -4  11    5.53    0.46
  -7   4  11    5.50    0.53
   7   4 -11    5.18    0.48
   7   4 -11    4.32    0.50
  -6  -4  11    3.50    0.39
   6  -4 -11    2.78    0.41
   6   4 -11    3.67    0.44
  -6   4  11    2.29    0.39
   6   4 -11    2.71    0.44
  -6   4  11    4.07    0.48
   5  -4 -11   25.27    0.96
  -5  -4  11   25.07    0.88
  -5   4  11   24.51    0.92
   5   4 -11   23.15    0.95
   5   4 -11   24.28    0.92
  -5   4  11   24.21    0.96
  -5   4  11   23.86    0.92
  -4  -4  11    1.28    0.31
   4  -4 -11    1.02    0.36
  -4   4  11    1.32    0.37
  -4   4  11    0.76    0.31
  -4   4  11    1.21    0.33
   4   4 -11    0.59    0.33
   4   4 -11    1.30    0.32
   3  -4 -11   10.14    0.64
  -3  -4  11    9.65    0.57
  -3   4  11    9.99    0.60
   3   4 -11   11.15    0.69
   3   4 -11   10.26    0.57
  -3   4  11   10.52    0.61
  -3   4  11   10.51    0.63
  -2  -4  11    0.36    0.27
  -2   4  11    1.59    0.34
  -2   4  11    1.04    0.32
   2   4 -11    0.56    0.28
  -2   4  11    0.76    0.26
  -1  -4  11   10.84    0.58
  -1   4  11   11.44    0.60
   1   4 -11   11.01    0.60
  -1   4  11   10.79    0.66
   0  -4  11   25.62    0.87
   0   4  11   25.12    0.90
   0   4 -11   25.92    0.89
   0   4  11   25.07    0.92
   1  -4  11    4.93    0.42
   1   4  11    5.76    0.48
   1   4  11    4.65    0.44
  -1   4 -11    4.68    0.44
   2  -4  11    5.25    0.42
   2   4  11    6.38    0.49
  -2   4 -11    5.67    0.47
   2   4  11    5.17    0.45
   3  -4  11    1.22    0.33
  -3   4 -11    0.59    0.28
   3   4  11    0.50    0.32
   3   4  11    0.92    0.31
   4  -4  11   10.98    0.65
   4   4  11   10.82    0.64
   4   4  11   11.74    0.66
  -4   4 -11   11.83    0.65
   5  -4  11   -0.02    0.31
   5   4  11    0.10    0.30
   5   4  11   -0.32    0.30
   6  -4  11    5.74    0.50
   6   4  11    6.94    0.53
   6   4  11    6.87    0.54
   7  -4  11    2.58    0.44
   7   4  11    2.77    0.43
   8  -4  11   -0.11    0.39
   8   4  11    0.37    0.38
   9  -4  11    3.96    0.56
   9   4  11    4.24    0.53
  10  -4  11    9.25    0.75
  10   4  11    9.36    0.78
  11  -4  11    1.33    0.55
  11   4  11    1.81    0.51
  12  -4  11    3.47    0.60
  12   4  11    4.03    0.61
  13  -4  11    1.82    0.63
  13   4  11    0.73    0.51
  12   5 -11   10.77    0.86
 -11   5  11   -0.18    0.49
  11   5 -11   -0.10    0.46
  11   5 -11    0.03    0.40
  10  -5 -11    8.12    0.83
 -10   5  11    7.86    0.75
  10   5 -11    8.10    0.68
  10   5 -11    8.35    0.71
   9  -5 -11    8.82    0.69
   9   5 -11    7.95    0.66
   9   5 -11    9.45    0.72
  -9   5  11    8.31    0.68
   8  -5 -11    0.75    0.41
   8   5 -11    0.84    0.40
  -8   5  11    0.27    0.39
   8   5 -11    0.66    0.34
   7  -5 -11    0.23    0.36
  -7   5  11    0.10    0.38
   7   5 -11    0.03    0.33
   7   5 -11   -0.14    0.36
   6  -5 -11   17.29    0.85
  -6   5  11   18.36    0.88
  -6   5  11   18.52    0.98
   6   5 -11   18.78    0.90
   6   5 -11   17.94    0.84
  -5  -5  11    9.37    0.56
   5  -5 -11    9.23    0.66
  -5   5  11    9.53    0.79
  -5   5  11   10.22    0.70
  -5   5  11    9.48    0.69
   5   5 -11    9.71    0.66
   5   5 -11    8.80    0.67
  -4  -5  11    1.07    0.30
   4  -5 -11    1.60    0.37
   4   5 -11    1.01    0.32
  -4   5  11    1.05    0.32
   4   5 -11    0.94    0.37
  -4   5  11    1.61    0.35
  -4   5  11    1.15    0.39
  -3  -5  11    9.07    0.55
  -3   5  11    9.16    0.65
  -3   5  11    9.29    0.64
  -3   5  11    9.71    0.61
  -2  -5  11   13.54    0.62
  -2   5  11   13.79    0.72
  -2   5  11   12.97    0.67
  -2   5  11   12.64    0.69
   2   5 -11   13.40    0.66
  -1  -5  11    6.29    0.50
  -1   5  11    6.04    0.54
   1   5 -11    7.12    0.52
  -1   5  11    6.22    0.50
  -1   5  11    6.78    0.55
   0  -5  11    3.62    0.37
   0   5  11    4.24    0.45
   0   5  11    3.32    0.42
   0   5 -11    4.90    0.44
   1  -5  11   28.39    0.94
   1   5  11   28.39    0.98
   1   5  11   27.33    0.97
  -1   5 -11   27.22    0.95
   2  -5  11   16.74    0.74
   2   5  11   16.61    0.78
   2   5  11   17.19    0.89
  -2   5 -11   16.44    0.74
   3  -5  11    6.75    0.51
  -3   5 -11    6.83    0.54
   3   5  11    5.71    0.48
   4  -5  11    5.18    0.47
   4   5  11    4.70    0.46
  -4   5 -11    5.41    0.54
   5  -5  11   25.84    0.98
   5   5  11   25.92    0.96
   6  -5  11    0.03    0.35
   6   5  11   -0.09    0.34
   7  -5  11    6.44    0.57
   7   5  11    6.47    0.54
   8  -5  11   11.11    0.84
   8   5  11   12.34    0.81
   9  -5  11    6.07    0.64
   9   5  11    5.36    0.56
  10   5  11   -0.39    0.40
  11   5  11   13.76    0.91
  11   6 -11    0.79    0.46
  11   6 -11    0.63    0.48
 -11   6  11   -0.84    0.54
  10   6 -11    0.71    0.46
 -10   6  11    0.63    0.52
  10   6 -11    0.86    0.42
   9   6 -11    0.02    0.42
   9   6 -11    0.25    0.39
  -9   6  11   -0.25    0.46
   8   6 -11    7.72    0.70
  -8   6  11    6.90    0.64
   8   6 -11    8.15    0.66
   7   6 -11    0.18    0.35
  -7   6  11   -0.22    0.40
   7   6 -11    0.27    0.39
   6   6 -11    0.16    0.33
  -6   6  11    0.34    0.39
   6   6 -11    0.68    0.39
   5   6 -11    1.28    0.37
  -5   6  11    1.58    0.43
  -5   6  11    1.13    0.42
   5   6 -11    1.02    0.39
  -4   6  11    0.97    0.36
  -4   6  11    1.23    0.39
   4   6 -11    0.99    0.35
  -3   6  11    4.48    0.49
  -3   6  11    3.70    0.44
  -2   6  11    1.22    0.34
  -2   6  11    1.85    0.39
  -1   6  11    3.21    0.42
  -1   6  11    3.05    0.42
   0   6  11    3.40    0.43
   1   6  11    0.57    0.33
   2   6  11    0.25    0.33
   3   6  11    8.75    0.65
   4   6  11    1.26    0.37
   5   6  11    3.56    0.44
   6   6  11    2.67    0.43
   7   6  11    0.18    0.35
   8   6  11   -0.05    0.37
   9   6  11    1.44    0.44
  10   6  11    1.16    0.45
   8   7 -11    0.32    0.42
   8   7 -11    0.29    0.38
  -8   7  11    0.75    0.45
   7   7 -11    0.00    0.36
   7   7 -11    0.11    0.40
  -7   7  11    0.31    0.43
  -6   7  11    2.47    0.51
   6   7 -11    2.64    0.46
   6   7 -11    2.70    0.47
   5   7 -11    4.55    0.50
  -5   7  11    3.86    0.52
  -4   7  11    1.21    0.42
  -4   7  11    0.70    0.37
  -3   7  11    0.24    0.37
  -3   7  11    0.94    0.35
  -2   7  11    3.10    0.44
  -2   7  11    2.58    0.42
  -1   7  11    0.45    0.31
  -1   7  11    0.38    0.37
   0   7  11    1.75    0.40
   1   7  11    5.93    0.51
   2   7  11   -0.20    0.33
   3   7  11    0.26    0.33
   4   7  11    1.22    0.37
   5   7  11    3.72    0.46
   6   7  11    2.34    0.42
   7   7  11    1.30    0.41
   8   7  11   -0.12    0.38
  -5   8  11    0.92    0.43
   5   8 -11    1.31    0.42
  -4   8  11    8.55    0.64
  -3   8  11    3.71    0.49
  -3   8  11    3.14    0.47
  -2   8  11    0.46    0.37
  -2   8  11    1.17    0.41
  -1   8  11    7.25    0.58
  -1   8  11    7.59    0.68
   0   8  11    4.56    0.49
   1   8  11    0.44    0.36
   2   8  11    1.05    0.38
   3   8  11    5.26    0.50
   4   8  11    2.83    0.43
 -14   0  12   -0.25    0.56
  14   0 -12   -0.02    0.62
 -13   0  12    3.34    0.60
  13   0 -12    4.09    0.74
 -12   0  12    0.78    0.52
  12   0 -12    1.29    0.53
  11   0 -12    9.49    0.82
 -11   0  12    8.61    0.70
 -10   0  12   15.32    0.93
  10   0 -12   15.54    0.92
  -9   0  12   86.62    2.32
   9   0 -12   89.03    2.39
  -8   0  12    0.63    0.36
   8   0 -12    0.88    0.44
  -7   0  12    2.30    0.40
   7   0 -12    2.49    0.40
   7   0 -12    2.36    0.44
  -6   0  12    0.18    0.32
   6   0 -12    0.07    0.37
   6   0 -12    0.07    0.19
  -5   0  12   44.06    1.33
   5   0 -12   43.14    1.38
   4   0 -12   82.45    2.14
  -4   0  12   80.86    2.05
  -3   0  12   24.13    0.91
   3   0 -12   22.07    0.92
  -2   0  12   59.82    1.59
   2   0 -12   59.54    1.66
  -1   0  12    2.57    0.36
   0   0  12    2.23    0.36
   0   0 -12    4.18    0.40
   1   0  12   39.30    1.18
  -1   0 -12   35.95    1.13
   2   0  12   75.75    1.91
  -2   0 -12   74.51    1.90
   3   0  12    1.23    0.36
   4   0  12   15.11    0.76
   5   0  12   10.60    0.64
   6   0  12    9.72    0.70
   7   0  12   15.31    0.77
   8   0  12   45.71    1.46
   9   0  12    2.01    0.44
  10   0  12    4.23    0.56
  11   0  12    0.45    0.45
  12   0  12   26.86    1.20
  13   0  12    1.50    0.59
  14   0  12    0.37    0.52
 -14  -1  12    0.16    0.54
  14  -1 -12    0.94    0.60
 -14   1  12    0.67    0.55
  14   1 -12   -0.06    0.53
  13  -1 -12    1.01    0.62
 -13  -1  12    1.04    0.53
 -13   1  12    0.35    0.55
  13   1 -12    0.86    0.57
 -12  -1  12    0.00    0.49
  12  -1 -12   -0.38    0.47
  12   1 -12    0.14    0.52
 -12   1  12   -0.45    0.44
 -11  -1  12    2.41    0.54
  11  -1 -12    1.64    0.50
 -11   1  12    2.93    0.57
  11   1 -12    2.40    0.54
  10  -1 -12    0.73    0.47
 -10  -1  12    1.21    0.42
  10   1 -12    1.47    0.49
 -10   1  12    1.67    0.49
   9  -1 -12    4.40    0.55
  -9  -1  12    3.76    0.48
   9   1 -12    3.97    0.54
  -9   1  12    3.71    0.54
  -8  -1  12   13.92    0.74
   8  -1 -12   12.40    0.79
   8   1 -12   13.62    0.80
  -8   1  12   12.00    0.75
   8   1 -12   12.04    0.76
   7  -1 -12    2.82    0.47
  -7  -1  12    2.45    0.40
   7   1 -12    2.96    0.39
  -7   1  12    2.45    0.42
   7   1 -12    2.67    0.45
   6  -1 -12   45.88    1.38
  -6  -1  12   45.67    1.37
   6  -1 -12   43.62    1.40
  -6   1  12   43.75    1.38
   6   1 -12   46.34    1.44
   6   1 -12   45.92    1.37
  -5  -1  12    1.27    0.34
   5  -1 -12    1.36    0.40
   5  -1 -12    1.31    0.29
  -5   1  12    1.29    0.36
   5   1 -12    1.26    0.31
   5   1 -12    1.23    0.40
   4  -1 -12    8.15    0.61
  -4  -1  12    7.20    0.59
   4  -1 -12    8.10    0.55
   4   1 -12    8.07    0.58
  -4   1  12    7.69    0.58
   4   1 -12    6.82    0.58
  -3  -1  12   20.02    0.82
   3  -1 -12   18.43    0.76
   3  -1 -12   18.78    0.87
   3   1 -12   19.81    0.80
   3   1 -12   19.39    0.85
  -3   1  12   20.05    0.84
  -2  -1  12   18.59    0.78
   2  -1 -12   21.29    0.80
   2  -1 -12   20.19    0.84
  -2   1  12   19.55    0.80
   2   1 -12   20.65    0.81
   2   1 -12   19.10    0.84
   1  -1 -12   18.34    0.74
  -1  -1  12   19.18    0.80
  -1   1  12   16.86    0.75
   1   1 -12   18.61    0.76
   0  -1 -12   22.97    0.82
   0  -1  12   21.93    0.86
   0   1  12   20.49    0.82
   0   1 -12   21.75    0.83
   1  -1  12    2.51    0.37
   1   1  12    2.50    0.39
   2  -1  12   10.12    0.60
  -2  -1 -12   10.60    0.58
   2   1  12    9.93    0.60
  -3  -1 -12    4.05    0.41
   3  -1  12    2.98    0.41
   3   1  12    2.68    0.38
   4  -1  12   25.32    0.95
  -4  -1 -12   24.99    0.89
   4   1  12   26.03    0.96
   5  -1  12   -0.26    0.29
   5   1  12    0.00    0.30
   6  -1  12    1.52    0.40
   6   1  12    1.99    0.38
   7  -1  12    3.15    0.48
   7   1  12    2.76    0.43
   8  -1  12    5.30    0.56
   8   1  12    4.82    0.55
   9  -1  12    0.00    0.36
   9   1  12    0.66    0.43
  10  -1  12    5.42    0.59
  10   1  12    6.12    0.63
  11  -1  12    1.35    0.48
  11   1  12    1.30    0.47
  12  -1  12    1.02    0.54
  12   1  12    0.65    0.48
  13  -1  12    2.12    0.58
  13   1  12    2.65    0.56
  14  -1  12    0.32    0.57
  14   1  12    0.84    0.59
  14  -2 -12    0.17    0.56
 -14   2  12   -0.78    0.51
  14   2 -12   -0.27    0.60
  13  -2 -12    3.02    0.65
 -13  -2  12    3.28    0.61
 -13   2  12    3.21    0.68
  13   2 -12    2.81    0.62
  12  -2 -12    1.89    0.59
 -12  -2  12    2.04    0.52
 -12   2  12    1.64    0.58
  12   2 -12    1.84    0.60
 -11  -2  12    6.36    0.63
  11  -2 -12    7.36    0.71
 -11   2  12    6.82    0.67
  11   2 -12    7.19    0.70
  10  -2 -12   -0.12    0.44
 -10  -2  12   -0.14    0.35
  10   2 -12   -0.06    0.44
 -10   2  12   -0.13    0.40
   9  -2 -12   11.95    0.81
  -9  -2  12   12.31    0.78
   9   2 -12   11.95    0.88
   9   2 -12   12.06    0.78
  -9   2  12   12.43    0.78
  -8  -2  12    1.43    0.41
   8  -2 -12    1.12    0.40
   8   2 -12    0.59    0.34
  -8   2  12    1.09    0.41
   8   2 -12    1.13    0.44
   7  -2 -12   10.37    0.71
  -7  -2  12    9.62    0.63
   7   2 -12    9.68    0.75
   7   2 -12    9.78    0.67
  -7   2  12   10.76    0.70
   6  -2 -12    8.42    0.70
  -6  -2  12    7.12    0.55
  -6   2  12    8.27    0.62
   6   2 -12    7.77    0.64
   6   2 -12    8.17    0.62
   5  -2 -12   14.44    0.72
  -5  -2  12   14.80    0.74
   5  -2 -12   15.49    0.82
   5   2 -12   14.08    0.76
   5   2 -12   14.46    0.74
  -5   2  12   13.73    0.72
  -5   2  12   14.14    0.78
   4  -2 -12    9.36    0.60
  -4  -2  12    9.39    0.62
   4  -2 -12    8.91    0.69
  -4   2  12    9.27    0.67
   4   2 -12    8.50    0.63
   4   2 -12    9.62    0.62
   3  -2 -12    7.46    0.52
  -3  -2  12    8.28    0.55
   3  -2 -12    8.51    0.60
   3   2 -12    8.21    0.67
   3   2 -12    7.22    0.58
  -3   2  12    8.51    0.64
  -2  -2  12    8.93    0.61
   2  -2 -12    9.51    0.55
   2  -2 -12    9.96    0.67
  -2   2  12   10.09    0.66
   2   2 -12    8.96    0.68
   2   2 -12    9.20    0.59
  -1  -2  12    0.31    0.28
   1  -2 -12    0.51    0.22
   1   2 -12   -0.09    0.25
  -1   2  12    0.08    0.33
   0  -2  12   10.24    0.59
   0  -2 -12    9.41    0.54
   0   2  12    8.61    0.70
   0   2  12    9.01    0.64
  -1  -2 -12    1.08    0.28
   1  -2  12   -0.01    0.27
   1   2  12    0.06    0.32
   1   2  12    0.34    0.32
   2  -2  12    8.77    0.57
  -2  -2 -12    9.23    0.59
   2   2  12    8.22    0.65
   2   2  12    9.20    0.59
   3  -2  12    1.82    0.37
   3   2  12    1.64    0.35
   4   2  12    4.45    0.44
   5  -2  12    5.29    0.50
   5   2  12    4.30    0.48
   6  -2  12   18.99    0.89
   6   2  12   18.17    0.81
   7  -2  12    0.75    0.40
   7   2  12    0.13    0.34
   8  -2  12    4.88    0.52
   8   2  12    5.72    0.56
   9  -2  12    3.07    0.50
   9   2  12    3.81    0.52
  10  -2  12    1.83    0.47
  10   2  12    1.13    0.47
  11  -2  12   -0.50    0.47
  11   2  12    0.57    0.44
  12  -2  12    8.12    0.78
  12   2  12    7.62    0.75
  13  -2  12   -0.16    0.53
  13   2  12    0.18    0.54
  13  -3 -12    6.40    0.78
  13   3 -12    6.74    0.79
 -13   3  12    5.39    0.71
  12  -3 -12    0.92    0.56
  12   3 -12   -0.51    0.51
 -12   3  12    0.40    0.51
  11  -3 -12    3.35    0.58
 -11  -3  12    4.11    0.57
 -11   3  12    2.78    0.59
  11   3 -12    3.72    0.59
 -10  -3  12   20.98    0.96
  10  -3 -12   22.14    1.07
  10   3 -12   22.01    1.10
  10   3 -12   22.58    1.30
 -10   3  12   20.23    1.02
   9  -3 -12    0.28    0.45
  -9  -3  12    0.22    0.38
   9   3 -12    0.52    0.37
  -9   3  12    0.43    0.45
   9   3 -12    0.24    0.42
  -8  -3  12    0.85    0.36
   8  -3 -12    0.47    0.43
   8   3 -12    0.91    0.38
  -8   3  12    0.93    0.43
   8   3 -12    0.71    0.39
  -7  -3  12   16.68    0.80
   7  -3 -12   19.00    0.93
   7   3 -12   18.24    0.87
  -7   3  12   18.91    0.93
   7   3 -12   18.82    0.86
   6  -3 -12   21.76    0.93
  -6  -3  12   21.67    0.88
  -6   3  12   23.28    0.93
   6   3 -12   22.70    0.92
   6   3 -12   23.51    0.99
   5  -3 -12    1.79    0.41
  -5  -3  12    1.55    0.37
  -5   3  12    1.57    0.38
  -5   3  12    1.39    0.33
   5   3 -12    2.08    0.38
   5   3 -12    1.69    0.39
   4  -3 -12   19.16    0.89
  -4  -3  12   19.68    0.81
   4   3 -12   18.82    0.84
  -4   3  12   19.63    0.83
  -4   3  12   21.41    0.86
   4   3 -12   19.82    0.87
   3  -3 -12   19.25    0.83
  -3  -3  12   19.80    0.80
   3   3 -12   19.20    0.81
   3   3 -12   18.39    0.88
   3   3 -12   18.67    0.77
  -3   3  12   19.69    0.86
  -2  -3  12   14.93    0.71
  -2   3  12   15.00    0.76
  -2   3  12   15.28    0.70
   2   3 -12   12.85    0.66
   2   3 -12   13.30    0.71
  -1  -3  12   17.01    0.77
   1   3 -12   18.88    0.75
  -1   3  12   17.96    0.83
  -1   3  12   17.48    0.79
   0  -3  12   81.27    1.99
   0   3  12   78.45    2.02
   0   3 -12   79.63    1.99
   0   3  12   76.37    1.99
   1  -3  12    0.76    0.33
   1   3  12    0.71    0.33
   1   3  12    1.50    0.38
  -1   3 -12    2.06    0.42
   2  -3  12    0.41    0.31
   2   3  12    0.51    0.29
   2   3  12    0.37    0.35
   3  -3  12   14.17    0.74
   3   3  12   15.17    0.75
   3   3  12   15.47    0.77
   4  -3  12   44.45    1.34
   4   3  12   43.00    1.33
   4   3  12   45.88    1.35
   5  -3  12    5.13    0.51
   5   3  12    4.67    0.49
   5   3  12    6.02    0.63
   6  -3  12    2.93    0.43
   6   3  12    2.69    0.43
   7  -3  12   10.99    0.77
   7   3  12   11.39    0.76
   8  -3  12   20.08    0.99
   8   3  12   21.04    0.96
   9  -3  12   -0.28    0.37
   9   3  12   -0.37    0.39
  10  -3  12   11.71    0.92
  10   3  12   13.73    0.90
  11  -3  12    7.48    0.73
  11   3  12    8.13    0.73
  12  -3  12   -0.21    0.51
  12   3  12    0.28    0.45
  13  -3  12    0.96    0.60
  13   3  12    0.20    0.51
 -13   4  12   -0.20    0.57
  12  -4 -12    9.86    0.84
 -12   4  12    8.28    0.79
  12   4 -12   10.12    0.86
  11  -4 -12    0.58    0.55
 -11   4  12    1.17    0.56
  11   4 -12    1.34    0.53
  10  -4 -12    0.99    0.51
  10   4 -12    0.73    0.43
  10   4 -12    0.82    0.44
 -10   4  12    0.17    0.50
   9  -4 -12    0.68    0.41
   9   4 -12    0.80    0.40
  -9   4  12    0.32    0.44
   9   4 -12   -0.02    0.42
  -8  -4  12   10.53    0.68
   8  -4 -12    9.91    0.79
   8   4 -12    8.74    0.71
  -8   4  12    9.85    0.73
   8   4 -12   10.01    0.73
  -7  -4  12    2.90    0.41
   7  -4 -12    2.01    0.46
   7   4 -12    1.79    0.38
   7   4 -12    1.94    0.47
  -7   4  12    2.92    0.50
  -6  -4  12   12.68    0.68
   6  -4 -12   11.46    0.76
  -6   4  12   11.74    0.73
   6   4 -12   12.52    0.74
   6   4 -12   13.23    0.81
   5  -4 -12    9.95    0.72
  -5  -4  12   11.06    0.67
  -5   4  12   10.27    0.92
   5   4 -12   10.71    0.74
   5   4 -12   10.91    0.70
  -5   4  12   10.49    0.68
   4  -4 -12    0.31    0.35
  -4  -4  12    0.24    0.30
  -4   4  12    0.15    0.30
   4   4 -12    0.64    0.37
   4   4 -12    0.20    0.29
  -4   4  12    0.49    0.36
   3  -4 -12    2.77    0.41
  -3  -4  12    2.50    0.38
  -3   4  12    2.98    0.39
   3   4 -12    2.41    0.37
   3   4 -12    3.33    0.40
  -3   4  12    3.14    0.45
  -3   4  12    2.27    0.34
   3   4 -12    2.72    0.44
  -2  -4  12   16.19    0.74
  -2   4  12   16.08    0.80
  -2   4  12   15.45    0.75
   2   4 -12   16.80    0.73
  -1  -4  12   11.88    0.64
   1   4 -12   11.46    0.64
  -1   4  12   11.33    0.71
  -1   4  12   10.85    0.65
   0  -4  12    0.35    0.29
   0   4  12    0.31    0.32
   0   4 -12    0.14    0.29
   0   4  12   -0.02    0.34
   1  -4  12   19.87    0.81
   1   4  12   20.53    0.88
   1   4  12   21.02    0.82
  -1   4 -12   21.57    0.84
   2  -4  12    0.56    0.31
   2   4  12   -0.10    0.33
   2   4  12    0.32    0.31
  -2   4 -12   -0.03    0.26
   3  -4  12    4.74    0.45
   3   4  12    4.41    0.45
   3   4  12    3.90    0.45
   4  -4  12    8.16    0.65
   4   4  12    8.64    0.59
   4   4  12    8.22    0.62
   5  -4  12    5.77    0.50
   5   4  12    5.06    0.49
   5   4  12    5.78    0.74
   6  -4  12    1.26    0.37
   6   4  12    0.45    0.36
   7  -4  12   -0.26    0.38
   7   4  12   -0.47    0.36
   8  -4  12    5.82    0.61
   8   4  12    6.23    0.59
   9  -4  12   10.34    0.85
   9   4  12   10.94    0.82
  10  -4  12    0.43    0.50
  10   4  12    0.14    0.44
  11  -4  12    2.31    0.59
  11   4  12    2.11    0.52
  12  -4  12    1.63    0.58
  12   4  12    1.66    0.56
 -11   5  12    0.19    0.50
  11   5 -12   -0.49    0.46
  10   5 -12    0.06    0.40
 -10   5  12   -0.25    0.48
  10   5 -12    0.20    0.47
   9   5 -12   -0.09    0.44
   9   5 -12   -0.03    0.40
  -9   5  12   -0.48    0.45
   8  -5 -12    1.09    0.47
   8   5 -12    1.33    0.42
  -8   5  12    1.33    0.48
   8   5 -12    0.78    0.44
   7  -5 -12   -0.22    0.38
   7   5 -12   -0.16    0.40
   7   5 -12   -0.28    0.35
  -7   5  12    0.26    0.39
   6  -5 -12    1.04    0.41
   6   5 -12    0.99    0.37
  -6   5  12    0.63    0.43
   6   5 -12    1.15    0.42
   5  -5 -12    0.40    0.38
   5   5 -12    0.06    0.32
   5   5 -12    0.21    0.36
  -5   5  12   -0.04    0.39
  -4  -5  12   -0.07    0.35
   4  -5 -12   -0.25    0.33
  -4   5  12    0.06    0.36
  -4   5  12   -0.14    0.30
   4   5 -12   -0.04    0.31
   4   5 -12   -0.08    0.36
  -3  -5  12   -0.10    0.28
  -3   5  12   -0.52    0.34
  -3   5  12    0.10    0.29
  -2  -5  12    0.42    0.30
  -2   5  12    0.74    0.32
  -2   5  12    0.43    0.35
  -1  -5  12    0.26    0.29
  -1   5  12    0.72    0.36
   0  -5  12    0.23    0.30
   0   5  12    0.09    0.35
   1  -5  12    0.87    0.32
   1   5  12    0.98    0.36
   2  -5  12    2.41    0.39
   2   5  12    2.30    0.42
   3  -5  12    0.30    0.32
   3   5  12    0.69    0.37
   4  -5  12    0.19    0.34
   4   5  12    0.24    0.35
   5  -5  12   -0.11    0.36
   5   5  12    0.21    0.36
   6  -5  12    0.26    0.38
   6   5  12    0.58    0.38
   7  -5  12    2.12    0.48
   7   5  12    1.86    0.43
   8  -5  12   -0.11    0.53
   8   5  12    0.59    0.42
   9   5  12    0.09    0.41
  10   5  12    1.08    0.47
  11   5  12   -0.34    0.48
 -10   6  12    0.28    0.61
  10   6 -12    0.09    0.45
   9   6 -12    1.62    0.50
  -9   6  12    0.73    0.45
   9   6 -12    1.11    0.46
   8   6 -12    7.30    0.64
   8   6 -12    7.75    0.68
  -8   6  12    6.61    0.66
   7   6 -12    3.21    0.49
   7   6 -12    2.43    0.50
  -7   6  12    2.57    0.53
   6   6 -12    8.70    0.69
   6   6 -12    8.97    0.74
  -6   6  12    8.52    0.67
   5   6 -12    7.13    0.61
  -5   6  12    6.99    0.61
   5   6 -12    7.03    0.61
  -4   6  12    1.38    0.43
   4   6 -12    1.19    0.39
  -3   6  12    0.55    0.39
  -3   6  12    0.52    0.35
  -2   6  12    7.99    0.61
  -2   6  12    8.88    0.67
  -1   6  12   28.64    1.09
   0   6  12    1.33    0.41
   1   6  12    1.73    0.41
   2   6  12    9.32    0.67
   3   6  12    5.01    0.50
   4   6  12    0.45    0.36
   5   6  12    5.34    0.53
   6   6  12    5.84    0.54
   7   6  12    0.32    0.39
   8   6  12    3.49    0.52
   9   6  12   12.27    0.82
   7   7 -12    4.18    0.53
  -7   7  12    4.17    0.60
   7   7 -12    5.13    0.58
   6   7 -12    1.45    0.44
  -6   7  12    0.37    0.45
   5   7 -12    0.06    0.37
  -5   7  12    0.05    0.42
  -4   7  12    5.37    0.57
   4   7 -12    5.79    0.58
  -3   7  12    6.90    0.60
  -2   7  12    0.24    0.39
  -2   7  12    0.50    0.36
  -1   7  12    0.04    0.38
   0   7  12   16.01    0.82
   1   7  12    2.75    0.44
   2   7  12   -0.06    0.37
   3   7  12    2.21    0.42
   4   7  12    6.09    0.55
   5   7  12    0.84    0.40
   6   7  12    1.23    0.42
  -1   8  12    0.57    0.41
   0   8  12    0.20    0.39
   1   8  12   -0.48    0.38
  14   0 -13    0.50    0.62
 -14   0  13   -0.69    0.50
 -13   0  13   -0.39    0.54
  13   0 -13   -0.30    0.57
 -12   0  13    0.37    0.47
  12   0 -13    0.62    0.52
  11   0 -13   -0.40    0.51
 -11   0  13   -0.28    0.42
  10   0 -13   -0.04    0.44
 -10   0  13   -0.27    0.44
  -9   0  13   -0.10    0.39
   9   0 -13   -0.40    0.44
   8   0 -13   -0.02    0.38
  -8   0  13   -0.35    0.40
   7   0 -13    0.05    0.37
  -7   0  13   -0.31    0.38
   6   0 -13    0.44    0.37
  -6   0  13    0.11    0.34
   5   0 -13    0.02    0.16
   5   0 -13   -0.39    0.36
  -5   0  13    0.47    0.36
   4   0 -13    0.23    0.25
  -4   0  13    0.14    0.32
   4   0 -13    0.38    0.35
   3   0 -13   -0.17    0.33
   3   0 -13    0.08    0.28
  -3   0  13   -0.31    0.34
   2   0 -13   -0.48    0.34
  -2   0  13   -0.08    0.33
   2   0 -13    0.26    0.27
  -1   0  13   -0.08    0.34
   1   0 -13   -0.09    0.25
   0   0  13    0.33    0.31
   0   0 -13    0.17    0.29
   1   0  13    0.26    0.35
  -1   0 -13   -0.02    0.23
   2   0  13   -0.41    0.33
  -2   0 -13   -0.25    0.23
   3   0  13    0.35    0.32
   4   0  13    0.28    0.33
   5   0  13   -0.29    0.36
   6   0  13   -0.11    0.34
   7   0  13   -0.35    0.35
   8   0  13   -0.24    0.37
   9   0  13   -0.21    0.43
  10   0  13    0.23    0.41
  11   0  13   -0.56    0.43
  12   0  13   -0.82    0.50
  13   0  13   -0.45    0.51
 -14  -1  13    0.96    0.63
 -14   1  13    0.87    0.62
 -13  -1  13   -0.43    0.54
  13  -1 -13    0.14    0.54
  13   1 -13    0.01    0.52
 -13   1  13   -0.02    0.57
 -12  -1  13    0.99    0.50
  12  -1 -13    1.25    0.59
 -12   1  13    0.95    0.57
  12   1 -13    1.58    0.60
  11  -1 -13   10.29    0.84
 -11  -1  13   11.23    0.83
  11   1 -13   12.05    0.92
 -11   1  13   12.83    0.97
 -10  -1  13    1.03    0.49
  10  -1 -13    0.76    0.52
  10   1 -13    0.95    0.52
 -10   1  13    0.67    0.50
   9  -1 -13    1.93    0.48
  -9  -1  13    1.25    0.48
  -9   1  13    1.94    0.51
   9   1 -13    1.34    0.47
   8  -1 -13   10.23    0.76
  -8  -1  13    9.43    0.69
  -8   1  13    9.73    0.79
   8   1 -13   10.07    0.76
  -7  -1  13    5.51    0.55
   7  -1 -13    5.18    0.60
   7   1 -13    6.41    0.63
  -7   1  13    6.59    0.61
  -6  -1  13    5.67    0.51
   6  -1 -13    6.68    0.62
   6   1 -13    6.28    0.54
  -6   1  13    5.86    0.54
   6   1 -13    6.60    0.61
  -5  -1  13   18.49    0.87
   5  -1 -13   18.22    0.93
   5   1 -13   20.25    0.86
   5   1 -13   19.64    0.95
  -5   1  13   17.93    0.84
  -4  -1  13   37.65    1.22
   4  -1 -13   37.93    1.29
   4  -1 -13   37.00    1.37
   4   1 -13   37.23    1.21
  -4   1  13   37.54    1.24
   4   1 -13   37.15    1.26
  -3  -1  13    1.09    0.38
   3  -1 -13    0.69    0.29
   3  -1 -13    0.50    0.38
   3   1 -13    0.53    0.36
   3   1 -13    0.80    0.31
  -3   1  13    0.60    0.34
  -2  -1  13    4.34    0.47
   2  -1 -13    3.78    0.39
   2  -1 -13    3.28    0.45
  -2   1  13    3.38    0.46
   2   1 -13    4.11    0.45
  -1  -1  13    8.52    0.65
   1  -1 -13    9.46    0.59
  -1   1  13    8.92    0.62
   1   1 -13    8.37    0.59
   0  -1  13   17.39    0.78
   0  -1 -13   17.71    0.76
   0   1  13   18.24    0.84
   0   1 -13   17.38    0.77
  -1  -1 -13    9.15    0.59
   1  -1  13    8.38    0.65
  -1   1 -13    9.58    0.61
   1   1  13    8.87    0.62
  -2  -1 -13   14.56    0.71
   2  -1  13   14.99    0.73
   2   1  13   14.45    0.73
   3  -1  13    2.87    0.44
  -3  -1 -13    4.01    0.50
   3   1  13    2.64    0.40
   4  -1  13   10.34    0.65
   4   1  13    9.52    0.65
   5  -1  13    3.50    0.48
   5   1  13    3.06    0.43
   6  -1  13   37.56    1.27
   6   1  13   37.31    1.26
   7  -1  13    3.64    0.50
   7   1  13    3.41    0.47
   8  -1  13    3.12    0.51
   8   1  13    3.10    0.49
   9  -1  13    1.74    0.45
   9   1  13    1.72    0.46
  10  -1  13   15.45    0.92
  10   1  13   15.49    0.98
  11  -1  13   -0.64    0.43
  11   1  13   -0.11    0.44
  12  -1  13    8.82    0.83
  12   1  13    8.31    0.76
  13  -1  13    2.30    0.60
  13   1  13    2.30    0.64
  13  -2 -13    5.28    0.80
  13   2 -13    5.70    0.79
 -13   2  13    5.60    0.78
  12  -2 -13    3.84    0.72
 -12  -2  13    5.11    0.67
  12   2 -13    5.92    0.77
 -12   2  13    5.34    0.74
  11  -2 -13    4.33    0.70
 -11  -2  13    5.44    0.65
  11   2 -13    3.91    0.62
 -11   2  13    5.36    0.64
  10  -2 -13    2.43    0.60
 -10  -2  13    3.08    0.50
 -10   2  13    2.90    0.54
  10   2 -13    3.09    0.60
   9  -2 -13    8.89    0.75
  -9  -2  13    9.99    0.77
   9   2 -13    8.57    0.71
  -9   2  13    9.60    0.78
  -8  -2  13    1.30    0.42
   8  -2 -13    0.90    0.46
   8   2 -13    1.62    0.45
  -8   2  13    1.58    0.45
   7  -2 -13   11.86    0.85
  -7  -2  13   12.93    0.78
  -7   2  13   12.70    0.84
   7   2 -13   13.89    0.87
   7   2 -13   14.05    0.81
   6  -2 -13   34.90    1.27
  -6  -2  13   35.55    1.18
  -6   2  13   31.95    1.17
   6   2 -13   34.23    1.17
   6   2 -13   34.14    1.23
  -5  -2  13   13.46    0.71
   5  -2 -13   14.90    0.86
   5   2 -13   13.91    0.79
   5   2 -13   13.33    0.76
  -5   2  13   14.45    0.76
   4  -2 -13    4.85    0.52
  -4  -2  13    5.90    0.49
   4   2 -13    6.10    0.59
   4   2 -13    6.09    0.53
  -4   2  13    5.76    0.55
  -3  -2  13   21.76    0.90
   3  -2 -13   20.79    0.91
  -3   2  13   21.88    0.89
   3   2 -13   21.59    0.90
   3   2 -13   21.08    0.98
   2  -2 -13   43.67    1.37
  -2  -2  13   42.90    1.31
  -2   2  13   42.83    1.35
   2   2 -13   42.07    1.31
  -1  -2  13    0.27    0.34
  -1   2  13    0.10    0.32
   1   2 -13    0.86    0.30
   0  -2  13   23.79    0.95
   0  -2 -13   25.25    0.91
   0   2  13   25.27    0.99
   1  -2  13   15.56    0.73
   1   2  13   13.89    0.73
   2  -2  13    7.91    0.64
   2   2  13    7.83    0.59
   3  -2  13    0.70    0.38
   3   2  13    0.70    0.38
   4  -2  13   14.33    0.79
   4   2  13   12.83    0.78
   5  -2  13   39.03    1.29
   5   2  13   39.54    1.29
   6  -2  13    0.35    0.37
   6   2  13    0.01    0.38
   7  -2  13    6.67    0.62
   7   2  13    5.50    0.54
   8  -2  13   13.57    0.82
   8   2  13   14.30    0.88
   9  -2  13    5.20    0.58
   9   2  13    6.97    0.67
  10  -2  13    0.98    0.51
  10   2  13    0.80    0.49
  11  -2  13    2.98    0.57
  11   2  13    2.53    0.52
  12  -2  13    1.82    0.61
  12   2  13    2.94    0.63
 -13   3  13   -0.85    0.57
  12  -3 -13    0.46    0.59
 -12   3  13    0.05    0.55
  12   3 -13    0.18    0.56
  11  -3 -13    1.02    0.57
 -11   3  13    1.20    0.52
  11   3 -13    0.32    0.48
  10  -3 -13    0.68    0.52
 -10  -3  13    0.91    0.46
  10   3 -13    0.31    0.45
 -10   3  13    0.59    0.47
   9  -3 -13    1.12    0.45
  -9  -3  13    1.82    0.44
   9   3 -13    1.78    0.53
  -9   3  13    1.50    0.53
  -8  -3  13    4.79    0.53
   8  -3 -13    3.83    0.54
   8   3 -13    4.87    0.54
   8   3 -13    3.74    0.58
  -8   3  13    3.91    0.57
   7  -3 -13    0.23    0.43
  -7  -3  13    0.27    0.37
  -7   3  13   -0.29    0.42
   7   3 -13    0.30    0.42
   7   3 -13    0.22    0.34
   6  -3 -13    2.19    0.44
  -6  -3  13    2.01    0.41
   6   3 -13    1.85    0.41
  -6   3  13    1.97    0.46
   6   3 -13    1.75    0.46
  -5  -3  13    3.52    0.46
   5  -3 -13    3.07    0.47
   5   3 -13    3.59    0.45
   5   3 -13    3.84    0.53
  -5   3  13    3.98    0.52
  -4  -3  13    1.66    0.38
   4  -3 -13    2.37    0.45
   4   3 -13    0.87    0.37
  -4   3  13    1.41    0.39
   4   3 -13    1.48    0.38
  -3  -3  13    4.45    0.44
   3  -3 -13    4.28    0.51
   3   3 -13    4.01    0.45
  -3   3  13    4.76    0.51
   3   3 -13    3.49    0.47
  -2  -3  13    5.77    0.50
  -2   3  13    5.02    0.49
   2   3 -13    4.66    0.45
  -1  -3  13    0.14    0.33
  -1   3  13    0.07    0.33
   0  -3  13    4.65    0.47
   0   3  13    3.97    0.47
   1  -3  13    0.51    0.34
   1   3  13    0.76    0.37
   2  -3  13    3.19    0.42
   2   3  13    2.87    0.42
   3  -3  13    5.77    0.52
   3   3  13    5.45    0.52
   4  -3  13   16.06    0.82
   4   3  13   16.23    0.84
   5  -3  13    0.16    0.35
   5   3  13   -0.30    0.36
   6  -3  13    0.04    0.39
   6   3  13    0.58    0.37
   7  -3  13    3.92    0.54
   7   3  13    3.66    0.52
   8  -3  13    2.64    0.51
   8   3  13    2.59    0.51
   9  -3  13    2.58    0.55
   9   3  13    1.57    0.52
  10  -3  13    0.08    0.44
  10   3  13    0.11    0.46
  11  -3  13    0.57    0.53
  11   3  13    1.32    0.53
  12  -3  13    0.73    0.58
  12   3  13    0.08    0.52
  12  -4 -13    0.57    0.62
 -12   4  13   -0.24    0.49
  12   4 -13    0.70    0.58
  11  -4 -13   -0.16    0.48
  11   4 -13   -0.16    0.51
 -11   4  13    0.36    0.55
  10  -4 -13    0.60    0.50
 -10   4  13    1.03    0.53
  10   4 -13    0.75    0.52
   9  -4 -13    6.02    0.68
   9   4 -13    6.53    0.70
  -9   4  13    6.72    0.69
   8  -4 -13    1.87    0.51
  -8   4  13    1.54    0.48
   8   4 -13    1.36    0.49
   8   4 -13    1.55    0.42
   7  -4 -13    1.94    0.48
  -7  -4  13    1.89    0.50
  -7   4  13    2.16    0.52
   7   4 -13    1.79    0.40
   7   4 -13    2.07    0.49
  -6  -4  13    9.16    0.66
   6  -4 -13    7.69    0.65
   6   4 -13    9.68    0.72
   6   4 -13    8.87    0.71
  -6   4  13    9.01    0.69
  -5  -4  13    1.00    0.37
   5  -4 -13    0.66    0.38
  -5   4  13    1.09    0.44
   5   4 -13    1.52    0.41
   5   4 -13    0.93    0.41
   4  -4 -13    1.96    0.44
  -4  -4  13    1.79    0.39
   4   4 -13    2.47    0.48
  -4   4  13    1.45    0.40
   4   4 -13    2.31    0.42
  -3  -4  13    8.02    0.62
   3   4 -13    8.88    0.68
  -3   4  13    7.40    0.59
  -2  -4  13    6.02    0.50
  -2   4  13    4.05    0.50
  -1  -4  13    0.21    0.32
  -1   4  13   -0.37    0.32
   0  -4  13    3.37    0.42
   0   4  13    3.03    0.47
   1  -4  13   11.04    0.67
   1   4  13   10.07    0.72
   1   4  13   11.40    0.82
   2  -4  13   -0.24    0.32
   2   4  13   -0.32    0.35
   2   4  13    0.21    0.40
   3  -4  13    5.38    0.52
   3   4  13    5.07    0.53
   4  -4  13   11.76    0.75
   4   4  13   12.81    0.71
   5  -4  13    3.65    0.49
   5   4  13    4.15    0.51
   6  -4  13    0.44    0.39
   6   4  13    0.68    0.41
   7  -4  13    3.95    0.57
   7   4  13    5.43    0.58
   8  -4  13   14.66    0.94
   8   4  13   14.78    0.90
   9  -4  13   -0.01    0.46
   9   4  13    0.71    0.47
  10  -4  13    1.27    0.54
  10   4  13    1.18    0.46
  11  -4  13    5.21    0.72
  11   4  13    4.58    0.62
  10   5 -13    4.87    0.66
 -10   5  13    4.36    0.67
   9   5 -13    0.65    0.49
   9   5 -13    0.61    0.51
  -9   5  13    0.16    0.49
   8   5 -13   14.63    0.95
  -8   5  13   17.08    1.01
   8   5 -13   14.52    0.90
   7   5 -13    5.64    0.58
  -7   5  13    4.59    0.59
   7   5 -13    4.54    0.58
   6   5 -13    0.72    0.44
   6   5 -13    0.54    0.38
  -6   5  13    0.82    0.40
   5  -5 -13    5.38    0.69
   5   5 -13    4.46    0.52
  -5   5  13    4.97    0.56
   5   5 -13    4.63    0.56
   4   5 -13   15.39    0.84
  -4   5  13   14.50    0.86
   3   5 -13    6.58    0.57
  -3   5  13    6.86    0.62
  -2   5  13   26.84    1.07
  -1  -5  13    6.83    0.61
  -1   5  13    7.14    0.60
   0  -5  13    1.43    0.38
   0   5  13    1.29    0.42
   1  -5  13    6.07    0.51
   1   5  13    6.03    0.56
   2  -5  13   15.83    0.81
   2   5  13   15.73    0.84
   3  -5  13   12.51    0.78
   3   5  13   13.19    0.79
   4  -5  13    0.34    0.38
   4   5  13    0.49    0.38
   5  -5  13    0.54    0.46
   5   5  13    0.88    0.42
   6   5  13    3.38    0.50
   7   5  13   16.75    0.95
   8   5  13    1.11    0.47
   9   5  13   18.98    1.02
   8   6 -13    0.27    0.43
   8   6 -13    0.76    0.47
  -8   6  13    0.11    0.48
  -7   6  13   -0.20    0.47
   7   6 -13   -0.03    0.40
   7   6 -13    0.19    0.44
   6   6 -13    2.40    0.52
   6   6 -13    2.95    0.50
  -6   6  13    2.52    0.53
   5   6 -13    0.46    0.41
  -5   6  13   -0.36    0.42
   4   6 -13    1.17    0.41
  -4   6  13    1.14    0.45
  -3   6  13    0.13    0.41
  -2   6  13    2.89    0.47
  -1   6  13    1.61    0.45
   0   6  13    0.45    0.40
   1   6  13    4.49    0.52
   2   6  13    0.61    0.40
   3   6  13    0.47    0.40
   4   6  13    2.71    0.48
   5   6  13    2.03    0.46
   6   6  13   -0.26    0.39
   7   6  13    0.30    0.43
  -5   7  13    0.01    0.42
   5   7 -13    0.28    0.42
  -4   7  13    4.07    0.56
   4   7 -13    4.18    0.56
  -3   7  13    0.99    0.45
  -2   7  13    3.05    0.51
  -1   7  13    2.04    0.47
   0   7  13    0.89    0.44
   1   7  13    0.23    0.41
   2   7  13    1.65    0.45
   3   7  13    5.26    0.55
   4   7  13    0.44    0.41
  13   0 -14    6.76    0.82
 -13   0  14    5.11    0.73
  12   0 -14   -0.33    0.55
 -12   0  14   -0.20    0.55
 -11   0  14   10.58    0.85
  11   0 -14    8.98    0.84
 -10   0  14    7.49    0.72
  10   0 -14    5.86    0.73
   9   0 -14   -0.53    0.41
  -9   0  14   -0.09    0.45
   8   0 -14    0.73    0.48
  -8   0  14    0.79    0.45
  -7   0  14   30.79    1.19
   7   0 -14   29.38    1.19
   6   0 -14    5.81    0.60
  -6   0  14    6.51    0.57
  -5   0  14    2.34    0.43
   5   0 -14    2.74    0.52
  -4   0  14   18.98    0.86
   4   0 -14   18.98    0.97
   3   0 -14   15.81    0.85
  -3   0  14   16.12    0.80
  -2   0  14   -0.43    0.36
  -1   0  14    2.88    0.43
   0   0  14   16.98    0.82
   1   0  14    4.37    0.48
   2   0  14   -0.01    0.34
   3   0  14   36.55    1.26
   4   0  14   44.40    1.42
   5   0  14    6.21    0.59
   6   0  14   13.24    0.84
   7   0  14   13.48    0.80
   8   0  14   11.78    0.81
   9   0  14    5.75    0.61
  10   0  14   19.51    1.10
  11   0  14    0.80    0.55
  12   0  14    1.39    0.54
  13  -1 -14    1.77    0.67
 -13  -1  14    0.55    0.61
 -13   1  14    0.50    0.57
  13   1 -14    0.85    0.67
 -12  -1  14    0.15    0.53
  12  -1 -14    0.56    0.63
 -12   1  14    1.16    0.60
  12   1 -14    0.77    0.62
  11  -1 -14    0.26    0.55
 -11  -1  14    0.09    0.46
 -11   1  14   -0.13    0.46
  11   1 -14    0.13    0.54
 -10  -1  14    1.33    0.52
  10  -1 -14    1.17    0.51
 -10   1  14    0.88    0.49
  10   1 -14    1.03    0.57
  -9  -1  14    3.16    0.56
   9  -1 -14    2.65    0.58
  -9   1  14    2.41    0.52
   9   1 -14    3.44    0.62
  -8  -1  14    1.49    0.44
   8  -1 -14    1.69    0.49
  -8   1  14    1.97    0.48
   8   1 -14    2.28    0.55
  -7  -1  14    0.38    0.38
   7  -1 -14    0.86    0.47
  -7   1  14    0.10    0.42
   7   1 -14    0.16    0.40
  -6  -1  14    6.47    0.60
   6  -1 -14    6.94    0.67
   6   1 -14    5.96    0.63
  -6   1  14    5.94    0.58
  -5  -1  14   15.81    0.85
   5  -1 -14   14.52    0.85
   5   1 -14   15.30    0.86
  -5   1  14   15.96    0.88
   4  -1 -14    0.42    0.38
  -4  -1  14   -0.19    0.33
   4   1 -14    0.25    0.38
  -4   1  14    0.07    0.36
  -3  -1  14    0.57    0.35
   3  -1 -14    0.08    0.40
   3   1 -14    0.70    0.42
   3   1 -14    0.70    0.38
  -3   1  14    0.75    0.38
  -2  -1  14   13.53    0.73
   2   1 -14   13.37    0.76
  -2   1  14   12.64    0.74
  -1  -1  14    2.95    0.46
   1   1 -14    2.58    0.42
  -1   1  14    2.28    0.42
   0  -1  14    2.51    0.46
   0   1 -14    2.73    0.44
   0   1  14    2.27    0.45
   1  -1  14    9.74    0.72
   1   1  14    8.48    0.66
  -1   1 -14   11.04    1.07
   2  -1  14    3.31    0.48
   2   1  14    2.40    0.43
   3  -1  14    5.52    0.56
   3   1  14    4.95    0.54
   4  -1  14    2.92    0.49
   4   1  14    2.14    0.43
   5  -1  14   20.23    0.91
   5   1  14   20.56    0.97
   6  -1  14    1.99    0.46
   6   1  14    1.73    0.47
   7  -1  14   -0.17    0.42
   7   1  14   -0.25    0.42
   8  -1  14    3.33    0.56
   8   1  14    3.15    0.52
   9  -1  14    2.83    0.57
   9   1  14    1.82    0.49
  10  -1  14    0.02    0.49
  10   1  14   -0.52    0.43
  11  -1  14   -0.83    0.51
  11   1  14    0.24    0.53
  12  -1  14    1.25    0.60
  12   1  14    1.31    0.60
  12  -2 -14    1.90    0.63
 -12   2  14    1.10    0.57
  12   2 -14    2.06    0.64
 -11  -2  14    9.26    0.79
  11  -2 -14    8.36    0.82
  11   2 -14    9.43    0.86
 -11   2  14    8.51    0.79
 -10  -2  14    0.47    0.43
  10  -2 -14    0.08    0.47
 -10   2  14   -0.45    0.46
  10   2 -14    0.19    0.52
  -9  -2  14    0.74    0.41
   9  -2 -14    0.92    0.47
  -9   2  14    0.63    0.52
   9   2 -14    0.31    0.51
  -8  -2  14   -0.24    0.39
   8  -2 -14    0.66    0.43
  -8   2  14   -0.05    0.46
   8   2 -14   -0.49    0.45
  -7  -2  14    5.08    0.55
   7  -2 -14    6.16    0.67
   7   2 -14    4.59    0.59
  -7   2  14    4.46    0.56
   6  -2 -14    2.10    0.51
  -6  -2  14    2.50    0.48
  -6   2  14    2.81    0.50
   6   2 -14    2.36    0.48
  -5  -2  14    4.20    0.52
   5  -2 -14    4.70    0.54
   5   2 -14    4.17    0.58
   5   2 -14    3.90    0.73
  -5   2  14    4.47    0.52
  -4  -2  14    3.63    0.45
   4  -2 -14    2.99    0.48
  -4   2  14    4.11    0.52
   4   2 -14    3.23    0.43
   4   2 -14    3.49    0.55
   3  -2 -14    0.13    0.39
  -3  -2  14    0.29    0.33
   3   2 -14    0.34    0.41
  -3   2  14    0.36    0.37
   3   2 -14    0.41    0.33
  -2  -2  14    0.31    0.37
  -2   2  14    1.10    0.42
   2   2 -14    0.49    0.33
  -1  -2  14    5.04    0.52
   1   2 -14    5.09    0.50
  -1   2  14    4.66    0.50
   0  -2  14    1.37    0.41
   0   2  14    0.46    0.36
   0   2 -14    0.69    0.32
   1  -2  14    0.66    0.35
   1   2  14    0.95    0.38
   2  -2  14    1.16    0.37
   2   2  14    1.17    0.43
   3  -2  14    1.18    0.41
   3   2  14    1.16    0.39
   4  -2  14    6.24    0.58
   4   2  14    6.49    0.59
   5  -2  14    0.25    0.36
   5   2  14   -0.30    0.39
   6  -2  14    0.99    0.46
   6   2  14    1.53    0.47
   7  -2  14    0.52    0.46
   7   2  14   -0.14    0.42
   8  -2  14    6.67    0.67
   8   2  14    5.42    0.61
   9  -2  14   -0.08    0.46
   9   2  14   -0.51    0.47
  10  -2  14   10.49    0.87
  10   2  14    9.63    0.77
  11  -2  14    0.16    0.53
  11   2  14    0.27    0.53
  11  -3 -14    1.99    0.58
 -11   3  14    1.75    0.55
  11   3 -14    1.77    0.62
  10  -3 -14    1.61    0.54
  10   3 -14    1.44    0.56
 -10   3  14    0.75    0.52
   9  -3 -14    8.51    0.77
  -9  -3  14    9.53    0.74
   9   3 -14    8.04    0.76
  -9   3  14    9.42    0.81
   8  -3 -14   13.74    0.89
  -8  -3  14   13.67    0.85
   8   3 -14   16.21    0.99
  -8   3  14   12.47    0.94
   7  -3 -14   -0.30    0.43
  -7  -3  14   -0.30    0.39
  -7   3  14   -0.03    0.41
   7   3 -14   -0.24    0.44
  -6  -3  14   17.85    0.89
   6  -3 -14   17.19    0.98
   6   3 -14   18.83    1.01
   6   3 -14   18.76    1.21
  -6   3  14   16.55    0.90
  -5  -3  14   14.90    0.83
   5  -3 -14   15.44    0.91
  -5   3  14   14.70    0.90
   5   3 -14   14.11    0.85
   5   3 -14   15.46    0.85
  -4  -3  14    0.39    0.34
   4  -3 -14    0.65    0.42
  -4   3  14   -0.01    0.37
   4   3 -14    0.34    0.40
   4   3 -14    0.40    0.39
  -3  -3  14    9.26    0.69
   3   3 -14    9.32    0.71
  -3   3  14    8.99    0.69
  -2  -3  14    9.47    0.65
   2   3 -14    8.77    0.70
  -2   3  14    8.48    0.68
  -1  -3  14   13.08    0.77
  -1   3  14   13.72    0.83
   1   3 -14   14.02    0.79
   0  -3  14    1.21    0.36
   0   3  14    0.80    0.43
   1  -3  14    5.72    0.55
   1   3  14    6.02    0.55
   2  -3  14   20.86    0.90
   2   3  14   23.98    1.01
   3  -3  14    6.52    0.58
   3   3  14    5.59    0.54
   4  -3  14    0.49    0.39
   4   3  14    0.31    0.40
   5  -3  14   30.79    1.13
   5   3  14   29.75    1.17
   6  -3  14    5.87    0.59
   6   3  14    7.21    0.61
   7  -3  14    0.09    0.39
   7   3  14   -0.14    0.43
   8  -3  14    7.76    0.71
   8   3  14    7.55    0.69
   9  -3  14    5.86    0.65
   9   3  14    6.57    0.68
  10  -3  14    0.15    0.51
  10   3  14    0.40    0.50
  11  -3  14    2.66    0.65
  11   3  14    2.47    0.60
  10  -4 -14    3.40    0.63
  10   4 -14    2.83    0.61
 -10   4  14    3.83    0.63
   9  -4 -14    1.90    0.58
  -9   4  14    2.02    0.59
   9   4 -14    2.45    0.59
   8  -4 -14   13.64    0.96
  -8   4  14   13.20    0.97
   8   4 -14   12.24    0.95
   7  -4 -14    1.93    0.52
   7   4 -14    2.38    0.53
  -7   4  14    1.82    0.49
   6  -4 -14    0.19    0.45
   6   4 -14    0.28    0.45
   6   4 -14   -0.05    0.39
  -6   4  14    0.33    0.41
  -5  -4  14    0.10    0.36
   5  -4 -14    0.06    0.40
   5   4 -14   -0.27    0.41
   5   4 -14    0.19    0.36
  -5   4  14   -0.64    0.41
   4  -4 -14   14.56    0.86
  -4  -4  14   14.64    0.78
   4   4 -14   14.14    0.89
   4   4 -14   12.75    0.82
  -4   4  14   14.12    0.87
  -3  -4  14    5.25    0.53
   3   4 -14    4.81    0.51
  -3   4  14    6.27    0.62
  -2  -4  14    2.48    0.44
  -2   4  14    1.95    0.47
   2   4 -14    1.16    0.37
  -1  -4  14    0.55    0.35
  -1   4  14   -0.08    0.41
   0  -4  14    3.71    0.47
   0   4  14    4.10    0.54
   1  -4  14    7.76    0.59
   1   4  14    6.82    0.58
   2  -4  14    2.71    0.46
   2   4  14    2.33    0.48
   3  -4  14    8.85    0.72
   3   4  14    9.46    0.77
   4  -4  14    2.24    0.47
   4   4  14    2.05    0.48
   5  -4  14    0.64    0.45
   5   4  14    0.41    0.41
   6  -4  14    3.62    0.53
   6   4  14    3.98    0.55
   7  -4  14   23.29    1.10
   7   4  14   21.24    1.05
   8  -4  14    0.15    0.49
   8   4  14    0.60    0.48
   9  -4  14    1.73    0.55
   9   4  14    1.94    0.53
  10  -4  14    0.64    0.63
  10   4  14    1.14    0.54
  -9   5  14    0.53    0.53
   9   5 -14    0.77    0.52
  -8   5  14    1.72    0.55
   8   5 -14    3.02    0.58
  -7   5  14    0.54    0.49
   7   5 -14   -0.46    0.47
   7   5 -14    0.71    0.72
   6   5 -14    0.67    0.43
   6   5 -14   -0.36    0.43
  -6   5  14   -0.15    0.46
   5   5 -14    0.18    0.45
   5   5 -14    0.45    0.41
  -5   5  14    0.33    0.41
  -4   5  14    0.37    0.43
   4   5 -14    0.86    0.38
  -3   5  14    1.47    0.46
   3   5 -14    1.66    0.46
  -2   5  14    0.83    0.45
  -1   5  14   -0.37    0.39
   0   5  14    0.31    0.40
   1   5  14    0.86    0.44
   2   5  14    0.89    0.44
   3   5  14    0.46    0.41
   4   5  14   -0.21    0.39
   5   5  14   -0.05    0.41
   6   5  14    1.49    0.47
   7   5  14    1.03    0.48
   8   5  14   -0.06    0.46
  -7   6  14    4.41    0.73
   6   6 -14    0.85    0.45
  -6   6  14    1.48    0.50
   5   6 -14    0.23    0.42
  -5   6  14    0.02    0.46
  -4   6  14    8.27    0.69
   4   6 -14    9.87    0.82
  -3   6  14    5.79    0.63
   3   6 -14    6.17    0.64
  -2   6  14    0.26    0.44
  -1   6  14    5.30    0.59
   0   6  14    1.12    0.46
   1   6  14   11.01    0.81
   2   6  14    2.99    0.53
   3   6  14    5.78    0.60
   4   6  14    0.71    0.45
   5   6  14    2.71    0.52
   6   6  14    4.55    0.58
  -1   7  14    6.81    0.65
   0   7  14    1.02    0.46
 -12   0  15   -0.18    0.57
  12   0 -15    0.04    0.54
 -11   0  15    0.06    0.56
  11   0 -15    0.50    0.59
 -10   0  15   -0.59    0.48
  10   0 -15   -0.25    0.47
  -9   0  15   -0.33    0.48
   9   0 -15    0.02    0.46
   8   0 -15    0.17    0.45
  -8   0  15   -0.10    0.47
  -7   0  15   -0.09    0.44
   7   0 -15    0.00    0.42
   6   0 -15   -0.19    0.45
  -6   0  15    0.08    0.43
   5   0 -15   -0.10    0.44
  -5   0  15    0.12    0.38
   4   0 -15   -0.09    0.43
  -4   0  15   -0.05    0.37
  -3   0  15   -0.50    0.40
  -2   0  15   -0.44    0.39
  -1   0  15    0.37    0.43
   0   0  15   -0.40    0.39
   1   0  15   -0.81    0.35
   2   0  15   -0.06    0.37
   3   0  15    0.07    0.42
   4   0  15   -0.20    0.42
   5   0  15   -0.27    0.38
   6   0  15   -0.15    0.44
   7   0  15   -0.15    0.42
   8   0  15   -0.21    0.47
   9   0  15   -0.23    0.51
  10   0  15    0.13    0.51
  11   0  15   -0.22    0.47
 -11  -1  15    0.72    0.51
  11  -1 -15    0.76    0.56
 -11   1  15    1.11    0.60
  11   1 -15    0.59    0.52
 -10  -1  15    1.97    0.58
  10  -1 -15    3.14    0.66
  10   1 -15    2.22    0.63
 -10   1  15    2.76    0.63
   9  -1 -15    8.41    0.82
  -9  -1  15    7.83    0.72
  -9   1  15    6.86    0.70
   9   1 -15    6.51    0.72
  -8  -1  15   -0.02    0.46
   8  -1 -15    0.17    0.50
  -8   1  15    0.29    0.44
   8   1 -15   -0.23    0.50
  -7  -1  15   21.63    1.05
   7  -1 -15   22.75    1.15
  -7   1  15   21.52    1.10
   7   1 -15   25.34    1.19
   6  -1 -15    0.90    0.45
  -6  -1  15    0.94    0.47
  -6   1  15    1.15    0.48
   6   1 -15    1.57    0.53
  -5  -1  15    0.25    0.42
   5  -1 -15    0.45    0.41
  -5   1  15    0.30    0.40
   5   1 -15    0.05    0.46
   4  -1 -15    0.13    0.39
  -4  -1  15   -0.26    0.40
   4   1 -15   -0.76    0.37
  -4   1  15   -0.50    0.36
  -3  -1  15   15.64    0.83
  -3   1  15   16.82    0.91
  -2  -1  15    9.74    0.70
  -2   1  15   10.69    0.81
  -1  -1  15    2.86    0.50
  -1   1  15    4.06    0.55
   0  -1  15    0.76    0.40
   0   1  15    0.61    0.41
   1  -1  15   14.72    0.86
   1   1  15   13.47    0.87
   2  -1  15   19.39    0.91
   2   1  15   19.41    0.99
   3  -1  15   25.47    1.10
   3   1  15   26.76    1.07
   4  -1  15   21.11    0.97
   4   1  15   22.05    0.98
   5  -1  15    0.49    0.43
   5   1  15    0.52    0.41
   6  -1  15    0.35    0.46
   6   1  15   -0.21    0.43
   7  -1  15    5.93    0.66
   7   1  15    7.02    0.68
   8  -1  15   20.27    1.03
   8   1  15   20.77    1.10
   9  -1  15   -0.09    0.50
   9   1  15   -0.16    0.46
  10  -1  15    5.50    0.72
  10   1  15    5.71    0.70
  11  -1  15    0.83    0.52
  11   1  15    0.76    0.56
  11  -2 -15    7.70    0.87
 -11   2  15    5.54    0.72
  11   2 -15    6.14    0.79
 -10  -2  15   -0.37    0.49
  10  -2 -15   -0.26    0.49
  10   2 -15    0.03    0.53
 -10   2  15   -0.36    0.53
   9  -2 -15    4.67    0.69
  -9  -2  15    4.73    0.63
  -9   2  15    3.78    0.63
   9   2 -15    4.34    0.67
  -8  -2  15    8.24    0.67
   8  -2 -15    7.29    0.71
   8   2 -15    8.36    0.80
  -8   2  15    8.70    0.76
  -7  -2  15    5.00    0.56
   7  -2 -15    5.33    0.62
  -7   2  15    4.82    0.59
   7   2 -15    5.72    0.69
   6  -2 -15    2.52    0.52
  -6  -2  15    2.67    0.50
  -6   2  15    1.99    0.48
   6   2 -15    3.21    0.60
   5  -2 -15   17.78    0.94
  -5  -2  15   16.45    0.86
  -5   2  15   17.78    0.98
   5   2 -15   18.45    1.03
  -4  -2  15    2.82    0.46
   4  -2 -15    2.11    0.49
   4   2 -15    2.68    0.51
  -4   2  15    2.67    0.52
  -3  -2  15    4.75    0.56
  -3   2  15    5.17    0.57
  -2  -2  15    0.02    0.40
  -2   2  15    0.14    0.39
  -1  -2  15   28.29    1.10
  -1   2  15   25.55    1.06
   0  -2  15    7.87    0.63
   0   2  15    8.35    0.68
   1  -2  15    0.39    0.40
   1   2  15   -0.25    0.38
   2  -2  15   20.26    0.92
   2   2  15   19.50    0.94
   3  -2  15    9.53    0.78
   3   2  15    9.35    0.72
   4  -2  15    1.99    0.49
   4   2  15    1.61    0.45
   5  -2  15   13.07    0.87
   5   2  15   14.26    0.84
   6  -2  15   18.08    0.98
   6   2  15   16.84    0.90
   7  -2  15    0.04    0.48
   7   2  15   -0.06    0.45
   8  -2  15    0.95    0.52
   8   2  15    0.51    0.51
   9  -2  15    5.16    0.64
   9   2  15    5.35    0.63
  10  -2  15    0.90    0.58
  10   2  15    1.40    0.55
  10  -3 -15    0.89    0.53
  10   3 -15    0.69    0.59
 -10   3  15    1.57    0.60
   9  -3 -15   -0.08    0.49
   9   3 -15    0.10    0.47
  -9   3  15   -0.42    0.50
  -8  -3  15    1.05    0.56
   8  -3 -15    0.00    0.45
  -8   3  15    1.05    0.55
   8   3 -15    0.98    0.54
  -7  -3  15    0.12    0.41
   7  -3 -15   -0.42    0.46
   7   3 -15   -0.66    0.41
  -7   3  15    0.51    0.46
  -6  -3  15    0.08    0.42
   6  -3 -15    0.03    0.42
   6   3 -15    0.68    0.50
  -6   3  15    0.13    0.42
  -5  -3  15    4.03    0.54
   5  -3 -15    3.97    0.60
  -5   3  15    4.46    0.60
   5   3 -15    2.91    0.53
   4  -3 -15    2.98    0.50
  -4  -3  15    3.60    0.51
   4   3 -15    3.18    0.57
  -4   3  15    3.34    0.56
  -3  -3  15    0.61    0.39
  -3   3  15    0.16    0.45
  -2  -3  15    0.81    0.43
  -2   3  15    0.92    0.47
  -1  -3  15    3.63    0.51
  -1   3  15    3.02    0.53
   0  -3  15    2.96    0.49
   0   3  15    1.84    0.48
   1  -3  15    4.21    0.54
   1   3  15    4.31    0.53
   2  -3  15    0.32    0.42
   2   3  15    0.72    0.42
   3  -3  15    2.20    0.49
   3   3  15    1.52    0.45
   4  -3  15   -0.01    0.43
   4   3  15    0.44    0.46
   5  -3  15    5.33    0.63
   5   3  15    6.45    0.66
   6  -3  15    1.41    0.50
   6   3  15    1.16    0.51
   7  -3  15    6.61    0.67
   7   3  15    5.67    0.64
   8  -3  15    0.39    0.50
   8   3  15    0.19    0.49
   9  -3  15   -0.33    0.52
   9   3  15    0.28    0.46
   9   4 -15    2.13    0.61
  -9   4  15    1.72    0.55
   8  -4 -15    4.58    0.70
   8   4 -15    4.21    0.65
  -8   4  15    4.23    0.66
   7  -4 -15    4.74    0.66
  -7   4  15    5.47    0.63
   7   4 -15    5.06    0.67
   6  -4 -15    2.29    0.56
  -6   4  15    1.65    0.50
   6   4 -15    2.40    0.57
   5  -4 -15    6.36    0.65
  -5   4  15    7.30    0.70
   5   4 -15    7.97    0.75
  -4   4  15    1.98    0.52
  -3  -4  15    0.16    0.40
  -3   4  15    0.99    0.49
  -2  -4  15    1.68    0.45
  -2   4  15    2.03    0.52
  -1  -4  15   11.26    0.77
  -1   4  15   11.80    0.86
   0  -4  15    2.09    0.44
   0   4  15    2.97    0.54
   1  -4  15    2.88    0.48
   1   4  15    3.64    0.55
   2  -4  15    2.52    0.49
   2   4  15    2.14    0.51
   3  -4  15    5.82    0.61
   3   4  15    6.01    0.63
   4  -4  15    1.01    0.46
   4   4  15    0.97    0.48
   5  -4  15    2.37    0.55
   5   4  15    2.32    0.52
   6  -4  15    6.66    0.67
   6   4  15    7.60    0.69
   7  -4  15    0.79    0.49
   7   4  15    0.65    0.49
   8  -4  15    0.30    0.62
   8   4  15    0.66    0.52
  -7   5  15    2.76    0.61
   7   5 -15    1.30    0.55
  -6   5  15    7.45    0.74
   6   5 -15    8.15    0.76
  -5   5  15    1.00    0.51
  -4   5  15    3.54    0.60
  -3   5  15    8.36    0.69
  -2   5  15    0.74    0.47
  -1   5  15    0.75    0.48
   0   5  15    5.89    0.61
   1   5  15   15.79    0.95
   2   5  15   -0.05    0.43
   3   5  15    1.93    0.50
   4   5  15    1.87    0.53
   5   5  15    7.21    0.66
   6   5  15    1.44    0.51
  -4   6  15    0.92    0.50
  -3   6  15    0.31    0.48
  -2   6  15    1.57    0.52
  -1   6  15    2.25    0.54
   0   6  15   -0.34    0.44
   1   6  15   -0.36    0.44
   2   6  15    2.51    0.54
   3   6  15    1.01    0.48
  10   0 -16    0.76    0.54
 -10   0  16    0.67    0.58
   9   0 -16   16.98    1.09
  -9   0  16   18.72    1.11
  -8   0  16    1.22    0.53
   8   0 -16    0.71    0.56
  -7   0  16    5.13    0.63
   7   0 -16    5.07    0.70
  -6   0  16    0.13    0.47
   6   0 -16    0.40    0.47
  -5   0  16   13.48    0.84
   5   0 -16   11.74    0.89
   4   0 -16    7.28    0.69
  -4   0  16   10.11    0.75
  -3   0  16   24.66    1.11
  -2   0  16    3.41    0.52
  -1   0  16    7.35    0.67
   0   0  16   -0.01    0.45
   1   0  16   24.17    1.11
   2   0  16   33.49    1.24
   3   0  16    6.54    0.63
   4   0  16   15.45    0.96
   5   0  16    5.34    0.59
   6   0  16   16.17    0.94
   7   0  16    5.57    0.64
   8   0  16   24.27    1.15
   9   0  16    1.81    0.54
  10  -1 -16    1.28    0.63
 -10  -1  16    0.30    0.49
  10   1 -16    0.49    0.59
 -10   1  16    0.00    0.58
   9  -1 -16    0.83    0.59
  -9  -1  16    1.21    0.52
  -9   1  16    1.06    0.52
   9   1 -16    0.49    0.50
  -8  -1  16    0.73    0.47
   8  -1 -16    0.72    0.50
   8   1 -16    1.38    0.58
  -8   1  16    0.25    0.47
   7  -1 -16    3.10    0.59
  -7  -1  16    3.50    0.60
  -7   1  16    3.72    0.61
   7   1 -16    2.81    0.63
  -6  -1  16   -0.28    0.45
   6  -1 -16    0.94    0.55
  -6   1  16   -0.17    0.43
   6   1 -16    0.27    0.51
   5  -1 -16    2.06    0.57
  -5  -1  16    1.91    0.47
  -5   1  16    1.64    0.53
   5   1 -16    2.29    0.58
   4  -1 -16    2.84    0.57
  -4  -1  16    2.73    0.53
  -4   1  16    2.73    0.51
   4   1 -16    4.15    0.61
  -3  -1  16    5.74    0.61
  -3   1  16    5.78    0.60
  -2  -1  16    1.95    0.46
  -2   1  16    1.75    0.51
  -1  -1  16    1.90    0.50
  -1   1  16    2.38    0.49
   0  -1  16   11.82    0.87
   0   1  16   11.70    0.82
   1  -1  16    0.16    0.45
   1   1  16   -0.52    0.44
   2  -1  16    0.61    0.47
   2   1  16    1.04    0.48
   3  -1  16    3.58    0.57
   3   1  16    3.79    0.54
   4  -1  16    4.84    0.59
   4   1  16    5.33    0.64
   5  -1  16    1.83    0.51
   5   1  16    1.97    0.50
   6  -1  16    3.28    0.57
   6   1  16    3.88    0.60
   7  -1  16    1.44    0.58
   7   1  16    1.50    0.56
   8  -1  16    1.06    0.56
   8   1  16    0.27    0.53
   9  -1  16    1.10    0.52
   9   1  16    2.21    0.60
  10  -2 -16   -0.49    0.49
 -10   2  16    0.31    0.58
  10   2 -16    0.17    0.58
  -9  -2  16    4.81    0.65
   9  -2 -16    3.96    0.68
  -9   2  16    4.68    0.68
   9   2 -16    5.14    0.74
   8  -2 -16    0.11    0.52
  -8  -2  16   -0.34    0.43
  -8   2  16   -0.08    0.52
   8   2 -16    0.55    0.52
  -7  -2  16    0.69    0.49
   7  -2 -16    1.51    0.56
   7   2 -16    0.54    0.50
  -7   2  16    1.25    0.50
   6  -2 -16    0.66    0.50
  -6  -2  16    0.20    0.45
  -6   2  16   -0.18    0.47
   6   2 -16   -0.11    0.50
   5  -2 -16    2.54    0.53
  -5  -2  16    3.47    0.56
  -5   2  16    2.86    0.54
   5   2 -16    2.55    0.60
  -4  -2  16    0.29    0.40
  -4   2  16    0.97    0.51
  -3  -2  16    5.37    0.57
  -3   2  16    6.18    0.66
  -2  -2  16    0.92    0.46
  -2   2  16    0.59    0.44
  -1  -2  16    0.00    0.39
  -1   2  16    0.31    0.42
   0  -2  16    2.97    0.53
   0   2  16    3.92    0.54
   1  -2  16    4.83    0.59
   1   2  16    4.36    0.57
   2  -2  16    7.23    0.67
   2   2  16    6.32    0.67
   3  -2  16    2.80    0.53
   3   2  16    2.13    0.50
   4  -2  16    0.74    0.43
   4   2  16   -0.35    0.46
   5  -2  16   -0.06    0.41
   5   2  16   -0.12    0.47
   6  -2  16    4.66    0.64
   6   2  16    5.20    0.65
   7  -2  16   -0.56    0.49
   7   2  16   -0.22    0.43
   8  -2  16    4.40    0.64
   8   2  16    5.95    0.71
   9  -2  16    0.01    0.53
   9   2  16   -0.12    0.53
   9  -3 -16    0.82    0.53
   9   3 -16    0.30    0.58
  -9   3  16    0.29    0.55
   8  -3 -16    2.63    0.65
  -8   3  16    2.92    0.63
   8   3 -16    3.07    0.65
   7  -3 -16   12.00    0.92
  -7   3  16   10.51    0.87
   7   3 -16   11.02    0.89
  -6  -3  16    1.38    0.51
   6  -3 -16    1.22    0.54
   6   3 -16    0.90    0.53
  -6   3  16    1.13    0.54
   5  -3 -16    2.87    0.57
  -5  -3  16    2.71    0.49
   5   3 -16    2.92    0.62
  -5   3  16    2.63    0.54
  -4  -3  16    8.51    0.70
  -4   3  16   10.54    0.80
  -3  -3  16    3.11    0.54
  -3   3  16    3.82    0.61
  -2  -3  16    0.70    0.41
  -2   3  16    1.27    0.47
  -1  -3  16   16.77    0.94
  -1   3  16   18.14    1.03
   0  -3  16   16.35    0.86
   0   3  16   15.42    0.97
   1  -3  16    0.11    0.43
   1   3  16   -0.09    0.42
   2  -3  16    0.97    0.48
   2   3  16    1.45    0.53
   3  -3  16   13.16    0.83
   3   3  16   13.93    0.94
   4  -3  16    8.21    0.70
   4   3  16    6.96    0.66
   5  -3  16   -0.40    0.48
   5   3  16    0.88    0.52
   6  -3  16    8.85    0.77
   6   3  16   10.17    0.79
   7  -3  16    3.18    0.60
   7   3  16    2.29    0.56
   8  -3  16    0.67    0.55
   8   3  16    1.18    0.56
   7   4 -16    0.22    0.52
  -7   4  16    0.43    0.49
  -6   4  16    1.00    0.54
   6   4 -16    1.98    0.56
  -5   4  16    3.18    0.56
  -4   4  16    0.21    0.49
  -3   4  16    3.64    0.61
  -2   4  16    6.52    0.65
  -1   4  16    6.06    0.63
   0  -4  16    5.14    0.84
   0   4  16    6.09    0.64
   1  -4  16    2.49    0.60
   1   4  16    1.96    0.56
   2  -4  16    1.51    0.50
   2   4  16    0.77    0.46
   3  -4  16    0.87    0.55
   3   4  16    1.13    0.50
   4  -4  16    5.28    0.78
   4   4  16    5.50    0.67
   5   4  16    7.61    0.73
   6   4  16   -0.46    0.46
  -5   5  16    0.55    0.58
  -4   5  16   -0.12    0.47
  -3   5  16    0.63    0.46
  -2   5  16    0.27    0.49
  -1   5  16   -0.07    0.48
   0   5  16    0.06    0.49
   1   5  16   -0.06    0.44
   2   5  16    1.48    0.53
   3   5  16   -0.06    0.48
   4   5  16    0.02    0.50
  -9   0  17    0.30    0.55
   9   0 -17   -0.20    0.49
  -8   0  17   -0.68    0.51
   8   0 -17    0.44    0.57
  -7   0  17   -0.80    0.44
   7   0 -17   -0.04    0.50
   6   0 -17    0.29    0.49
  -6   0  17   -0.33    0.49
   5   0 -17    0.11    0.50
  -5   0  17   -0.06    0.49
  -4   0  17   -0.07    0.43
  -3   0  17   -0.21    0.42
  -2   0  17   -0.26    0.42
  -1   0  17    0.25    0.45
   0   0  17    0.19    0.50
   1   0  17   -0.24    0.47
   2   0  17    0.51    0.45
   3   0  17   -0.79    0.41
   4   0  17   -0.21    0.44
   5   0  17   -0.51    0.48
   6   0  17   -0.48    0.52
   7   0  17   -0.24    0.53
   8   0  17   -0.02    0.48
   8  -1 -17    1.22    0.61
  -8  -1  17    1.75    0.60
   8   1 -17    1.98    0.57
  -8   1  17    1.86    0.62
  -7  -1  17    0.25    0.52
   7  -1 -17    1.46    0.60
  -7   1  17    0.37    0.54
   7   1 -17    1.38    0.59
  -6  -1  17    0.44    0.50
   6  -1 -17    0.27    0.53
   6   1 -17   -0.24    0.47
  -6   1  17    0.12    0.52
  -5  -1  17   11.86    0.94
   5  -1 -17   12.25    1.00
  -5   1  17   12.35    0.96
   5   1 -17   11.40    0.91
  -4  -1  17    6.29    0.66
  -4   1  17    6.96    0.71
  -3  -1  17    2.23    0.56
  -3   1  17    3.26    0.59
  -2  -1  17    0.82    0.51
  -2   1  17    1.22    0.53
  -1  -1  17    7.45    0.70
  -1   1  17    6.25    0.64
   0  -1  17    6.37    0.64
   0   1  17    7.92    0.73
   1  -1  17    6.43    0.67
   1   1  17    7.38    0.68
   2  -1  17   12.49    0.93
   2   1  17   12.77    0.87
   3  -1  17   -0.12    0.43
   3   1  17   -0.10    0.44
   4  -1  17   -0.19    0.43
   4   1  17    0.20    0.46
   5  -1  17    2.68    0.59
   5   1  17    1.45    0.52
   6  -1  17   23.75    1.18
   6   1  17   20.23    1.07
   7  -1  17    0.89    0.53
   7   1  17    0.51    0.48
   8  -2 -17   -0.22    0.56
  -8  -2  17    0.16    0.47
  -8   2  17   -0.33    0.53
   8   2 -17   -0.34    0.52
   7  -2 -17    6.90    0.75
  -7  -2  17    8.89    0.78
   7   2 -17    6.42    0.79
  -7   2  17    7.07    0.77
  -6  -2  17   11.24    0.83
   6  -2 -17   12.46    0.94
   6   2 -17   12.39    1.03
  -6   2  17   10.90    0.89
  -5  -2  17    0.95    0.53
   5  -2 -17    1.39    0.51
   5   2 -17    0.66    0.50
  -5   2  17    0.95    0.50
  -4  -2  17    1.65    0.53
  -4   2  17    1.73    0.57
  -3  -2  17   16.95    1.01
  -3   2  17   16.08    1.04
  -2  -2  17    4.11    0.62
  -2   2  17    5.56    0.68
  -1  -2  17    1.74    0.53
  -1   2  17    1.52    0.56
   0  -2  17    9.26    0.77
   0   2  17    8.74    0.77
   1  -2  17    5.91    0.66
   1   2  17    4.10    0.60
   2  -2  17   -0.17    0.42
   2   2  17   -0.52    0.43
   3  -2  17    5.53    0.66
   3   2  17    3.82    0.59
   4  -2  17   10.99    0.84
   4   2  17   11.54    0.85
   5  -2  17    0.30    0.52
   5   2  17    0.67    0.52
   6  -2  17    1.09    0.52
   6   2  17    1.27    0.56
   7  -2  17   10.52    0.87
   7   2  17    9.87    0.81
   7  -3 -17    0.27    0.50
  -7   3  17    0.18    0.56
   7   3 -17    0.48    0.53
   6  -3 -17    1.14    0.56
   6   3 -17    1.27    0.58
  -6   3  17    1.03    0.51
  -5   3  17   -0.53    0.44
  -4  -3  17    2.62    0.55
  -4   3  17    2.90    0.61
  -3  -3  17    0.78    0.49
  -3   3  17    0.40    0.50
  -2  -3  17    4.38    0.61
  -2   3  17    4.31    0.63
  -1  -3  17    0.01    0.46
  -1   3  17    0.52    0.51
   0  -3  17    2.22    0.49
   0   3  17    1.80    0.56
   1  -3  17    2.86    0.56
   1   3  17    2.64    0.58
   2  -3  17    0.44    0.48
   2   3  17    1.08    0.53
   3  -3  17    2.35    0.51
   3   3  17    4.29    0.63
   4  -3  17    2.40    0.57
   4   3  17    3.23    0.59
   5  -3  17   -0.82    0.50
   5   3  17   -0.19    0.45
   6  -3  17   -0.40    0.52
   6   3  17    0.00    0.52
  -5   4  17   -0.59    0.50
  -4   4  17    0.85    0.56
  -3   4  17    3.68    0.65
  -2   4  17    4.28    0.66
  -1   4  17    1.26    0.51
   0   4  17    5.04    0.67
   1   4  17    1.71    0.58
   2   4  17    2.09    0.59
   3   4  17    1.51    0.51
   4   4  17    4.26    0.78
   6   0 -18    0.70    0.53
  -6   0  18   -0.24    0.55
  -5   0  18   13.95    1.04
  -4   0  18    3.04    0.63
  -3   0  18    1.27    0.51
  -2   0  18    1.47    0.56
  -1   0  18   12.29    0.99
   0   0  18    9.84    0.82
   1   0  18    1.35    0.51
   2   0  18    0.95    0.56
   3   0  18    6.21    0.68
   4   0  18   12.55    1.03
   5   0  18    8.15    0.75
  -6  -1  18    7.11    0.73
   6  -1 -18    8.62    0.87
   6   1 -18    7.52    0.81
  -6   1  18    9.42    0.84
  -5  -1  18    0.37    0.53
  -5   1  18    0.44    0.50
  -4  -1  18    0.33    0.50
  -4   1  18   -0.14    0.52
  -3  -1  18    3.13    0.60
  -3   1  18    3.38    0.63
  -2  -1  18    1.64    0.51
  -2   1  18    0.57    0.55
  -1  -1  18    0.10    0.50
  -1   1  18    1.08    0.57
   0  -1  18   -0.29    0.45
   0   1  18   -0.19    0.53
   1  -1  18    2.50    0.55
   1   1  18    1.98    0.55
   2  -1  18    0.14    0.51
   2   1  18    0.25    0.54
   3  -1  18    0.85    0.50
   3   1  18    0.35    0.49
   4  -1  18    3.98    0.61
   4   1  18    4.08    0.61
   5  -1  18    1.00    0.57
   5   1  18    1.06    0.58
  -5  -2  18    2.55    0.63
  -5   2  18    1.93    0.55
  -4  -2  18   -0.26    0.52
  -4   2  18   -0.09    0.49
  -3  -2  18    0.41    0.48
  -3   2  18   -0.05    0.51
  -2  -2  18    0.53    0.54
  -2   2  18    1.06    0.56
  -1  -2  18    6.36    0.71
  -1   2  18    6.65    0.75
   0  -2  18    4.05    0.64
   0   2  18    4.08    0.66
   1  -2  18    3.18    0.62
   1   2  18    2.79    0.58
   2  -2  18    0.74    0.53
   2   2  18   -0.31    0.50
   3  -2  18    0.82    0.49
   3   2  18    0.07    0.54
   4  -2  18    1.90    0.53
   4   2  18    1.65    0.59
  -3   3  18    2.32    0.60
  -2   3  18    8.18    0.81
  -1  -3  18    0.40    0.60
  -1   3  18    0.93    0.58
   0  -3  18    1.44    0.51
   0   3  18    1.16    0.53
   1  -3  18   10.08    0.84
   1   3  18    9.62    0.85
   2  -3  18    4.50    0.61
   2   3  18    4.11    0.63
  -2   0  19    0.36    0.55
  -1   0  19   -0.50    0.47
   0   0  19   -0.37    0.51
   1   0  19   -0.50    0.52
  -2  -1  19    3.44    0.69
  -2   1  19    3.31    0.65
  -1  -1  19    6.38    0.71
  -1   1  19    6.07    0.70
   0  -1  19    2.83    0.64
   0   1  19    1.75    0.56
   0   0   0    0.00    0.00
;
_shelx_hkl_checksum              77348
loop_
_space_group_symop_operation_xyz
'x, y, z'
'-x, y+1/2, -z+1/2'
'-x, -y, -z'
'x, -y-1/2, z-1/2'
loop_
_atom_site_label
_atom_site_type_symbol
_atom_site_fract_x
_atom_site_fract_y
_atom_site_fract_z
_atom_site_U_iso_or_equiv
_atom_site_adp_type
_atom_site_occupancy
_atom_site_site_symmetry_order
_atom_site_calc_flag
_atom_site_refinement_flags_posn
_atom_site_refinement_flags_adp
C1 C 0.36837(17) 0.6309(3) 0.39703(17) 0.0428(6) Uani 1 1 d . .
H1 H 0.3648 0.6513 0.3363 0.051 Uiso 1 1 calc R U
C2 C 0.30211(18) 0.5301(3) 0.43332(19) 0.0476(7) Uani 1 1 d . .
H2 H 0.2566 0.4840 0.3972 0.057 Uiso 1 1 calc R U
C3 C 0.30512(17) 0.5007(3) 0.52140(19) 0.0452(7) Uani 1 1 d . .
H3 H 0.2608 0.4354 0.5465 0.054 Uiso 1 1 calc R U
C4 C 0.37530(16) 0.5685(3) 0.57562(17) 0.0370(6) Uani 1 1 d . .
C5 C 0.38427(18) 0.5456(3) 0.66842(18) 0.0458(7) Uani 1 1 d . .
H5 H 0.3418 0.4829 0.6979 0.055 Uiso 1 1 calc R U
C6 C 0.45467(18) 0.6151(3) 0.71435(17) 0.0446(6) Uani 1 1 d . .
H6 H 0.4600 0.5982 0.7753 0.054 Uiso 1 1 calc R U
C7 C 0.52007(17) 0.7119(3) 0.67279(15) 0.0385(6) Uani 1 1 d . .
H7 H 0.5678 0.7580 0.7060 0.046 Uiso 1 1 calc R U
C8 C 0.51292(15) 0.7378(3) 0.58283(15) 0.0318(5) Uani 1 1 d . .
C9 C 0.43967(15) 0.6668(3) 0.53244(15) 0.0320(5) Uani 1 1 d . .
C10 C 0.65227(16) 0.9000(3) 0.55885(15) 0.0329(5) Uani 1 1 d . .
C11 C 0.70345(16) 0.9830(3) 0.48822(14) 0.0323(5) Uani 1 1 d . .
C12 C 0.78257(16) 1.0681(3) 0.49910(15) 0.0322(5) Uani 1 1 d . .
C13 C 0.81469(18) 1.1378(3) 0.41992(16) 0.0404(6) Uani 1 1 d . .
H13 H 0.8680 1.1985 0.4167 0.048 Uiso 1 1 calc R U
C14 C 0.75872(18) 1.1057(3) 0.34991(17) 0.0458(7) Uani 1 1 d . .
H14 H 0.7682 1.1434 0.2927 0.055 Uiso 1 1 calc R U
C15 C 0.88492(16) 0.8783(3) 0.64704(17) 0.0383(6) Uani 1 1 d . .
C16 C 0.87198(19) 0.8430(4) 0.73477(18) 0.0541(7) Uani 1 1 d . .
H16 H 0.8481 0.9211 0.7726 0.065 Uiso 1 1 calc R U
C17 C 0.8953(2) 0.6893(5) 0.7651(2) 0.0740(10) Uani 1 1 d . .
H17 H 0.8879 0.6629 0.8245 0.089 Uiso 1 1 calc R U
C18 C 0.9290(2) 0.5752(5) 0.7091(3) 0.0826(12) Uani 1 1 d . .
H18 H 0.9436 0.4709 0.7304 0.099 Uiso 1 1 calc R U
C19 C 0.9416(2) 0.6120(4) 0.6216(3) 0.0787(11) Uani 1 1 d . .
H19 H 0.9643 0.5326 0.5837 0.094 Uiso 1 1 calc R U
C20 C 0.92063(19) 0.7681(4) 0.5895(2) 0.0554(8) Uani 1 1 d . .
H20 H 0.9306 0.7964 0.5308 0.066 Uiso 1 1 calc R U
N1 N 0.43540(13) 0.6986(2) 0.44349(12) 0.0360(5) Uani 1 1 d . .
N2 N 0.57212(14) 0.8327(3) 0.53321(15) 0.0360(5) Uani 1 1 d . .
O1 O 0.68402(11) 0.8964(2) 0.63426(11) 0.0457(4) Uani 1 1 d . .
O2 O 0.80435(13) 1.1911(2) 0.68325(11) 0.0551(5) Uani 1 1 d . .
O3 O 0.94599(12) 1.1821(2) 0.57206(12) 0.0557(5) Uani 1 1 d . .
S1 S 0.66847(5) 0.98821(9) 0.37811(4) 0.04266(17) Uani 1 1 d . .
Se1 Se 0.85517(2) 1.09482(3) 0.60613(2) 0.03600(9) Uani 1 1 d . .
H1N H 0.5579(16) 0.838(3) 0.4846(16) 0.027(7) Uiso 1 1 d . .
loop_
_atom_site_aniso_label
_atom_site_aniso_U_11
_atom_site_aniso_U_22
_atom_site_aniso_U_33
_atom_site_aniso_U_23
_atom_site_aniso_U_13
_atom_site_aniso_U_12
C1 0.0405(15) 0.0494(15) 0.0383(14) -0.0047(12) -0.0047(12) 0.0021(12)
C2 0.0353(16) 0.0463(15) 0.0606(19) -0.0085(14) -0.0076(13) -0.0006(12)
C3 0.0334(15) 0.0401(15) 0.0622(19) 0.0019(13) 0.0048(13) -0.0016(12)
C4 0.0297(13) 0.0375(14) 0.0442(15) 0.0006(11) 0.0043(11) 0.0059(10)
C5 0.0398(16) 0.0511(16) 0.0473(16) 0.0115(13) 0.0119(13) 0.0031(12)
C6 0.0467(17) 0.0548(16) 0.0327(14) 0.0073(12) 0.0056(12) 0.0078(13)
C7 0.0375(14) 0.0435(14) 0.0343(14) -0.0005(11) -0.0008(11) 0.0040(11)
C8 0.0284(13) 0.0351(12) 0.0321(13) 0.0009(10) 0.0024(10) 0.0037(10)
C9 0.0288(13) 0.0325(12) 0.0348(13) -0.0008(10) 0.0028(10) 0.0072(10)
C10 0.0326(14) 0.0368(13) 0.0294(13) -0.0020(10) 0.0011(10) 0.0050(11)
C11 0.0359(14) 0.0348(12) 0.0261(12) -0.0019(10) -0.0003(10) 0.0060(11)
C12 0.0327(13) 0.0353(13) 0.0287(12) -0.0010(10) 0.0031(10) 0.0043(10)
C13 0.0450(16) 0.0426(14) 0.0340(14) 0.0045(11) 0.0082(12) 0.0013(11)
C14 0.0561(18) 0.0520(16) 0.0299(14) 0.0084(12) 0.0092(12) 0.0070(13)
C15 0.0281(13) 0.0444(14) 0.0421(15) 0.0066(12) -0.0050(11) -0.0036(11)
C16 0.0512(18) 0.0647(19) 0.0459(17) 0.0097(14) -0.0083(13) -0.0163(14)
C17 0.065(2) 0.082(3) 0.073(2) 0.039(2) -0.0248(18) -0.022(2)
C18 0.046(2) 0.066(2) 0.135(4) 0.042(2) -0.023(2) -0.0035(17)
C19 0.050(2) 0.056(2) 0.131(4) -0.002(2) 0.013(2) 0.0121(16)
C20 0.0423(17) 0.0538(17) 0.071(2) 0.0042(15) 0.0119(14) 0.0055(13)
N1 0.0339(12) 0.0419(12) 0.0320(11) -0.0004(9) -0.0006(9) 0.0049(9)
N2 0.0361(13) 0.0465(12) 0.0252(12) 0.0037(10) -0.0034(9) -0.0041(10)
O1 0.0379(10) 0.0712(12) 0.0279(9) 0.0039(8) -0.0020(8) -0.0077(9)
O2 0.0675(13) 0.0574(12) 0.0403(11) -0.0178(9) 0.0024(9) 0.0084(10)
O3 0.0495(12) 0.0633(13) 0.0542(12) 0.0065(10) 0.0008(9) -0.0215(10)
S1 0.0442(4) 0.0554(4) 0.0281(3) 0.0002(3) -0.0037(3) 0.0042(3)
Se1 0.03824(16) 0.03892(14) 0.03080(14) -0.00261(11) 0.00026(10) -0.00369(11)
loop_
_atom_type_symbol
_atom_type_description
_atom_type_scat_dispersion_real
_atom_type_scat_dispersion_imag
_atom_type_scat_source
C C 0.0033 0.0016 'International Tables Vol C Tables 4.2.6.8 and 6.1.1.4'
H H 0.0000 0.0000 'International Tables Vol C Tables 4.2.6.8 and 6.1.1.4'
N N 0.0061 0.0033 'International Tables Vol C Tables 4.2.6.8 and 6.1.1.4'
O O 0.0106 0.0060 'International Tables Vol C Tables 4.2.6.8 and 6.1.1.4'
S S 0.1246 0.1234 'International Tables Vol C Tables 4.2.6.8 and 6.1.1.4'
Se Se -0.0929 2.2259 'International Tables Vol C Tables 4.2.6.8 and 6.1.1.4'
loop_
_geom_angle_atom_site_label_1
_geom_angle_atom_site_label_2
_geom_angle_atom_site_label_3
_geom_angle
N1 C1 C2 124.0(2)
N1 C1 H1 118.0
C2 C1 H1 118.0
C3 C2 C1 119.1(3)
C3 C2 H2 120.4
C1 C2 H2 120.4
C2 C3 C4 120.2(2)
C2 C3 H3 119.9
C4 C3 H3 119.9
C3 C4 C5 124.5(2)
C3 C4 C9 116.4(2)
C5 C4 C9 119.1(2)
C6 C5 C4 119.9(2)
C6 C5 H5 120.0
C4 C5 H5 120.0
C5 C6 C7 122.1(2)
C5 C6 H6 119.0
C7 C6 H6 119.0
C8 C7 C6 119.5(2)
C8 C7 H7 120.2
C6 C7 H7 120.2
C7 C8 N2 125.6(2)
C7 C8 C9 119.9(2)
N2 C8 C9 114.4(2)
N1 C9 C4 123.2(2)
N1 C9 C8 117.3(2)
C4 C9 C8 119.5(2)
O1 C10 N2 124.6(2)
O1 C10 C11 119.4(2)
N2 C10 C11 116.0(2)
C12 C11 C10 126.6(2)
C12 C11 S1 109.48(17)
C10 C11 S1 123.91(18)
C11 C12 C13 114.1(2)
C11 C12 Se1 127.72(17)
C13 C12 Se1 118.09(18)
C14 C13 C12 111.8(2)
C14 C13 H13 124.1
C12 C13 H13 124.1
C13 C14 S1 112.23(19)
C13 C14 H14 123.9
S1 C14 H14 123.9
C20 C15 C16 122.8(3)
C20 C15 Se1 119.3(2)
C16 C15 Se1 117.8(2)
C17 C16 C15 118.1(3)
C17 C16 H16 120.9
C15 C16 H16 120.9
C18 C17 C16 120.5(3)
C18 C17 H17 119.7
C16 C17 H17 119.7
C17 C18 C19 120.8(3)
C17 C18 H18 119.6
C19 C18 H18 119.6
C18 C19 C20 119.9(3)
C18 C19 H19 120.0
C20 C19 H19 120.0
C15 C20 C19 117.7(3)
C15 C20 H20 121.1
C19 C20 H20 121.1
C1 N1 C9 117.1(2)
C10 N2 C8 128.8(2)
C10 N2 H1N 117.8(18)
C8 N2 H1N 113.1(18)
C14 S1 C11 92.36(12)
O2 Se1 O3 115.19(10)
O2 Se1 C15 108.85(10)
O3 Se1 C15 108.87(10)
O2 Se1 C12 113.76(10)
O3 Se1 C12 103.23(10)
C15 Se1 C12 106.45(10)
loop_
_geom_bond_atom_site_label_1
_geom_bond_atom_site_label_2
_geom_bond_distance
C1 N1 1.314(3)
C1 C2 1.398(4)
C1 H1 0.9300
C2 C3 1.348(4)
C2 H2 0.9300
C3 C4 1.411(4)
C3 H3 0.9300
C4 C5 1.413(4)
C4 C9 1.413(3)
C5 C6 1.353(4)
C5 H5 0.9300
C6 C7 1.406(3)
C6 H6 0.9300
C7 C8 1.373(3)
C7 H7 0.9300
C8 N2 1.398(3)
C8 C9 1.423(3)
C9 N1 1.365(3)
C10 O1 1.216(3)
C10 N2 1.347(3)
C10 C11 1.485(3)
C11 C12 1.361(3)
C11 S1 1.723(2)
C12 C13 1.415(3)
C12 Se1 1.920(2)
C13 C14 1.345(4)
C13 H13 0.9300
C14 S1 1.701(3)
C14 H14 0.9300
C15 C20 1.364(4)
C15 C16 1.372(4)
C15 Se1 1.911(2)
C16 C17 1.370(4)
C16 H16 0.9300
C17 C18 1.357(5)
C17 H17 0.9300
C18 C19 1.371(5)
C18 H18 0.9300
C19 C20 1.389(4)
C19 H19 0.9300
C20 H20 0.9300
N2 H1N 0.76(2)
O2 Se1 1.6051(17)
O3 Se1 1.6120(17)
loop_
_geom_torsion_atom_site_label_1
_geom_torsion_atom_site_label_2
_geom_torsion_atom_site_label_3
_geom_torsion_atom_site_label_4
_geom_torsion
N1 C1 C2 C3 0.9(4)
C1 C2 C3 C4 -1.1(4)
C2 C3 C4 C5 179.7(2)
C2 C3 C4 C9 0.3(4)
C3 C4 C5 C6 179.4(2)
C9 C4 C5 C6 -1.1(4)
C4 C5 C6 C7 0.5(4)
C5 C6 C7 C8 0.1(4)
C6 C7 C8 N2 179.1(2)
C6 C7 C8 C9 0.0(3)
C3 C4 C9 N1 0.9(3)
C5 C4 C9 N1 -178.6(2)
C3 C4 C9 C8 -179.3(2)
C5 C4 C9 C8 1.2(3)
C7 C8 C9 N1 179.2(2)
N2 C8 C9 N1 -0.1(3)
C7 C8 C9 C4 -0.6(3)
N2 C8 C9 C4 -179.9(2)
O1 C10 C11 C12 -4.6(4)
N2 C10 C11 C12 175.6(2)
O1 C10 C11 S1 176.85(18)
N2 C10 C11 S1 -3.0(3)
C10 C11 C12 C13 -178.4(2)
S1 C11 C12 C13 0.3(3)
C10 C11 C12 Se1 4.3(3)
S1 C11 C12 Se1 -176.94(13)
C11 C12 C13 C14 0.6(3)
Se1 C12 C13 C14 178.16(17)
C12 C13 C14 S1 -1.3(3)
C20 C15 C16 C17 -0.7(4)
Se1 C15 C16 C17 -178.4(2)
C15 C16 C17 C18 -0.9(5)
C16 C17 C18 C19 0.9(5)
C17 C18 C19 C20 0.6(5)
C16 C15 C20 C19 2.2(4)
Se1 C15 C20 C19 179.9(2)
C18 C19 C20 C15 -2.1(5)
C2 C1 N1 C9 0.2(4)
C4 C9 N1 C1 -1.1(3)
C8 C9 N1 C1 179.1(2)
O1 C10 N2 C8 -4.9(4)
C11 C10 N2 C8 175.0(2)
C7 C8 N2 C10 9.0(4)
C9 C8 N2 C10 -171.8(2)
C13 C14 S1 C11 1.3(2)
C12 C11 S1 C14 -0.88(18)
C10 C11 S1 C14 177.9(2)
