#------------------------------------------------------------------------------
#$Date: 2016-07-16 04:10:51 +0300 (Sat, 16 Jul 2016) $
#$Revision: 184490 $
#$URL: file:///home/coder/svn-repositories/cod/cif/1/54/36/1543673.cif $
#------------------------------------------------------------------------------
#
# This file is available in the Crystallography Open Database (COD),
# http://www.crystallography.net/. The original data for this entry
# were provided by IUCr Journals, http://journals.iucr.org/.
#
# The file may be used within the scientific community so long as
# proper attribution is given to the journal article from which the
# data were obtained.
#
data_1543673
loop_
_publ_author_name
'Saravanan, K.'
'Divakar, S.'
'Elancheran, R.'
'Kabilan, S.'
'Selvanayagam, S.'
_publ_section_title
;
 4-[2-(1,3-Dioxoisoindolin-2-yl)-1,3-thiazol-4-yl]benzonitrile
;
_journal_coeditor_code           ZP4007
_journal_issue                   7
_journal_name_full               IUCrData
_journal_page_first              x161117
_journal_paper_doi               10.1107/S2414314616011172
_journal_volume                  1
_journal_year                    2016
_chemical_formula_moiety         'C18 H9 N3 O2 S'
_chemical_formula_sum            'C18 H9 N3 O2 S'
_chemical_formula_weight         331.34
_chemical_name_systematic
;
4-[2-(1,3-Dioxoisoindolin-2-yl)-1,3-thiazol-4-yl]benzonitrile
;
_space_group_crystal_system      triclinic
_space_group_IT_number           2
_space_group_name_Hall           '-P 1'
_space_group_name_H-M_alt        'P -1'
_symmetry_space_group_name_Hall  '-P 1'
_symmetry_space_group_name_H-M   'P -1'
_atom_sites_solution_hydrogens   geom
_audit_creation_method           SHELXL-2014/7
_cell_angle_alpha                69.51(2)
_cell_angle_beta                 79.50(2)
_cell_angle_gamma                82.93(3)
_cell_formula_units_Z            4
_cell_length_a                   7.915(7)
_cell_length_b                   12.1641(10)
_cell_length_c                   17.255(14)
_cell_measurement_reflns_used    5982
_cell_measurement_temperature    296(2)
_cell_measurement_theta_max      26.7
_cell_measurement_theta_min      3.3
_cell_volume                     1527.0(18)
_computing_cell_refinement
;
SAINT (Bruker, 2002)
;
_computing_data_collection
;
SMART (Bruker, 2002)
;
_computing_data_reduction
;
SAINT (Bruker, 2002)
;
_computing_molecular_graphics
;
ORTEP-3 for Windows (Farrugia, 2012) and PLATON (Spek, 2009)
;
_computing_publication_material
;
SHELXL2014 (Sheldrick, 2015) and PLATON (Spek, 2009)
;
_computing_structure_refinement
;
SHELXL2014 (Sheldrick, 2015)
;
_computing_structure_solution
;
SHELXS97 (Sheldrick, 2008)
;
_diffrn_ambient_temperature      296(2)
_diffrn_measured_fraction_theta_full 0.988
_diffrn_measured_fraction_theta_max 0.974
_diffrn_measurement_device_type  'Bruker SMART APEX CCD area-detector'
_diffrn_measurement_method       '\w scans'
_diffrn_radiation_source         'fine-focus sealed tube'
_diffrn_radiation_type           MoK\a
_diffrn_radiation_wavelength     0.71073
_diffrn_reflns_av_R_equivalents  0.0784
_diffrn_reflns_limit_h_max       10
_diffrn_reflns_limit_h_min       -10
_diffrn_reflns_limit_k_max       15
_diffrn_reflns_limit_k_min       -14
_diffrn_reflns_limit_l_max       22
_diffrn_reflns_limit_l_min       -10
_diffrn_reflns_number            9065
_diffrn_reflns_theta_full        25.242
_diffrn_reflns_theta_max         27.591
_diffrn_reflns_theta_min         3.080
_exptl_absorpt_coefficient_mu    0.227
_exptl_absorpt_correction_type   none
_exptl_crystal_colour            Yellow
_exptl_crystal_density_diffrn    1.441
_exptl_crystal_density_method    'not measured'
_exptl_crystal_description       Block
_exptl_crystal_F_000             680
_exptl_crystal_size_max          0.22
_exptl_crystal_size_mid          0.20
_exptl_crystal_size_min          0.18
_refine_diff_density_max         0.232
_refine_diff_density_min         -0.359
_refine_ls_extinction_method     none
_refine_ls_goodness_of_fit_ref   1.024
_refine_ls_hydrogen_treatment    constr
_refine_ls_matrix_type           full
_refine_ls_number_parameters     433
_refine_ls_number_reflns         6901
_refine_ls_number_restraints     0
_refine_ls_restrained_S_all      1.024
_refine_ls_R_factor_all          0.0944
_refine_ls_R_factor_gt           0.0584
_refine_ls_shift/su_max          0.000
_refine_ls_shift/su_mean         0.000
_refine_ls_structure_factor_coef Fsqd
_refine_ls_weighting_details
'w=1/[\s^2^(Fo^2^)+(0.0829P)^2^+0.1516P] where P=(Fo^2^+2Fc^2^)/3'
_refine_ls_weighting_scheme      calc
_refine_ls_wR_factor_gt          0.1545
_refine_ls_wR_factor_ref         0.1827
_reflns_number_gt                4330
_reflns_number_total             6901
_reflns_threshold_expression     'I > 2\s(I)'
_cod_data_source_file            zp4007sup1.cif
_cod_data_source_block           I
_cod_original_cell_volume        1527.0(19)
_cod_database_code               1543673
_shelx_space_group_comment
;
The symmetry employed for this shelxl refinement is uniquely defined
by the following loop, which should always be used as a source of
symmetry information in preference to the above space-group names.
They are only intended as comments.
;
_shelx_hkl_file
;
   0   0   3 2594.63  105.89   1 0.84175-0.86188-0.53979 0.49387 0.00830 0.11504
   0   0   437793.75  367.47   1 0.83585-0.86269-0.54822 0.48701 0.02814 0.13631
   0   0   641661.17  477.84   1 0.82270-0.86272-0.56449 0.47267 0.06701 0.17964
   0   0   744271.08  525.50   1 0.81552-0.86221-0.57214 0.46502 0.08694 0.20082
   0   0   821685.29  430.95   1 0.80790-0.86126-0.57953 0.45711 0.10690 0.22197
   0   0   934577.75  658.89   1 0.79983-0.85986-0.58665 0.44892 0.12689 0.24310
   0   0  10 1882.87  168.54   1 0.79131-0.85801-0.59350 0.44047 0.14690 0.26419
   0   0  11  967.39  155.67   1 0.78232-0.85569-0.60007 0.43174 0.16694 0.28526
   0   0  12  202.74  111.54   1 0.77287-0.85291-0.60636 0.42273 0.18701 0.30631
   0   0  1310375.34  401.29   1 0.76295-0.84966-0.61237 0.41343 0.20711 0.32732
   0   0  14 3943.31  411.94   1 0.75273-0.84608-0.61789 0.40361 0.22712 0.34818
   0   0  15  114.59  212.79   1 0.74184-0.84186-0.62331 0.39372 0.24728 0.36912
   0   0  16  654.40  205.10   1 0.73043-0.83712-0.62842 0.38352 0.26746 0.39003
   0   0  17 1018.78  248.58   1 0.71851-0.83187-0.63322 0.37302 0.28768 0.41090
   0   0  18  528.94  246.13   1 0.70605-0.82607-0.63770 0.36219 0.30792 0.43175
   0   0  19  621.41  203.19   1 0.69304-0.81973-0.64185 0.35103 0.32821 0.45256
   0   0  20 1104.53  260.01   1 0.67945-0.81281-0.64565 0.33953 0.34852 0.47334
   0  -1  20   94.38  161.40   1 0.69469-0.82414-0.64135 0.27307 0.32567 0.49619
   0  -1  19  142.48  191.51   1 0.70886-0.83164-0.63674 0.28377 0.30344 0.47733
   0  -1  18   29.62  135.04   1 0.72247-0.83858-0.63169 0.29403 0.28106 0.45861
   0  -1  17  450.66  189.89   1 0.73555-0.84499-0.62620 0.30384 0.25852 0.44006
   0  -1  16  102.59  138.27   1 0.74813-0.85090-0.62025 0.31320 0.23576 0.42173
   0  -1  1510255.81  485.83   1 0.76005-0.85616-0.61402 0.32232 0.21281 0.40384
   0  -1  14 9701.04  708.57   1 0.77169-0.86114-0.60711 0.33071 0.18945 0.38609
   0  -1  13  764.42  212.92   1 0.78290-0.86567-0.59967 0.33857 0.16569 0.36874
   0  -1  12 5626.54  398.83   1 0.79369-0.86979-0.59165 0.34585 0.14141 0.35190
   0  -1  11 5034.80  388.09   1 0.80408-0.87352-0.58298 0.35249 0.11649 0.33572
   0  -1  10  205.89   76.07   1 0.81411-0.87688-0.57356 0.35837 0.09072 0.32037
   0  -1   9 4013.73  216.49   1 0.82381-0.87990-0.56325 0.36336 0.06384 0.30614
   0  -1   8 7787.43  310.89   1 0.83327-0.88299-0.55166 0.36707 0.03640 0.29251
   0  -1   6116146.5  858.41   1 0.85136-0.88767-0.52384 0.36987-0.02759 0.27428
   0  -1   541858.53  466.04   1 0.86006-0.88966-0.50593 0.36726-0.06575 0.27133
   0  -1   429005.10  351.99   1 0.86886-0.89116-0.48171 0.35827-0.11410 0.27831
   0  -1   3 2055.09  111.92   1 0.87607-0.89180-0.45001 0.34187-0.17316 0.29631
   0  -1   265216.75  408.37   1 0.87970-0.88884-0.39885 0.30597-0.25892 0.34108
   0   1   310587.38  569.56   1 0.71845-0.74236-0.63325 0.64948 0.28778-0.16450
   0   1   429501.25  303.77   1 0.75204-0.78262-0.61826 0.61918 0.22844-0.06407
   0   1   578927.96  571.38   1 0.76513-0.80242-0.61110 0.59675 0.20277 0.00277
   0   1   6  220.44   51.17   1 0.76992-0.81387-0.60822 0.57856 0.19310 0.05356
   0   1   710211.44  320.05   1 0.77027-0.82090-0.60799 0.56303 0.19236 0.09540
   0   1   8 4772.11  332.44   1 0.76796-0.82526-0.60941 0.54915 0.19707 0.13180
   0   1   9 6066.71  255.61   1 0.76385-0.82781-0.61185 0.53629 0.20533 0.16465
   0   1  1010256.82  333.93   1 0.75839-0.82902-0.61495 0.52408 0.21604 0.19506
   0   1  1128128.24 1070.01   1 0.75208-0.82934-0.61824 0.51202 0.22836 0.22366
   0   1  12 2540.39  266.45   1 0.74466-0.82859-0.62196 0.50044 0.24214 0.25097
   0   1  13   23.25  135.48   1 0.73645-0.82705-0.62579 0.48896 0.25691 0.27729
   0   1  1448416.45  976.78   1 0.72752-0.82478-0.62964 0.47751 0.27248 0.30282
   0   1  15 4263.71  414.15   1 0.71791-0.82184-0.63345 0.46601 0.28867 0.32772
   0   1  16 4731.44  388.15   1 0.70764-0.81824-0.63716 0.45441 0.30538 0.35210
   0   1  17  235.86  173.28   1 0.69674-0.81401-0.64072 0.44267 0.32252 0.37606
   0   1  18  482.10  306.42   1 0.68521-0.80914-0.64410 0.43074 0.34001 0.39966
   0   1  19  177.03  231.10   1 0.67305-0.80365-0.64727 0.41861 0.35781 0.42296
   0   1  20  506.78  265.48   1 0.66027-0.79767-0.65016 0.40611 0.37591 0.44585
   0   1  21  -29.39  151.24   1 0.64684-0.79091-0.65282 0.39346 0.39421 0.46864
   0  -2  19  577.09  256.21   1 0.72107-0.83993-0.63224 0.21712 0.28342 0.49735
   0  -2  18  198.37  155.08   1 0.73509-0.84729-0.62640 0.22658 0.25932 0.48035
   0  -2  17 1100.39  206.67   1 0.74859-0.85412-0.62002 0.23551 0.23490 0.46368
   0  -2  16  221.13  148.92   1 0.76141-0.86026-0.61325 0.24408 0.21014 0.44762
   0  -2  15 4312.93  542.67   1 0.77391-0.86609-0.60570 0.25184 0.18485 0.43180
   0  -2  14 7702.42  415.38   1 0.78594-0.87145-0.59750 0.25893 0.15899 0.41655
   0  -2  13 3073.59  316.14   1 0.79751-0.87635-0.58857 0.26532 0.13243 0.40200
   0  -2  1216934.81  545.45   1 0.80864-0.88081-0.57884 0.27089 0.10501 0.38831
   0  -2  11 6527.01  434.20   1 0.81934-0.88483-0.56817 0.27552 0.07651 0.37569
   0  -2  10   61.89   92.48   1 0.82965-0.88884-0.55624 0.27890 0.04761 0.36354
   0  -2   9 1651.81  168.29   1 0.83951-0.89200-0.54310 0.28105 0.01601 0.35403
   0  -2   825635.51  552.35   1 0.84890-0.89468-0.52823 0.28149-0.01790 0.34683
   0  -2   7101696.1  888.32   1 0.85775-0.89682-0.51110 0.27967-0.05494 0.34275
   0  -2   628456.03  455.38   1 0.86640-0.89786-0.48944 0.27317-0.09896 0.34527
   0  -2   5 1347.28  121.59   1 0.87330-0.89819-0.46463 0.26367-0.14648 0.35174
   0  -2   465320.00  568.15   1 0.87823-0.89656-0.43286 0.24719-0.20330 0.36751
   0  -2   3  162.04   48.35   1 0.87936-0.89107-0.38907 0.21866-0.27446 0.39771
   0   2  -3   69.38   28.30   1 0.55792-0.54515 0.54120-0.37112 0.62914-0.75171
   0  -2   2 2503.64  119.19   1 0.87041-0.87554-0.32441 0.16933-0.37032 0.45249
   0   2  -2 1726.63  101.31   1 0.58421-0.57880 0.43966-0.28523 0.68218-0.76395
   0  -2   161131.43  393.42   1 0.83436-0.83309-0.21713 0.07758-0.50664 0.54766
   0   2  -141461.76  348.69   1 0.60764-0.60890 0.29736-0.15803 0.73643-0.77733
   0   2   033593.35  318.99   1 0.60921-0.61734 0.10224 0.02207-0.78638 0.78638
   0  -2   035231.35  303.92   1 0.71267-0.70455-0.01585-0.10846-0.70131 0.70131
   0  -2   034366.24  247.50   1-0.59748 0.60560-0.10143-0.02274 0.79544-0.79544
   0   2   026022.76  252.75   1 0.61638-0.62441 0.10219 0.02190 0.78078-0.78078
   0  -2  -130713.38  212.12   1-0.18147 0.19605-0.42259 0.31364 0.88796-0.92908
   0   2   131334.98  215.69   1-0.34412 0.32950-0.31673 0.42567 0.88388-0.84275
   0  -2  -223569.63  194.04   1 0.31949-0.29858-0.63320 0.53959 0.70496-0.78720
   0   2   223714.58  196.89   1 0.15229-0.17356-0.58081 0.67460 0.79966-0.71748
   0   2   222193.46  211.88   1 0.50889-0.53028-0.44441 0.53813 0.73723-0.65513
   0   2   3 8074.00  211.71   1 0.44844-0.47617-0.65639 0.73460 0.60667-0.48333
   0   2   3 7247.47  193.83   1 0.38112-0.40921-0.68958 0.76806 0.61580-0.49257
   0   2   4 3253.87  129.38   1 0.58249-0.61701-0.66055 0.72360 0.47367-0.30932
   0   2   4 2913.62  160.74   1 0.25386-0.28869-0.84283 0.90577 0.47453-0.31020
   0   2   569755.88  515.67   1 0.64710-0.68829-0.65277 0.70052 0.39387-0.18842
   0   2   564189.01  462.73   1 0.15463-0.19605-0.92055 0.96854 0.35870-0.15323
   0   2   6  151.21   53.15   1 0.68046-0.72829-0.64539 0.67785 0.34704-0.10048
   0   2   7 1963.98  123.36   1 0.69836-0.75286-0.64021 0.65737 0.32000-0.03235
   0   2   8157643.8  990.05   1 0.70768-0.76884-0.63714 0.63900 0.30533 0.02341
   0   2   9  128.75  111.33   1 0.71173-0.77956-0.63572 0.62227 0.29880 0.07103
   0   2  1028385.95  581.14   1 0.71229-0.78679-0.63552 0.60676 0.29789 0.11304
   0   2  11 7909.51  395.46   1 0.71038-0.79155-0.63620 0.59214 0.30099 0.15103
   0   2  1216792.21 1007.56   1 0.70659-0.79443-0.63752 0.57815 0.30706 0.18605
   0   2  13 8145.14  511.44   1 0.70132-0.79583-0.63927 0.56459 0.31539 0.21882
   0   2  14  320.21  207.70   1 0.69482-0.79600-0.64131 0.55133 0.32547 0.24983
   0   2  1514523.32  884.91   1 0.68726-0.79510-0.64353 0.53824 0.33694 0.27945
   0   2  16 -146.21  151.44   1 0.67876-0.79327-0.64583 0.52524 0.34953 0.30795
   0   2  17  215.04  168.74   1 0.66941-0.79069-0.64811 0.51214 0.36308 0.33541
   0   2  18 1125.69  239.03   1 0.65923-0.78719-0.65038 0.49910 0.37736 0.36223
   0   2  19 6308.44  441.38   1 0.64829-0.78292-0.65255 0.48597 0.39227 0.38840
   0   2  20  582.15  193.32   1 0.63660-0.77790-0.65459 0.47269 0.40773 0.41403
   0   2  21  136.11  169.63   1 0.62417-0.77215-0.65643 0.45923 0.42367 0.43918
   0  -3  19 -140.45  146.95   1 0.73013-0.84508-0.62855 0.15128 0.26800 0.51277
   0  -3  18  315.41  221.20   1 0.74446-0.85275-0.62206 0.16009 0.24251 0.49717
   0  -3  17 1103.96  217.86   1 0.75809-0.85967-0.61511 0.16848 0.21662 0.48225
   0  -3  16   23.78  128.71   1 0.77134-0.86625-0.60733 0.17601 0.19019 0.46757
   0  -3  15  964.11  215.27   1 0.78406-0.87230-0.59885 0.18283 0.16315 0.45350
   0  -3  14 1428.73  273.50   1 0.79626-0.87783-0.58960 0.18887 0.13540 0.44014
   0  -3  13  228.50  141.35   1 0.80795-0.88285-0.57948 0.19406 0.10677 0.42766
   0  -3  12 1664.00  241.80   1 0.81913-0.88736-0.56839 0.19827 0.07707 0.41624
   0  -3  1117048.91  534.16   1 0.82984-0.89179-0.55601 0.20121 0.04704 0.40522
   0  -3  10 3171.25  288.77   1 0.83997-0.89522-0.54242 0.20293 0.01443 0.39672
   0  -3   922469.46 1308.68   1 0.84950-0.89804-0.52719 0.20300-0.02022 0.39026
   0  -3   823598.19  912.27   1 0.85831-0.90014-0.50988 0.20100-0.05751 0.38644
   0  -3   739243.04  720.59   1 0.86671-0.90077-0.48850 0.19470-0.10082 0.38819
   0  -3   6 -110.64  108.09   1 0.87324-0.90073-0.46488 0.18638-0.14602 0.39233
   0  -3   514757.75  344.02   1 0.87789-0.89882-0.43624 0.17305-0.19744 0.40270
   0  -3   4 2324.97  134.10   1 0.87972-0.89399-0.39992 0.15197-0.25719 0.42151
   0  -3   3 1110.82   91.05   1 0.87570-0.88340-0.35275 0.12014-0.32971 0.45295
   0   3  -3  784.30   93.66   1 0.57609-0.56738 0.47728-0.24511 0.66355-0.78612
   0  -3   267104.07  522.61   1 0.86111-0.86255-0.28811 0.07114-0.41888 0.50093
   0   3  -245870.60  464.72   1 0.59476-0.59346 0.38636-0.16987 0.70496-0.78673
   0  -3   1 4815.00  167.84   1 0.82332-0.81780-0.19128-0.01038-0.53436 0.57540
   0   3  -1 3210.01  149.17   1 0.61019-0.61549 0.27208-0.07068 0.74406-0.78496
   0  -3   050788.25  428.86   1 0.73522-0.72303-0.04559-0.14088-0.67628 0.67628
   0   3   037505.98  373.36   1 0.61665-0.62869 0.13336 0.05277 0.77585-0.77585
   0  -3  -1 8599.53  238.49   1 0.54322-0.52450 0.16522-0.33661-0.82317 0.78204
   0   3   1 8840.66  229.67   1-0.53134 0.51277-0.16599 0.33700 0.83073-0.78961
   0   3   1 7548.51  230.61   1 0.60832-0.62710-0.03174 0.20271 0.79305-0.75209
   0   3   2 2832.12  105.47   1-0.21453 0.18929-0.40280 0.55858 0.88979-0.80756
   0   3   2 2666.26  119.72   1 0.57713-0.60248-0.21898 0.37478 0.78673-0.70466
   0   3   3  103.07   31.12   1 0.10849-0.14038-0.56443 0.70512 0.81831-0.69504
   0   3   3  119.66   37.12   1 0.52225-0.55434-0.40861 0.54919 0.74851-0.62537
   0   3   4 8264.84  233.68   1 0.33357-0.37158-0.63638 0.76152 0.69552-0.53104
   0   3   4 7511.91  220.28   1 0.44786-0.48653-0.57825 0.70370 0.68193-0.51776
   0   3   521896.07  277.80   1 0.46718-0.51212-0.65827 0.76793 0.59026-0.38470
   0   3   519956.44  301.52   1 0.36597-0.41146-0.71151 0.82164 0.59983-0.39445
   0   3   647623.85  457.70   1 0.54580-0.59741-0.66167 0.75603 0.51409-0.26742
   0   3   643101.64  424.17   1 0.29132-0.34357-0.80493 0.89935 0.51691-0.27041
   0   3   7110623.0  742.61   1 0.59187-0.65032-0.65988 0.73916 0.46285-0.17523
   0   3   798186.56  697.63   1 0.22888-0.28777-0.86537 0.94453 0.44580-0.15822
   0   3   811105.04  304.69   1 0.62083-0.68595-0.65688 0.72085 0.42786-0.09916
   0   3   8 9863.14  224.31   1 0.18101-0.24648-0.90281 0.96720 0.39006-0.06131
   0   3   9 4618.05  315.18   1 0.63858-0.71038-0.65426 0.70292 0.40515-0.03535
   0   3   9 4463.90  359.60   1 0.14460-0.21675-0.92676 0.97595 0.34668 0.02315
   0   3  10 1617.18  148.34   1 0.64908-0.72756-0.65241 0.68575 0.39121 0.01967
   0   3  11 4652.24  232.32   1 0.65463-0.73978-0.65133 0.66937 0.38369 0.06828
   0   3  12 6904.16  468.78   1 0.65661-0.74844-0.65093 0.65366 0.38097 0.11208
   0   3  1350748.76 4762.36   1 0.65592-0.75442-0.65107 0.63849 0.38192 0.15222
   0   3  1427817.71  663.94   1 0.65313-0.75831-0.65163 0.62374 0.38573 0.18950
   0   3  1521003.59 1172.67   1 0.64864-0.76049-0.65249 0.60929 0.39180 0.22452
   0   3  16 1436.13  270.43   1 0.64272-0.76124-0.65356 0.59505 0.39970 0.25771
   0   3  17  393.57  175.15   1 0.63556-0.76075-0.65475 0.58093 0.40908 0.28941
   0   3  18 1254.05  219.17   1 0.62729-0.75916-0.65600 0.56687 0.41971 0.31988
   0   3  19  344.59  235.78   1 0.61802-0.75656-0.65724 0.55280 0.43137 0.34931
   0   3  20 2643.07  314.14   1 0.60780-0.75302-0.65842 0.53867 0.44390 0.37786
   0   3  21 2170.89  406.98   1 0.59670-0.74859-0.65948 0.52442 0.45718 0.40567
   0  -4  18   39.10  153.42   1 0.75099-0.85537-0.61880 0.09468 0.23040 0.50927
   0  -4  17  110.09  156.85   1 0.76486-0.86250-0.61126 0.10247 0.20331 0.49555
   0  -4  16 1140.74  205.75   1 0.77828-0.86925-0.60284 0.10935 0.17565 0.48211
   0  -4  15 1824.49  287.86   1 0.79113-0.87543-0.59364 0.11545 0.14731 0.46934
   0  -4  14 3724.87  347.76   1 0.80340-0.88104-0.58358 0.12069 0.11817 0.45737
   0  -4  13 1170.82  238.39   1 0.81511-0.88607-0.57256 0.12499 0.08806 0.44636
   0  -4  12  124.49  174.00   1 0.82625-0.89097-0.56032 0.12807 0.05776 0.43562
   0  -4  11 1679.27  272.56   1 0.83678-0.89478-0.54696 0.13001 0.02512 0.42714
   0  -4  10   38.39  111.04   1 0.84662-0.89791-0.53211 0.13047-0.00922 0.42038
   0  -4   9 2597.46  228.03   1 0.85568-0.90027-0.51547 0.12913-0.04569 0.41573
   0  -4   8 4812.11  383.56   1 0.86381-0.90169-0.49661 0.12558-0.08481 0.41373
   0  -4   7 1452.87  188.87   1 0.87114-0.90123-0.47357 0.11754-0.12970 0.41707
   0  -4   6  987.80  140.12   1 0.87635-0.89987-0.44821 0.10748-0.17637 0.42268
   0  -4   5 3215.19  196.19   1 0.87923-0.89619-0.41792 0.09249-0.22865 0.43391
   0  -4   410293.91  302.79   1 0.87883-0.88910-0.38043 0.07028-0.28795 0.45228
   0  -4   3 5589.06  355.84   1 0.87233-0.87603-0.33355 0.03873-0.35745 0.48069
   0   4  -3 3719.63  268.44   1 0.58239-0.57838 0.44783-0.15413 0.67842-0.80107
   0  -4   2 9003.16  291.28   1 0.85621-0.85366-0.27278-0.00632-0.43873 0.52077
   0   4  -2 5837.37  232.65   1 0.59811-0.60091 0.36650-0.08796 0.71269-0.79445
   0  -4   1  935.60   87.01   1 0.82220-0.81265-0.18901-0.07478-0.53689 0.57792
   0   4  -1  542.04   74.75   1 0.61018-0.61952 0.27220-0.00872 0.74402-0.78493
   0  -4   055506.31  516.14   1 0.75640-0.74016-0.07542-0.17321-0.64973 0.64973
   0   4   039161.50  444.92   1 0.61618-0.63233 0.16475 0.08353 0.77017-0.77017
   0  -4  -138088.05  383.91   1 0.63418-0.61132 0.07597-0.30940-0.76943 0.72839
   0   4   138467.14  346.72   1-0.62110 0.59824-0.07715 0.31030 0.77992-0.73879
   0   4   130376.57  375.47   1 0.61418-0.63697 0.04279 0.19022 0.78800-0.74704
   0   4   213966.50  201.14   1-0.42220 0.39295-0.25834 0.47622 0.86891-0.78664
   0   4   211779.29  230.32   1 0.60092-0.63023-0.09157 0.30943 0.79404-0.71207
   0   4   3 1051.00   75.37   1-0.17147 0.13558-0.42842 0.63103 0.88715-0.76381
   0   4   3 1071.26   94.36   1 0.57401-0.61006-0.23283 0.43551 0.78504-0.66192
   0   4   418267.48  243.89   1 0.06406-0.10659-0.54647 0.73407 0.83501-0.67065
   0   4   417661.63  275.22   1 0.53484-0.57762-0.37199 0.55943 0.75865-0.59446
   0   4   5 9587.23  275.42   1 0.24489-0.29401-0.61115 0.78363 0.75267-0.54723
   0   4   5 8844.76  264.15   1 0.48632-0.53585-0.49912 0.67139 0.71719-0.51194
   0   4   614168.78  258.92   1 0.36909-0.42420-0.64364 0.80031 0.67044-0.42373
   0   4   613413.41  244.13   1 0.43173-0.48774-0.60823 0.76540 0.66608-0.41983
   0   4   758929.83  547.15   1 0.45088-0.51303-0.65666 0.79777 0.60456-0.31678
   0   4   753832.82  526.10   1 0.37675-0.43964-0.69603 0.83782 0.61122-0.32368
   0   4   831642.49  457.22   1 0.50584-0.57466-0.66090 0.78671 0.55436-0.22547
   0   4   826408.55  371.60   1 0.32801-0.39760-0.76152 0.88816 0.55899-0.23037
   0   4   9  -30.74   74.66   1 0.54253-0.61802-0.66168 0.77219 0.51751-0.14750
   0   4   9  -14.81   47.48   1 0.28595-0.36226-0.81069 0.92132 0.51089-0.14113
   0   4  10 4607.32  228.59   1 0.56612-0.64850-0.66137 0.75686 0.49202-0.08114
   0   4  10 4290.46  398.52   1 0.25152-0.33448-0.84503 0.94042 0.47185-0.06101
   0   4  11  112.45   79.39   1 0.58236-0.67142-0.66055 0.74074 0.47382-0.02185
   0   4  11  105.17   28.63   1 0.22436-0.31397-0.86922 0.94936 0.44057 0.01134
   0   4  1211179.00  711.81   1 0.59262-0.68835-0.65982 0.72470 0.46198 0.03108
   0   4  1210418.13  715.18   1 0.20472-0.30091-0.88510 0.95068 0.41795 0.07517
   0   4  13 4921.50  373.55   1 0.59845-0.70086-0.65933 0.70890 0.45511 0.07903
   0   4  13 4651.96  454.90   1 0.18984-0.29270-0.89642 0.94680 0.40048 0.13373
   0   4  14 7951.48  346.50   1 0.60091-0.71000-0.65910 0.69336 0.45218 0.12305
   0   4  14 7818.75  737.30   1 0.17982-0.28935-0.90366 0.93884 0.38865 0.18665
   0   4  15 -116.13  123.71   1 0.60072-0.71648-0.65912 0.67807 0.45241 0.16391
   0   4  15   37.30   52.09   1 0.17395-0.29015-0.90776 0.92775 0.38170 0.23470
   0   4  16 5342.81  470.66   1 0.59837-0.72081-0.65934 0.66298 0.45520 0.20221
   0   4  16 3511.31  767.85   1 0.17162-0.29449-0.90936 0.91415 0.37893 0.27856
   0   4  17  572.92  175.00   1 0.59423-0.72334-0.65969 0.64802 0.46009 0.23841
   0   4  17  288.73  104.39   1 0.17234-0.30188-0.90887 0.89846 0.37979 0.31879
   0   4  18 1435.18  243.85   1 0.58854-0.72432-0.66014 0.63315 0.46672 0.27287
   0   4  18 1056.27  195.63   1 0.17571-0.31192-0.90654 0.88093 0.38379 0.35589
   0   4  19   36.82  118.25   1 0.58150-0.72396-0.66061 0.61832 0.47480 0.30587
   0   4  19   49.42   33.63   1 0.18142-0.32431-0.90252 0.86171 0.39055 0.39022
   0   4  20 1549.19  301.72   1 0.57324-0.72237-0.66106 0.60346 0.48412 0.33764
   0   4  21   19.54  141.55   1 0.56386-0.71967-0.66145 0.58854 0.49450 0.36835
   0   4  22  235.56  207.63   1 0.55370-0.71583-0.66156 0.57350 0.50570 0.39833
   0  -5  17   64.26  150.77   1 0.76910-0.86281-0.60872 0.03777 0.19476 0.50410
   0  -5  16  -46.20  136.64   1 0.78267-0.86971-0.59983 0.04418 0.16619 0.49157
   0  -5  15  100.30  142.81   1 0.79562-0.87599-0.59011 0.04977 0.13690 0.47974
   0  -5  14  251.56  236.54   1 0.80794-0.88164-0.57949 0.05445 0.10679 0.46875
   0  -5  13 2674.59  296.41   1 0.81963-0.88666-0.56786 0.05812 0.07569 0.45874
   0  -5  12 8107.82  450.03   1 0.83071-0.89147-0.55493 0.06052 0.04438 0.44900
   0  -5  11 1153.10  257.26   1 0.84105-0.89511-0.54083 0.06174 0.01073 0.44154
   0  -5  10 7130.05  511.10   1 0.85061-0.89796-0.52520 0.06141-0.02460 0.43576
   0  -5   9  736.67  181.03   1 0.85927-0.89991-0.50774 0.05925-0.06198 0.43203
   0  -5   8 1603.49  207.18   1 0.86729-0.89997-0.48676 0.05319-0.10425 0.43267
   0  -5   711589.07  733.35   1 0.87337-0.89949-0.46429 0.04602-0.14712 0.43449
   0  -5   6 2004.95  177.21   1 0.87766-0.89722-0.43831 0.03535-0.19384 0.44015
   0  -5   540453.54  725.72   1 0.87947-0.89246-0.40779 0.02013-0.24540 0.45066
   0  -5   444158.66  748.67   1 0.87798-0.88425-0.37083-0.00151-0.30268 0.46701
   0   5  -432507.00  642.05   1 0.57079-0.56321 0.49745-0.12580 0.65325-0.81667
   0  -5   3 2721.54  213.02   1 0.87077-0.87046-0.32606-0.03095-0.36801 0.49125
   0   5  -3 1693.49  178.21   1 0.58522-0.58531 0.43507-0.07932 0.68426-0.80691
   0  -5   2  776.34  128.89   1 0.85540-0.84887-0.27039-0.07084-0.44178 0.52382
   0  -5   1  942.00  104.98   1 0.82647-0.81289-0.19776-0.12817-0.52709 0.56813
   0   5  -1  636.99   98.99   1 0.60908-0.62245 0.28369 0.04185 0.74063-0.78153
   0  -5   0 1854.16  146.48   1 0.77487-0.75472-0.10574-0.20493-0.62320 0.62320
   0   5   0 1312.93  137.07   1 0.61523-0.63542 0.19585 0.11450 0.76362-0.76362
   0  -5  -139689.29  444.86   1 0.69070-0.66378 0.01148-0.30705-0.72304 0.68198
   0   5   130787.52  429.89   1 0.61632-0.64313 0.09915 0.19591 0.78122-0.74026
   0  -5  -2 3594.34  207.46   1 0.55804-0.52464 0.15134-0.43188-0.81589 0.73363
   0   5   2 3712.39  163.30   1-0.54576 0.51257-0.15275 0.43268 0.82389-0.74165
   0   5   2 3079.06  167.47   1 0.61085-0.64440-0.00456 0.28445 0.79172-0.70980
   0   5   3 1778.65  106.96   1-0.36517 0.32524-0.30153 0.56625 0.88075-0.75734
   0   5   3 1496.13  121.63   1 0.59760-0.63761-0.11433 0.37905 0.79359-0.67064
   0   5   4 1812.68  143.28   1-0.16516 0.11860-0.43206 0.68151 0.88658-0.72212
   0   5   4 1621.08  135.58   1 0.57557-0.62232-0.22598 0.47554 0.78590-0.62175
   0   5   520409.59  292.61   1 0.01901-0.07217-0.52690 0.76139 0.84971-0.64425
   0   5   517946.06  311.41   1 0.54730-0.60079-0.33381 0.56821 0.76748-0.56229
   0   5   6 5208.58  320.93   1 0.16936-0.22909-0.58704 0.80645 0.79164-0.54511
   0   5   6 5129.89  328.25   1 0.51251-0.57273-0.43500 0.65413 0.74033-0.49404
   0   5   775363.85  620.30   1 0.28266-0.34911-0.62161 0.82579 0.73054-0.44293
   0   5   768910.59  593.05   1 0.47499-0.54196-0.52430 0.72826 0.70674-0.41940
   0   5   866073.52  948.08   1 0.36429-0.43651-0.64272 0.83092 0.67393-0.34498
   0   5   862143.28  886.21   1 0.43561-0.50897-0.60120 0.79010 0.66992-0.34159
   0   5   916630.46  390.93   1 0.42292-0.50179-0.65245 0.82537 0.62883-0.25877
   0   5   915211.72  354.00   1 0.39889-0.47895-0.66360 0.83736 0.63285-0.26348
   0   5  1041132.37 1459.85   1 0.46371-0.54973-0.65795 0.81522 0.59335-0.18223
   0   5  1036889.20 1302.60   1 0.36377-0.45075-0.71460 0.87289 0.59750-0.18673
   0   5  1119975.97  788.10   1 0.49335-0.58604-0.66024 0.80221 0.56627-0.11404
   0   5  1117637.51  680.60   1 0.33473-0.42842-0.75316 0.89630 0.56630-0.11445
   0   5  12 6065.73  434.56   1 0.51417-0.61353-0.66123 0.78789 0.54625-0.05291
   0   5  12 5948.76  668.56   1 0.31043-0.41082-0.78253 0.91051 0.53969-0.04677
   0   5  13  347.52  121.52   1 0.52843-0.63445-0.66159 0.77295 0.53202 0.00242
   0   5  13  286.32   65.14   1 0.29054-0.39756-0.80578 0.91739 0.51603 0.01805
   0   5  14 2928.10  245.24   1 0.53769-0.65039-0.66168 0.75774 0.52254 0.05302
   0   5  14 2939.60  326.95   1 0.27537-0.38905-0.82170 0.91805 0.49897 0.07619
   0   5  15  672.80  200.87   1 0.54308-0.66245-0.66168 0.74243 0.51694 0.09973
   0   5  15  455.93  104.38   1 0.26429-0.38463-0.83278 0.91389 0.48642 0.12983
   0   5  16 2003.64  230.39   1 0.54536-0.67140-0.66167 0.72712 0.51455 0.14323
   0   5  16 1574.10  377.66   1 0.25691-0.38389-0.83993 0.90579 0.47801 0.17932
   0   5  17 2876.86  409.61   1 0.54510-0.67781-0.66167 0.71181 0.51482 0.18407
   0   5  17 1564.20  367.04   1 0.25282-0.38646-0.84381 0.89441 0.47334 0.22507
   0   5  18 1111.24  208.40   1 0.54272-0.68209-0.66168 0.69652 0.51732 0.22269
   0   5  18  886.99  230.43   1 0.25168-0.39197-0.84488 0.88023 0.47204 0.26746
   0   5  19  341.03  224.13   1 0.53851-0.68456-0.66168 0.68122 0.52169 0.25943
   0   5  20  362.96  204.64   1 0.53271-0.68543-0.66165 0.66588 0.52766 0.29457
   0   5  21  457.57  217.71   1 0.52549-0.68488-0.66154 0.65047 0.53499 0.32836
   0   5  22   78.41  141.51   1 0.51697-0.68303-0.66132 0.63495 0.54349 0.36097
   0  -6  16   64.41  150.79   1 0.78482-0.86793-0.59830-0.01950 0.16146 0.49630
   0  -6  15  532.88  168.09   1 0.79789-0.87432-0.58826-0.01423 0.13153 0.48512
   0  -6  14 2692.00  342.94   1 0.81029-0.88005-0.57729-0.00990 0.10077 0.47476
   0  -6  13 1285.77  268.26   1 0.82199-0.88508-0.56529-0.00660 0.06905 0.46537
   0  -6  12  519.20  219.29   1 0.83303-0.88985-0.55197-0.00458 0.03715 0.45622
   0  -6  11 5512.31  400.64   1 0.84326-0.89337-0.53748-0.00376 0.00297 0.44929
   0  -6  10 9686.55  713.43   1 0.85264-0.89603-0.52146-0.00447-0.03279 0.44395
   0  -6   9  919.65  164.62   1 0.86102-0.89771-0.50364-0.00698-0.07047 0.44051
   0  -6   8  907.65  225.34   1 0.86864-0.89736-0.48245-0.01334-0.11267 0.44108
   0  -6   7 2514.07  214.80   1 0.87430-0.89645-0.45986-0.02062-0.15528 0.44264
   0  -6   6 1902.77  198.62   1 0.87812-0.89370-0.43405-0.03114-0.20125 0.44756
   0  -6   5 2829.75  259.52   1 0.87975-0.88858-0.40377-0.04611-0.25097 0.45637
   0   6  -5 2121.90  243.61   1 0.55714-0.54666 0.54366-0.09462 0.62770-0.83199
   0  -6   4  593.04  116.53   1 0.87775-0.88001-0.36863-0.06592-0.30602 0.47034
   0   6  -4  343.92   98.02   1 0.57266-0.56913 0.49050-0.05676 0.65685-0.82028
   0  -6   313881.56  377.35   1 0.87091-0.86659-0.32671-0.09251-0.36711 0.49035
   0   6  -3 9645.89  338.79   1 0.58548-0.58968 0.43384-0.01603 0.68482-0.80747
   0  -6   227088.56  534.84   1 0.85733-0.84682-0.27617-0.12719-0.43439 0.51643
   0   6  -218155.39  455.26   1 0.59746-0.60847 0.37053 0.03211 0.71115-0.79292
   0  -6   1 6156.22  244.13   1 0.83279-0.81558-0.21364-0.17444-0.51070 0.55172
   0   6  -1 4078.88  222.88   1 0.60722-0.62462 0.30121 0.08640 0.73522-0.77612
   0  -6   0 4397.78  290.39   1 0.79329-0.76911-0.13574-0.23707-0.59350 0.59350
   0   6   0 3146.85  259.13   1 0.61365-0.63787 0.22692 0.14551 0.75626-0.75626
   0  -6  -1  179.55   64.07   1 0.73191-0.70093-0.04111-0.31662-0.68015 0.63909
   0   6   1  257.61   84.04   1 0.61644-0.64748 0.14731 0.20993 0.77349-0.73259
   0  -6  -2 2123.71  311.11   1 0.63921-0.60161 0.07054-0.41306-0.76578 0.68369
   0   6   2 1971.75  200.62   1 0.61513-0.65270 0.06212 0.27982 0.78596-0.70404
   0  -6  -3  358.83   66.48   1 0.51112-0.46709 0.19425-0.52172-0.83726 0.71387
   0   6   3  393.89   73.67   1-0.49727 0.45341-0.19621 0.52296 0.84511-0.72175
   0   6   3  637.70  111.82   1 0.60888-0.65318-0.02610 0.35287 0.79282-0.66994
   0   6   490549.14  608.69   1-0.34085 0.29023-0.31906 0.63062 0.88431-0.71977
   0   6   481829.96  729.30   1 0.59714-0.64785-0.11727 0.42886 0.79351-0.62957
   0   6   5 5534.94  341.74   1-0.17716 0.11994-0.42511 0.72139 0.88763-0.68205
   0   6   5 6007.13  246.42   1 0.57945-0.63689-0.20831 0.50474 0.78793-0.58274
   0   6   667208.92  557.31   1-0.02631-0.03762-0.50561 0.78697 0.86235-0.61583
   0   6   664117.83  623.18   1 0.55828-0.62248-0.29548 0.57675 0.77524-0.52902
   0   6   736659.08  597.71   1 0.10235-0.17289-0.56203 0.82818 0.82075-0.53311
   0   6   733909.23  590.98   1 0.53281-0.60373-0.37812 0.64410 0.75705-0.46971
   0   6   8  968.95   99.47   1 0.20421-0.28126-0.59868 0.84978 0.77451-0.44581
   0   6   8  979.20  106.51   1 0.50569-0.58335-0.45259 0.70341 0.73445-0.40607
   0   6   910442.34  444.00   1 0.28305-0.36684-0.62171 0.85758 0.73030-0.36051
   0   6   9 9252.70  408.36   1 0.47774-0.56216-0.51830 0.75396 0.70930-0.33986
   0   6  10   82.87   69.61   1 0.34238-0.43170-0.63828 0.85801 0.68946-0.27827
   0   6  10   92.38   45.68   1 0.44923-0.53994-0.57562 0.79625 0.68325-0.27284
   0   6  1116696.81  978.97   1 0.38704-0.48300-0.64688 0.85133 0.65706-0.20476
   0   6  1115235.67  885.54   1 0.42348-0.52088-0.62281 0.82830 0.65784-0.20638
   0   6  12 1743.25  182.43   1 0.42022-0.52283-0.65207 0.84125 0.63103-0.13761
   0   6  12 1647.39  147.52   1 0.40027-0.50436-0.66142 0.85177 0.63427-0.14177
   0   6  13   18.18  110.47   1 0.44372-0.55361-0.65585 0.82927 0.61070-0.07624
   0   6  13  131.88   37.98   1 0.37837-0.48946-0.69364 0.86844 0.61292-0.07892
   0   6  1414965.36  858.91   1 0.46136-0.57792-0.65773 0.81584 0.59542-0.01985
   0   6  1411678.27  759.42   1 0.36147-0.47926-0.71780 0.87744 0.59505-0.01997
   0   6  15  527.56  141.02   1 0.47369-0.59692-0.65883 0.80164 0.58442 0.03225
   0   6  15  611.05  139.37   1 0.34788-0.47237-0.73619 0.88067 0.58051 0.03564
   0   6  16  548.72  155.24   1 0.48177-0.61167-0.65947 0.78697 0.57705 0.08073
   0   6  16  711.82  186.58   1 0.33751-0.46871-0.74963 0.87896 0.56932 0.08791
   0   6  17  116.15  106.15   1 0.48640-0.62297-0.65980 0.77200 0.57277 0.12612
   0   6  17  142.48   83.16   1 0.33020-0.46810-0.75882 0.87299 0.56138 0.13693
   0   6  18  458.52  124.92   1 0.48818-0.63142-0.65992 0.75682 0.57112 0.16889
   0   6  18  404.82  103.13   1 0.32575-0.47036-0.76430 0.86332 0.55652 0.18286
   0   6  19 4792.46  387.01   1 0.48755-0.63746-0.65987 0.74147 0.57171 0.20941
   0   6  20 2350.25  319.72   1 0.48484-0.64142-0.65969 0.72598 0.57421 0.24801
   0   6  21 1399.72  263.33   1 0.48032-0.64357-0.65936 0.71035 0.57838 0.28496
   0   6  22 1771.41  311.19   1 0.47418-0.64410-0.65887 0.69456 0.58397 0.32048
   0  -7  15  117.87  148.48   1 0.79819-0.87068-0.58802-0.07664 0.13083 0.48582
   0  -7  14  757.45  258.14   1 0.81070-0.87653-0.57689-0.07246 0.09969 0.47585
   0  -7  13  608.59  230.36   1 0.82249-0.88164-0.56474-0.06931 0.06764 0.46679
   0  -7  12  343.70  266.68   1 0.83356-0.88643-0.55127-0.06742 0.03547 0.45791
   0  -7  11 1487.68  287.19   1 0.84379-0.88994-0.53667-0.06672 0.00111 0.45115
   0  -7  10  232.03  149.29   1 0.85310-0.89255-0.52058-0.06750-0.03470 0.44586
   0  -7   9 6079.32  355.34   1 0.86138-0.89412-0.50277-0.07000-0.07226 0.44230
   0  -7   8 5128.30  438.60   1 0.86884-0.89359-0.48179-0.07622-0.11394 0.44235
   0  -7   7 4810.34  379.71   1 0.87436-0.89255-0.45956-0.08316-0.15585 0.44321
   0  -7   6    0.83   96.23   1 0.87808-0.88970-0.43440-0.09302-0.20064 0.44696
   0  -7   5 4292.71  312.94   1 0.87976-0.88458-0.40525-0.10683-0.24856 0.45397
   0   7  -5 3124.14  277.92   1 0.55801-0.55158 0.54091-0.02978 0.62930-0.83358
   0  -7   4 3051.70  276.90   1 0.87810-0.87635-0.37200-0.12475-0.30090 0.46522
   0   7  -4 2034.94  241.16   1 0.57233-0.57285 0.49174 0.00409 0.65622-0.81964
   0  -7   3 2945.49  261.98   1 0.87225-0.86393-0.33314-0.14828-0.35803 0.48127
   0   7  -3 2580.97  267.87   1 0.58412-0.59243 0.44009 0.03976 0.68199-0.80464
   0  -7   2 4157.35  232.48   1 0.86089-0.84639-0.28738-0.17811-0.41983 0.50187
   0   7  -2 2518.60  202.02   1 0.59528-0.61040 0.38340 0.08129 0.70614-0.78790
   0  -7   1 4161.52  219.32   1 0.84096-0.81977-0.23240-0.21781-0.48863 0.52965
   0   7  -1 2909.92  215.09   1 0.60441-0.62634 0.32287 0.12664 0.72830-0.76919
   0  -7   0169766.6 1030.16   1 0.81024-0.78203-0.16584-0.26910-0.56214 0.56214
   0   7   0117114.4 1649.67   1 0.61142-0.63969 0.25794 0.17656 0.74807-0.74807
   0  -7  -188229.42 1376.99   1 0.76291-0.72813-0.08745-0.33224-0.64055 0.59952
   0   7   166470.35 1048.21   1 0.61546-0.65054 0.18999 0.22932 0.76492-0.72402
   0  -7  -2  842.26  181.38   1 0.69643-0.65477 0.00449-0.40916-0.71760 0.63549
   0   7   2  736.76  126.93   1 0.61659-0.65817 0.11806 0.28593 0.77837-0.69645
   0  -7  -320063.40  565.05   1 0.60424-0.55596 0.10733-0.49680-0.78953 0.66639
   0   7   320545.19  396.92   1-0.58891 0.54064-0.11000 0.49898 0.80067-0.67728
   0   7   317298.33  444.24   1 0.61425-0.66257 0.04415 0.34466 0.78787-0.66498
   0  -7  -417443.07  478.17   1 0.48640-0.43173 0.21572-0.59013-0.84668 0.68216
   0   7   418298.11  366.18   1-0.47159 0.41706-0.21807 0.59163 0.85442-0.68994
   0   7   416035.87  408.92   1 0.60836-0.66341-0.03131 0.40495 0.79303-0.62919
   0   7   5 3092.75  142.62   1-0.33681 0.27550-0.32192 0.68032 0.88482-0.67915
   0   7   5 2593.09  169.61   1 0.59852-0.65992-0.10819 0.46665 0.79376-0.58883
   0   7   6  -28.45   43.72   1-0.19965 0.13177-0.41180 0.75492 0.88913-0.64244
   0   7   6  150.83  103.81   1 0.58559-0.65372-0.18300 0.52627 0.78967-0.54376
   0   7   7 1554.47  119.95   1-0.07266-0.00193-0.48264 0.81089 0.87279-0.58518
   0   7   7 1147.02  128.77   1 0.56845-0.64334-0.25626 0.58442 0.78178-0.49452
   0   7   8 2733.20  156.76   1 0.03919-0.12035-0.53583 0.84889 0.84340-0.51467
   0   7   8 2489.15  160.50   1 0.55012-0.63176-0.32432 0.63732 0.76953-0.44123
   0   7   912667.21  528.33   1 0.13218-0.22009-0.57345 0.87127 0.80850-0.43867
   0   7   911659.70  497.04   1 0.52950-0.61787-0.38790 0.68558 0.75442-0.38498
   0   7  10  698.13   95.21   1 0.20622-0.30061-0.59933 0.88212 0.77348-0.36260
   0   7  10  738.42  127.39   1 0.50890-0.60401-0.44439 0.72690 0.73724-0.32676
   0   7  11  103.09   73.13   1 0.26516-0.36627-0.61690 0.88447 0.74102-0.28905
   0   7  11   64.23   60.66   1 0.48849-0.59035-0.49413 0.76147 0.71916-0.26763
   0   7  12 6743.02  412.89   1 0.31087-0.41729-0.63117 0.88243 0.71061-0.21719
   0   7  12 6046.35  365.60   1 0.46790-0.57596-0.53806 0.79040 0.70111-0.20861
   0   7  13  -19.73  108.30   1 0.34632-0.45939-0.63911 0.87510 0.68672-0.15217
   0   7  13   47.35   61.05   1 0.44992-0.56467-0.57428 0.81149 0.68393-0.15039
   0   7  1425622.10 1369.16   1 0.37336-0.49306-0.64443 0.86514 0.66730-0.09164
   0   7  1422121.90 1171.60   1 0.43395-0.55539-0.60421 0.82629 0.66828-0.09370
   0   7  15 2121.99  251.27   1 0.39365-0.52000-0.64800 0.85343 0.65202-0.03524
   0   7  15 1875.44  199.60   1 0.42026-0.54839-0.62837 0.83531 0.65461-0.03899
   0   7  16   31.21  105.41   1 0.40850-0.54149-0.65036 0.84052 0.64043 0.01746
   0   7  16   -7.65   52.93   1 0.40901-0.54382-0.64729 0.83908 0.64321 0.01345
   0   7  17  308.09  145.78   1 0.41890-0.55854-0.65188 0.82677 0.63211 0.06690
   0   7  17  375.39  122.67   1 0.40023-0.54174-0.66148 0.83814 0.63423 0.06347
   0   7  18  300.60  172.87   1 0.42562-0.57190-0.65281 0.81242 0.62663 0.11349
   0   7  18  101.43   49.62   1 0.39229-0.54089-0.67262 0.83360 0.62744 0.11194
   0   7  19  106.30  173.54   1 0.42925-0.58218-0.65330 0.79763 0.62364 0.15760
   0   7  20  919.66  267.80   1 0.43024-0.58981-0.65343 0.78249 0.62282 0.19954
   0   7  21  -90.08  123.08   1 0.42895-0.59517-0.65326 0.76704 0.62389 0.23959
   0  -8  14  139.91  152.68   1 0.80936-0.87125-0.57817-0.13334 0.10317 0.47237
   0  -8  13   74.42  140.23   1 0.82130-0.87652-0.56605-0.13016 0.07101 0.46342
   0  -8  12  160.97  211.66   1 0.83251-0.88142-0.55264-0.12820 0.03880 0.45458
   0  -8  11  724.81  217.79   1 0.84283-0.88503-0.53815-0.12739 0.00452 0.44774
   0  -8   9  830.81  241.19   1 0.86057-0.88935-0.50473-0.13020-0.06823 0.43827
   0  -8   8 1117.74  240.31   1 0.86808-0.88886-0.48428-0.13597-0.10911 0.43752
   0  -8   7  507.55  151.70   1 0.87371-0.88793-0.46270-0.14224-0.15005 0.43742
   0  -8   615161.81  875.86   1 0.87764-0.88529-0.43852-0.15112-0.19347 0.43978
   0  -8   510115.94  617.32   1 0.87943-0.88051-0.41121-0.16314-0.23979 0.44505
   0   8  -5 8642.77  596.03   1 0.55694-0.55456 0.54427 0.02895 0.62735-0.83163
   0  -8   4  -51.00   81.22   1 0.87877-0.87302-0.37963-0.17932-0.28919 0.45351
   0   8  -4  -14.58  114.07   1 0.57043-0.57500 0.49873 0.05918 0.65257-0.81600
   0  -8   3  475.42  110.67   1 0.87424-0.86192-0.34380-0.19981-0.34275 0.46600
   0   8  -3  144.02  100.40   1 0.58156-0.59397 0.45145 0.09045 0.67673-0.79938
   0  -8   2   68.13   78.87   1 0.86522-0.84674-0.30239-0.22524-0.39991 0.48196
   0   8  -2   23.17   91.32   1 0.59224-0.61146 0.40023 0.12650 0.69932-0.78109
   0  -8   1 1951.60  181.15   1 0.84942-0.82424-0.25373-0.25861-0.46269 0.50371
   0   8  -1 1454.57  207.11   1 0.60121-0.62725 0.34623 0.16534 0.72017-0.76106
   0  -8   021735.08 1240.57   1 0.82564-0.79340-0.19604-0.30104-0.52903 0.52903
   0   8   015695.56  956.02   1 0.60854-0.64085 0.28892 0.20765 0.73904-0.73904
   0  -8  -1 7870.25  365.12   1 0.78961-0.75081-0.12955-0.35227-0.59976 0.55873
   0   8   1 5335.29  330.45   1 0.61348-0.65259 0.22967 0.25171 0.75557-0.71466
   0  -8  -214900.87  583.10   1 0.74023-0.69451-0.05247-0.41435-0.67029 0.58818
   0   8   211113.87  509.39   1 0.61610-0.66204 0.16822 0.29798 0.76948-0.68768
   0  -8  -3  -12.01   45.05   1 0.67178-0.61944 0.03397-0.48560-0.73996 0.61682
   0   8   3   -0.36   77.65   1 0.61641-0.66874 0.10403 0.34683 0.78051-0.65763
   0  -8  -4 1321.66  190.34   1 0.58423-0.52528 0.12740-0.56380-0.80152 0.63734
   0   8   4 1043.92  115.32   1-0.56781 0.50887-0.13060 0.56645 0.81273-0.64821
   0   8   4  880.70  116.95   1 0.61399-0.67305 0.03944 0.39625 0.78832-0.62448
   0  -8  -5 5427.02  358.57   1 0.47800-0.41269 0.22285-0.64419-0.84961 0.64396
   0   8   5 5070.85  202.12   1-0.46259 0.39739-0.22556 0.64594 0.85739-0.65179
   0   8   5 4341.33  237.55   1 0.60894-0.67474-0.02554 0.44606 0.79280-0.58799
   0   8   6 1419.96  143.58   1-0.34592 0.27393-0.31545 0.72069 0.88364-0.63683
   0   8   6  926.06  135.01   1 0.60097-0.67306-0.09118 0.49650 0.79404-0.54813
   0   8   7  525.41   99.33   1-0.22882 0.15028-0.39399 0.78394 0.89017-0.60236
   0   8   7  464.77  114.25   1 0.59097-0.66979-0.15433 0.54447 0.79178-0.50489
   0   8   8 4443.97  323.37   1-0.11974 0.03448-0.45782 0.83296 0.88094-0.55224
   0   8   8 3742.38  284.44   1 0.57776-0.66335-0.21614 0.59118 0.78706-0.45876
   0   8   9 2384.64  205.93   1-0.02083-0.07117-0.50823 0.86814 0.86096-0.49118
   0   8   9 2052.16  211.95   1 0.56411-0.65645-0.27349 0.63337 0.77908-0.40974
   0   8  10  353.44  102.04   1 0.06337-0.16191-0.54618 0.89090 0.83526-0.42434
   0   8  10  286.65  100.00   1 0.54942-0.64851-0.32668 0.67140 0.76903-0.35865
   0   8  11 1189.26  128.25   1 0.13363-0.23891-0.57399 0.90348 0.80787-0.35587
   0   8  11 1142.35  126.73   1 0.53351-0.63931-0.37603 0.70540 0.75760-0.30607
   0   8  12 1780.82  246.13   1 0.19025-0.30196-0.59412 0.90861 0.78154-0.28849
   0   8  12 1655.70  149.96   1 0.51837-0.63092-0.41932 0.73353 0.74528-0.25270
   0   8  13  878.27  172.73   1 0.23634-0.35478-0.60863 0.90789 0.75743-0.22329
   0   8  13  977.40  156.10   1 0.50383-0.62313-0.45728 0.75632 0.73283-0.19920
   0   8  14 4506.88  376.11   1 0.27296-0.39813-0.61903 0.90305 0.73639-0.16116
   0   8  14 3799.49  319.73   1 0.49032-0.61637-0.48989 0.77377 0.72082-0.14614
   0   8  15 3412.77  259.48   1 0.30161-0.43177-0.62892 0.89644 0.71657-0.09979
   0   8  15 3113.75  215.06   1 0.47819-0.61099-0.51732 0.78603 0.70972-0.09399
   0   8  16  417.73  166.66   1 0.32389-0.46070-0.63421 0.88645 0.70204-0.04414
   0   8  16  232.94  103.86   1 0.46646-0.60525-0.54106 0.79486 0.69975-0.04308
   0   8  17  345.90  156.20   1 0.34076-0.48421-0.63794 0.87490 0.69058 0.00843
   0   8  17  226.54  104.20   1 0.45773-0.60321-0.55889 0.79755 0.69145 0.00625
   0   8  18  320.55  207.96   1 0.35311-0.50320-0.64051 0.86220 0.68194 0.05818
   0   8  19   40.08  103.87   1 0.36164-0.51838-0.64221 0.84862 0.67585 0.10540
   0   8  20  335.87  167.41   1 0.36691-0.53030-0.64323 0.83437 0.67203 0.15034
   0   8  21  531.91  174.05   1 0.36938-0.53941-0.64369 0.81956 0.67023 0.19326
   0  -9  12 1232.58  276.94   1 0.82994-0.87491-0.55588-0.18711 0.04671 0.44666
   0  -9  11  226.57  207.17   1 0.84048-0.87874-0.54168-0.18600 0.01270 0.43956
   0  -9  10   -2.77  130.87   1 0.85008-0.88163-0.52616-0.18622-0.02248 0.43364
   0  -9   9  290.17  279.62   1 0.85864-0.88348-0.50914-0.18793-0.05906 0.42910
   0  -9   8 4929.40  384.17   1 0.86640-0.88321-0.48944-0.19304-0.09897 0.42739
   0  -9   7 3835.48  467.10   1 0.87235-0.88260-0.46874-0.19844-0.13881 0.42618
   0  -9   6 1225.63  216.33   1 0.87671-0.88039-0.44574-0.20614-0.18077 0.42708
   0  -9   5  454.47  122.56   1 0.87914-0.87625-0.42001-0.21657-0.22516 0.43042
   0  -9   4 1428.77  214.83   1 0.87943-0.86968-0.39056-0.23059-0.27211 0.43643
   0   9  -4  751.15  190.97   1 0.56731-0.57593 0.50992 0.11008 0.64662-0.81005
   0  -9   3 5094.35  384.47   1 0.87640-0.86007-0.35765-0.24817-0.32248 0.44572
   0   9  -3 4879.47  422.37   1 0.57801-0.59453 0.46644 0.13752 0.66957-0.79222
   0  -9   2  220.32  100.81   1 0.86942-0.84652-0.32005-0.27043-0.37638 0.45854
   0   9  -2  324.68  143.00   1 0.58842-0.61175 0.41981 0.16898 0.69102-0.77279
   0  -9   1  713.05  136.05   1 0.85756-0.82840-0.27686-0.29761-0.43350 0.47452
   0   9  -1  427.15  156.16   1 0.59736-0.62750 0.37112 0.20251 0.71093-0.75181
   0  -9   0 1994.08  182.63   1 0.83866-0.80280-0.22696-0.33223-0.49510 0.49510
   0   9   0 1577.20  228.50   1 0.60471-0.64167 0.32046 0.23799 0.72911-0.72911
   0  -9  -1 4546.66  294.07   1 0.81200-0.76916-0.16914-0.37483-0.55861 0.51757
   0   9   1 3009.31  261.57   1 0.61062-0.65377 0.26736 0.27609 0.74542-0.70451
   0  -9  -2 8139.67  443.07   1 0.77357-0.72416-0.10371-0.42500-0.62516 0.54309
   0   9   2 6145.51  412.70   1 0.61442-0.66439 0.21333 0.31494 0.75958-0.67778
   0  -9  -3 1880.41  347.03   1 0.72357-0.66716-0.02999-0.48377-0.68959 0.56643
   0   9   3 1388.23  169.21   1 0.61630-0.67309 0.15807 0.35502 0.77147-0.64876
   0  -9  -4  665.60  117.65   1 0.65744-0.59442 0.05038-0.54894-0.75181 0.58763
   0   9   4  476.22  108.88   1 0.61635-0.67943 0.10087 0.39687 0.78097-0.61713
   0  -9  -5  542.13  103.42   1 0.57652-0.50689 0.13496-0.61830-0.80585 0.60063
   0   9   5  425.87   89.41   1-0.55938 0.48977-0.13863 0.62135 0.81723-0.61158
   0   9   5  481.03  116.99   1 0.61426-0.68408 0.04429 0.43827 0.78785-0.58305
   0  -9  -6 1240.86  237.81   1 0.48152-0.40557 0.21988-0.68815-0.84840 0.60162
   0   9   6 1322.29  135.30   1-0.46572 0.38985-0.22296 0.69016 0.85637-0.60965
   0   9   6  909.96  124.92   1 0.61020-0.68676-0.01200 0.47939 0.79215-0.54638
   0   9   7  212.81   75.56   1-0.36404 0.28136-0.30236 0.75444 0.88093-0.59299
   0   9   7  194.12   89.15   1 0.60394-0.68673-0.06853 0.52073 0.79407-0.50717
   0   9   811465.75  590.84   1-0.26263 0.17343-0.37256 0.80934 0.89006-0.56114
   0   9   810766.00  596.58   1 0.59634-0.68586-0.12240 0.55941 0.79333-0.46545
   0   9   910463.58  552.22   1-0.16543 0.06948-0.43191 0.85341 0.88661-0.51657
   0   9   9 9602.54  551.32   1 0.58734-0.68358-0.17400 0.59582 0.79041-0.42154
   0   9  1035228.83  633.00   1-0.07953-0.02312-0.47911 0.88591 0.87414-0.46327
   0   9  1031744.45  638.01   1 0.57607-0.67911-0.22378 0.63054 0.78616-0.37579
   0   9  1123982.66 1260.06   1-0.00245-0.10695-0.51688 0.90844 0.85605-0.40409
   0   9  1121724.50 1158.92   1 0.56525-0.67504-0.26905 0.66065 0.77980-0.32839
   0   9  12 1125.36  165.84   1 0.06298-0.17888-0.54602 0.92240 0.83540-0.34230
   0   9  12 1169.41  159.28   1 0.55412-0.67065-0.31046 0.68691 0.77237-0.27992
   0   9  13 6671.78  506.98   1 0.11804-0.24068-0.56811 0.92926 0.81443-0.28024
   0   9  13 5722.74  427.91   1 0.54305-0.66633-0.34772 0.70901 0.76431-0.23083
   0   9  14  -19.84   76.19   1 0.16281-0.29185-0.58475 0.93094 0.79470-0.21947
   0   9  14   35.82   69.37   1 0.53163-0.66162-0.38165 0.72755 0.75611-0.18143
   0   9  15  585.17  140.18   1 0.19987-0.33564-0.59728 0.92823 0.77672-0.16041
   0   9  15  638.03  145.96   1 0.52170-0.65844-0.41016 0.74090 0.74805-0.13233
   0   9  16 2320.17  238.12   1 0.22968-0.37218-0.60663 0.92235 0.76107-0.10367
   0   9  16 1632.35  191.40   1 0.51279-0.65628-0.43427 0.74984 0.74057-0.08380
   0   9  17  135.67  103.21   1 0.25332-0.40255-0.61358 0.91406 0.74789-0.04939
   0   9  17   75.76   77.11   1 0.50511-0.65535-0.45404 0.75445 0.73395-0.03613
   0   9  18  682.90  193.68   1 0.27170-0.42765-0.61869 0.90393 0.73715 0.00242
   0   9  19 2425.75  275.26   1 0.28559-0.44827-0.62237 0.89238 0.72875 0.05191
   0   9  20  706.39  197.88   1 0.29561-0.46503-0.62494 0.87971 0.72253 0.09922
   0   9  21   84.03  124.45   1 0.30217-0.47601-0.62906 0.86701 0.71621 0.14727
   0 -10  11  562.42  220.99   1 0.83673-0.87104-0.54702-0.24282 0.02527 0.42699
   0 -10  10  334.35  158.37   1 0.84666-0.87426-0.53204-0.24249-0.00938 0.42054
   0 -10   9  161.25  162.18   1 0.85558-0.87647-0.51567-0.24355-0.04525 0.41530
   0 -10   8 1892.17  285.10   1 0.86338-0.87756-0.49775-0.24617-0.08251 0.41143
   0 -10   711837.79 5198.17   1 0.87017-0.87644-0.47720-0.25221-0.12278 0.41015
   0 -10   6  479.26  198.24   1 0.87513-0.87485-0.45549-0.25862-0.16326 0.40957
   0 -10   5   58.35  101.77   1 0.87836-0.87151-0.43141-0.26740-0.20579 0.41105
   0 -10   4  873.71  189.49   1 0.87976-0.86599-0.40408-0.27927-0.25046 0.41478
   0  10  -4  668.48  200.94   1 0.56313-0.57580 0.52424 0.15785 0.63877-0.80220
   0 -10   3  447.83  138.16   1 0.87828-0.85795-0.37393-0.29409-0.29796 0.42120
   0  10  -3  666.44  186.98   1 0.57456-0.59417 0.48327 0.18352 0.66054-0.78311
   0 -10   2 5012.57  399.61   1 0.87355-0.84664-0.33991-0.31277-0.34836 0.43053
   0  10  -2 3660.71  369.30   1 0.58384-0.61128 0.44135 0.20949 0.68141-0.76318
   0 -10   1 2846.29  272.86   1 0.86493-0.83178-0.30131-0.33530-0.40136 0.44238
   0  10  -1 2172.57  283.72   1 0.59283-0.62707 0.39707 0.23860 0.70062-0.74151
   0 -10   0 1241.50  155.51   1 0.85078-0.81093-0.25738-0.36395-0.45816 0.45817
   0  10   1 2363.08  319.49   1 0.60694-0.65413 0.30368 0.30185 0.73443-0.69353
   0 -10  -2  351.72  115.27   1 0.80192-0.74848-0.15072-0.44012-0.57810 0.49603
   0  10   2  719.34  220.72   1 0.61162-0.66563 0.25551 0.33483 0.74874-0.66694
   0 -10  -3  685.85  158.58   1 0.76299-0.70299-0.08758-0.48801-0.64044 0.51734
   0  10   3  486.87  129.41   1 0.61476-0.67558 0.20650 0.36866 0.76119-0.63848
   0 -10  -4  976.72  209.45   1 0.71441-0.64733-0.01807-0.54262-0.69948 0.53527
   0  10   4  774.02  152.77   1 0.61632-0.68396 0.15695 0.40302 0.77169-0.60807
   0 -10  -5 6145.38  533.89   1 0.65228-0.57859 0.05615-0.60166-0.75589 0.55066
   0  10   5 5031.46  321.16   1 0.61644-0.69028 0.10598 0.43863 0.78022-0.57542
   0 -10  -6 5963.93  747.58   1 0.57860-0.49829 0.13293-0.66321-0.80470 0.55843
   0  10   6 6019.28  257.09   1-0.56102 0.48074-0.13707 0.66667 0.81636-0.56958
   0  10   6 4317.27  273.37   1 0.61487-0.69544 0.05632 0.47312 0.78661-0.54084
   0 -10  -7 5232.76  362.39   1 0.49389-0.40730 0.20930-0.72450-0.84395 0.55605
   0  10   7 5059.06  240.34   1-0.47785 0.39131-0.21281 0.72683 0.85226-0.56442
   0  10   7 4585.10  305.08   1 0.61182-0.69912 0.00735 0.50691 0.79096-0.50423
   0  10   8  599.21  122.20   1-0.38866 0.29530-0.28411 0.78303 0.87648-0.54740
   0  10   8  964.46  202.59   1 0.60706-0.70054-0.04165 0.54071 0.79355-0.46567
   0  10   9 6520.72  423.90   1-0.29894 0.19883-0.34808 0.83175 0.88852-0.51830
   0  10   9 6273.56  447.67   1 0.60142-0.70163-0.08787 0.57174 0.79407-0.42521
   0  10  10  525.16  115.24   1-0.21406 0.10745-0.40308 0.87141 0.88977-0.47862
   0  10  10  594.40  128.41   1 0.59480-0.70174-0.13195 0.60064 0.79296-0.38311
   0  10  11  671.97  141.33   1-0.13733 0.02401-0.44815 0.90184 0.88334-0.43138
   0  10  11  545.46  141.22   1 0.58744-0.70110-0.17348 0.62698 0.79045-0.33961
   0  10  1220619.42 1285.15   1-0.06688-0.05317-0.48558 0.92403 0.87162-0.37858
   0  10  1217850.56 1128.54   1 0.57843-0.69892-0.21305 0.65153 0.78741-0.29496
   0  10  13 1308.26  178.74   1-0.00551-0.12130-0.51545 0.93867 0.85689-0.32276
   0  10  13 1090.89  158.23   1 0.57038-0.69762-0.24830 0.67163 0.78294-0.24946
   0  10  14 3898.65  459.46   1 0.04665-0.17993-0.53907 0.94712 0.84096-0.26568
   0  10  14 3288.96  387.85   1 0.56242-0.69641-0.28002 0.68819 0.77798-0.20346
   0  10  15  847.48  185.92   1 0.09091-0.23092-0.55748 0.95029 0.82519-0.20881
   0  10  15  797.25  162.74   1 0.55480-0.69554-0.30803 0.70105 0.77285-0.15729
   0  10  16  -61.12   92.68   1 0.12770-0.27446-0.57178 0.94935 0.81040-0.15293
   0  10  16   23.25   61.37   1 0.54777-0.69526-0.33223 0.71009 0.76782-0.11123
   0  10  17   16.28   94.44   1 0.15732-0.31041-0.58281 0.94545 0.79723-0.09873
   0  10  17  -43.63   62.21   1 0.54154-0.69577-0.35255 0.71526 0.76317-0.06554
   0  10  18  289.90  166.01   1 0.18180-0.34162-0.59129 0.93870 0.78569-0.04611
   0  10  19   74.52  115.15   1 0.20123-0.36779-0.59772 0.92989 0.77603 0.00463
   0  10  20  -13.55   99.82   1 0.21627-0.38955-0.60250 0.91944 0.76824 0.05350
   0 -11   9  888.57  260.70   1 0.85126-0.86820-0.52402-0.29735-0.02719 0.39723
   0 -11   8  -31.03  114.83   1 0.85958-0.86981-0.50702-0.29905-0.06348 0.39241
   0 -11   7  274.15  169.80   1 0.86698-0.86929-0.48769-0.30395-0.10242 0.38978
   0 -11   6 2483.13  294.03   1 0.87268-0.86843-0.46734-0.30900-0.14143 0.38774
   0 -11   5  104.87  119.69   1 0.87682-0.86600-0.44494-0.31610-0.18218 0.38744
   0 -11   4   67.53   99.98   1 0.87913-0.86174-0.42017-0.32557-0.22488 0.38909
   0  11  -4  137.70  129.58   1 0.55800-0.57471 0.54095 0.20324 0.62928-0.79271
   0 -11   3  105.77  118.86   1 0.87950-0.85516-0.39211-0.33811-0.26965 0.39290
   0  11  -3  175.65  137.84   1 0.56926-0.59293 0.50297 0.22591 0.65034-0.77290
   0 -11   2 1762.11  265.26   1 0.87689-0.84598-0.36135-0.35354-0.31697 0.39913
   0  11  -2 1375.93  286.34   1 0.57852-0.61006 0.46434 0.24855 0.67059-0.75235
   0 -11   1 3009.86  241.32   1 0.87094-0.83346-0.32687-0.37268-0.36688 0.40796
   0  11  -1 2116.48  284.55   1 0.58760-0.62595 0.42380 0.27392 0.68928-0.73016
   0 -11   0  230.55  124.90   1 0.86105-0.81722-0.28791-0.39554-0.41914 0.41914
   0  11   0   80.02   98.64   1 0.59549-0.64066 0.38218 0.30038 0.70662-0.70662
   0 -11  -1 1565.70  184.83   1 0.84574-0.79521-0.24417-0.42400-0.47443 0.43341
   0  11   1 1692.18  262.25   1 0.60216-0.65414 0.33961 0.32778 0.72253-0.68165
   0 -11  -2 2917.39  272.34   1 0.82510-0.76763-0.19492-0.45806-0.53029 0.44823
   0  11   2 2287.26  290.40   1 0.60784-0.66588 0.29559 0.35683 0.73698-0.65518
   0 -11  -3 2044.92  219.50   1 0.79600-0.73197-0.14038-0.49734-0.58878 0.46568
   0  11   3 1479.46  233.41   1 0.61193-0.67679 0.25163 0.38560 0.74981-0.62710
   0 -11  -4   87.83   67.45   1 0.75969-0.68855-0.08023-0.54262-0.64531 0.48109
   0  11   4   19.28  100.81   1 0.61472-0.68640 0.20735 0.41470 0.76099-0.59738
   0 -11  -5 3204.35  336.39   1 0.71220-0.63444-0.01524-0.59239-0.70180 0.49653
   0  11   5 1949.56  238.25   1 0.61621-0.69471 0.16301 0.44385 0.77052-0.56600
   0 -11  -6  329.55   87.62   1 0.65493-0.57056 0.05320-0.64564-0.75381 0.50754
   0  11   6  258.08  121.53   1 0.61659-0.70117 0.11757 0.47391 0.77845-0.53268
   0 -11  -7 5594.13  546.12   1 0.58847-0.49749 0.12321-0.70043-0.79907 0.51176
   0  11   7 5866.25  435.00   1-0.57065 0.47969-0.12786 0.70433 0.81117-0.52326
   0  11   7 5218.92  449.51   1 0.61560-0.70692 0.07392 0.50238 0.78457-0.49785
   0 -11  -8 2934.45  289.64   1 0.51302-0.41579 0.19258-0.75471-0.83649 0.50746
   0  11   8 2731.38  267.15   1-0.49683 0.39962-0.19659 0.75743 0.84528-0.51632
   0  11   8 2437.37  299.28   1 0.61349-0.71155 0.03123 0.52991 0.78907-0.46139
   0  11   9 2793.42  285.24   1-0.41822 0.31418-0.26145 0.80721 0.86990-0.49968
   0  11   9 2892.78  317.15   1 0.61037-0.71516-0.01014 0.55611 0.79204-0.42340
   0  11  10 3405.95  244.01   1-0.33901 0.22822-0.32036 0.85087 0.88455-0.47320
   0  11  10 2944.21  254.25   1 0.60601-0.71691-0.05115 0.58189 0.79380-0.38395
   0  11  11  217.56  116.63   1-0.26362 0.14635-0.37192 0.88709 0.89004-0.43777
   0  11  11  143.47  106.72   1 0.60129-0.71892-0.08887 0.60443 0.79407-0.34323
   0  11  12  -13.09   78.48   1-0.19247 0.06846-0.41609 0.91598 0.88871-0.39533
   0  11  12   37.67   74.75   1 0.59605-0.72041-0.12423 0.62460 0.79327-0.30145
   0  11  13 1204.85  215.41   1-0.13031-0.00041-0.45203 0.93738 0.88242-0.34829
   0  11  13 1220.84  215.04   1 0.59051-0.72159-0.15693 0.64211 0.79162-0.25881
   0  11  14  -81.79   81.39   1-0.07316-0.06431-0.48239 0.95249 0.87289-0.29768
   0  11  14  111.68  114.91   1 0.58486-0.72267-0.18672 0.65671 0.78934-0.21555
   0  11  15 1596.20  202.58   1-0.02339-0.12082-0.50701 0.96188 0.86161-0.24531
   0  11  15 1759.04  244.53   1 0.57817-0.72285-0.21426 0.66932 0.78727-0.17172
   0  11  16  917.73  172.38   1 0.01893-0.16958-0.52686 0.96657 0.84973-0.19227
   0  11  16 1215.61  204.53   1 0.57292-0.72436-0.23756 0.67746 0.78442-0.12782
   0  11  17   63.20  133.95   1 0.05506-0.21245-0.54267 0.96715 0.83813-0.13957
   0 -12   7   71.35  125.19   1 0.86230-0.86186-0.50052-0.35239-0.07687 0.36468
   0 -12   6  349.82  186.67   1 0.86909-0.86087-0.48093-0.35764-0.11560 0.36191
   0 -12   5  346.69  183.60   1 0.87423-0.85944-0.46021-0.36307-0.15465 0.35991
   0 -12   4 1294.56  180.37   1 0.87776-0.85640-0.43745-0.37052-0.19534 0.35955
   0 -12   3  797.41  180.57   1 0.87941-0.85148-0.41237-0.38030-0.23786 0.36102
   0  12  -3  431.40  147.83   1 0.56315-0.59086 0.52419 0.26679 0.63881-0.76137
   0 -12   2    5.53   87.51   1 0.87908-0.84416-0.38403-0.39306-0.28236 0.36452
   0  12  -2  118.52  121.90   1 0.57335-0.60802 0.48788 0.28780 0.65820-0.73991
   0 -12   1 1498.74  243.62   1 0.87576-0.83427-0.35317-0.40859-0.32910 0.37018
   0  12  -1  785.70  184.03   1 0.58164-0.62410 0.45110 0.30868 0.67689-0.71778
   0 -12   0 1618.52  199.25   1 0.86912-0.82107-0.31880-0.42762-0.37812 0.37812
   0  12   0  857.12  179.99   1 0.58979-0.63906 0.41296 0.33165 0.69397-0.69397
   0 -12  -1 2685.83  324.70   1 0.85862-0.80411-0.28014-0.45017-0.42927 0.38825
   0  12   1 2161.39  345.92   1 0.59686-0.65294 0.37413 0.35531 0.70977-0.66888
   0 -12  -2  565.46  150.75   1 0.84298-0.78176-0.23728-0.47774-0.48278 0.40074
   0  12   2  270.76  181.75   1 0.60283-0.66573 0.33476 0.37951 0.72423-0.64247
   0 -12  -3 1187.93  173.15   1 0.82258-0.75452-0.18978-0.51008-0.53603 0.41293
   0  12   3 1168.05  243.06   1 0.60797-0.67687 0.29432 0.40498 0.73738-0.61467
   0 -12  -4  303.43  125.48   1 0.79439-0.71975-0.13761-0.54700-0.59161 0.42748
   0  12   4  104.28  123.11   1 0.61171-0.68743 0.25438 0.42974 0.74906-0.58544
   0 -12  -5 3475.53  432.13   1 0.76015-0.67833-0.08092-0.58888-0.64467 0.43940
   0  12   5 3188.58  303.50   1 0.61436-0.69689 0.21448 0.45446 0.75931-0.55479
   0 -12  -6 5893.58  454.07   1 0.71616-0.62772-0.02032-0.63425-0.69764 0.45131
   0  12   6 4993.59  336.06   1 0.61594-0.70529 0.17487 0.47888 0.76813-0.52271
   0 -12  -7 6169.41  450.70   1 0.66410-0.56906 0.04281-0.68220-0.74640 0.45909
   0  12   7 5089.51  341.00   1 0.61650-0.71267 0.13582 0.50274 0.77554-0.48922
   0 -12  -833963.89 3119.65   1 0.60459-0.50293 0.10698-0.73114-0.78931 0.46095
   0  12   829630.00  686.17   1 0.61625-0.71832 0.09602 0.52716 0.78166-0.45398
   0 -12  -9 2996.04  593.17   1 0.53746-0.42960 0.17053-0.77960-0.82586 0.45570
   0  12   9 2600.44  335.00   1 0.61498-0.72379 0.05879 0.54922 0.78634-0.41769
   0  12  10 1506.63  253.67   1 0.61295-0.72850 0.02297 0.56987 0.78978-0.38017
   0  12  11   85.08   89.58   1 0.61028-0.73256-0.01113 0.58881 0.79210-0.34153
   0  12  12 1933.06  220.57   1 0.60673-0.73506-0.04468 0.60711 0.79364-0.30182
   0  12  13  -54.06   80.37   1 0.60317-0.73823-0.07464 0.62188 0.79410-0.26130
   0  12  14   11.57   77.22   1 0.59942-0.74120-0.10212 0.63417 0.79389-0.22010
   0  12  15  595.57  166.43   1 0.59562-0.74413-0.12690 0.64376 0.79317-0.17839
   0  13  -3  600.91  229.70   1 0.55620-0.58796 0.54658 0.30648 0.62600-0.74857
   0 -13   2  357.34  159.95   1 0.87947-0.84101-0.40833-0.43128-0.24452 0.32662
   0  13  -2  266.45  142.81   1 0.56647-0.60519 0.51285 0.32491 0.64504-0.72675
   0  13  -1   28.57  114.09   1 0.57580-0.62147 0.47842 0.34404 0.66298-0.70384
   0 -13   0 1188.60  204.32   1 0.87521-0.82315-0.34963-0.45898-0.33428 0.33428
   0  13   0 1103.03  229.91   1 0.58332-0.63670 0.44369 0.36297 0.68034-0.68034
   0 -13  -1  -41.28   66.62   1 0.86843-0.80980-0.31589-0.47739-0.38213 0.34105
   0  13   1  105.39  124.68   1 0.59075-0.65094 0.40806 0.38343 0.69605-0.65517
   0  13   2  585.45  192.21   1 0.59720-0.66420 0.37206 0.40427 0.71056-0.62880
   0  13   3  322.65  210.53   1 0.60268-0.67649 0.33585 0.42531 0.72385-0.60120
   0  13   4  680.56  174.37   1 0.60748-0.68723 0.29886 0.44734 0.73596-0.57235
   0  13   5  504.19  190.57   1 0.61103-0.69760 0.26268 0.46832 0.74674-0.54223
   0  13   6  954.61  209.71   1 0.61365-0.70704 0.22685 0.48898 0.75628-0.51086
   0  13   7 5867.78  375.16   1 0.61540-0.71560 0.19155 0.50909 0.76458-0.47825
   0  13   8   19.65  115.84   1 0.61632-0.72334 0.15703 0.52842 0.77167-0.44445
   0  13   9  495.31  180.40   1 0.61662-0.72944 0.12186 0.54820 0.77776-0.40911
   0  13  10   66.17   99.83   1 0.61609-0.73565 0.08946 0.56542 0.78257-0.37296
   0  13  11 1098.07  210.21   1 0.61497-0.74127 0.05855 0.58116 0.78636-0.33579
   0  13  12  161.12  111.13   1 0.61337-0.74641 0.02937 0.59517 0.78924-0.29771
   0  13  13  276.68  182.93   1 0.61141-0.75118 0.00213 0.60724 0.79131-0.25881
   0  13  14  351.85  146.86   1 0.60919-0.75570-0.02292 0.61713 0.79268-0.21923
   0  13  15   15.81   71.65   1 0.60646-0.75893-0.04717 0.62609 0.79371-0.17893
   0  14  -2 1192.25  280.39   1 0.55877-0.60154 0.53848 0.36137 0.63071-0.71242
   0  14  -1  489.34  203.09   1 0.56828-0.61799 0.50651 0.37805 0.64845-0.68931
   0  14   0   87.11  138.63   1 0.57690-0.63357 0.47408 0.39517 0.66514-0.66514
   0  14   1  534.49  180.91   1 0.58381-0.64810 0.44151 0.41203 0.68134-0.64045
   0  14   2   -0.20  120.58   1 0.59068-0.66178 0.40842 0.42996 0.69590-0.61413
   0  14   3    3.91  112.99   1 0.59668-0.67459 0.37522 0.44799 0.70934-0.58669
   0  14   4  782.09  214.90   1 0.60181-0.68654 0.34207 0.46598 0.72166-0.55813
   0  14   5  236.69  243.25   1 0.60639-0.69700 0.30836 0.48472 0.73293-0.52841
   0  14   6  349.72  128.15   1 0.60985-0.70728 0.27574 0.50216 0.74299-0.49757
   0  14   7  -37.82  120.68   1 0.61253-0.71677 0.24366 0.51905 0.75195-0.46562
   0  14   8  819.14  239.80   1 0.61447-0.72553 0.21232 0.53521 0.75982-0.43260
   0  14   9  711.20  179.09   1 0.61573-0.73361 0.18191 0.55043 0.76666-0.39853
   0  14  10   48.45   97.00   1 0.61638-0.74107 0.15264 0.56452 0.77250-0.36347
   0  14  11  960.00  199.77   1 0.61663-0.74694 0.12287 0.57889 0.77760-0.32703
   0  14  12   -4.15   91.54   1 0.61626-0.75331 0.09637 0.59022 0.78162-0.29008
   0  14  13   62.79  137.67   1 0.61552-0.75930 0.07162 0.59980 0.78485-0.25236
   0  14  14  230.85  119.82   1 0.61450-0.76502 0.04882 0.60742 0.78740-0.21394
   0  15   1  104.37  148.26   1 0.57682-0.64450 0.47438 0.44166 0.66499-0.62414
   0  15   2   62.93  134.16   1 0.58325-0.65846 0.44402 0.45641 0.68018-0.59842
   0  15   3  455.75  185.82   1 0.58969-0.67172 0.41345 0.47182 0.69376-0.57111
   0  15   4  126.90  129.64   1 0.59535-0.68419 0.38299 0.48711 0.70630-0.54277
   0  15   5  168.47  139.65   1 0.60024-0.69589 0.35278 0.50215 0.71780-0.51338
   0  15   6  239.42  132.76   1 0.60440-0.70685 0.32297 0.51679 0.72827-0.48297
   0  15   7  195.05  171.32   1 0.60813-0.71641 0.29290 0.53188 0.73782-0.45150
   0  15   8  194.63  165.32   1 0.61089-0.72598 0.26432 0.54528 0.74628-0.41906
   0  15   9  -24.13  105.48   1 0.61302-0.73494 0.23663 0.55778 0.75379-0.38566
   0  15  10   85.59  106.29   1 0.61459-0.74332 0.21000 0.56923 0.76037-0.35134
   0  15  11  217.29  158.56   1 0.61564-0.75119 0.18461 0.57943 0.76608-0.31615
   0  15  12  137.01  109.03   1 0.61626-0.75862 0.16065 0.58822 0.77098-0.28014
   0  15  13  -32.71  101.15   1 0.61650-0.76568 0.13828 0.59540 0.77511-0.24337
  -1  15  11   22.94   96.91   1 0.60797-0.83470 0.29432 0.46972 0.73738-0.28744
  -1  15  10   65.06  107.58   1 0.60522-0.82614 0.31646 0.46264 0.73045-0.32162
  -1  15   9  193.94  178.17   1 0.60228-0.81640 0.33872 0.45555 0.72285-0.35490
  -1  15   8  275.06  130.85   1 0.59882-0.80612 0.36205 0.44738 0.71437-0.38730
  -1  15   7  476.47  211.35   1 0.59478-0.79527 0.38627 0.43832 0.70499-0.41881
  -1  15   6  389.67  205.34   1 0.59013-0.78381 0.41122 0.42854 0.69471-0.44941
  -1  15   5  239.62  141.17   1 0.58486-0.77172 0.43673 0.41820 0.68351-0.47910
  -1  15   4   66.43  129.32   1 0.57892-0.75898 0.46266 0.40744 0.67140-0.50787
  -1  15   3   89.51  125.76   1 0.57314-0.74573 0.48869 0.39676 0.65779-0.53522
  -1  15   2   22.12  129.18   1 0.56587-0.73150 0.51495 0.38579 0.64390-0.56218
  -1  14  12  205.21  171.47   1 0.61401-0.84352 0.22074 0.46605 0.75779-0.26695
  -1  14  11   51.69   90.51   1 0.61260-0.83528 0.24271 0.45926 0.75220-0.30226
  -1  14  10   -6.81   81.58   1 0.61072-0.82659 0.26621 0.45095 0.74575-0.33671
  -1  14   9   -5.99   89.87   1 0.60833-0.81738 0.29101 0.44133 0.73840-0.37027
  -1  14   8   -2.54   88.90   1 0.60503-0.80823 0.31793 0.42945 0.72996-0.40290
  -1  14   7   -0.06   85.24   1 0.60144-0.79782 0.34467 0.41788 0.72073-0.43455
  -1  14   6  629.12  159.27   1 0.59720-0.78677 0.37210 0.40561 0.71055-0.46525
  -1  14   5  -40.95  100.14   1 0.59227-0.77503 0.40006 0.39282 0.69939-0.49498
  -1  14   4  -60.28  113.38   1 0.58664-0.76259 0.42838 0.37967 0.68726-0.52373
  -1  14   3  353.05  188.38   1 0.58029-0.74943 0.45690 0.36631 0.67415-0.55150
  -1  14   2  280.12  203.06   1 0.57405-0.73564 0.48522 0.35344 0.65956-0.57784
  -1  14   1   80.79  196.00   1 0.56624-0.72088 0.51365 0.34030 0.64461-0.60375
  -1  14   0  -94.24  136.93   1 0.55769-0.70537 0.54192 0.32733 0.62872-0.62872
  -1  13  12   82.74  105.94   1 0.61622-0.84168 0.16285 0.46187 0.77055-0.27971
  -1  13  11  237.37  147.76   1 0.61554-0.83419 0.18761 0.45229 0.76544-0.31550
   1 -13 -10   85.35   59.66   1 0.50731-0.29761 0.19761-0.85361-0.83879 0.42750
  -1  13  10  121.79  153.51   1-0.49292 0.28314-0.19998 0.85445 0.84677-0.43557
  -1  13  10   30.97   81.98   1 0.61438-0.82622 0.21398 0.44111 0.75943-0.35039
   1 -13  -9   67.49   64.75   1 0.55911-0.35601 0.15032-0.82162-0.81534 0.44518
  -1  13   9   43.92   80.61   1-0.54570 0.34265-0.15281 0.82256 0.82392-0.45384
  -1  13   9  172.32  126.06   1 0.61267-0.81768 0.24171 0.42856 0.75246-0.38433
   1 -13  -8 3170.81  655.79   1 0.61042-0.41356 0.10100-0.78732-0.78560 0.45724
  -1  13   8 3935.37  293.25   1-0.59540 0.39851-0.10352 0.78895 0.79672-0.46769
  -1  13   8 2929.99  308.69   1 0.61033-0.80853 0.27055 0.41490 0.74450-0.41727
   1 -13  -7  602.59  139.86   1 0.65706-0.46681 0.05080-0.75235-0.75212 0.46480
  -1  13   7  640.22  198.64   1 0.60732-0.79870 0.30028 0.40036 0.73551-0.44919
   1 -13  -6   86.83   45.53   1 0.69961-0.51597 0.00058-0.71732-0.71452 0.46819
  -1  13   6   50.21  109.74   1 0.60326-0.78872 0.33163 0.38403 0.72532-0.48002
   1 -13  -5   57.67   63.46   1 0.73766-0.56064-0.04892-0.68303-0.67339 0.46812
  -1  13   5  146.66  121.96   1 0.59876-0.77741 0.36244 0.36839 0.71422-0.50981
   1 -13  -4  852.88  147.56   1 0.76926-0.59953-0.09705-0.64969-0.63151 0.46738
  -1  13   4 1146.25  282.40   1 0.59348-0.76532 0.39352 0.35247 0.70207-0.53854
   1 -13  -3 4955.05  350.08   1 0.79750-0.63435-0.14297-0.61903-0.58612 0.46302
  -1  13   3 3473.92  360.76   1 0.58741-0.75244 0.42471 0.33645 0.68888-0.56623
   1 -13  -2  454.66  246.84   1 0.82088-0.66430-0.18636-0.59089-0.53982 0.45776
  -1  13   2  727.15  243.95   1 0.58054-0.73876 0.45585 0.32048 0.67465-0.59289
  -1  13   1 1343.60  236.24   1 0.57374-0.72432 0.48641 0.30545 0.65895-0.61809
   1 -13   0  100.53   99.69   1 0.85365-0.71061-0.26535-0.54237-0.44817 0.44817
  -1  13   0   36.21  114.14   1 0.56528-0.70892 0.51695 0.29021 0.64280-0.64280
   1 -13   1  315.53  146.82   1 0.86474-0.72839-0.30061-0.52239-0.40230 0.44332
  -1  13  -1   17.78  117.51   1 0.55604-0.69272 0.54709 0.27537 0.62570-0.66655
   1 -13   2  922.61  177.24   1 0.87234-0.74231-0.33358-0.50571-0.35741 0.43957
   1 -13   3  242.77  166.59   1 0.87718-0.75372-0.36362-0.49101-0.31357 0.43681
   1 -13   4 1107.94  253.23   1 0.87947-0.76258-0.39135-0.47861-0.27086 0.43518
   1 -13   5  842.03  236.68   1 0.87925-0.76940-0.41746-0.46804-0.22942 0.43468
  -1  12  15  527.65  184.49   1-0.14831-0.09098-0.44201 0.95901 0.88466-0.26835
  -1  12  14 1482.79  234.32   1-0.19030-0.04228-0.41738 0.94882 0.88858-0.31297
  -1  12  13   47.15   84.71   1-0.23881 0.01296-0.38775 0.93447 0.89028-0.35579
  -1  12  13   41.30  101.71   1 0.61550-0.84232 0.07112 0.47620 0.78491-0.25242
  -1  12  12  148.95  125.26   1-0.29140 0.07229-0.35363 0.91563 0.88883-0.39545
  -1  12  12  109.07  112.73   1 0.61628-0.83636 0.09730 0.46520 0.78148-0.28995
  -1  12  11   98.51   92.98   1-0.34659 0.13393-0.31497 0.89232 0.88355-0.43106
  -1  12  11   41.19   82.62   1 0.61664-0.82999 0.12551 0.45215 0.77717-0.32660
  -1  12  10 2999.50  248.09   1-0.40481 0.19890-0.27183 0.86444 0.87305-0.46170
  -1  12  10 2130.07  225.58   1 0.61631-0.82410 0.15777 0.43524 0.77153-0.36250
   1 -12  -9 3098.08  616.53   1 0.47782-0.27876 0.22301-0.83207-0.84967 0.47951
  -1  12   9 3757.90  282.55   1-0.46359 0.26448-0.22473 0.83239 0.85707-0.48699
  -1  12   9 2648.31  349.77   1 0.61549-0.81647 0.18898 0.41922 0.76514-0.39701
   1 -12  -8 2390.99  428.30   1 0.53561-0.34315 0.17223-0.79659-0.82671 0.49768
  -1  12   8 2303.27  304.60   1-0.52236 0.32997-0.17411 0.79704 0.83476-0.50580
  -1  12   8 1896.24  284.45   1 0.61398-0.80814 0.22134 0.40204 0.75764-0.43042
   1 -12  -7  104.45   55.48   1 0.59251-0.40633 0.11918-0.75856-0.79669 0.50938
  -1  12   7   38.88   92.01   1-0.57764 0.39143-0.12108 0.75964 0.80725-0.51934
  -1  12   7  125.71   99.56   1 0.61170-0.79904 0.25458 0.38399 0.74900-0.46268
   1 -12  -6 1455.89  282.17   1 0.64414-0.46457 0.06516-0.71976-0.76212 0.51585
  -1  12   6  959.56  192.35   1 0.60860-0.78912 0.28843 0.36532 0.73919-0.49377
   1 -12  -5 2126.71  424.48   1 0.69090-0.51794 0.01124-0.68105-0.72286 0.51758
  -1  12   5 1822.85  303.44   1 0.60432-0.77886 0.32360 0.34518 0.72806-0.52365
   1 -12  -4  921.62  183.66   1 0.73230-0.56596-0.04162-0.64339-0.67970 0.51548
  -1  12   4  697.90  219.12   1 0.59946-0.76720 0.35794 0.32601 0.71590-0.55237
   1 -12  -3  167.28   91.06   1 0.76646-0.60734-0.09280-0.60706-0.63554 0.51244
  -1  12   3  -48.30  123.75   1 0.59371-0.75464 0.39224 0.30687 0.70259-0.57994
   1 -12  -2   46.41   80.04   1 0.79646-0.64390-0.14116-0.57395-0.58798 0.50591
  -1  12   2   -3.85  110.52   1 0.58707-0.74119 0.42633 0.28794 0.68816-0.60640
   1 -12  -1 7811.06  396.76   1 0.82096-0.67498-0.18652-0.54385-0.53965 0.49861
  -1  12   1 5875.42  397.55   1 0.57954-0.72684 0.46007 0.26937 0.67264-0.63176
   1 -12   0 5944.71  364.24   1 0.83960-0.70054-0.22917-0.51642-0.49248 0.49248
  -1  12   0 4273.49  358.29   1 0.57205-0.71163 0.49278 0.25229 0.65567-0.65567
   1 -12   1   39.61   89.25   1 0.85469-0.72233-0.26833-0.49254-0.44439 0.48541
  -1  12  -1 -104.52  114.96   1 0.56281-0.69545 0.52531 0.23506 0.63818-0.67903
   1 -12   2   -6.25  100.26   1 0.86577-0.74010-0.30440-0.47176-0.39720 0.47924
   1 -12   3  320.25  202.44   1 0.87316-0.75371-0.33782-0.45460-0.35136 0.47460
   1 -12   4  218.94  115.00   1 0.87771-0.76482-0.36821-0.43955-0.30666 0.47098
   1 -12   5  238.28  132.38   1 0.87963-0.77333-0.39613-0.42697-0.26327 0.46867
   1 -12   6  280.46  127.90   1 0.87902-0.77970-0.42226-0.41631-0.22137 0.46768
   1 -12   7   67.80  130.06   1 0.87669-0.78395-0.44586-0.40801-0.18055 0.46791
  -1  11  18   15.05   98.79   1 0.04612-0.30138-0.53884 0.94808 0.84114-0.10149
  -1  11  17  428.09  169.49   1 0.01935-0.26788-0.52706 0.95153 0.84960-0.15104
  -1  11  16   16.30  101.62   1-0.01189-0.23024-0.51247 0.95209 0.85862-0.20123
  -1  11  15 3506.63  335.46   1-0.04847-0.18690-0.49481 0.94967 0.86764-0.25134
  -1  11  14 1595.05  226.36   1-0.09041-0.13822-0.47346 0.94357 0.87616-0.30094
  -1  11  14 1276.45  185.31   1 0.60857-0.83811-0.02927 0.49938 0.79295-0.21950
  -1  11  13  -82.91   93.57   1-0.13780-0.08408-0.44789 0.93324 0.88340-0.34927
  -1  11  13   19.73   57.54   1 0.61106-0.83386-0.00209 0.48737 0.79157-0.25908
  -1  11  12  895.78  213.73   1-0.18863-0.02654-0.41837 0.91825 0.88847-0.39509
  -1  11  12  550.02  146.05   1 0.61327-0.82934 0.02772 0.47273 0.78938-0.29785
  -1  11  11 1900.26  296.47   1-0.24635 0.03791-0.38299 0.89816 0.89029-0.43803
  -1  11  11 2106.87  308.24   1 0.61503-0.82436 0.05982 0.45579 0.78622-0.33565
  -1  11  10  163.83   99.29   1-0.30746 0.10548-0.34230 0.87281 0.88785-0.47651
  -1  11  10  143.55  102.69   1 0.61620-0.81880 0.09386 0.43693 0.78197-0.37236
  -1  11   9  -23.14   87.85   1-0.37216 0.17693-0.29640 0.84217 0.87956-0.50935
  -1  11   9   -6.42   69.18   1 0.61650-0.81344 0.13172 0.41441 0.77624-0.40812
  -1  11   8 4427.46  309.59   1-0.43771 0.24928-0.24580 0.80663 0.86486-0.53590
  -1  11   8 2804.85  242.87   1 0.61610-0.80622 0.16835 0.39296 0.76946-0.44223
   1 -11  -7 6056.15  804.09   1 0.51611-0.33428 0.18983-0.76726-0.83521 0.54731
  -1  11   7 6466.14  506.14   1-0.50309 0.32138-0.19115 0.76727 0.84282-0.55498
  -1  11   7 4884.30  407.81   1 0.61479-0.79810 0.20585 0.37065 0.76134-0.47502
   1 -11  -6 1291.26  267.68   1 0.57901-0.40350 0.13253-0.72497-0.80447 0.55820
  -1  11   6 1415.29  228.71   1-0.56442 0.38888-0.13384 0.72552 0.81456-0.56778
  -1  11   6  705.15  158.02   1 0.61251-0.78900 0.24390 0.34778 0.75188-0.50646
   1 -11  -5  -22.50   74.03   1 0.63581-0.46692 0.07422-0.68188-0.76826 0.56303
  -1  11   5   33.88   83.90   1-0.62275 0.45382-0.07542 0.68232 0.77877-0.57312
  -1  11   5   75.59   90.68   1 0.60923-0.77890 0.28220 0.32466 0.74107-0.53656
   1 -11  -4   17.48   37.89   1 0.68671-0.52444 0.01629-0.63916-0.72674 0.56252
  -1  11   4  100.30  106.41   1 0.60459-0.76823 0.32141 0.30048 0.72880-0.56526
   1 -11  -3  198.13   52.06   1 0.73116-0.57550-0.04009-0.59798-0.68102 0.55785
  -1  11   3  166.04  141.33   1 0.59923-0.75605 0.35942 0.27764 0.71535-0.59270
   1 -11  -2 1042.13  213.72   1 0.76744-0.61892-0.09428-0.55869-0.63414 0.55207
  -1  11   2  682.56  161.00   1 0.59284-0.74285 0.39700 0.25522 0.70065-0.61889
   1 -11  -1 1932.68  207.46   1 0.79863-0.65668-0.14494-0.52330-0.58409 0.54306
  -1  11   1 1125.51  177.72   1 0.58545-0.72865 0.43398 0.23341 0.68476-0.64387
   1 -11   0  123.54  117.28   1 0.82368-0.68829-0.19200-0.49149-0.53355 0.53355
  -1  11   0  188.15  136.01   1 0.57801-0.71354 0.46964 0.21334 0.66733-0.66733
   1 -11   1  386.48  171.87   1 0.84246-0.71408-0.23602-0.46272-0.48429 0.52531
  -1  11  -1   56.46  122.06   1 0.56873-0.69731 0.50489 0.19339 0.64932-0.69017
   1 -11   2  392.85  196.53   1 0.85726-0.73559-0.27595-0.43808-0.43467 0.51671
  -1  11  -2  -34.20  119.85   1 0.55854-0.68018 0.53921 0.17437 0.63029-0.71200
   1 -11   3  161.12  142.56   1 0.86765-0.75220-0.31270-0.41753-0.38651 0.50976
   1 -11   4   11.77  111.32   1 0.87461-0.76574-0.34597-0.39959-0.33962 0.50394
   1 -11   5   67.55  119.57   1 0.87850-0.77620-0.37636-0.38453-0.29423 0.49963
   1 -11   6  175.28  138.71   1 0.87976-0.78402-0.40415-0.37208-0.25035 0.49684
   1 -11   7 1440.46  268.42   1 0.87848-0.78970-0.43001-0.36163-0.20820 0.49556
   1 -11   8  537.01  209.63   1 0.87552-0.79330-0.45333-0.35361-0.16718 0.49559
   1 -11   9    4.80  136.96   1 0.87083-0.79518-0.47476-0.34748-0.12745 0.49691
  -1  10  20  101.66  135.01   1 0.16525-0.42966-0.58561 0.90254 0.79356 0.02818
  -1  10  19  701.32  176.69   1 0.15067-0.40835-0.58044 0.91261 0.80024-0.01957
  -1  10  18 2401.08  328.64   1 0.13269-0.38406-0.57364 0.92075 0.80828-0.06863
  -1  10  17   24.32  107.40   1 0.11003-0.35466-0.56503 0.92737 0.81770-0.11914
  -1  10  16 1087.90  213.03   1 0.08261-0.32050-0.55413 0.93171 0.82831-0.17085
  -1  10  15    6.49   88.79   1 0.04993-0.28108-0.54048 0.93329 0.83987-0.22349
  -1  10  14  148.31  126.30   1 0.01150-0.23592-0.52351 0.93155 0.85194-0.27665
  -1  10  14   35.46   58.41   1 0.59716-0.82216-0.11719 0.52513 0.79351-0.21972
  -1  10  13 7164.65  731.10   1-0.03280-0.18517-0.50248 0.92569 0.86396-0.32983
  -1  10  13 5894.04  597.85   1 0.60165-0.81993-0.08623 0.50935 0.79408-0.26128
  -1  10  1212438.12  408.74   1-0.08377-0.12745-0.47692 0.91537 0.87494-0.38190
  -1  10  12 9746.62  350.01   1 0.60590-0.81745-0.05216 0.49047 0.79382-0.30200
  -1  10  11 1522.36  172.75   1-0.14116-0.06331-0.44602 0.89971 0.88381-0.43186
  -1  10  11 1180.23  145.12   1 0.61004-0.81536-0.01379 0.46737 0.79224-0.34167
  -1  10  10  146.83  115.96   1-0.20276 0.00498-0.40993 0.87826 0.88929-0.47814
  -1  10  10   44.81   64.13   1 0.61310-0.81168 0.02516 0.44359 0.78960-0.37999
  -1  10   917484.22  970.42   1-0.27133 0.08029-0.36690 0.85052 0.88980-0.51977
  -1  10   912825.74  740.84   1 0.61529-0.80714 0.06592 0.41800 0.78553-0.41688
  -1  10   8 1559.54  204.18   1-0.34269 0.15815-0.31775 0.81667 0.88407-0.55499
  -1  10   8  974.21  160.54   1 0.61647-0.80158 0.10802 0.39107 0.77992-0.45223
  -1  10   722685.24 1208.02   1-0.41634 0.23855-0.26291 0.77709 0.87036-0.58241
  -1  10   717423.47  972.82   1 0.61637-0.79564 0.15300 0.36142 0.77244-0.48611
   1 -10  -6 2057.76  367.37   1 0.50139-0.33021 0.20279-0.73329-0.84111 0.59434
  -1  10   6 2316.23  238.71   1-0.48871 0.31767-0.20358 0.73288 0.84835-0.60163
  -1  10   6 2185.60  250.63   1 0.61521-0.78767 0.19625 0.33335 0.76353-0.51811
   1 -10  -511609.92  797.38   1 0.57074-0.40591 0.14055-0.68605-0.80900 0.60378
  -1  10   512606.77  392.21   1-0.55807 0.39375-0.14122 0.68579 0.81768-0.61208
  -1  10   5 9291.70  373.78   1 0.61282-0.77845 0.23960 0.30519 0.75301-0.54850
   1 -10  -412937.90  984.09   1 0.63285-0.47463 0.07741-0.63814-0.77039 0.60621
  -1  10   412802.93  409.84   1-0.62028 0.46202-0.07802 0.63805 0.78048-0.61597
  -1  10   4 9678.64  404.47   1 0.60918-0.76799 0.28270 0.27727 0.74092-0.57731
   1 -10  -3  249.42  112.01   1 0.68766-0.53606 0.01515-0.59108-0.72586 0.60270
   1 -10  -2 1256.33  192.83   1 0.73467-0.58969-0.04484-0.54630-0.67693 0.59482
  -1  10   1  296.48  193.14   1 0.59062-0.72971 0.40875 0.19659 0.69576-0.65488
   1 -10   0   69.32   73.91   1 0.80408-0.67273-0.15458-0.46677-0.57406 0.57406
  -1  10   0  -19.18  138.36   1 0.58224-0.71452 0.44847 0.17203 0.67812-0.67812
   1 -10   1 1363.65  216.13   1 0.82894-0.70416-0.20297-0.43364-0.52119 0.56223
  -1  10  -1  806.68  173.40   1 0.57378-0.69832 0.48624 0.14995 0.65903-0.69989
   1 -10   2 1825.37  233.41   1 0.84720-0.72951-0.24791-0.40398-0.46986 0.55190
  -1  10  -2 1451.41  244.47   1 0.56340-0.68098 0.52335 0.12815 0.63927-0.72099
   1 -10   3 1918.44  248.33   1 0.86113-0.75013-0.28816-0.37902-0.41881 0.54188
   1 -10   415984.52  531.05   1 0.87049-0.76562-0.32481-0.35855-0.36976 0.53409
   1 -10   5  354.19  159.17   1 0.87643-0.77813-0.35786-0.34083-0.32216 0.52757
   1 -10   6 5166.48  407.69   1 0.87930-0.78758-0.38788-0.32615-0.27633 0.52282
   1 -10   7   84.10  143.55   1 0.87932-0.79450-0.41560-0.31381-0.23251 0.51988
   1 -10   8  -82.35  125.90   1 0.87741-0.79916-0.44049-0.30422-0.19002 0.51844
   1 -10  10  752.86  229.13   1 0.86813-0.80302-0.48411-0.29120-0.10943 0.51995
   1 -10  11  105.60  151.91   1 0.86081-0.80387-0.50415-0.28568-0.06942 0.52169
  -1   9  20  287.11  181.85   1 0.23855-0.49909-0.60929 0.86406 0.75620 0.06554
  -1   9  19  680.24  218.29   1 0.22793-0.48174-0.60610 0.87611 0.76202 0.01864
  -1   9  18  111.98  105.53   1 0.21377-0.46085-0.60172 0.88696 0.76956-0.02998
  -1   9  17 1914.79  274.44   1 0.19560-0.43595-0.59589 0.89636 0.77887-0.08038
  -1   9  16 3431.27  273.81   1 0.17289-0.40651-0.58825 0.90397 0.78997-0.13256
  -1   9  15  813.14  184.12   1 0.14548-0.37275-0.57835 0.90903 0.80270-0.18633
  -1   9  14  611.01  209.06   1 0.11186-0.33238-0.56573 0.91165 0.81696-0.24167
  -1   9  14  422.72  137.24   1 0.57762-0.79874-0.21677 0.56291 0.78699-0.21247
  -1   9  13  438.98  162.00   1 0.07175-0.28553-0.54967 0.91082 0.83228-0.29809
  -1   9  13  377.41  100.78   1 0.58609-0.80040-0.18046 0.54152 0.78988-0.25708
  -1   9  12 1396.38  226.13   1 0.02452-0.23157-0.52937 0.90575 0.84803-0.35493
  -1   9  12  952.84  144.42   1 0.59315-0.80074-0.14182 0.51807 0.79249-0.30067
  -1   9  11  582.78  142.42   1-0.03002-0.17054-0.50383 0.89539 0.86327-0.41132
  -1   9  11  412.13   87.54   1 0.59976-0.80061-0.09977 0.49121 0.79393-0.34309
  -1   9  10 5706.95  422.12   1-0.09254-0.10127-0.47234 0.87914 0.87654-0.46567
  -1   9  10 5094.01  357.69   1 0.60559-0.79972-0.05485 0.46148 0.79388-0.38403
  -1   9   9 1029.69  185.92   1-0.16074-0.02637-0.43460 0.85610 0.88615-0.51612
  -1   9   9  862.68  153.30   1 0.61071-0.79854-0.00619 0.42807 0.79182-0.42317
  -1   9   858706.69  736.39   1-0.23707 0.05669-0.38884 0.82562 0.89027-0.56135
  -1   9   846057.85  784.19   1 0.61416-0.79525 0.04252 0.39452 0.78803-0.46034
  -1   9   724658.51 1185.23   1-0.31706 0.14321-0.33571 0.78779 0.88699-0.59905
  -1   9   717947.60  903.02   1 0.61616-0.79052 0.09224 0.35997 0.78219-0.49546
  -1   9   6 4048.13  286.25   1-0.39957 0.23246-0.27584 0.74318 0.87421-0.62740
  -1   9   6 3049.76  245.48   1 0.61646-0.78488 0.14426 0.32327 0.77405-0.52863
   1  -9  -510565.17  892.82   1 0.49252-0.33197 0.21048-0.69404-0.84446 0.63881
  -1   9   510928.88  576.88   1-0.48028 0.31991-0.21076 0.69323 0.85141-0.64581
  -1   9   5 8286.15  483.78   1 0.61530-0.77690 0.19401 0.28870 0.76403-0.55952
   1  -9  -4 3255.42  291.87   1 0.56876-0.41460 0.14247-0.64103-0.81006 0.64589
  -1   9   4 3257.08  242.15   1-0.55670 0.40305-0.14251 0.64026 0.81839-0.65391
  -1   9   4 2182.70  201.99   1 0.61256-0.76734 0.24318 0.25472 0.75207-0.58846
   1  -9  -3 9390.97  840.83   1 0.63611-0.48856 0.07390-0.58769-0.76805 0.64491
  -1   9   3 6533.99  406.16   1 0.60828-0.75625 0.29140 0.22168 0.73828-0.61557
   1  -9  -212653.97  845.43   1 0.69436-0.55344 0.00703-0.53602-0.71958 0.63747
  -1   9   2 9454.76  545.67   1 0.60221-0.74401 0.33923 0.18889 0.72267-0.64090
   1  -9  -1 5590.79  702.83   1 0.74315-0.60885-0.05652-0.48768-0.66672 0.62567
  -1   9   1 3968.21  321.20   1 0.59505-0.73004 0.38470 0.15859 0.70562-0.66474
   1  -9   0  176.80   88.67   1 0.78145-0.65413-0.11618-0.44303-0.61304 0.61304
  -1   9   0   76.01  112.54   1 0.58660-0.71478 0.42857 0.12989 0.68717-0.68717
   1  -9   1 1363.99  209.27   1 0.81265-0.69190-0.17038-0.40409-0.55727 0.59830
  -1   9  -1  984.55  191.87   1 0.57794-0.69843 0.46992 0.10418 0.66719-0.70805
   1  -9   2  792.46  176.08   1 0.83579-0.72208-0.22036-0.36940-0.50287 0.58491
  -1   9  -2  911.26  210.15   1 0.56723-0.68077 0.51019 0.07921 0.64648-0.72819
   1  -9   3  480.71  140.58   1 0.85347-0.74646-0.26484-0.34021-0.44881 0.57188
  -1   9  -3  447.71  169.47   1 0.55551-0.66210 0.54871 0.05599 0.62475-0.74731
   1  -9   4    8.59   96.40   1 0.86589-0.76557-0.30486-0.31547-0.39659 0.56067
   1  -9   5 1399.50  244.85   1 0.87373-0.77943-0.34090-0.29559-0.34695 0.55235
   1  -9   6 -148.06  108.32   1 0.87822-0.79050-0.37328-0.27855-0.29895 0.54544
   1  -9   7 4452.12  566.70   1 0.87975-0.79860-0.40253-0.26464-0.25299 0.54055
   1  -9   8   36.98  140.15   1 0.87853-0.80426-0.42939-0.25309-0.20927 0.53768
   1  -9   9   40.53  130.22   1 0.87550-0.80779-0.45344-0.24434-0.16697 0.53644
   1  -9  10  153.72  153.67   1 0.87067-0.80952-0.47537-0.23771-0.12628 0.53680
   1  -9  11    8.57  136.24   1 0.86389-0.81090-0.49639-0.23129-0.08525 0.53752
   1  -9  12   48.48  143.03   1 0.85602-0.80974-0.51477-0.22822-0.04719 0.54057
  -1   8  21  717.61  248.11   1 0.30977-0.57092-0.63091 0.80678 0.71132 0.15216
  -1   8  20  141.34  126.90   1 0.30586-0.56035-0.62996 0.82111 0.71385 0.10851
  -1   8  19 1016.42  237.71   1 0.29916-0.54701-0.62832 0.83473 0.71813 0.06312
  -1   8  18   81.24  128.01   1 0.28919-0.53240-0.62331 0.84638 0.72653 0.01304
  -1   8  17  950.18  209.41   1 0.27573-0.51221-0.61977 0.85809 0.73474-0.03624
  -1   8  16  273.44  143.21   1 0.25812-0.48787-0.61494 0.86849 0.74512-0.08772
  -1   8  15  195.63  154.18   1 0.23572-0.45874-0.60845 0.87723 0.75777-0.14145
  -1   8  14  649.00  170.54   1 0.20777-0.42406-0.59982 0.88384 0.77268-0.19745
  -1   8  14  592.17  120.89   1 0.54880-0.76597-0.32877 0.61288 0.76857-0.19405
  -1   8  13  257.02  104.75   1 0.17341-0.38298-0.58843 0.88769 0.78972-0.25558
  -1   8  13  303.17   98.64   1 0.55951-0.76993-0.29095 0.59021 0.77607-0.24258
  -1   8  12 2913.05  294.81   1 0.13223-0.33538-0.57347 0.88772 0.80848-0.31538
  -1   8  12 2160.63  200.36   1 0.57045-0.77412-0.24800 0.56241 0.78298-0.29054
  -1   8  11 2695.15  255.25   1 0.08236-0.27877-0.55403 0.88351 0.82840-0.37640
  -1   8  11 2295.57  174.30   1 0.58244-0.77933-0.19863 0.52802 0.78822-0.33739
  -1   8  1010050.61  570.97   1 0.02346-0.21314-0.52890 0.87362 0.84835-0.43744
  -1   8  10 8602.45  474.34   1 0.59227-0.78244-0.14692 0.49150 0.79222-0.38237
  -1   8   9 5400.79  364.19   1-0.04460-0.13856-0.49672 0.85662 0.86676-0.49698
  -1   8   9 4052.37  280.88   1 0.60085-0.78429-0.09202 0.45178 0.79404-0.42517
  -1   8   814966.67  882.35   1-0.12210-0.05431-0.45653 0.83168 0.88128-0.55259
  -1   8   813443.86  809.63   1 0.60815-0.78523-0.03339 0.40839 0.79311-0.46542
  -1   8   7 8781.61  556.90   1-0.20598 0.03626-0.40799 0.79794 0.88944-0.60163
  -1   8   7 6761.55  457.21   1 0.61309-0.78343 0.02502 0.36514 0.78961-0.50288
  -1   8   6 8681.10  548.04   1-0.29702 0.13406-0.34985 0.75508 0.88846-0.64177
  -1   8   6 6339.61  433.24   1 0.61593-0.77954 0.08386 0.32148 0.78331-0.53755
  -1   8   5 2349.94  228.50   1-0.38912 0.23269-0.28376 0.70426 0.87639-0.67071
  -1   8   5 1591.74  189.24   1 0.61646-0.77402 0.14411 0.27654 0.77407-0.56956
   1  -8  -414315.16  850.88   1 0.49087-0.34097 0.21189-0.64852-0.84506 0.68055
  -1   8   415126.91  888.50   1-0.47922 0.32952-0.21166 0.64731 0.85178-0.68730
  -1   8   410944.90  681.90   1 0.61500-0.76575 0.20120 0.23463 0.76241-0.59880
   1  -8  -3  980.26  190.29   1 0.57430-0.43083 0.13711-0.58873-0.80707 0.68393
  -1   8   3 1011.78  131.85   1-0.56146 0.41794-0.13665 0.58772 0.81613-0.69274
  -1   8   3  810.98  137.00   1 0.61153-0.75545 0.25669 0.19433 0.74842-0.62571
   1  -8  -2 4260.66  404.53   1 0.64653-0.50966 0.06253-0.52938-0.76031 0.67822
  -1   8   2 3016.82  266.71   1 0.60587-0.74356 0.31108 0.15499 0.73221-0.65045
   1  -8  -112226.67 1106.33   1 0.70733-0.57708-0.00906-0.47299-0.70682 0.66576
  -1   8   1 8958.01  585.46   1 0.59878-0.72965 0.36232 0.11892 0.71427-0.67338
   1  -8   0 2630.93  537.57   1 0.75672-0.63309-0.07587-0.42139-0.64932 0.64932
  -1   8   0 1706.27  207.32   1 0.59014-0.71420 0.41120 0.08521 0.69472-0.69472
   1  -8   1 9075.15  586.91   1 0.79434-0.67762-0.13753-0.37481-0.59169 0.63272
  -1   8  -1 6152.90  458.52   1 0.58011-0.69737 0.45767 0.05390 0.67379-0.71467
   1  -8   2 8353.07  498.38   1 0.82394-0.71379-0.19255-0.33504-0.53294 0.61501
  -1   8  -2 5985.04  402.57   1 0.56991-0.67940 0.50065 0.02666 0.65156-0.73328
   1  -8   3  193.48  112.17   1 0.84517-0.74215-0.24273-0.30018-0.47618 0.59925
  -1   8  -3  317.90  188.17   1 0.55760-0.66014 0.54219 0.00043 0.62856-0.75113
   1  -8   4  683.61  178.46   1 0.86068-0.76435-0.28668-0.27152-0.42075 0.58484
   1  -8   5  507.60  161.56   1 0.87072-0.78043-0.32582-0.24846-0.36834 0.57374
   1  -8   625799.91 1611.47   1 0.87681-0.79309-0.36070-0.22893-0.31795 0.56443
   1  -8   7 8413.27  406.90   1 0.87949-0.80235-0.39192-0.21304-0.26996 0.55753
   1  -8   8  400.97  172.70   1 0.87912-0.80881-0.42033-0.19991-0.22461 0.55303
   1  -8   9 1348.71  279.34   1 0.87673-0.81299-0.44563-0.18992-0.18096 0.55043
   1  -8  10   -9.16  137.71   1 0.87240-0.81522-0.46855-0.18230-0.13918 0.54969
   1  -8  11   68.64  130.01   1 0.86641-0.81580-0.48939-0.17676-0.09907 0.55064
   1  -8  12 1226.08  291.00   1 0.85850-0.81617-0.50946-0.17139-0.05840 0.55179
   1  -8  13  203.59  145.36   1 0.84970-0.81408-0.52683-0.16931-0.02101 0.55551
   1  -8  14  362.40  232.02   1 0.83975-0.81084-0.54275-0.16870 0.01519 0.56042
  -1   7  21  471.21  176.97   1 0.36723-0.62456-0.64329 0.75707 0.67179 0.19169
  -1   7  19 1156.79  239.98   1 0.36366-0.60770-0.64260 0.78694 0.67439 0.10685
  -1   7  18  213.77  201.29   1 0.35795-0.59535-0.64148 0.80109 0.67850 0.06163
  -1   7  17 2845.98  288.18   1 0.34912-0.57987-0.63969 0.81458 0.68476 0.01425
  -1   7  16  336.43  136.29   1 0.33665-0.56076-0.63705 0.82721 0.69341-0.03551
  -1   7  15  125.33  131.49   1 0.31992-0.53739-0.63330 0.83873 0.70467-0.08789
  -1   7  15   79.76   67.40   1 0.49076-0.71068-0.48886 0.69555 0.72121-0.10549
  -1   7  14  302.73  112.42   1 0.29809-0.51052-0.62556 0.84742 0.72097-0.14574
  -1   7  14   -7.93   47.90   1 0.50402-0.71719-0.45679 0.67864 0.73300-0.15833
  -1   7  1330800.49 1626.45   1 0.27043-0.47612-0.61835 0.85544 0.73790-0.20376
  -1   7  1326878.68 1382.38   1 0.51889-0.72531-0.41791 0.65493 0.74572-0.21209
  -1   7  12 8047.04  365.95   1 0.23575-0.43471-0.60846 0.86078 0.75775-0.26470
  -1   7  12 6928.50  247.65   1 0.53568-0.73540-0.37076 0.62314 0.75866-0.26621
  -1   7  11 8007.67  483.00   1 0.19279-0.38503-0.59496 0.86252 0.78028-0.32831
  -1   7  11 7278.93  404.81   1 0.55187-0.74484-0.31829 0.58583 0.77078-0.31938
  -1   7  10   77.71   88.21   1 0.14074-0.32652-0.57662 0.85920 0.80479-0.39388
  -1   7  10    0.59   42.64   1 0.56760-0.75382-0.25969 0.54238 0.78126-0.37089
  -1   7   9 3416.63  283.32   1 0.07745-0.25650-0.55202 0.84984 0.83021-0.46039
  -1   7   9 2999.23  232.13   1 0.58338-0.76285-0.19403 0.49174 0.78867-0.41981
  -1   7   8  136.30   95.20   1 0.00251-0.17481-0.51939 0.83245 0.85452-0.52579
  -1   7   8  150.65   71.57   1 0.59571-0.76845-0.12638 0.43927 0.79319-0.46531
  -1   7   7  132.50   68.85   1-0.08376-0.08200-0.47692 0.80518 0.87494-0.58733
  -1   7   7   75.24   86.33   1 0.60541-0.77142-0.05641 0.38450 0.79391-0.50701
  -1   7   649607.32 1732.15   1-0.17889 0.01984-0.42410 0.76721 0.88776-0.64107
  -1   7   640944.69 1443.55   1 0.61244-0.77203 0.01560 0.32769 0.79036-0.54459
  -1   7   5 9037.52  283.12   1-0.28241 0.13010-0.35962 0.71801 0.88933-0.68376
  -1   7   5 6855.41  259.94   1 0.61598-0.76884 0.08558 0.27288 0.78309-0.57828
  -1   7   4 5253.30  224.60   1-0.38680 0.24106-0.28550 0.65916 0.87685-0.71231
  -1   7   4 4074.00  207.80   1 0.61634-0.76305 0.15548 0.21828 0.77197-0.60836
   1  -7  -324481.07  507.15   1 0.49828-0.35901 0.20549-0.59519-0.84230 0.71891
  -1   7   325554.19  503.76   1-0.48738 0.34835-0.20472 0.59356 0.84884-0.72548
  -1   7   318627.25  439.53   1 0.61401-0.75390 0.22075 0.16820 0.75779-0.63508
   1  -7  -2 1591.27  209.76   1 0.58885-0.45605 0.12282-0.52751-0.79884 0.71675
  -1   7   2 1688.07  140.26   1-0.57700 0.44416-0.12170 0.52590 0.80761-0.72535
  -1   7   2  992.42  119.82   1 0.60916-0.74223 0.28287 0.12126 0.74087-0.65907
   1  -7  -1   22.20   29.96   1 0.66499-0.53880 0.04180-0.46171-0.74567 0.70463
  -1   7   1  -18.39   69.77   1 0.60177-0.72854 0.34237 0.07681 0.72155-0.68067
   1  -7   0 9249.45  450.80   1 0.72680-0.60723-0.03426-0.40084-0.68599 0.68599
  -1   7   0 6821.14  371.15   1 0.59276-0.71272 0.39745 0.03690 0.70047-0.70047
   1  -7   110263.30  488.29   1 0.77393-0.66124-0.10428-0.34592-0.62461 0.66564
  -1   7  -1 7442.49  385.98   1 0.58212-0.69526 0.44903 0.00049 0.67786-0.71874
   1  -7   2 6081.24  273.99   1 0.81048-0.70436-0.16630-0.29916-0.56165 0.64371
  -1   7  -2 4665.28  287.37   1 0.57117-0.67661 0.49605-0.03082 0.65398-0.73569
   1  -7   3 5054.58  373.27   1 0.83659-0.73755-0.22217-0.25860-0.50074 0.62380
  -1   7  -3 4297.04  361.11   1 0.55802-0.65651 0.54088-0.06034 0.62932-0.75189
   1  -7   4  111.09   81.35   1 0.85546-0.76311-0.27057-0.22549-0.44155 0.60563
   1  -7   5  -13.67   91.57   1 0.86775-0.78147-0.31311-0.19898-0.38595 0.59136
   1  -7   6 1564.53  271.57   1 0.87536-0.79565-0.35060-0.17683-0.33287 0.57936
   1  -7   7 1485.08  248.09   1 0.87906-0.80592-0.38381-0.15895-0.28270 0.57027
   1  -7   835263.05 2158.49   1 0.87937-0.81303-0.41373-0.14429-0.23563 0.56404
   1  -7   912363.14  497.59   1 0.87745-0.81767-0.44017-0.13315-0.19059 0.56006
   1  -7  10  582.40  214.55   1 0.87344-0.82024-0.46395-0.12466-0.14774 0.55826
   1  -7  11 6088.23  439.68   1 0.86771-0.82107-0.48545-0.11847-0.10682 0.55839
   1  -7  12  -32.01  125.78   1 0.85999-0.82161-0.50609-0.11260-0.06542 0.55881
   1  -7  13  255.04  197.11   1 0.85136-0.81969-0.52384-0.11016-0.02760 0.56210
   1  -7  14  239.22  161.64   1 0.84158-0.81662-0.54004-0.10926 0.00889 0.56672
   1  -7  15  121.98  150.68   1 0.83076-0.81251-0.55486-0.10975 0.04421 0.57251
  -1   6  21  200.70  147.18   1 0.41852-0.67203-0.65183 0.70354 0.63241 0.23107
  -1   6  20   97.72  188.57   1 0.42094-0.66781-0.65217 0.71915 0.63045 0.19191
  -1   6  19  113.25  141.17   1 0.42134-0.66157-0.65223 0.73448 0.63012 0.15112
  -1   6  18  697.43  214.56   1 0.41947-0.65305-0.65196 0.74950 0.63165 0.10848
  -1   6  17 1360.92  205.01   1 0.41496-0.64190-0.65132 0.76412 0.63528 0.06373
  -1   6  16 1320.21  220.83   1 0.40740-0.62770-0.65019 0.77827 0.64130 0.01659
  -1   6  15 4133.45  357.64   1 0.39624-0.60989-0.64842 0.79178 0.65002-0.03324
  -1   6  15 3568.81  281.58   1 0.42290-0.63819-0.62381 0.76874 0.65727-0.04164
  -1   6  14  335.14  122.85   1 0.38078-0.58778-0.64578 0.80441 0.66179-0.08612
  -1   6  14  234.08   86.76   1 0.43840-0.64699-0.59608 0.75615 0.67267-0.09809
  -1   6  13 2477.89  244.07   1 0.36013-0.56049-0.64191 0.81582 0.67693-0.14239
  -1   6  13 2336.57  151.59   1 0.45696-0.65887-0.56043 0.73565 0.69071-0.15717
  -1   6  1215027.72  797.60   1 0.33319-0.52691-0.63629 0.82547 0.69577-0.20235
  -1   6  1213284.81  652.42   1 0.47956-0.67529-0.51430 0.70446 0.71098-0.21840
  -1   6  11 2183.05  249.41   1 0.29858-0.48565-0.62817 0.83263 0.71849-0.26619
  -1   6  11 1765.09  123.55   1 0.50255-0.69153-0.46046 0.66578 0.73171-0.28018
  -1   6  10 3979.52  309.84   1 0.25469-0.43632-0.61397 0.83460 0.74710-0.33622
  -1   6  10 3376.76  241.89   1 0.52634-0.70857-0.39706 0.61756 0.75186-0.34138
  -1   6   9  439.16  100.35   1 0.19964-0.37455-0.59720 0.83307 0.77684-0.40705
  -1   6   9  478.18   76.64   1 0.55038-0.72590-0.32343 0.55924 0.76971-0.40038
  -1   6   8 3835.42  210.97   1 0.13201-0.30042-0.57339 0.82431 0.80857-0.47984
  -1   6   8 3324.77  143.83   1 0.57146-0.74023-0.24376 0.49473 0.78358-0.45528
  -1   6   715740.53  390.13   1 0.04939-0.21106-0.54025 0.80640 0.84005-0.55241
  -1   6   714410.06  335.39   1 0.59050-0.75255-0.15695 0.42298 0.79162-0.50472
  -1   6   6  766.13  103.12   1-0.04791-0.10718-0.49509 0.77644 0.86751-0.62099
  -1   6   6  812.09   87.75   1 0.60378-0.75909-0.06989 0.35110 0.79408-0.54817
  -1   6   5 2902.88  159.17   1-0.15711 0.00872-0.43667 0.73295 0.88579-0.68021
  -1   6   5 2317.12  130.00   1 0.61261-0.76144 0.01798 0.27844 0.79017-0.58537
  -1   6   4 2983.88  227.51   1-0.27614 0.13449-0.36375 0.67531 0.88962-0.72516
  -1   6   4 2264.19  188.48   1 0.61637-0.75847 0.10178 0.20981 0.78084-0.61700
  -1   6   345738.54  520.30   1-0.39521 0.26016-0.27915 0.60597 0.87514-0.75173
  -1   6   331844.48  461.92   1 0.61570-0.75155 0.18286 0.14401 0.76646-0.64375
   1  -6  -213934.25  316.78   1 0.51705-0.38842 0.18899-0.53175-0.83482 0.75256
  -1   6   214549.97  324.35   1-0.50714 0.37878-0.18761 0.52963 0.84119-0.75895
  -1   6   2 9700.86  280.68   1 0.61151-0.74055 0.25685 0.08521 0.74837-0.66657
   1  -6  -1 7613.07  530.33   1 0.61392-0.49180 0.09738-0.45512-0.78333 0.74228
  -1   6   1 7506.19  259.24   1-0.60333 0.48116-0.09550 0.45283 0.79174-0.75061
  -1   6   1 4903.48  231.36   1 0.60398-0.72665 0.32618 0.03095 0.72719-0.68630
   1  -6   015356.42  416.32   1 0.69197-0.57647 0.00994-0.38289-0.72184 0.72184
  -1   6   010747.78  342.41   1 0.59428-0.71013 0.38910-0.01679 0.70386-0.70386
   1  -6   110962.75  320.01   1 0.75247-0.64358-0.06972-0.31845-0.65492 0.69597
  -1   6  -1 7759.30  289.07   1 0.58262-0.69166 0.44682-0.05935 0.67889-0.71977
   1  -6   217268.65  426.99   1 0.79637-0.69428-0.14101-0.26231-0.58813 0.67019
  -1   6  -211627.89  358.41   1 0.57053-0.67192 0.49840-0.09525 0.65275-0.73446
   1  -6   3 8061.91  384.52   1 0.82875-0.73323-0.20257-0.21601-0.52165 0.64475
  -1   6  -3 5394.45  307.14   1 0.55616-0.65060 0.54670-0.12825 0.62593-0.74850
   1  -6   4  313.33   90.51   1 0.85069-0.76233-0.25713-0.17680-0.45848 0.62256
   1  -6   528202.22 1613.23   1 0.86551-0.78385-0.30345-0.14576-0.39848 0.60359
   1  -6   6 5017.92  395.54   1 0.87420-0.79850-0.34358-0.12164-0.34308 0.58957
   1  -6   7 6090.00  411.68   1 0.87870-0.80956-0.37875-0.10181-0.29056 0.57812
   1  -6   810349.75  440.20   1 0.87945-0.81708-0.41005-0.08573-0.24169 0.57011
   1  -6   9 3897.76  359.76   1 0.87776-0.82195-0.43748-0.07361-0.19530 0.56477
   1  -6  10 1032.54  212.22   1 0.87387-0.82464-0.46195-0.06444-0.15145 0.56197
   1  -6  11 5013.72  388.63   1 0.86819-0.82552-0.48391-0.05778-0.10982 0.56139
   1  -6  12  569.27  189.19   1 0.86048-0.82605-0.50493-0.05161-0.06782 0.56121
   1  -6  13 1168.02  267.85   1 0.85189-0.82416-0.52287-0.04898-0.02971 0.56422
   1  -6  15  223.52  209.19   1 0.83139-0.81709-0.55406-0.04839 0.04226 0.57446
   1  -6  16  115.35  159.97   1 0.81969-0.81147-0.56779-0.05001 0.07552 0.58224
  -1   5  21 1219.46  235.91   1 0.46290-0.71352-0.65788 0.64681 0.59406 0.26928
  -1   5  20 1259.66  290.07   1 0.46797-0.71193-0.65834 0.66258 0.58955 0.23268
  -1   5  19 1034.75  229.29   1 0.47137-0.70865-0.65864 0.67818 0.58650 0.19461
  -1   5  18  769.20  189.13   1 0.47289-0.70350-0.65877 0.69361 0.58514 0.15487
  -1   5  17 1083.00  217.99   1 0.47226-0.69620-0.65871 0.70886 0.58571 0.11319
  -1   5  16  -64.92  112.28   1 0.46914-0.68642-0.65845 0.72389 0.58850 0.06928
  -1   5  16   50.64   34.26   1 0.32384-0.54212-0.76662 0.83398 0.55444 0.10279
  -1   5  15  325.02  127.46   1 0.46310-0.67370-0.65789 0.73864 0.59389 0.02278
  -1   5  15  215.96   91.35   1 0.33410-0.54567-0.75395 0.83647 0.56562 0.05053
  -1   5  14  188.37  131.77   1 0.45354-0.65748-0.65694 0.75299 0.60226-0.02669
  -1   5  14   52.08   40.52   1 0.34870-0.55357-0.73510 0.83277 0.58140-0.00631
  -1   5  13 3531.70  287.68   1 0.43972-0.63699-0.65539 0.76674 0.61408-0.07963
  -1   5  13 3001.40  388.70   1 0.36799-0.56616-0.70866 0.82148 0.60198-0.06797
  -1   5  12  879.96  139.10   1 0.42161-0.61151-0.65226 0.77936 0.62991-0.13648
  -1   5  12 1103.00  106.90   1 0.39423-0.58548-0.67092 0.79927 0.62804-0.13554
  -1   5  11  909.78  170.51   1 0.39598-0.57924-0.64838 0.79076 0.65022-0.19792
  -1   5  11  799.99   88.89   1 0.42302-0.60758-0.62360 0.76709 0.65739-0.20593
  -1   5  10 1191.54  157.23   1 0.36208-0.53870-0.64229 0.79994 0.67553-0.26434
  -1   5  10  942.64   90.36   1 0.45568-0.63355-0.56299 0.72161 0.68948-0.27907
  -1   5   916457.73  419.31   1 0.31775-0.48773-0.63280 0.80572 0.70611-0.33604
  -1   5   914589.82  304.26   1 0.49191-0.66344-0.48618 0.65981 0.72225-0.35281
  -1   5   8 4381.22  199.94   1 0.26046-0.42477-0.61560 0.80454 0.74376-0.41506
  -1   5   8 3825.28  150.22   1 0.52652-0.69131-0.39654 0.58533 0.75201-0.42362
  -1   5   7 3485.83  197.51   1 0.18720-0.34478-0.59311 0.79728 0.78305-0.49544
  -1   5   7 3190.93  130.96   1 0.55884-0.71691-0.29344 0.49753 0.77561-0.48835
  -1   5   6 4632.10  328.75   1 0.09586-0.24690-0.55946 0.77872 0.82329-0.57674
  -1   5   6 3536.57  242.74   1 0.58583-0.73718-0.18179 0.40095 0.78977-0.54386
  -1   5   532427.70  437.03   1-0.01534-0.12909-0.51084 0.74530 0.85953-0.65410
  -1   5   527719.82  361.11   1 0.60371-0.74834-0.07041 0.30475 0.79408-0.58915
  -1   5   4 1869.16  166.47   1-0.14400 0.00630-0.44443 0.69413 0.88416-0.71981
  -1   5   4 1349.14  143.27   1 0.61395-0.75204 0.03887 0.21067 0.78838-0.62453
  -1   5   345245.49  479.91   1-0.28154 0.15056-0.36019 0.62491 0.88937-0.76603
  -1   5   333043.02  408.32   1 0.61648-0.74829 0.14160 0.12320 0.77452-0.65181
  -1   5   2  816.21   96.62   1-0.41800 0.29363-0.26162 0.54159 0.86995-0.78768
  -1   5   2  522.58   84.28   1 0.61326-0.73825 0.23312 0.04686 0.75469-0.67288
   1  -5  -1131654.5 1041.31   1 0.54989-0.43190 0.15901-0.45484-0.81995 0.77882
  -1   5   1137311.8  836.47   1-0.54124 0.42356-0.15693 0.45213 0.82608-0.78496
   1  -5   0   52.61   35.83   1 0.65068-0.53923 0.05794-0.36874-0.75713 0.75713
   1  -5   1  269.37   81.28   1 0.72729-0.62246-0.03491-0.29110-0.68544 0.72649
   1  -5   212261.37  307.97   1 0.78199-0.68392-0.11704-0.22414-0.61219 0.69426
   1  -5   3 5775.41  224.45   1 0.82107-0.72958-0.18674-0.16970-0.53940 0.66250
   1  -5   427383.83  560.45   1 0.84693-0.76256-0.24721-0.12458-0.47071 0.63480
   1  -5   5 3514.68  206.75   1 0.86390-0.78622-0.29761-0.08947-0.40632 0.61142
   1  -5   6 1988.24  198.53   1 0.87364-0.80194-0.34043-0.06259-0.34762 0.59410
   1  -5   7 5370.20  407.03   1 0.87859-0.81346-0.37742-0.04093-0.29260 0.58017
   1  -5   8  299.73  147.68   1 0.87945-0.82105-0.40990-0.02365-0.24194 0.57036
   1  -5   9 1429.16  242.07   1 0.87769-0.82586-0.43805-0.01080-0.19430 0.56376
   1  -5  10  -26.56  119.53   1 0.87366-0.82839-0.46294-0.00121-0.14961 0.56013
   1  -5  11 1039.25  244.36   1 0.86781-0.82911-0.48511 0.00565-0.10747 0.55904
   1  -5  12  341.58  167.94   1 0.85992-0.82943-0.50625 0.01185-0.06508 0.55847
   1  -5  13  547.03  189.61   1 0.85119-0.82741-0.52416 0.01445-0.02689 0.56139
   1  -5  14   98.11  128.30   1 0.84136-0.82430-0.54038 0.01537 0.00967 0.56594
   1  -5  15  318.91  226.21   1 0.83055-0.82020-0.55512 0.01480 0.04485 0.57188
   1  -5  16   58.54  146.06   1 0.81886-0.81456-0.56868 0.01303 0.07784 0.57991
   1  -5  17  -15.37  142.67   1 0.80636-0.80874-0.58094 0.00999 0.11080 0.58807
  -1   4  21  115.83  160.19   1 0.50242-0.74917-0.66074 0.58761 0.55766 0.30568
  -1   4  20  225.29  151.70   1 0.50977-0.74985-0.66106 0.60324 0.55056 0.27167
  -1   4  19  197.32  149.07   1 0.51574-0.74915-0.66128 0.61876 0.54471 0.23641
  -1   4  18  100.03  113.68   1 0.52018-0.74693-0.66141 0.63419 0.54030 0.19970
  -1   4  17 2106.91  324.17   1 0.52291-0.74299-0.66148 0.64957 0.53758 0.16131
  -1   4  16 1138.90  197.70   1 0.52367-0.73707-0.66150 0.66489 0.53682 0.12096
  -1   4  16 1080.18  200.19   1 0.22567-0.43964-0.86811 0.87199 0.44209 0.21525
  -1   4  1556280.52 5052.04   1 0.52213-0.72887-0.66146 0.68015 0.53836 0.07831
  -1   4  1544465.54 3979.55   1 0.23048-0.43780-0.86399 0.88312 0.44765 0.16859
  -1   4  14  163.60  141.19   1 0.51785-0.71792-0.66135 0.69534 0.54262 0.03294
  -1   4  14  155.50   47.46   1 0.23983-0.44049-0.85574 0.89013 0.45844 0.11672
  -1   4  13 4934.80  316.95   1 0.51023-0.70363-0.66108 0.71038 0.55010-0.01565
  -1   4  13 4411.08  189.21   1 0.25455-0.44856-0.84218 0.89181 0.47532 0.05876
  -1   4  1215166.51  928.18   1 0.49849-0.68522-0.66054 0.72513 0.56141-0.06807
  -1   4  1213086.97  755.23   1 0.27559-0.46295-0.82147 0.88636 0.49922-0.00621
  -1   4  11 4132.98  343.61   1 0.48154-0.66160-0.65945 0.73935 0.57726-0.12503
  -1   4  11 3515.05  423.68   1 0.30394-0.48464-0.79099 0.87112 0.53098-0.07906
  -1   4  10  153.85   91.24   1 0.45787-0.63126-0.65738 0.75259 0.59849-0.18737
  -1   4  10  216.34   58.12   1 0.34069-0.51475-0.74557 0.84189 0.57276-0.16198
  -1   4   9 4914.62  244.26   1 0.42642-0.59259-0.65292 0.76377 0.62597-0.25590
  -1   4   9 4343.04  167.90   1 0.38515-0.55252-0.68354 0.79502 0.62001-0.25032
  -1   4   8 1874.35  169.50   1 0.38247-0.54199-0.64608 0.77220 0.66051-0.33156
  -1   4   8 1851.60  100.14   1 0.43837-0.59889-0.59612 0.72302 0.67265-0.34431
  -1   4   715979.99  231.97   1 0.49306-0.64715-0.48346 0.62540 0.72328-0.43595
  -1   4   684884.88  697.66   1 0.24460-0.39158-0.61107 0.76831 0.75283-0.50630
  -1   4   675577.79  481.09   1 0.54310-0.69048-0.34753 0.50474 0.76436-0.51814
  -1   4   513272.06  284.33   1 0.14206-0.28247-0.57710 0.74946 0.80421-0.59876
  -1   4   511286.21  202.82   1 0.58288-0.72354-0.19648 0.36877 0.78844-0.58351
  -1   4   497163.75  703.34   1 0.01243-0.14610-0.52393 0.71152 0.85166-0.68730
  -1   4   480341.39  544.71   1 0.60641-0.74034-0.04760 0.23507 0.79372-0.62978
  -1   4   311930.33  244.24   1-0.14044 0.01340-0.44642 0.64923 0.88373-0.76047
  -1   4   3 8570.05  192.38   1 0.61614-0.74348 0.09137 0.11129 0.78231-0.65943
  -1   4   239426.41  416.54   1-0.30319 0.18275-0.34521 0.56309 0.88820-0.80593
  -1   4   228746.31  345.70   1 0.61439-0.73535 0.21381 0.00410 0.75947-0.67766
  -1   4   1 4344.63  187.65   1-0.45982 0.34609-0.22784 0.46094 0.85827-0.81715
  -1   4   1 2650.15  136.07   1 0.60511-0.71957 0.31731-0.08427 0.73017-0.68928
   1  -4   076496.36  660.35   1 0.60002-0.49263 0.11163-0.36027-0.79215 0.79215
  -1   4   080225.12  630.20   1-0.59077 0.48333-0.10814 0.35650 0.79955-0.79955
  -1   4   055983.51  532.63   1 0.59153-0.69918 0.40398-0.15577 0.69776-0.69776
   1  -4   182637.71  768.62   1 0.69901-0.59825 0.00131-0.26517-0.71510 0.75615
  -1   4  -161560.56  593.76   1 0.57639-0.67664 0.47612-0.21246 0.66413-0.70499
   1  -4   267322.77  794.41   1 0.76789-0.67386-0.09497-0.18408-0.63349 0.71555
  -1   4  -250540.47  556.16   1 0.55873-0.65202 0.53863-0.25967 0.63062-0.71233
   1  -4   3 7531.32  226.90   1 0.81497-0.72750-0.17479-0.11952-0.55251 0.67560
   1  -4   4  460.02  160.98   1 0.84492-0.76453-0.24211-0.06755-0.47694 0.64102
   1  -4   5  346.92   95.27   1 0.86367-0.78998-0.29682-0.02813-0.40737 0.61247
   1  -4   6  -38.42   84.61   1 0.87396-0.80627-0.34221 0.00139-0.34505 0.59154
   1  -4   7  114.90   67.04   1 0.87885-0.81772-0.38072 0.02456-0.28751 0.57507
   1  -4   8 4600.71  375.63   1 0.87936-0.82493-0.41399 0.04266-0.23519 0.56361
   1  -4   9 2672.85  337.08   1 0.87716-0.82929-0.44247 0.05584-0.18654 0.55601
   1  -4  10 2109.71  227.59   1 0.87267-0.83137-0.46740 0.06547-0.14132 0.55184
   1  -4  11 1378.29  236.27   1 0.86640-0.83166-0.48943 0.07220-0.09898 0.55055
   1  -4  12   41.28  129.14   1 0.85809-0.83156-0.51036 0.07810-0.05651 0.54990
   1  -4  1310868.93  518.43   1 0.84907-0.82925-0.52794 0.08038-0.01855 0.55306
   1  -4  14  602.42  210.36   1 0.83902-0.82591-0.54380 0.08094 0.01766 0.55795
   1  -4  15 4312.35  383.17   1 0.82806-0.82166-0.55817 0.08001 0.05240 0.56433
   1  -4  16  130.21  174.15   1 0.81628-0.81593-0.57137 0.07788 0.08489 0.57287
   1  -4  17  259.28  147.66   1 0.80376-0.81007-0.58327 0.07448 0.11730 0.58157
   1  -4  18   28.50  143.41   1 0.79048-0.80347-0.59413 0.07003 0.14878 0.59120
  -1   3  21   12.13  159.55   1 0.53651-0.77941-0.66168 0.52649 0.52375 0.33959
  -1   3  20  157.96  144.76   1 0.54577-0.78200-0.66167 0.54178 0.51411 0.30812
  -1   3  19  717.29  224.55   1 0.55390-0.78345-0.66156 0.55698 0.50549 0.27562
  -1   3  18 1455.68  240.07   1 0.56078-0.78367-0.66139 0.57211 0.49806 0.24194
  -1   3  17  282.96  137.24   1 0.56595-0.78244-0.66137 0.58755 0.49220 0.20629
  -1   3  16  367.71  180.09   1 0.56992-0.77973-0.66121 0.60270 0.48783 0.16958
  -1   3  15 1313.62  278.14   1 0.57212-0.77526-0.66112 0.61791 0.48538 0.13094
  -1   3  14 2392.75  295.79   1 0.57225-0.76871-0.66111 0.63322 0.48523 0.09000
  -1   3  1313013.37  729.62   1 0.56989-0.75968-0.66122 0.64863 0.48785 0.04629
  -1   3  1233266.86 1893.51   1 0.56447-0.74758-0.66143 0.66416 0.49383-0.00077
  -1   3  1229297.69 1627.26   1 0.13795-0.32124-0.93073 0.93431 0.33868 0.15443
  -1   3  11 1354.81  149.83   1 0.55581-0.73200-0.66152 0.67936 0.50344-0.05121
  -1   3  11 1026.25  189.90   1 0.15570-0.33233-0.91987 0.93866 0.35998 0.09204
  -1   3  10 3732.29  210.86   1 0.54157-0.71110-0.66169 0.69483 0.51851-0.10739
  -1   3  10 3801.26  311.23   1 0.18280-0.35276-0.90153 0.93552 0.39218 0.01874
  -1   3   9  124.27   63.28   1 0.52069-0.68354-0.66143 0.70988 0.53980-0.16979
  -1   3   9  178.19   40.46   1 0.22080-0.38409-0.87221 0.92088 0.43644-0.06668
  -1   3   825621.48  467.16   1 0.49076-0.64694-0.66008 0.72384 0.56871-0.23982
  -1   3   822240.29  276.80   1 0.27529-0.43192-0.82178 0.88570 0.49888-0.17021
  -1   3   710872.99  326.86   1 0.44828-0.59779-0.65637 0.73543 0.60680-0.31902
  -1   3   7 9848.87  186.61   1 0.34705-0.49702-0.73727 0.81709 0.57962-0.29208
  -1   3   659248.31  566.50   1 0.38920-0.53162-0.64725 0.74184 0.65542-0.40871
  -1   3   652693.66  345.20   1 0.43457-0.57774-0.60309 0.69826 0.66889-0.42264
  -1   3   567627.57  585.04   1 0.30463-0.44040-0.62966 0.73953 0.71464-0.50905
  -1   3   559391.46  382.59   1 0.52008-0.65674-0.41463 0.52487 0.74671-0.54147
  -1   3   4  -18.25   46.18   1 0.18786-0.31751-0.59333 0.71888 0.78272-0.61837
  -1   3   4   -8.30   25.11   1 0.58446-0.71442-0.18871 0.31412 0.78917-0.62523
  -1   3   311066.12  214.32   1 0.03336-0.15640-0.53328 0.67398 0.84527-0.72200
  -1   3   3 9287.70  162.44   1 0.61314-0.73647 0.02584 0.11478 0.78954-0.66666
  -1   3   2 4995.03  175.69   1-0.15423 0.03784-0.43866 0.59458 0.88531-0.80314
  -1   3   2 3746.27  133.11   1 0.61484-0.73176 0.20476-0.04891 0.76160-0.67979
  -1   3   1  747.90   72.19   1-0.35094 0.24119-0.31185 0.48289 0.88294-0.84180
  -1   3   1  548.15   58.00   1 0.60185-0.71220 0.34183-0.17084 0.72175-0.68086
   1  -3   0 4020.21  346.98   1 0.53406-0.43075 0.17364-0.36032-0.82741 0.82741
  -1   3   0 4129.33  164.98   1-0.52700 0.42393-0.16993 0.35621 0.83269-0.83269
  -1   3   0 2971.11  134.62   1 0.58280-0.68634 0.44602-0.25986 0.67926-0.67926
   1  -3   143022.00  505.34   1 0.66661-0.56990 0.03994-0.24165-0.74432 0.78537
  -1   3  -132359.35  377.21   1 0.56269-0.65889 0.52574-0.32416 0.63794-0.67880
   1  -3   222572.13  357.92   1 0.75602-0.66593-0.07486-0.14205-0.65024 0.73235
   1  -3   344081.28  486.20   1 0.81168-0.72824-0.16853-0.06363-0.55925 0.68235
   1  -3   4 7061.91  226.42   1 0.84558-0.76917-0.24376-0.00377-0.47494 0.63902
   1  -3   561843.27  663.51   1 0.86534-0.79563-0.30281 0.03999-0.39934 0.60445
   1  -3   627946.46  465.48   1 0.87532-0.81163-0.35033 0.07171-0.33326 0.57974
   1  -3   7 2749.59  200.77   1 0.87940-0.82227-0.38975 0.09579-0.27339 0.56096
   1  -3   8 5546.22  277.91   1 0.87897-0.82850-0.42318 0.11409-0.21981 0.54823
   1  -3   9 7563.90  510.26   1 0.87584-0.83194-0.45140 0.12700-0.17065 0.54011
   1  -3  10 6378.27  462.40   1 0.87054-0.83321-0.47583 0.13613-0.12540 0.53592
   1  -3  11  -62.17  108.71   1 0.86305-0.83376-0.49860 0.14380-0.08079 0.53306
   1  -3  12 -134.83  113.16   1 0.85466-0.83208-0.51752 0.14742-0.04130 0.53469
   1  -3  13 5363.56  480.59   1 0.84520-0.82933-0.53442 0.14901-0.00400 0.53851
   1  -3  1413539.12  540.02   1 0.83482-0.82566-0.54961 0.14889 0.03146 0.54415
   1  -3  15  142.65  145.89   1 0.82362-0.82053-0.56347 0.14744 0.06440 0.55225
   1  -3  16  216.28  162.49   1 0.81171-0.81529-0.57592 0.14460 0.09707 0.56069
   1  -3  17  411.31  221.90   1 0.79910-0.80935-0.58726 0.14063 0.12864 0.57023
   1  -3  18  355.42  168.49   1 0.78581-0.80273-0.59759 0.13566 0.15928 0.58070
   1  -3  19   43.64  132.87   1 0.77185-0.79544-0.60701 0.12977 0.18913 0.59196
  -1   2  21  288.33  236.62   1 0.56544-0.80471-0.66139 0.46418 0.49277 0.37008
  -1   2  20  123.55  150.98   1 0.57625-0.80885-0.66091 0.47901 0.48074 0.34102
  -1   2  19  636.35  207.02   1 0.58612-0.81204-0.66031 0.49372 0.46951 0.31116
  -1   2  18  794.68  262.12   1 0.59497-0.81422-0.65963 0.50835 0.45921 0.28037
  -1   2  17  286.65  173.75   1 0.60274-0.81532-0.65893 0.52296 0.44999 0.24850
  -1   2  16 3950.33  372.53   1 0.60933-0.81523-0.65825 0.53759 0.44205 0.21536
  -1   2  15 7719.41  602.70   1 0.61459-0.81381-0.65766 0.55231 0.43561 0.18071
  -1   2  1413021.78  819.83   1 0.61832-0.81087-0.65720 0.56716 0.43099 0.14424
  -1   2  13  425.96  205.32   1 0.62026-0.80614-0.65695 0.58222 0.42857 0.10557
  -1   2  12 1467.86  186.41   1 0.62004-0.79924-0.65698 0.59756 0.42885 0.06420
  -1   2  1118402.11  755.31   1 0.61712-0.78965-0.65735 0.61324 0.43248 0.01948
  -1   2  10 1353.64  146.03   1 0.61074-0.77660-0.65810 0.62930 0.44032-0.02944
  -1   2   9 3814.96  222.11   1 0.59978-0.75896-0.65921 0.64572 0.45353-0.08373
  -1   2   877395.64  763.91   1 0.58251-0.73502-0.66055 0.66236 0.47365-0.14494
  -1   2   7232517.1 1200.27   1 0.55696-0.70261-0.66149 0.67849 0.50220-0.21442
  -1   2   615002.47  302.43   1 0.51762-0.65660-0.66134 0.69364 0.54284-0.29617
  -1   2   613590.13  172.79   1 0.17680-0.31603-0.90578 0.93858 0.38507-0.13851
  -1   2   530928.00  388.80   1 0.45830-0.59061-0.65743 0.70503 0.59811-0.39255
  -1   2   528025.81  220.19   1 0.30398-0.43655-0.78991 0.83807 0.53256-0.32717
  -1   2   459275.81  497.78   1 0.36933-0.49465-0.64368 0.70674 0.67026-0.50578
  -1   2   454418.76  287.80   1 0.47767-0.60362-0.51847 0.58185 0.70923-0.54504
  -1   2   3 2203.62  110.05   1 0.23444-0.35349-0.60806 0.68669 0.75847-0.63521
   1  -2  -3 2244.48   73.43   1 0.42795-0.30882-0.61496 0.53637 0.66232-0.78544
  -1   2   3 1962.08   68.88   1 0.59863-0.71790-0.10746 0.18601 0.79377-0.67082
  -1   2   135006.86  324.79   1-0.19715 0.09140-0.41330 0.52225 0.88899-0.84787
  -1   2   125247.00  233.17   1 0.58669-0.69293 0.42817-0.31924 0.68735-0.64647
  -1   2   023623.49  268.63   1-0.43679 0.33773-0.24678 0.37098 0.86504-0.86504
  -1   2   017477.11  214.69   1 0.55647-0.65557 0.54575-0.42157 0.62648-0.62648
   1  -2   124193.10  304.13   1 0.62790-0.53525 0.08270-0.22224-0.77388 0.81492
  -1   2  -125275.00  289.38   1-0.62152 0.52882-0.07671 0.21611 0.77962-0.82075
   1  -2   2 8871.20  264.77   1 0.74590-0.65987-0.06037-0.09438-0.66331 0.74541
   1  -2   3 6032.26  211.36   1 0.81309-0.73368-0.17120 0.00116-0.55638 0.67948
   1  -2   421083.03  332.84   1 0.84999-0.77757-0.25525 0.06984-0.46081 0.62489
   1  -2   554656.90  579.18   1 0.86888-0.80262-0.31776 0.11668-0.37955 0.58496
   1  -2   624527.37  437.48   1 0.87754-0.81785-0.36668 0.15026-0.30897 0.55546
   1  -2   7  890.43  150.44   1 0.87975-0.82664-0.40588 0.17413-0.24754 0.53510
   1  -2   8 3297.65  198.27   1 0.87765-0.83115-0.43847 0.19160-0.19357 0.52198
   1  -2   916190.58  680.31   1 0.87309-0.83316-0.46554 0.20338-0.14479 0.51426
   1  -2  10  150.02   92.34   1 0.86664-0.83327-0.48873 0.21126-0.10037 0.51089
   1  -2  11 6088.16  426.33   1 0.85814-0.83280-0.51026 0.21761-0.05672 0.50900
   1  -2  12  676.22  157.93   1 0.84905-0.83041-0.52798 0.22003-0.01846 0.51184
   1  -2  13  226.98  173.09   1 0.83905-0.82713-0.54376 0.22050 0.01756 0.51694
   1  -2  14 1647.51  268.09   1 0.82828-0.82307-0.55791 0.21935 0.05174 0.52387
   1  -2  15 1422.55  255.77   1 0.81682-0.81767-0.57081 0.21694 0.08342 0.53323
   1  -2  16  213.77  146.27   1 0.80474-0.81226-0.58239 0.21323 0.11485 0.54291
   1  -2  17  760.61  245.22   1 0.79204-0.80623-0.59293 0.20846 0.14522 0.55365
   1  -2  18 1031.03  255.81   1 0.77872-0.79958-0.60254 0.20276 0.17470 0.56528
   1  -2  19   93.62  150.55   1 0.76480-0.79233-0.61129 0.19622 0.20342 0.57767
  -1   1  20  451.10  231.63   1 0.60209-0.83077-0.65899 0.41495 0.45078 0.37098
  -1   1  19  434.98  208.74   1 0.61337-0.83538-0.65780 0.42906 0.43711 0.34356
  -1   1  18 1279.93  298.08   1 0.62381-0.83915-0.65648 0.44305 0.42412 0.31547
  -1   1  17 1061.60  232.92   1 0.63338-0.84204-0.65509 0.45698 0.41191 0.28658
  -1   1  16  -38.86  107.26   1 0.64201-0.84400-0.65368 0.47087 0.40063 0.25677
  -1   1  15 7937.45  630.40   1 0.64964-0.84495-0.65230 0.48480 0.39046 0.22586
  -1   1  1411632.86  750.20   1 0.65614-0.84478-0.65102 0.49883 0.38161 0.19362
  -1   1  13   33.41  132.39   1 0.66139-0.84335-0.64992 0.51304 0.37437 0.15977
  -1   1  12  651.91  150.70   1 0.66515-0.84044-0.64909 0.52752 0.36910 0.12395
  -1   1  11  418.81  111.32   1 0.66713-0.83574-0.64864 0.54238 0.36631 0.08565
  -1   1  10 6308.73  280.98   1 0.66688-0.82882-0.64870 0.55775 0.36667 0.04421
  -1   1   914833.58  416.95   1 0.66374-0.81901-0.64941 0.57377 0.37108-0.00129
  -1   1   884606.90  813.86   1 0.65669-0.80528-0.65091 0.59058 0.38087-0.05216
  -1   1   731946.64  481.27   1 0.64408-0.78600-0.65332 0.60830 0.39789-0.11027
  -1   1   6 4137.52  193.08   1 0.62318-0.75843-0.65657 0.62686 0.42490-0.17837
  -1   1   5  201.82   64.61   1 0.58921-0.71779-0.66009 0.64569 0.46594-0.26049
  -1   1   4109101.5  694.10   1 0.53410-0.65588-0.66166 0.66251 0.52624-0.36179
  -1   1   3 4347.52  161.96   1 0.44052-0.55563-0.65548 0.67163 0.61341-0.49007
  -1   1   3 3870.25   91.44   1 0.22421-0.33937-0.86935 0.88557 0.44039-0.31714
  -1   1   2333776.3 1229.26   1 0.28216-0.39061-0.62148 0.65317 0.73084-0.64867
   1  -1  -1270734.1  823.42   1 0.56483-0.46282 0.51849-0.56528 0.64196-0.68281
  -1   1   0380821.719749.54   1-0.29656 0.20147-0.35016 0.41227 0.88849-0.88849
   1  -1   1344552.5 1221.96   1 0.57763-0.48905 0.13387-0.21125-0.80524 0.84628
  -1   1  -1358919.7 1259.56   1-0.57294 0.48430-0.12565 0.20296 0.80990-0.85103
   1  -1   2 1957.32   99.46   1 0.74192-0.65996-0.05481-0.03778-0.66823 0.75034
   1  -1   3 8691.14  249.47   1 0.82213-0.74675-0.18887 0.08096-0.53705 0.66014
   1  -1   450596.35  470.96   1 0.85911-0.79067-0.28165 0.15838-0.42730 0.59139
   1  -1   5  671.06   71.77   1 0.87459-0.81234-0.34583 0.20695-0.33982 0.54522
   1  -1   642402.10  510.93   1 0.87956-0.82387-0.39365 0.23943-0.26722 0.51370
   1  -1   7179573.2 1136.36   1 0.87839-0.82929-0.43110 0.26177-0.20633 0.49369
   1  -1   8 6899.72  263.49   1 0.87410-0.83157-0.46087 0.27624-0.15343 0.48184
   1  -1   9 1956.13  174.32   1 0.86768-0.83171-0.48555 0.28561-0.10662 0.47609
   1  -1  10 1263.81  155.63   1 0.85921-0.83110-0.50788 0.29269-0.06169 0.47285
   1  -1  11 1790.77  207.43   1 0.85018-0.82879-0.52598 0.29548-0.02289 0.47517
   1  -1  12 5617.37  418.08   1 0.84034-0.82566-0.54188 0.29608 0.01316 0.48021
   1  -1  13 7327.46  390.39   1 0.82982-0.82185-0.55603 0.29492 0.04708 0.48741
   1  -1  1413697.63  821.05   1 0.81870-0.81681-0.56885 0.29245 0.07827 0.49727
   1  -1  1524266.92 4687.40   1 0.80704-0.81183-0.58032 0.28861 0.10908 0.50757
   1  -1  16 2310.47  362.77   1 0.79484-0.80629-0.59074 0.28373 0.13874 0.51902
   1  -1  17  110.66  138.02   1 0.78209-0.80021-0.60023 0.27792 0.16745 0.53142
   1  -1  18   19.78  131.63   1 0.76880-0.79359-0.60890 0.27129 0.19537 0.54461
   1  -1  19  301.53  217.77   1 0.75516-0.78665-0.61661 0.26364 0.22250 0.55826
   1  -1  20 2425.25  365.30   1 0.74078-0.77894-0.62381 0.25553 0.24919 0.57267
  -1   0  20 3827.51  465.10   1 0.62345-0.84823-0.65653 0.35033 0.42457 0.39719
  -1   0  19 1315.77  283.64   1 0.63586-0.85396-0.65470 0.36382 0.40869 0.37198
  -1   0  18   85.88  155.00   1 0.64755-0.85897-0.65269 0.37712 0.39327 0.34632
  -1   0  17 1215.95  255.95   1 0.65850-0.86325-0.65054 0.39027 0.37837 0.32012
  -1   0  16    8.78  135.37   1 0.66869-0.86677-0.64828 0.40332 0.36410 0.29331
  -1   0  15  175.59  208.72   1 0.67811-0.86942-0.64600 0.41641 0.35048 0.26591
  -1   0  14 8307.80  642.59   1 0.68668-0.87132-0.64369 0.42940 0.33781 0.23748
  -1   0  13  130.58  137.80   1 0.69434-0.87232-0.64145 0.44247 0.32620 0.20800
  -1   0  12  670.51  154.64   1 0.70100-0.87231-0.63937 0.45570 0.31589 0.17722
  -1   0  11 4448.87  352.86   1 0.70650-0.87114-0.63755 0.46918 0.30720 0.14482
  -1   0  10 3375.95  218.06   1 0.71063-0.86860-0.63611 0.48305 0.30057 0.11035
  -1   0   9 3216.36  207.87   1 0.71307-0.86437-0.63524 0.49749 0.29662 0.07321
  -1   0   8  -78.72  113.23   1 0.71331-0.85794-0.63515 0.51271 0.29623 0.03251
  -1   0   713478.61  353.46   1 0.71055-0.84851-0.63614 0.52900 0.30071-0.01306
  -1   0   6117130.3  855.74   1 0.70343-0.83473-0.63858 0.54674 0.31207-0.06551
  -1   0   5  868.34  101.88   1 0.68951-0.81414-0.64288 0.56635 0.33356-0.12809
  -1   0   433950.17  384.01   1 0.66403-0.78202-0.64934 0.58810 0.37068-0.20632
  -1   0   3  718.12   64.24   1 0.61698-0.72829-0.65737 0.61144 0.43266-0.30939
  -1   0   3  454.43   37.87   1 0.61434-0.72596 0.21490-0.26045 0.75921-0.63650
  -1   0   220196.88  136.67   1 0.58439-0.68901-0.18903 0.15866 0.78914-0.70717
   1   0  -216525.99  122.20   1 0.61370-0.50889 0.22599-0.19563 0.75649-0.83830
   1   0  -1  929.43   60.74   1 0.42461-0.32686-0.65268 0.66795 0.62745-0.66857
  -1   0   1  826.49   53.38   1 0.33332-0.43108-0.63632 0.62105 0.69568-0.65457
  -1   0   1  783.93   59.97   1 0.28100-0.37874-0.81589 0.80064 0.50532-0.46424
   1   0  -1  775.51   32.01   1 0.43237-0.33455-0.60707 0.62220 0.66671-0.70776
   1   0   2270068.6  974.51   1 0.75204-0.67414-0.06910 0.03866-0.65547 0.73758
   1   0   322401.20  248.22   1 0.84244-0.77129-0.23598 0.19012-0.48435 0.60741
   1   0   411471.93  205.42   1 0.87181-0.80699-0.33099 0.26964-0.36108 0.52540
   1   0   5 4573.49  182.89   1 0.87948-0.82123-0.39167 0.31499-0.27035 0.47576
   1   0   6  -31.85   63.16   1 0.87807-0.82638-0.43447 0.34267-0.20052 0.44683
   1   0   7  691.43  120.33   1 0.87295-0.82783-0.46616 0.35906-0.14364 0.43100
   1   0   8199590.2 1242.04   1 0.86579-0.82723-0.49121 0.36881-0.09545 0.42386
   1   0   9 4663.84  245.96   1 0.85678-0.82592-0.51319 0.37545-0.05054 0.42058
   1   0  10 3002.30  219.12   1 0.84750-0.82335-0.53064 0.37759-0.01253 0.42369
   1   0  1134827.43 1301.52   1 0.83762-0.82018-0.54578 0.37743 0.02234 0.42993
   1   0  12 7501.36  530.89   1 0.82724-0.81650-0.55916 0.37550 0.05485 0.43852
   1   0  13   97.07  130.82   1 0.81641-0.81178-0.57124 0.37230 0.08456 0.44987
   1   0  14  787.65  190.84   1 0.80514-0.80719-0.58204 0.36780 0.11385 0.46168
   1   0  15 1292.71  236.68   1 0.79343-0.80215-0.59185 0.36231 0.14201 0.47463
   1   0  16  812.61  233.38   1 0.78125-0.79664-0.60081 0.35597 0.16926 0.48850
   1   0  17  620.94  187.97   1 0.76861-0.79067-0.60902 0.34887 0.19576 0.50311
   1   0  18  676.33  251.25   1 0.75569-0.78442-0.61633 0.34082 0.22149 0.51818
   1   0  19  329.42  194.08   1 0.74206-0.77747-0.62320 0.33239 0.24687 0.53390
   1   0  20 1056.57  275.74   1 0.72791-0.76998-0.62948 0.32336 0.27181 0.55005
   1   0  21  -99.35  153.83   1 0.71320-0.76194-0.63519 0.31376 0.29640 0.56655
  -1  -1  19   72.97  144.51   1 0.65410-0.86828-0.65144 0.29840 0.38441 0.39626
  -1  -1  18  339.62  160.84   1 0.66675-0.87426-0.64873 0.31100 0.36685 0.37273
  -1  -1  17  346.60  242.23   1 0.67876-0.87950-0.64583 0.32347 0.34953 0.34905
  -1  -1  16 1232.06  217.18   1 0.69012-0.88419-0.64271 0.33566 0.33263 0.32485
  -1  -1  1517897.88  629.22   1 0.70084-0.88823-0.63942 0.34768 0.31615 0.30024
  -1  -1  14   83.76  143.00   1 0.71089-0.89162-0.63602 0.35958 0.30016 0.27514
  -1  -1  13  800.93  209.22   1 0.72026-0.89432-0.63255 0.37142 0.28476 0.24944
  -1  -1  1225850.26  654.54   1 0.72892-0.89631-0.62906 0.38324 0.27008 0.22303
  -1  -1  1110222.55  676.13   1 0.73681-0.89753-0.62563 0.39511 0.25629 0.19573
  -1  -1  10  902.98  160.02   1 0.74385-0.89791-0.62235 0.40714 0.24362 0.16730
  -1  -1   942433.76  788.58   1 0.74992-0.89731-0.61934 0.41944 0.23240 0.13743
  -1  -1   8 1967.47  173.62   1 0.75485-0.89557-0.61677 0.43217 0.22310 0.10564
  -1  -1   7 5316.11  373.74   1 0.75821-0.89229-0.61505 0.44576 0.21639 0.07138
  -1  -1   6 5594.29  359.27   1 0.75977-0.88718-0.61418 0.46020 0.21335 0.03330
  -1  -1   5  479.06   71.44   1 0.75853-0.87927-0.61487 0.47619 0.21576-0.01021
  -1  -1   4  450.95   66.04   1 0.75293-0.86698-0.61779 0.49442 0.22676-0.06238
   1   1  -4  306.10   40.54   1 0.55862-0.44384 0.53897-0.41568 0.63042-0.79385
  -1  -1   362243.85  483.61   1 0.73916-0.84654-0.62456 0.51649 0.25210-0.12882
   1   1  -342478.80  334.93   1 0.59472-0.48717 0.38658-0.27903 0.70487-0.82752
  -1  -1   2  778.22   67.77   1 0.70834-0.80905-0.63692 0.54415 0.30427-0.22209
   1   1  -2  557.70   44.47   1 0.61642-0.51564 0.14952-0.05708 0.77309-0.85489
  -1  -1   162444.28  351.59   1 0.53979-0.63367-0.35806 0.28086 0.76184-0.72081
   1   1  -160122.48  344.21   1 0.58503-0.49111-0.18586 0.26311 0.78942-0.83040
   1   1   0 1973.25   65.38   1 0.53571-0.44834-0.66167 0.72373 0.52458-0.52458
  -1  -1   0 2082.47   70.66   1 0.39525-0.48255-0.64826 0.58618 0.65078-0.65078
  -1  -1   0 2093.32   78.59   1 0.40242-0.48958-0.65798 0.59598 0.63648-0.63648
   1   1   0 1854.54   70.47   1 0.45998-0.37282-0.55437 0.61637 0.69360-0.69360
  -1  -1  -2 3597.07   99.91   1 0.70300-0.77684-0.00362-0.02808-0.71117 0.62906
   1   1   2 3877.37  105.11   1 0.79927-0.72538-0.14605 0.17767-0.58295 0.66501
   1   1   368100.15  387.11   1 0.87308-0.80569-0.33740 0.35360-0.35196 0.47520
   1   1   4  504.74   58.74   1 0.87926-0.81840-0.41720 0.41823-0.22985 0.39406
   1   1   566171.72  499.09   1 0.87404-0.81975-0.46114 0.44687-0.15293 0.35819
   1   1   6 6638.76  228.13   1 0.86608-0.81835-0.49037 0.46080-0.09712 0.34343
   1   1   732610.03  422.14   1 0.85667-0.81634-0.51342 0.46844-0.05004 0.33785
   1   1   884079.60  750.30   1 0.84741-0.81379-0.53079 0.47050-0.01219 0.34112
   1   1   914424.28  375.67   1 0.83791-0.81100-0.54537 0.46978 0.02137 0.34866
   1   1  10 3747.31  211.75   1 0.82817-0.80797-0.55804 0.46714 0.05206 0.35909
   1   1  1118438.77  743.28   1 0.81818-0.80415-0.56940 0.46323 0.07972 0.37248
   1   1  1210930.00  698.88   1 0.80789-0.80054-0.57954 0.45806 0.10692 0.38640
   1   1  1310153.62  579.16   1 0.79727-0.79658-0.58877 0.45200 0.13301 0.40142
   1   1  14 2419.97  241.50   1 0.78627-0.79226-0.59726 0.44517 0.15825 0.41729
   1   1  1526407.34 1447.98   1 0.77488-0.78753-0.60508 0.43769 0.18283 0.43382
   1   1  16 2798.76  313.86   1 0.76306-0.78238-0.61231 0.42962 0.20689 0.45087
   1   1  17  112.77  120.72   1 0.75102-0.77700-0.61878 0.42073 0.23035 0.46823
   1   1  18   20.80  109.27   1 0.73829-0.77094-0.62496 0.41160 0.25364 0.48603
   1   1  19 1835.93  278.35   1 0.72507-0.76438-0.63065 0.40198 0.27667 0.50410
   1   1  20  310.41  162.24   1 0.71132-0.75730-0.63587 0.39190 0.29946 0.52239
   1   1  21  189.00  172.17   1 0.69702-0.74967-0.64063 0.38135 0.32208 0.54087
  -1  -2  19  -80.18  138.96   1 0.66853-0.87880-0.64832 0.23313 0.36433 0.41634
  -1  -2  18  379.90  176.05   1 0.68194-0.88543-0.64499 0.24518 0.34485 0.39482
  -1  -2  17  810.67  210.00   1 0.69475-0.89157-0.64133 0.25682 0.32558 0.37300
  -1  -2  16  316.42  202.13   1 0.70697-0.89713-0.63739 0.26818 0.30645 0.35103
  -1  -2  15  368.65  292.21   1 0.71863-0.90211-0.63318 0.27928 0.28748 0.32891
  -1  -2  14 4608.11  370.36   1 0.72972-0.90653-0.62873 0.29014 0.26870 0.30660
  -1  -2  13   21.60  142.22   1 0.74025-0.91040-0.62405 0.30077 0.25014 0.28407
  -1  -2  12 2843.95  300.48   1 0.75023-0.91371-0.61919 0.31121 0.23183 0.26128
  -1  -2  11 1276.54  189.88   1 0.75952-0.91635-0.61432 0.32166 0.21383 0.23837
  -1  -2  10 6258.13  473.42   1 0.76838-0.91854-0.60915 0.33180 0.19622 0.21488
  -1  -2   9 6482.72  300.29   1 0.77666-0.92015-0.60391 0.34187 0.17909 0.19090
  -1  -2   823555.53  545.00   1 0.78431-0.92113-0.59867 0.35192 0.16258 0.16629
  -1  -2   7 3604.95  207.47   1 0.79130-0.92144-0.59351 0.36206 0.14692 0.14084
  -1  -2   6 2280.21  209.22   1 0.79752-0.92099-0.58857 0.37243 0.13242 0.11423
  -1  -2   516014.84  329.42   1 0.80282-0.91963-0.58409 0.38325 0.11960 0.08594
  -1  -2   4  581.27   72.09   1 0.80693-0.91707-0.58042 0.39489 0.10936 0.05508
   1   2  -4  486.85   58.70   1 0.58190-0.47165 0.44997-0.26520 0.67742-0.84095
  -1  -2   3 4253.48  161.44   1 0.80928-0.91275-0.57824 0.40801 0.10336 0.01996
   1   2  -3 3195.64  134.55   1 0.60486-0.50142 0.31931-0.14971 0.72950-0.85215
  -1  -2   2228371.7  987.77   1 0.80858-0.90538-0.57890 0.42397 0.10517-0.02295
   1   2  -2164306.4  811.08   1 0.61638-0.51965 0.15232 0.00218 0.77256-0.85437
   1   2  -1458464.123778.63   1 0.60581-0.51586-0.05291 0.19221 0.79384-0.83482
   1   2   0 2500.86   80.26   1 0.86598-0.78263-0.49059 0.61489-0.09686 0.09686
  -1  -2   0 2622.53   84.83   1 0.77084-0.85430-0.60764 0.48332 0.19121-0.19121
   1   2   0 2286.91  101.55   1 0.56082-0.47764-0.28607 0.41014 0.77694-0.77694
   1   2   116801.18   95.89   1 0.87069-0.79405-0.47519 0.58418-0.12681 0.16793
  -1  -2  -117561.36   99.23   1 0.52239-0.59923-0.66147 0.55265 0.53810-0.57921
   1   2   115124.27  201.25   1 0.47914-0.40272-0.51522 0.62411 0.71060-0.66955
   1   2   245194.51  394.57   1 0.37294-0.30325-0.70157 0.79520 0.60720-0.52505
  -1  -2  -3 1258.83   54.55   1 0.87584-0.93922-0.35371 0.27531-0.32830 0.20506
   1   2   3 1334.49   57.21   1 0.83868-0.77546-0.54429 0.62268 0.01882 0.10452
   1   2   3 1221.95  191.79   1 0.26847-0.20555-0.82865 0.90685 0.49116-0.36791
   1   2   428206.93  250.87   1 0.83628-0.77977-0.54763 0.61071 0.02673 0.13772
   1   2   425287.84  345.37   1 0.18041-0.12402-0.90324 0.96643 0.38935-0.22497
   1   2   5  866.73   75.21   1 0.83160-0.78180-0.55380 0.60158 0.04162 0.16395
   1   2   6  841.33   77.14   1 0.82590-0.78281-0.56073 0.59320 0.05879 0.18790
   1   2   7  187.17   64.36   1 0.81953-0.78276-0.56797 0.58517 0.07598 0.21178
   1   2   8  617.93  106.72   1 0.81259-0.78249-0.57507 0.57697 0.09477 0.23410
   1   2  10 1810.31  159.17   1 0.79716-0.78040-0.58887 0.56016 0.13327 0.27782
   1   2  11  150.01   65.54   1 0.78871-0.77862-0.59547 0.55145 0.15281 0.29940
   1   2  12  472.43  137.08   1 0.77977-0.77635-0.60183 0.54252 0.17247 0.32085
   1   2  13 8649.15  515.12   1 0.77034-0.77359-0.60796 0.53334 0.19224 0.34219
   1   2  1422260.62  610.60   1 0.76042-0.77034-0.61382 0.52389 0.21209 0.36345
   1   2  15 5199.19  412.69   1 0.75025-0.76680-0.61918 0.51389 0.23179 0.38460
   1   2  16  114.77  132.51   1 0.73933-0.76256-0.62448 0.50388 0.25178 0.40570
   1   2  17 1273.38  222.52   1 0.72790-0.75779-0.62949 0.49359 0.27183 0.42675
   1   2  18  541.90  164.81   1 0.71593-0.75249-0.63419 0.48298 0.29193 0.44774
   1   2  19 3759.99  383.30   1 0.70342-0.74665-0.63858 0.47207 0.31209 0.46868
   1   2  20 3074.03  340.23   1 0.69035-0.74024-0.64264 0.46082 0.33229 0.48956
   1   2  21  259.39  236.16   1 0.67669-0.73325-0.64636 0.44924 0.35255 0.51040
  -1  -3  18  220.01  258.03   1 0.69357-0.89315-0.64169 0.17972 0.32739 0.41228
  -1  -3  17  828.36  264.54   1 0.70699-0.89990-0.63738 0.19072 0.30642 0.39216
  -1  -3  16  -19.14  132.36   1 0.71986-0.90610-0.63270 0.20135 0.28543 0.37205
  -1  -3  1510685.19 4598.45   1 0.73219-0.91176-0.62767 0.21162 0.26441 0.35198
  -1  -3  14 1926.48  329.79   1 0.74400-0.91691-0.62228 0.22154 0.24335 0.33195
  -1  -3  13 6842.79  388.83   1 0.75531-0.92155-0.61653 0.23110 0.22222 0.31198
  -1  -3  12 4367.84  379.93   1 0.76602-0.92558-0.61057 0.24046 0.20098 0.29233
  -1  -3  11  792.98  216.01   1 0.77639-0.92928-0.60409 0.24928 0.17966 0.27255
  -1  -3  10  -48.45  106.31   1 0.78630-0.93252-0.59723 0.25772 0.15819 0.25291
  -1  -3   9 1352.13  161.79   1 0.79578-0.93533-0.58998 0.26578 0.13652 0.23346
  -1  -3   8  -59.40  112.44   1 0.80484-0.93772-0.58231 0.27340 0.11460 0.21427
  -1  -3   7117876.7 1641.11   1 0.81351-0.93972-0.57416 0.28056 0.09233 0.19544
  -1  -3   611195.14  324.94   1 0.82181-0.94135-0.56548 0.28718 0.06956 0.17710
  -1  -3   5  648.15  135.80   1 0.82990-0.94285-0.55592 0.29295 0.04683 0.15874
   1   3  -5  702.04  117.70   1 0.57102-0.45738 0.49661-0.23383 0.65369-0.85797
  -1  -3   415633.33  306.51   1 0.83764-0.94388-0.54575 0.29808 0.02225 0.14220
   1   3  -410888.03  270.01   1 0.59084-0.48469 0.40760-0.16078 0.69624-0.85977
  -1  -3   310626.26  597.30   1 0.84521-0.94474-0.53440 0.30204-0.00403 0.12738
   1   3  -3 6803.91  238.32   1 0.60751-0.50799 0.29858-0.06681 0.73605-0.85876
  -1  -3   1473770.024576.28   1 0.86059-0.94670-0.50467 0.30292-0.06836 0.10947
   1   3  -1378618.319653.82   1 0.61293-0.52718 0.02269 0.17862 0.78980-0.83076
   1   3   1478430.224798.24   1 0.73060-0.65826-0.03933 0.21059-0.68167 0.72272
  -1  -3  -1490815.725439.22   1 0.87869-0.95131-0.42731 0.25592-0.21281 0.17176
   1   3   1444396.623057.69   1 0.55311-0.48063-0.31399 0.48494 0.77166-0.73063
  -1  -3  -2216611.5  614.93   1 0.79395-0.85978-0.13686-0.01903-0.59237 0.51030
  -1  -3  -3  288.82   26.81   1 0.80015-0.85967-0.58638 0.44580 0.12610-0.24944
   1   3   3  445.47   31.96   1 0.28332-0.22399-0.62178 0.76257 0.73014-0.60687
   1   3   3  485.94   76.98   1 0.42517-0.36602-0.61985 0.76044 0.65954-0.53642
   1   3   472723.37  382.93   1 0.60709-0.55423-0.65849 0.78370 0.44477-0.28041
   1   3   466136.68  560.08   1 0.35136-0.29907-0.73156 0.85685 0.58425-0.41994
   1   3   5  605.69   57.37   1 0.69597-0.64976-0.64095 0.75088 0.32370-0.11823
   1   3   5  620.78  116.56   1 0.28364-0.23814-0.81312 0.92279 0.50829-0.30287
   1   3   630225.04  326.91   1 0.72962-0.69007-0.62877 0.72338 0.26887-0.02231
   1   3   627014.36  376.32   1 0.22521-0.18636-0.86850 0.96292 0.44155-0.19505
   1   3   756901.53  490.05   1 0.74411-0.71123-0.62222 0.70154 0.24314 0.04450
   1   3   751171.68  596.86   1 0.17834-0.14600-0.90470 0.98429 0.38690-0.09925
   1   3   855654.73  535.62   1 0.74990-0.72369-0.61935 0.68336 0.23244 0.09630
   1   3   933939.83  462.63   1 0.75097-0.73143-0.61881 0.66751 0.23044 0.13939
   1   3  10 8439.18  276.02   1 0.74912-0.73624-0.61975 0.65315 0.23391 0.17701
   1   3  11  -25.83   79.59   1 0.74525-0.73904-0.62167 0.63976 0.24106 0.21096
   1   3  12 1240.87  171.50   1 0.73990-0.74036-0.62422 0.62700 0.25078 0.24234
   1   3  13  -98.22  111.09   1 0.73335-0.74048-0.62716 0.61464 0.26238 0.27183
   1   3  14 1982.86  249.84   1 0.72581-0.73961-0.63035 0.60252 0.27540 0.29990
   1   3  1516394.88  946.40   1 0.71740-0.73786-0.63364 0.59051 0.28952 0.32687
   1   3  16  445.45  181.62   1 0.70819-0.73532-0.63697 0.57852 0.30451 0.35298
   1   3  17   36.64  110.87   1 0.69824-0.73204-0.64025 0.56650 0.32019 0.37839
   1   3  18  685.98  160.25   1 0.68759-0.72805-0.64343 0.55438 0.33645 0.40322
   1   3  19  739.55  225.88   1 0.67624-0.72338-0.64648 0.54211 0.35319 0.42757
   1   3  20  513.46  278.90   1 0.66426-0.71819-0.64929 0.52954 0.37035 0.45141
   1   3  21 3109.77  424.05   1 0.65157-0.71218-0.65193 0.51687 0.38784 0.47501
   1   3  22  -49.02  130.92   1 0.63821-0.70548-0.65432 0.50395 0.40563 0.49831
  -1  -4  17  402.38  284.65   1 0.71593-0.90493-0.63419 0.12538 0.29193 0.40665
  -1  -4  16  237.89  177.07   1 0.72930-0.91163-0.62890 0.13540 0.26943 0.38806
  -1  -4  15 1699.82  265.45   1 0.74213-0.91779-0.62317 0.14497 0.24675 0.36964
  -1  -4  14  -40.78  137.74   1 0.75444-0.92344-0.61699 0.15410 0.22387 0.35142
  -1  -4  13  -17.45  132.65   1 0.76618-0.92847-0.61048 0.16290 0.20067 0.33375
  -1  -4  12  401.98  177.67   1 0.77754-0.93317-0.60333 0.17105 0.17721 0.31610
  -1  -4  11   53.24  132.86   1 0.78846-0.93742-0.59565 0.17867 0.15336 0.29885
  -1  -4  10 2078.68  225.94   1 0.79895-0.94123-0.58739 0.18572 0.12900 0.28209
  -1  -4   9 1922.01  220.03   1 0.80902-0.94464-0.57848 0.19212 0.10403 0.26596
  -1  -4   8 4177.38  329.46   1 0.81871-0.94766-0.56884 0.19777 0.07824 0.25063
  -1  -4   7  873.00  126.35   1 0.82813-0.95054-0.55809 0.20236 0.05220 0.23560
  -1  -4   6  176.64   89.96   1 0.83714-0.95285-0.54645 0.20603 0.02392 0.22276
   1   4  -6  117.34   79.69   1 0.55806-0.44152 0.54075-0.20059 0.62940-0.87453
  -1  -4   5  389.00  105.04   1 0.84584-0.95483-0.53339 0.20827-0.00633 0.21190
   1   4  -5  167.47   59.97   1 0.57798-0.46839 0.46976-0.14490 0.66727-0.87155
  -1  -4   434211.69  504.89   1 0.85422-0.95651-0.51840 0.20858-0.03942 0.20388
   1   4  -425271.63  459.49   1 0.59400-0.49195 0.39066-0.08179 0.70323-0.86676
  -1  -4   3 1926.10  201.39   1 0.86227-0.95785-0.50058 0.20606-0.07676 0.20011
   1   4  -3  750.15  111.72   1 0.60756-0.51209 0.29808-0.00424 0.73620-0.85891
  -1  -4   2 3573.54  242.44   1 0.87022-0.95857-0.47700 0.19747-0.12316 0.20527
   1   4  -2 2368.49  194.46   1 0.61530-0.52664 0.19397 0.08468 0.76404-0.84585
  -1  -4   1 1872.65  108.78   1 0.87653-0.95831-0.44699 0.18277-0.17854 0.21959
   1   4  -1 1382.08  133.08   1 0.61576-0.53402 0.07837 0.18499 0.78402-0.82498
  -1  -4   0 1908.79   92.02   1 0.87946-0.95467-0.40156 0.15263-0.25552 0.25552
   1   4   0 1442.76  120.14   1 0.60632-0.53103-0.04838 0.29661 0.79374-0.79374
  -1  -4  -1 1373.95   67.81   1 0.86917-0.93769-0.31900 0.08552-0.37784 0.33676
   1   4   1 1236.95  105.01   1 0.58597-0.51740-0.18110 0.41414 0.78983-0.74885
  -1  -4  -257330.83  294.77   1 0.79189-0.85369-0.13337-0.08465-0.59591 0.51385
  -1  -4  -3  486.54   34.26   1 0.40615-0.46208-0.65000 0.44750 0.64229-0.76564
   1   4   3  495.51   39.00   1-0.39580 0.45098-0.27871 0.48133 0.87501-0.75161
   1   4   3  526.18   75.30   1 0.51015-0.45511-0.44116 0.64375 0.73831-0.61517
   1   4   4114291.9  496.79   1 0.12621-0.07760-0.57121 0.75881 0.81103-0.64667
   1   4   5 3476.49  119.93   1 0.41148-0.36884-0.65081 0.82275 0.63806-0.43247
   1   4   5 3159.47  150.02   1 0.40754-0.36574-0.64968 0.82199 0.64172-0.43651
   1   4   627266.66  300.67   1 0.54370-0.50794-0.66168 0.81810 0.51628-0.26961
   1   4   625302.00  401.34   1 0.35500-0.32011-0.72667 0.88361 0.58815-0.34169
   1   4   7174986.1  811.30   1 0.60897-0.58005-0.65829 0.79972 0.44248-0.15486
   1   4   7156615.9 1254.93   1 0.30808-0.27999-0.78627 0.92741 0.53558-0.24800
   1   4   828562.35  379.28   1 0.64536-0.62311-0.65309 0.77921 0.39619-0.06748
   1   4   825385.46  425.52   1 0.26712-0.24568-0.83000 0.95589 0.48963-0.16096
   1   4   924652.87  480.49   1 0.66577-0.65019-0.64895 0.75976 0.36823 0.00155
   1   4   921888.64  474.18   1 0.23280-0.21801-0.86197 0.97261 0.45033-0.08058
   1   4  1014728.44  374.48   1 0.67695-0.66798-0.64630 0.74184 0.35217 0.05875
   1   4  1013071.30  554.65   1 0.20575-0.19746-0.88429 0.98027 0.41915-0.00821
   1   4  11   28.92   78.38   1 0.68243-0.68013-0.64486 0.72510 0.34414 0.10788
   1   4  11   77.19   78.64   1 0.18395-0.18233-0.90071 0.98149 0.39354 0.05848
   1   4  1219951.29 1157.15   1 0.68402-0.68840-0.64443 0.70936 0.34177 0.15134
   1   4  1218138.74 1416.12   1 0.16744-0.17249-0.91219 0.97777 0.37397 0.11914
   1   4  13  -25.57  115.37   1 0.68284-0.69388-0.64475 0.69438 0.34353 0.19068
   1   4  13  283.80   82.46   1 0.15554-0.16726-0.91997 0.97035 0.35978 0.17442
   1   4  1440501.19  802.48   1 0.67955-0.69725-0.64563 0.67995 0.34838 0.22692
   1   4  1433865.37  744.58   1 0.14762-0.16601-0.92492 0.96011 0.35030 0.22500
   1   4  1516643.49  951.32   1 0.67458-0.69896-0.64689 0.66591 0.35560 0.26079
   1   4  1514598.34 1091.45   1 0.14314-0.16820-0.92764 0.94763 0.34492 0.27147
   1   4  16  806.17  159.14   1 0.66827-0.69941-0.64838 0.65202 0.36470 0.29271
   1   4  16  657.19  126.58   1 0.14163-0.17337-0.92854 0.93333 0.34312 0.31437
   1   4  17  299.61  126.00   1 0.66073-0.69855-0.65006 0.63839 0.37528 0.32322
   1   4  17  340.51   87.58   1 0.14273-0.18113-0.92789 0.91747 0.34444 0.35414
   1   4  18 1938.71  234.01   1 0.65214-0.69663-0.65182 0.62484 0.38707 0.35251
   1   4  18 1350.48  309.78   1 0.14611-0.19119-0.92584 0.90023 0.34850 0.39118
   1   4  19  451.13  247.20   1 0.64259-0.69376-0.65358 0.61129 0.39987 0.38081
   1   4  19  505.19  170.28   1 0.15153-0.20327-0.92250 0.88169 0.35499 0.42578
   1   4  20  103.92  140.86   1 0.63215-0.68999-0.65528 0.59768 0.41350 0.40826
   1   4  20  244.99  133.37   1 0.15877-0.21719-0.91790 0.86189 0.36364 0.45822
   1   4  21 1616.86  317.65   1 0.62085-0.68537-0.65688 0.58397 0.42783 0.43502
   1   4  22   -5.35  129.03   1 0.60874-0.67992-0.65832 0.57009 0.44277 0.46117
  -1  -5  17  220.37  233.49   1 0.72194-0.90703-0.63190 0.06093 0.28195 0.41663
  -1  -5  16  233.00  167.23   1 0.73570-0.91412-0.62613 0.07047 0.25824 0.39924
  -1  -5  15  349.10  189.56   1 0.74893-0.92068-0.61985 0.07950 0.23427 0.38212
  -1  -5  14 6003.98  412.59   1 0.76154-0.92656-0.61318 0.08814 0.20989 0.36564
  -1  -5  13 1551.18  257.98   1 0.77374-0.93210-0.60581 0.09607 0.18521 0.34921
  -1  -5  12 1134.94  265.78   1 0.78545-0.93714-0.59785 0.10341 0.16007 0.33325
  -1  -5  11 2222.39  253.80   1 0.79670-0.94172-0.58924 0.11010 0.13436 0.31785
  -1  -5  10 5625.70  415.49   1 0.80749-0.94584-0.57991 0.11608 0.10794 0.30315
  -1  -5   9  399.76  185.11   1 0.81784-0.94951-0.56976 0.12123 0.08066 0.28933
  -1  -5   8 1448.41  205.02   1 0.82783-0.95300-0.55845 0.12527 0.05309 0.27582
  -1  -5   7 6261.09  454.48   1 0.83733-0.95580-0.54618 0.12830 0.02328 0.26452
  -1  -5   6 6594.19  288.13   1 0.84639-0.95815-0.53248 0.12991-0.00838 0.25508
   1   5  -6 4522.93  233.60   1 0.56335-0.45085 0.52352-0.12127 0.63918-0.88431
  -1  -5   511590.54  499.71   1 0.85496-0.96000-0.51694 0.12967-0.04255 0.24813
   1   5  -5 8603.93  424.92   1 0.57951-0.47476 0.46023-0.07414 0.67257-0.87698
  -1  -5   4  537.54  124.38   1 0.86293-0.96127-0.49891 0.12695-0.08015 0.24461
   1   5  -4  320.88   92.48   1 0.59448-0.49654 0.38798-0.01706 0.70431-0.86784
  -1  -5   3  181.19   72.31   1 0.87046-0.96141-0.47612 0.11906-0.12484 0.24800
   1   5  -3   31.58   82.97   1 0.60646-0.51502 0.30780 0.04810 0.73311-0.85582
  -1  -5   218622.38  340.61   1 0.87617-0.96055-0.44936 0.10760-0.17431 0.25642
  -1  -5   1 7247.40  231.54   1 0.87936-0.95717-0.41421 0.08775-0.23482 0.27588
  -1  -5   0  976.07  100.78   1 0.87724-0.94832-0.36413 0.05312-0.31281 0.31281
   1   5   0  854.61  106.50   1 0.61295-0.54196 0.02298 0.28725 0.78978-0.78978
  -1  -5  -1 6208.10  352.40   1 0.86099-0.92561-0.28772-0.00765-0.41939 0.37837
   1   5   1 5283.15  349.72   1 0.60187-0.53727-0.08458 0.37967 0.79409-0.75311
  -1  -5  -2   -5.98   20.16   1 0.80515-0.86292-0.15652-0.12364-0.57203 0.48996
   1   5   2  -10.17   57.66   1 0.58346-0.52559-0.19366 0.47357 0.78871-0.70674
  -1  -5  -311477.08  150.81   1 0.64620-0.69718 0.06289-0.32803-0.76056 0.63743
   1   5   443127.57  279.68   1-0.29523 0.33973-0.35058 0.60004 0.88877-0.72423
   1   5   441325.05  485.68   1 0.52390-0.47956-0.40399 0.65345 0.74987-0.58568
   1   5   5  138.61   32.37   1 0.03767 0.00029-0.53517 0.76967 0.84389-0.63844
   1   5   6 3764.92  226.58   1 0.26918-0.23778-0.61800 0.83741 0.73865-0.49212
   1   5   6 3623.42  249.51   1 0.44741-0.41627-0.57912 0.79829 0.68149-0.43524
   1   5   7 4409.01  278.69   1 0.40845-0.38291-0.65035 0.85382 0.64047-0.35264
   1   5   7 3775.83  262.55   1 0.40849-0.38403-0.64814 0.85217 0.64268-0.35539
   1   5   882927.89  612.25   1 0.49154-0.47298-0.66013 0.84800 0.56798-0.23908
   1   5   873980.04  881.96   1 0.37009-0.35260-0.70567 0.89427 0.60420-0.27558
   1   5   9 8631.38  257.28   1 0.54342-0.53153-0.66168 0.83425 0.51658-0.14657
   1   5   9 8078.36  484.37   1 0.33647-0.32568-0.75095 0.92440 0.56819-0.19850
   1   5  10  590.83   99.91   1 0.57484-0.56985-0.66098 0.81863 0.48233-0.07145
   1   5  10  482.16  108.01   1 0.30688-0.30286-0.78764 0.94500 0.53425-0.12341
   1   5  11 9813.85  443.18   1 0.59572-0.59741-0.65957 0.80190 0.45833-0.00636
   1   5  11 9356.35  838.52   1 0.28182-0.28445-0.81504 0.95714 0.50624-0.05432
   1   5  1223754.08 1361.25   1 0.60864-0.61700-0.65833 0.78535 0.44288 0.05017
   1   5  1221559.14 1249.72   1 0.26119-0.27048-0.83581 0.96267 0.48289 0.01010
   1   5  13 3966.98  315.21   1 0.61604-0.63108-0.65748 0.76920 0.43381 0.10033
   1   5  13 3192.20  570.27   1 0.24478-0.26072-0.85126 0.96287 0.46413 0.06995
   1   5  14  114.07  157.95   1 0.61944-0.64114-0.65706 0.75346 0.42960 0.14563
   1   5  14   98.62   34.33   1 0.23225-0.25484-0.86245 0.95880 0.44970 0.12546
   1   5  15 5099.58  410.38   1 0.61981-0.64819-0.65701 0.73811 0.42914 0.18718
   1   5  15 4148.70  356.27   1 0.22324-0.25248-0.87017 0.95127 0.43927 0.17698
   1   5  16  122.52  105.03   1 0.61779-0.65285-0.65727 0.72305 0.43164 0.22576
   1   5  16    5.43   31.19   1 0.21740-0.25329-0.87503 0.94089 0.43248 0.22485
   1   5  17  357.31  138.59   1 0.61385-0.65558-0.65774 0.70822 0.43652 0.26197
   1   5  17  401.60  105.71   1 0.21439-0.25693-0.87750 0.92810 0.42898 0.26944
   1   5  18 2437.74  298.98   1 0.60828-0.65668-0.65837 0.69353 0.44333 0.29626
   1   5  18 1578.19  384.09   1 0.21392-0.26312-0.87788 0.91323 0.42843 0.31107
   1   5  19 1046.78  216.53   1 0.60130-0.65638-0.65907 0.67892 0.45172 0.32896
   1   5  19  506.03  132.40   1 0.21574-0.27160-0.87639 0.89649 0.43056 0.35003
   1   5  20 1898.34  267.16   1 0.59308-0.65483-0.65979 0.66433 0.46143 0.36033
   1   5  20 1535.18  270.65   1 0.21964-0.28215-0.87318 0.87803 0.43509 0.38658
   1   5  21  978.21  245.19   1 0.58373-0.65215-0.66047 0.64970 0.47226 0.39059
   1   5  22 1337.85  268.98   1 0.57332-0.64842-0.66106 0.63499 0.48403 0.41991
  -1  -6  16  474.57  283.58   1 0.73941-0.91392-0.62445 0.00664 0.25165 0.40583
  -1  -6  15  440.20  276.48   1 0.75296-0.92081-0.61777 0.01527 0.22668 0.38971
  -1  -6  14  -41.92  146.60   1 0.76590-0.92700-0.61064 0.02344 0.20122 0.37432
  -1  -6  13 3885.92  347.57   1 0.77839-0.93281-0.60276 0.03086 0.17541 0.35902
  -1  -6  12   -9.23  131.08   1 0.79036-0.93811-0.59422 0.03762 0.14906 0.34426
  -1  -6  11   45.49  139.77   1 0.80183-0.94291-0.58495 0.04366 0.12204 0.33016
  -1  -6  10  258.06  131.32   1 0.81279-0.94720-0.57487 0.04888 0.09423 0.31687
  -1  -6   9 1401.03  257.11   1 0.82326-0.95100-0.56387 0.05318 0.06543 0.30456
  -1  -6   8 1603.69  269.44   1 0.83332-0.95455-0.55159 0.05625 0.03623 0.29268
  -1  -6   7  159.08  101.26   1 0.84279-0.95731-0.53821 0.05818 0.00466 0.28314
  -1  -6   6   91.40   88.11   1 0.85168-0.95949-0.52325 0.05853-0.02889 0.27558
   1   6  -6  -57.91   83.50   1 0.56530-0.45686 0.51688-0.05254 0.64284-0.88798
  -1  -6   5 5351.17  394.04   1 0.85991-0.96100-0.50628 0.05686-0.06503 0.27061
   1   6  -5 4067.64  340.85   1 0.57983-0.47919 0.45885-0.01071 0.67322-0.87764
  -1  -6   4   83.66   79.00   1 0.86770-0.96124-0.48549 0.05089-0.10674 0.27095
   1   6  -4   27.94   72.48   1 0.59339-0.49956 0.39403 0.03894 0.70187-0.86540
  -1  -6   3   29.24   65.69   1 0.87380-0.96078-0.46230 0.04301-0.15079 0.27395
   1   6  -3   49.52   82.60   1 0.60429-0.51727 0.32381 0.09399 0.72799-0.85064
  -1  -6   217832.67  396.71   1 0.87812-0.95853-0.43403 0.03004-0.20128 0.28339
   1   6  -212085.63  373.86   1 0.61222-0.53164 0.24777 0.15502 0.75085-0.83265
  -1  -6   130576.95  523.69   1 0.87967-0.95333-0.39774 0.00919-0.26070 0.30178
   1   6  -120360.00  479.30   1 0.61613-0.54236 0.16695 0.22066 0.76974-0.81064
  -1  -6   0 1126.02  123.54   1 0.87526-0.94234-0.34995-0.02325-0.33382 0.33382
   1   6   0  878.64  126.81   1 0.61586-0.54888 0.08137 0.29091 0.78364-0.78364
  -1  -6  -1  273.34   54.72   1 0.85961-0.92025-0.28325-0.07425-0.42523 0.38421
  -1  -6  -2 6103.62  351.15   1 0.81957-0.87331-0.18376-0.15853-0.54269 0.46063
   1   6   2 6030.95  248.68   1 0.59975-0.54585-0.09979 0.44176 0.79393-0.71196
  -1  -6  -3  510.00   74.19   1 0.72935-0.77627-0.03767-0.28961-0.68309 0.55992
   1   6   3  757.01  123.70   1 0.58395-0.53677-0.19123 0.51800 0.78893-0.66598
  -1  -6  -4 5828.93  356.93   1 0.55067-0.59123 0.15828-0.47046-0.81957 0.65505
   1   6   4 6529.79  141.08   1-0.52844 0.56908-0.16862 0.48009 0.83205-0.66757
   1   6   4 6049.66  240.13   1 0.56217-0.52178-0.28097 0.59256 0.77782-0.61367
   1   6   5 3670.54  225.92   1-0.27524 0.30920-0.36434 0.66062 0.88965-0.68408
   1   6   5 3996.11  302.84   1 0.53729-0.50366-0.36583 0.66226 0.75992-0.55473
   1   6   634151.75  325.07   1-0.03059 0.05781-0.50355 0.78491 0.86341-0.61689
   1   6   632929.99  476.72   1 0.50879-0.48189-0.44468 0.72583 0.73714-0.49085
   1   6   7   60.45   59.22   1 0.15993-0.13933-0.58353 0.84968 0.79618-0.50854
   1   6   7  116.77   68.13   1 0.47922-0.45906-0.51507 0.78105 0.71066-0.42333
   1   6   8  365.25   68.99   1 0.29201-0.27794-0.62403 0.87513 0.72478-0.39608
   1   6   8  286.21   75.23   1 0.44845-0.43465-0.57713 0.82803 0.68250-0.35416
   1   6   9  108.16   54.17   1 0.38153-0.37309-0.64592 0.88092 0.66122-0.29115
   1   6   9  130.53   81.26   1 0.41949-0.41239-0.62969 0.86545 0.65384-0.28446
   1   6  10  348.25   77.96   1 0.44272-0.44092-0.65497 0.87470 0.61237-0.20119
   1   6  10  558.62  146.17   1 0.39099-0.39090-0.67462 0.89489 0.62609-0.21532
   1   6  11 7836.46  504.65   1 0.48353-0.48885-0.65959 0.86362 0.57543-0.12320
   1   6  11 6676.36  564.26   1 0.36657-0.37318-0.71066 0.91577 0.60047-0.14862
   1   6  12 6136.42  424.08   1 0.51211-0.52410-0.66116 0.84988 0.54827-0.05492
   1   6  12 5564.92  474.56   1 0.34519-0.35850-0.73972 0.92967 0.57762-0.08469
   1   6  1321666.54 1061.37   1 0.53148-0.55013-0.66163 0.83505 0.52892 0.00553
   1   6  1319215.54 1280.67   1 0.32702-0.34704-0.76275 0.93754 0.55791-0.02390
   1   6  14 9484.47  356.69   1 0.54420-0.56952-0.66168 0.81979 0.51577 0.05979
   1   6  14 8632.23  679.07   1 0.31207-0.33879-0.78062 0.94025 0.54151 0.03356
   1   6  1572038.85 5881.40   1 0.55197-0.58397-0.66159 0.80440 0.50755 0.10912
   1   6  1559414.92 3110.87   1 0.29996-0.33331-0.79546 0.93853 0.52656 0.08969
   1   6  16 2091.48  256.66   1 0.55594-0.59461-0.66152 0.78902 0.50329 0.15449
   1   6  16 1543.39  308.59   1 0.29105-0.33106-0.80522 0.93305 0.51661 0.14072
   1   6  17  220.59  160.48   1 0.55692-0.60225-0.66149 0.77370 0.50225 0.19665
   1   6  17  235.45   56.98   1 0.28491-0.33157-0.81178 0.92436 0.50972 0.18869
   1   6  18  255.60  165.61   1 0.55544-0.60745-0.66153 0.75843 0.50383 0.23617
   1   6  18  167.34   56.92   1 0.28133-0.33464-0.81555 0.91287 0.50569 0.23381
   1   6  19 1537.16  251.34   1 0.55193-0.61061-0.66159 0.74319 0.50759 0.27352
   1   6  19 1072.06  297.98   1 0.28010-0.34007-0.81682 0.89890 0.50431 0.27627
   1   6  20  433.51  244.14   1 0.54666-0.61201-0.66166 0.72795 0.51318 0.30905
   1   6  20  507.08  112.92   1 0.28106-0.34767-0.81583 0.88265 0.50539 0.31628
   1   6  21    8.51  114.89   1 0.53986-0.61188-0.66169 0.71268 0.52029 0.34305
   1   6  22  -23.32  125.54   1 0.53168-0.61036-0.66164 0.69732 0.52871 0.37574
  -1  -7  15   93.20  154.37   1 0.75451-0.91844-0.61695-0.04769 0.22374 0.39265
  -1  -7  14  -74.39  134.61   1 0.76776-0.92492-0.60953-0.03982 0.19748 0.37806
  -1  -7  13  -54.12  148.81   1 0.78051-0.93099-0.60133-0.03272 0.17088 0.36355
  -1  -7  12  129.70  152.44   1 0.79270-0.93652-0.59242-0.02633 0.14370 0.34962
  -1  -7  11  223.40  125.73   1 0.80435-0.94149-0.58275-0.02070 0.11583 0.33637
  -1  -7  10  203.74  196.13   1 0.81545-0.94593-0.57221-0.01593 0.08713 0.32396
  -1  -7   9   41.61  103.61   1 0.82608-0.95007-0.56051-0.01226 0.05826 0.31178
  -1  -7   8   20.24  104.91   1 0.83610-0.95338-0.54788-0.00960 0.02732 0.30160
  -1  -7   7 1393.98  183.63   1 0.84552-0.95608-0.53391-0.00826-0.00515 0.29296
  -1  -7   6  378.41  133.76   1 0.85425-0.95811-0.51833-0.00853-0.03955 0.28625
   1   7  -6  169.70  119.24   1 0.56506-0.46067 0.51771 0.00871 0.64239-0.88752
  -1  -7   5  -18.56   81.49   1 0.86220-0.95935-0.50075-0.01081-0.07641 0.28198
   1   7  -5  -74.95   83.62   1 0.57851-0.48197 0.46438 0.04580 0.67057-0.87498
  -1  -7   4 4916.64  375.71   1 0.86951-0.95909-0.47951-0.01731-0.11835 0.28256
   1   7  -4 3612.57  337.58   1 0.59119-0.50147 0.40575 0.08926 0.69702-0.86055
  -1  -7   3 2405.76  225.98   1 0.87504-0.95805-0.45602-0.02549-0.16230 0.28545
   1   7  -3 1662.83  216.45   1 0.60166-0.51874 0.34316 0.13670 0.72127-0.84392
  -1  -7   2 7796.08  375.23   1 0.87864-0.95509-0.42795-0.03826-0.21172 0.29382
   1   7  -2 5073.80  250.02   1 0.60980-0.53326 0.27624 0.18862 0.74284-0.82465
  -1  -7   1 1772.32  139.89   1 0.87953-0.94918-0.39298-0.05776-0.26829 0.30937
   1   7  -1 1033.61  139.67   1 0.61478-0.54505 0.20602 0.24366 0.76130-0.80221
  -1  -7   0 2572.07  133.38   1 0.87512-0.93820-0.34904-0.08636-0.33514 0.33514
   1   7   0 1780.73  186.79   1 0.61665-0.55369 0.13234 0.30199 0.77602-0.77602
  -1  -7  -1 8865.09  242.12   1 0.86214-0.91879-0.29153-0.12811-0.41438 0.37336
   1   7   1 7611.74  312.07   1 0.61486-0.55863 0.05601 0.36315 0.78664-0.74568
   1   7   2 7745.51  312.05   1 0.60928-0.55979-0.02203 0.42602 0.79264-0.71072
  -1  -7  -316991.47  305.66   1 0.77434-0.81748-0.10491-0.28427-0.62400 0.50090
   1   7   314765.69  408.79   1 0.59952-0.55631-0.10141 0.49024 0.79390-0.67094
  -1  -7  -4  339.50   51.65   1 0.67056-0.70680 0.03533-0.40956-0.74100 0.57679
   1   7   4  180.76  102.32   1 0.58632-0.54983-0.17929 0.55294 0.78998-0.62604
  -1  -7  -5 2593.80  257.88   1 0.50597-0.53589 0.19879-0.55790-0.83932 0.63368
   1   7   5 2822.52  118.52   1-0.48341 0.51337-0.20811 0.56640 0.85029-0.64469
   1   7   5 2789.56  177.93   1 0.56864-0.53896-0.25546 0.61393 0.78190-0.57671
   1   7   6   66.45   40.86   1-0.28315 0.30644-0.35912 0.70224 0.88929-0.64260
   1   7   6  119.43   95.87   1 0.54921-0.52627-0.32740 0.67072 0.76887-0.52265
   1   7   718495.54  340.12   1-0.09182 0.10839-0.47272 0.80097 0.87641-0.58880
   1   7   718815.41  450.19   1 0.52708-0.51087-0.39494 0.72295 0.75246-0.46512
   1   7   8  966.97   92.30   1 0.06818-0.05821-0.54819 0.86125 0.83356-0.50483
   1   7   8  778.45  103.61   1 0.50432-0.49487-0.45603 0.76887 0.73327-0.40488
   1   7   918210.77  676.40   1 0.18956-0.18609-0.59389 0.89193 0.78188-0.41209
   1   7   917551.71  706.74   1 0.48124-0.47853-0.51058 0.80825 0.71253-0.34310
   1   7  10  873.67  110.45   1 0.27975-0.28301-0.62085 0.90364 0.73231-0.32143
   1   7  10  813.36  129.89   1 0.45769-0.46125-0.55897 0.84159 0.69142-0.28100
   1   7  11 5711.33  388.81   1 0.34478-0.35344-0.63879 0.90532 0.68779-0.23549
   1   7  11 5341.40  391.00   1 0.43622-0.44646-0.60008 0.86756 0.67053-0.21907
   1   7  12 7291.46  407.01   1 0.39242-0.40773-0.64779 0.89905 0.65296-0.15953
   1   7  12 7124.67  436.78   1 0.41647-0.43340-0.63483 0.88718 0.65079-0.15829
   1   7  13  115.42   79.05   1 0.42687-0.44881-0.65298 0.88896 0.62561-0.09107
   1   7  13  266.36  100.08   1 0.39882-0.42244-0.66372 0.90094 0.63277-0.09923
   1   7  14  308.43  138.05   1 0.45074-0.47993-0.65664 0.87681 0.60468-0.02911
   1   7  14   21.85   28.47   1 0.38197-0.41268-0.68831 0.90992 0.61670-0.04161
   1   7  15  113.45   68.37   1 0.46819-0.50405-0.65836 0.86323 0.58935 0.02732
   1   7  15  270.80   67.96   1 0.36908-0.40650-0.70710 0.91355 0.60314 0.01301
   1   7  16 3488.04  269.58   1 0.48004-0.52257-0.65934 0.84890 0.57863 0.07915
   1   7  16 2517.34  542.20   1 0.35866-0.40278-0.72167 0.91297 0.59206 0.06516
   1   7  17 2377.02  306.17   1 0.48750-0.53670-0.65987 0.83413 0.57175 0.12714
   1   7  17 1913.88  416.90   1 0.35066-0.40148-0.73249 0.90864 0.58350 0.11480
   1   7  18   74.08  107.28   1 0.49142-0.54729-0.66012 0.81908 0.56809 0.17192
   1   7  18   51.06   58.03   1 0.34500-0.40252-0.73997 0.90096 0.57741 0.16197
   1   7  19 1530.82  239.70   1 0.49246-0.55500-0.66019 0.80384 0.56712 0.21400
   1   7  19  967.21  220.50   1 0.34156-0.40579-0.74443 0.89027 0.57370 0.20675
   1   7  20  -31.39  104.89   1 0.49106-0.56027-0.66010 0.78845 0.56842 0.25381
   1   7  20   56.53   57.91   1 0.34024-0.41117-0.74613 0.87681 0.57228 0.24925
   1   7  21  477.30  204.07   1 0.48759-0.56347-0.65988 0.77293 0.57167 0.29167
  -1  -8  13  -43.97  128.57   1 0.78033-0.92688-0.60145-0.09476 0.17125 0.36317
  -1  -8  12 1458.16  257.75   1 0.79276-0.93264-0.59237-0.08853 0.14356 0.34976
  -1  -8  11 1011.36  270.11   1 0.80461-0.93782-0.58252-0.08309 0.11519 0.33702
  -1  -8  10  280.56  187.19   1 0.81587-0.94241-0.57179-0.07851 0.08601 0.32509
  -1  -8   9 2961.49  291.06   1 0.82662-0.94666-0.55988-0.07504 0.05667 0.31336
  -1  -8   8 1760.63  299.96   1 0.83671-0.95003-0.54705-0.07257 0.02534 0.30357
  -1  -8   7 4000.69  298.07   1 0.84613-0.95275-0.53291-0.07141-0.00742 0.29523
  -1  -8   6 2348.73  248.65   1 0.85482-0.95473-0.51721-0.07180-0.04197 0.28866
   1   8  -6 1557.01  242.44   1 0.56322-0.46287 0.52397 0.06455 0.63893-0.88407
  -1  -8   5 2425.21  272.29   1 0.86266-0.95586-0.49961-0.07410-0.07874 0.28432
   1   8  -5 3042.25  319.55   1 0.57699-0.48360 0.47371 0.09950 0.66533-0.86961
  -1  -8   4 3269.53  221.53   1 0.86976-0.95537-0.47864-0.08041-0.12003 0.28424
   1   8  -4 1924.99  221.98   1 0.58810-0.50248 0.42138 0.13569 0.69034-0.85387
  -1  -8   312534.65  661.07   1 0.87510-0.95414-0.45567-0.08807-0.16293 0.28608
   1   8  -3 8197.42  509.16   1 0.59835-0.51955 0.36497 0.17693 0.71327-0.83592
  -1  -8   2 1821.66  145.94   1 0.87858-0.95106-0.42875-0.09970-0.21036 0.29246
   1   8  -2 1598.84  205.66   1 0.60675-0.53425 0.30525 0.22168 0.73393-0.81574
  -1  -8   1 1521.14  145.56   1 0.87963-0.94527-0.39599-0.11696-0.26349 0.30458
   1   8  -1  844.30  135.50   1 0.61256-0.54687 0.24320 0.26855 0.75207-0.79297
  -1  -8   0 3458.61  265.76   1 0.87622-0.93529-0.35632-0.14128-0.32444 0.32444
   1   8   0 2468.14  240.07   1 0.61583-0.55695 0.17876 0.31781 0.76732-0.76732
  -1  -8  -1  473.25   83.65   1 0.86602-0.91852-0.30636-0.17592-0.39514 0.35406
   1   8   1  290.58  121.60   1 0.61653-0.56432 0.11195 0.36925 0.77932-0.73836
  -1  -8  -213502.73  520.84   1 0.84492-0.89089-0.24210-0.22439-0.47695 0.39491
   1   8   210384.32  501.49   1 0.61424-0.56877 0.04400 0.42203 0.78788-0.70596
  -1  -8  -316028.69  591.75   1 0.80629-0.84540-0.15858-0.29273-0.56985 0.44675
   1   8   313866.99  609.54   1 0.60903-0.57030-0.02454 0.47541 0.79276-0.66987
  -1  -8  -4   13.31   26.38   1 0.74040-0.77258-0.05270-0.38368-0.67008 0.50587
   1   8   4   32.87   76.72   1 0.60062-0.56810-0.09368 0.52938 0.79402-0.63008
  -1  -8  -5 4069.53  279.34   1 0.63558-0.66115 0.07447-0.49565-0.76843 0.56320
   1   8   5 3535.09  237.58   1 0.58980-0.56401-0.16084 0.58135 0.79136-0.58644
  -1  -8  -6  339.67   56.49   1 0.49103-0.51031 0.21176-0.61781-0.84501 0.59823
   1   8   6  367.76   60.42   1-0.46870 0.48800-0.22048 0.62559 0.85539-0.60867
   1   8   6  213.51   86.76   1 0.57548-0.55649-0.22640 0.63175 0.78584-0.53962
   1   8   719013.19  687.15   1-0.30417 0.31662-0.34454 0.73452 0.88812-0.60018
   1   8   718792.98  747.81   1 0.56024-0.54801-0.28824 0.67843 0.77655-0.48929
   1   8   8 4116.38  278.19   1-0.14669 0.15258-0.44257 0.81723 0.88465-0.55573
   1   8   8 4143.36  322.45   1 0.54355-0.53806-0.34609 0.72113 0.76469-0.43640
   1   8   9   43.42   42.81   1-0.01213 0.01128-0.51235 0.87226 0.85868-0.48890
   1   8   9  -55.28   75.72   1 0.52532-0.52656-0.39997 0.75968 0.75103-0.38159
   1   8  10 8622.86  455.60   1 0.09872-0.10612-0.56059 0.90531 0.82218-0.41126
   1   8  10 7635.64  521.14   1 0.50742-0.51541-0.44818 0.79272 0.73596-0.32548
   1   8  11 4188.82  273.68   1 0.18478-0.19863-0.59229 0.92202 0.78424-0.33227
   1   8  11 3983.68  313.58   1 0.48980-0.50454-0.49109 0.82047 0.72035-0.26882
   1   8  12  278.94   90.94   1 0.25166-0.27225-0.61311 0.92760 0.74883-0.25578
   1   8  12  319.61   95.07   1 0.47199-0.49289-0.52940 0.84375 0.70494-0.21244
   1   8  13  696.51  140.89   1 0.30252-0.32984-0.62666 0.92592 0.71816-0.18402
   1   8  13  733.74  138.04   1 0.45627-0.48386-0.56182 0.86103 0.69005-0.15650
   1   8  14  267.97  122.74   1 0.34055-0.37295-0.63789 0.92068 0.69073-0.11507
   1   8  14  284.88  125.22   1 0.44204-0.47632-0.58929 0.87336 0.67625-0.10167
   1   8  15 2483.08  229.69   1 0.36940-0.40845-0.64370 0.91121 0.67021-0.05343
   1   8  15 2229.28  204.84   1 0.42955-0.47052-0.61212 0.88106 0.66391-0.04828
   1   8  16   63.68   81.97   1 0.39070-0.43639-0.64750 0.89974 0.65428 0.00361
   1   8  16  136.69   75.81   1 0.41892-0.46658-0.63067 0.88447 0.65326 0.00340
   1   8  17  274.81  133.99   1 0.40604-0.45837-0.64998 0.88695 0.64237 0.05663
   1   8  17  194.51   81.33   1 0.41023-0.46458-0.64526 0.88392 0.64446 0.05324
   1   8  18   90.19  100.24   1 0.41658-0.47557-0.65155 0.87324 0.63397 0.10615
   1   8  18  112.03   79.79   1 0.40352-0.46455-0.65622 0.87974 0.63760 0.10114
   1   8  19 1328.54  229.81   1 0.42322-0.48885-0.65249 0.85890 0.62859 0.15265
   1   8  19  368.54  220.14   1 0.39875-0.46648-0.66382 0.87221 0.63271 0.14708
   1   8  20  137.20  121.66   1 0.42660-0.49887-0.65294 0.84409 0.62582 0.19654
   1   8  21  282.52  181.05   1 0.42724-0.50615-0.65303 0.82890 0.62530 0.23818
   1   8  22  100.11  136.47   1 0.42549-0.51105-0.65280 0.81339 0.62673 0.27787
  -1  -9  12  172.45  152.93   1 0.79071-0.92665-0.59395-0.14911 0.14826 0.34505
  -1  -9  11   35.00  125.63   1 0.80280-0.93207-0.58411-0.14366 0.11966 0.33255
  -1  -9  10 1509.75  260.89   1 0.81427-0.93688-0.57340-0.13906 0.09030 0.32080
  -1  -9   9 6334.22  432.66   1 0.82520-0.94129-0.56154-0.13554 0.06084 0.30919
  -1  -9   8 6328.93  405.34   1 0.83543-0.94480-0.54879-0.13298 0.02950 0.29941
  -1  -9   7  -20.44  105.95   1 0.84496-0.94763-0.53480-0.13167-0.00313 0.29094
  -1  -9   6 2163.64  238.64   1 0.85374-0.94969-0.51935-0.13182-0.03737 0.28406
   1   9  -6 1235.24  199.72   1 0.56009-0.46379 0.53426 0.11635 0.63313-0.87827
  -1  -9   5    5.47   78.66   1 0.86164-0.95089-0.50214-0.13372-0.07356 0.27913
   1   9  -5   40.31  107.63   1 0.57337-0.48403 0.48779 0.14751 0.65824-0.86252
  -1  -9   4   49.33   84.45   1 0.86880-0.95044-0.48192-0.13936-0.11370 0.27790
   1   9  -4    7.51  107.53   1 0.58419-0.50267 0.43978 0.17934 0.68213-0.84566
  -1  -9   3  517.45  121.56   1 0.87428-0.94935-0.45998-0.14600-0.15507 0.27822
  -1  -9   2  474.17  129.94   1 0.87805-0.94656-0.43467-0.15600-0.20016 0.28227
  -1  -9   1 3730.27  217.76   1 0.87948-0.94142-0.40500-0.17038-0.24995 0.29100
   1   9  -1 2747.46  238.82   1 0.60953-0.54788 0.27908 0.29474 0.74200-0.78291
  -1  -9   0 1486.54  141.18   1 0.87779-0.93285-0.36896-0.19085-0.30553 0.30553
   1   9   0 1002.78  167.01   1 0.61396-0.55912 0.22174 0.33690 0.75754-0.75754
  -1  -9  -1    2.61   51.12   1 0.87069-0.91918-0.32569-0.21879-0.36853 0.32745
   1   9   1   82.12   98.27   1 0.61621-0.56819 0.16294 0.38051 0.77053-0.72962
  -1  -9  -2   45.07   64.90   1 0.85598-0.89796-0.27210-0.25652-0.43960 0.35756
   1   9   2  129.90   98.56   1 0.61638-0.57493 0.10252 0.42556 0.78073-0.69881
   1   9   3 9364.24  627.51   1 0.61413-0.57941 0.04197 0.47094 0.78808-0.66520
  -1  -9  -414835.33  843.39   1 0.78485-0.81336-0.12169-0.37651-0.60761 0.44348
   1   9   412715.04  798.73   1 0.60961-0.58162-0.01851 0.51625 0.79248-0.62863
  -1  -9  -514465.97  836.74   1 0.71737-0.73887-0.02189-0.46143-0.69634 0.49107
   1   9   512670.47  785.58   1 0.60259-0.58076-0.07918 0.56175 0.79411-0.58918
  -1  -9  -6 3129.30  403.27   1 0.61981-0.63470 0.09124-0.55936-0.77942 0.53315
   1   9   6 2972.09  216.32   1-0.59718 0.61216-0.10172 0.56923 0.79562-0.54884
   1   9   6 3212.55  298.58   1 0.59386-0.57876-0.13762 0.60501 0.79270-0.54679
  -1  -9  -7 3545.87  398.44   1 0.49453-0.50318 0.20874-0.66172-0.84371 0.55581
   1   9   7 3477.59  240.09   1-0.47257 0.48120-0.21725 0.66918 0.85409-0.56625
   1   9   7 3761.27  322.32   1 0.58339-0.57502-0.19398 0.64618 0.78868-0.50178
   1   9   8   35.53   53.04   1-0.33530 0.33706-0.32299 0.75981 0.88501-0.55593
   1   9   8  113.11   63.33   1 0.57039-0.56885-0.24826 0.68534 0.78295-0.45465
   1   9   9  197.84   55.94   1-0.20297 0.19820-0.40981 0.83131 0.88930-0.51926
   1   9   9  262.42   93.89   1 0.55743-0.56265-0.29859 0.72050 0.77466-0.40533
   1   9  10 3188.68  182.02   1-0.08636 0.07486-0.47557 0.88237 0.87542-0.46455
   1   9  10 2923.38  206.55   1 0.54384-0.55580-0.34515 0.75191 0.76491-0.35454
   1   9  11  331.67   97.18   1 0.01412-0.03215-0.52469 0.91631 0.85117-0.39916
   1   9  11  390.51  116.15   1 0.52936-0.54804-0.38833 0.77973 0.75430-0.30277
   1   9  12  156.10   89.61   1 0.09670-0.12146-0.55979 0.93617 0.82296-0.32986
   1   9  12   79.08   76.55   1 0.51570-0.54113-0.42654 0.80277 0.74304-0.25046
   1   9  1327629.84 1671.38   1 0.16185-0.19304-0.58441 0.94583 0.79514-0.26100
   1   9  1327324.67 1675.97   1 0.50258-0.53476-0.46038 0.82144 0.73174-0.19811
   1   9  14 1231.90  152.45   1 0.21416-0.25208-0.60184 0.94803 0.76935-0.19412
   1   9  14  924.80  143.59   1 0.49033-0.52925-0.48987 0.83578 0.72082-0.14615
   1   9  15   43.28   86.62   1 0.25510-0.29975-0.61409 0.94504 0.74686-0.13055
   1   9  15    6.04   65.79   1 0.47918-0.52485-0.51514 0.84588 0.71063-0.09491
   1   9  16  184.13  139.93   1 0.28684-0.33821-0.62270 0.93841 0.72798-0.07058
   1   9  16  269.86  125.67   1 0.46829-0.51992-0.53723 0.85303 0.70148-0.04481
   1   9  17 2166.70  234.91   1 0.31074-0.36689-0.63114 0.93018 0.71070-0.01168
   1   9  17 1666.39  245.79   1 0.45987-0.51819-0.55459 0.85525 0.69350 0.00420
   1   9  18 1531.30  249.25   1 0.32896-0.39176-0.63536 0.91913 0.69863 0.04149
   1   9  18  969.43  191.84   1 0.45300-0.51801-0.56827 0.85379 0.68691 0.05183
   1   9  19   87.11  112.48   1 0.34217-0.41161-0.63824 0.90673 0.68960 0.09164
   1   9  19   61.99   81.31   1 0.44774-0.51944-0.57848 0.84886 0.68182 0.09797
   1   9  20   29.87  109.70   1 0.35121-0.42730-0.64012 0.89334 0.68328 0.13908
  -1 -10  11  221.06  186.54   1 0.79900-0.92434-0.58734-0.20258 0.12888 0.32333
  -1 -10  10  -77.01  118.01   1 0.81075-0.92942-0.57685-0.19777 0.09957 0.31153
  -1 -10   9  674.33  203.57   1 0.82185-0.93385-0.56544-0.19388 0.06945 0.30054
  -1 -10   8  156.81  132.88   1 0.83239-0.93782-0.55279-0.19113 0.03916 0.28975
  -1 -10   7 5642.95  396.77   1 0.84214-0.94086-0.53920-0.18942 0.00693 0.28087
  -1 -10   6 5282.32  354.39   1 0.85113-0.94314-0.52426-0.18905-0.02668 0.27337
   1  10  -6 3628.87  318.40   1 0.55586-0.46361 0.54763 0.16507 0.62538-0.87052
  -1 -10   5  697.04  186.39   1 0.85927-0.94456-0.50775-0.19026-0.06198 0.26756
   1  10  -5  638.62  223.27   1 0.56884-0.48354 0.50451 0.19288 0.64952-0.85380
  -1 -10   4  110.10   93.14   1 0.86669-0.94436-0.48857-0.19494-0.10069 0.26489
   1  10  -4   58.98  101.99   1 0.57951-0.50210 0.46022 0.22095 0.67257-0.83610
  -1 -10   3  -46.42   91.40   1 0.87254-0.94364-0.46794-0.20027-0.14031 0.26347
   1  10  -3   18.61  103.19   1 0.58972-0.51913 0.41330 0.25271 0.69383-0.81647
  -1 -10   2 1128.77  172.81   1 0.87689-0.94142-0.44449-0.20842-0.18298 0.26508
   1  10  -2  587.38  161.91   1 0.59840-0.53462 0.36466 0.28618 0.71339-0.79515
  -1 -10   1 5620.27  420.68   1 0.87925-0.93722-0.41747-0.22014-0.22940 0.27046
   1  10  -1 3461.73  351.02   1 0.60546-0.54849 0.31446 0.32121 0.73111-0.77199
  -1 -10   0 1373.85  165.42   1 0.87916-0.93022-0.38527-0.23674-0.28042 0.28042
   1  10   0 2069.28  328.99   1 0.61105-0.56025 0.26242 0.35829 0.74682-0.74682
  -1 -10  -126034.85 1351.79   1 0.87490-0.91939-0.34769-0.25899-0.33711 0.29603
   1  10   120292.07 1160.01   1 0.61460-0.57062 0.20973 0.39579 0.76043-0.71953
  -1 -10  -2 6557.62  270.52   1 0.86496-0.90288-0.30241-0.28892-0.40046 0.31830
   1  10   2 3877.16  299.66   1 0.61633-0.57916 0.15625 0.43409 0.77182-0.69001
  -1 -10  -3 2038.36  146.92   1 0.84690-0.87820-0.24713-0.32834-0.47082 0.34776
   1  10   3 1588.35  202.78   1 0.61637-0.58566 0.10162 0.47333 0.78086-0.65798
  -1 -10  -4 1228.06  164.30   1 0.81789-0.84236-0.18044-0.37989-0.54634 0.38221
   1  10   4 1167.45  213.75   1 0.61443-0.59046 0.04757 0.51221 0.78752-0.62368
  -1 -10  -5 1210.54  154.30   1 0.77132-0.78923-0.10023-0.44485-0.62849 0.42333
   1  10   5  809.22  164.60   1 0.61073-0.59350-0.00599 0.55061 0.79181-0.58700
  -1 -10  -6   18.40   35.83   1 0.70665-0.71747-0.00821-0.52205-0.70750 0.46118
   1  10   6  129.26   98.66   1 0.60504-0.59391-0.05954 0.58898 0.79396-0.54805
  -1 -10  -712018.78  452.93   1 0.61863-0.62285 0.09247-0.60753-0.78021 0.49290
   1  10   712222.68  296.16   1-0.59591 0.60021-0.10300 0.61738 0.79641-0.50850
   1  10   711493.16  454.72   1 0.59814-0.59374-0.11074 0.62499 0.79369-0.50680
  -1 -10  -8 4690.93  343.61   1 0.51014-0.50814 0.19512-0.69503-0.83766 0.50863
   1  10   8 4884.89  196.07   1-0.48854 0.48650-0.20373 0.70247 0.84841-0.51945
   1  10   8 4941.21  309.72   1 0.58996-0.59228-0.15996 0.65903 0.79142-0.46354
   1  10   9   13.67   42.49   1-0.37199 0.36306-0.29652 0.78019 0.87959-0.50938
   1  10   9  111.61  100.85   1 0.57964-0.58880-0.20742 0.69138 0.78802-0.41869
   1  10  10 3637.05  265.37   1-0.25871 0.24327-0.37509 0.84342 0.89015-0.47900
   1  10  10 3850.51  337.41   1 0.56964-0.58555-0.25136 0.72016 0.78250-0.37213
   1  10  11  849.36  135.17   1-0.15371 0.13153-0.43860 0.89166 0.88543-0.43316
   1  10  11  658.54  130.76   1 0.55920-0.58186-0.29212 0.74576 0.77585-0.32444
   1  10  12 3026.88  272.15   1-0.06492 0.03602-0.48657 0.92503 0.87122-0.37817
   1  10  12 3036.66  295.91   1 0.54860-0.57801-0.32945 0.76793 0.76843-0.27598
   1  10  13  329.33  112.97   1 0.01205-0.04745-0.52375 0.94704 0.85178-0.31759
   1  10  13  308.35  115.72   1 0.53815-0.57431-0.36317 0.78650 0.76058-0.22710
   1  10  14  841.80  137.95   1 0.07621-0.11835-0.55152 0.95956 0.83067-0.25538
   1  10  14 1437.27  233.82   1 0.52741-0.57028-0.39399 0.80191 0.75273-0.17805
   1  10  15  346.87  176.25   1 0.12850-0.17738-0.57208 0.96489 0.81006-0.19369
   1  10  15  222.42  112.80   1 0.51801-0.56762-0.42031 0.81307 0.74498-0.12925
   1  10  16 1921.86  195.39   1 0.16982-0.22507-0.58720 0.96508 0.79142-0.13401
   1  10  16 2447.20  261.64   1 0.50947-0.56583-0.44293 0.82053 0.73772-0.08095
   1  10  17   80.01   92.34   1 0.20348-0.26545-0.59844 0.96109 0.77489-0.07639
   1  10  17  261.95  181.64   1 0.50196-0.56507-0.46193 0.82436 0.73119-0.03337
   1  10  18  270.46  192.68   1 0.22994-0.29864-0.60671 0.95412 0.76093-0.02135
   1  10  18  282.73  176.13   1 0.49561-0.56547-0.47739 0.82465 0.72557 0.01329
   1  10  19  530.97  130.71   1 0.49053-0.56714-0.48941 0.82151 0.72100 0.05890
  -1 -11   9    9.56  112.53   1 0.81673-0.92479-0.57091-0.25057 0.08369 0.28630
  -1 -11   8  150.85  129.82   1 0.82758-0.92906-0.55875-0.24732 0.05383 0.27508
  -1 -11   7 1044.45  190.09   1 0.83766-0.93242-0.54573-0.24503 0.02222 0.26558
  -1 -11   6   76.20  105.37   1 0.84698-0.93503-0.53151-0.24395-0.01057 0.25726
  -1 -11   5  114.23  109.53   1 0.85547-0.93682-0.51589-0.24427-0.04479 0.25037
   1  11  -5  553.86  210.26   1 0.56343-0.48218 0.52325 0.23624 0.63933-0.84361
  -1 -11   4  366.90  141.69   1 0.86304-0.93768-0.49863-0.24623-0.08073 0.24519
   1  11  -4  366.85  148.14   1 0.57499-0.50069 0.48158 0.26260 0.66140-0.82482
  -1 -11   3    1.49   71.48   1 0.86971-0.93685-0.47881-0.25164-0.11970 0.24286
   1  11  -3  151.90  171.50   1 0.58436-0.51787 0.43900 0.28906 0.68249-0.80513
  -1 -11   2  -14.10   63.78   1 0.87480-0.93537-0.45730-0.25784-0.15996 0.24207
   1  11  -2  161.79  166.28   1 0.59331-0.53363 0.39444 0.31845 0.70170-0.78346
  -1 -11   1  233.08  103.16   1 0.87823-0.93223-0.43290-0.26695-0.20324 0.24429
   1  11  -1  113.31  162.44   1 0.60085-0.54799 0.34868 0.34904 0.71929-0.76017
  -1 -11   0 2174.57  200.06   1 0.87948-0.92692-0.40486-0.27968-0.25018 0.25018
   1  11   0 1460.19  212.45   1 0.60719-0.56043 0.30141 0.38138 0.73516-0.73516
  -1 -11  -1 2619.50  249.04   1 0.87805-0.91854-0.37155-0.29733-0.30159 0.26051
   1  11   1 2172.83  288.41   1 0.61176-0.57182 0.25374 0.41386 0.74923-0.70833
  -1 -11  -2  678.87  126.17   1 0.87223-0.90614-0.33305-0.32049-0.35816 0.27600
   1  11   2  606.31  153.65   1 0.61481-0.58168 0.20548 0.44693 0.76143-0.67962
  -1 -11  -3   65.21   55.31   1 0.86078-0.88810-0.28702-0.35059-0.42031 0.29725
   1  11   3  -82.70  105.80   1 0.61632-0.59001 0.15692 0.48031 0.77169-0.64898
   1  11   4 1673.20  236.42   1 0.61647-0.59651 0.10752 0.51431 0.78000-0.61615
   1  11   5 4482.41  414.10   1 0.61500-0.60179 0.05920 0.54746 0.78629-0.58149
   1  11   6 2961.37  321.40   1 0.61214-0.60566 0.01161 0.57987 0.79065-0.54489
   1  11   7 6385.96  508.84   1 0.60768-0.60724-0.03584 0.61215 0.79337-0.50647
   1  11   8 7048.01  541.04   1 0.60236-0.60865-0.08087 0.64200 0.79411-0.46623
   1  11   9 2679.46  300.66   1 0.59608-0.60910-0.12403 0.66997 0.79328-0.42441
   1  11  10 5768.09  464.18   1 0.58904-0.60878-0.16498 0.69573 0.79108-0.38123
   1  11  11   89.44   90.91   1 0.58035-0.60696-0.20408 0.71975 0.78838-0.33697
   1  11  12  237.59  139.30   1 0.57242-0.60578-0.23971 0.74023 0.78413-0.29168
   1  11  13  139.94   97.23   1 0.56441-0.60452-0.27235 0.75772 0.77926-0.24578
   1  11  14  321.34   96.76   1 0.55653-0.60339-0.30187 0.77208 0.77404-0.19952
   1  11  15 3004.66  276.06   1 0.54899-0.60260-0.32815 0.78320 0.76871-0.15315
   1  11  16 1859.10  242.87   1 0.54198-0.60233-0.35115 0.79104 0.76351-0.10691
   1  11  17   -8.99   69.66   1 0.53566-0.60277-0.37083 0.79557 0.75864-0.06101
   1  11  18  219.90  117.76   1 0.52943-0.60324-0.38811 0.79740 0.75436-0.01549
  -1 -12   6 1031.06  257.80   1 0.84112-0.92523-0.54073-0.29688 0.01048 0.23620
  -1 -12   5  106.94  106.88   1 0.85009-0.92749-0.52614-0.29617-0.02254 0.22811
   1  12  -5   82.95  135.30   1 0.55717-0.47997 0.54355 0.27803 0.62777-0.83205
  -1 -12   4 2666.47  302.30   1 0.85820-0.92888-0.51014-0.29686-0.05697 0.22144
   1  12  -4 1860.19  291.93   1 0.56875-0.49850 0.50482 0.30145 0.64935-0.81278
  -1 -12   3   48.39   89.84   1 0.86532-0.92930-0.49248-0.29922-0.09310 0.21645
   1  12  -3  368.39  195.84   1 0.57827-0.51588 0.46539 0.32472 0.67008-0.79272
  -1 -12   2  958.13  190.87   1 0.87143-0.92803-0.47245-0.30492-0.13182 0.21393
   1  12  -2  917.30  233.35   1 0.58749-0.53191 0.42435 0.35059 0.68904-0.77080
  -1 -12   1   13.56   58.49   1 0.87598-0.92601-0.45057-0.31150-0.17214 0.21320
   1  12  -1   74.62  117.04   1 0.59546-0.54670 0.38235 0.37742 0.70655-0.74743
   1  12   0  124.99  128.65   1 0.60217-0.56022 0.33956 0.40505 0.72255-0.72255
   1  12   1  -20.28  114.89   1 0.60783-0.57192 0.29564 0.43403 0.73697-0.69606
   1  12   2  160.19  124.65   1 0.61192-0.58283 0.25176 0.46273 0.74977-0.66796
   1  12   3 1120.27  230.84   1 0.61470-0.59243 0.20767 0.49163 0.76092-0.63821
   1  12   4 6631.65  389.74   1 0.61620-0.60074 0.16363 0.52049 0.77039-0.60678
   1  12   5 1528.84  240.49   1 0.61660-0.60740 0.11894 0.54976 0.77823-0.57343
   1  12   6  161.73  123.57   1 0.61567-0.61320 0.07570 0.57783 0.78435-0.53859
   1  12   7 3502.19  328.29   1 0.61362-0.61789 0.03336 0.60500 0.78888-0.50216
   1  12   8 1947.52  265.28   1 0.61058-0.62158-0.00777 0.63096 0.79191-0.46422
   1  12   911380.86 1125.40   1 0.60631-0.62330-0.04849 0.65648 0.79374-0.42487
   1  12  10  220.30  135.83   1 0.60163-0.62534-0.08639 0.67919 0.79408-0.38423
   1  12  11 9210.28  933.60   1 0.59637-0.62681-0.12223 0.69985 0.79334-0.34251
   1  12  12 5769.41  372.24   1 0.59071-0.62788-0.15579 0.71821 0.79169-0.29987
   1  12  13  450.94  133.93   1 0.58483-0.62873-0.18685 0.73408 0.78933-0.25653
   1  12  14   87.17  100.41   1 0.57782-0.62863-0.21583 0.74808 0.78710-0.21258
   1  12  15   12.59   78.93   1 0.57203-0.62959-0.24137 0.75846 0.78390-0.16835
   1  12  16   74.68   84.90   1 0.56653-0.63083-0.26400 0.76594 0.78060-0.12400
   1  12  17  154.27  144.78   1 0.56146-0.63252-0.28364 0.77042 0.77736-0.07973
   1  13  -4  174.28  143.09   1 0.56171-0.49550 0.52898 0.33939 0.63612-0.79955
   1  13  -3  107.86  123.10   1 0.57228-0.51303 0.49192 0.36115 0.65612-0.77869
   1  13  -2   53.84  123.61   1 0.58089-0.52943 0.45433 0.38266 0.67537-0.75714
   1  13  -1  319.88  215.45   1 0.58927-0.54461 0.41559 0.40624 0.69284-0.73373
   1  13   1  393.21  213.33   1 0.60261-0.57157 0.33641 0.45509 0.72366-0.68277
   1  13   2  335.14  123.98   1 0.60782-0.58276 0.29575 0.48081 0.73693-0.65513
   1  13   3  156.53  156.61   1 0.61163-0.59339 0.25547 0.50591 0.74876-0.62605
   1  13   4   59.78  113.36   1 0.61432-0.60289 0.21527 0.53092 0.75912-0.59550
   1  13   5  907.05  226.75   1 0.61592-0.61132 0.17538 0.55563 0.76803-0.56351
   1  13   6  499.86  166.77   1 0.61650-0.61871 0.13601 0.57981 0.77551-0.53009
   1  13   7  776.83  183.23   1 0.61626-0.62454 0.09625 0.60415 0.78163-0.49491
   1  13   8  138.56  130.58   1 0.61497-0.63000 0.05857 0.62666 0.78636-0.45867
   1  13   9  189.49  173.05   1 0.61290-0.63466 0.02215 0.64791 0.78984-0.42120
   1  13  10  115.10  120.18   1 0.61013-0.63863-0.01276 0.66766 0.79219-0.38258
   1  13  11   94.13  152.15   1 0.60646-0.64087-0.04714 0.68681 0.79370-0.34287
   1  13  12  437.57  176.72   1 0.60268-0.64382-0.07844 0.70293 0.79411-0.30229
   1  13  13  706.88  195.06   1 0.59861-0.64647-0.10761 0.71691 0.79377-0.26097
   1  13  14 2565.35  286.59   1 0.59439-0.64898-0.13447 0.72858 0.79285-0.21906
   1  13  15 2532.55  257.09   1 0.59015-0.65147-0.15888 0.73779 0.79149-0.17672
   1  13  16  213.20  171.28   1 0.58605-0.65409-0.18069 0.74442 0.78986-0.13410
   1  13  17   45.34  116.83   1 0.58219-0.65696-0.19981 0.74836 0.78811-0.09136
   1  14  -2   70.12  139.09   1 0.57435-0.52610 0.48408 0.41578 0.66013-0.74185
   1  14  -1   40.21  126.81   1 0.58224-0.54169 0.44847 0.43541 0.67812-0.71901
   1  14   0 1062.26  259.11   1 0.58996-0.55622 0.41210 0.45661 0.69434-0.69434
   1  14   1  452.81  182.76   1 0.59665-0.56972 0.37538 0.47816 0.70928-0.66840
   1  14   2  809.04  209.89   1 0.60232-0.58221 0.33846 0.49992 0.72294-0.64117
   1  14   3 -132.78  108.77   1 0.60725-0.59305 0.30094 0.52250 0.73530-0.61259
   1  14   4  358.96  174.48   1 0.61091-0.60352 0.26406 0.54420 0.74636-0.58274
   1  14   5  133.63  163.99   1 0.61361-0.61305 0.22749 0.56559 0.75612-0.55160
   1  14   6  498.73  196.69   1 0.61540-0.62165 0.19140 0.58649 0.76461-0.51919
   1  14   8 2468.79  330.90   1 0.61661-0.63565 0.12027 0.62701 0.77802-0.45033
   1  14   9  405.98  169.84   1 0.61602-0.64179 0.08677 0.64534 0.78293-0.41428
   1  14  10  973.96  233.99   1 0.61479-0.64730 0.05457 0.66236 0.78679-0.37718
   1  14  11  185.37  160.61   1 0.61301-0.65226 0.02388 0.67789 0.78970-0.33913
   1  14  12  413.12  204.42   1 0.61080-0.65679-0.00512 0.69172 0.79176-0.30023
   1  14  13  121.54  107.29   1 0.60826-0.66098-0.03227 0.70369 0.79307-0.26058
   1  14  14  720.15  216.81   1 0.60514-0.66369-0.05870 0.71486 0.79395-0.22016
   1  14  15   65.25  105.85   1 0.60226-0.66754-0.08167 0.72264 0.79410-0.17933
   1  14  16   85.56  139.89   1 0.59939-0.67140-0.10231 0.72810 0.79388-0.13812
   1  15   1  164.32  149.27   1 0.58972-0.56690 0.41332 0.50228 0.69382-0.65293
   1  15   2  365.33  162.93   1 0.59600-0.58000 0.37920 0.52123 0.70779-0.62603
   1  15   3  769.77  253.95   1 0.60138-0.59218 0.34510 0.54017 0.72058-0.59793
   1  15   4  235.21  229.29   1 0.60586-0.60348 0.31115 0.55895 0.73219-0.56866
   1  15   5   39.63  127.36   1 0.60974-0.61321 0.27690 0.57825 0.74265-0.53813
   1  15   6  228.52  193.21   1 0.61253-0.62281 0.24370 0.59626 0.75193-0.50651
   1  15   7  494.91  195.68   1 0.61453-0.63163 0.21114 0.61364 0.76010-0.47378
   1  15   8 2972.31  319.53   1 0.61581-0.63973 0.17939 0.63021 0.76719-0.43996
   1  15   9   94.32  120.97   1 0.61642-0.64716 0.14863 0.64579 0.77325-0.40512
   1  15  10  335.98  166.28   1 0.61659-0.65311 0.11763 0.66136 0.77844-0.36883
   1  15  11  362.07  196.18   1 0.61609-0.65935 0.08927 0.67454 0.78259-0.33202
   1  15  12  321.69  209.45   1 0.61515-0.66514 0.06242 0.68622 0.78593-0.29440
   1  15  13  235.67  196.86   1 0.61386-0.67059 0.03723 0.69623 0.78853-0.25604
   1  15  14   38.75  107.28   1 0.61231-0.67578 0.01388 0.70441 0.79049-0.21703
  -2  15   7  413.80  193.48   1 0.57344-0.86485 0.48756 0.33669 0.65836-0.37237
  -2  15   6  467.15  178.90   1 0.56814-0.85260 0.50699 0.33255 0.64820-0.40306
  -2  15   5 1353.26  298.99   1 0.56226-0.83977 0.52714 0.32770 0.63716-0.43287
  -2  14   9  660.01  202.99   1 0.58946-0.89068 0.41465 0.31757 0.69325-0.32530
  -2  14   8  268.66  179.66   1 0.58540-0.87981 0.43424 0.31314 0.68464-0.35758
  -2  14   7   39.34   93.93   1 0.58076-0.86837 0.45489 0.30766 0.67511-0.38893
  -2  14   6  282.85  133.47   1 0.57630-0.85672 0.47645 0.30100 0.66397-0.41883
   2 -14  -5  153.57   91.47   1 0.73366-0.46145-0.04347-0.75065-0.67812 0.47284
  -2  14   5    1.74  100.28   1 0.57051-0.84397 0.49846 0.29429 0.65272-0.44843
   2 -14  -4  722.37  218.03   1 0.76259-0.49699-0.08452-0.72481-0.64133 0.47711
  -2  14   4  362.97  167.98   1 0.56410-0.83061 0.52099 0.28706 0.64058-0.47715
   2 -14  -3 1690.32  260.22   1 0.78681-0.52857-0.12490-0.69923-0.60442 0.48132
  -2  14   3 1318.57  238.51   1 0.55706-0.81662 0.54389 0.27946 0.62757-0.50500
   2 -14  -2  571.90  176.33   1 0.80907-0.55740-0.16367-0.67572-0.56445 0.48239
   2 -14  -1  350.83  174.75   1 0.82795-0.58285-0.20087-0.65377-0.52358 0.48254
  -2  13  13  170.65  163.73   1-0.32901 0.00774-0.32740 0.93634 0.88574-0.35099
  -2  13  12 1100.37  248.68   1-0.37200 0.05748-0.29652 0.92071 0.87959-0.38597
  -2  13  11  -35.04   98.01   1-0.41683 0.10905-0.26253 0.90198 0.87024-0.41776
   2 -13 -10  312.71  100.83   1 0.47512-0.17423 0.22528-0.88128-0.85058 0.43930
  -2  13  10  156.21  149.85   1-0.46236 0.16137-0.22575 0.88022 0.85746-0.44626
  -2  13  10    2.77   65.80   1 0.59964-0.90358 0.35673 0.29827 0.71635-0.30752
   2 -13  -9 1513.14  295.09   1 0.52087-0.22657 0.18558-0.85687-0.83321 0.46305
  -2  13   9 1062.14  192.08   1-0.50874 0.21447-0.18620 0.85596 0.84053-0.47045
  -2  13   9  744.57  149.94   1 0.59632-0.89344 0.37733 0.29283 0.70852-0.34058
   2 -13  -8  947.18  208.02   1 0.56598-0.27828 0.14377-0.83036-0.81178 0.48275
  -2  13   8  968.76  227.98   1-0.55462 0.26707-0.14447 0.82950 0.81946-0.49050
  -2  13   8  843.43  169.69   1 0.59243-0.88274 0.39921 0.28612 0.69974-0.37268
   2 -13  -7  782.28  142.26   1 0.61082-0.32944 0.10059-0.80213-0.78535 0.49803
  -2  13   7  390.66  226.53   1-0.59797 0.31650-0.10094 0.80159 0.79513-0.50722
  -2  13   7  228.91  140.67   1 0.58794-0.87144 0.42212 0.27837 0.69001-0.40383
   2 -13  -6  849.89  177.71   1 0.65208-0.37731 0.05638-0.77314-0.75604 0.50977
  -2  13   6  516.19  169.86   1 0.58284-0.85953 0.44584 0.26982 0.67934-0.43405
   2 -13  -5  590.80  128.21   1 0.69037-0.42222 0.01189-0.74385-0.72335 0.51808
  -2  13   5  316.27  223.14   1 0.57789-0.84730 0.47013 0.26053 0.66709-0.46281
   2 -13  -4  339.49  176.92   1 0.72538-0.46385-0.03238-0.71479-0.68757 0.52336
  -2  13   4   23.41  101.40   1 0.57153-0.83399 0.49471 0.25125 0.65467-0.49125
   2 -13  -3 1424.88  321.55   1 0.75670-0.50179-0.07585-0.68654-0.64933 0.52617
  -2  13   3  778.55  182.86   1 0.56451-0.82002 0.51958 0.24168 0.64136-0.51879
   2 -13  -2  257.30  173.44   1 0.78288-0.53524-0.11849-0.65876-0.61077 0.52871
  -2  13   2  168.03  219.29   1 0.55684-0.80539 0.54459 0.23197 0.62716-0.54545
   2 -13  -1  172.31  127.23   1 0.80661-0.56554-0.15915-0.63336-0.56925 0.52822
   2 -13   1   22.62   99.98   1 0.84216-0.61458-0.23529-0.58771-0.48517 0.52619
   2 -13   2  333.63  229.23   1 0.85532-0.63443-0.27015-0.56814-0.44208 0.52412
   2 -13   3  258.13  174.25   1 0.86537-0.65118-0.30293-0.55064-0.39918 0.52224
   2 -13   4  -11.06  110.37   1 0.87245-0.66445-0.33414-0.53583-0.35662 0.52094
  -2  12  16 1157.38  257.13   1-0.13258-0.20462-0.45078 0.95254 0.88272-0.22534
  -2  12  15 1290.99  215.16   1-0.16465-0.16585-0.43236 0.94852 0.88653-0.26981
  -2  12  14  103.23  120.39   1-0.20219-0.12157-0.41028 0.94172 0.88926-0.31365
  -2  12  13  154.10  124.79   1-0.24329-0.07372-0.38492 0.93164 0.89030-0.35580
  -2  12  12  388.07  237.89   1-0.28769-0.02258-0.35611 0.91811 0.88905-0.39567
  -2  12  11  212.56  128.84   1-0.33430 0.03046-0.32369 0.90104 0.88513-0.43265
  -2  12  11  327.03  186.10   1 0.60820-0.91399 0.29217 0.28566 0.73804-0.28811
  -2  12  10   53.93   98.50   1-0.38365 0.08656-0.28787 0.88047 0.87746-0.46611
  -2  12  10   73.54   80.04   1 0.60534-0.90517 0.31545 0.27750 0.73078-0.32195
  -2  12   9  921.67  169.66   1-0.43436 0.14402-0.24871 0.85658 0.86571-0.49550
  -2  12   9  589.95  150.55   1 0.60227-0.89529 0.33882 0.26929 0.72281-0.35486
   2 -12  -8  332.35  104.90   1 0.49699-0.21333 0.20662-0.83098-0.84279 0.51376
  -2  12   8  126.50  100.78   1-0.48510 0.20150-0.20667 0.82960 0.84968-0.52072
  -2  12   8  158.27  132.61   1 0.59860-0.88480 0.36345 0.25983 0.71384-0.38678
   2 -12  -7 1070.18  228.64   1 0.54676-0.26970 0.16194-0.80159-0.82147 0.53357
  -2  12   7 1473.85  210.49   1-0.53564 0.25876-0.16208 0.80029 0.82874-0.54090
  -2  12   7  895.70  175.47   1 0.59429-0.87368 0.38905 0.24939 0.70388-0.41770
   2 -12  -6  915.32  203.17   1 0.59590-0.32519 0.11578-0.77039-0.79466 0.54839
  -2  12   6 1161.74  201.08   1-0.58330 0.31251-0.11554 0.76931 0.80399-0.55721
  -2  12   6  656.67  165.51   1 0.58931-0.86189 0.41538 0.23823 0.69293-0.44764
   2 -12  -5  400.50   80.12   1 0.64105-0.37696 0.06854-0.73836-0.76442 0.55920
  -2  12   5  336.47  129.62   1 0.58365-0.84942 0.44222 0.22656 0.68101-0.47660
   2 -12  -4 4090.27  310.36   1 0.68269-0.42521 0.02110-0.70613-0.73040 0.56618
  -2  12   4 3219.76  288.52   1 0.57811-0.83652 0.46921 0.21466 0.66754-0.50412
   2 -12  -3  305.00  116.13   1 0.72045-0.46959-0.02589-0.67434-0.69301 0.56985
  -2  12   3  121.78  163.04   1 0.57109-0.82255 0.49632 0.20285 0.65384-0.53127
   2 -12  -2  -31.27   90.42   1 0.75392-0.50968-0.07182-0.64364-0.65301 0.57090
  -2  12   2  -73.54  123.30   1 0.56337-0.80788 0.52343 0.19104 0.63923-0.55751
   2 -12  -1  224.42  144.59   1 0.78176-0.54472-0.11667-0.61370-0.61256 0.57152
   2 -12   0  315.97  154.18   1 0.80659-0.57612-0.15912-0.58651-0.56928 0.56928
   2 -12   1 2756.69  286.68   1 0.82725-0.60335-0.19939-0.56149-0.52525 0.56629
   2 -12   2 5489.49  385.16   1 0.84327-0.62637-0.23800-0.53816-0.48191 0.56395
   2 -12   3   21.06  100.86   1 0.85653-0.64632-0.27374-0.51770-0.43750 0.56056
   2 -12   4   29.29  103.92   1 0.86635-0.66236-0.30761-0.50015-0.39345 0.55777
   2 -12   5  124.73  126.17   1 0.87333-0.67591-0.33874-0.48436-0.35004 0.55545
   2 -12   6  115.82  184.71   1 0.87766-0.68681-0.36775-0.47068-0.30735 0.55384
   2 -12   7 1220.96  281.75   1 0.87959-0.69532-0.39476-0.45901-0.26545 0.55302
  -2  11  18  122.97  123.00   1 0.00432-0.35072-0.52022 0.92946 0.85401-0.11436
  -2  11  17   -3.28  110.40   1-0.01951-0.32053-0.50886 0.93325 0.86062-0.16214
  -2  11  16   44.43  108.87   1-0.04741-0.28588-0.49533 0.93496 0.86740-0.21001
  -2  11  15  387.95  182.81   1-0.07940-0.24714-0.47918 0.93405 0.87411-0.25781
  -2  11  14   32.59  103.31   1-0.11560-0.20419-0.46006 0.93016 0.88032-0.30511
  -2  11  13  369.78  225.13   1-0.15440-0.15870-0.43821 0.92282 0.88550-0.35101
  -2  11  12 1888.35  240.80   1-0.19901-0.10734-0.41219 0.91207 0.88909-0.39571
  -2  11  11  870.63  173.53   1-0.24747-0.05214-0.38228 0.89744 0.89029-0.43802
  -2  11  11  254.25   80.37   1 0.61243-0.91418 0.24506 0.27070 0.75157-0.30164
  -2  11  10 1827.04  269.96   1-0.29867 0.00551-0.34827 0.87878 0.88853-0.47719
  -2  11  10 1209.20  196.56   1 0.61035-0.90528 0.27040 0.26055 0.74454-0.33551
  -2  11   9  -17.16   84.03   1-0.35299 0.06658-0.31037 0.85614 0.88264-0.51242
  -2  11   9   -1.42   70.27   1 0.60765-0.89577 0.29729 0.24884 0.73645-0.36832
  -2  11   8 1216.69  191.79   1-0.40892 0.12926-0.26867 0.82969 0.87212-0.54304
  -2  11   8  889.36  167.59   1 0.60391-0.88601 0.32669 0.23454 0.72701-0.39995
   2 -11  -713834.31  697.33   1 0.47649-0.20347 0.22413-0.80155-0.85012 0.56222
  -2  11   713684.53  437.49   1-0.46491 0.19198-0.22363 0.79975 0.85664-0.56880
  -2  11   7 9910.58  395.10   1 0.59982-0.87511 0.35558 0.22082 0.71677-0.43059
   2 -11  -6 1447.28  318.03   1 0.53126-0.26484 0.17620-0.76892-0.82867 0.58190
  -2  11   6 1375.80  175.66   1-0.52046 0.25425-0.17580 0.76719 0.83558-0.58886
  -2  11   6  968.60  173.49   1 0.59499-0.86347 0.38506 0.20650 0.70548-0.46018
   2 -11  -5   49.47  106.23   1 0.58491-0.32488 0.12673-0.73439-0.80113 0.59590
  -2  11   5   18.88   83.82   1-0.57268 0.31256-0.12590 0.73280 0.81004-0.60439
  -2  11   5   -4.49   83.20   1 0.58941-0.85107 0.41488 0.19184 0.69315-0.48873
   2 -11  -4 9571.12 1144.04   1 0.63402-0.38061 0.07615-0.69904-0.76955 0.60537
  -2  11   410912.54  439.66   1-0.62289 0.36938-0.07527 0.69740 0.77867-0.61415
  -2  11   4 8029.81  391.73   1 0.58306-0.83791 0.44484 0.17705 0.67980-0.51627
   2 -11  -3   16.11   76.30   1 0.67892-0.43213 0.02556-0.66365-0.73376 0.61059
  -2  11   3  -79.81   94.10   1 0.57681-0.82422 0.47444 0.16264 0.66496-0.54240
   2 -11  -2  798.60  170.90   1 0.71921-0.47903-0.02428-0.62902-0.69436 0.61225
  -2  11   2  929.95  178.34   1 0.56899-0.80945 0.50395 0.14843 0.64982-0.56810
   2 -11  -1  209.80  102.71   1 0.75451-0.52095-0.07266-0.59586-0.65224 0.61119
  -2  11   1   67.59  127.83   1 0.56043-0.79394 0.53314 0.13455 0.63377-0.59291
   2 -11   0 2743.62  365.25   1 0.78360-0.55716-0.11965-0.56384-0.60962 0.60962
   2 -11   1  223.68  149.21   1 0.80909-0.58923-0.16372-0.53502-0.56440 0.60543
   2 -11   2 2143.57  239.73   1 0.82923-0.61631-0.20590-0.50812-0.51959 0.60163
   2 -11   3   98.85  120.68   1 0.84602-0.63980-0.24488-0.48443-0.47357 0.59663
   2 -11   4   80.13  126.71   1 0.85897-0.65945-0.28122-0.46337-0.42786 0.59194
   2 -11   5  189.76  194.41   1 0.86831-0.67489-0.31538-0.44551-0.38283 0.58823
   2 -11   6   40.83  118.98   1 0.87474-0.68789-0.34669-0.42954-0.33857 0.58505
   2 -11   7  190.82  136.72   1 0.87845-0.69818-0.37573-0.41584-0.29520 0.58276
   2 -11   8  367.68  196.16   1 0.87975-0.70605-0.40265-0.40425-0.25278 0.58143
   2 -11   9   -5.71  128.48   1 0.87864-0.71191-0.42798-0.39427-0.21168 0.58114
  -2  10  19   36.19  124.13   1 0.09942-0.44867-0.56087 0.89274 0.82190-0.04116
  -2  10  18  921.96  232.33   1 0.08206-0.42457-0.55391 0.90101 0.82852-0.08887
  -2  10  17   90.26  160.91   1 0.06103-0.39680-0.54520 0.90754 0.83608-0.13752
  -2  10  16  445.31  246.97   1 0.03600-0.36504-0.53444 0.91202 0.84443-0.18696
  -2  10  15 1546.77  241.40   1 0.00668-0.32897-0.52131 0.91412 0.85334-0.23696
  -2  10  14  288.52  194.86   1-0.02704-0.28884-0.50526 0.91324 0.86253-0.28732
  -2  10  13   66.02  112.80   1-0.06571-0.24343-0.48618 0.90939 0.87138-0.33725
  -2  10  12 2794.02  386.62   1-0.10927-0.19312-0.46347 0.90192 0.87934-0.38630
  -2  10  11  124.18  108.75   1-0.15609-0.13960-0.43725 0.89031 0.88568-0.43342
  -2  10  11   76.74   78.46   1 0.61532-0.91303 0.19360 0.26008 0.76412-0.31419
  -2  10  10 9043.63  395.54   1-0.20903-0.07992-0.40614 0.87448 0.88957-0.47842
  -2  10  10 6378.85  279.35   1 0.61386-0.90475 0.22344 0.24543 0.75713-0.34809
  -2  10   9 2361.41  281.39   1-0.26592-0.01628-0.37043 0.85404 0.88998-0.51994
  -2  10   9 1584.95  206.72   1 0.61168-0.89576 0.25477 0.22929 0.74895-0.38082
  -2  10   837619.04 2275.51   1-0.32523 0.04951-0.33005 0.82897 0.88616-0.55708
  -2  10   824621.81 1509.01   1 0.60873-0.88599 0.28716 0.21208 0.73958-0.41235
  -2  10   7 4766.29  405.23   1-0.38697 0.11799-0.28538 0.79956 0.87681-0.58887
  -2  10   7 3246.91  301.80   1 0.60458-0.87576 0.32155 0.19279 0.72875-0.44257
  -2  10   6 9204.05  595.09   1-0.44876 0.18650-0.23689 0.76618 0.86167-0.61496
  -2  10   6 5911.62  410.02   1 0.59992-0.86429 0.35493 0.17458 0.71701-0.47171
   2 -10  -5 2047.45  379.43   1 0.52013-0.26435 0.18624-0.73203-0.83353 0.62788
  -2  10   5 1964.33  236.76   1-0.50974 0.25420-0.18533 0.72990 0.84012-0.63452
  -2  10   5 1526.78  189.81   1 0.59440-0.85196 0.38840 0.15628 0.70414-0.49973
   2 -10  -4 1093.84  175.70   1 0.57848-0.32913 0.13304-0.69376-0.80476 0.64058
  -2  10   4 1101.61  175.42   1-0.56673 0.31728-0.13162 0.69165 0.81331-0.64879
  -2  10   4  601.14  149.37   1 0.58803-0.83877 0.42172 0.13812 0.69019-0.52666
   2 -10  -3  937.91  224.06   1 0.63156-0.38882 0.07879-0.65474-0.77130 0.64817
  -2  10   3  673.20  132.64   1-0.62094 0.37810-0.07732 0.65257 0.78003-0.65664
  -2  10   3  428.73  106.73   1 0.58081-0.82474 0.45470 0.12031 0.67520-0.55255
   2 -10  -2 6742.48  908.77   1 0.67954-0.44343 0.02483-0.61598-0.73321 0.65110
  -2  10   2 4411.86  384.34   1 0.57366-0.81007 0.48669 0.10360 0.65880-0.57709
   2 -10  -113417.14 1163.76   1 0.72200-0.49250-0.02793-0.57843-0.69132 0.65026
  -2  10   110050.17  714.47   1 0.56487-0.79433 0.51836 0.08724 0.64203-0.60118
   2 -10   0 2284.49  316.75   1 0.75866-0.53578-0.07872-0.54286-0.64670 0.64670
  -2  10   0 1274.39  193.43   1 0.55532-0.77782 0.54932 0.07158 0.62439-0.62439
   2 -10   1 2453.26  245.08   1 0.78848-0.57264-0.12767-0.50894-0.60165 0.64268
   2 -10   2  804.09  161.49   1 0.81410-0.60483-0.17312-0.47874-0.55431 0.63637
   2 -10   3 6174.51  370.91   1 0.83403-0.63179-0.21639-0.45079-0.50750 0.63056
   2 -10   4 2966.91  395.59   1 0.85025-0.65471-0.25594-0.42652-0.45995 0.62403
   2 -10   5   25.46  123.05   1 0.86244-0.67360-0.29256-0.40518-0.41301 0.61812
   2 -10   6 1346.34  302.21   1 0.87091-0.68807-0.32669-0.38734-0.36712 0.61361
   2 -10   7  285.84  230.42   1 0.87643-0.70017-0.35787-0.37149-0.32214 0.60971
   2 -10   8  319.82  196.95   1 0.87924-0.70954-0.38665-0.35805-0.27826 0.60691
   2 -10   9  197.89  192.36   1 0.87938-0.71661-0.41358-0.34644-0.23588 0.60534
   2 -10  10  440.49  231.16   1 0.87769-0.72149-0.43809-0.33722-0.19423 0.60475
   2 -10  11  411.51  277.29   1 0.87412-0.72448-0.46075-0.32986-0.15365 0.60522
  -2   9  19 1509.88  271.70   1 0.16989-0.51482-0.58722 0.85722 0.79139-0.01072
  -2   9  18  949.31  219.10   1 0.15578-0.49398-0.58226 0.86750 0.79793-0.05835
  -2   9  17  184.40  161.58   1 0.13840-0.47028-0.57576 0.87597 0.80581-0.10725
  -2   9  16  574.47  217.58   1 0.11683-0.44197-0.56765 0.88309 0.81493-0.15746
  -2   9  15  713.88  188.58   1 0.09092-0.40932-0.55749 0.88817 0.82518-0.20881
  -2   9  14 1318.53  223.20   1 0.06027-0.37193-0.54488 0.89079 0.83634-0.26106
  -2   9  13 5378.74  591.94   1 0.02447-0.32940-0.52935 0.89049 0.84804-0.31385
  -2   9  12 1373.92  216.84   1-0.01662-0.28186-0.51023 0.88655 0.85987-0.36682
  -2   9  11  153.52  137.81   1-0.06351-0.22821-0.48729 0.87885 0.87092-0.41897
  -2   9  11  186.97   81.95   1 0.61650-0.91018 0.13564 0.25597 0.77557-0.32564
  -2   9  10 4118.03  361.82   1-0.11607-0.16891-0.45981 0.86660 0.88039-0.46953
  -2   9  10 2683.00  225.83   1 0.61602-0.90288 0.17154 0.23526 0.76881-0.35978
  -2   9   9  201.66  146.75   1-0.17255-0.10573-0.42779 0.84929 0.88725-0.51721
  -2   9   9  110.21   66.40   1 0.61465-0.89469 0.20881 0.21317 0.76065-0.39252
  -2   9   824837.98 1330.64   1-0.23522-0.03632-0.39000 0.82678 0.89026-0.56134
  -2   9   817937.28  972.23   1 0.61229-0.88551 0.24691 0.19026 0.75108-0.42385
  -2   9   718612.38  527.59   1-0.30086 0.03583-0.34678 0.79887 0.88837-0.60043
  -2   9   712725.97  394.06   1 0.60891-0.87532 0.28538 0.16697 0.74012-0.45379
  -2   9   6  191.34  115.47   1-0.36917 0.11088-0.29860 0.76594 0.88008-0.63327
  -2   9   6   64.81   83.78   1 0.60412-0.86438 0.32511 0.14234 0.72755-0.48225
  -2   9   5 1225.44  219.18   1-0.43773 0.18618-0.24603 0.72863 0.86478-0.65911
  -2   9   5  517.56  112.94   1 0.59865-0.85210 0.36313 0.11949 0.71396-0.50955
   2  -9  -4  554.43  145.04   1 0.51415-0.26900 0.19157-0.69043-0.83603 0.67151
  -2   9   4  422.55  120.51   1-0.50425 0.25938-0.19014 0.68789 0.84235-0.67787
  -2   9   4  349.68  100.18   1 0.59218-0.83882 0.40057 0.09722 0.69918-0.53565
   2  -9  -3 1124.58  198.26   1 0.57735-0.33868 0.13414-0.64793-0.80539 0.68226
  -2   9   3 1131.59  199.86   1-0.56621 0.32743-0.13212 0.64528 0.81359-0.69020
  -2   9   3  663.90  143.96   1 0.58475-0.82458 0.43722 0.07573 0.68329-0.56064
   2  -9  -211345.36  721.59   1 0.63429-0.40223 0.07586-0.60487-0.76935 0.68726
  -2   9   211978.36  416.05   1-0.62430 0.39214-0.07378 0.60216 0.77768-0.69542
  -2   9   2 8049.36  338.55   1 0.57730-0.80967 0.47247 0.05573 0.66594-0.58423
   2  -9  -1 1190.82  208.80   1 0.68499-0.45956 0.01835-0.56256-0.72831 0.68725
  -2   9   1  684.14  155.08   1 0.56816-0.79357 0.50693 0.03657 0.64823-0.60737
   2  -9   0 2723.77  337.60   1 0.72909-0.51027-0.03732-0.52210-0.68339 0.68339
  -2   9   0 2675.82  285.12   1 0.55820-0.77665 0.54032 0.01848 0.62965-0.62965
   2  -9   115801.12  966.57   1 0.76533-0.55352-0.09108-0.48339-0.63715 0.67818
   2  -9   2  297.41  138.38   1 0.79636-0.59112-0.14099-0.44874-0.58815 0.67022
   2  -9   3 1788.62  247.78   1 0.82144-0.62277-0.18748-0.41751-0.53859 0.66169
   2  -9   4   11.52   99.71   1 0.84056-0.64900-0.23143-0.38890-0.48978 0.65387
   2  -9   5  213.98  179.20   1 0.85566-0.67080-0.27116-0.36445-0.44079 0.64590
   2  -9   6  595.30  176.18   1 0.86644-0.68761-0.30794-0.34388-0.39299 0.63947
   2  -9   7  295.09  138.72   1 0.87382-0.70156-0.34141-0.32576-0.34622 0.63378
   2  -9   8  121.89  145.57   1 0.87811-0.71242-0.37212-0.31038-0.30072 0.62937
   2  -9   9 2934.69  353.27   1 0.87972-0.72061-0.40033-0.29751-0.25653 0.62626
   2  -9  10  291.12  220.96   1 0.87875-0.72651-0.42658-0.28650-0.21405 0.62457
   2  -9  11  338.70  215.84   1 0.87600-0.73033-0.45043-0.27795-0.17240 0.62397
   2  -9  12   11.60  136.09   1 0.87145-0.73235-0.47240-0.27128-0.13193 0.62455
  -2   8  20  218.95  176.08   1 0.24369-0.59148-0.61080 0.80341 0.75334 0.06840
  -2   8  19  269.79  148.18   1 0.23599-0.57706-0.60853 0.81637 0.75762 0.02304
  -2   8  18   57.81  118.49   1 0.22531-0.55965-0.60530 0.82838 0.76343-0.02385
  -2   8  17  398.77  239.38   1 0.21129-0.53889-0.60094 0.83925 0.77085-0.07236
  -2   8  16  462.20  292.45   1 0.19352-0.51439-0.59520 0.84875 0.77992-0.12251
  -2   8  15 3785.05  287.85   1 0.17154-0.48568-0.58779 0.85657 0.79061-0.17429
  -2   8  1410048.10 1002.56   1 0.14516-0.45292-0.57823 0.86201 0.80285-0.22757
  -2   8  13 8582.84  420.64   1 0.11325-0.41428-0.56627 0.86529 0.81639-0.28220
  -2   8  12 3621.60  338.22   1 0.07556-0.36985-0.55125 0.86550 0.83091-0.33781
  -2   8  11  339.51  123.98   1 0.03160-0.31916-0.53251 0.86199 0.84583-0.39382
  -2   8  11  400.33   85.75   1 0.61515-0.90351 0.06262 0.26685 0.78591-0.33534
  -2   8  10  526.82  151.07   1-0.01880-0.26227-0.50920 0.85387 0.86043-0.44957
  -2   8  10  661.24  126.70   1 0.61647-0.89808 0.10749 0.23716 0.78000-0.37039
  -2   8   910746.70  408.17   1-0.07603-0.19829-0.48091 0.84082 0.87346-0.50368
  -2   8   9 6663.39  237.36   1 0.61631-0.89231 0.15747 0.20244 0.77159-0.40346
  -2   8   8 1052.79  173.57   1-0.13967-0.12790-0.44685 0.82199 0.88363-0.55494
  -2   8   8  738.12   95.80   1 0.61490-0.88409 0.20350 0.17160 0.76189-0.43466
  -2   8   7 1354.16  184.78   1-0.20764-0.05323-0.40698 0.79693 0.88951-0.60171
  -2   8   7  981.31  116.82   1 0.61211-0.87448 0.24931 0.14097 0.75043-0.46411
  -2   8   6   41.68   98.42   1-0.28121 0.02707-0.36040 0.76563 0.88939-0.64270
  -2   8   6  -21.52   55.05   1 0.60796-0.86352 0.29442 0.11104 0.73735-0.49193
  -2   8   513952.91  846.64   1-0.35642 0.10882-0.30789 0.72839 0.88213-0.67645
  -2   8   5 9161.92  578.24   1 0.60215-0.85149 0.33971 0.08086 0.72250-0.51808
  -2   8   4 1184.78  147.01   1-0.43215 0.19129-0.25047 0.68623 0.86631-0.70177
  -2   8   4  764.74  108.48   1 0.59547-0.83800 0.38232 0.05342 0.70656-0.54303
   2  -8  -3 1437.36  239.07   1 0.51428-0.27978 0.19145-0.64338-0.83597 0.71258
  -2   8   3 1505.85  194.79   1-0.50500 0.27080-0.18948 0.64041 0.84205-0.71869
  -2   8   3  708.89  108.46   1 0.58767-0.82340 0.42344 0.02747 0.68944-0.56679
   2  -8  -2  484.69   77.91   1 0.58237-0.35437 0.12923-0.59607-0.80258 0.72049
  -2   8   2  329.32  108.74   1-0.57197 0.34387-0.12658 0.59287 0.81044-0.72818
  -2   8   2  219.12  106.82   1 0.57885-0.80776 0.46296 0.00311 0.67125-0.58949
   2  -8  -1   93.94   59.55   1 0.64284-0.42146 0.06658-0.54865-0.76309 0.72204
  -2   8   1   96.66   83.31   1 0.57005-0.79141 0.50013-0.01871 0.65184-0.61098
   2  -8   0   70.97   40.04   1 0.69567-0.48091 0.00543-0.50270-0.71833 0.71833
  -2   8   0  131.75  136.48   1 0.55950-0.77391 0.53614-0.03942 0.63205-0.63205
   2  -8   110016.36  860.29   1 0.74063-0.53248-0.05301-0.45947-0.66981 0.71087
   2  -8   2 1209.76  190.86   1 0.77680-0.57559-0.10878-0.41882-0.62027 0.70233
   2  -8   3 5422.10  285.44   1 0.80699-0.61235-0.15985-0.38300-0.56851 0.69161
   2  -8   4 3123.87  345.05   1 0.83014-0.64257-0.20786-0.35034-0.51735 0.68144
   2  -8   5  113.60  121.62   1 0.84840-0.66753-0.25103-0.32245-0.46603 0.67113
   2  -8   6 3114.17  311.53   1 0.86182-0.68764-0.29046-0.29831-0.41580 0.66192
   2  -8   729091.74 5608.51   1 0.87088-0.70263-0.32659-0.27837-0.36727 0.65483
   2  -8   8   27.06  133.13   1 0.87663-0.71494-0.35932-0.26097-0.31999 0.64864
   2  -8   9  775.82  231.73   1 0.87937-0.72426-0.38920-0.24643-0.27425 0.64398
   2  -8  10  368.10  238.09   1 0.87927-0.73101-0.41684-0.23401-0.23046 0.64098
   2  -8  11  823.64  203.18   1 0.87724-0.73554-0.44183-0.22432-0.18768 0.63925
   2  -8  12  238.50  197.03   1 0.87327-0.73814-0.46475-0.21670-0.14627 0.63889
   2  -8  13   32.41  195.62   1 0.86759-0.73903-0.48581-0.21094-0.10611 0.63979
  -2   7  20  899.23  214.94   1 0.30176-0.64356-0.62896 0.75802 0.71647 0.10589
  -2   7  19 1714.66  291.45   1 0.29695-0.63414-0.62528 0.77095 0.72169 0.05897
  -2   7  18    9.45  119.64   1 0.28970-0.62016-0.62344 0.78435 0.72621 0.01336
  -2   7  17  256.87  195.17   1 0.27941-0.60314-0.62075 0.79690 0.73252-0.03403
  -2   7  16  148.28  133.71   1 0.26566-0.58266-0.61704 0.80842 0.74072-0.08332
  -2   7  15   10.79  108.04   1 0.24798-0.55826-0.61205 0.81867 0.75092-0.13461
  -2   7  14  122.00   85.37   1 0.22581-0.52936-0.60546 0.82731 0.76316-0.18793
  -2   7  13 1032.93  209.31   1 0.19853-0.49534-0.59684 0.83393 0.77740-0.24326
  -2   7  12 4632.46  386.98   1 0.16543-0.45551-0.58567 0.83799 0.79348-0.30043
  -2   7  1130288.36  706.73   1 0.12613-0.40979-0.57118 0.83853 0.81107-0.35906
  -2   7  1042984.80  819.34   1 0.07931-0.35623-0.55279 0.83537 0.82953-0.41862
  -2   7   941495.24 3905.98   1 0.02473-0.29491-0.52946 0.82728 0.84797-0.47814
  -2   7   929141.98 1346.38   1 0.61617-0.88703 0.09243 0.20534 0.78216-0.41352
  -2   7   834301.91 1940.10   1-0.03770-0.22596-0.50010 0.81311 0.86514-0.53644
  -2   7   823568.92 1319.84   1 0.61635-0.88150 0.15480 0.15822 0.77210-0.44487
  -2   7   7 8645.91  559.53   1-0.10800-0.14892-0.46415 0.79240 0.87914-0.59153
  -2   7   7 5805.17  373.53   1 0.61452-0.87286 0.21128 0.11692 0.76007-0.47375
  -2   7   6 1428.20  178.99   1-0.18388-0.06633-0.42117 0.76428 0.88814-0.64145
  -2   7   6  808.82  102.31   1 0.61076-0.86227 0.26579 0.07760 0.74587-0.50045
  -2   7   5 2026.26  177.67   1-0.26603 0.02255-0.37036 0.72875 0.88997-0.68440
  -2   7   5 1098.64  105.14   1 0.60487-0.85011 0.31921 0.03931 0.72953-0.52512
  -2   7   414806.78  609.38   1-0.34993 0.11301-0.31257 0.68623 0.88308-0.71854
  -2   7   410241.14  447.92   1 0.59778-0.83621 0.36855 0.00514 0.71191-0.54838
  -2   7   324538.16  934.23   1-0.43367 0.20349-0.24927 0.63818 0.86590-0.74249
  -2   7   315398.47  625.95   1 0.58935-0.82096 0.41520-0.02634 0.69301-0.57036
   2  -7  -2 8055.96  825.14   1 0.52171-0.29785 0.18482-0.58981-0.83285 0.75059
  -2   7   2 7721.92  389.40   1-0.51317 0.28964-0.18229 0.58640 0.83869-0.75645
  -2   7   2 5255.07  249.11   1 0.57975-0.80456 0.45919-0.05516 0.67306-0.59130
   2  -7  -1 4396.33  578.96   1 0.59446-0.37713 0.11723-0.53713-0.79553 0.75448
  -2   7   1 3824.02  226.15   1-0.58495 0.36752-0.11391 0.53333 0.80302-0.76189
  -2   7   1 2717.84  183.39   1 0.57012-0.78743 0.49990-0.08057 0.65196-0.61111
   2  -7   0 1816.07  268.01   1 0.65781-0.44709 0.04996-0.48509-0.75152 0.75152
  -2   7   0 1239.59  154.74   1 0.55872-0.76908 0.53864-0.10401 0.63062-0.63062
   2  -7   1 2363.55  265.16   1 0.71179-0.50771-0.01472-0.43560-0.70223 0.74328
   2  -7   2 5493.23  505.62   1 0.75652-0.55905-0.07558-0.38997-0.64958 0.73169
   2  -7   311125.24  700.92   1 0.79155-0.60094-0.13279-0.34792-0.59649 0.71959
   2  -7   4 1791.71  206.45   1 0.81990-0.63586-0.18441-0.31156-0.54198 0.70611
   2  -7   5 1217.40  222.36   1 0.84098-0.66409-0.23245-0.27890-0.48857 0.69367
   2  -7   6 4445.28  327.19   1 0.85697-0.68678-0.27506-0.25157-0.43581 0.68193
   2  -7   7 4580.06  399.64   1 0.86791-0.70366-0.31377-0.22899-0.38505 0.67261
   2  -7   8 5557.45  483.50   1 0.87505-0.71737-0.34860-0.20950-0.33579 0.66444
   2  -7   9   56.04  122.74   1 0.87881-0.72770-0.38017-0.19326-0.28836 0.65809
   2  -7  10  396.22  217.36   1 0.87946-0.73516-0.40915-0.17947-0.24317 0.65369
   2  -7  11 2819.27  327.48   1 0.87800-0.74027-0.43522-0.16870-0.19922 0.65079
   2  -7  12 5905.44  439.27   1 0.87447-0.74331-0.45901-0.16021-0.15685 0.64947
   2  -7  13   75.37  130.41   1 0.86915-0.74455-0.48076-0.15376-0.11594 0.64961
   2  -7  14   35.11  143.73   1 0.86178-0.74557-0.50180-0.14750-0.07426 0.64988
   2  -7  15  804.10  286.45   1 0.85336-0.74386-0.52008-0.14452-0.03578 0.65251
  -2   6  20  -19.85  137.15   1 0.35424-0.69222-0.64074 0.70772 0.68114 0.14122
  -2   6  19  421.58  254.47   1 0.35270-0.68404-0.64042 0.72268 0.68223 0.09901
  -2   6  18   23.20  115.54   1 0.34877-0.67347-0.63962 0.73715 0.68501 0.05512
  -2   6  17   74.97  111.58   1 0.34213-0.66019-0.63823 0.75103 0.68963 0.00937
  -2   6  16  -35.66   97.48   1 0.33241-0.64382-0.63612 0.76420 0.69630-0.03840
  -2   6  15 6786.97  348.58   1 0.31914-0.62390-0.63312 0.77647 0.70519-0.08841
  -2   6  14 7254.70  583.61   1 0.30176-0.59988-0.62896 0.78759 0.71647-0.14081
  -2   6  13  370.17  130.50   1 0.27936-0.57231-0.62074 0.79567 0.73254-0.19840
  -2   6  12 5498.52  338.89   1 0.25167-0.53788-0.61311 0.80327 0.74883-0.25578
  -2   6  11 2289.97  234.89   1 0.21753-0.49702-0.60290 0.80830 0.76758-0.31561
  -2   6  10 5703.86  402.38   1 0.17599-0.44875-0.58932 0.80995 0.78849-0.37761
  -2   6  10 4232.75  238.63   1 0.60424-0.87762-0.06617 0.28663 0.79404-0.38419
  -2   6   919753.43 1156.29   1 0.12638-0.39267-0.57128 0.80697 0.81096-0.44113
  -2   6   8  174.98   86.79   1 0.06729-0.32684-0.54782 0.79874 0.83388-0.50514
  -2   6   8  193.63   55.27   1 0.61614-0.87625 0.09128 0.15961 0.78232-0.45463
  -2   6   716367.65  668.64   1-0.00148-0.25133-0.51755 0.78370 0.85565-0.56800
  -2   6   711177.54  437.56   1 0.61607-0.87036 0.16971 0.09642 0.76918-0.48286
  -2   6   6 2986.33  201.95   1-0.07956-0.16670-0.47909 0.76045 0.87414-0.62762
  -2   6   6 2238.49  128.98   1 0.61289-0.86037 0.23857 0.04275 0.75328-0.50786
  -2   6   5  445.79   92.90   1-0.16493-0.07462-0.43219 0.72847 0.88656-0.68099
  -2   6   5  330.44   64.41   1 0.60673-0.84786 0.30376-0.00728 0.73457-0.53016
  -2   6   4 2333.90  167.65   1-0.25731 0.02449-0.37599 0.68755 0.89017-0.72571
  -2   6   4 1687.73  121.51   1 0.59879-0.83311 0.36222-0.05058 0.71430-0.55077
  -2   6   3 1204.26  139.99   1-0.35133 0.12510-0.31157 0.63838 0.88288-0.75948
  -2   6   3  815.73  105.07   1 0.58922-0.81673 0.41582-0.08901 0.69275-0.57010
  -2   6   2  478.33  111.38   1-0.44366 0.22409-0.24101 0.58303 0.86317-0.78093
  -2   6   2  324.48   85.46   1 0.57923-0.79945 0.46463-0.12269 0.66977-0.58806
   2  -6  -1 2374.18  209.40   1 0.53779-0.32457 0.17022-0.52828-0.82570 0.78457
  -2   6   1 2395.78  191.19   1-0.53014 0.31728-0.16709 0.52438 0.83128-0.79016
  -2   6   1 1762.34  143.40   1 0.56746-0.78073 0.50939-0.15215 0.64691-0.60605
   2  -6   059921.15 1125.23   1 0.61452-0.40787 0.09675-0.46972-0.78293 0.78293
  -2   6   064845.31 1012.19   1-0.60607 0.39931-0.09271 0.46526 0.78998-0.78998
   2  -6   1 2913.18  412.49   1 0.67955-0.47953 0.02482-0.41300-0.73320 0.77425
   2  -6   2 2129.08  289.88   1 0.73328-0.53988-0.04296-0.36043-0.67855 0.76066
   2  -6   3  688.08  121.29   1 0.77532-0.58874-0.10645-0.31213-0.62252 0.74562
   2  -6   4 5394.32  401.62   1 0.80889-0.62888-0.16335-0.27048-0.56479 0.72892
   2  -6   514116.34  885.49   1 0.83377-0.66087-0.21581-0.23340-0.50817 0.71328
   2  -6   633727.64 1624.34   1 0.85243-0.68623-0.26193-0.20257-0.45247 0.69860
   2  -6   7 7580.69  403.06   1 0.86546-0.70595-0.30325-0.17653-0.39875 0.68590
   2  -6   8 3137.53  345.93   1 0.87363-0.71996-0.34037-0.15552-0.34771 0.67636
   2  -6   9    6.35  120.41   1 0.87825-0.73115-0.37361-0.13762-0.29845 0.66818
   2  -6  10  154.67  126.12   1 0.87975-0.73922-0.40356-0.12300-0.25131 0.66212
   2  -6  11 1488.25  333.24   1 0.87840-0.74464-0.43093-0.11076-0.20663 0.65820
   2  -6  12   -0.10  125.38   1 0.87514-0.74794-0.45546-0.10153-0.16332 0.65594
   2  -6  13 2035.53  315.59   1 0.87000-0.74938-0.47778-0.09451-0.12168 0.65535
   2  -6  14  278.41  147.82   1 0.86278-0.75052-0.49930-0.08785-0.07936 0.65498
   2  -6  15  -38.82  134.10   1 0.85448-0.74892-0.51790-0.08456-0.04049 0.65723
   2  -6  16   19.09  148.14   1 0.84489-0.74605-0.53492-0.08284-0.00286 0.66071
  -2   5  20 1416.75  336.33   1 0.40134-0.73552-0.64925 0.65415 0.64605 0.17631
  -2   5  19  160.69  180.55   1 0.40258-0.73011-0.64944 0.66962 0.64509 0.13615
  -2   5  18  102.76  155.56   1 0.40174-0.72262-0.64931 0.68476 0.64575 0.09438
  -2   5  17   78.48  105.99   1 0.39855-0.71279-0.64880 0.69953 0.64823 0.05078
  -2   5  16   74.33  111.16   1 0.39268-0.70028-0.64784 0.71384 0.65276 0.00513
  -2   5  15  149.32  189.91   1 0.38372-0.68468-0.64630 0.72758 0.65957-0.04279
  -2   5  1414060.89  948.33   1 0.37115-0.66546-0.64402 0.74058 0.66893-0.09327
  -2   5  13  605.27  180.10   1 0.35431-0.64198-0.64075 0.75258 0.68109-0.14655
  -2   5  12  776.57  183.91   1 0.33242-0.61345-0.63613 0.76323 0.69629-0.20287
  -2   5  11 6014.28  419.58   1 0.30452-0.57890-0.62964 0.77201 0.71471-0.26240
  -2   5  10  757.25  128.87   1 0.26929-0.53818-0.61804 0.77650 0.73858-0.32770
  -2   5   9 5697.32  277.05   1 0.22585-0.48801-0.60547 0.77917 0.76314-0.39335
  -2   5   9 4943.12  138.92   1 0.59937-0.86207-0.10243 0.27602 0.79388-0.42502
  -2   5   8 2549.36  190.08   1 0.17261-0.42803-0.58816 0.77710 0.79010-0.46140
  -2   5   733522.40  649.92   1 0.10862-0.35754-0.56448 0.76850 0.81826-0.53062
  -2   5   724593.92  392.69   1 0.61646-0.86672 0.12063 0.08343 0.77808-0.49176
  -2   5   6   70.11   75.12   1 0.03249-0.27467-0.53290 0.75216 0.84555-0.59900
  -2   5   6   18.38   27.34   1 0.61437-0.85781 0.21430 0.00495 0.75935-0.51393
  -2   5   5   20.38   79.72   1-0.05525-0.18036-0.49144 0.72591 0.86915-0.66372
  -2   5   5   -0.55   32.85   1 0.60773-0.84435 0.29658-0.06214 0.73667-0.53216
  -2   5   4  357.22   88.10   1-0.15322-0.07563-0.43923 0.68894 0.88520-0.72085
  -2   5   4  257.90   68.53   1 0.59761-0.82783 0.36957-0.11998 0.71152-0.54799
  -2   5   3 3954.60  285.81   1-0.25704 0.03489-0.37616 0.64089 0.89018-0.76683
  -2   5   3 2688.40  228.79   1 0.58592-0.80933 0.43178-0.16702 0.68575-0.56310
  -2   5   2 2339.87  225.93   1-0.36285 0.14730-0.30322 0.58320 0.88112-0.79885
   2  -5  -1172731.8 1071.54   1 0.47232-0.26313 0.22763-0.52346-0.85152 0.81039
  -2   5   1180148.7 1117.81   1-0.46470 0.25579-0.22381 0.51901 0.85671-0.81559
   2  -5   0244506.4 1632.07   1 0.56397-0.36138 0.14570-0.45683-0.81283 0.81283
  -2   5   0252763.0 1358.59   1-0.55736 0.35517-0.14189 0.45236 0.81805-0.81805
   2  -5   1 4806.66  691.63   1 0.64325-0.44728 0.06613-0.39216-0.76278 0.80383
   2  -5   2 3065.78  459.50   1 0.70809-0.51874-0.01001-0.33121-0.70605 0.78815
   2  -5   3 1609.55  336.33   1 0.75954-0.57682-0.08002-0.27643-0.64551 0.76867
   2  -5   410857.19  367.55   1 0.79817-0.62219-0.14413-0.22756-0.58492 0.74905
   2  -5   5 9786.49  467.52   1 0.82774-0.65833-0.20043-0.18652-0.52408 0.72924
   2  -5   6 7324.72  525.59   1 0.84863-0.68641-0.25163-0.15073-0.46529 0.71141
   2  -5   738098.55 2156.74   1 0.86341-0.70789-0.29590-0.12175-0.40860 0.69574
   2  -5   810163.16  602.19   1 0.87265-0.72298-0.33517-0.09852-0.35515 0.68380
   2  -5   9 5608.85  358.69   1 0.87790-0.73480-0.37001-0.07901-0.30393 0.67365
   2  -5  10  -60.04  122.30   1 0.87973-0.74321-0.40113-0.06323-0.25525 0.66605
   2  -5  11 3334.94  351.15   1 0.87854-0.74874-0.42932-0.05013-0.20938 0.66095
   2  -5  12 3069.38  337.48   1 0.87532-0.75210-0.45443-0.04032-0.16518 0.65781
   2  -5  13  237.62  192.70   1 0.87018-0.75352-0.47713-0.03292-0.12291 0.65658
   2  -5  14  439.47  268.57   1 0.86291-0.75460-0.49897-0.02604-0.08004 0.65566
   2  -5  15  367.49  231.99   1 0.85457-0.75297-0.51770-0.02261-0.04092 0.65765
   2  -5  16  900.52  221.88   1 0.84497-0.75008-0.53479-0.02082-0.00316 0.66101
   2  -5  17  325.57  224.78   1 0.83422-0.74604-0.55041-0.02051 0.03338 0.66558
  -2   4  20 1225.33  241.53   1 0.44221-0.77353-0.65568 0.59785 0.61198 0.21025
  -2   4  19  278.69  200.29   1 0.44593-0.77059-0.65611 0.61359 0.60881 0.17231
  -2   4  18 1888.25  286.94   1 0.44788-0.76587-0.65633 0.62911 0.60714 0.13287
  -2   4  17  115.67  108.93   1 0.44784-0.75915-0.65632 0.64441 0.60718 0.09172
  -2   4  16 1127.94  223.75   1 0.44552-0.75017-0.65606 0.65945 0.60916 0.04862
  -2   4  15   24.66  146.84   1 0.44058-0.73855-0.65549 0.67418 0.61336 0.00331
  -2   4  14 8461.63  652.08   1 0.43354-0.72403-0.65385 0.68832 0.62009-0.04443
  -2   4  1317930.93  603.83   1 0.42188-0.70573-0.65230 0.70205 0.62968-0.09514
  -2   4  12 5433.36  314.64   1 0.40585-0.68306-0.64995 0.71497 0.64252-0.14910
  -2   4  11  921.43  140.69   1 0.38451-0.65508-0.64644 0.72674 0.65898-0.20667
  -2   4  10  145.84  106.84   1 0.35670-0.62062-0.64123 0.73680 0.67939-0.26820
  -2   4  10   22.70   19.69   1 0.50718-0.77259-0.44880 0.54524 0.73575-0.32527
  -2   4   920081.57  797.12   1 0.32098-0.57825-0.63354 0.74439 0.70398-0.33391
  -2   4   917256.04  599.67   1 0.55586-0.81456-0.30427 0.41601 0.77358-0.40424
  -2   4   8 1198.99  152.81   1 0.27547-0.52703-0.61971 0.74648 0.73489-0.40619
  -2   4   731172.92  608.54   1 0.21861-0.46344-0.60323 0.74524 0.76701-0.47940
  -2   4   617624.17  384.51   1 0.14829-0.38639-0.57958 0.73682 0.80130-0.55478
  -2   4   611837.89  173.29   1 0.61515-0.85455 0.19782-0.04064 0.76318-0.51776
  -2   4   3 1749.29  163.68   1-0.14891-0.06929-0.44167 0.64448 0.88472-0.76146
  -2   4   3 1161.88  129.00   1 0.57577-0.79485 0.47855-0.27609 0.66292-0.54035
  -2   4   228468.40  425.53   1-0.26813 0.05663-0.36899 0.58688 0.88991-0.80768
  -2   4   221917.42  321.06   1 0.55972-0.77185 0.53544-0.31768 0.63246-0.55074
  -2   4   1 3453.76  260.49   1-0.38749 0.18262-0.28499 0.51812 0.87671-0.83557
   2  -4   0 6473.71  293.23   1 0.50526-0.30672 0.19941-0.44831-0.83960 0.83960
  -2   4   0 6708.02  243.95   1-0.49885 0.30061-0.19485 0.44322 0.84449-0.84449
  -2   4  -118010.90  452.19   1-0.59487 0.40284-0.10405 0.36763 0.79705-0.83818
   2  -4   256235.05  921.96   1 0.68074-0.49546 0.02341-0.30249-0.73214 0.81425
   2  -4   3  306.31  110.82   1 0.74255-0.56389-0.05569-0.23860-0.66746 0.79062
   2  -4   4   91.35  112.08   1 0.78829-0.61634-0.12735-0.18221-0.60197 0.76610
   2  -4   5  437.08  102.90   1 0.82240-0.65702-0.18941-0.13541-0.53644 0.74161
   2  -4   6 1614.64  161.05   1 0.84605-0.68782-0.24496-0.09527-0.47347 0.71959
   2  -4   710289.18  491.59   1 0.86237-0.71083-0.29230-0.06322-0.41336 0.70051
   2  -4   811169.08  710.84   1 0.87236-0.72669-0.33368-0.03781-0.35727 0.68591
   2  -4   920842.58 1067.24   1 0.87789-0.73880-0.36998-0.01684-0.30397 0.67370
   2  -4  1033982.77  764.31   1 0.87974-0.74722-0.40205-0.00011-0.25375 0.66456
   2  -4  11 1296.94  199.28   1 0.87841-0.75259-0.43084 0.01361-0.20677 0.65834
   2  -4  12  546.22  188.53   1 0.87499-0.75573-0.45628 0.02375-0.16182 0.65444
   2  -4  13   53.88  140.57   1 0.86962-0.75693-0.47914 0.03131-0.11907 0.65274
   2  -4  14 3313.19  352.96   1 0.86209-0.75773-0.50104 0.03817-0.07582 0.65144
   2  -4  15 1629.43  233.68   1 0.85356-0.75591-0.51970 0.04153-0.03661 0.65335
   2  -4  16  543.99  204.57   1 0.84380-0.75285-0.53665 0.04318 0.00108 0.65676
   2  -4  17  272.26  161.04   1 0.83293-0.74870-0.55210 0.04332 0.03747 0.66149
   2  -4  18  829.18  265.11   1 0.82105-0.74271-0.56632 0.04222 0.07171 0.66827
  -2   3  20  303.23  161.54   1 0.47891-0.80637-0.65925 0.53937 0.57967 0.24256
  -2   3  19  466.68  268.54   1 0.48484-0.80563-0.65969 0.55510 0.57422 0.20690
  -2   3  18 1883.57  319.99   1 0.48926-0.80338-0.65999 0.57071 0.57011 0.16989
  -2   3  17  125.24  131.95   1 0.49200-0.79945-0.66016 0.58618 0.56754 0.13135
  -2   3  16 1261.35  255.93   1 0.49285-0.79363-0.66021 0.60154 0.56675 0.09103
  -2   3  15  323.10  167.67   1 0.49152-0.78564-0.66013 0.61676 0.56799 0.04868
  -2   3  14 1276.53  244.02   1 0.48766-0.77510-0.65988 0.63181 0.57160 0.00396
  -2   3  13  461.60  232.99   1 0.48078-0.76155-0.65939 0.64663 0.57795-0.04350
  -2   3  12  174.56  126.13   1 0.47027-0.74437-0.65854 0.66108 0.58749-0.09415
  -2   3  11 1606.87  192.13   1 0.45531-0.72274-0.65712 0.67497 0.60072-0.14849
  -2   3  11 1128.12  182.43   1 0.28016-0.54785-0.81676 0.83492 0.50438-0.05246
  -2   3  1022439.85  897.50   1 0.43581-0.69592-0.65413 0.68763 0.61819-0.20700
  -2   3  1018555.07  655.50   1 0.33351-0.59466-0.75469 0.78904 0.56498-0.15421
  -2   3   921080.99  839.56   1 0.40843-0.66189-0.65035 0.69911 0.64048-0.27042
  -2   3   918571.53  639.20   1 0.41132-0.66569-0.64347 0.69323 0.64556-0.27619
  -2   3   811758.11  368.07   1 0.37230-0.61912-0.64424 0.70828 0.66808-0.33913
  -2   3   810702.11  175.07   1 0.50704-0.75500-0.44916 0.51391 0.73563-0.40724
  -2   3   713481.65  383.68   1 0.32514-0.56532-0.63449 0.71381 0.70120-0.41337
  -2   3   615432.24  130.63   1 0.61373-0.84935 0.22236-0.12721 0.75755-0.51225
  -2   3   5 1509.89  159.65   1 0.18661-0.41411-0.59291 0.70322 0.78334-0.57790
  -2   3   5  967.28   71.28   1 0.58648-0.81542 0.43289-0.32312 0.68457-0.48028
  -2   3   414472.70  311.24   1 0.09039-0.31130-0.55727 0.68274 0.82538-0.66102
  -2   3   318646.57  320.95   1-0.02519-0.18910-0.50615 0.64683 0.86207-0.73881
  -2   3   273632.67  642.53   1-0.15590-0.05167-0.43736 0.59314 0.88566-0.80343
  -2   3   152828.62  536.66   1-0.29481 0.09397-0.35134 0.52240 0.88861-0.84750
  -2   3   046463.23  503.56   1-0.42909 0.23491-0.25291 0.43920 0.86713-0.86713
   2  -3   122440.51  434.60   1 0.55343-0.36552 0.15569-0.35766-0.81821 0.85934
  -2   3  -124240.83  385.36   1-0.54841 0.36085-0.15028 0.35184 0.82258-0.86370
   2  -3   2 8194.15  561.54   1 0.65092-0.46968 0.05767-0.27460-0.75694 0.83903
   2  -3   337100.81  605.77   1 0.72584-0.55124-0.03299-0.19914-0.68706 0.81023
   2  -3   471008.96  739.25   1 0.78003-0.61211-0.11389-0.13353-0.61528 0.77941
   2  -3   514819.76  350.28   1 0.81903-0.65768-0.18270-0.07998-0.54386 0.74903
   2  -3   6 -132.26   82.27   1 0.84528-0.69103-0.24302-0.03508-0.47584 0.72196
   2  -3   728070.02  604.03   1 0.86271-0.71516-0.29347 0.00008-0.41181 0.69895
   2  -3   8 2665.14  203.86   1 0.87296-0.73130-0.33679 0.02749-0.35284 0.68149
   2  -3   9  244.20   81.69   1 0.87831-0.74323-0.37426 0.04962-0.29746 0.66719
   2  -3  10 3983.08  341.51   1 0.87975-0.75123-0.40694 0.06698-0.24581 0.65662
   2  -3  11 1159.77  200.11   1 0.87792-0.75606-0.43599 0.08099-0.19789 0.64946
   2  -3  1225943.64 1427.68   1 0.87398-0.75869-0.46142 0.09113-0.15241 0.64503
   2  -3  13 7204.12  569.27   1 0.86813-0.75941-0.48411 0.09851-0.10943 0.64310
   2  -3  14  165.38  145.92   1 0.86013-0.75971-0.50577 0.10506-0.06608 0.64170
   2  -3  16 1175.34  291.97   1 0.84116-0.75417-0.54067 0.10935 0.01034 0.64750
   2  -3  17  194.93  144.56   1 0.83006-0.74978-0.55573 0.10910 0.04634 0.65262
   2  -3  18 1477.26  274.19   1 0.81803-0.74362-0.56955 0.10762 0.08011 0.65987
   2  -3  19  127.80  149.95   1 0.80515-0.73741-0.58203 0.10479 0.11383 0.66725
  -2   2  20  125.65  150.00   1 0.51072-0.83431-0.66110 0.47916 0.54963 0.27260
  -2   2  19   57.58  145.36   1 0.51855-0.83547-0.66137 0.49473 0.54192 0.23919
  -2   2  18  -28.64  128.46   1 0.52510-0.83536-0.66153 0.51019 0.53538 0.20463
  -2   2  17   39.80  139.36   1 0.53025-0.83384-0.66162 0.52558 0.53017 0.16872
  -2   2  16 1725.11  299.72   1 0.53384-0.83075-0.66166 0.54093 0.52651 0.13128
  -2   2  15  543.28  246.07   1 0.53565-0.82590-0.66167 0.55624 0.52464 0.09203
  -2   2  14  -16.10  154.68   1 0.53542-0.81900-0.66167 0.57154 0.52488 0.05068
  -2   2  13 3658.43  307.29   1 0.53277-0.80968-0.66165 0.58682 0.52760 0.00685
  -2   2  12 4808.56  376.78   1 0.52721-0.79745-0.66157 0.60205 0.53325-0.03990
  -2   2  11  349.79  118.27   1 0.51810-0.78166-0.66135 0.61714 0.54237-0.09014
  -2   2  10  937.82  155.00   1 0.50453-0.76143-0.66084 0.63192 0.55563-0.14451
  -2   2   9  166.40   90.93   1 0.48530-0.73553-0.65972 0.64611 0.57379-0.20379
  -2   2   8 2611.26  186.76   1 0.45874-0.70229-0.65747 0.65916 0.59773-0.26883
  -2   2   8 2334.86  164.76   1 0.19079-0.43442-0.89583 0.89777 0.40134-0.07267
  -2   2   792236.59  860.85   1 0.42352-0.65989-0.65253 0.66976 0.62835-0.34052
  -2   2   5 5060.36  348.62   1 0.30932-0.53240-0.63080 0.67859 0.71161-0.50602
  -2   2   4 2051.37  140.20   1 0.22283-0.43973-0.60454 0.66793 0.76477-0.60041
  -2   2   312872.18  269.59   1 0.11168-0.32196-0.56567 0.64423 0.81703-0.69375
  -2   2   245199.82  469.06   1-0.02522-0.17841-0.50613 0.59992 0.86208-0.77990
  -2   2   1  158.71   59.65   1-0.18133-0.01558-0.42267 0.53161 0.88795-0.84683
  -2   2   041849.74  448.38   1-0.34297 0.15273-0.31755 0.44175 0.88404-0.88404
   2  -2   152344.90  568.29   1 0.49596-0.31209 0.20751-0.34725-0.84318 0.88431
  -2   2  -155075.67  518.44   1-0.49175 0.30814-0.20098 0.34044 0.84721-0.88833
   2  -2   226158.96  432.08   1 0.61811-0.44094 0.09302-0.24778-0.78056 0.86265
  -2   2  -227698.92  380.31   1-0.61355 0.43626-0.08502 0.23963 0.78505-0.86731
   2  -2   318744.68  371.04   1 0.71018-0.53963-0.01266-0.15731-0.70390 0.82706
   2  -2   4118484.5  868.71   1 0.77453-0.61064-0.10521-0.08007-0.62371 0.78784
   2  -2   5 5146.12  338.70   1 0.81865-0.66133-0.18194-0.01860-0.54469 0.74985
   2  -2   616281.70  379.16   1 0.84700-0.69673-0.24738 0.03141-0.47051 0.71663
   2  -2   7 2145.29  188.24   1 0.86479-0.72122-0.30080 0.06954-0.40205 0.68920
   2  -2   8  709.69  120.95   1 0.87456-0.73690-0.34562 0.09853-0.34012 0.66877
   2  -2   9 2061.44  181.14   1 0.87906-0.74798-0.38374 0.12132-0.28280 0.65253
   2  -2  10  347.66   92.91   1 0.87927-0.75482-0.41686 0.13939-0.23042 0.64094
   2  -2  11 3514.98  293.17   1 0.87677-0.75889-0.44531 0.15255-0.18152 0.63309
   2  -2  12 3306.10  249.35   1 0.87198-0.76066-0.47028 0.16221-0.13593 0.62855
   2  -2  13 1103.23  222.68   1 0.86538-0.76062-0.49238 0.16901-0.09312 0.62680
   2  -2  14  101.62  130.24   1 0.85667-0.76021-0.51341 0.17485-0.05007 0.62569
   2  -2  15   33.40  125.82   1 0.84725-0.75750-0.53106 0.17719-0.01159 0.62832
   2  -2  16  478.79  210.16   1 0.83676-0.75372-0.54698 0.17780 0.02517 0.63267
   2  -2  17  498.04  262.68   1 0.82533-0.74900-0.56139 0.17691 0.06045 0.63850
   2  -2  18  122.60  194.92   1 0.81308-0.74260-0.57459 0.17482 0.09348 0.64650
   2  -2  19   50.65  145.52   1 0.80002-0.73622-0.58649 0.17141 0.12642 0.65466
  -2   1  20  399.66  239.39   1 0.53792-0.85765-0.66168 0.41768 0.52230 0.29993
  -2   1  19  995.93  270.06   1 0.54737-0.86043-0.66165 0.43295 0.51243 0.26869
  -2   1  18 1395.63  285.56   1 0.55573-0.86212-0.66152 0.44812 0.50353 0.23648
  -2   1  17   70.39  142.26   1 0.56270-0.86266-0.66149 0.46337 0.49576 0.20273
  -2   1  16 1174.87  224.51   1 0.56858-0.86186-0.66127 0.47846 0.48930 0.16810
  -2   1  1528997.16 5597.78   1 0.57302-0.85963-0.66107 0.49357 0.48437 0.13195
  -2   1  1415783.47 1058.02   1 0.57583-0.85576-0.66093 0.50874 0.48122 0.09401
  -2   1  1344926.34 2347.21   1 0.57674-0.85000-0.66088 0.52400 0.48019 0.05395
  -2   1  12  -65.29  137.61   1 0.57539-0.84197-0.66095 0.53938 0.48171 0.01134
  -2   1  11 1712.37  208.21   1 0.57130-0.83120-0.66115 0.55489 0.48629-0.03432
  -2   1  10  178.56  103.86   1 0.56378-0.81701-0.66145 0.57050 0.49459-0.08370
  -2   1   9  -52.28   91.05   1 0.55230-0.79866-0.66159 0.58592 0.50720-0.13719
  -2   1   8 9181.40  334.87   1 0.53473-0.77443-0.66167 0.60130 0.52559-0.19669
  -2   1   716387.98  417.75   1 0.50951-0.74253-0.66105 0.61599 0.55081-0.26302
  -2   1   613058.60  375.92   1 0.47382-0.70018-0.65885 0.62909 0.58429-0.33762
  -2   1   5  -34.35   77.60   1 0.42449-0.64376-0.65266 0.63837 0.62755-0.42196
  -2   1   416748.99  312.13   1 0.35410-0.56672-0.64071 0.64169 0.68124-0.51676
  -2   1   3 3616.17  172.21   1 0.25621-0.46251-0.61440 0.63086 0.74622-0.62296
  -2   1   277840.12  591.64   1 0.12442-0.32407-0.57054 0.60220 0.81178-0.72960
  -2   1   1   29.93   54.29   1-0.04299-0.14998-0.49751 0.54440 0.86638-0.82530
  -2   1   043235.28  414.57   1-0.23383 0.04757-0.39087 0.45298 0.89024-0.89024
  -2   1  -1 8349.05  255.51   1-0.42170 0.24214-0.25873 0.33608 0.86903-0.91017
   2  -1   2 1233.88  171.42   1 0.58133-0.40822 0.13025-0.22286-0.80316 0.88525
  -2   1  -2 1337.36  113.91   1-0.57832 0.40510-0.12041 0.21294 0.80686-0.88912
   2  -1   3  781.72  101.15   1 0.69686-0.53038 0.00396-0.11179-0.71718 0.84035
   2  -1   4   93.79   57.72   1 0.77357-0.61371-0.10371-0.01944-0.62516 0.78928
   2  -1   5 6882.06  263.86   1 0.82256-0.66927-0.18974 0.05133-0.53607 0.74123
   2  -1   6 4654.98  315.27   1 0.85187-0.70559-0.26036 0.10652-0.45444 0.70056
   2  -1   792776.50  829.42   1 0.86847-0.72825-0.31607 0.14651-0.38189 0.66945
   2  -1   8  336.64  100.20   1 0.87693-0.74328-0.36163 0.17674-0.31656 0.64520
   2  -1   925152.56  564.30   1 0.87971-0.75263-0.39953 0.19931-0.25781 0.62754
   2  -1  10 1161.89  166.83   1 0.87831-0.75783-0.43194 0.21671-0.20488 0.61540
   2  -1  11 5879.44  448.19   1 0.87439-0.76047-0.45941 0.22887-0.15612 0.60769
   2  -1  12 1128.51  166.88   1 0.86839-0.76104-0.48327 0.23744-0.11106 0.60368
   2  -1  13 7051.42  386.39   1 0.86020-0.76098-0.50560 0.24449-0.06643 0.60093
   2  -1  14 2193.12  272.85   1 0.85119-0.75867-0.52416 0.24775-0.02689 0.60251
   2  -1  15   43.47  134.57   1 0.84111-0.75531-0.54075 0.24903 0.01053 0.60620
   2  -1  16  237.47  154.58   1 0.83012-0.75102-0.55566 0.24864 0.04618 0.61166
   2  -1  17 3336.22  344.43   1 0.81831-0.74511-0.56926 0.24695 0.07934 0.61953
   2  -1  18 1134.42  279.99   1 0.80578-0.73924-0.58146 0.24385 0.11225 0.62773
   2  -1  19  100.17  158.59   1 0.79253-0.73266-0.59255 0.23964 0.14409 0.63700
   2  -1  20  352.98  174.23   1 0.77858-0.72538-0.60264 0.23442 0.17501 0.64719
  -2   0  19 1720.94  333.55   1 0.57156-0.88095-0.66114 0.37025 0.48600 0.29467
  -2   0  18  -23.54  131.24   1 0.58141-0.88412-0.66061 0.38504 0.47490 0.26468
  -2   0  17  -14.81  125.31   1 0.59027-0.88631-0.66001 0.39974 0.46471 0.23378
  -2   0  16  187.78  150.76   1 0.59805-0.88742-0.65937 0.41441 0.45558 0.20183
  -2   0  15 1910.56  335.54   1 0.60468-0.88737-0.65874 0.42909 0.44767 0.16865
  -2   0  14  -10.69  141.22   1 0.61000-0.88602-0.65818 0.44384 0.44123 0.13400
  -2   0  13  459.12  186.21   1 0.61385-0.88320-0.65774 0.45871 0.43651 0.09763
  -2   0  12 3318.18  256.07   1 0.61598-0.87865-0.65749 0.47377 0.43389 0.05916
  -2   0  11 6079.38  413.20   1 0.61605-0.87205-0.65748 0.48907 0.43380 0.01816
  -2   0  10 9076.37  607.08   1 0.61359-0.86291-0.65777 0.50467 0.43684-0.02595
  -2   0   9  396.27   95.19   1 0.60793-0.85057-0.65840 0.52061 0.44375-0.07395
  -2   0   8108638.7 1542.75   1 0.59809-0.83406-0.65936 0.53688 0.45554-0.12683
  -2   0   7 1520.76  157.05   1 0.58261-0.81191-0.66054 0.55337 0.47353-0.18591
  -2   0   5 5958.72  374.90   1 0.52510-0.74092-0.66153 0.58501 0.53538-0.32982
  -2   0   4  364.31   77.57   1 0.47396-0.68311-0.65886 0.59764 0.58417-0.41972
   2   0  -4  206.39   29.06   1 0.58525-0.37556 0.43493-0.37427 0.68433-0.84786
  -2   0   3  349.66   65.12   1 0.39865-0.60081-0.64881 0.60299 0.64815-0.52480
  -2   0   210716.03  597.48   1 0.28545-0.48116-0.62234 0.59187 0.72883-0.64665
   2   0  -2 9765.40  519.97   1 0.49588-0.30024-0.47674 0.50707 0.72581-0.80791
  -2   0   1 5428.54  178.91   1 0.12296-0.31198-0.56998 0.55475 0.81239-0.77130
   2   0  -1 5386.16  172.61   1 0.27423-0.08540-0.82285 0.83810 0.49769-0.53877
  -2   0   0 2164.66  112.71   1-0.09116-0.09116-0.47307 0.47307 0.87629-0.87629
  -2   0  -160605.02  448.89   1-0.32918 0.15357-0.32728 0.34254 0.88573-0.92686
   2   0   266992.62  532.74   1 0.53907-0.36988 0.16905-0.19964-0.82511 0.90737
  -2   0  -270660.79  499.12   1-0.53867 0.36967-0.15930 0.18985 0.82731-0.90955
   2   0   3  560.36  117.69   1 0.68833-0.52591 0.01435-0.06001-0.72525 0.84841
   2   0   445327.78  435.05   1 0.77994-0.62411-0.11375 0.05273-0.61542 0.77955
   2   0   657279.21  572.68   1 0.86028-0.71798-0.28539 0.19369-0.42243 0.66856
   2   0   796106.95  781.91   1 0.87391-0.73769-0.34190 0.23454-0.34551 0.63308
   2   0   8  -14.52   86.19   1 0.87923-0.74959-0.38659 0.26390-0.27836 0.60701
   2   0   9   25.19   75.60   1 0.87896-0.75588-0.42327 0.28557-0.21967 0.58914
   2   0  10 7659.07  393.93   1 0.87551-0.75900-0.45334 0.30034-0.16715 0.57767
   2   0  1124818.51 1435.04   1 0.86971-0.75976-0.47882 0.31051-0.11968 0.57125
   2   0  1239592.90 2240.72   1 0.86165-0.75967-0.50213 0.31847-0.07359 0.56698
   2   0  13   21.98  115.15   1 0.85275-0.75748-0.52125 0.32229-0.03325 0.56775
   2   0  1421399.22 1196.37   1 0.84283-0.75427-0.53814 0.32388 0.00451 0.57110
   2   0  15 2889.07  336.52   1 0.83207-0.75022-0.55321 0.32364 0.04017 0.57656
   2   0  16   93.15  145.01   1 0.82056-0.74462-0.56685 0.32201 0.07309 0.58467
   2   0  17 1530.91  213.81   1 0.80841-0.73914-0.57906 0.31891 0.10561 0.59326
   2   0  18  231.41  194.62   1 0.79561-0.73301-0.59012 0.31467 0.13693 0.60305
   2   0  19   42.98  133.19   1 0.78218-0.72625-0.60017 0.30941 0.16725 0.61384
   2   0  20   95.37  153.79   1 0.76814-0.71888-0.60930 0.30324 0.19671 0.62549
   2   0  21  145.14  189.23   1 0.75371-0.71116-0.61738 0.29595 0.22526 0.63769
  -2  -1  19  -18.85  134.78   1 0.59170-0.89718-0.65990 0.30686 0.46304 0.31763
  -2  -1  18   34.34  139.80   1 0.60281-0.90161-0.65892 0.32120 0.44991 0.28967
  -2  -1  17  113.47  131.21   1 0.61306-0.90518-0.65783 0.33542 0.43749 0.26100
  -2  -1  16 1380.01  268.91   1 0.62239-0.90785-0.65667 0.34957 0.42590 0.23151
  -2  -1  15 5874.03  687.38   1 0.63077-0.90955-0.65549 0.36369 0.41526 0.20106
  -2  -1  1421584.31  673.06   1 0.63811-0.91022-0.65434 0.37785 0.40576 0.16947
  -2  -1  13  -32.84  144.13   1 0.64429-0.90972-0.65328 0.39210 0.39761 0.13653
  -2  -1  12 4269.76  394.33   1 0.64917-0.90793-0.65239 0.40652 0.39109 0.10196
  -2  -1  11 3105.20  301.24   1 0.65252-0.90460-0.65175 0.42119 0.38656 0.06541
  -2  -1  10 1188.41  182.62   1 0.65405-0.89946-0.65145 0.43620 0.38448 0.02640
  -2  -1   913076.33  589.37   1 0.65331-0.89205-0.65159 0.45165 0.38548-0.01568
  -2  -1   8 1606.61  203.07   1 0.64968-0.88174-0.65229 0.46767 0.39040-0.06169
  -2  -1   763511.33 1005.30   1 0.64219-0.86758-0.65365 0.48433 0.40040-0.11278
  -2  -1   6   86.92  138.53   1 0.62934-0.84805-0.65570 0.50169 0.41709-0.17056
  -2  -1   516435.99  389.32   1 0.60872-0.82076-0.65832 0.51962 0.44278-0.23734
   2   1  -510671.37  192.82   1 0.57617-0.36343 0.47697-0.33838 0.66371-0.86799
  -2  -1   422665.99  364.55   1 0.57629-0.78165-0.66091 0.53752 0.48071-0.31635
   2   1  -414913.02  214.65   1 0.60661-0.40103 0.30475-0.18203 0.73426-0.89779
  -2  -1   311667.91  651.66   1 0.52512-0.72373-0.66153 0.55356 0.53536-0.41203
   2   1  -3 8806.70  164.02   1 0.61542-0.41710 0.06907 0.03849 0.78516-0.90804
  -2  -1   225361.27  336.35   1 0.44262-0.63457-0.65573 0.56306 0.61163-0.52941
   2   1  -221741.08  235.20   1 0.57742-0.38571-0.21770 0.31004 0.78688-0.86896
  -2  -1   174200.59 1900.15   1 0.30855-0.49361-0.63062 0.55326 0.71211-0.67099
   2   1  -170557.27  443.20   1 0.48305-0.29811-0.50652 0.58371 0.71420-0.75525
  -2  -1   0  806.72   81.91   1 0.09469-0.27307-0.55899 0.49686 0.82374-0.82374
   2   1   0  984.10  175.70   1 0.35338-0.17523-0.72885 0.79082 0.58642-0.58642
  -2  -1  -150074.98  364.91   1-0.19733 0.02565-0.41319 0.36636 0.88900-0.93011
   2   1   147012.17  393.11   1 0.22699-0.05556-0.86699 0.91371 0.44361-0.40253
   2   1   2 1843.52   88.48   1 0.48647-0.32132 0.21566-0.18403-0.84665 0.92891
  -2  -1  -2 2064.72  103.34   1-0.48981 0.32476-0.20265 0.17110 0.84794-0.93018
   2   1   3 3122.76  134.27   1 0.68969-0.53134 0.01270 0.00378-0.72398 0.84714
   2   1   485320.35  549.85   1 0.79815-0.64635-0.14410 0.14521-0.58496 0.74909
   2   1   521273.07  294.59   1 0.84913-0.70412-0.25295 0.23866-0.46366 0.66876
   2   1   678987.92  624.42   1 0.87108-0.73230-0.32752 0.29771-0.36596 0.61245
   2   1   7 1026.37  122.28   1 0.87891-0.74670-0.38152 0.33637-0.28627 0.57383
   2   1   814383.87  339.03   1 0.87898-0.75330-0.42301 0.36284-0.22011 0.54852
   2   1   9  443.96  106.27   1 0.87516-0.75604-0.45535 0.37988-0.16352 0.53298
   2   1  10  337.69  102.43   1 0.86885-0.75630-0.48176 0.39099-0.11400 0.52452
   2   1  11  194.55  129.77   1 0.86035-0.75561-0.50525 0.39905-0.06715 0.51942
   2   1  12 2452.33  242.92   1 0.85117-0.75314-0.52420 0.40269-0.02681 0.52020
   2   1  13 6492.59  457.62   1 0.84113-0.74981-0.54071 0.40390 0.01045 0.52405
   2   1  14 6713.56  396.36   1 0.83040-0.74579-0.55531 0.40319 0.04531 0.53030
   2   1  1516005.70 1056.17   1 0.81907-0.74039-0.56846 0.40107 0.07726 0.53939
   2   1  16  136.59  139.22   1 0.80720-0.73519-0.58018 0.39749 0.10869 0.54907
   2   1  17  205.95  126.45   1 0.79478-0.72945-0.59078 0.39279 0.13886 0.56000
   2   1  18  201.40  157.54   1 0.78183-0.72317-0.60041 0.38712 0.16801 0.57197
   2   1  19 2697.03  306.29   1 0.76835-0.71635-0.60918 0.38058 0.19630 0.58479
   2   1  20   39.48  136.27   1 0.75456-0.70925-0.61693 0.37296 0.22366 0.59820
   2   1  21  354.93  218.03   1 0.73998-0.70134-0.62418 0.36490 0.25062 0.61233
  -2  -2  18  348.97  232.20   1 0.62013-0.91502-0.65697 0.25710 0.42874 0.31085
  -2  -2  17  -33.62  127.77   1 0.63150-0.91972-0.65538 0.27082 0.41432 0.28418
  -2  -2  16   94.01  192.15   1 0.64209-0.92364-0.65367 0.28441 0.40052 0.25688
  -2  -2  15 1416.35  257.35   1 0.65187-0.92674-0.65187 0.29793 0.38744 0.22888
  -2  -2  14  112.02  146.74   1 0.66078-0.92898-0.65005 0.31142 0.37521 0.20002
  -2  -2  13 1198.48  215.73   1 0.66877-0.93029-0.64826 0.32494 0.36398 0.17016
  -2  -2  12  640.51  130.53   1 0.67579-0.93056-0.64659 0.33861 0.35386 0.13925
  -2  -2  11  916.80  253.13   1 0.68163-0.92974-0.64507 0.35240 0.34531 0.10671
  -2  -2  10  -32.46  111.11   1 0.68617-0.92761-0.64383 0.36647 0.33857 0.07235
  -2  -2   921209.81 1244.79   1 0.68914-0.92391-0.64299 0.38093 0.33412 0.03571
  -2  -2   8 2739.96  193.71   1 0.69016-0.91826-0.64269 0.39594 0.33257-0.00383
  -2  -2   7 8208.13  313.93   1 0.68867-0.91010-0.64313 0.41168 0.33483-0.04717
  -2  -2   6 9106.14  303.61   1 0.68377-0.89853-0.64450 0.42836 0.34215-0.09559
   2   2  -6 6689.26  215.69   1 0.56463-0.34898 0.51918-0.30320 0.64158-0.88672
   2   2  -5  729.21  100.08   1 0.59057-0.38229 0.40896-0.20903 0.69567-0.90008
  -2  -2   4  403.93   92.80   1 0.65683-0.85828-0.65088 0.46535 0.38068-0.21632
   2   2  -4  266.29   61.44   1 0.61052-0.40897 0.26852-0.08364 0.74509-0.90870
  -2  -2   3 1400.61  107.56   1 0.62773-0.82251-0.65594 0.48571 0.41914-0.29588
   2   2  -3  994.57   91.97   1 0.61634-0.42203 0.10039 0.06922 0.78104-0.90393
  -2  -2   271694.81  553.86   1 0.57774-0.76584-0.66083 0.50591 0.47907-0.39690
   2   2  -256953.37  461.98   1 0.60037-0.41253-0.09549 0.24998 0.79399-0.87596
  -2  -2   1400344.2 1559.25   1 0.48773-0.66914-0.65989 0.52046 0.57153-0.53042
   2   2  -1346856.018004.13   1 0.55648-0.37548-0.30202 0.44124 0.77401-0.81505
  -2  -2  -2 6058.92  178.47   1-0.42260 0.26161-0.25802 0.16434 0.86880-0.95107
   2   2   2 5039.87  295.91   1 0.30980-0.14914-0.78430 0.87774 0.53748-0.45532
   2   2   3 4924.09  183.88   1 0.71400-0.55970-0.01754 0.09620-0.69992 0.82308
   2   2   3 5061.30  426.19   1 0.22883-0.07482-0.86541 0.94360 0.44575-0.32250
   2   2   4142874.2  867.51   1 0.16187-0.01435-0.91588 0.97907 0.36734-0.20297
   2   2   5 2697.03  124.37   1 0.87100-0.72965-0.32714 0.37487-0.36649 0.57190
   2   2   613645.12  241.37   1 0.87956-0.74478-0.39380 0.42619-0.26698 0.51347
   2   2   7281849.8 1132.77   1 0.87757-0.74929-0.43915 0.45652-0.19237 0.47973
   2   2   822408.11  382.56   1 0.87163-0.74992-0.47167 0.47373-0.13330 0.46171
   2   2   919168.23  433.46   1 0.86321-0.74900-0.49818 0.48474-0.08163 0.45167
   2   2  10 9872.85  331.07   1 0.85411-0.74661-0.51862 0.48987-0.03893 0.45009
   2   2  11 2594.22  167.44   1 0.84433-0.74354-0.53581 0.49176-0.00083 0.45311
   2   2  12  739.97  118.44   1 0.83404-0.73996-0.55064 0.49128 0.03395 0.45943
   2   2  1351518.28 4836.97   1 0.82331-0.73523-0.56381 0.48919 0.06527 0.46915
   2   2  14 2184.43  215.59   1 0.81221-0.73080-0.57544 0.48552 0.09576 0.47978
   2   2  1515340.78  889.34   1 0.80069-0.72595-0.58592 0.48070 0.12481 0.49184
   2   2  16  165.85  124.35   1 0.78875-0.72068-0.59543 0.47491 0.15271 0.50504
   2   2  17  633.38  167.41   1 0.77636-0.71496-0.60411 0.46828 0.17971 0.51916
   2   2  18  -21.43  100.32   1 0.76352-0.70879-0.61204 0.46091 0.20597 0.53400
   2   2  19 1685.51  287.80   1 0.75047-0.70240-0.61907 0.45255 0.23139 0.54937
   2   2  20   84.04  136.90   1 0.73666-0.69526-0.62570 0.44388 0.25656 0.56530
   2   2  21  123.87  150.98   1 0.72232-0.68759-0.63175 0.43462 0.28131 0.58164
  -2  -3  18  311.81  240.37   1 0.63372-0.92470-0.65504 0.19302 0.41147 0.32812
  -2  -3  17  211.42  161.86   1 0.64603-0.93033-0.65297 0.20626 0.39530 0.30319
  -2  -3  16  403.76  237.39   1 0.65762-0.93525-0.65072 0.21932 0.37958 0.27783
  -2  -3  15 1684.54  273.05   1 0.66850-0.93946-0.64833 0.23223 0.36437 0.25195
  -2  -3  14 3690.45  344.56   1 0.67867-0.94286-0.64585 0.24511 0.34966 0.22564
  -2  -3  13  482.55  175.47   1 0.68805-0.94557-0.64330 0.25787 0.33576 0.19844
  -2  -3  12 4111.82  412.17   1 0.69662-0.94748-0.64076 0.27063 0.32271 0.17040
  -2  -3  11  684.66  130.84   1 0.70431-0.94850-0.63828 0.28346 0.31068 0.14134
  -2  -3  10 1035.20  186.37   1 0.71104-0.94857-0.63597 0.29645 0.29991 0.11101
  -2  -3   9  197.70  157.77   1 0.71667-0.94753-0.63391 0.30970 0.29072 0.07912
  -2  -3   8 1478.92  188.61   1 0.72100-0.94519-0.63226 0.32336 0.28352 0.04521
  -2  -3   7  674.63  128.54   1 0.72373-0.94125-0.63119 0.33759 0.27894 0.00871
  -2  -3   6 2233.53  172.59   1 0.72438-0.93523-0.63092 0.35263 0.27783-0.03127
   2   3  -6 1673.76  142.37   1 0.57672-0.36512 0.47479-0.19671 0.66479-0.90993
  -2  -3   5 9272.65  306.65   1 0.72220-0.92638-0.63179 0.36881 0.28151-0.07605
   2   3  -5 6092.85  219.50   1 0.59617-0.39199 0.37822-0.11623 0.70818-0.91259
  -2  -3   4 1047.82  177.75   1 0.71587-0.91339-0.63421 0.38653 0.29203-0.12766
   2   3  -4  544.88  104.98   1 0.61102-0.41352 0.26270-0.01575 0.74674-0.91035
  -2  -3   3 2276.42  207.24   1 0.70301-0.89385-0.63872 0.40634 0.31274-0.18946
   2   3  -3 1546.77  139.22   1 0.61650-0.42581 0.13065 0.10111 0.77643-0.89914
  -2  -3   248003.17  464.98   1 0.67877-0.86295-0.64583 0.42876 0.34951-0.26732
   2   3  -237622.68  432.51   1 0.60987-0.42631-0.01570 0.23219 0.79234-0.87426
  -2  -3   1 1332.86   97.39   1 0.63225-0.80977-0.65527 0.45351 0.41337-0.37228
   2   3  -1 1120.86  100.98   1 0.58750-0.41035-0.17318 0.37454 0.79047-0.83146
  -2  -3   0 7893.95  227.81   1 0.53405-0.70492-0.66166 0.47548 0.52629-0.52629
   2   3   0 6886.89  254.65   1 0.54823-0.37792-0.33071 0.51682 0.76815-0.76815
  -2  -3  -1294718.0  998.97   1 0.29503-0.45894-0.62480 0.45353 0.72289-0.76398
   2   3   1265930.5 1329.02   1 0.49490-0.33135-0.47909 0.64999 0.72494-0.68389
   2   3   2  772.19  110.65   1 0.43190-0.27493-0.60792 0.76365 0.66624-0.58416
   2   3   3 6943.72  162.58   1 0.80642-0.65611-0.15882 0.29946-0.56960 0.69269
   2   3   3 6293.90  150.92   1-0.07196 0.22232-0.48299 0.62367 0.87265-0.74939
   2   3   3 6048.97  275.24   1 0.36556-0.21550-0.71209 0.85253 0.59940-0.47617
   2   3   4 7519.05  188.46   1 0.87893-0.73501-0.38182 0.50709-0.28579 0.45011
   2   3   4 6597.04  296.40   1 0.30303-0.15978-0.79201 0.91693 0.52997-0.36564
   2   3   515795.96  194.19   1 0.87513-0.73769-0.45552 0.56571-0.16322 0.36848
   2   3   514621.84  742.81   1 0.24693-0.11034-0.84929 0.95896 0.46660-0.26118
   2   3   6 6782.94  213.91   1 0.86518-0.73479-0.49289 0.58751-0.09228 0.33897
   2   3   6 5931.31  342.98   1 0.19976-0.06961-0.88895 0.98373 0.41214-0.16557
   2   3   723805.38  316.68   1 0.85525-0.73157-0.51635 0.59567-0.04381 0.33162
   2   3   721834.65  384.81   1 0.16071-0.03723-0.91664 0.99623 0.36595-0.07830
   2   3   8 8100.36  257.26   1 0.84556-0.72859-0.53384 0.59785-0.00531 0.33423
   2   3   9  604.07   88.58   1 0.83599-0.72573-0.54803 0.59674 0.02769 0.34235
   2   3  1032791.25  596.60   1 0.82639-0.72284-0.56015 0.59356 0.05735 0.35380
   2   3  11 8429.59  398.00   1 0.81667-0.71919-0.57097 0.58912 0.08384 0.36837
   2   3  12 1857.52  177.89   1 0.80673-0.71592-0.58060 0.58345 0.10987 0.38345
   2   3  13  269.21  119.04   1 0.79650-0.71235-0.58941 0.57695 0.13484 0.39959
   2   3  1421565.25  583.51   1 0.78592-0.70845-0.59751 0.56975 0.15904 0.41650
   2   3  15 1464.20  226.95   1 0.77496-0.70416-0.60503 0.56196 0.18266 0.43399
   2   3  16 1185.65  184.88   1 0.76359-0.69946-0.61200 0.55363 0.20584 0.45192
   2   3  17  338.88  126.48   1 0.75206-0.69457-0.61824 0.54449 0.22839 0.47019
   2   3  18 4797.94  353.39   1 0.73980-0.68898-0.62426 0.53521 0.25095 0.48872
   2   3  19 2877.87  336.05   1 0.72704-0.68289-0.62984 0.52548 0.27330 0.50746
   2   3  20  861.57  228.95   1 0.71377-0.67628-0.63499 0.51532 0.29548 0.52637
   2   3  21   31.71  128.69   1 0.69995-0.66914-0.63971 0.50473 0.31753 0.54542
   2   3  22  140.14  143.36   1 0.68557-0.66142-0.64400 0.49372 0.33947 0.56457
  -2  -4  17   68.06  157.17   1 0.65698-0.93738-0.65085 0.14199 0.38046 0.31804
  -2  -4  16  294.48  221.56   1 0.66940-0.94312-0.64811 0.15456 0.36309 0.29432
  -2  -4  15 3574.30  384.22   1 0.68119-0.94814-0.64519 0.16699 0.34597 0.27042
  -2  -4  14 1323.27  225.30   1 0.69229-0.95257-0.64207 0.17918 0.32935 0.24595
  -2  -4  13 2201.40  284.16   1 0.70272-0.95633-0.63881 0.19122 0.31320 0.22101
  -2  -4  12  993.93  243.79   1 0.71247-0.95942-0.63546 0.20318 0.29760 0.19551
  -2  -4  11  133.43  121.26   1 0.72151-0.96179-0.63206 0.21509 0.28267 0.16935
  -2  -4  10 2009.52  271.45   1 0.72981-0.96342-0.62869 0.22702 0.26855 0.14238
  -2  -4   9 1142.70  213.43   1 0.73729-0.96424-0.62541 0.23905 0.25543 0.11440
  -2  -4   816355.25  849.04   1 0.74388-0.96415-0.62234 0.25128 0.24357 0.08517
  -2  -4   731336.66 1775.18   1 0.74942-0.96303-0.61960 0.26385 0.23335 0.05430
   2   4  -724216.45 1383.71   1 0.56138-0.34687 0.53005-0.17458 0.63552-0.92151
  -2  -4   614082.42  590.85   1 0.75370-0.96065-0.61738 0.27694 0.22528 0.02127
   2   4  -610000.85  446.57   1 0.58067-0.37378 0.45529-0.11609 0.67492-0.92022
  -2  -4   5 1534.49  150.58   1 0.75639-0.95666-0.61595 0.29081 0.22015-0.01469
   2   4  -5 1022.83  111.65   1 0.59782-0.39774 0.36829-0.04426 0.71201-0.91642
  -2  -4   420922.09  445.91   1 0.75689-0.95050-0.61568 0.30584 0.21919-0.05481
   2   4  -414800.36  366.79   1 0.61034-0.41687 0.27046 0.03856 0.74453-0.90814
  -2  -4   3  -63.95   99.30   1 0.75417-0.94111-0.61714 0.32261 0.22439-0.10111
  -2  -4   1 4407.94  278.82   1 0.72846-0.90206-0.62925 0.36534 0.27087-0.22977
   2   4  -1 3710.87  267.80   1 0.60239-0.42921-0.08065 0.34407 0.79411-0.83509
  -2  -4   043731.98  362.73   1 0.68904-0.85597-0.64302 0.39441 0.33427-0.33427
   2   4   037978.80  472.63   1 0.57939-0.41303-0.20860 0.45674 0.78790-0.78790
  -2  -4  -123807.04  211.91   1 0.58551-0.74576-0.66035 0.42706 0.47022-0.51131
   2   4   121156.39  354.04   1 0.54693-0.38732-0.33504 0.56802 0.76720-0.72617
   2   4   2 5962.07  241.97   1 0.50533-0.35248-0.45348 0.67125 0.73415-0.65205
   2   4   3 7298.11  261.75   1 0.45762-0.31131-0.55912 0.76171 0.69134-0.56822
   2   4   4 7400.10  263.25   1 0.40807-0.26845-0.64882 0.83627 0.64226-0.47809
   2   4   5  341.48   34.58   1 0.72748-0.59389-0.62966 0.80174 0.27255-0.06708
   2   4   5  356.37   77.03   1 0.35818-0.22552-0.72233 0.89443 0.59155-0.38616
   2   4   6 2232.91  143.27   1 0.76697-0.64007-0.61001 0.76683 0.19908 0.04757
   2   4   6 2077.11  177.60   1 0.31270-0.18674-0.77989 0.93683 0.54220-0.29573
   2   4   7 4190.83  258.64   1 0.77867-0.65845-0.60257 0.74409 0.17481 0.11295
   2   4   7 4314.07  423.30   1 0.27209-0.15291-0.82503 0.96617 0.49526-0.20767
   2   4   8 8431.20  216.07   1 0.78137-0.66781-0.60074 0.72695 0.16902 0.15985
   2   4   8 7232.80  396.29   1 0.23706-0.12454-0.85821 0.98410 0.45525-0.12658
   2   4   9 2698.82  129.97   1 0.77993-0.67304-0.60173 0.71264 0.17213 0.19786
   2   4   9 2977.64  211.67   1 0.20841-0.10231-0.88219 0.99337 0.42226-0.05241
   2   4  1013064.27  325.80   1 0.77612-0.67591-0.60427 0.69988 0.18022 0.23088
   2   4  1011696.61  359.96   1 0.18460-0.08517-0.90024 0.99622 0.39430 0.01662
   2   4  11   -3.52   74.40   1 0.77075-0.67720-0.60770 0.68801 0.19139 0.26082
   2   4  11   17.56   29.13   1 0.16574-0.07298-0.91333 0.99411 0.37195 0.08007
   2   4  1282932.89  848.63   1 0.76421-0.67733-0.61164 0.67665 0.20461 0.28871
   2   4  1269225.55 3863.35   1 0.15131-0.06522-0.92264 0.98822 0.35472 0.13839
   2   4  13 5568.03  384.14   1 0.75704-0.67679-0.61560 0.66522 0.21890 0.31530
   2   4  13 4755.91  363.41   1 0.14077-0.06135-0.92906 0.97944 0.34208 0.19213
   2   4  14 2020.71  228.94   1 0.74875-0.67517-0.61994 0.65426 0.23460 0.34070
   2   4  14 1589.06  244.10   1 0.13364-0.06089-0.93322 0.96841 0.33350 0.24180
   2   4  1526810.18 1435.11   1 0.73973-0.67281-0.62430 0.64331 0.25108 0.36531
   2   4  16  788.20  175.13   1 0.73003-0.66978-0.62860 0.63230 0.26817 0.38932
   2   4  17  113.29   99.72   1 0.71967-0.66610-0.63278 0.62118 0.28574 0.41284
   2   4  18 4251.66  319.43   1 0.70869-0.66178-0.63679 0.60989 0.30371 0.43596
   2   4  18 3961.54  302.33   1 0.13170-0.08564-0.93433 0.90872 0.33116 0.40852
   2   4  19 3677.61  362.02   1 0.69707-0.65683-0.64061 0.59841 0.32200 0.45876
   2   4  19 3122.35  310.99   1 0.13643-0.09704-0.93161 0.89080 0.33686 0.44391
   2   4  20  326.17  245.93   1 0.68483-0.65126-0.64420 0.58669 0.34057 0.48129
   2   4  20  280.84  189.11   1 0.14284-0.11012-0.92782 0.87181 0.34457 0.47729
   2   4  21   -2.57  116.89   1 0.67196-0.64505-0.64754 0.57471 0.35937 0.50358
   2   4  21  271.87  120.24   1 0.15078-0.12473-0.92297 0.85175 0.35409 0.50886
   2   4  22  395.72  266.30   1 0.65850-0.63840-0.65054 0.56231 0.37836 0.52557
   2   4  22  262.71  117.35   1 0.16014-0.14076-0.91701 0.83060 0.36528 0.53877
  -2  -5  16 -120.52  139.88   1 0.67782-0.94753-0.64607 0.09042 0.35090 0.30659
  -2  -5  15  260.10  227.90   1 0.69030-0.95334-0.64266 0.10230 0.33237 0.28402
  -2  -5  14  433.72  264.92   1 0.70215-0.95853-0.63900 0.11395 0.31409 0.26121
  -2  -5  13  100.09  133.58   1 0.71340-0.96310-0.63512 0.12538 0.29609 0.23812
  -2  -5  12 1179.12  239.30   1 0.72403-0.96707-0.63106 0.13663 0.27842 0.21469
  -2  -5  11 6789.71  392.82   1 0.73406-0.97043-0.62686 0.14773 0.26114 0.19088
  -2  -5  10 1310.02  235.95   1 0.74346-0.97316-0.62254 0.15872 0.24433 0.16659
  -2  -5   9 2036.48  230.63   1 0.75222-0.97525-0.61816 0.16965 0.22809 0.14174
  -2  -5   813558.92  442.42   1 0.76027-0.97661-0.61390 0.18067 0.21237 0.11651
  -2  -5   7 6452.92  413.94   1 0.76764-0.97731-0.60960 0.19168 0.19772 0.09004
   2   5  -7 4758.28  339.84   1 0.56572-0.35526 0.51545-0.09790 0.64362-0.92962
  -2  -5   6  833.76  135.89   1 0.77420-0.97720-0.60551 0.20290 0.18424 0.06241
   2   5  -6  517.11  109.27   1 0.58250-0.37972 0.44734-0.04608 0.67865-0.92395
  -2  -5   5  234.28   90.84   1 0.77983-0.97616-0.60179 0.21447 0.17233 0.03321
   2   5  -5  163.47   71.60   1 0.59751-0.40154 0.37019 0.01589 0.71128-0.91570
  -2  -5   4   36.74   82.39   1 0.78431-0.97397-0.59867 0.22666 0.16260 0.00183
   2   5  -4   23.73   73.19   1 0.60890-0.41947 0.28544 0.08565 0.74010-0.90371
  -2  -5   3 1622.21  141.78   1 0.78727-0.97026-0.59653 0.23982 0.15602-0.03269
   2   5  -3 1506.36  147.40   1 0.61532-0.43270 0.19368 0.16222 0.76411-0.88681
  -2  -5   2112219.8 1438.08   1 0.78804-0.96436-0.59596 0.25455 0.15429-0.07207
   2   5  -287847.82 1257.22   1 0.61625-0.44072 0.09580 0.24478 0.78170-0.86362
  -2  -5   0  932.61  110.86   1 0.77540-0.93838-0.60474 0.29394 0.18174-0.18174
   2   5   0  567.33  120.41   1 0.59747-0.43498-0.11518 0.42547 0.79357-0.79357
   2   5   3  336.85   66.93   1 0.51649-0.37433-0.42441 0.68903 0.74370-0.62056
   2   5   4 7732.95  246.19   1 0.48002-0.34460-0.51330 0.76276 0.71140-0.54721
   2   5   5  160.63   70.10   1 0.44090-0.31194-0.59143 0.82574 0.67513-0.46992
   2   5   648107.29  291.76   1 0.44658-0.32328-0.65542 0.87416 0.60908-0.36237
   2   5   643555.92  553.48   1 0.40254-0.28027-0.65778 0.87696 0.63660-0.39035
   2   5   766221.38  426.44   1 0.58582-0.46952-0.66033 0.86390 0.46986-0.18224
   2   5   758754.39  926.83   1 0.36463-0.24937-0.71339 0.91715 0.59842-0.31088
   2   5   8 7562.17  206.71   1 0.64628-0.53665-0.65292 0.84119 0.39496-0.06625
   2   5   8 7212.94  417.14   1 0.33086-0.22230-0.75800 0.94660 0.56209-0.23348
   2   5   9  133.62   44.22   1 0.67569-0.57268-0.64662 0.81962 0.35400 0.01583
   2   5   9   29.73   33.50   1 0.30069-0.19892-0.79464 0.96725 0.52737-0.15761
   2   5  10 2771.13  146.79   1 0.69078-0.59444-0.64251 0.80021 0.33163 0.07929
   2   5  10 2624.30  478.22   1 0.27455-0.17944-0.82253 0.97989 0.49805-0.08721
   2   5  11  255.88   81.62   1 0.69800-0.60833-0.64033 0.78272 0.32057 0.13145
   2   5  11  300.77   69.40   1 0.25250-0.16403-0.84411 0.98622 0.47297-0.02105
   2   5  1216244.58  951.63   1 0.70039-0.61738-0.63957 0.76665 0.31685 0.17626
   2   5  1214289.14  885.57   1 0.23438-0.15257-0.86058 0.98744 0.45216 0.04084
   2   5  13 8820.36  497.66   1 0.69954-0.62321-0.63984 0.75162 0.31817 0.21604
   2   5  13 7837.99  583.45   1 0.21995-0.14480-0.87292 0.98453 0.43545 0.09863
   2   5  1426322.80  596.34   1 0.69637-0.62670-0.64083 0.73731 0.32309 0.25221
   2   5  1423009.87  658.39   1 0.20969-0.14098-0.88116 0.97834 0.42376 0.15154
   2   5  15 1356.92  164.40   1 0.69142-0.62841-0.64233 0.72349 0.33067 0.28572
   2   5  15 1399.23  263.75   1 0.20176-0.13972-0.88740 0.96938 0.41448 0.20191
   2   5  16 1456.69  230.60   1 0.68502-0.62869-0.64415 0.71001 0.34029 0.31720
   2   5  16 1010.02  242.49   1 0.19661-0.14124-0.89135 0.95813 0.40844 0.24905
   2   5  17  775.95  230.38   1 0.67742-0.62775-0.64618 0.69673 0.35148 0.34709
   2   5  17  404.21  116.69   1 0.19396-0.14526-0.89335 0.94493 0.40533 0.29325
   2   5  18  659.21  167.59   1 0.66882-0.62594-0.64825 0.68342 0.36391 0.37567
   2   5  18  599.04  122.39   1 0.19358-0.15155-0.89364 0.93002 0.40488 0.33480
   2   5  19  436.50  156.09   1 0.65921-0.62299-0.65039 0.67025 0.37739 0.40328
   2   5  19  807.46  153.37   1 0.19524-0.15989-0.89238 0.91356 0.40684 0.37393
   2   5  20 9632.91 4234.67   1 0.64870-0.61916-0.65248 0.65702 0.39172 0.43004
   2   5  20 7709.86  470.25   1 0.19878-0.17009-0.88970 0.89568 0.41099 0.41087
   2   5  21 1260.60  245.03   1 0.63736-0.61449-0.65446 0.64370 0.40674 0.45611
   2   5  21  980.19  252.63   1 0.20403-0.18201-0.88564 0.87642 0.41714 0.44581
   2   5  22   -3.52  117.63   1 0.62520-0.60901-0.65629 0.63022 0.42236 0.48158
  -2  -6  15 1814.49  333.20   1 0.69619-0.95532-0.64089 0.03838 0.32336 0.29303
  -2  -6  14 2822.19  333.53   1 0.70867-0.96113-0.63680 0.04960 0.30373 0.27157
  -2  -6  13   53.61  144.94   1 0.72056-0.96636-0.63243 0.06054 0.28426 0.24995
  -2  -6  12  767.17  238.16   1 0.73188-0.97101-0.62780 0.07122 0.26495 0.22816
  -2  -6  11  734.41  249.77   1 0.74264-0.97509-0.62293 0.08165 0.24583 0.20619
  -2  -6  10   61.45  112.96   1 0.75283-0.97862-0.61784 0.09187 0.22694 0.18398
  -2  -6   9  718.47  189.65   1 0.76245-0.98152-0.61266 0.10197 0.20810 0.16189
  -2  -6   8 3141.37  293.92   1 0.77154-0.98394-0.60721 0.11182 0.18978 0.13910
  -2  -6   7 6631.66  338.49   1 0.78005-0.98579-0.60164 0.12156 0.17185 0.11591
   2   6  -7 3931.44  253.09   1 0.56707-0.36066 0.51075-0.03111 0.64618-0.93217
  -2  -6   6 1751.10  173.50   1 0.78798-0.98705-0.59600 0.13122 0.15443 0.09223
   2   6  -6  990.39  149.73   1 0.58223-0.38355 0.44853 0.01477 0.67810-0.92339
  -2  -6   5 1869.68  169.11   1 0.79530-0.98769-0.59037 0.14090 0.13766 0.06788
   2   6  -5 1286.20  134.51   1 0.59597-0.40410 0.37942 0.06872 0.70771-0.91212
  -2  -6   4   35.64   90.47   1 0.80193-0.98766-0.58486 0.15068 0.12178 0.04265
   2   6  -4  135.94  100.49   1 0.60682-0.42142 0.30472 0.12844 0.73410-0.89771
  -2  -6   3  -55.64   76.02   1 0.80780-0.98686-0.57962 0.16075 0.10715 0.01618
   2   6  -3  -13.83   70.45   1 0.61376-0.43518 0.22508 0.19290 0.75672-0.87943
  -2  -6   2  -10.96   76.32   1 0.81275-0.98513-0.57491 0.17135 0.09434-0.01212
   2   6  -2   43.57   95.06   1 0.61648-0.44472 0.14077 0.26202 0.77467-0.85648
  -2  -6   164853.25  909.06   1 0.81645-0.98216-0.57119 0.18293 0.08443-0.04332
   2   6  -150613.83  875.13   1 0.61470-0.44992 0.05271 0.33474 0.78699-0.82795
  -2  -6   0 1724.81  101.19   1 0.81825-0.97730-0.56932 0.19636 0.07951-0.07951
   2   6   0 1538.15  160.59   1 0.60738-0.44886-0.03866 0.41101 0.79346-0.79346
  -2  -6  -1 1613.59   83.89   1 0.81646-0.96883-0.57119 0.21353 0.08441-0.12552
   2   6   1 1333.36  148.85   1 0.59501-0.44322-0.13069 0.48785 0.79301-0.75203
  -2  -6  -2 1944.15  124.26   1 0.80511-0.95082-0.58206 0.23971 0.11393-0.19615
   2   6   2 1554.22  178.96   1 0.57653-0.43157-0.22169 0.56359 0.78641-0.70434
   2   6   3 6049.82  273.62   1 0.55432-0.41611-0.30975 0.63649 0.77251-0.64940
   2   6   413381.60  357.00   1 0.52777-0.39630-0.39294 0.70442 0.75302-0.58883
   2   6   512626.35  338.62   1 0.49900-0.37428-0.46920 0.76551 0.72858-0.52334
   2   6   6 2089.23  150.75   1 0.46804-0.34974-0.53776 0.81893 0.70124-0.45499
   2   6   7  572.80   50.76   1 0.22918-0.11726-0.60648 0.87282 0.76134-0.47373
   2   6   7  586.08  109.57   1 0.43758-0.32597-0.59758 0.86361 0.67187-0.38458
   2   6   862132.70  810.14   1 0.40963-0.30343-0.65053 0.90081 0.63953-0.31058
   2   6   860153.63 1119.98   1 0.40805-0.30312-0.64886 0.89976 0.64223-0.31390
   2   6   9 2260.87  116.02   1 0.50345-0.40419-0.66079 0.89542 0.55667-0.18666
   2   6   9 2265.20  422.76   1 0.37898-0.28111-0.69275 0.92817 0.61356-0.24387
   2   6  10 8595.30  368.84   1 0.55726-0.46467-0.66149 0.88081 0.50188-0.09076
   2   6  10 7965.32  518.89   1 0.35364-0.26248-0.72850 0.94876 0.58670-0.17593
   2   6  11 3685.17  269.57   1 0.58777-0.50207-0.66019 0.86468 0.46761-0.01564
   2   6  11 3521.25  334.80   1 0.33113-0.24667-0.75766 0.96277 0.56239-0.11054
   2   6  12  415.75  102.51   1 0.60735-0.52833-0.65846 0.84764 0.44445 0.04860
   2   6  12  420.72   99.76   1 0.31164-0.23389-0.78112 0.97107 0.54103-0.04811
   2   6  13  206.38  107.37   1 0.61884-0.54649-0.65714 0.83100 0.43035 0.10379
   2   6  13   20.83   57.02   1 0.29501-0.22396-0.80092 0.97450 0.52103 0.01305
   2   6  1416885.97  462.67   1 0.62486-0.55919-0.65634 0.81489 0.42279 0.15244
   2   6  1414144.95  703.48   1 0.28152-0.21712-0.81535 0.97368 0.50591 0.06926
   2   6  15  147.75   87.95   1 0.27088-0.21314-0.82624 0.96932 0.49389 0.12236
   2   6  16 1075.90  194.99   1 0.62621-0.57388-0.65615 0.78409 0.42108 0.23632
   2   6  16  764.34  135.94   1 0.26292-0.21183-0.83413 0.96196 0.48485 0.17248
   2   6  17  903.76  178.81   1 0.62314-0.57749-0.65657 0.76920 0.42496 0.27354
   2   6  17  473.84  109.56   1 0.25744-0.21301-0.83942 0.95200 0.47862 0.21980
   2   6  18 1570.81  228.70   1 0.61822-0.57924-0.65721 0.75453 0.43112 0.30847
   2   6  18 1189.94  205.60   1 0.25427-0.21649-0.84244 0.93977 0.47500 0.26450
   2   6  19  309.98  210.26   1 0.61173-0.57943-0.65799 0.73999 0.43912 0.34155
   2   6  19  181.55  113.48   1 0.25323-0.22210-0.84342 0.92550 0.47381 0.30677
   2   6  20  917.42  183.74   1 0.60389-0.57826-0.65882 0.72551 0.44863 0.37314
   2   6  20  918.08  178.49   1 0.25416-0.22968-0.84255 0.90938 0.47487 0.34680
   2   6  21 1074.40  231.72   1 0.59483-0.57588-0.65964 0.71103 0.45938 0.40347
   2   6  21  806.72  201.58   1 0.25690-0.23908-0.83994 0.89151 0.47800 0.38475
   2   6  22   11.14  116.44   1 0.58466-0.57238-0.66041 0.69648 0.47119 0.43275
  -2  -7  14  -76.95  130.89   1 0.71216-0.96071-0.63557-0.01377 0.29810 0.27719
  -2  -7  13  302.14  183.16   1 0.72459-0.96647-0.63084-0.00319 0.27748 0.25673
  -2  -7  12  355.28  238.19   1 0.73646-0.97167-0.62579 0.00705 0.25691 0.23620
  -2  -7  11 1287.96  277.11   1 0.74778-0.97632-0.62043 0.01700 0.23640 0.21562
  -2  -7  10 1030.93  211.83   1 0.75855-0.98036-0.61486 0.02671 0.21572 0.19538
  -2  -7   9  223.13  103.23   1 0.76883-0.98396-0.60889 0.03604 0.19532 0.17466
  -2  -7   8   66.20  142.73   1 0.77859-0.98705-0.60263 0.04509 0.17499 0.15388
  -2  -7   7  954.46  201.44   1 0.78785-0.98964-0.59610 0.05386 0.15474 0.13302
   2   7  -7  503.35  137.62   1 0.56642-0.36405 0.51304 0.02868 0.64493-0.93093
  -2  -7   6 1205.33  185.52   1 0.79661-0.99173-0.58931 0.06238 0.13458 0.11208
   2   7  -6 1539.89  250.28   1 0.58051-0.38594 0.45596 0.06939 0.67460-0.91990
  -2  -7   510091.50  365.91   1 0.80488-0.99333-0.58227 0.07064 0.11451 0.09103
   2   7  -5 7265.50  343.48   1 0.59349-0.40573 0.39348 0.11670 0.70209-0.90650
  -2  -7   4 2150.66  175.24   1 0.81266-0.99444-0.57500 0.07867 0.09458 0.06985
   2   7  -4 1409.32  206.88   1 0.60387-0.42293 0.32699 0.16803 0.72691-0.89044
  -2  -7   3  182.34   83.79   1 0.81995-0.99507-0.56752 0.08649 0.07481 0.04852
   2   7  -3  196.33  119.99   1 0.61155-0.43701 0.25641 0.22363 0.74849-0.87120
  -2  -7   2  191.72   80.22   1 0.82674-0.99519-0.55985 0.09412 0.05525 0.02696
   2   7  -2   68.23   89.65   1 0.61571-0.44799 0.18263 0.28224 0.76651-0.84831
  -2  -7   1 1116.72  103.23   1 0.83328-0.99484-0.55164 0.10128 0.03635 0.00475
   2   7  -1  634.97  131.79   1 0.61644-0.45568 0.10600 0.34351 0.78022-0.82118
  -2  -7   0 2007.72  123.66   1 0.83907-0.99392-0.54373 0.10868 0.01749-0.01749
   2   7   0 1572.68  187.43   1 0.61322-0.45920 0.02701 0.40732 0.78944-0.78944
  -2  -7  -110251.43  391.81   1 0.84426-0.99239-0.53592 0.11618-0.00057-0.04054
   2   7   1 8779.39  425.80   1 0.60574-0.45791-0.05354 0.47275 0.79385-0.75287
  -2  -7  -2  496.47   52.33   1 0.84869-0.99011-0.52861 0.12417-0.01706-0.06516
   2   7   2  510.59  117.16   1 0.59454-0.45345-0.13353 0.53755 0.79289-0.71092
  -2  -7  -320262.33  291.26   1 0.85182-0.98653-0.52300 0.13387-0.02943-0.09390
   2   7   4 2776.37  200.57   1 0.56035-0.43284-0.28782 0.66144 0.77663-0.61248
   2   7   524141.56  548.59   1 0.53939-0.41863-0.35931 0.71778 0.76153-0.55635
   2   7   6   82.14   77.75   1 0.51593-0.40190-0.42592 0.76909 0.74323-0.49694
   2   7   748550.97 1725.29   1 0.49191-0.38463-0.48618 0.81418 0.72225-0.43491
   2   7   851749.82 1739.24   1 0.07603 0.02507-0.55144 0.86450 0.83073-0.50200
   2   7   850859.20  686.74   1 0.46684-0.36589-0.54027 0.85317 0.70011-0.37178
   2   7   9 6001.97  166.66   1 0.25528-0.16069-0.61414 0.91217 0.74676-0.37697
   2   7   9 5873.77  287.87   1 0.44303-0.34876-0.58744 0.88520 0.67722-0.30784
   2   7  10 1917.45  128.12   1 0.36517-0.27607-0.64289 0.92470 0.67329-0.26211
   2   7  10 1983.96  212.22   1 0.42038-0.33280-0.62816 0.91079 0.65473-0.24432
   2   7  1116628.15  948.73   1 0.43577-0.35332-0.65413 0.92066 0.61822-0.16592
   2   7  1116093.15  962.61   1 0.39939-0.31851-0.66281 0.93029 0.63337-0.18191
   2   7  12  166.50   65.15   1 0.48086-0.40548-0.65940 0.91018 0.57788-0.08454
   2   7  12  187.24   70.11   1 0.37904-0.30528-0.69266 0.94458 0.61363-0.12070
   2   7  13  145.09   86.38   1 0.51130-0.44258-0.66112 0.89660 0.54907-0.01461
   2   7  13   95.43   63.93   1 0.36230-0.29524-0.71664 0.95341 0.59594-0.06194
   2   7  14 9330.72  570.37   1 0.53135-0.46930-0.66163 0.88180 0.52905 0.04650
   2   7  14 7795.61  636.95   1 0.34792-0.28756-0.73613 0.95774 0.58056-0.00548
   2   7  15 3997.59  366.09   1 0.54416-0.48878-0.66168 0.86655 0.51581 0.10086
   2   7  15 3598.69  751.37   1 0.33592-0.28226-0.75165 0.95810 0.56760 0.04855
   2   7  16 1758.29  174.83   1 0.55171-0.50301-0.66160 0.85116 0.50782 0.14996
   2   7  16 1722.50  418.49   1 0.32628-0.27932-0.76366 0.95496 0.55709 0.10013
   2   7  17 3190.79  379.09   1 0.55530-0.51327-0.66153 0.83579 0.50398 0.19491
   2   7  17 2555.79  424.54   1 0.31890-0.27865-0.77257 0.94871 0.54902 0.14928
   2   7  18  -65.86   94.21   1 0.55579-0.52043-0.66152 0.82048 0.50346 0.23655
   2   7  18    0.29   81.76   1 0.31370-0.28015-0.77872 0.93971 0.54330 0.19608
   2   7  19 1715.93  247.88   1 0.55378-0.52508-0.66156 0.80522 0.50562 0.27550
   2   7  19 1068.08  182.25   1 0.31023-0.28320-0.78380 0.92785 0.53795 0.24263
   2   7  20  619.95  200.51   1 0.54968-0.52766-0.66163 0.78998 0.50999 0.31224
   2   7  20  688.28  169.89   1 0.30901-0.28864-0.78521 0.91401 0.53660 0.28506
   2   7  21  347.96  214.39   1 0.54380-0.52845-0.66168 0.77473 0.51618 0.34716
   2   7  21   72.90   58.10   1 0.30962-0.29590-0.78450 0.89805 0.53728 0.32547
   2   7  22  -51.68  109.29   1 0.53637-0.52768-0.66168 0.75942 0.52391 0.38055
  -2  -8  13  636.47  213.90   1 0.72574-0.96371-0.63037-0.06581 0.27552 0.25868
  -2  -8  12  234.83  186.55   1 0.73808-0.96939-0.62505-0.05582 0.25402 0.23909
  -2  -8  11 1480.60  258.61   1 0.74987-0.97451-0.61937-0.04620 0.23250 0.21952
  -2  -8  10  113.95  171.39   1 0.76114-0.97901-0.61341-0.03689 0.21067 0.20042
  -2  -8   9  -54.61  128.00   1 0.77189-0.98309-0.60699-0.02801 0.18905 0.18094
  -2  -8   8   22.94  110.28   1 0.78214-0.98667-0.60020-0.01950 0.16734 0.16153
  -2  -8   7  972.92  188.28   1 0.79190-0.98976-0.59304-0.01135 0.14553 0.14223
   2   8  -7  436.30  117.92   1 0.56426-0.36595 0.52043 0.08338 0.64089-0.92688
  -2  -8   6  436.53  131.55   1 0.80119-0.99239-0.58549-0.00360 0.12358 0.12307
   2   8  -6  342.46  137.69   1 0.57871-0.38734 0.46679 0.12172 0.66872-0.91386
  -2  -8   5 1555.29  193.87   1 0.81003-0.99455-0.57753 0.00374 0.10143 0.10411
   2   8  -5  922.34  158.00   1 0.59020-0.40654 0.41089 0.16134 0.69485-0.89926
  -2  -8   4 2288.80  238.29   1 0.81843-0.99628-0.56913 0.01064 0.07901 0.08542
   2   8  -4 1667.73  263.36   1 0.60053-0.42369 0.35089 0.20618 0.71849-0.88202
  -2  -8   3 5251.94  254.89   1 0.82661-0.99763-0.55990 0.01679 0.05672 0.06662
   2   8  -3 3449.54  264.74   1 0.60867-0.43817 0.28769 0.25443 0.73942-0.86213
  -2  -8   2 2321.48  186.81   1 0.83423-0.99854-0.55040 0.02259 0.03336 0.04886
   2   8  -2 1694.92  180.96   1 0.61393-0.45025 0.22212 0.30481 0.75745-0.83926
  -2  -8   112406.27  629.24   1 0.84150-0.99910-0.54017 0.02767 0.00919 0.03191
   2   8  -1 9351.96  554.34   1 0.61636-0.45949 0.15434 0.35741 0.77218-0.81309
  -2  -8   0 2462.90  191.20   1 0.84846-0.99936-0.52900 0.03180-0.01620 0.01620
   2   8   0 2418.63  252.16   1 0.61596-0.46595 0.08471 0.41167 0.78320-0.78320
  -2  -8  -1  512.97   68.64   1 0.85521-0.99939-0.51643 0.03454-0.04364 0.00252
   2   8   1  700.27  145.31   1 0.61233-0.46905 0.01408 0.46713 0.79047-0.74951
  -2  -8  -2  148.53   62.06   1 0.86188-0.99935-0.50156 0.03498-0.07474-0.00748
   2   8   2  104.50   92.54   1 0.60530-0.46817-0.05730 0.52338 0.79392-0.71195
  -2  -8  -3 7779.73  298.04   1 0.86870-0.99947-0.48218 0.03089-0.11337-0.00997
   2   8   3 7158.89  399.53   1 0.59554-0.46513-0.12745 0.57834 0.79315-0.67019
   2   8   4 3236.34  259.30   1 0.58300-0.45932-0.19592 0.63162 0.78849-0.62455
   2   8   5 3862.22  239.71   1 0.56702-0.45021-0.26202 0.68253 0.78091-0.57572
   2   8   616920.48  701.54   1 0.55009-0.44003-0.32440 0.72974 0.76951-0.52329
   2   8   710055.22  643.56   1 0.53119-0.42786-0.38295 0.77298 0.75576-0.46842
   2   8   8 8774.90  585.43   1 0.51199-0.41541-0.43635 0.81122 0.73989-0.41151
   2   8   9  -11.17   25.43   1-0.04172 0.13205-0.49813 0.85804 0.86609-0.49631
   2   8   9  284.04  127.45   1 0.49256-0.40273-0.48463 0.84433 0.72284-0.35341
   2   8  10  642.77   75.34   1 0.12429-0.04055-0.57049 0.91521 0.81184-0.40092
   2   8  10  750.88  153.30   1 0.47262-0.38901-0.52805 0.87267 0.70553-0.29512
   2   8  11 6631.22  361.56   1 0.23792-0.16066-0.60910 0.93883 0.75655-0.30459
   2   8  11 6591.95  421.60   1 0.45424-0.37732-0.56584 0.89533 0.68809-0.23664
   2   8  12  725.97  124.81   1 0.31650-0.24451-0.63250 0.94584 0.70693-0.21350
   2   8  12  830.74  159.70   1 0.43703-0.36680-0.59859 0.91294 0.67132-0.17882
   2   8  13 5726.02  380.94   1 0.37230-0.30695-0.64424 0.94230 0.66808-0.13354
   2   8  13 4701.75  369.86   1 0.42131-0.35777-0.62657 0.92578 0.65566-0.12212
   2   8  14 8042.24  560.87   1 0.41153-0.35282-0.65081 0.93360 0.63802-0.06236
   2   8  14 7062.51 1113.77   1 0.40728-0.35043-0.65012 0.93419 0.64145-0.06686
   2   8  15 1242.69  188.75   1 0.43911-0.38704-0.65454 0.92205 0.61542 0.00135
   2   8  15 1038.18  185.47   1 0.39369-0.34402-0.67045 0.93887 0.62888-0.01273
   2   8  16 1115.00  145.75   1 0.45749-0.41265-0.65735 0.90897 0.59882 0.05896
   2   8  16 1431.60  301.93   1 0.38339-0.34043-0.68619 0.93945 0.61818 0.03905
   2   8  17  949.65  198.27   1 0.47033-0.43216-0.65855 0.89487 0.58744 0.11146
   2   8  17  885.94  231.92   1 0.37503-0.33877-0.69854 0.93665 0.60941 0.08890
   2   8  18  132.73  140.16   1 0.47832-0.44682-0.65921 0.88023 0.58020 0.15980
   2   8  18  125.76   74.86   1 0.36858-0.33902-0.70782 0.93078 0.60260 0.13678
   2   8  19 4790.65  346.95   1 0.48248-0.45765-0.65952 0.86524 0.57640 0.20472
   2   8  19 3484.58  592.64   1 0.36400-0.34114-0.71427 0.92208 0.59775 0.18271
   2   8  20  737.63  163.34   1 0.48352-0.46536-0.65959 0.85001 0.57543 0.24680
   2   8  20  597.19  131.20   1 0.36123-0.34508-0.71812 0.91077 0.59481 0.22673
   2   8  21  -50.99   96.05   1 0.48198-0.47049-0.65948 0.83459 0.57685 0.28649
   2   8  21  -46.39   92.97   1 0.36022-0.35077-0.71953 0.89702 0.59372 0.26889
  -2  -9  12  127.78  183.60   1 0.73696-0.96435-0.62556-0.11747 0.25602 0.23709
  -2  -9  11    9.25  118.74   1 0.74918-0.96990-0.61972-0.10800 0.23380 0.21821
  -2  -9  10  490.71  197.60   1 0.76087-0.97481-0.61356-0.09890 0.21120 0.19990
  -2  -9   9  541.91  148.47   1 0.77202-0.97929-0.60690-0.09026 0.18877 0.18121
  -2  -9   8 1165.31  226.27   1 0.78266-0.98326-0.59983-0.08202 0.16620 0.16267
  -2  -9   7  -18.80  102.09   1 0.79281-0.98674-0.59233-0.07422 0.14344 0.14433
   2   9  -7   63.05  100.57   1 0.56090-0.36663 0.53163 0.13428 0.63462-0.92062
  -2  -9   6  237.98  118.83   1 0.80249-0.98974-0.58438-0.06687 0.12043 0.12622
   2   9  -6  292.94  157.80   1 0.57487-0.38756 0.48205 0.16855 0.66116-0.90630
  -2  -9   5   12.12   90.14   1 0.81170-0.99228-0.57594-0.06001 0.09710 0.10845
   2   9  -5  212.56  149.62   1 0.58615-0.40660 0.43072 0.20356 0.68622-0.89063
  -2  -9   4  978.00  175.50   1 0.82047-0.99439-0.56695-0.05369 0.07334 0.09110
   2   9  -4  780.68  208.43   1 0.59653-0.42380 0.37609 0.24303 0.70900-0.87254
  -2  -9   3  389.48  108.79   1 0.82902-0.99610-0.55701-0.04824 0.04951 0.07383
   2   9  -3  342.63  131.60   1 0.60487-0.43895 0.31920 0.28476 0.72954-0.85219
  -2  -9   2 2283.95  227.33   1 0.83701-0.99738-0.54663-0.04331 0.02434 0.05788
   2   9  -2 2023.50  289.18   1 0.61126-0.45161 0.25996 0.32905 0.74751-0.82932
  -2  -9   113085.31  360.29   1 0.84464-0.99829-0.53532-0.03932-0.00194 0.04306
   2   9  -1 9907.70  436.20   1 0.61509-0.46225 0.19928 0.37455 0.76285-0.80375
  -2  -9   028686.67  515.24   1 0.85193-0.99888-0.52278-0.03655-0.02990 0.02990
   2   9   022634.32  602.68   1 0.61650-0.47048 0.13727 0.42137 0.77529-0.77529
  -2  -9  -1 7788.54  413.77   1 0.85894-0.99918-0.50849-0.03555-0.06043 0.01932
   2   9   1 6585.16  447.45   1 0.61561-0.47635 0.07406 0.46919 0.78456-0.74359
  -2  -9  -2 2980.81  190.79   1 0.86569-0.99922-0.49144-0.03729-0.09517 0.01294
   2   9   2 2693.90  274.75   1 0.61208-0.47956 0.01076 0.51732 0.79071-0.70879
   2   9   3 4610.33  349.86   1 0.60582-0.47938-0.05282 0.56577 0.79384-0.67088
   2   9   4 2038.14  214.64   1 0.59753-0.47782-0.11480 0.61256 0.79358-0.62964
   2   9   5  383.74  112.60   1 0.58714-0.47416-0.17505 0.65762 0.79032-0.58540
   2   9   6 1291.13  175.50   1 0.57392-0.46781-0.23325 0.70063 0.78498-0.53876
   2   9   7  266.52   81.24   1 0.56027-0.46091-0.28813 0.74035 0.77657-0.48931
   2   9   8 5310.67  383.68   1 0.54558-0.45297-0.33948 0.77656 0.76621-0.43791
   2   9   9 3270.26  296.43   1 0.52966-0.44378-0.38743 0.80916 0.75454-0.38511
   2   9  10 3664.03  263.65   1 0.51412-0.43499-0.43073 0.83729 0.74171-0.33122
   2   9  11  658.90  157.69   1 0.49879-0.42640-0.46972 0.86111 0.72839-0.27686
   2   9  12 6062.49  372.31   1 0.12158-0.05521-0.56946 0.94585 0.81297-0.31987
   2   9  12 6061.32  443.98   1 0.48401-0.41837-0.50437 0.88060 0.71508-0.22250
   2   9  13  -21.18   50.99   1 0.20360-0.14367-0.59848 0.95991 0.77482-0.24068
   2   9  13  -68.74   88.62   1 0.46923-0.40966-0.53526 0.89647 0.70236-0.16881
   2   9  14 9860.27  308.45   1 0.26521-0.21200-0.61692 0.96310 0.74099-0.16576
   2   9  1410101.33  422.73   1 0.45640-0.40352-0.56156 0.90763 0.69017-0.11559
   2   9  1510722.92  372.48   1 0.30988-0.26163-0.63093 0.96053 0.71125-0.09447
   2   9  1510224.08  407.43   1 0.44488-0.39869-0.58395 0.91489 0.67902-0.06340
   2   9  16  275.60  127.10   1 0.34350-0.30189-0.63852 0.95284 0.68868-0.03078
   2   9  16  250.16  100.69   1 0.43480-0.39531-0.60266 0.91846 0.66913-0.01246
   2   9  17   -2.38   77.11   1 0.36804-0.33308-0.64344 0.94248 0.67121 0.02780
   2   9  17   61.23   89.68   1 0.42627-0.39346-0.61793 0.91859 0.66064 0.03706
   2   9  18  472.12  263.09   1 0.38558-0.35726-0.64663 0.93040 0.65817 0.08196
   2   9  18  127.14  126.88   1 0.41932-0.39320-0.62998 0.91550 0.65367 0.08507
   2   9  19  154.22  143.19   1 0.39762-0.37594-0.64865 0.91714 0.64895 0.13229
   2   9  19  110.07   94.90   1 0.41398-0.39455-0.63902 0.90941 0.64827 0.13151
   2   9  20   71.53   94.29   1 0.41025-0.39751-0.64524 0.90049 0.64448 0.17635
   2   9  21  353.82  117.83   1 0.40809-0.40204-0.64878 0.88889 0.64228 0.21958
  -2 -10  10  -62.60  113.02   1 0.75788-0.96802-0.61514-0.15943 0.21728 0.19364
  -2 -10   9   33.26  113.52   1 0.76945-0.97278-0.60850-0.15081 0.19406 0.17593
  -2 -10   8  265.05  181.36   1 0.78044-0.97710-0.60137-0.14264 0.17102 0.15786
  -2 -10   7  154.36  154.82   1 0.79092-0.98091-0.59379-0.13492 0.14778 0.13999
   2  10  -7  -19.81  115.48   1 0.55647-0.36625 0.54574 0.18226 0.62649-0.91248
  -2 -10   6 2589.02  275.57   1 0.80091-0.98423-0.58573-0.12768 0.12427 0.12238
   2  10  -6 1981.16  286.46   1 0.57016-0.38690 0.49973 0.21296 0.65205-0.89719
  -2 -10   5  947.10  200.01   1 0.81042-0.98707-0.57716-0.12094 0.10042 0.10512
   2  10  -5  573.48  153.88   1 0.58136-0.40592 0.45234 0.24400 0.67631-0.88073
  -2 -10   4  310.82  125.09   1 0.81947-0.98945-0.56802-0.11478 0.07613 0.08830
   2  10  -4  419.03  186.30   1 0.59186-0.42323 0.40226 0.27892 0.69848-0.86201
  -2 -10   3  330.80  128.15   1 0.82828-0.99140-0.55791-0.10949 0.05175 0.07158
   2  10  -3  205.33  171.64   1 0.60060-0.43879 0.35037 0.31563 0.71868-0.84132
  -2 -10   2  451.50  131.46   1 0.83649-0.99291-0.54735-0.10474 0.02606 0.05616
   2  10  -2  380.50  157.36   1 0.60773-0.45212 0.29659 0.35449 0.73667-0.81848
   2  10  -1   44.99  103.41   1 0.61267-0.46387 0.24171 0.39418 0.75246-0.79336
  -2 -10   0  686.53  124.42   1 0.85173-0.99472-0.52316-0.09832-0.02907 0.02907
   2  10   0  373.27  144.75   1 0.61561-0.47363 0.18578 0.43493 0.76583-0.76583
  -2 -10  -1 8023.31  469.60   1 0.85878-0.99507-0.50883-0.09735-0.05971 0.01859
   2  10   1 7635.67  548.99   1 0.61665-0.48140 0.12881 0.47649 0.77662-0.73566
   2  10   2 3940.63  375.80   1 0.61552-0.48702 0.07175 0.51837 0.78484-0.70291
   2  10   3  301.81  160.46   1 0.61238-0.49061 0.01488 0.56008 0.79041-0.66753
   2  10   4 1318.29  230.54   1 0.60702-0.49128-0.04201 0.60183 0.79356-0.62962
   2  10   5 1196.90  205.61   1 0.60014-0.49112-0.09709 0.64172 0.79397-0.58905
   2  10   6  412.44  155.05   1 0.59166-0.48937-0.15046 0.67990 0.79202-0.54611
   2  10   7   53.49  103.35   1 0.58077-0.48536-0.20204 0.71630 0.78859-0.50133
   2  10   8 2940.72  253.18   1 0.56983-0.48116-0.25061 0.74971 0.78261-0.45431
   2  10   9 1480.70  228.87   1 0.55810-0.47618-0.29616 0.78012 0.77511-0.40578
   2  10  10 1945.70  266.56   1 0.54590-0.47074-0.33842 0.80722 0.76645-0.35608
   2  10  11  594.91  165.25   1 0.53294-0.46449-0.37774 0.83116 0.75715-0.30562
   2  10  12   77.53  100.06   1 0.52072-0.45902-0.41288 0.85114 0.74724-0.25466
   2  10  13  473.00  190.43   1 0.50892-0.45398-0.44434 0.86743 0.73726-0.20363
   2  10  14 1619.25  241.53   1 0.49780-0.44960-0.47213 0.88005 0.72752-0.15284
   2  10  16  -12.63   90.21   1 0.47832-0.44361-0.51704 0.89464 0.70983-0.05306
   2  10  17  149.93  143.66   1 0.46931-0.44047-0.53509 0.89775 0.70243-0.00473
   2  10  18  516.51  153.67   1 0.46247-0.44032-0.54929 0.89681 0.69598 0.04276
   2  10  19  -21.14   73.46   1 0.45696-0.44150-0.56044 0.89282 0.69071 0.08907
   2  10  20  187.00  112.38   1 0.45280-0.44403-0.56866 0.88591 0.68671 0.13411
  -2 -11   8 1183.96  257.66   1 0.77558-0.96830-0.60462-0.20155 0.18137 0.14751
  -2 -11   7 1551.18  247.17   1 0.78638-0.97244-0.59718-0.19370 0.15801 0.12976
  -2 -11   6  333.11  139.30   1 0.79667-0.97605-0.58926-0.18631 0.13442 0.11223
   2  11  -6  372.15  183.31   1 0.56461-0.38539 0.51927 0.25551 0.64153-0.88667
  -2 -11   5  892.60  212.78   1 0.80646-0.97917-0.58085-0.17942 0.11055 0.09499
   2  11  -5  624.52  173.80   1 0.57673-0.40447 0.47475 0.28473 0.66481-0.86909
  -2 -11   4  938.11  198.21   1 0.81576-0.98180-0.57190-0.17306 0.08631 0.07812
   2  11  -4  519.62  169.01   1 0.58649-0.42196 0.42913 0.31409 0.68693-0.85046
  -2 -11   3  -22.15   58.46   1 0.82459-0.98396-0.56236-0.16730 0.06157 0.06175
   2  11  -3 -104.63  109.46   1 0.59561-0.43790 0.38150 0.34656 0.70689-0.82954
  -2 -11   2  527.56  143.09   1 0.83319-0.98565-0.55176-0.16248 0.03666 0.04556
   2  11  -2  698.10  186.15   1 0.60313-0.45223 0.33259 0.38030 0.72498-0.80675
  -2 -11   1  237.55  137.86   1 0.84116-0.98691-0.54068-0.15826 0.01037 0.03074
   2  11  -1  352.29  163.54   1 0.60922-0.46446 0.28227 0.41570 0.74105-0.78196
   2  11   0  668.03  178.12   1 0.61337-0.47543 0.23141 0.45137 0.75513-0.75513
   2  11   1  660.35  188.17   1 0.61579-0.48467 0.17999 0.48761 0.76707-0.72616
   2  11   2 1141.34  235.05   1 0.61665-0.49215 0.12783 0.52434 0.77678-0.69486
   2  11   3    1.27  104.93   1 0.61568-0.49793 0.07613 0.56087 0.78430-0.66142
   2  11   4  351.63  163.84   1 0.61308-0.50206 0.02490 0.59693 0.78962-0.62577
   2  11   5   49.11  112.63   1 0.60894-0.50466-0.02545 0.63211 0.79280-0.58799
   2  11   6 1853.34  264.23   1 0.60308-0.50476-0.07535 0.66685 0.79410-0.54819
   2  11   7   90.09  112.52   1 0.59627-0.50468-0.12284 0.69916 0.79332-0.50642
   2  11   8 3552.79  364.78   1 0.58841-0.50355-0.16833 0.72945 0.79084-0.46296
   2  11   9   19.07  106.92   1 0.57868-0.50071-0.21189 0.75788 0.78754-0.41820
   2  11  10 7974.51  386.46   1 0.56939-0.49818-0.25239 0.78322 0.78235-0.37198
   2  11  11 2623.59  282.53   1 0.55976-0.49529-0.29003 0.80570 0.77623-0.32482
   2  11  12 2410.19  262.65   1 0.55002-0.49231-0.32464 0.82516 0.76946-0.27701
   2  11  13 4582.17  533.20   1 0.54041-0.48944-0.35610 0.84147 0.76232-0.22883
   2  11  14   13.23   92.25   1 0.53048-0.48623-0.38502 0.85497 0.75520-0.18052
   2  11  15  298.33  163.06   1 0.52172-0.48422-0.41009 0.86487 0.74807-0.13235
   2  11  16 1128.21  203.89   1 0.51366-0.48291-0.43196 0.87157 0.74131-0.08454
   2  11  17   -5.90   81.95   1 0.50644-0.48243-0.45068 0.87513 0.73511-0.03729
   2  11  18  745.80  190.18   1 0.50018-0.48291-0.46632 0.87561 0.72962 0.00924
   2  11  19  425.68  188.04   1 0.49495-0.48444-0.47897 0.87309 0.72498 0.05493
   2  11  20  129.30  140.37   1 0.49083-0.48707-0.48869 0.86765 0.72128 0.09967
   2  12  -6   41.53  140.04   1 0.55821-0.38304 0.54027 0.29660 0.62967-0.87481
   2  12  -5  134.82  120.44   1 0.57040-0.40218 0.49886 0.32272 0.65251-0.85679
   2  12  -4  263.70  208.00   1 0.58038-0.41996 0.45654 0.34873 0.67433-0.83786
   2  12  -3   41.32  119.37   1 0.58987-0.43626 0.41258 0.37753 0.69413-0.81678
   2  12  -2 1283.72  300.19   1 0.59794-0.45114 0.36758 0.40736 0.71228-0.79405
   2  12  -1   90.28  132.74   1 0.60456-0.46457 0.32171 0.43807 0.72870-0.76958
   2  12   0 1248.58  226.94   1 0.60994-0.47604 0.27482 0.47004 0.74326-0.74326
   2  12   1 1017.55  245.86   1 0.61359-0.48651 0.22780 0.50187 0.75604-0.71514
   2  12   2  303.74  201.43   1 0.61577-0.49550 0.18059 0.53390 0.76694-0.68513
   2  12   3 1967.57  325.13   1 0.61665-0.50291 0.13285 0.56620 0.77594-0.65306
   2  12   4   89.72  163.89   1 0.61599-0.50899 0.08595 0.59792 0.78304-0.61919
   2  12   5   11.74  114.92   1 0.61400-0.51373 0.03974 0.62897 0.78829-0.58349
   2  12   6 4986.37  369.85   1 0.61077-0.51724-0.00549 0.65903 0.79178-0.54601
   2  12   7 1131.41  217.89   1 0.60611-0.51848-0.05027 0.68864 0.79378-0.50689
   2  12   8  897.99  231.50   1 0.60076-0.51986-0.09266 0.71584 0.79403-0.46615
   2  12   9 2185.50  330.38   1 0.59460-0.52043-0.13317 0.74117 0.79290-0.42404
   2  12  10    4.91  115.97   1 0.58780-0.52036-0.17155 0.76436 0.79060-0.38075
   2  12  11  676.78  209.93   1 0.57951-0.51899-0.20802 0.78573 0.78796-0.33655
   2  12  1210462.67 4499.28   1 0.57200-0.51823-0.24148 0.80404 0.78389-0.29144
   2  12  13  176.60  124.06   1 0.56443-0.51741-0.27227 0.81967 0.77928-0.24579
   2  12  14  399.08  230.06   1 0.55697-0.51670-0.30027 0.83251 0.77434-0.19982
   2  12  15  205.73  194.91   1 0.54980-0.51628-0.32541 0.84250 0.76929-0.15374
   2  12  16   89.60  128.61   1 0.54306-0.51629-0.34767 0.84960 0.76433-0.10773
   2  12  17  216.71  148.07   1 0.53690-0.51688-0.36703 0.85380 0.75961-0.06198
   2  12  18  120.62  109.71   1 0.53075-0.51743-0.38424 0.85556 0.75541-0.01654
   2  12  19   39.46   95.57   1 0.52606-0.51950-0.39785 0.85400 0.75164 0.02827
   2  13  -5   25.11  146.14   1 0.56327-0.39910 0.52378 0.35989 0.63903-0.84332
   2  13  -4  148.88  134.30   1 0.57436-0.41714 0.48405 0.38432 0.66015-0.82358
   2  13  -3  127.73  134.90   1 0.58334-0.43384 0.44360 0.40856 0.68038-0.80302
   2  13  -2  587.66  187.62   1 0.59191-0.44922 0.40199 0.43500 0.69859-0.78036
   2  13  -1   57.67  114.29   1 0.59919-0.46331 0.35968 0.46215 0.71525-0.75614
   2  13   0   71.50  122.40   1 0.60517-0.47611 0.31683 0.48983 0.73032-0.73032
   2  13   1   53.03  112.32   1 0.61008-0.48704 0.27325 0.51849 0.74372-0.70281
   2  13   2  312.27  232.13   1 0.61346-0.49723 0.22988 0.54668 0.75551-0.67371
   2  13   3  462.02  167.77   1 0.61558-0.50616 0.18658 0.57480 0.76566-0.64295
   2  13   4   59.89  200.23   1 0.61647-0.51387 0.14358 0.60261 0.77417-0.61056
   2  13   5  734.32  173.50   1 0.61634-0.52009 0.10033 0.63042 0.78105-0.57625
   2  13   6  -56.35  110.84   1 0.61498-0.52546 0.05859 0.65699 0.78636-0.54059
   2  13   7  176.02  127.48   1 0.61260-0.52982 0.01791 0.68250 0.79018-0.50345
   2  13   8  102.77  122.72   1 0.60933-0.53329-0.02146 0.70670 0.79262-0.46493
   2  13   9 2423.96  312.28   1 0.60496-0.53475-0.06023 0.73028 0.79397-0.42510
   2  13  10  970.76  230.77   1 0.60025-0.53677-0.09634 0.75120 0.79398-0.38413
   2  13  11  348.78  205.72   1 0.59504-0.53829-0.13048 0.77015 0.79302-0.34219
   2  13  12  200.20  160.70   1 0.58950-0.53948-0.16247 0.78695 0.79125-0.29943
   2  13  13    5.00  121.53   1 0.58376-0.54047-0.19215 0.80145 0.78885-0.25604
   2  13  14  -81.01  104.32   1 0.57695-0.54063-0.21979 0.81407 0.78664-0.21212
   2  13  15  923.15  210.39   1 0.57129-0.54172-0.24448 0.82361 0.78348-0.16792
   2  13  16   21.25  103.06   1 0.56588-0.54306-0.26657 0.83054 0.78020-0.12360
   2  13  17   58.30  108.74   1 0.56084-0.54476-0.28601 0.83482 0.77695-0.07931
   2  13  18   45.94  104.88   1 0.55628-0.54696-0.30276 0.83641 0.77387-0.03520
   2  14  -2  -44.33  120.44   1 0.58503-0.44645 0.43594 0.46311 0.68387-0.76564
   2  14  -1  347.97  159.47   1 0.59289-0.46112 0.39673 0.48715 0.70076-0.74164
   2  14   0   70.16  124.96   1 0.59959-0.47463 0.35710 0.51162 0.71621-0.71621
   2  14   1   45.48  117.78   1 0.60512-0.48698 0.31719 0.53635 0.73020-0.68932
   2  14   2  -14.03  106.83   1 0.60975-0.49756 0.27679 0.56184 0.74268-0.66087
   2  14   3  566.22  214.39   1 0.61301-0.50763 0.23684 0.58661 0.75373-0.63102
   2  14   4  128.62  110.88   1 0.61518-0.51661 0.19717 0.61109 0.76333-0.59971
   2  14   5 2240.19  269.36   1 0.61630-0.52456 0.15797 0.63511 0.77149-0.56698
   2  14   6 2276.19  291.32   1 0.61660-0.53110 0.11858 0.65905 0.77829-0.53252
   2  14   7 2594.81  304.78   1 0.61584-0.53708 0.08087 0.68158 0.78370-0.49697
   2  14   810514.69 4624.93   1 0.61426-0.54223 0.04427 0.70301 0.78785-0.46017
   2  14   9 1073.25  241.95   1 0.61194-0.54665 0.00898 0.72312 0.79084-0.42219
   2  14  10   -2.30  130.74   1 0.60901-0.55045-0.02479 0.74174 0.79277-0.38316
   2  14  11   36.10  128.66   1 0.60523-0.55244-0.05792 0.75965 0.79393-0.34310
   2  14  12  476.73  198.15   1 0.60138-0.55532-0.08822 0.77476 0.79407-0.30225
   2  14  13   71.89  117.29   1 0.59726-0.55793-0.11650 0.78786 0.79353-0.26072
   2  14  14  169.69  192.58   1 0.59301-0.56041-0.14266 0.79882 0.79245-0.21866
   2  14  15  287.48  170.45   1 0.58874-0.56287-0.16656 0.80754 0.79096-0.17619
   2  14  16   86.67  113.95   1 0.58457-0.56543-0.18813 0.81392 0.78922-0.13346
   2  15   2  144.98  135.74   1 0.60450-0.49727 0.32217 0.57826 0.72854-0.64678
   2  15   3   94.50  127.38   1 0.60897-0.50763 0.28479 0.60073 0.74030-0.61759
   2  15   4  194.07  141.46   1 0.61220-0.51768 0.24806 0.62228 0.75077-0.58716
   2  15   5  368.83  186.98   1 0.61450-0.52679 0.21176 0.64340 0.75996-0.55544
   2  15   6  378.95  185.20   1 0.61591-0.53502 0.17606 0.66391 0.76788-0.52247
   2  15   7 1071.92  249.19   1 0.61648-0.54241 0.14115 0.68363 0.77460-0.48828
   2  15   8  189.65  189.56   1 0.61645-0.54843 0.10617 0.70316 0.78020-0.45251
   2  15   9 1403.56  277.31   1 0.61558-0.55430 0.07327 0.72088 0.78465-0.41600
   2  15  10   -8.04  116.56   1 0.61411-0.55957 0.04169 0.73729 0.78811-0.37850
   2  15  11  116.38  125.14   1 0.61214-0.56434 0.01158 0.75223 0.79066-0.34009
   2  15  12   48.47  121.07   1 0.60976-0.56869-0.01689 0.76554 0.79240-0.30087
   2  15  13  173.31  139.91   1 0.60673-0.57137-0.04472 0.77813 0.79364-0.26084
   2  15  14  234.80  133.43   1 0.60381-0.57518-0.06958 0.78780 0.79407-0.22028
   3 -14  -8 1640.22  322.12   1 0.60104-0.21785 0.11059-0.85907-0.79152 0.46316
   3 -14  -7   57.32   95.77   1 0.63614-0.25956 0.07387-0.83758-0.76802 0.48071
   3 -14  -6  -78.23   97.62   1 0.66973-0.29977 0.03635-0.81527-0.74170 0.49543
   3 -14  -5   -2.11   69.21   1 0.70134-0.33799-0.00156-0.79255-0.71282 0.50755
   3 -14  -4   95.17   56.47   1 0.73077-0.37404-0.03957-0.76976-0.68146 0.51724
   3 -14  -3  800.69  325.05   1 0.75769-0.40758-0.07729-0.74726-0.64801 0.52485
   3 -14  -2 1716.72  275.08   1 0.78064-0.43791-0.11488-0.72451-0.61432 0.53226
   3 -14  -1   26.87  111.18   1 0.80217-0.46602-0.15117-0.70347-0.57763 0.53660
  -3  13  13  463.05  204.25   1-0.33345-0.07899-0.32429 0.93323 0.88523-0.35048
  -3  13  12   31.34  106.64   1-0.37061-0.03508-0.29754 0.92173 0.87983-0.38621
  -3  13  11  582.33  201.75   1-0.40948 0.01052-0.26824 0.90769 0.87199-0.41950
  -3  13  10  217.11  124.06   1-0.44918 0.05696-0.23655 0.89103 0.86155-0.45035
   3 -13  -9  261.78  122.83   1 0.50095-0.11546 0.20318-0.87447-0.84128 0.47112
  -3  13   9   74.23  111.29   1-0.49001 0.10451-0.20248 0.87223 0.84787-0.47779
   3 -13  -8  550.36  104.03   1 0.54133-0.16244 0.16696-0.85355-0.82405 0.49502
  -3  13   8  271.60  169.26   1-0.53093 0.15216-0.16637 0.85140 0.83092-0.50196
   3 -13  -7   39.36   64.72   1 0.58222-0.20971 0.12937-0.83092-0.80266 0.51535
  -3  13   7  201.52  158.46   1-0.57034 0.19767-0.12816 0.82881 0.81134-0.52343
   3 -13  -6 2540.80  601.61   1 0.62065-0.25475 0.09035-0.80712-0.77885 0.53258
  -3  13   6 3140.41  336.20   1-0.60953 0.24347-0.08917 0.80504 0.78772-0.54094
   3 -13  -5  128.78   53.22   1 0.65732-0.29803 0.05051-0.78250-0.75191 0.54668
   3 -13  -4 1074.83  212.94   1 0.69167-0.33900 0.01031-0.75749-0.72213 0.55791
   3 -13  -3  116.76  119.99   1 0.72349-0.37743-0.02988-0.73252-0.68968 0.56652
   3 -13  -2  160.93   90.96   1 0.75241-0.41298-0.06963-0.70798-0.65499 0.57288
   3 -13  -1 1515.56  211.29   1 0.77705-0.44493-0.10917-0.68334-0.61989 0.57885
   3 -13   0  770.34  186.93   1 0.79987-0.47432-0.14711-0.66065-0.58184 0.58184
   3 -13   1   46.60  112.13   1 0.81957-0.50059-0.18376-0.63926-0.54270 0.58373
   3 -13   2  552.26  206.60   1 0.83542-0.52329-0.21952-0.61877-0.50385 0.58589
   3 -13   3  373.53  229.84   1 0.84923-0.54380-0.25323-0.60035-0.46332 0.58638
  -3  12  15  865.63  224.04   1-0.18961-0.23206-0.41779 0.93395 0.88853-0.27181
  -3  12  14 1487.60  261.36   1-0.22223-0.19271-0.39807 0.92951 0.89002-0.31441
  -3  12  13 1093.16  203.13   1-0.25776-0.15042-0.37570 0.92242 0.89017-0.35567
  -3  12  12  901.72  232.46   1-0.29600-0.10544-0.35054 0.91254 0.88853-0.39515
  -3  12  11  -56.90  101.96   1-0.33614-0.05886-0.32239 0.89974 0.88491-0.43242
  -3  12  10 1730.06  275.80   1-0.37868-0.00958-0.29157 0.88418 0.87839-0.46704
  -3  12   9  929.08  186.69   1-0.42263 0.04110-0.25799 0.86586 0.86880-0.49858
   3 -12  -8   19.43  133.68   1 0.47764-0.10279 0.22316-0.84752-0.84973 0.52070
  -3  12   8   78.90  115.75   1-0.46699 0.09216-0.22191 0.84485 0.85596-0.52700
  -3  12   8   30.28   77.71   1 0.56545-0.94269 0.51638 0.10629 0.64312-0.31627
   3 -12  -7 1085.28  189.85   1 0.52189-0.15364 0.18466-0.82431-0.83277 0.54487
  -3  12   7 1037.75  246.95   1-0.51177 0.14367-0.18353 0.82174 0.83928-0.55144
  -3  12   7 1021.71  228.15   1 0.56091-0.93119 0.53160 0.10637 0.63464-0.34865
   3 -12  -6 1480.02  285.89   1 0.56537-0.20371 0.14436-0.79931-0.81210 0.56533
  -3  12   6 1730.02  243.75   1-0.55586 0.19448-0.14330 0.79678 0.81882-0.57210
   3 -12  -5  555.40  174.10   1 0.60831-0.25308 0.10317-0.77300-0.78695 0.58173
  -3  12   5  840.90  206.99   1-0.59749 0.24211-0.10141 0.77041 0.79543-0.58978
   3 -12  -4 1779.91  334.95   1 0.64807-0.29945 0.06083-0.74588-0.75914 0.59496
   3 -12  -3 1165.22  181.04   1 0.68511-0.34312 0.01821-0.71846-0.72820 0.60504
   3 -12  -2  492.35  161.67   1 0.71918-0.38380-0.02424-0.69122-0.69439 0.61229
   3 -12  -1  110.81   98.95   1 0.74991-0.42116-0.06606-0.66462-0.65822 0.61716
   3 -12   0  -18.80  103.92   1 0.77600-0.45448-0.10751-0.63811-0.62149 0.62149
   3 -12   1  325.05  195.45   1 0.79983-0.48488-0.14704-0.61384-0.58192 0.62295
   3 -12   2 1405.40  247.15   1 0.82021-0.51182-0.18502-0.59112-0.54131 0.62337
   3 -12   3  309.28  186.27   1 0.83651-0.53506-0.22198-0.56946-0.50096 0.62403
   3 -12   4  272.22  186.65   1 0.85048-0.55573-0.25656-0.55017-0.45918 0.62327
   3 -12   5   40.47  130.75   1 0.86148-0.57342-0.28931-0.53271-0.41731 0.62241
   3 -12   6  368.53  238.99   1 0.86959-0.58763-0.32078-0.51765-0.37537 0.62186
  -3  11  16  694.27  232.30   1-0.08600-0.33845-0.47576 0.91538 0.87535-0.21797
  -3  11  15 1855.66  281.64   1-0.11433-0.30337-0.46074 0.91561 0.88013-0.26383
  -3  11  14  166.63  121.64   1-0.14609-0.26487-0.44326 0.91336 0.88440-0.30919
  -3  11  13   82.69  146.48   1-0.17982-0.22445-0.42356 0.90816 0.88783-0.35334
  -3  11  12  524.02  171.08   1-0.21833-0.17919-0.40047 0.90035 0.88991-0.39653
  -3  11  11   70.10  107.33   1-0.25994-0.13084-0.37430 0.88946 0.89012-0.43786
  -3  11  10 2679.57  289.43   1-0.30379-0.08053-0.34480 0.87531 0.88815-0.47680
  -3  11   9  294.43  162.01   1-0.35032-0.02726-0.31229 0.85806 0.88303-0.51281
  -3  11   8 3218.24  315.81   1-0.39843 0.02759-0.27671 0.83773 0.87445-0.54537
  -3  11   8 1654.99  166.60   1 0.57033-0.94352 0.49910 0.06148 0.65238-0.32553
  -3  11   7  390.66  139.31   1-0.44704 0.08289-0.23828 0.81440 0.86218-0.57435
  -3  11   7  211.07  126.02   1 0.56569-0.93193 0.51556 0.06032 0.64357-0.35757
   3 -11  -6  425.98  116.85   1 0.50573-0.14812 0.19900-0.79172-0.83942 0.59264
  -3  11   6  500.56  153.42   1-0.49595 0.13852-0.19736 0.78875 0.84562-0.59890
  -3  11   6  127.73  104.07   1 0.56035-0.91964 0.53340 0.05778 0.63362-0.38848
   3 -11  -5   23.00  102.72   1 0.55310-0.20209 0.15600-0.76401-0.81837 0.61272
  -3  11   5  -27.42  104.67   1-0.54395 0.19324-0.15443 0.76109 0.82478-0.61918
   3 -11  -4 2726.11  442.03   1 0.59952-0.25497 0.11213-0.73501-0.79245 0.62827
  -3  11   4 2991.03  399.43   1-0.58910 0.24440-0.10980 0.73193 0.80055-0.63603
   3 -11  -3 2708.99  511.30   1 0.64237-0.30443 0.06709-0.70520-0.76344 0.64031
   3 -11  -2  267.11  145.07   1 0.68200-0.35069 0.02191-0.67522-0.73101 0.64890
   3 -11  -1  894.92  187.47   1 0.71813-0.39343-0.02287-0.64565-0.69553 0.65447
   3 -11   0   -9.87  111.96   1 0.75041-0.43233-0.06676-0.61698-0.65758 0.65758
   3 -11   1  495.47  179.02   1 0.77763-0.46670-0.11008-0.58867-0.61900 0.66003
   3 -11   2  331.53  225.67   1 0.80212-0.49776-0.15107-0.56293-0.57773 0.65979
   3 -11   3   95.37  144.01   1 0.82280-0.52502-0.19023-0.53903-0.53553 0.65863
   3 -11   4 7962.87  514.61   1 0.83920-0.54843-0.22822-0.51638-0.49361 0.65769
   3 -11   5 1936.33  292.90   1 0.85298-0.56891-0.26346-0.49642-0.45055 0.65566
   3 -11   6  334.44  237.53   1 0.86363-0.58626-0.29667-0.47850-0.40757 0.65370
   3 -11   7  -83.73  122.44   1 0.87126-0.59988-0.32836-0.46321-0.36479 0.65235
   3 -11   8  245.07  175.71   1 0.87639-0.61159-0.35759-0.44931-0.32256 0.65120
  -3  10  17   47.26  123.43   1 0.01120-0.43812-0.52337 0.88571 0.85202-0.15347
  -3  10  16 4507.00  403.58   1-0.01159-0.40895-0.51261 0.89010 0.85854-0.20115
  -3  10  15 -161.43  108.25   1-0.03806-0.37574-0.49993 0.89266 0.86522-0.24892
  -3  10  14   80.93  115.68   1-0.06827-0.33878-0.48488 0.89285 0.87190-0.29669
  -3  10  13  616.46  208.42   1-0.10232-0.29798-0.46718 0.89039 0.87821-0.34409
  -3  10  12  263.73  202.37   1-0.14023-0.25332-0.44653 0.88499 0.88370-0.39066
  -3  10  11  -57.39  105.71   1-0.18058-0.20628-0.42311 0.87616 0.88789-0.43563
  -3  10  10 2661.46  341.40   1-0.22585-0.15427-0.39583 0.86417 0.89011-0.47896
  -3  10   9  877.96  190.31   1-0.27426-0.09911-0.36498 0.84860 0.88969-0.51966
  -3  10   9  501.99  134.83   1 0.57792-0.95401 0.46999 0.01320 0.66716-0.29945
  -3  10   8   10.90   94.28   1-0.32470-0.04219-0.33041 0.82934 0.88622-0.55714
  -3  10   8  149.79   98.19   1 0.57390-0.94304 0.48579 0.01270 0.65926-0.33241
  -3  10   7  451.04  143.79   1-0.37739 0.01723-0.29253 0.80671 0.87863-0.59068
  -3  10   7  343.57  101.73   1 0.56912-0.93131 0.50349 0.01030 0.65006-0.36407
  -3  10   6  574.64  166.31   1-0.43092 0.07751-0.25145 0.78089 0.86664-0.61983
  -3  10   6  278.36   95.65   1 0.56361-0.91885 0.52262 0.00646 0.63968-0.39454
   3 -10  -5 5993.68 1003.22   1 0.49334-0.14637 0.20977-0.75556-0.84415 0.63851
  -3  10   5 7353.41  373.85   1-0.48398 0.13722-0.20763 0.75219 0.85008-0.64448
  -3  10   5 4867.18  289.69   1 0.55741-0.90569 0.54281 0.00158 0.62820-0.42392
   3 -10  -4 1500.10  282.23   1 0.54481-0.20444 0.16374-0.72482-0.82241 0.65789
  -3  10   4 1655.74  215.29   1-0.53608 0.19604-0.16167 0.72152 0.82853-0.66405
   3 -10  -3 1230.18  206.10   1 0.59477-0.26089 0.11691-0.69286-0.79534 0.67220
  -3  10   3 1018.87  168.11   1-0.58484 0.25081-0.11402 0.68927 0.80308-0.67969
   3 -10  -2 1251.93  213.31   1 0.64065-0.31339 0.06897-0.66014-0.76472 0.68263
   3 -10  -116641.42  680.83   1 0.68269-0.36206 0.02109-0.62746-0.73039 0.68934
   3 -10   0 8381.35  930.08   1 0.72059-0.40657-0.02608-0.59550-0.69286 0.69286
   3 -10   1  975.83  139.59   1 0.75406-0.44666-0.07201-0.56479-0.65284 0.69389
   3 -10   2   56.69  110.88   1 0.78200-0.48168-0.11707-0.53480-0.61217 0.69423
   3 -10   3   41.39  121.92   1 0.80672-0.51297-0.15936-0.50776-0.56902 0.69212
   3 -10   4 1465.10  220.44   1 0.82730-0.54011-0.19949-0.48288-0.52514 0.68927
   3 -10   5  337.41  195.20   1 0.84337-0.56329-0.23826-0.45949-0.48160 0.68670
   3 -10   6 3826.42  404.24   1 0.85659-0.58320-0.27392-0.43912-0.43728 0.68340
   3 -10   7  660.62  204.91   1 0.86654-0.59985-0.30733-0.42099-0.39324 0.68039
   3 -10   8  -22.15  135.74   1 0.87338-0.61258-0.33899-0.40571-0.34969 0.67833
   3 -10   9  550.28  259.96   1 0.87770-0.62346-0.36812-0.39192-0.30679 0.67652
   3 -10  10  113.05  137.27   1 0.87961-0.63195-0.39530-0.38007-0.26459 0.67540
  -3   9  18  142.49  139.47   1 0.09806-0.52782-0.56033 0.84531 0.82243-0.08278
  -3   9  17  735.76  246.82   1 0.08111-0.50413-0.55352 0.85373 0.82887-0.13031
  -3   9  16  199.72  117.39   1 0.06075-0.47703-0.54508 0.86052 0.83617-0.17871
  -3   9  15  115.70  141.96   1 0.03669-0.44623-0.53474 0.86542 0.84421-0.22784
  -3   9  14  220.52  175.85   1 0.00869-0.41149-0.52223 0.86814 0.85275-0.27747
  -3   9  13  588.88  191.18   1-0.02337-0.37302-0.50702 0.86810 0.86161-0.32748
  -3   9  12 1433.57  230.54   1-0.05985-0.32980-0.48914 0.86546 0.87014-0.37710
  -3   9  11 2800.71  274.92   1-0.10071-0.28218-0.46803 0.85959 0.87795-0.42599
  -3   9  10 1220.27  167.14   1-0.14591-0.23023-0.44336 0.85016 0.88438-0.47351
  -3   9   9 1722.19  226.58   1-0.19397-0.17549-0.41520 0.83670 0.88880-0.51877
  -3   9   9  990.57  151.47   1 0.57993-0.95197 0.46175-0.04064 0.67116-0.30345
  -3   9   8 5280.27  448.40   1-0.24691-0.11580-0.38263 0.81941 0.89029-0.56137
  -3   9   8 4377.85  338.57   1 0.57579-0.94088 0.47849-0.04208 0.66295-0.33610
  -3   9   7 7744.08  587.08   1-0.30225-0.05395-0.34584 0.79792 0.88827-0.60033
  -3   9   7 4620.25  349.28   1 0.57083-0.92897 0.49730-0.04559 0.65332-0.36733
  -3   9   6   61.06  106.00   1-0.36002 0.01055-0.30528 0.77263 0.88157-0.63476
  -3   9   6   -8.28   80.39   1 0.56509-0.91628 0.51760-0.05059 0.64245-0.39731
  -3   9   5 5082.79  396.41   1-0.41860 0.07587-0.26115 0.74375 0.86980-0.66413
  -3   9   5 3781.24  293.87   1 0.55863-0.90286 0.53894-0.05663 0.63044-0.42616
   3  -9  -4 3702.04  535.51   1 0.48534-0.14900 0.21663-0.71549-0.84706 0.68254
  -3   9   4 3445.01  312.15   1-0.47646 0.14037-0.21399 0.71174 0.85275-0.68827
   3  -9  -3 2044.43  384.66   1 0.54109-0.21136 0.16719-0.68134-0.82417 0.70078
  -3   9   3 2223.97  256.27   1-0.53286 0.20349-0.16462 0.67764 0.83003-0.70667
   3  -9  -2 1934.06  283.71   1 0.59459-0.27139 0.11710-0.64611-0.79545 0.71336
  -3   9   2 1852.21  222.74   1-0.58525 0.26189-0.11362 0.64199 0.80284-0.72058
   3  -9  -1 2566.23  364.08   1 0.64335-0.32676 0.06602-0.61025-0.76271 0.72167
   3  -9   0 1187.06  199.94   1 0.68751-0.37755 0.01533-0.57477-0.72600 0.72600
   3  -9   1  860.21  187.07   1 0.72677-0.42343-0.03422-0.54042-0.68602 0.72707
   3  -9   2 3954.96  661.27   1 0.76094-0.46422-0.08209-0.50778-0.64359 0.72570
   3  -9   3 1413.96  196.51   1 0.78910-0.49938-0.12870-0.47628-0.60061 0.72371
   3  -9   4  153.76  164.51   1 0.81354-0.53038-0.17206-0.44818-0.55546 0.71959
   3  -9   5  474.58  201.59   1 0.83287-0.55677-0.21381-0.42180-0.51049 0.71559
   3  -9   6   51.48  126.89   1 0.84882-0.57942-0.25213-0.39877-0.46468 0.71080
   3  -9   7 2366.99  324.16   1 0.86105-0.59835-0.28790-0.37829-0.41916 0.70630
   3  -9   8  604.95  220.79   1 0.86978-0.61298-0.32162-0.36088-0.37421 0.70286
   3  -9   9 2052.32  297.83   1 0.87567-0.62544-0.35256-0.34527-0.32998 0.69971
   3  -9  10  596.64  246.73   1 0.87889-0.63524-0.38132-0.33185-0.28657 0.69738
   3  -9  11   60.33  145.74   1 0.87947-0.64271-0.40835-0.32003-0.24448 0.69605
   3  -9  12   62.43  148.22   1 0.87820-0.64801-0.43314-0.31054-0.20281 0.69544
  -3   8  19 2086.74  338.08   1 0.17290-0.60508-0.58826 0.79610 0.78996-0.00930
  -3   8  18  601.56  239.42   1 0.16181-0.58727-0.58440 0.80747 0.79516-0.05558
  -3   8  17   -9.16  125.67   1 0.14782-0.56694-0.57920 0.81727 0.80167-0.10311
  -3   8  16 1710.59  240.30   1 0.13033-0.54272-0.57276 0.82607 0.80929-0.15182
  -3   8  15  399.07  252.28   1 0.10917-0.51481-0.56469 0.83324 0.81804-0.20167
  -3   8  14   22.75   91.57   1 0.08399-0.48290-0.55469 0.83847 0.82780-0.25252
  -3   8  13 7900.57  813.93   1 0.05446-0.44663-0.54241 0.84143 0.83834-0.30414
  -3   8  12 6323.25  396.36   1 0.02028-0.40571-0.52747 0.84172 0.84932-0.35622
  -3   8  11 1026.66  188.98   1-0.01872-0.36026-0.50924 0.83866 0.86042-0.40846
  -3   8  10  120.83  109.23   1-0.06282-0.30942-0.48764 0.83230 0.87077-0.45991
  -3   8   9 1863.27  226.85   1-0.11191-0.25358-0.46205 0.82195 0.87976-0.50998
  -3   8   9 1037.84  113.28   1 0.57939-0.94738 0.46399-0.10498 0.67008-0.30237
  -3   8   8 1014.80  204.99   1-0.16459-0.19420-0.43239 0.80706 0.88653-0.55761
  -3   8   8  687.79  112.59   1 0.57516-0.93621 0.48094-0.10662 0.66172-0.33487
  -3   8   728312.09  533.20   1 0.57001-0.92410 0.50030-0.11068 0.65175-0.36576
  -3   8   6 9539.88  399.36   1-0.28402-0.06128-0.35854 0.76377 0.88925-0.64256
  -3   8   6 6045.42  266.98   1 0.56401-0.91115 0.52128-0.11636 0.64042-0.39528
  -3   8   533021.96  725.71   1-0.34700 0.00821-0.31468 0.73517 0.88349-0.67782
  -3   8   523222.96  493.85   1 0.55724-0.89743 0.54333-0.12311 0.62790-0.42362
  -3   8   4  -25.87  116.09   1-0.41114 0.07910-0.26695 0.70271 0.87160-0.70706
   3  -8  -3  318.32  109.68   1 0.48246-0.15676 0.21908-0.67100-0.84807 0.72468
  -3   8   3  233.81  158.82   1-0.47416 0.14874-0.21592 0.66685 0.85354-0.73018
   3  -8  -2 6294.27  377.57   1 0.54263-0.22353 0.16576-0.63298-0.82344 0.74118
  -3   8   2 6233.78  341.85   1-0.53498 0.21629-0.16267 0.62888 0.82904-0.74680
   3  -8  -1  140.96   58.66   1 0.59957-0.28704 0.11208-0.59415-0.79243 0.75138
  -3   8   1   -8.48  111.41   1-0.59092 0.27824-0.10799 0.58950 0.79946-0.75833
   3  -8   0 1672.61  361.99   1 0.65091-0.34500 0.05767-0.55497-0.75695 0.75695
   3  -8   1 2700.16  462.59   1 0.69673-0.39745 0.00413-0.51662-0.71731 0.75837
   3  -8   2  146.90   84.93   1 0.73678-0.44412-0.04772-0.47998-0.67443 0.75654
   3  -8   3 5841.18 1067.76   1 0.77004-0.48434-0.09825-0.44460-0.63038 0.75348
   3  -8   418274.10 1180.99   1 0.79878-0.51965-0.14519-0.41292-0.58383 0.74796
   3  -8   5  283.92  175.11   1 0.82233-0.54977-0.18927-0.38409-0.53660 0.74176
   3  -8   614376.91  544.76   1 0.84057-0.57515-0.23146-0.35731-0.48975 0.73588
   3  -8   7  827.67  202.97   1 0.85519-0.59647-0.26978-0.33427-0.44256 0.72970
   3  -8   8 1087.65  241.18   1 0.86601-0.61399-0.30531-0.31403-0.39598 0.72415
   3  -8   9 1817.24  260.14   1 0.87329-0.62707-0.33853-0.29710-0.35034 0.72007
   3  -8  10  -30.43  124.73   1 0.87778-0.63813-0.36892-0.28205-0.30558 0.71639
   3  -8  11 1269.54  242.20   1 0.87966-0.64658-0.39702-0.26928-0.26184 0.71373
   3  -8  12  247.97  159.24   1 0.87896-0.65274-0.42330-0.25815-0.21961 0.71224
   3  -8  13  -31.70  146.45   1 0.87648-0.65682-0.44734-0.24941-0.17792 0.71159
  -3   7  19  135.29  193.93   1 0.23006-0.65837-0.60675 0.75242 0.76087 0.01979
  -3   7  18  648.51  205.89   1 0.22177-0.64336-0.60421 0.76512 0.76533-0.02575
  -3   7  17 1227.23  226.07   1 0.21059-0.62544-0.60072 0.77686 0.77122-0.07273
  -3   7  16 2479.31  329.92   1 0.19619-0.60432-0.59608 0.78746 0.77858-0.12117
  -3   7  15  263.87  155.78   1 0.17824-0.57963-0.59008 0.79670 0.78741-0.17110
  -3   7  14  264.92  125.84   1 0.15632-0.55099-0.58245 0.80431 0.79768-0.22245
  -3   7  13   20.28  116.00   1 0.13021-0.51849-0.57272 0.80960 0.80934-0.27515
  -3   7  12 3140.57  295.19   1 0.09913-0.48066-0.56076 0.81287 0.82202-0.32892
  -3   7  11 3578.47  329.19   1 0.06281-0.43761-0.54595 0.81330 0.83545-0.38345
  -3   7  10   13.60  118.85   1 0.02091-0.38897-0.52776 0.81034 0.84913-0.43822
  -3   7   9  714.14  217.45   1-0.02671-0.33487-0.50542 0.80320 0.86245-0.49267
  -3   7   720519.11 1046.63   1-0.13921-0.20887-0.44711 0.77536 0.88357-0.59597
  -3   7   713086.56  641.90   1 0.56473-0.91477 0.51885-0.19132 0.64176-0.35577
  -3   7   6 4966.44  358.92   1-0.20208-0.13931-0.41034 0.75345 0.88925-0.64256
  -3   7   6 3722.03  241.57   1 0.55861-0.90170 0.53900-0.19617 0.63041-0.38527
  -3   7   514310.01  871.53   1-0.26977-0.06488-0.36792 0.72632 0.88986-0.68428
  -3   7   4   62.57   98.17   1-0.33919 0.01109-0.32023 0.69389 0.88452-0.71999
  -3   7   311733.52  734.30   1-0.40948 0.08812-0.26823 0.65715 0.87199-0.74858
   3  -7  -214663.06 1057.71   1 0.48561-0.17055 0.21640-0.62139-0.84696 0.76470
  -3   7   216817.65 1007.15   1-0.47797 0.16322-0.21271 0.61682 0.85222-0.76998
   3  -7  -1  264.16   60.93   1 0.55022-0.24176 0.15870-0.57898-0.81979 0.77866
  -3   7   1  220.87   73.91   1-0.54325 0.23522-0.15508 0.57446 0.82511-0.78399
   3  -7   0 4477.56  672.11   1 0.61031-0.30846 0.10111-0.53624-0.78567 0.78567
  -3   7   0 4528.14  367.93   1-0.60246 0.30045-0.09639 0.53102 0.79230-0.79230
   3  -7   1 4543.93  747.78   1 0.66373-0.36849 0.04324-0.49359-0.74671 0.78776
   3  -7   2   -5.01   85.79   1 0.71052-0.42192-0.01310-0.45245-0.70355 0.78566
   3  -7   3  127.73   53.12   1 0.75059-0.46860-0.06702-0.41375-0.65735 0.78052
   3  -7   4 2187.33  219.05   1 0.78319-0.50809-0.11899-0.37698-0.61028 0.77441
   3  -7   514840.87  880.75   1 0.81070-0.54217-0.16670-0.34452-0.56122 0.76638
   3  -7   6  808.82  175.25   1 0.83210-0.57067-0.21213-0.31450-0.51243 0.75856
   3  -7   7 1423.55  291.16   1 0.84923-0.59450-0.25322-0.28870-0.46333 0.75047
   3  -7   8  325.22  226.70   1 0.86201-0.61398-0.29110-0.26610-0.41494 0.74311
   3  -7   9  519.59  220.97   1 0.87082-0.62860-0.32630-0.24713-0.36768 0.73741
   3  -7  10 1732.46  268.90   1 0.87650-0.64085-0.35834-0.23042-0.32145 0.73226
   3  -7  11  451.79  271.84   1 0.87930-0.65023-0.38783-0.21627-0.27641 0.72830
   3  -7  12  -93.58  110.25   1 0.87933-0.65707-0.41526-0.20395-0.23308 0.72570
   3  -7  13   23.97  120.84   1 0.87743-0.66175-0.44026-0.19426-0.19044 0.72411
   3  -7  14  128.78  151.09   1 0.87358-0.66446-0.46331-0.18651-0.14894 0.72366
  -3   6  19  156.88  159.59   1 0.28281-0.70726-0.62165 0.70516 0.73045 0.05021
  -3   6  18   37.37  125.75   1 0.27732-0.69503-0.62020 0.71894 0.73378 0.00579
  -3   6  17 1136.01  240.46   1 0.26915-0.68013-0.61800 0.73198 0.73867-0.04017
  -3   6  16  159.87  152.09   1 0.25798-0.66224-0.61490 0.74412 0.74520-0.08780
  -3   6  15  775.02  188.54   1 0.24346-0.64099-0.61073 0.75519 0.75347-0.13715
  -3   6  14 1809.75  300.14   1 0.22515-0.61595-0.60525 0.76494 0.76352-0.18829
  -3   6  13 1905.00  256.49   1 0.20258-0.58665-0.59815 0.77308 0.77534-0.24120
  -3   6  12  716.31  165.77   1 0.17521-0.55255-0.58905 0.77921 0.78886-0.29581
  -3   6  11  678.28  129.57   1 0.14267-0.51357-0.57732 0.78254 0.80395-0.35194
  -3   6  10 3722.61  299.75   1 0.10407-0.46824-0.56270 0.78315 0.82007-0.40916
  -3   6   9 3796.24  332.08   1 0.05907-0.41650-0.54437 0.78006 0.83675-0.46693
  -3   6   8 1273.99  187.02   1 0.00733-0.35802-0.52160 0.77253 0.85315-0.52442
  -3   6   7  770.51  133.24   1-0.05116-0.29302-0.49348 0.75960 0.86824-0.58064
  -3   6   618190.35 1079.79   1-0.11619-0.22123-0.45974 0.74110 0.88041-0.63389
  -3   6   5 1390.66  171.92   1-0.18600-0.14472-0.41992 0.71620 0.88829-0.68271
  -3   6   419121.61  770.61   1-0.26100-0.06299-0.37361 0.68517 0.89010-0.72564
  -3   6   3 2923.82  232.51   1-0.33775 0.02034-0.32125 0.64807 0.88471-0.76130
  -3   6   2  100.84   90.75   1-0.41479 0.10412-0.26412 0.60619 0.87073-0.78846
   3  -6  -1   54.07   67.23   1 0.49584-0.19142 0.20762-0.56567-0.84322 0.80210
  -3   6   1   36.50   90.76   1-0.48897 0.18489-0.20336 0.56065 0.84825-0.80713
   3  -6   028322.42 1122.94   1 0.56470-0.26688 0.14500-0.51835-0.81245 0.81245
  -3   6   031570.03 1183.17   1-0.55850 0.26115-0.14081 0.51337 0.81746-0.81746
   3  -6   1  195.90  116.75   1 0.62738-0.33621 0.08325-0.47144-0.77424 0.81529
  -3   6  -1    7.88   91.19   1-0.62042 0.32908-0.07786 0.46562 0.78038-0.82151
   3  -6   219923.94 1570.04   1 0.68203-0.39749 0.02188-0.42528-0.73099 0.81309
   3  -6   3  494.78  101.44   1 0.72882-0.45090-0.03696-0.38165-0.68369 0.80686
   3  -6   4  153.18   72.63   1 0.76698-0.49591-0.09358-0.34025-0.63480 0.79893
   3  -6   5  -32.17   98.30   1 0.79890-0.53440-0.14540-0.30369-0.58362 0.78878
   3  -6   638506.22  829.87   1 0.82431-0.56639-0.19331-0.27103-0.53209 0.77829
   3  -6   7  445.67  184.95   1 0.84349-0.59274-0.23854-0.24125-0.48126 0.76840
   3  -6   8 2825.69  323.25   1 0.85824-0.61419-0.27894-0.21613-0.43081 0.75898
   3  -6   9 3752.78  329.39   1 0.86850-0.63029-0.31619-0.19504-0.38172 0.75145
   3  -6  10  321.46  145.41   1 0.87526-0.64362-0.34992-0.17665-0.33386 0.74467
   3  -6  11  952.89  242.67   1 0.87885-0.65379-0.38077-0.16113-0.28743 0.73931
   3  -6  12   97.39  128.77   1 0.87946-0.66117-0.40930-0.14768-0.24292 0.73554
   3  -6  13  938.91  199.98   1 0.87800-0.66628-0.43517-0.13711-0.19930 0.73297
   3  -6  14 1505.87  269.16   1 0.87449-0.66933-0.45892-0.12866-0.15700 0.73173
   3  -6  15  795.39  236.24   1 0.86915-0.67056-0.48076-0.12213-0.11595 0.73172
   3  -6  16 1182.24  315.07   1 0.86172-0.67163-0.50196-0.11580-0.07392 0.73178
  -3   5  19  219.30  155.52   1 0.33134-0.74998-0.63589 0.65606 0.69703 0.08422
  -3   5  18   24.86  127.26   1 0.32856-0.74056-0.63527 0.67072 0.69891 0.04122
  -3   5  17  183.78  146.59   1 0.32334-0.72870-0.63409 0.68481 0.70240-0.00338
  -3   5  16  486.80  159.22   1 0.31540-0.71412-0.63225 0.69825 0.70765-0.04975
  -3   5  15  377.71  146.46   1 0.30437-0.69644-0.62960 0.71088 0.71480-0.09802
  -3   5  14  762.22  264.56   1 0.28942-0.67635-0.62337 0.72089 0.72638-0.15115
  -3   5  13 2050.87  296.12   1 0.27086-0.65106-0.61846 0.73122 0.73765-0.20350
  -3   5  12 7815.87  527.09   1 0.24770-0.62117-0.61197 0.73996 0.75108-0.25803
  -3   5  1113801.23  517.23   1 0.21929-0.58603-0.60345 0.74668 0.76665-0.31468
  -3   5  10  112.18  124.59   1 0.18490-0.54491-0.59233 0.75080 0.78418-0.37330
  -3   5   921119.62 1062.99   1 0.14395-0.49749-0.57779 0.75134 0.80338-0.43356
  -3   5   8  227.17  114.47   1 0.09548-0.44227-0.55931 0.74810 0.82343-0.49470
  -3   5   7 4214.76  335.11   1 0.03909-0.37914-0.53579 0.73981 0.84344-0.55580
  -3   5   671260.17  830.59   1-0.02534-0.30817-0.50608 0.72530 0.86211-0.61559
  -3   5   5   31.63   93.54   1-0.09751-0.22926-0.46973 0.70419 0.87740-0.67197
  -3   5   4 2584.28  199.61   1-0.17553-0.14454-0.42606 0.67551 0.88749-0.72303
  -3   5   3 7513.70  296.44   1-0.25907-0.05425-0.37486 0.63958 0.89014-0.76680
  -3   5   2   51.53   85.03   1-0.34417 0.03744-0.31669 0.59667 0.88388-0.80161
  -3   5   1  163.09   64.33   1-0.42851 0.12853-0.25336 0.54859 0.86728-0.82614
   3  -5   022773.12 1313.53   1 0.51434-0.22056 0.19140-0.50253-0.83594 0.83594
  -3   5   022254.73  516.10   1-0.50836 0.21495-0.18654 0.49701 0.84069-0.84069
   3  -5   1  151.36   50.97   1 0.58723-0.30012 0.12443-0.45046-0.79979 0.84083
  -3   5  -1   24.57   84.32   1-0.58055 0.29327-0.11824 0.44391 0.80558-0.84671
   3  -5   222248.37  883.20   1 0.65116-0.37066 0.05741-0.39866-0.75676 0.83885
   3  -5   3  338.81   82.12   1 0.70583-0.43197-0.00717-0.34928-0.70834 0.83150
   3  -5   4 5404.31  910.92   1 0.75129-0.48405-0.06803-0.30364-0.65644 0.82066
   3  -5   5  205.11  104.54   1 0.78727-0.52680-0.12566-0.26129-0.60366 0.80882
   3  -5   6  266.18  160.28   1 0.81641-0.56251-0.17757-0.22464-0.54948 0.79568
   3  -5   723155.13 1175.30   1 0.83832-0.59155-0.22616-0.19149-0.49604 0.78319
   3  -5   851643.07  993.43   1 0.85501-0.61494-0.26925-0.16368-0.44322 0.77139
   3  -5   9 4755.91  376.54   1 0.86661-0.63241-0.30862-0.14040-0.39207 0.76180
   3  -5  10  428.79  153.56   1 0.87428-0.64665-0.34404-0.12033-0.34242 0.75323
   3  -5  1122426.71  667.59   1 0.87849-0.65742-0.37620-0.10350-0.29448 0.74637
   3  -5  12  140.82  208.14   1 0.87976-0.66526-0.40546-0.08958-0.24823 0.74120
   3  -5  13   60.86  127.41   1 0.87827-0.67052-0.43238-0.07767-0.20413 0.73780
   3  -5  14   -6.12  119.97   1 0.87491-0.67373-0.45671-0.06865-0.16105 0.73578
   3  -5  15   44.06  134.33   1 0.86967-0.67505-0.47896-0.06169-0.11940 0.73518
   3  -5  16  930.93  244.34   1 0.86229-0.67615-0.50054-0.05507-0.07684 0.73469
   3  -5  17   68.63  141.33   1 0.85380-0.67436-0.51923-0.05168-0.03761 0.73658
  -3   4  19  265.15  154.70   1 0.37474-0.78957-0.64469 0.60279 0.66628 0.11496
  -3   4  18  778.26  265.05   1 0.37451-0.78269-0.64465 0.61802 0.66645 0.07367
  -3   4  17  660.34  239.79   1 0.37211-0.77365-0.64420 0.63285 0.66822 0.03078
  -3   4  16  745.84  209.70   1 0.36727-0.76217-0.64329 0.64722 0.67177-0.01387
  -3   4  15 4094.56  508.96   1 0.35966-0.74792-0.64182 0.66102 0.67727-0.06049
  -3   4  14  181.66  158.19   1 0.34888-0.73049-0.63964 0.67411 0.68493-0.10927
  -3   4  13 2394.62  304.44   1 0.33442-0.70939-0.63657 0.68631 0.69493-0.16039
  -3   4  1210775.56  698.72   1 0.31571-0.68403-0.63232 0.69734 0.70745-0.21403
  -3   4  11  232.77  189.11   1 0.29166-0.65453-0.62394 0.70500 0.72500-0.27303
  -3   4  1038928.85 1852.41   1 0.26220-0.61835-0.61608 0.71239 0.74275-0.33187
  -3   4   9 1023.53  155.00   1 0.22605-0.57546-0.60553 0.71707 0.76303-0.39324
  -3   4   826542.86 1530.59   1 0.18221-0.52489-0.59143 0.71820 0.78549-0.45679
  -3   4   7 5579.96  291.37   1 0.12987-0.46603-0.57259 0.71448 0.80948-0.52184
  -3   4   6  562.13  107.61   1 0.06801-0.39744-0.54812 0.70525 0.83362-0.58707
  -3   4   5 5258.87  249.72   1-0.00352-0.31933-0.51638 0.68871 0.85635-0.65091
  -3   4   4 5813.96  265.96   1-0.08431-0.23179-0.47663 0.66421 0.87504-0.71069
  -3   4   3 3810.57  200.18   1-0.17221-0.13720-0.42799 0.63061 0.88722-0.76387
  -3   4   2  335.95   79.69   1-0.26585-0.03681-0.37047 0.58837 0.88998-0.80775
  -3   4   134654.81  523.13   1-0.36039 0.06434-0.30502 0.53815 0.88151-0.84038
  -3   4   013675.37  376.90   1-0.45217 0.16272-0.23411 0.48249 0.86065-0.86065
   3  -4   1 1838.01  237.11   1 0.54236-0.25921 0.16602-0.43021-0.82357 0.86470
  -3   4  -1 1890.93  192.42   1-0.53736 0.25463-0.16050 0.42415 0.82793-0.86905
   3  -4   2 8278.76  360.25   1 0.61762-0.34118 0.09353-0.37262-0.78089 0.86298
  -3   4  -2 8923.19  315.90   1-0.61206 0.33545-0.08656 0.36536 0.78605-0.86831
   3  -4   3 2411.16  415.51   1 0.68168-0.41189 0.02229-0.31659-0.73130 0.85446
   3  -4   4 2907.52  396.82   1 0.73461-0.47143-0.04476-0.26475-0.67700 0.84122
   3  -4   547174.28 1704.81   1 0.77625-0.51981-0.10790-0.21691-0.62111 0.82627
   3  -4   6 2673.11  223.99   1 0.80943-0.55956-0.16434-0.17573-0.56374 0.80993
   3  -4   7 2355.39  262.40   1 0.83414-0.59136-0.21664-0.13887-0.50720 0.79435
   3  -4   824207.65 1211.95   1 0.85267-0.61659-0.26260-0.10821-0.45164 0.77980
   3  -4   9 2163.49  220.56   1 0.86563-0.63624-0.30389-0.08220-0.39790 0.76709
   3  -4  10 5472.71  433.23   1 0.87378-0.65015-0.34118-0.06098-0.34654 0.75735
   3  -4  11 2834.84  341.58   1 0.87834-0.66128-0.37455-0.04295-0.29701 0.74890
   3  -4  12 5009.75  367.44   1 0.87976-0.66927-0.40467-0.02816-0.24951 0.74248
   3  -4  13 3237.01  429.40   1 0.87829-0.67451-0.43221-0.01561-0.20442 0.73809
   3  -4  14  414.33  168.50   1 0.87487-0.67765-0.45694-0.00618-0.16062 0.73535
   3  -4  15  100.84  144.37   1 0.86953-0.67888-0.47945 0.00102-0.11846 0.73424
   3  -4  16  549.89  154.97   1 0.86202-0.67983-0.50121 0.00774-0.07547 0.73332
   3  -4  17   55.55  138.76   1 0.85342-0.67794-0.51996 0.01118-0.03605 0.73502
   3  -4  18 1114.92  284.83   1 0.84350-0.67473-0.53711 0.01303 0.00213 0.73794
  -3   3  19   91.96  148.23   1 0.41342-0.82444-0.65109 0.54711 0.63651 0.14474
  -3   3  18  227.76  200.35   1 0.41554-0.81992-0.65140 0.56270 0.63481 0.10532
  -3   3  17  114.29  141.11   1 0.41575-0.81348-0.65143 0.57800 0.63464 0.06437
  -3   3  16  403.21  186.48   1 0.41382-0.80491-0.65115 0.59299 0.63619 0.02170
  -3   3  15  -50.96  113.04   1 0.40945-0.79389-0.65050 0.60762 0.63968-0.02290
  -3   3  14 1160.79  230.16   1 0.40228-0.78007-0.64939 0.62179 0.64533-0.06967
  -3   3  13 8854.26  674.52   1 0.39185-0.76300-0.64770 0.63536 0.65340-0.11886
  -3   3  12  617.06  202.09   1 0.37760-0.74211-0.64521 0.64815 0.66415-0.17073
  -3   3  11  261.16  125.40   1 0.35885-0.71671-0.64166 0.65987 0.67786-0.22555
  -3   3  10  449.20  119.69   1 0.33473-0.68595-0.63663 0.67012 0.69472-0.28354
  -3   3   9  687.69  153.81   1 0.30422-0.64880-0.62957 0.67833 0.71490-0.34483
  -3   3   8  352.66  104.07   1 0.26583-0.60465-0.61709 0.68170 0.74062-0.41192
  -3   3   6   19.19   88.65   1 0.16177-0.48712-0.58438 0.67947 0.79518-0.54865
  -3   3   5 3694.24  202.34   1 0.09343-0.41223-0.55849 0.66872 0.82422-0.61876
  -3   3   4  466.64   86.26   1 0.01316-0.32521-0.52426 0.64972 0.85145-0.68708
  -3   3   324218.85  437.26   1-0.07830-0.22715-0.47975 0.62043 0.87390-0.75064
  -3   3   2 6650.65  250.18   1-0.17829-0.12046-0.42445 0.58023 0.88772-0.80549
  -3   3   1163516.2 1065.23   1-0.28388-0.00812-0.35864 0.52970 0.88926-0.84814
  -3   3   017437.56  392.38   1-0.38886 0.10350-0.28395 0.47025 0.87644-0.87644
   3  -3   126809.52  555.85   1 0.49245-0.21335 0.21054-0.41250-0.84448 0.88561
  -3   3  -130852.81  491.95   1-0.48805 0.20926-0.20415 0.40571 0.84860-0.88972
   3  -3   2 4650.05  504.83   1 0.58103-0.30866 0.13055-0.34747-0.80333 0.88542
  -3   3  -2 5299.96  371.37   1-0.57616 0.30362-0.12252 0.33923 0.80809-0.89035
   3  -3   3  436.47  102.45   1 0.65646-0.39070 0.05147-0.28362-0.75259 0.87572
   3  -3   4 7129.63  506.61   1 0.71829-0.45917-0.02309-0.22426-0.69535 0.85956
   3  -3   5 9495.44  571.95   1 0.76641-0.51400-0.09272-0.16996-0.63561 0.84077
   3  -3   648626.77  856.79   1 0.80395-0.55811-0.15435-0.12359-0.57431 0.82050
   3  -3   712381.90  571.17   1 0.83147-0.59267-0.21074-0.08264-0.51404 0.80118
   3  -3   8 1020.76  158.42   1 0.85163-0.61953-0.25970-0.04897-0.45527 0.78343
   3  -3   9 2309.74  217.53   1 0.86543-0.64003-0.30317-0.02079-0.39887 0.76806
   3  -3  10   66.74  109.06   1 0.87392-0.65429-0.34196 0.00199-0.34542 0.75623
   3  -3  11 3306.62  354.18   1 0.87850-0.66545-0.37635 0.02104-0.29425 0.74614
   3  -3  12  361.44  153.27   1 0.87975-0.67327-0.40712 0.03648-0.24552 0.73849
   3  -3  13  288.78  187.71   1 0.87802-0.67820-0.43504 0.04944-0.19953 0.73320
   3  -3  14  166.49  138.29   1 0.87428-0.68104-0.45995 0.05905-0.15513 0.72986
   3  -3  15  668.97  238.66   1 0.86863-0.68195-0.48248 0.06628-0.11260 0.72838
   3  -3  16 1054.28  267.39   1 0.86079-0.68255-0.50420 0.07287-0.06933 0.72718
   3  -3  17   47.71  130.10   1 0.85193-0.68040-0.52279 0.07616-0.02990 0.72886
   3  -3  18  206.81  210.05   1 0.84178-0.67696-0.53974 0.07781 0.00819 0.73188
  -3   2  19   13.77  138.49   1 0.44652-0.85468-0.65617 0.48953 0.60831 0.17281
  -3   2  18   18.49  125.42   1 0.45076-0.85225-0.65664 0.50530 0.60466 0.13534
  -3   2  17  635.79  186.58   1 0.45333-0.84815-0.65692 0.52088 0.60244 0.09645
  -3   2  16 1197.26  281.60   1 0.45404-0.84219-0.65699 0.53626 0.60183 0.05595
  -3   2  1516929.33 1640.22   1 0.45263-0.83411-0.65684 0.55141 0.60305 0.01362
  -3   2  14 3009.46  326.46   1 0.44880-0.82361-0.65643 0.56630 0.60635-0.03078
  -3   2  13 -118.52  132.15   1 0.44216-0.81030-0.65567 0.58085 0.61202-0.07757
  -3   2  12 2702.97  308.99   1 0.43318-0.79387-0.65380 0.59467 0.62039-0.12696
  -3   2  11  199.43  100.22   1 0.41926-0.77331-0.65193 0.60807 0.63181-0.17951
  -3   2  10  299.91  160.38   1 0.40057-0.74798-0.64912 0.62053 0.64666-0.23547
  -3   2   9 7494.30  504.92   1 0.37609-0.71686-0.64494 0.63162 0.66528-0.29521
  -3   2   8 1881.12  184.44   1 0.34456-0.67868-0.63874 0.64070 0.68795-0.35900
  -3   2   7 2512.84  187.40   1 0.30442-0.63189-0.62961 0.64685 0.71477-0.42694
  -3   2   623024.31  508.22   1 0.25360-0.57509-0.61366 0.64658 0.74772-0.50120
  -3   2   5 8917.64  310.33   1 0.19088-0.50563-0.59433 0.64248 0.78123-0.57579
  -3   2   428500.78  502.29   1 0.11433-0.42249-0.56669 0.63002 0.81595-0.65159
  -3   2   3 2579.80  237.08   1 0.02305-0.32447-0.52871 0.60727 0.84848-0.72521
  -3   2   2 9741.20  273.52   1-0.08200-0.21280-0.47784 0.57162 0.87461-0.79243
  -3   2   114867.29  331.28   1-0.19703-0.09106-0.41337 0.52232 0.88898-0.84787
  -3   2   0328067.1 1385.62   1-0.31645 0.03503-0.33613 0.46033 0.88705-0.88705
  -3   2  -194345.84  764.31   1-0.43254 0.15787-0.25016 0.38962 0.86620-0.90734
   3  -2   220158.34  434.89   1 0.54084-0.27238 0.16742-0.32245-0.82428 0.90654
  -3   2  -221634.66  392.19   1-0.53769 0.26957-0.16020 0.31494 0.82778-0.91002
   3  -2   317877.77  388.48   1 0.63036-0.36866 0.08008-0.25006-0.77215 0.89529
  -3   2  -319979.60  396.31   1-0.62681 0.36494-0.07113 0.24097 0.77591-0.89930
   3  -2   4  575.04   96.79   1 0.70295-0.44789-0.00357-0.18162-0.71122 0.87544
   3  -2   5  462.58  129.38   1 0.75927-0.51083-0.07962-0.12079-0.64587 0.85114
   3  -2   6 1854.55  141.63   1 0.80072-0.55892-0.14861-0.06719-0.58029 0.82649
   3  -2   7 3340.83  223.24   1 0.83089-0.59608-0.20949-0.02176-0.51548 0.80262
   3  -2   8  130.05   90.07   1 0.85229-0.62418-0.26154 0.01500-0.45296 0.78113
   3  -2   918147.56 1087.00   1 0.86647-0.64506-0.30707 0.04524-0.39360 0.76279
   3  -2  10  632.08  150.48   1 0.87480-0.65918-0.34711 0.06934-0.33796 0.74877
   3  -2  11 7596.60  386.97   1 0.87896-0.66991-0.38222 0.08912-0.28518 0.73706
   3  -2  12 5085.94  429.79   1 0.87937-0.67696-0.41364 0.10557-0.23577 0.72840
   3  -2  13 6445.86  516.93   1 0.87731-0.68146-0.44130 0.11793-0.18861 0.72228
   3  -2  14 2728.56  298.48   1 0.87298-0.68370-0.46606 0.12739-0.14382 0.71855
   3  -2  15 4922.38  567.80   1 0.86677-0.68406-0.48833 0.13436-0.10116 0.71694
   3  -2  16 1072.23  260.49   1 0.85839-0.68410-0.50971 0.14054-0.05786 0.71571
   3  -2  17  536.70  262.32   1 0.84909-0.68151-0.52790 0.14342-0.01864 0.71760
   3  -2  18   97.97  150.81   1 0.83858-0.67771-0.54442 0.14464 0.01912 0.72095
   3  -2  19  -27.82  130.85   1 0.82698-0.67282-0.55946 0.14438 0.05562 0.72557
  -3   1  19 1020.25  272.36   1 0.47617-0.88046-0.65904 0.43033 0.58217 0.19895
  -3   1  18  161.56  195.78   1 0.48230-0.87992-0.65951 0.44611 0.57656 0.16344
  -3   1  17  243.64  170.86   1 0.48696-0.87792-0.65983 0.46174 0.57225 0.12665
  -3   1  16  211.49  200.78   1 0.49002-0.87431-0.66004 0.47724 0.56940 0.08838
  -3   1  15   88.04  208.25   1 0.49127-0.86888-0.66011 0.49262 0.56823 0.04844
  -3   1  14 5739.01  394.62   1 0.49045-0.86140-0.66006 0.50788 0.56900 0.00656
  -3   1  13 1616.77  266.17   1 0.48724-0.85152-0.65985 0.52297 0.57199-0.03754
  -3   1  12 4054.32  370.15   1 0.48121-0.83882-0.65943 0.53785 0.57756-0.08422
  -3   1  11 3641.46  300.97   1 0.47181-0.82275-0.65868 0.55240 0.58611-0.13388
  -3   1  10 8987.63  547.12   1 0.45832-0.80259-0.65743 0.56646 0.59809-0.18697
  -3   1   9 4992.88  398.28   1 0.43981-0.77741-0.65540 0.57973 0.61401-0.24400
  -3   1   8  637.37  122.55   1 0.41599-0.74630-0.65147 0.59135 0.63445-0.30550
  -3   1   710148.02  334.70   1 0.38339-0.70705-0.64624 0.60140 0.65982-0.37199
  -3   1   649148.38  838.16   1 0.34094-0.65796-0.63798 0.60841 0.69046-0.44374
  -3   1   580385.75  804.80   1 0.28587-0.59676-0.62245 0.60844 0.72857-0.52313
   3  -1  -410730.57   81.12   1 0.61615-0.31131 0.09900-0.10033 0.78138-0.94499
  -3   1   313097.56  341.35   1 0.12916-0.42668-0.57232 0.58875 0.80979-0.68651
   3  -1  -311786.25  127.96   1 0.40041-0.10299-0.66119 0.64460 0.63441-0.75754
  -3   1   2 3253.33  228.38   1 0.02344-0.31423-0.52889 0.56055 0.84836-0.76618
   3  -1  -2 3174.76  200.00   1 0.16384 0.12695-0.91459 0.88300 0.36968-0.45187
  -3   1   119642.19  355.71   1-0.09935-0.18479-0.46875 0.51564 0.87772-0.83663
  -3   1   0 6561.98  248.02   1-0.23326-0.04417-0.39123 0.45334 0.89023-0.89023
  -3   1  -113221.83  276.72   1-0.36869 0.09795-0.29895 0.37631 0.88016-0.92129
   3  -1   2 5832.26  225.87   1 0.49629-0.23186 0.20723-0.30004-0.84306 0.92531
  -3   1  -2 6319.34  243.40   1-0.49430 0.23013-0.19879 0.29143 0.84625-0.92849
   3  -1   336705.16  567.53   1 0.60357-0.34594 0.10802-0.21585-0.78995 0.91308
  -3   1  -338654.06  478.90   1-0.60128 0.34347-0.09758 0.20533 0.79304-0.91643
   3  -1   4 4665.97  685.23   1 0.68951-0.43851 0.01293-0.13597-0.72416 0.88837
   3  -1   531960.58  623.76   1 0.75443-0.51004-0.07254-0.06571-0.65235 0.85763
   3  -1   629881.17  473.39   1 0.80074-0.56296-0.14863-0.00503-0.58026 0.82646
   3  -1   7 5507.51  259.98   1 0.83312-0.60230-0.21438 0.04525-0.50983 0.79698
   3  -1   8 3822.79  225.21   1 0.85507-0.63095-0.26945 0.08504-0.44298 0.77114
   3  -1   9 4280.39  258.04   1 0.86867-0.65048-0.31688 0.11665-0.38077 0.75050
   3  -1  10  -24.11   92.15   1 0.87639-0.66477-0.35756 0.14200-0.32261 0.73341
   3  -1  11 4758.54  365.21   1 0.87953-0.67449-0.39291 0.16201-0.26839 0.72028
   3  -1  1210319.18  430.70   1 0.87891-0.68046-0.42419 0.17836-0.21811 0.71074
   3  -1  13 1772.54  266.10   1 0.87584-0.68396-0.45144 0.19031-0.17058 0.70425
   3  -1  1414222.25  977.42   1 0.87059-0.68528-0.47564 0.19921-0.12576 0.70049
   3  -1  15  103.01  139.10   1 0.86306-0.68601-0.49858 0.20686-0.08082 0.69756
   3  -1  16  861.63  205.40   1 0.85444-0.68410-0.51796 0.21094-0.04036 0.69821
   3  -1  17 1119.19  224.64   1 0.84456-0.68093-0.53544 0.21311-0.00167 0.70064
   3  -1  18  333.11  248.99   1 0.83357-0.67665-0.55126 0.21363 0.03545 0.70462
   3  -1  19  205.61  198.59   1 0.82157-0.67037-0.56575 0.21284 0.07025 0.71084
   3  -1  20  223.76  236.02   1 0.80869-0.66416-0.57880 0.21058 0.10489 0.71731
  -3   0  18   50.38  138.91   1 0.50933-0.90309-0.66105 0.38559 0.55098 0.18902
  -3   0  17  377.13  200.79   1 0.51584-0.90293-0.66128 0.40113 0.54461 0.15428
  -3   0  16 2266.08  288.69   1 0.52095-0.90137-0.66143 0.41658 0.53954 0.11824
  -3   0  15 1573.08  298.29   1 0.52451-0.89826-0.66152 0.43197 0.53597 0.08070
  -3   0  14 1908.93  293.50   1 0.52633-0.89341-0.66155 0.44731 0.53414 0.04142
  -3   0  13  -27.49  130.55   1 0.52614-0.88656-0.66155 0.46261 0.53433 0.00012
  -3   0  12  -22.76  135.60   1 0.52361-0.87735-0.66150 0.47786 0.53688-0.04354
  -3   0  1113637.89  488.42   1 0.51827-0.86534-0.66136 0.49302 0.54220-0.08997
  -3   0  10  -60.83  109.70   1 0.50953-0.84994-0.66106 0.50802 0.55079-0.13967
  -3   0   9 3986.62  346.03   1 0.49659-0.83032-0.66043 0.52270 0.56322-0.19321
  -3   0   844886.23 1625.37   1 0.47836-0.80543-0.65921 0.53678 0.58017-0.25127
  -3   0   732686.19  667.16   1 0.45338-0.77377-0.65692 0.54980 0.60240-0.31462
  -3   0   6   65.35   79.98   1 0.42051-0.73372-0.65211 0.56046 0.63080-0.38409
  -3   0   515369.84  350.36   1 0.37541-0.68197-0.64481 0.56844 0.66579-0.46019
   3   0  -510444.42  153.60   1 0.58947-0.28175 0.41457-0.33874 0.69328-0.89770
   3   0  -4  130.49   34.55   1 0.61544-0.31530 0.06954-0.00885 0.78510-0.94895
  -3   0   3 1572.32  157.14   1 0.23655-0.53011-0.60869 0.56299 0.75731-0.63405
   3   0  -3 1371.32   93.15   1 0.54931-0.25583-0.32706 0.37252 0.76894-0.89206
  -3   0   223906.36  368.02   1 0.13539-0.42229-0.57465 0.54418 0.80712-0.72493
   3   0  -223643.86  241.08   1 0.40920-0.12244-0.64697 0.67724 0.64341-0.72549
  -3   0   1  260.71   67.94   1 0.00994-0.29010-0.52280 0.50756 0.85239-0.81130
   3   0  -1  224.03   51.52   1 0.25962 0.02030-0.83733 0.85258 0.48110-0.52218
  -3   0   0 1677.15  116.78   1-0.13674-0.13674-0.44848 0.44848 0.88326-0.88326
   3   0   0 1584.97   96.74   1 0.13670 0.13670-0.93145 0.93145 0.33719-0.33719
  -3   0  -1  136.15   41.69   1-0.29410 0.02733-0.35182 0.36710 0.88866-0.92977
  -3   0  -2  933.51   99.22   1-0.44562 0.18541-0.23943 0.26998 0.86260-0.94484
   3   0   3 6380.64  231.48   1 0.57645-0.32288 0.13502-0.18069-0.80589 0.92902
  -3   0  -3 6063.98  222.69   1-0.57603 0.32228-0.12265 0.16830 0.80817-0.93156
   3   0   4   49.52   25.78   1 0.67941-0.43248 0.02498-0.08586-0.73332 0.89754
   3   0   5118071.0 1078.78   1 0.75431-0.51399-0.07237-0.00372-0.65251 0.85778
   3   0   685472.96  743.50   1 0.80528-0.57154-0.15675 0.06522-0.57178 0.81797
   3   0   717776.60  380.16   1 0.83891-0.61207-0.22754 0.12055-0.49441 0.78155
   3   0   8  463.03   90.06   1 0.86023-0.64009-0.28523 0.16295-0.42265 0.75081
   3   0   925032.43  950.80   1 0.87236-0.65817-0.33368 0.19566-0.35726 0.72699
   3   0  10  797.87  150.35   1 0.87833-0.67072-0.37444 0.22108-0.29718 0.70798
   3   0  1111101.89  709.47   1 0.87945-0.67841-0.40967 0.24137-0.24232 0.69389
   3   0  12    8.20   95.30   1 0.87750-0.68303-0.43972 0.25611-0.19138 0.68401
   3   0  1311866.93  464.68   1 0.87300-0.68510-0.46594 0.26703-0.14406 0.67773
   3   0  14 4466.00  398.58   1 0.86654-0.68519-0.48902 0.27482-0.09979 0.67451
   3   0  15  -52.84  120.49   1 0.85788-0.68478-0.51082 0.28125-0.05554 0.67227
   3   0  16  625.96  176.23   1 0.84841-0.68202-0.52909 0.28422-0.01599 0.67384
   3   0  17  715.54  196.09   1 0.83782-0.67814-0.54551 0.28533 0.02168 0.67728
   3   0  18   62.35  116.58   1 0.82625-0.67328-0.56032 0.28484 0.05776 0.68231
   3   0  19  628.31  214.71   1 0.81382-0.66656-0.57385 0.28310 0.09150 0.68959
   3   0  20  797.77  226.32   1 0.80059-0.66000-0.58601 0.27995 0.12505 0.69715
  -3  -1  18  173.92  153.32   1 0.53211-0.92201-0.66164 0.32412 0.52827 0.21173
  -3  -1  17  451.11  206.58   1 0.54020-0.92343-0.66169 0.33947 0.51994 0.17895
  -3  -1  16   79.68  136.43   1 0.54708-0.92364-0.66166 0.35474 0.51274 0.14504
  -3  -1  15 1020.99  206.19   1 0.55263-0.92252-0.66158 0.36997 0.50684 0.10983
  -3  -1  14 4518.57  531.68   1 0.55671-0.91993-0.66150 0.38519 0.50247 0.07309
  -3  -1  13 1184.49  208.38   1 0.55912-0.91566-0.66144 0.40044 0.49987 0.03457
  -3  -1  12 -116.56  131.01   1 0.55958-0.90946-0.66143 0.41573 0.49936-0.00602
  -3  -1  11  501.63  196.37   1 0.55776-0.90097-0.66147 0.43108 0.50134-0.04911
  -3  -1  10 2055.39  191.99   1 0.55317-0.88971-0.66157 0.44648 0.50627-0.09515
  -3  -1   9  112.65  113.32   1 0.54518-0.87504-0.66167 0.46188 0.51474-0.14473
  -3  -1   817254.26 1030.42   1 0.53287-0.85607-0.66165 0.47716 0.52750-0.19860
  -3  -1   7 4493.19  267.07   1 0.51502-0.83155-0.66126 0.49208 0.54541-0.25763
  -3  -1   6 1894.47  174.86   1 0.48986-0.79972-0.66002 0.50615 0.56955-0.32288
   3   1  -6 1484.81   91.56   1 0.57562-0.26491 0.47916-0.32527 0.66261-0.90775
  -3  -1   5 3864.08  207.89   1 0.45490-0.75809-0.65708 0.51850 0.60108-0.39552
   3   1  -5 2604.18  112.38   1 0.60635-0.30273 0.30704-0.16915 0.73352-0.93794
  -3  -1   411213.13  357.19   1 0.40735-0.70346-0.65018 0.52700 0.64134-0.47686
   3   1  -4 7984.01  174.37   1 0.61602-0.31989 0.08682 0.03591 0.78292-0.94677
   3   1  -3   43.72   25.21   1 0.58866-0.29898-0.16697 0.27460 0.79094-0.91389
  -3  -1   263849.06  579.40   1 0.24975-0.53271-0.61256 0.51992 0.74992-0.66774
   3   1  -257600.58  413.21   1 0.52040-0.23764-0.41377 0.50612 0.74697-0.82907
  -3  -1   142501.57  461.84   1 0.12868-0.40495-0.57214 0.49478 0.80999-0.76889
   3   1  -138913.40  370.29   1 0.42361-0.14751-0.62257 0.69971 0.65798-0.69902
  -3  -1   022091.95  329.17   1-0.02530-0.24427-0.50610 0.44396 0.86210-0.86210
   3   1   020287.53  292.21   1 0.31942-0.05020-0.77195 0.83391 0.54959-0.54959
  -3  -1  -116137.49  273.49   1-0.20515-0.05770-0.40849 0.36166 0.88940-0.93052
   3   1   114184.52  243.02   1 0.22438 0.03813-0.86921 0.91593 0.44059-0.39950
  -3  -1  -2  120.09   80.60   1-0.38975 0.13364-0.28328 0.25170 0.87626-0.95853
   3   1   2  -11.31   25.22   1 0.14572 0.11031-0.92608 0.95768 0.34802-0.26584
   3   1   3 6065.84  207.73   1 0.55047-0.30072 0.15847-0.14212-0.81967 0.94306
  -3  -1  -3 6503.39  226.25   1-0.55196 0.30242-0.14697 0.13070 0.82081-0.94417
   3   1   4 4664.84  186.84   1 0.67504-0.43215 0.03018-0.02890-0.73715 0.90133
   3   1   5 2571.95  357.24   1 0.76143-0.52517-0.08281 0.06886-0.64292 0.84820
   3   1   627164.31  395.79   1 0.81596-0.58624-0.17670 0.14730-0.55043 0.79662
   3   1   7 8609.55  294.91   1 0.84883-0.62598-0.25216 0.20730-0.46463 0.75177
   3   1   8 6204.43  266.55   1 0.86737-0.65062-0.31159 0.25110-0.38803 0.71668
   3   1   9 2407.34  174.72   1 0.87665-0.66648-0.35952 0.28370-0.31970 0.68943
   3   1  10 8404.90  407.78   1 0.87970-0.67610-0.39906 0.30790-0.25858 0.66938
   3   1  11  102.53   88.22   1 0.87825-0.68118-0.43265 0.32658-0.20366 0.65523
   3   1  12  540.99  123.53   1 0.87410-0.68359-0.46085 0.33948-0.15347 0.64609
   3   1  13  170.48  118.55   1 0.86779-0.68385-0.48519 0.34852-0.10731 0.64099
   3   1  1414371.95  859.04   1 0.85926-0.68340-0.50777 0.35566-0.06192 0.63754
   3   1  1514285.92  962.00   1 0.84989-0.68074-0.52650 0.35908-0.02173 0.63847
   3   1  16 3436.13  312.81   1 0.83945-0.67701-0.54318 0.36045 0.01619 0.64165
   3   1  17 1088.04  216.40   1 0.82811-0.67238-0.55811 0.36008 0.05225 0.64671
   3   1  18   55.77  117.05   1 0.81597-0.66597-0.57169 0.35840 0.08575 0.65423
   3   1  19  -10.66  120.41   1 0.80310-0.65978-0.58384 0.35525 0.11891 0.66218
   3   1  20 5738.14  492.00   1 0.78953-0.65287-0.59485 0.35095 0.15095 0.67125
   3   1  21 1472.43  287.69   1 0.77526-0.64528-0.60483 0.34563 0.18203 0.68128
  -3  -2  17  498.04  234.77   1 0.56034-0.93970-0.66140 0.27713 0.49854 0.20035
  -3  -2  16  315.35  195.93   1 0.56867-0.94150-0.66127 0.29201 0.48921 0.16820
  -3  -2  15 2179.10  279.13   1 0.57590-0.94206-0.66093 0.30698 0.48114 0.13518
  -3  -2  14 2740.92  293.66   1 0.58188-0.94136-0.66058 0.32195 0.47437 0.10086
  -3  -2  13 7621.87  824.46   1 0.58645-0.93926-0.66028 0.33696 0.46913 0.06502
  -3  -2  12  397.71  119.49   1 0.58944-0.93557-0.66007 0.35205 0.46568 0.02737
  -3  -2  11 2637.17  296.35   1 0.59056-0.93002-0.65998 0.36728 0.46437-0.01240
  -3  -2  10 1166.28  236.16   1 0.58947-0.92225-0.66007 0.38267 0.46564-0.05476
  -3  -2   9 1122.32  170.91   1 0.58566-0.91177-0.66034 0.39825 0.47004-0.10024
  -3  -2   8 1437.33  183.88   1 0.57845-0.89789-0.66079 0.41401 0.47826-0.14955
  -3  -2   714063.50  616.93   1 0.56686-0.87963-0.66134 0.42987 0.49120-0.20358
   3   2  -710417.89  427.03   1 0.56146-0.24784 0.52979-0.29851 0.63566-0.92166
  -3  -2   621937.33  846.44   1 0.54953-0.85553-0.66163 0.44569 0.51014-0.26347
   3   2  -614795.92  562.94   1 0.58912-0.28280 0.41632-0.20121 0.69253-0.93783
  -3  -2   5 1931.22  159.28   1 0.52420-0.82353-0.66151 0.46088 0.53628-0.33072
   3   2  -5 1210.58   94.46   1 0.60989-0.31035 0.27531-0.07524 0.74312-0.94763
  -3  -2   4   23.58   72.88   1 0.48780-0.78045-0.65989 0.47456 0.57147-0.40702
   3   2  -4   15.75   34.75   1 0.61653-0.32442 0.11225 0.07253 0.77928-0.94312
   3   2  -3 1758.90  150.19   1 0.60363-0.31790-0.07107 0.24075 0.79408-0.91704
   3   2  -2 3634.88  237.22   1 0.56772-0.28889-0.25919 0.41357 0.78134-0.86341
  -3  -2   1 -188.40   80.84   1 0.25213-0.52449-0.61324 0.47368 0.74856-0.70747
   3   2  -1   75.23   63.13   1 0.51093-0.23887-0.43913 0.57834 0.73898-0.78003
  -3  -2   012577.84  249.32   1 0.10075-0.36638-0.56139 0.43713 0.82138-0.82138
   3   2   011587.08  235.22   1 0.43933-0.17388-0.59435 0.71835 0.67359-0.67359
  -3  -2  -1  141.18   83.29   1-0.09698-0.16194-0.47000 0.36098 0.87731-0.91840
   3   2   1   85.61   42.47   1 0.36228-0.10375-0.71667 0.82545 0.59592-0.55484
  -3  -2  -243689.87  393.48   1-0.32287 0.07069-0.33169 0.23801 0.88641-0.96868
   3   2   240879.07  544.90   1 0.28870-0.03694-0.80776 0.90120 0.51397-0.43180
   3   2   322566.79  320.68   1 0.52581-0.28011 0.18113-0.10256-0.83108 0.95447
  -3  -2  -322933.12  286.52   1-0.53053 0.28493-0.16674 0.08837 0.83110-0.95446
   3   2   321370.81  423.66   1 0.22296 0.02213-0.87040 0.94860 0.43895-0.31570
   3   2   4 1044.90  150.02   1 0.68134-0.44253 0.02270 0.04073-0.73160 0.89582
   3   2   4  921.08  164.08   1 0.16784 0.07081-0.91192 0.97511 0.37445-0.21008
   3   2   5 9016.48  199.74   1 0.77939-0.54714-0.11289 0.16088-0.61627 0.82143
   3   2   6  478.93   68.54   1 0.83413-0.60856-0.21662 0.24918-0.50723 0.75336
   3   2   761100.38  581.06   1 0.86259-0.64372-0.29306 0.31033-0.41236 0.69950
   3   2   8108440.6 1432.80   1 0.87549-0.66274-0.35139 0.35310-0.33171 0.66036
   3   2   9    8.66   59.49   1 0.87965-0.67347-0.39659 0.38297-0.26253 0.63226
   3   2  10  -33.94   64.17   1 0.87818-0.67851-0.43335 0.40482-0.20245 0.61297
   3   2  1153608.57 2966.28   1 0.87363-0.68053-0.46309 0.41925-0.14934 0.60091
   3   2  12 7327.53  514.74   1 0.86685-0.68032-0.48808 0.42894-0.10166 0.59428
   3   2  13 1067.94  168.86   1 0.85792-0.67930-0.51073 0.43607-0.05573 0.59023
   3   2  14  197.88  155.12   1 0.84829-0.67638-0.52929 0.43932-0.01555 0.59117
   3   2  15 2726.12  322.08   1 0.83774-0.67254-0.54562 0.44035 0.02194 0.59478
   3   2  16 1706.15  189.09   1 0.82641-0.66792-0.56013 0.43956 0.05730 0.60055
   3   2  17  230.63  166.54   1 0.81441-0.66168-0.57326 0.43743 0.08993 0.60894
   3   2  18  870.23  198.50   1 0.80180-0.65574-0.58497 0.43384 0.12210 0.61788
   3   2  19  247.18  234.27   1 0.78858-0.64919-0.59556 0.42912 0.15309 0.62800
   3   2  20  932.22  226.12   1 0.77476-0.64204-0.60515 0.42341 0.18307 0.63913
   3   2  21  248.15  203.25   1 0.76035-0.63430-0.61385 0.41681 0.21222 0.65109
  -3  -3  17  -10.73  145.11   1 0.57654-0.95213-0.66089 0.21418 0.48042 0.21807
  -3  -3  16    9.56  148.09   1 0.58620-0.95512-0.66030 0.22890 0.46942 0.18799
  -3  -3  15 3780.55  389.75   1 0.59485-0.95710-0.65964 0.24355 0.45936 0.15696
  -3  -3  14   69.02  137.88   1 0.60242-0.95799-0.65896 0.25818 0.45038 0.12485
  -3  -3  13   44.23  137.86   1 0.60880-0.95770-0.65831 0.27284 0.44269 0.09145
  -3  -3  12 3732.55  355.09   1 0.61386-0.95608-0.65774 0.28758 0.43651 0.05654
  -3  -3  11  853.88  212.91   1 0.61740-0.95295-0.65731 0.30246 0.43213 0.01983
  -3  -3  10 5436.06  445.31   1 0.61917-0.94804-0.65709 0.31755 0.42993-0.01905
  -3  -3   922814.95  617.95   1 0.61880-0.94100-0.65714 0.33290 0.43039-0.06059
  -3  -3   8 4144.56  316.30   1 0.61580-0.93132-0.65751 0.34859 0.43412-0.10541
  -3  -3   7  597.11  122.12   1 0.60941-0.91827-0.65824 0.36463 0.44194-0.15432
   3   3  -7  461.45   90.02   1 0.57375-0.26418 0.48638-0.19301 0.65896-0.94496
  -3  -3   6  128.95   95.90   1 0.59858-0.90076-0.65932 0.38101 0.45495-0.20842
   3   3  -6   39.05   54.85   1 0.59462-0.29241 0.38715-0.11000 0.70464-0.94994
  -3  -3   5 3787.22  212.39   1 0.58168-0.87718-0.66060 0.39760 0.47460-0.26916
   3   3  -5 2595.14  151.20   1 0.61036-0.31486 0.27027-0.00813 0.74458-0.94910
  -3  -3   4 9506.42  303.89   1 0.55604-0.84483-0.66151 0.41412 0.50319-0.33875
   3   3  -4 6909.62  226.42   1 0.61649-0.32781 0.13916 0.10778 0.77496-0.93857
  -3  -3   314847.72  364.51   1 0.51781-0.79993-0.66135 0.42926 0.54266-0.41932
   3   3  -311577.64  298.20   1 0.61099-0.32963-0.00288 0.23454 0.79162-0.91450
  -3  -3   225134.45  414.83   1 0.46028-0.73573-0.65762 0.44084 0.59637-0.51415
   3   3  -220877.65  350.41   1 0.59125-0.31623-0.15274 0.36929 0.79188-0.87385
  -3  -3   1 7131.29  226.82   1 0.37270-0.64125-0.64431 0.44280 0.66779-0.62667
  -3  -3   0  230.83   62.50   1 0.23631-0.49807-0.60862 0.42213 0.75744-0.75744
   3   3   0  208.12   62.41   1 0.51044-0.24907-0.44041 0.62648 0.73856-0.73856
  -3  -3  -110231.47  191.10   1 0.03356-0.28856-0.53337 0.36221 0.84521-0.88630
   3   3   110155.58  253.80   1 0.45519-0.20041-0.56395 0.73481 0.68902-0.64797
  -3  -3  -2   35.78   53.73   1-0.23779-0.01048-0.38839 0.23261 0.89028-0.97251
   3   3   2   -1.11   59.03   1 0.39590-0.14807-0.66699 0.82258 0.63117-0.54901
   3   3   311492.89  196.43   1 0.50609-0.26443 0.19868-0.05788-0.83927 0.96266
  -3  -3  -311292.17  176.50   1-0.51624 0.27459-0.17957 0.03911 0.83740-0.96076
   3   3   310582.62  290.25   1 0.33798-0.09685-0.74903 0.88947 0.56983-0.44660
   3   3   412562.32  192.49   1 0.70769-0.47294-0.00952 0.13511-0.70644 0.87066
   3   3   411752.20  288.04   1 0.28425-0.04991-0.81248 0.93740 0.50898-0.34464
   3   3   519103.68  239.97   1 0.81442-0.58619-0.17374 0.28387-0.55364 0.75881
   3   3   516630.82  352.34   1 0.23645-0.00876-0.85876 0.96843 0.45455-0.24913
   3   3   6 4064.17  254.35   1 0.85996-0.63837-0.28435 0.37904-0.42379 0.66992
   3   3   6 3454.43  270.09   1 0.19600 0.02528-0.89181 0.98660 0.40772-0.16116
   3   3   743261.10  442.31   1 0.87642-0.66111-0.35777 0.43703-0.32229 0.60986
   3   3   738361.17  601.02   1 0.16195 0.05265-0.91583 0.99541 0.36744-0.07979
   3   3   827085.65  479.10   1 0.87945-0.67062-0.40980 0.47409-0.24210 0.57052
   3   3   824731.76  532.75   1 0.13425 0.07369-0.93287 0.99726 0.33423-0.00548
   3   3   9 2120.89  141.57   1 0.87641-0.67414-0.44782 0.49682-0.17706 0.54653
   3   3  10 3758.55  199.21   1 0.87010-0.67440-0.47745 0.51114-0.12231 0.53283
   3   3  11 9293.86  579.14   1 0.86144-0.67335-0.50265 0.52074-0.07252 0.52480
   3   3  12 8905.77  583.15   1 0.85201-0.67063-0.52264 0.52544-0.03021 0.52360
   3   3  1320166.10 1018.41   1 0.84178-0.66711-0.53975 0.52724 0.00821 0.52628
   3   3  14 9002.73  377.74   1 0.83092-0.66296-0.55466 0.52684 0.04372 0.53189
   3   3  1520636.46 1142.03   1 0.81952-0.65739-0.56798 0.52491 0.07601 0.54064
   3   3  16 2923.40  232.35   1 0.80766-0.65220-0.57975 0.52138 0.10750 0.55025
   3   3  17 1202.58  207.97   1 0.79532-0.64653-0.59035 0.51668 0.13760 0.56127
   3   3  18  699.98  195.33   1 0.78250-0.64037-0.59995 0.51098 0.16656 0.57342
   3   3  19 4656.16  390.07   1 0.76918-0.63372-0.60867 0.50439 0.19461 0.58648
   3   3  20  -19.89  117.43   1 0.75564-0.62687-0.61635 0.49669 0.22159 0.60027
   3   3  21  315.48  197.00   1 0.74130-0.61919-0.62356 0.48859 0.24825 0.61470
  -3  -4  16  619.35  209.91   1 0.59985-0.96486-0.65920 0.16565 0.45345 0.20396
  -3  -4  15  120.45  162.78   1 0.60969-0.96803-0.65821 0.17997 0.44161 0.17471
  -3  -4  14 2828.30  354.33   1 0.61858-0.97024-0.65717 0.19424 0.43067 0.14456
  -3  -4  13   82.08  130.56   1 0.62644-0.97143-0.65612 0.20850 0.42079 0.11335
  -3  -4  12   81.88  134.12   1 0.63318-0.97149-0.65512 0.22281 0.41216 0.08089
  -3  -4  11  107.51  128.05   1 0.63867-0.97031-0.65425 0.23724 0.40503 0.04694
  -3  -4  10 4385.16  415.76   1 0.64273-0.96769-0.65356 0.25186 0.39969 0.01119
  -3  -4   9  853.81  186.37   1 0.64510-0.96339-0.65314 0.26675 0.39654-0.02674
  -3  -4   8  224.58  118.69   1 0.64542-0.95704-0.65308 0.28201 0.39611-0.06740
   3   4  -8  223.44   76.10   1 0.55681-0.24434 0.54468-0.17392 0.62711-0.95396
  -3  -4   7  286.77   97.42   1 0.64318-0.94812-0.65348 0.29771 0.39909-0.11147
   3   4  -7   -2.38   56.66   1 0.57914-0.27362 0.46503-0.10956 0.66958-0.95557
  -3  -4   6  523.67  135.56   1 0.63760-0.93586-0.65442 0.31397 0.40643-0.15990
   3   4  -6  475.93   91.21   1 0.59628-0.29818 0.37755-0.03835 0.70844-0.95373
  -3  -4   5 8572.20  411.68   1 0.62751-0.91910-0.65597 0.33082 0.41943-0.21399
   3   4  -5 5773.66  295.82   1 0.60965-0.31819 0.27784 0.04636 0.74237-0.94689
  -3  -4   4  244.98   79.83   1 0.61106-0.89598-0.65806 0.34823 0.43994-0.27558
   3   4  -4  171.56   60.30   1 0.61609-0.33144 0.16877 0.14025 0.76937-0.93298
  -3  -4   3   43.82   71.06   1 0.58518-0.86343-0.66037 0.36585 0.47059-0.34733
   3   4  -3   21.37   55.28   1 0.61468-0.33733 0.05235 0.24135 0.78703-0.90991
  -3  -4   215396.21  351.96   1 0.54414-0.81573-0.66168 0.38283 0.51583-0.43360
   3   4  -213179.35  346.46   1 0.60370-0.33264-0.07050 0.34911 0.79408-0.87605
  -3  -4   130711.01  409.61   1 0.47904-0.74396-0.65926 0.39572 0.57955-0.53844
  -3  -4   0  -94.24   61.07   1 0.37113-0.62922-0.64402 0.39570 0.66894-0.66894
   3   4   0   81.00   89.90   1 0.55262-0.29518-0.31571 0.56385 0.77131-0.77131
  -3  -4  -125331.57  268.76   1 0.18475-0.43591-0.59228 0.35886 0.78425-0.82534
   3   4   123239.19  402.42   1 0.51456-0.26389-0.42957 0.66250 0.74208-0.70103
  -3  -4  -2  533.64   58.95   1-0.12244-0.12191-0.45635 0.23830 0.88133-0.96350
   3   4   2  271.87   71.91   1 0.47077-0.22664-0.53199 0.74972 0.70380-0.62172
   3   4   3 2575.36  212.29   1 0.50065-0.26302 0.20344-0.00042-0.84140 0.96478
  -3  -4  -3 2808.00  166.87   1-0.52161 0.28391-0.17478-0.02776 0.83508-0.95844
   3   4   3 2421.31  195.77   1 0.42476-0.18732-0.62057 0.82316 0.65913-0.53600
   3   4   4   -7.24   12.06   1 0.78011-0.54934-0.11403 0.30155-0.61515 0.77928
   3   4   4  -11.50   57.97   1 0.37774-0.14730-0.69458 0.88183 0.61226-0.44795
   3   4   5 1056.44   80.76   1 0.86699-0.64254-0.31009 0.48222-0.39007 0.59547
   3   4   5  784.56  157.55   1 0.33374-0.11001-0.75440 0.92650 0.56523-0.35984
   3   4   645656.42  346.33   1 0.87948-0.66148-0.40466 0.56179-0.25050 0.49681
   3   4   639186.85  611.64   1 0.29344-0.07652-0.80263 0.95902 0.51929-0.27278
   3   4   7 4874.70  154.45   1 0.87504-0.66360-0.45603 0.59785-0.16229 0.44965
   3   4   7 4892.64  528.83   1 0.25762-0.04734-0.83926 0.98040 0.47882-0.19123
   3   4   8 5631.90  188.43   1 0.86615-0.66188-0.49010 0.61626-0.09782 0.42675
   3   4   8 5214.89  355.24   1 0.22668-0.02306-0.86725 0.99314 0.44326-0.11459
   3   4   9  839.03   89.20   1 0.85640-0.65885-0.51397 0.62483-0.04888 0.41892
   3   4   9  667.03  145.56   1 0.20120-0.00396-0.88784 0.99902 0.41382-0.04398
   3   4  10  372.55   75.82   1 0.84631-0.65546-0.53262 0.62817-0.00808 0.41923
   3   4  10  380.93   86.98   1 0.17975 0.01081-0.90371 0.99969 0.38857 0.02235
   3   4  11 1419.95  139.43   1 0.83602-0.65188-0.54799 0.62824 0.02759 0.42468
   3   4  11 1399.97  265.14   1 0.16252 0.02137-0.91546 0.99624 0.36812 0.08390
   3   4  12 9861.32  608.20   1 0.82551-0.64730-0.56129 0.62630 0.05889 0.43443
   3   4  12 8671.06  653.12   1 0.14909 0.02813-0.92402 0.98960 0.35207 0.14104
   3   4  13 3648.82  280.95   1 0.81484-0.64330-0.57284 0.62254 0.08879 0.44564
   3   4  13 3189.47  332.17   1 0.13906 0.03149-0.93007 0.98045 0.34002 0.19418
   3   4  1431503.63  692.35   1 0.80388-0.63901-0.58316 0.61756 0.11699 0.45855
   3   4  1426306.45  655.95   1 0.13205 0.03183-0.93413 0.96932 0.33158 0.24372
   3   4  1515595.78  888.87   1 0.79260-0.63440-0.59250 0.61159 0.14393 0.47272
   3   4  16  -26.90   99.54   1 0.78096-0.62943-0.60102 0.60481 0.16990 0.48785
   3   4  17  278.70  168.67   1 0.76891-0.62406-0.60883 0.59732 0.19514 0.50373
   3   4  18 1242.71  223.39   1 0.75675-0.61856-0.61575 0.58885 0.21945 0.52022
   3   4  19  736.99  193.42   1 0.74383-0.61230-0.62236 0.58015 0.24365 0.53712
   3   4  19  207.85  190.54   1 0.13196-0.00142-0.93419 0.89337 0.33147 0.44930
   3   4  20   65.43  116.50   1 0.73042-0.60556-0.62843 0.57091 0.26748 0.55438
   3   4  20  145.75  148.42   1 0.13739-0.01352-0.93105 0.87504 0.33801 0.48385
   3   4  21  167.12  180.72   1 0.71649-0.59830-0.63398 0.56116 0.29101 0.57194
   3   4  21  198.83  163.32   1 0.14427-0.02708-0.92696 0.85575 0.34629 0.51667
   3   4  22  130.81  135.75   1 0.70202-0.59049-0.63904 0.55091 0.31430 0.58975
   3   4  22  173.32  136.22   1 0.15250-0.04198-0.92189 0.83548 0.35615 0.54790
  -3  -5  15  651.50  209.03   1 0.62074-0.97516-0.65689 0.11650 0.42797 0.18835
  -3  -5  14  -62.84  143.65   1 0.63072-0.97847-0.65550 0.13042 0.41532 0.15991
  -3  -5  13 1825.28  299.75   1 0.63980-0.98087-0.65406 0.14429 0.40355 0.13060
  -3  -5  12  322.08  204.60   1 0.64790-0.98230-0.65263 0.15816 0.39279 0.10026
  -3  -5  11  412.34  148.81   1 0.65494-0.98267-0.65127 0.17211 0.38325 0.06871
  -3  -5  10  412.93  167.01   1 0.66080-0.98186-0.65005 0.18621 0.37518 0.03570
  -3  -5   9 1493.06  267.23   1 0.66530-0.97968-0.64906 0.20053 0.36889 0.00090
  -3  -5   8 2398.88  260.05   1 0.66820-0.97590-0.64840 0.21517 0.36480-0.03609
   3   5  -8 2398.00  255.12   1 0.56150-0.25307 0.52967-0.09681 0.63573-0.96258
  -3  -5   712954.47  442.75   1 0.66913-0.97016-0.64818 0.23027 0.36347-0.07585
   3   5  -7 9352.02  365.56   1 0.57980-0.27899 0.45898-0.04256 0.67316-0.95934
  -3  -5   6   87.81  130.54   1 0.66757-0.96193-0.64854 0.24594 0.36569-0.11916
   3   5  -6   79.32  109.74   1 0.59599-0.30199 0.37929 0.02195 0.70776-0.95305
  -3  -5   5  678.76  143.99   1 0.66271-0.95039-0.64963 0.26234 0.37252-0.16708
   3   5  -5  256.05   84.94   1 0.60818-0.32075 0.29239 0.09388 0.73798-0.94249
  -3  -5   4   33.27   88.39   1 0.65327-0.93428-0.65160 0.27962 0.38553-0.22118
   3   5  -4   38.83   62.65   1 0.61510-0.33449 0.19895 0.17213 0.76292-0.92654
  -3  -5   3  405.56   93.00   1 0.63712-0.91146-0.65450 0.29783 0.40705-0.28378
   3   5  -3  299.06   95.15   1 0.61634-0.34301 0.10034 0.25541 0.78105-0.90393
  -3  -5   2  843.23  108.57   1 0.61050-0.87816-0.65812 0.31676 0.44062-0.35844
   3   5  -2  811.66  140.94   1 0.61096-0.34436-0.00332 0.34391 0.79165-0.87357
  -3  -5  -235397.14  250.03   1 0.03697-0.27742-0.53465 0.25447 0.84425-0.92643
   3   5   233000.50  522.26   1 0.52119-0.28121-0.41156 0.69135 0.74763-0.66554
   3   5   313965.85  346.73   1 0.48645-0.25322-0.49881 0.76344 0.71731-0.59416
   3   5   4 1280.96  147.75   1 0.44905-0.22227-0.57596 0.82541 0.68309-0.51892
   3   5   5 4690.84  321.87   1 0.41192-0.19183-0.64246 0.87677 0.64618-0.44097
   3   5   656987.16  683.98   1 0.78267-0.56839-0.59983 0.81881 0.16618 0.08048
   3   5   653520.54  983.75   1 0.37484-0.16180-0.69881 0.91772 0.60921-0.36275
   3   5   7  526.98   53.10   1 0.79786-0.59024-0.58829 0.79197 0.13160 0.15616
   3   5   7  710.54  134.94   1 0.34109-0.13475-0.74505 0.94881 0.57319-0.28565
   3   5   8 1318.17   83.18   1 0.79967-0.59872-0.58678 0.77516 0.12727 0.20160
   3   5   8 1369.06  192.69   1 0.31036-0.11085-0.78365 0.97151 0.53810-0.20943
   3   5   937732.19 1301.96   1 0.79710-0.60282-0.58891 0.76199 0.13341 0.23658
   3   5   932419.03 1247.84   1 0.28308-0.09022-0.81371 0.98632 0.50767-0.13791
   3   5  10   80.54   71.84   1 0.79235-0.60475-0.59269 0.75046 0.14449 0.26660
   3   5  10  163.40   83.55   1 0.25946-0.07326-0.83748 0.99484 0.48092-0.07009
   3   5  11  687.27  102.55   1 0.78624-0.60530-0.59728 0.73975 0.15832 0.29388
   3   5  11  593.45   95.52   1 0.23947-0.05991-0.85607 0.99818 0.45802-0.00610
   3   5  12  419.77  101.90   1 0.77912-0.60485-0.60227 0.72943 0.17385 0.31947
   3   5  12  606.41  127.60   1 0.22294-0.05004-0.87042 0.99728 0.43892 0.05407
   3   5  13 8163.09  295.40   1 0.77119-0.60359-0.60743 0.71929 0.19049 0.34393
   3   5  13 6988.11 1104.93   1 0.21037-0.04385-0.88062 0.99300 0.42455 0.10966
   3   5  14 4145.27  284.17   1 0.76253-0.60160-0.61261 0.70917 0.20793 0.36761
   3   5  14 2885.46  670.97   1 0.20012-0.04027-0.88866 0.98584 0.41257 0.16274
   3   5  15 3906.14  330.52   1 0.75357-0.59928-0.61745 0.69862 0.22553 0.39086
   3   5  15 3565.07  699.86   1 0.19262-0.03944-0.89435 0.97633 0.40376 0.21264
   3   5  16 1182.10  175.23   1 0.74364-0.59602-0.62245 0.68831 0.24400 0.41349
   3   5  16 1350.75  271.67   1 0.18762-0.04111-0.89805 0.96483 0.39786 0.25963
   3   5  17  697.79  164.14   1 0.73310-0.59215-0.62727 0.67783 0.26281 0.43577
   3   5  17  493.93  164.20   1 0.18488-0.04504-0.90004 0.95162 0.39463 0.30395
   3   5  18  195.65  161.52   1 0.72197-0.58768-0.63188 0.66713 0.28191 0.45777
   3   5  18  193.81   88.15   1 0.18421-0.05104-0.90052 0.93690 0.39384 0.34583
   3   5  19  274.32  203.97   1 0.71023-0.58261-0.63626 0.65620 0.30123 0.47954
   3   5  19  112.97   77.52   1 0.18543-0.05893-0.89964 0.92082 0.39528 0.38549
   3   5  20 2477.81  302.61   1 0.69788-0.57693-0.64036 0.64500 0.32075 0.50111
   3   5  20 2225.05  537.32   1 0.18837-0.06855-0.89749 0.90347 0.39875 0.42311
   3   5  21 1604.20  252.13   1 0.68492-0.57064-0.64418 0.63351 0.34044 0.52251
   3   5  21 1142.19  301.89   1 0.19291-0.07976-0.89413 0.88491 0.40410 0.45886
   3   5  22   22.91  121.42   1 0.67133-0.56371-0.64769 0.62171 0.36028 0.54377
   3   5  22  -10.67  100.88   1 0.19893-0.09244-0.88958 0.86516 0.41117 0.49288
  -3  -6  14   94.30  140.86   1 0.63917-0.98301-0.65416 0.06693 0.40437 0.17086
  -3  -6  13  -15.35  120.41   1 0.64925-0.98642-0.65237 0.08045 0.39098 0.14317
  -3  -6  12   30.23  123.44   1 0.65846-0.98895-0.65054 0.09393 0.37842 0.11463
  -3  -6  11  779.79  190.12   1 0.66674-0.99056-0.64873 0.10743 0.36686 0.08510
  -3  -6  10  208.40  131.24   1 0.67406-0.99114-0.64702 0.12105 0.35635 0.05457
  -3  -6   9  580.59  188.64   1 0.68020-0.99062-0.64545 0.13479 0.34741 0.02242
  -3  -6   8 1173.13  194.89   1 0.68505-0.98880-0.64414 0.14878 0.34024-0.01149
   3   6  -8  445.74  118.85   1 0.56307-0.25869 0.52446-0.02952 0.63865-0.96550
  -3  -6   7   14.94   96.89   1 0.68837-0.98544-0.64321 0.16316 0.33528-0.04762
   3   6  -7  -47.24   88.48   1 0.57961-0.28290 0.45978 0.01868 0.67278-0.95896
  -3  -6   6  392.34  149.35   1 0.68979-0.98020-0.64280 0.17805 0.33313-0.08657
   3   6  -6  215.92  114.83   1 0.59444-0.30454 0.38819 0.07511 0.70423-0.94953
  -3  -6   5 4184.01  309.27   1 0.68878-0.97252-0.64309 0.19365 0.33466-0.12919
   3   6  -5 2998.08  237.92   1 0.60584-0.32275 0.31135 0.13678 0.73213-0.93654
  -3  -6   4 6603.39  394.71   1 0.68448-0.96156-0.64430 0.21016 0.34109-0.17672
   3   6  -4 4701.75  330.49   1 0.61349-0.33692 0.22947 0.20369 0.75562-0.91923
  -3  -6   3  430.50   95.82   1 0.67549-0.94589-0.64667 0.22784 0.35429-0.23101
   3   6  -3  523.82  131.40   1 0.61647-0.34671 0.14348 0.27450 0.77419-0.89690
  -3  -6   2  478.23   95.26   1 0.65925-0.92300-0.65038 0.24687 0.37733-0.29516
   3   6  -2  265.15   97.76   1 0.61478-0.35220 0.05442 0.34820 0.78681-0.86873
  -3  -6   1 1055.52   93.79   1 0.63113-0.88821-0.65544 0.26723 0.41480-0.37371
   3   6  -1  741.10  141.67   1 0.60753-0.35112-0.03729 0.42482 0.79342-0.83440
  -3  -6   0  119.55   83.06   1 0.58097-0.83137-0.66064 0.28775 0.47541-0.47541
   3   6   0  221.10  148.74   1 0.59524-0.34557-0.12926 0.50160 0.79307-0.79307
  -3  -6  -120078.13  339.22   1 0.48145-0.72530-0.65944 0.30239 0.57734-0.61845
   3   6   117485.78  513.99   1 0.57705-0.33426-0.21936 0.57642 0.78669-0.74565
  -3  -6  -2 1204.63   59.86   1 0.23900-0.47570-0.60942 0.26690 0.75595-0.83813
   3   6   2 1123.66  166.04   1 0.55520-0.31916-0.30661 0.64851 0.77313-0.69105
   3   6   310056.95  354.03   1 0.52920-0.29992-0.38878 0.71543 0.75417-0.63103
   3   6   412110.11  360.47   1 0.50096-0.27843-0.46438 0.77586 0.73032-0.56613
   3   6   5 1131.12  139.88   1 0.47056-0.25444-0.53245 0.82876 0.70360-0.49839
   3   6   6   83.37   76.53   1 0.44037-0.23094-0.59241 0.87359 0.67461-0.42836
   3   6   7 5020.27  388.96   1 0.41082-0.20808-0.64429 0.91032 0.64506-0.35777
   3   6   8 1897.14   88.31   1 0.58792-0.39076-0.66004 0.90997 0.46763-0.13874
   3   6   8 1821.45  236.73   1 0.38154-0.18590-0.68895 0.93952 0.61625-0.28763
   3   6   917658.06  632.71   1 0.65174-0.46140-0.65190 0.88700 0.38762-0.01782
   3   6   916337.49  688.89   1 0.35550-0.16656-0.72598 0.96140 0.58869-0.21899
   3   6  10 2586.66  194.07   1 0.68118-0.49746-0.64519 0.86504 0.34598 0.06495
   3   6  10 2471.25  448.81   1 0.33196-0.14973-0.75662 0.97689 0.56330-0.15252
   3   6  1111141.26  659.51   1 0.69528-0.51823-0.64117 0.84571 0.32476 0.12726
   3   6  11 9712.31  694.06   1 0.31105-0.13560-0.78285 0.98693 0.53887-0.08694
   3   6  1212909.08  644.49   1 0.70140-0.53102-0.63924 0.82848 0.31526 0.17785
   3   6  1211183.01  734.08   1 0.29303-0.12424-0.80308 0.99191 0.51883-0.02582
   3   6  13  796.99  139.51   1 0.70277-0.53906-0.63879 0.81272 0.31311 0.22109
   3   6  13  733.66  151.37   1 0.27783-0.11569-0.81917 0.99275 0.50175 0.03233
   3   6  1432110.82 1662.78   1 0.70101-0.54396-0.63937 0.79799 0.31588 0.25942
   3   6  1428793.11 2028.86   1 0.26535-0.10986-0.83175 0.99008 0.48762 0.08755
   3   6  15 6834.27  515.91   1 0.69700-0.54662-0.64064 0.78396 0.32211 0.29428
   3   6  15 5821.30  566.30   1 0.25545-0.10662-0.84132 0.98440 0.47635 0.13990
   3   6  16    8.63   87.43   1 0.69128-0.54756-0.64237 0.77038 0.33088 0.32660
   3   6  17 2983.59  350.77   1 0.68416-0.54712-0.64439 0.75710 0.34157 0.35701
   3   6  17 2439.48  450.57   1 0.24278-0.10725-0.85309 0.96567 0.46183 0.23659
   3   6  18  542.18  169.20   1 0.67586-0.54548-0.64657 0.74397 0.35375 0.38592
   3   6  18  504.66  127.09   1 0.23967-0.11080-0.85589 0.95321 0.45826 0.28124
   3   6  19  410.01  240.40   1 0.66661-0.54302-0.64876 0.73077 0.36704 0.41363
   3   6  19  223.69  120.73   1 0.23852-0.11630-0.85692 0.93899 0.45693 0.32365
   3   6  20   59.15  121.47   1 0.65633-0.53941-0.65099 0.71768 0.38136 0.44040
   3   6  20  234.42  135.74   1 0.23917-0.12360-0.85633 0.92316 0.45768 0.36399
   3   6  21  995.76  253.04   1 0.64515-0.53491-0.65313 0.70451 0.39647 0.46638
   3   6  21  594.84  227.12   1 0.24151-0.13259-0.85424 0.90581 0.46037 0.40238
   3   6  22   51.24  114.71   1 0.63313-0.52956-0.65513 0.69121 0.41223 0.49171
   3   6  22  188.72  154.28   1 0.24541-0.14315-0.85069 0.88701 0.46485 0.43898
  -3  -7  13  129.42  135.78   1 0.65511-0.98836-0.65123 0.01716 0.38303 0.15111
  -3  -7  12  491.58  221.26   1 0.66523-0.99181-0.64908 0.03032 0.36899 0.12406
  -3  -7  11  517.61  205.24   1 0.67455-0.99439-0.64690 0.04347 0.35564 0.09638
  -3  -7  10  423.00  200.20   1 0.68294-0.99610-0.64472 0.05660 0.34339 0.06754
  -3  -7   9   -2.98  108.68   1 0.69035-0.99685-0.64264 0.06982 0.33229 0.03754
  -3  -7   8   21.77  104.92   1 0.69667-0.99651-0.64074 0.08323 0.32262 0.00612
   3   7  -8  317.11  157.71   1 0.56254-0.26221 0.52623 0.03079 0.63766-0.96451
  -3  -7   7 4465.57  294.95   1 0.70175-0.99492-0.63913 0.09692 0.31471-0.02706
   3   7  -7 3279.75  263.04   1 0.57900-0.28563 0.46558 0.07615 0.66931-0.95530
  -3  -7   6 2871.11  280.86   1 0.70535-0.99184-0.63794 0.11104 0.30904-0.06248
   3   7  -6 2160.04  255.88   1 0.59193-0.30614 0.40187 0.12348 0.69864-0.94394
  -3  -7   5  689.05  126.94   1 0.70709-0.98692-0.63734 0.12575 0.30626-0.10079
   3   7  -5  858.08  175.58   1 0.60308-0.32410 0.33297 0.17722 0.72485-0.92927
  -3  -7   4  211.38  116.72   1 0.70643-0.97959-0.63757 0.14128 0.30732-0.14295
   3   7  -4  113.30  119.25   1 0.61124-0.33870 0.26020 0.23504 0.74744-0.91106
  -3  -7   3 5325.08  332.29   1 0.70243-0.96892-0.63891 0.15792 0.31365-0.19037
   3   7  -3 3760.61  314.92   1 0.61565-0.34994 0.18431 0.29574 0.76615-0.88886
  -3  -7   2 1813.44  148.58   1 0.69350-0.95332-0.64171 0.17603 0.32750-0.24531
   3   7  -2 1436.66  184.58   1 0.61644-0.35788 0.10603 0.35864 0.78022-0.86214
  -3  -7   1  457.77   77.91   1 0.67658-0.92975-0.64636 0.19601 0.35276-0.31167
   3   7  -1  297.91   98.13   1 0.61313-0.36130 0.02561 0.42389 0.78956-0.83052
  -3  -7   0  490.41   69.65   1 0.64548-0.89197-0.65307 0.21803 0.39603-0.39603
   3   7   0  564.89  128.07   1 0.60548-0.35977-0.05578 0.49019 0.79389-0.79389
  -3  -7  -1 3599.01  127.57   1 0.58437-0.82419-0.66042 0.24069 0.47152-0.51261
   3   7   1 3016.73  249.83   1 0.59406-0.35508-0.13643 0.55565 0.79276-0.75177
  -3  -7  -2  476.71   47.47   1 0.43152-0.66488-0.65359 0.24959 0.62177-0.70400
   3   7   2  532.58  128.30   1 0.57799-0.34590-0.21506 0.61900 0.78718-0.70511
   3   7   3   35.61   86.05   1 0.55953-0.33419-0.29088 0.67966 0.77608-0.65297
   3   7   4 5165.54  263.63   1 0.53840-0.31980-0.36242 0.73604 0.76077-0.59662
   3   7   5  787.56  147.04   1 0.51480-0.30296-0.42893 0.78726 0.74228-0.53704
   3   7   6   78.64   85.03   1 0.49054-0.28545-0.48938 0.83255 0.72102-0.47473
   3   7   7  189.98   88.73   1 0.46521-0.26644-0.54365 0.87169 0.69857-0.41128
   3   7   821566.66 1262.76   1 0.44090-0.24882-0.59142 0.90432 0.67513-0.34680
   3   7   9 2886.22  274.33   1 0.41757-0.23218-0.63297 0.93073 0.65190-0.28252
   3   7  10   14.98   28.80   1 0.47290-0.29295-0.65877 0.94016 0.58512-0.17400
   3   7  10   -0.40   82.77   1 0.39445-0.21621-0.66925 0.95148 0.62967-0.21890
   3   7  1119031.58  893.02   1 0.54024-0.36695-0.66169 0.92777 0.51990-0.06767
   3   7  1117038.44 1095.46   1 0.37438-0.20284-0.69948 0.96656 0.60873-0.15688
   3   7  12   25.65   48.14   1 0.57584-0.40944-0.66093 0.91225 0.48121 0.01184
   3   7  12  145.64   70.14   1 0.35638-0.19154-0.72478 0.97670 0.58963-0.09671
   3   7  13  622.43  139.04   1 0.59803-0.43830-0.65937 0.89538 0.45561 0.07853
   3   7  13  429.99  132.19   1 0.34059-0.18246-0.74568 0.98245 0.57266-0.03865
   3   7  14 5637.17  391.79   1 0.61076-0.45771-0.65810 0.87880 0.44031 0.13492
   3   7  14 4903.51  429.59   1 0.32706-0.17563-0.76269 0.98430 0.55795 0.01712
   3   7  15 9938.91  675.48   1 0.61734-0.47097-0.65732 0.86272 0.43220 0.18411
   3   7  15 8399.53 1092.82   1 0.31578-0.17105-0.77627 0.98273 0.54559 0.07056
   3   7  16   89.31   94.12   1 0.61966-0.47996-0.65703 0.84711 0.42932 0.22809
   3   7  16   97.11   88.68   1 0.30645-0.16838-0.78814 0.97794 0.53377 0.12356
   3   7  17  -11.39   90.99   1 0.61883-0.48581-0.65714 0.83191 0.43035 0.26815
   3   7  17   44.44   68.59   1 0.29945-0.16803-0.79603 0.97058 0.52598 0.17243
   3   7  18   34.38   98.50   1 0.61558-0.48923-0.65754 0.81700 0.43438 0.30520
   3   7  18  -18.06  105.28   1 0.29445-0.16969-0.80153 0.96083 0.52041 0.21908
   3   7  19 7069.58  428.93   1 0.61037-0.49069-0.65814 0.80229 0.44077 0.33990
   3   7  19 4683.94  799.25   1 0.29137-0.17325-0.80488 0.94893 0.51696 0.26362
   3   7  20 1360.16  263.70   1 0.60352-0.49052-0.65885 0.78770 0.44906 0.37270
   3   7  20 1144.48  201.90   1 0.29008-0.17862-0.80627 0.93507 0.51552 0.30614
   3   7  21  524.74  169.11   1 0.59525-0.48892-0.65961 0.77314 0.45888 0.40397
   3   7  21  568.17  229.90   1 0.29049-0.18568-0.80583 0.91938 0.51598 0.34677
   3   7  22  315.66  148.48   1 0.29250-0.19434-0.80366 0.90196 0.51823 0.38561
  -3  -8  12  106.47  141.57   1 0.66848-0.99115-0.64833-0.03257 0.36440 0.12866
  -3  -8  11  281.86  165.96   1 0.67863-0.99455-0.64586-0.01971 0.34972 0.10230
  -3  -8  10  -67.29  103.81   1 0.68790-0.99716-0.64334-0.00692 0.33598 0.07494
  -3  -8   9 1993.96  266.89   1 0.69630-0.99889-0.64085 0.00588 0.32319 0.04664
  -3  -8   8   77.30  106.90   1 0.70375-0.99967-0.63847 0.01881 0.31157 0.01717
   3   8  -8 -111.61   99.29   1 0.56044-0.26416 0.53311 0.08600 0.63378-0.96063
  -3  -8   7  592.04  168.98   1 0.71014-0.99939-0.63629 0.03193 0.30137-0.01372
   3   8  -7  425.78  150.88   1 0.57611-0.28679 0.47720 0.12661 0.66359-0.94958
  -3  -8   6  296.04  138.81   1 0.71530-0.99789-0.63442 0.04537 0.29297-0.04641
   3   8  -6   86.89   87.70   1 0.58860-0.30691 0.41893 0.16847 0.69140-0.93670
  -3  -8   5  252.68   96.45   1 0.71899-0.99491-0.63304 0.05929 0.28687-0.08141
   3   8  -5  299.13  128.01   1 0.59968-0.32481 0.35651 0.21572 0.71643-0.92084
  -3  -8   4  -48.07   74.80   1 0.72083-0.99008-0.63233 0.07389 0.28380-0.11943
   3   8  -4    2.44   79.05   1 0.60832-0.33983 0.29104 0.26626 0.73839-0.90200
  -3  -8   3 3066.62  265.31   1 0.72022-0.98280-0.63257 0.08943 0.28484-0.16156
   3   8  -3 1972.07  241.31   1 0.61387-0.35219 0.22318 0.31894 0.75719-0.87990
  -3  -8   2  416.05  124.59   1 0.71610-0.97201-0.63413 0.10630 0.29166-0.20947
   3   8  -2  302.90  153.67   1 0.61637-0.36151 0.15325 0.37369 0.77239-0.85420
  -3  -8   1 5973.24  219.85   1 0.70659-0.95584-0.63752 0.12499 0.30706-0.26596
   3   8  -1 4442.17  277.88   1 0.61587-0.36806 0.08183 0.42972 0.78358-0.82454
  -3  -8   0 2067.31  130.11   1 0.68785-0.93042-0.64336 0.14615 0.33606-0.33606
   3   8   0 2284.42  269.19   1 0.61198-0.37091 0.00951 0.48687 0.79080-0.79080
  -3  -8  -1  232.16   56.01   1 0.65061-0.88651-0.65212 0.17024 0.38915-0.43024
   3   8   1  343.64  131.26   1 0.60461-0.36959-0.06310 0.54437 0.79401-0.75302
   3   8   2  626.16  149.58   1 0.59440-0.36611-0.13442 0.60050 0.79285-0.71088
   3   8   3  766.24  149.80   1 0.58041-0.35902-0.20376 0.65457 0.78841-0.66530
   3   8   5 3184.40  305.89   1 0.54740-0.33951-0.33346 0.75396 0.76755-0.56237
   3   8   6 2392.70  243.79   1 0.52793-0.32678-0.39248 0.79768 0.75315-0.50686
   3   8   7 6753.76  493.73   1 0.50807-0.31367-0.44653 0.83656 0.73652-0.44918
   3   8   8 8417.76  571.75   1 0.48789-0.30024-0.49551 0.87038 0.71862-0.39023
   3   8   9 1123.87  166.47   1 0.46720-0.28578-0.53952 0.89928 0.70045-0.33107
   3   8  10  149.06   95.20   1 0.44788-0.27314-0.57822 0.92285 0.68194-0.27153
   3   8  11  562.54  132.52   1 0.42962-0.26157-0.61200 0.94149 0.66398-0.21252
   3   8  12   15.65   38.94   1 0.38901-0.22590-0.64722 0.96055 0.65556-0.16214
   3   8  12  -25.82  104.00   1 0.41272-0.25137-0.64112 0.95547 0.64699-0.15449
   3   8  1315648.95  913.41   1 0.39612-0.24198-0.66664 0.96538 0.63140-0.09739
   3   8  1416871.14 1050.05   1 0.48516-0.33575-0.65971 0.94194 0.57392 0.00164
   3   8  1415990.37 1236.92   1 0.38253-0.23509-0.68747 0.97105 0.61728-0.04220
   3   8  1524208.07 4656.94   1 0.50949-0.36674-0.66105 0.92798 0.55083 0.06584
   3   8  1520611.56 1204.67   1 0.37077-0.23003-0.70469 0.97311 0.60492 0.01123
   3   8  16 1050.48  174.71   1 0.52492-0.38885-0.66153 0.91315 0.53556 0.12222
   3   8  16  966.16  200.54   1 0.36086-0.22683-0.71863 0.97190 0.59441 0.06281
   3   8  17   31.00   84.55   1 0.53412-0.40471-0.66166 0.89798 0.52622 0.17268
   3   8  17   32.16   44.43   1 0.35281-0.22548-0.72961 0.96772 0.58581 0.11249
   3   8  18  557.31  157.70   1 0.53873-0.41600-0.66169 0.88270 0.52146 0.21855
   3   8  18  470.69  132.41   1 0.34658-0.22595-0.73790 0.96086 0.57911 0.16027
   3   8  19  446.77  253.38   1 0.53984-0.42377-0.66169 0.86740 0.52032 0.26080
   3   8  19  834.89  169.73   1 0.34211-0.22818-0.74373 0.95153 0.57429 0.20617
   3   8  20   56.51   63.65   1 0.33934-0.23212-0.74730 0.93994 0.57130 0.25024
   3   8  21  250.10   95.54   1 0.33821-0.23769-0.74875 0.92624 0.57007 0.29254
  -3  -9  11  133.35  126.41   1 0.67925-0.99127-0.64570-0.08202 0.34881 0.10321
  -3  -9  10  226.77  131.85   1 0.68926-0.99460-0.64296-0.06946 0.33394 0.07699
  -3  -9   9  -56.23   93.48   1 0.69844-0.99712-0.64019-0.05693 0.31988 0.04995
  -3  -9   8  163.93  122.52   1 0.70676-0.99877-0.63746-0.04435 0.30679 0.02195
   3   9  -8   60.40  125.09   1 0.55708-0.26485 0.54384 0.13736 0.62760-0.95445
  -3  -9   7  399.96  185.62   1 0.71413-0.99947-0.63486-0.03164 0.29490-0.00724
   3   9  -7  439.56  192.88   1 0.57224-0.28696 0.49208 0.17383 0.65604-0.94203
  -3  -9   6  122.57  157.63   1 0.72043-0.99910-0.63249-0.01871 0.28448-0.03792
   3   9  -6   50.33   87.52   1 0.58449-0.30691 0.43843 0.21103 0.68274-0.92804
  -3  -9   5   79.20  127.54   1 0.72549-0.99749-0.63048-0.00541 0.27595-0.07049
   3   9  -5  261.25  160.82   1 0.59562-0.32486 0.38143 0.25285 0.70691-0.91133
  -3  -9   4  335.82  129.26   1 0.72904-0.99438-0.62901 0.00842 0.26987-0.10549
   3   9  -4  277.09  184.54   1 0.60450-0.34055 0.32214 0.29698 0.72855-0.89208
  -3  -9   3  282.51  104.23   1 0.73067-0.98934-0.62832 0.02304 0.26706-0.14378
   3   9  -3  112.13   94.91   1 0.61120-0.35356 0.26064 0.34355 0.74732-0.87003
  -3  -9   2   32.52   59.97   1 0.72966-0.98166-0.62875 0.03877 0.26880-0.18661
   3   9  -2 -131.42  106.81   1 0.61516-0.36433 0.19763 0.39137 0.76322-0.84503
  -3  -9   1  668.34  107.91   1 0.72478-0.97011-0.63077 0.05609 0.27716-0.23607
   3   9  -1  671.64  182.04   1 0.61665-0.37285 0.13338 0.44022 0.77585-0.81681
  -3  -9   0 1494.69  182.24   1 0.71357-0.95224-0.63506 0.07569 0.29580-0.29580
   3   9   0 1035.46  172.45   1 0.61539-0.37833 0.06829 0.49014 0.78525-0.78525
   3   9   1  150.63   86.60   1 0.61148-0.38116 0.00309 0.54017 0.79124-0.75028
   3   9   2 5863.29  321.95   1 0.60474-0.38042-0.06202 0.59016 0.79399-0.71202
   3   9   3 1441.30  216.34   1 0.59584-0.37825-0.12553 0.63848 0.79322-0.67026
   3   9   4  -30.65   93.09   1 0.58477-0.37390-0.18714 0.68491 0.78931-0.62537
   3   9   5  378.67  137.56   1 0.57086-0.36691-0.24632 0.72886 0.78322-0.57803
   3   9   6  168.79  139.44   1 0.55640-0.35921-0.30233 0.76971 0.77395-0.52773
   3   9   7 7755.12  480.13   1 0.54084-0.35040-0.35475 0.80698 0.76264-0.47538
   3   9   8  300.53  130.76   1 0.52404-0.34034-0.40359 0.84048 0.74998-0.42160
   3   9   9  753.05  190.00   1 0.50752-0.33056-0.44794 0.86966 0.73604-0.36661
   3   9  10   96.91  105.95   1 0.49113-0.32092-0.48800 0.89456 0.72155-0.31107
   3   9  11  175.29  149.02   1 0.47448-0.31041-0.52404 0.91553 0.70727-0.25581
   3   9  12 2925.79  307.34   1 0.45935-0.30196-0.55564 0.93199 0.69300-0.20050
   3   9  13  241.37  108.81   1 0.44526-0.29457-0.58321 0.94443 0.67940-0.14586
   3   9  14 1573.36  184.96   1 0.43242-0.28841-0.60698 0.95305 0.66676-0.09218
   3   9  15  131.08  166.39   1 0.42096-0.28364-0.62716 0.95810 0.65532-0.03969
   3   9  16 4712.14  545.22   1 0.41098-0.28035-0.64402 0.95982 0.64522 0.01143
   3   9  17  999.44  186.10   1 0.40254-0.27860-0.65779 0.95846 0.63660 0.06110
   3   9  18  284.85  169.18   1 0.39434-0.27770-0.66944 0.95436 0.62955 0.10983
   3   9  19  266.97  128.88   1 0.38901-0.27908-0.67767 0.94744 0.62404 0.15642
   3   9  20  192.09  122.78   1 0.38524-0.28201-0.68341 0.93802 0.62010 0.20143
   3   9  21  307.87  144.08   1 0.38298-0.28645-0.68681 0.92627 0.61774 0.24487
  -3 -10   9  755.74  215.97   1 0.69702-0.99178-0.64063-0.11863 0.32209 0.04774
  -3 -10   8  236.36  178.17   1 0.70602-0.99412-0.63771-0.10625 0.30797 0.02077
  -3 -10   7  382.28  165.14   1 0.71413-0.99556-0.63486-0.09380 0.29489-0.00724
   3  10  -7  564.42  172.31   1 0.56746-0.28622 0.50941 0.21858 0.64690-0.93289
  -3 -10   6  153.87  137.91   1 0.72126-0.99602-0.63216-0.08118 0.28309-0.03653
   3  10  -6  443.36  167.79   1 0.57962-0.30614 0.45976 0.25174 0.67279-0.91809
  -3 -10   5   41.46   86.78   1 0.72728-0.99538-0.62974-0.06830 0.27289-0.06742
   3  10  -5  183.74  141.13   1 0.59088-0.32422 0.40737 0.28897 0.69634-0.90076
  -3 -10   4 1483.15  185.25   1 0.73200-0.99342-0.62775-0.05498 0.26475-0.10037
   3  10  -4 1300.30  213.30   1 0.60019-0.34035 0.35311 0.32806 0.71768-0.88121
  -3 -10   3 2326.01  288.38   1 0.73509-0.98985-0.62640-0.04103 0.25933-0.13605
   3  10  -3 1925.46  330.66   1 0.60768-0.35407 0.29704 0.36922 0.73653-0.85924
  -3 -10   2   42.66   63.06   1 0.73604-0.98413-0.62597-0.02615 0.25764-0.17545
   3  10  -2  116.85  153.86   1 0.61280-0.36602 0.23978 0.41130 0.75297-0.83477
  -3 -10   1  143.72   65.98   1 0.73398-0.97540-0.62689-0.00992 0.26128-0.22019
   3  10  -1  107.27  112.59   1 0.61575-0.37577 0.18150 0.45440 0.76675-0.80765
   3  10   0  803.26  189.33   1 0.61662-0.38358 0.12240 0.49807 0.77767-0.77767
   3  10   1  460.44  142.84   1 0.61518-0.38887 0.06316 0.54214 0.78584-0.74488
   3  10   2 3183.63  338.71   1 0.61157-0.39200 0.00422 0.58591 0.79117-0.70925
   3  10   3  -20.59  104.03   1 0.60564-0.39201-0.05443 0.62943 0.79387-0.67091
   3  10   4  471.48  150.88   1 0.59806-0.39116-0.11131 0.67113 0.79368-0.62974
   3  10   5   54.37   98.48   1 0.58878-0.38861-0.16636 0.71099 0.79098-0.58605
   3  10   6  517.46  188.40   1 0.57707-0.38382-0.21928 0.74870 0.78670-0.54048
   3  10   710444.93  668.86   1 0.56518-0.37868-0.26934 0.78360 0.77975-0.49249
   3  10   8 4875.21  395.73   1 0.55244-0.37270-0.31632 0.81543 0.77119-0.44289
   3  10   9  774.94  156.92   1 0.53918-0.36619-0.35997 0.84392 0.76137-0.39204
   3  10  10 7658.94  571.10   1 0.52513-0.35887-0.40052 0.86910 0.75087-0.34039
   3  10  11  473.73  175.15   1 0.51174-0.35222-0.43703 0.89045 0.73967-0.28814
   3  10  12  558.73  180.26   1 0.49872-0.34595-0.46989 0.90814 0.72833-0.23575
   3  10  13  252.23  191.82   1 0.48631-0.34030-0.49913 0.92222 0.71718-0.18355
   3  10  14  268.06  154.54   1 0.47394-0.33390-0.52521 0.93329 0.70677-0.13218
   3  10  15 2642.57  291.10   1 0.46332-0.32997-0.54755 0.94049 0.69678-0.08116
   3  10  16   21.96  111.06   1 0.45383-0.32717-0.56665 0.94445 0.68770-0.03103
   3  10  17  -10.44  102.00   1 0.44555-0.32558-0.58267 0.94534 0.67968 0.01802
   3  10  18  665.04  194.04   1 0.43855-0.32527-0.59579 0.94331 0.67282 0.06592
   3  10  19   84.13  108.66   1 0.43288-0.32629-0.60615 0.93854 0.66722 0.11256
   3  10  20  173.17  114.34   1 0.42855-0.32865-0.61390 0.93115 0.66291 0.15791
   3  10  21   83.77  116.54   1 0.42556-0.33235-0.61917 0.92128 0.65993 0.20193
   3  11  -7  293.19  157.26   1 0.56180-0.28462 0.52866 0.26143 0.63630-0.92230
   3  11  -6  141.26  132.65   1 0.57489-0.30466 0.48198 0.29280 0.66119-0.90633
   3  11  -5   40.72  109.70   1 0.58543-0.32288 0.43407 0.32432 0.68472-0.88913
   3  11  -4  201.51  169.16   1 0.59516-0.33941 0.38412 0.35911 0.70585-0.86938
   3  11  -3   80.31  100.26   1 0.60310-0.35416 0.33283 0.39523 0.72490-0.84755
   3  11  -2  607.55  189.93   1 0.60942-0.36667 0.28022 0.43293 0.74167-0.82347
   3  11  -1  139.10  153.76   1 0.61365-0.37771 0.22695 0.47102 0.75625-0.79716
   3  11   0  176.88  126.78   1 0.61598-0.38687 0.17313 0.50965 0.76849-0.76849
   3  11   1   89.85  102.01   1 0.61660-0.39430 0.11880 0.54855 0.77825-0.73729
   3  11   2   76.64  149.04   1 0.61525-0.39969 0.06482 0.58736 0.78566-0.70373
   3  11   3  173.48  119.22   1 0.61213-0.40330 0.01139 0.62561 0.79067-0.66779
   3  11   4 4996.38  357.01   1 0.60706-0.40413-0.04164 0.66351 0.79355-0.62961
   3  11   5 4086.08  421.80   1 0.60074-0.40454-0.09280 0.69949 0.79403-0.58910
   3  11   6  220.06  126.55   1 0.59308-0.40360-0.14223 0.73373 0.79247-0.54656
   3  11   7 3877.41  392.78   1 0.58429-0.40154-0.18956 0.76587 0.78909-0.50219
   3  11   8  331.51  142.63   1 0.57359-0.39779-0.23470 0.79584 0.78479-0.45650
   3  11   9  229.80  124.53   1 0.56323-0.39418-0.27693 0.82291 0.77851-0.40917
   3  11  10 1095.22  178.06   1 0.55246-0.39017-0.31626 0.84709 0.77120-0.36083
   3  11  11   81.64  123.20   1 0.54154-0.38599-0.35254 0.86821 0.76317-0.31177
   3  11  12  109.41  124.30   1 0.53009-0.38127-0.38618 0.88646 0.75488-0.26230
   3  11  13 5565.60  639.68   1 0.51952-0.37745-0.41617 0.90128 0.74625-0.21262
   3  11  14 2295.12  315.93   1 0.50945-0.37413-0.44298 0.91293 0.73771-0.16303
   3  11  15  132.36  124.32   1 0.50004-0.37146-0.46666 0.92144 0.72950-0.11378
   3  11  16  332.24  209.03   1 0.49144-0.36961-0.48728 0.92690 0.72182-0.06505
   3  11  17   26.11  107.58   1 0.48375-0.36867-0.50494 0.92940 0.71484-0.01702
   3  11  18  565.46  161.22   1 0.47709-0.36875-0.51974 0.92903 0.70869 0.03017
   3  11  19  234.15  195.26   1 0.47062-0.36800-0.53231 0.92670 0.70366 0.07612
   3  11  20  386.31  184.44   1 0.46614-0.37021-0.54173 0.92098 0.69945 0.12138
   3  12  -6  226.69  141.76   1 0.56845-0.30226 0.50591 0.33097 0.64878-0.89391
   3  12  -5  246.05  188.80   1 0.57924-0.32079 0.46136 0.35908 0.67202-0.87644
   3  12  -4   36.20  106.52   1 0.58936-0.33772 0.41513 0.39014 0.69304-0.85657
   3  12  -3   71.46  105.44   1 0.59790-0.35308 0.36779 0.42232 0.71220-0.83485
   3  12  -2  184.32  208.22   1 0.60483-0.36682 0.31953 0.45541 0.72942-0.81119
   3  12  -1  347.23  214.54   1 0.61035-0.37846 0.27034 0.48970 0.74456-0.78546
   3  12   0 2014.87  286.52   1 0.61400-0.38893 0.22090 0.52396 0.75775-0.75775
   3  12   1 6061.36  443.73   1 0.61603-0.39777 0.17126 0.55842 0.76887-0.72797
   3  12   2  900.71  223.59   1 0.61662-0.40507 0.12129 0.59294 0.77786-0.69593
   3  12   3 1748.30  276.96   1 0.61553-0.41073 0.07203 0.62702 0.78480-0.66192
   3  12   4  326.99  197.92   1 0.61299-0.41492 0.02351 0.66037 0.78973-0.62589
   3  12   5  445.81  196.33   1 0.60909-0.41775-0.02397 0.69268 0.79273-0.58793
   3  12   6  171.42  134.13   1 0.60367-0.41815-0.07076 0.72432 0.79408-0.54817
   3  12   7 3922.15  487.92   1 0.59745-0.41867-0.11528 0.75365 0.79357-0.50667
   3  12   8  251.92  182.09   1 0.59034-0.41828-0.15786 0.78104 0.79156-0.46368
   3  12   9 1044.02  248.00   1 0.58251-0.41718-0.19826 0.80626 0.78826-0.41940
   3  12  10  128.91  122.42   1 0.57316-0.41481-0.23653 0.82940 0.78455-0.37418
   3  12  11   22.29  120.45   1 0.56450-0.41291-0.27197 0.84968 0.77933-0.32792
   3  12  12 1992.44  277.25   1 0.55573-0.41088-0.30472 0.86728 0.77349-0.28105
   3  12  13   -8.05  121.24   1 0.54703-0.40893-0.33470 0.88210 0.76728-0.23380
   3  12  14 3816.10  332.60   1 0.53858-0.40723-0.36185 0.89410 0.76091-0.18639
   3  12  16  925.82  221.04   1 0.52238-0.40450-0.40827 0.90991 0.74861-0.09184
   3  12  17   28.77  106.86   1 0.51553-0.40440-0.42699 0.91346 0.74289-0.04507
   3  12  18   70.73  151.26   1 0.50945-0.40507-0.44297 0.91428 0.73771 0.00115
   3  12  19  448.31  201.68   1 0.50423-0.40660-0.45626 0.91241 0.73319 0.04672
   3  13  -4   78.87  140.04   1 0.58277-0.33524 0.44614 0.42118 0.67920-0.84274
   3  13  -3 -166.93  113.85   1 0.59186-0.35114 0.40225 0.44991 0.69849-0.82113
   3  13  -2   98.57  112.26   1 0.59951-0.36561 0.35758 0.47941 0.71603-0.79780
   3  13  -1   90.36  172.38   1 0.60572-0.37862 0.31233 0.50949 0.73180-0.77269
   3  13   0  584.22  180.59   1 0.61070-0.38966 0.26645 0.54048 0.74568-0.74568
   3  13   1  120.69  130.48   1 0.61402-0.39980 0.22062 0.57112 0.75782-0.71692
   3  13   2  -38.95  113.07   1 0.61594-0.40853 0.17486 0.60170 0.76813-0.68633
   3  13   3  579.36  163.54   1 0.61665-0.41586 0.12889 0.63221 0.77661-0.65372
   3  13   4  595.95  212.85   1 0.61593-0.42188 0.08391 0.66202 0.78331-0.61946
   3  13   5  897.68  204.62   1 0.61400-0.42669 0.03976 0.69099 0.78829-0.58349
   3  13   6 1265.92  270.20   1 0.61096-0.43038-0.00328 0.71887 0.79165-0.54588
   3  13   7 1651.89  250.27   1 0.60662-0.43180-0.04571 0.74613 0.79367-0.50677
   3  13   8  -25.11  112.64   1 0.60169-0.43360-0.08588 0.77112 0.79409-0.46621
   3  13   9  964.10  207.75   1 0.59605-0.43468-0.12425 0.79430 0.79327-0.42440
   3  13  10   69.66  118.06   1 0.58984-0.43520-0.16063 0.81549 0.79138-0.38153
   3  13  11  165.96  177.67   1 0.58322-0.43531-0.19484 0.83451 0.78859-0.33776
   3  13  12  123.10  184.67   1 0.57534-0.43445-0.22700 0.85159 0.78577-0.29332
   3  13  13  112.38  142.38   1 0.56840-0.43425-0.25646 0.86590 0.78175-0.24827
   3  13  14  448.98  203.13   1 0.56152-0.43412-0.28342 0.87770 0.77740-0.20288
   3  13  15 1177.65  210.27   1 0.55486-0.43421-0.30784 0.88696 0.77289-0.15733
   3  13  16  237.55  117.60   1 0.54854-0.43464-0.32967 0.89363 0.76838-0.11179
   3  13  17  102.40  115.46   1 0.54268-0.43553-0.34890 0.89772 0.76404-0.06640
   3  13  18   35.02  109.80   1 0.53738-0.43698-0.36555 0.89921 0.75998-0.02131
   3  14  -1   85.55  121.62   1 0.60024-0.37725 0.35278 0.53110 0.71780-0.75868
   3  14   0   20.53  120.08   1 0.60594-0.38976 0.31047 0.55825 0.73241-0.73241
   3  14   1  -42.10  113.90   1 0.61058-0.40040 0.26774 0.58607 0.74531-0.70440
   3  14   2  108.96  122.03   1 0.61374-0.41037 0.22532 0.61331 0.75666-0.67485
   3  14   3  526.71  208.56   1 0.61569-0.41914 0.18316 0.64029 0.76639-0.64369
   3  14   4  930.28  240.81   1 0.61648-0.42674 0.14146 0.66681 0.77455-0.61094
   3  14   5  167.46  171.99   1 0.61633-0.43303 0.09975 0.69305 0.78113-0.57633
   3  14   6  262.04  170.51   1 0.61502-0.43845 0.05956 0.71807 0.78625-0.54048
   3  14   7  471.83  205.83   1 0.61278-0.44295 0.02049 0.74197 0.78998-0.50325
   3  14   8 1162.07  207.90   1 0.60972-0.44663-0.01726 0.76455 0.79242-0.46473
   3  14   9 1876.33  288.15   1 0.60565-0.44825-0.05429 0.78640 0.79387-0.42500
   3  14  10  797.29  242.60   1 0.60129-0.45062-0.08888 0.80580 0.79407-0.38422
   3  14  11 5775.93  454.71   1 0.59647-0.45253-0.12160 0.82333 0.79336-0.34253
   3  14  12  806.93  223.99   1 0.59133-0.45411-0.15234 0.83888 0.79190-0.30008
   3  14  13  130.59  170.89   1 0.58599-0.45551-0.18095 0.85231 0.78984-0.25704
   3  14  14   93.10  124.43   1 0.57960-0.45615-0.20759 0.86391 0.78801-0.21348
   3  14  15   15.85  115.69   1 0.57428-0.45758-0.23167 0.87283 0.78518-0.16963
   3  14  16    0.06  114.96   1 0.56915-0.45920-0.25340 0.87940 0.78220-0.12561
   3  15   3  418.42  207.29   1 0.61317-0.42066 0.23435 0.65117 0.75438-0.63167
   3  15   4  121.00  124.15   1 0.61524-0.42954 0.19552 0.67482 0.76370-0.60008
   3  15   5  117.44  128.31   1 0.61631-0.43743 0.15728 0.69787 0.77162-0.56711
   3  15   6  103.95  177.34   1 0.61660-0.44405 0.11905 0.72063 0.77821-0.53245
   3  15   7  282.42  193.95   1 0.61589-0.45007 0.08245 0.74205 0.78350-0.49677
   3  15   8   87.64  135.28   1 0.61440-0.45532 0.04699 0.76234 0.78758-0.45990
   3  15   9  444.10  184.86   1 0.61223-0.45989 0.01283 0.78133 0.79056-0.42192
   3  15  10   17.89  119.07   1 0.60948-0.46387-0.01986 0.79885 0.79254-0.38293
   3  15  11  -23.70  125.75   1 0.60593-0.46596-0.05183 0.81562 0.79382-0.34298
   3  15  12 1361.33  279.61   1 0.60232-0.46907-0.08121 0.82981 0.79410-0.30228
   3  15  13  278.53  196.15   1 0.59845-0.47192-0.10872 0.84213 0.79374-0.26094
  -4  13  10  384.70  196.66   1-0.44802-0.03541-0.23749 0.89197 0.86190-0.45070
   4 -13  -9   87.34  102.80   1 0.49401-0.01733 0.20919-0.88048-0.84391 0.47375
  -4  13   9   74.77  124.53   1-0.48412 0.00741-0.20750 0.87726 0.85003-0.47995
   4 -13  -8   85.37   71.13   1 0.53010-0.06001 0.17725-0.86384-0.82919 0.50016
  -4  13   8   56.68  119.75   1-0.52060 0.05061-0.17568 0.86071 0.83552-0.50656
   4 -13  -7  -48.13  101.59   1 0.56603-0.10254 0.14373-0.84561-0.81175 0.52385
  -4  13   7   32.92  112.08   1-0.55699 0.09372-0.14224 0.84254 0.81824-0.53040
   4 -13  -6 1406.74  256.76   1 0.60228-0.14525 0.10933-0.82609-0.79075 0.54448
  -4  13   6 1560.92  249.95   1-0.59194 0.13469-0.10698 0.82284 0.79884-0.55206
   4 -13  -5  651.67  271.84   1 0.63643-0.18601 0.07355-0.80553-0.76781 0.56258
   4 -13  -4  199.55  116.80   1 0.66911-0.22530 0.03706-0.78427-0.74223 0.57805
   4 -13  -3  726.93  242.99   1 0.69989-0.26271 0.00022-0.76263-0.71424 0.59107
   4 -13  -2   80.36   87.55   1 0.72862-0.29806-0.03669-0.74092-0.68392 0.60181
   4 -13  -1  216.10   97.08   1 0.75500-0.33105-0.07337-0.71946-0.65160 0.61054
   4 -13   0  -18.80  117.05   1 0.77771-0.36110-0.11021-0.69756-0.61888 0.61888
   4 -13   1  382.79  234.91   1 0.79905-0.38901-0.14566-0.67736-0.58334 0.62438
  -4  12  13  263.32  214.57   1-0.27907-0.22028-0.36182 0.90854 0.88949-0.35499
  -4  12  12  252.94  176.23   1-0.31211-0.18082-0.33912 0.90121 0.88745-0.39383
  -4  12  11 2120.70  295.71   1-0.34752-0.13867-0.31430 0.89166 0.88342-0.43094
  -4  12  10  189.68  170.21   1-0.38465-0.09480-0.28712 0.87973 0.87727-0.46592
  -4  12   9 2991.86  340.90   1-0.42311-0.04959-0.25762 0.86548 0.86867-0.49846
   4 -12  -8  -40.57   94.33   1 0.47171-0.00567 0.22814-0.85250-0.85172 0.52269
  -4  12   8  -15.32  106.60   1-0.46213-0.00390-0.22594 0.84887 0.85754-0.52858
   4 -12  -7  597.37  154.10   1 0.51106-0.05161 0.19431-0.83396-0.83729 0.54939
  -4  12   7  530.94  165.93   1-0.50186 0.04254-0.19223 0.83044 0.84331-0.55547
   4 -12  -6  587.19  151.53   1 0.55015-0.09731 0.15877-0.81371-0.81982 0.57305
  -4  12   6  428.20  175.17   1-0.54140 0.08881-0.15678 0.81026 0.82601-0.57929
   4 -12  -5  426.57  143.75   1 0.58936-0.14299 0.12232-0.79215-0.79855 0.59333
  -4  12   5  371.72  182.59   1-0.57934 0.13276-0.11942 0.78842 0.80628-0.60063
   4 -12  -4 3402.72  765.86   1 0.62628-0.18653 0.08442-0.76947-0.77501 0.61083
  -4  12   4 4439.99  367.43   1-0.61689 0.17692-0.08156 0.76577 0.78281-0.61829
   4 -12  -3 3950.18  715.95   1 0.66145-0.22831 0.04584-0.74611-0.74858 0.62544
   4 -12  -2  479.86  221.67   1 0.69442-0.26791 0.00696-0.72243-0.71953 0.63742
   4 -12  -1  828.48  190.17   1 0.72499-0.30510-0.03186-0.69882-0.68801 0.64696
   4 -12   0  125.79   62.48   1 0.75287-0.33960-0.07030-0.67560-0.65439 0.65439
   4 -12   1   32.06  117.68   1 0.77682-0.37081-0.10880-0.65208-0.62024 0.66127
   4 -12   2  968.35  237.21   1 0.79904-0.39960-0.14565-0.63049-0.58336 0.66542
   4 -12   3  138.84  133.92   1 0.81835-0.42548-0.18136-0.61004-0.54534 0.66843
   4 -12   4 1261.53  263.03   1 0.83408-0.44809-0.21651-0.59022-0.50736 0.67144
  -4  11  15 2130.57  307.61   1-0.15216-0.35671-0.43984 0.89470 0.88509-0.26878
  -4  11  14  849.21  203.01   1-0.17900-0.32319-0.42403 0.89336 0.88777-0.31216
  -4  11  13 1267.62  248.48   1-0.20999-0.28545-0.40556 0.89017 0.88961-0.35512
  -4  11  12 1301.67  241.84   1-0.24371-0.24499-0.38466 0.88455 0.89030-0.39692
  -4  11  11   32.82  122.70   1-0.27997-0.20198-0.36122 0.87639 0.88945-0.43718
  -4  11  10 1833.65  275.39   1-0.31812-0.15739-0.33498 0.86549 0.88689-0.47554
  -4  11   9 1233.50  266.16   1-0.35854-0.11021-0.30636 0.85212 0.88180-0.51159
  -4  11   8  251.81  208.04   1-0.40044-0.06157-0.27518 0.83620 0.87402-0.54494
  -4  11   7 3537.71  373.57   1-0.44297-0.01239-0.24157 0.81768 0.86337-0.57553
   4 -11  -6 1033.07  294.87   1 0.49498-0.04618 0.20835-0.80107-0.84354 0.59677
  -4  11   6 1365.94  257.57   1-0.48614 0.03749-0.20578 0.79717 0.84930-0.60258
   4 -11  -5   31.34   65.39   1 0.53740-0.09519 0.17059-0.77860-0.82589 0.62024
   4 -11  -4  315.17  118.78   1 0.57963-0.14394 0.13192-0.75481-0.80412 0.63994
  -4  11   4  375.66  179.10   1-0.57002 0.13411-0.12847 0.75059 0.81152-0.64700
  -4  11   3  903.94  215.92   1-0.61035 0.18106-0.08832 0.72566 0.78718-0.66379
   4 -11  -2 3425.82  584.99   1 0.65696-0.23450 0.05091-0.70424-0.75219 0.67010
   4 -11  -1 1305.26  231.29   1 0.69200-0.27617 0.00991-0.67843-0.72182 0.68076
   4 -11   0  470.33  246.23   1 0.72424-0.31503-0.03087-0.65287-0.68884 0.68884
   4 -11   1  198.63  147.84   1 0.75341-0.35081-0.07107-0.62789-0.65369 0.69474
   4 -11   2  264.40  210.44   1 0.77833-0.38292-0.11119-0.60281-0.61792 0.69998
   4 -11   3  183.19  187.68   1 0.80114-0.41230-0.14934-0.57992-0.57953 0.70263
   4 -11   4   38.43  134.51   1 0.82076-0.43849-0.18613-0.55839-0.54008 0.70421
   4 -11   5 1934.12  317.74   1 0.83662-0.46131-0.22223-0.53765-0.50067 0.70577
   4 -11   6  -31.41  130.36   1 0.85027-0.48166-0.25599-0.51917-0.45989 0.70601
   4 -11   7 2080.32  337.46   1 0.86112-0.49920-0.28812-0.50233-0.41886 0.70601
  -4  10  16  340.85  207.05   1-0.06015-0.45156-0.48898 0.86648 0.87021-0.21282
  -4  10  15  593.12  189.66   1-0.08414-0.42082-0.47673 0.86946 0.87501-0.25871
  -4  10  14  207.30  137.85   1-0.11125-0.38696-0.46241 0.87038 0.87965-0.30444
  -4  10  13 2145.16  328.85   1-0.14152-0.34994-0.44582 0.86903 0.88386-0.34973
  -4  10  12  514.28  196.96   1-0.17373-0.31105-0.42711 0.86488 0.88735-0.39396
  -4  10  11   44.26  122.35   1-0.21022-0.26782-0.40542 0.85847 0.88962-0.43736
  -4  10  10  349.08  199.10   1-0.24957-0.22172-0.38094 0.84927 0.89027-0.47912
  -4  10   9   97.77  150.50   1-0.29148-0.17307-0.35358 0.83719 0.88883-0.51879
  -4  10   8 4175.74  330.12   1-0.33509-0.12298-0.32313 0.82206 0.88503-0.55595
  -4  10   7 5748.88  377.33   1-0.38070-0.07062-0.29006 0.80425 0.87802-0.59007
  -4  10   6   62.57  154.23   1-0.42728-0.01731-0.25434 0.78378 0.86760-0.62079
   4 -10  -5 5733.28  630.26   1 0.48228-0.04412 0.21923-0.76502-0.84813 0.64249
  -4  10   5 5791.72  642.87   1-0.47385 0.03587-0.21618 0.76074 0.85365-0.64805
   4 -10  -4 1616.15  298.14   1 0.52817-0.09660 0.17900-0.74008-0.83005 0.66553
  -4  10   4 1736.22  271.03   1-0.52019 0.08893-0.17605 0.73589 0.83570-0.67122
   4 -10  -3  209.55  138.24   1 0.57350-0.14848 0.13789-0.71384-0.80751 0.68438
  -4  10   3   98.01  114.53   1-0.56437 0.13914-0.13389 0.70914 0.81458-0.69119
   4 -10  -2   74.96   65.33   1 0.61601-0.19761 0.09521-0.68638-0.78196 0.69987
  -4  10   2   75.62  107.60   1-0.60749 0.18888-0.09126 0.68173 0.78906-0.70680
   4 -10  -1  558.35  186.60   1 0.65598-0.24419 0.05202-0.65841-0.75298 0.71193
   4 -10   0  102.05  123.97   1 0.69291-0.28776 0.00880-0.63039-0.72096 0.72096
   4 -10   1 4437.77  676.92   1 0.72657-0.32804-0.03396-0.60284-0.68624 0.72729
   4 -10   2 4901.54  861.33   1 0.75673-0.36481-0.07588-0.57614-0.64930 0.73141
   4 -10   3  182.91  166.60   1 0.78229-0.39748-0.11753-0.54959-0.61171 0.73481
   4 -10   4    4.97  112.32   1 0.80534-0.42710-0.15686-0.52552-0.57167 0.73580
   4 -10   5  149.42  140.72   1 0.82493-0.45326-0.19457-0.50307-0.53068 0.73585
   4 -10   6  201.61  147.11   1 0.84056-0.47593-0.23144-0.48159-0.48977 0.73590
   4 -10   7 1382.19  319.43   1 0.85376-0.49583-0.26567-0.46265-0.44776 0.73491
   4 -10   8  207.40  213.24   1 0.86403-0.51280-0.29808-0.44552-0.40568 0.73385
   4 -10   9  574.32  208.10   1 0.87145-0.52611-0.32927-0.43077-0.36350 0.73323
  -4   9  17  371.82  209.25   1 0.02410-0.53826-0.52918 0.82939 0.84816-0.14960
  -4   9  16  356.93  207.55   1 0.00500-0.51242-0.52054 0.83598 0.85382-0.19635
  -4   9  15  507.63  203.05   1-0.01724-0.48381-0.50994 0.84054 0.86003-0.24373
  -4   9  14  440.07  194.26   1-0.04282-0.45149-0.49760 0.84344 0.86634-0.29113
  -4   9  13 4089.70  330.67   1-0.07183-0.41572-0.48306 0.84414 0.87263-0.33850
  -4   9  12 1147.60  231.95   1-0.10436-0.37644-0.46609 0.84241 0.87855-0.38551
  -4   9  11  434.49  142.86   1-0.14041-0.33365-0.44644 0.83800 0.88372-0.43177
  -4   9  10  540.56  153.19   1-0.17878-0.28860-0.42417 0.83039 0.88775-0.47660
  -4   9   9  916.88  195.66   1-0.22150-0.23913-0.39852 0.82002 0.89000-0.51997
  -4   9   8 1961.02  304.83   1-0.26710-0.18679-0.36966 0.80644 0.88994-0.56102
  -4   9   7 7493.36  383.73   1-0.31466-0.13273-0.33737 0.78945 0.88722-0.59928
  -4   9   6  189.22  159.82   1-0.36433-0.07631-0.30215 0.76949 0.88088-0.63407
  -4   9   5  140.49  115.67   1-0.41497-0.01893-0.26398 0.74658 0.87069-0.66502
   4  -9  -4 4939.73  317.03   1 0.47344-0.04591 0.22669-0.72554-0.85115 0.68663
  -4   9   4 6281.02  358.18   1-0.46549 0.03818-0.22316 0.72091 0.85645-0.69197
   4  -9  -3 2244.39  295.35   1 0.52296-0.10203 0.18370-0.69785-0.83232 0.70893
  -4   9   3 2409.30  265.70   1-0.51545 0.09486-0.18027 0.69329 0.83773-0.71437
   4  -9  -2   91.79   58.27   1 0.57142-0.15708 0.13990-0.66891-0.80864 0.72655
  -4   9   2  -28.09  114.90   1-0.56376 0.14990-0.13581 0.66411 0.81468-0.73244
   4  -9  -1  451.47  105.81   1 0.61666-0.20893 0.09453-0.63876-0.78152 0.74048
  -4   9   1  431.34  185.37   1-0.60870 0.20076-0.09002 0.63361 0.78827-0.74714
   4  -9   0 1606.15  237.49   1 0.65881-0.25770 0.04883-0.60828-0.75071 0.75071
   4  -9   1  451.39  120.62   1 0.69738-0.30291 0.00333-0.57798-0.71669 0.75774
   4  -9   2 1211.63  244.01   1 0.73213-0.34428-0.04140-0.54846-0.67989 0.76200
   4  -9   3 5076.08  885.59   1 0.76289-0.38165-0.08497-0.52011-0.64091 0.76408
   4  -9   4  822.03  234.17   1 0.78869-0.41447-0.12800-0.49224-0.60131 0.76544
   4  -9   5   36.61  120.03   1 0.81157-0.44392-0.16833-0.46717-0.55947 0.76464
   4  -9   6  186.99  182.93   1 0.83006-0.46941-0.20769-0.44321-0.51755 0.76367
   4  -9   7   -5.85  118.00   1 0.84574-0.49179-0.24416-0.42202-0.47445 0.76159
   4  -9   8 1448.09  230.76   1 0.85813-0.51089-0.27862-0.40285-0.43123 0.75940
   4  -9   9 1348.26  320.92   1 0.86738-0.52604-0.31163-0.38620-0.38797 0.75770
   4  -9  10 1132.76  309.37   1 0.87394-0.53918-0.34210-0.37107-0.34522 0.75603
   4  -9  11   76.22  150.48   1 0.87797-0.54978-0.37069-0.35782-0.30289 0.75478
  -4   8  17 1252.12  264.34   1 0.08495-0.59521-0.55508 0.79316 0.82744-0.12888
  -4   8  16  451.78  228.24   1 0.06802-0.57154-0.54812 0.80143 0.83362-0.17615
  -4   8  15  101.94  176.58   1 0.04786-0.54465-0.53959 0.80814 0.84056-0.22418
  -4   8  14  749.32  179.03   1 0.02427-0.51432-0.52926 0.81304 0.84811-0.27282
  -4   8  13   23.10  103.68   1-0.00295-0.48070-0.51664 0.81559 0.85619-0.32206
  -4   8  12   33.86  102.36   1-0.03398-0.44292-0.50191 0.81610 0.86424-0.37120
  -4   8  11  438.29  193.33   1-0.06894-0.40121-0.48454 0.81397 0.87204-0.42009
  -4   8  10 2539.69  283.57   1-0.10785-0.35555-0.46423 0.80889 0.87912-0.46825
  -4   8   9  266.19  133.67   1-0.15063-0.30602-0.44070 0.80061 0.88492-0.51514
  -4   8   813904.12  940.17   1-0.19607-0.25390-0.41395 0.78861 0.88893-0.56001
  -4   8   7 1549.58  239.05   1-0.24576-0.19746-0.38336 0.77331 0.89029-0.60249
  -4   8   6 5816.25  497.03   1-0.29809-0.13839-0.34913 0.75436 0.88839-0.64170
  -4   8   5   61.96  119.67   1-0.35185-0.07811-0.31120 0.73169 0.88281-0.67713
  -4   8   4  -17.74  121.96   1-0.40691-0.01631-0.27022 0.70597 0.87258-0.70804
  -4   8   311774.83  733.22   1-0.46163 0.04499-0.22635 0.67728 0.85770-0.73434
   4  -8  -213370.05 1347.71   1 0.52233-0.11203 0.18427-0.65149-0.83259 0.75033
  -4   8   213499.78  812.52   1-0.51536 0.10544-0.18035 0.64656 0.83777-0.75553
   4  -8  -120530.09 1173.76   1 0.57390-0.17024 0.13750-0.61957-0.80729 0.76625
  -4   8   121512.84 1211.80   1-0.56598 0.16209-0.13235 0.61385 0.81372-0.77259
   4  -8   0   44.04   85.75   1 0.62172-0.22467 0.08924-0.58653-0.77813 0.77813
  -4   8   0  -17.79  133.26   1-0.61439 0.21712-0.08415 0.58087 0.78449-0.78449
   4  -8   1 4007.33  671.61   1 0.66577-0.27534 0.04090-0.55342-0.74502 0.78607
   4  -8   2 1205.46  235.38   1 0.70560-0.32180-0.00688-0.52082-0.70857 0.79068
   4  -8   312369.04  599.74   1 0.74099-0.36381-0.05352-0.48941-0.66937 0.79253
   4  -8   4  -42.73  112.93   1 0.77092-0.40074-0.09961-0.45849-0.62908 0.79321
   4  -8   5 2271.20  273.87   1 0.79740-0.43378-0.14279-0.43057-0.58631 0.79147
   4  -8   6 1729.47  326.97   1 0.81962-0.46258-0.18386-0.40476-0.54259 0.78878
   4  -8   7   -1.43  114.06   1 0.83727-0.48731-0.22374-0.38032-0.49890 0.78605
   4  -8   8  -11.01  110.99   1 0.85187-0.50861-0.26037-0.35896-0.45442 0.78259
   4  -8   9  -15.13  112.05   1 0.86309-0.52652-0.29478-0.33984-0.41008 0.77927
   4  -8  10  102.32  130.80   1 0.87108-0.54032-0.32750-0.32346-0.36599 0.77679
   4  -8  11  854.22  265.79   1 0.87640-0.55221-0.35760-0.30870-0.32255 0.77444
   4  -8  12 3057.04  379.94   1 0.87918-0.56157-0.38572-0.29592-0.27972 0.77269
  -4   7  18  787.90  221.28   1 0.15434-0.66705-0.58175 0.74266 0.79858-0.05900
  -4   7  17   36.90  146.98   1 0.14280-0.64916-0.57737 0.75331 0.80389-0.10533
  -4   7  16  584.31  201.56   1 0.12826-0.62789-0.57199 0.76316 0.81016-0.15270
  -4   7  15   34.30  104.23   1 0.11053-0.60342-0.56522 0.77163 0.81749-0.20112
  -4   7  14 2971.22  291.51   1 0.08933-0.57548-0.55685 0.77849 0.82579-0.25051
  -4   7  13 2220.90  295.73   1 0.06437-0.54379-0.54660 0.78348 0.83491-0.30071
  -4   7  12  560.65  177.56   1 0.03541-0.50809-0.53418 0.78630 0.84462-0.35152
  -4   7  11 1204.68  263.07   1 0.00220-0.46814-0.51925 0.78660 0.85461-0.40260
  -4   7  10 5402.14  371.83   1-0.03540-0.42409-0.50122 0.78375 0.86459-0.45372
  -4   7   9 1425.57  230.39   1-0.07748-0.37526-0.48017 0.77794 0.87374-0.50396
  -4   7   831442.48 1687.27   1-0.12396-0.32203-0.45552 0.76853 0.88155-0.55285
  -4   7   711158.49  723.73   1-0.17368-0.26563-0.42714 0.75497 0.88734-0.59954
  -4   7   6 6692.49  406.16   1-0.22799-0.20458-0.39451 0.73762 0.89015-0.64346
  -4   7   5  633.89  185.90   1-0.28519-0.14062-0.35777 0.71616 0.88919-0.68361
  -4   7   4 5194.53  350.07   1-0.34393-0.07534-0.31686 0.69052 0.88391-0.71937
  -4   7   3   88.23  120.84   1-0.40381-0.00872-0.27260 0.66151 0.87328-0.74987
   4  -7  -2 5253.89  302.80   1 0.46978-0.06352 0.22975-0.63475-0.85235 0.77010
  -4   7   2 5381.29  317.80   1-0.46298 0.05702-0.22523 0.62934 0.85726-0.77502
   4  -7  -1 2631.02  459.40   1 0.52690-0.12725 0.18015-0.60043-0.83061 0.78948
  -4   7   1 2262.60  206.94   1-0.52055 0.12130-0.17573 0.59511 0.83555-0.79443
   4  -7   031684.79 1985.18   1 0.58146-0.18848 0.13012-0.56525-0.80309 0.80309
  -4   7   032366.11  751.95   1-0.57427 0.18106-0.12436 0.55899 0.80915-0.80915
   4  -7   1 8698.61  558.97   1 0.63158-0.24521 0.07877-0.52912-0.77129 0.81233
  -4   7  -1 9704.63  427.15   1-0.62496 0.23836-0.07309 0.52295 0.77722-0.81835
   4  -7   2  662.39  210.02   1 0.67711-0.29735 0.02775-0.49332-0.73534 0.81743
   4  -7   3 2012.21  393.53   1 0.71767-0.34455-0.02228-0.45849-0.69602 0.81918
   4  -7   4 4132.05  639.29   1 0.75312-0.38661-0.07065-0.42534-0.65407 0.81829
   4  -7   5  565.03  152.73   1 0.78261-0.42303-0.11805-0.39317-0.61120 0.81636
   4  -7   6  145.91  120.11   1 0.80818-0.45516-0.16203-0.36445-0.56620 0.81239
   4  -7   7  160.16  138.57   1 0.82920-0.48276-0.20352-0.33822-0.52057 0.80780
   4  -7   8 2282.38  345.24   1 0.84550-0.50622-0.24356-0.31364-0.47517 0.80334
   4  -7   9 1956.11  279.96   1 0.85859-0.52601-0.28002-0.29246-0.42942 0.79860
   4  -7  10  241.02  164.25   1 0.86810-0.54135-0.31453-0.27424-0.38400 0.79481
   4  -7  11  201.33  152.82   1 0.87465-0.55446-0.34617-0.25793-0.33933 0.79122
   4  -7  12  325.25  193.77   1 0.87844-0.56483-0.37561-0.24383-0.29538 0.78835
   4  -7  13  344.48  176.21   1 0.87975-0.57271-0.40299-0.23179-0.25224 0.78629
   4  -7  14 2023.17  334.61   1 0.87859-0.57838-0.42867-0.22114-0.21049 0.78521
  -4   6  18   67.40  155.45   1 0.20634-0.71518-0.59936 0.69811 0.77342-0.03384
  -4   6  17 1560.56  275.61   1 0.19718-0.69929-0.59640 0.71038 0.77808-0.07959
  -4   6  16  243.71  197.12   1 0.18519-0.68057-0.59243 0.72165 0.78404-0.12663
  -4   6  15 1408.72  220.62   1 0.17008-0.65873-0.58728 0.73174 0.79130-0.17498
  -4   6  14 6561.45  432.14   1 0.15155-0.63347-0.58075 0.74044 0.79984-0.22461
  -4   6  13 4181.07  509.12   1 0.12934-0.60486-0.57239 0.74714 0.80971-0.27552
  -4   6  12  722.72  297.16   1 0.10297-0.57175-0.56227 0.75225 0.82051-0.32741
  -4   6  11  -73.34  135.86   1 0.07216-0.53420-0.54984 0.75506 0.83214-0.38013
  -4   6  10  229.06  144.25   1 0.03659-0.49189-0.53470 0.75515 0.84424-0.43333
  -4   6   9  784.81  189.51   1-0.00397-0.44486-0.51617 0.75181 0.85647-0.48669
  -4   6   8 4195.69  326.69   1-0.04961-0.39247-0.49424 0.74512 0.86790-0.53920
  -4   6   7 1771.09  260.14   1-0.10028-0.33505-0.46826 0.73438 0.87787-0.59027
  -4   6   610710.16  614.41   1-0.15567-0.27292-0.43785 0.71920 0.88546-0.63894
  -4   6   5  129.10  117.38   1-0.21442-0.20748-0.40286 0.69914 0.88978-0.68421
  -4   6   4  449.89  126.43   1-0.27715-0.13801-0.36309 0.67465 0.88957-0.72511
  -4   6   3 2068.69  216.47   1-0.34144-0.06715-0.31864 0.64545 0.88424-0.76083
  -4   6   2  213.71  111.34   1-0.40654 0.00469-0.27050 0.61257 0.87266-0.79039
   4  -6  -1  492.70  136.14   1 0.47647-0.08085 0.22415-0.58221-0.85013 0.80900
  -4   6   1  376.24  107.60   1-0.47036 0.07507-0.21910 0.57639 0.85483-0.81371
   4  -6   0  317.17   97.31   1 0.53739-0.14838 0.17059-0.54395-0.82589 0.82589
  -4   6   0  490.42  126.18   1-0.53172 0.14314-0.16565 0.53822 0.83055-0.83055
   4  -6   1 1462.95  244.51   1 0.59466-0.21235 0.11702-0.50522-0.79541 0.83645
  -4   6  -1 1470.69  196.94   1-0.58827 0.20574-0.11063 0.49839 0.80105-0.84218
   4  -6   2   75.02   58.01   1 0.64659-0.27089 0.06246-0.46587-0.76027 0.84236
   4  -6   3 3487.63  439.19   1 0.69297-0.32392 0.00872-0.42734-0.72090 0.84406
   4  -6   4 2775.23  326.11   1 0.73354-0.37110-0.04331-0.39052-0.67825 0.84247
   4  -6   5 2726.77  393.92   1 0.76743-0.41188-0.09427-0.35482-0.63415 0.83931
   4  -6   6 4414.64  379.39   1 0.79662-0.44764-0.14145-0.32289-0.58768 0.83387
   4  -6   740595.52 2480.79   1 0.82061-0.47820-0.18582-0.29378-0.54042 0.82765
   4  -6   8 5293.49  375.60   1 0.83929-0.50400-0.22844-0.26663-0.49335 0.82151
   4  -6   9  264.71  150.95   1 0.85426-0.52566-0.26709-0.24327-0.44597 0.81516
   4  -6  10  430.14  228.90   1 0.86538-0.54348-0.30297-0.22267-0.39913 0.80934
   4  -6  11  170.11  134.71   1 0.87294-0.55676-0.33666-0.20524-0.35302 0.80491
   4  -6  12  -98.00  113.47   1 0.87762-0.56801-0.36742-0.18982-0.30785 0.80082
   4  -6  13   82.38  131.66   1 0.87963-0.57659-0.39590-0.17668-0.26364 0.79769
   4  -6  14  306.19  158.06   1 0.87901-0.58276-0.42250-0.16508-0.22096 0.79569
   4  -6  15   56.80  136.61   1 0.87655-0.58687-0.44689-0.15600-0.17872 0.79450
  -4   5  18  128.91  136.07   1 0.25449-0.75946-0.61391 0.65050 0.74721-0.00763
  -4   5  17  543.54  198.27   1 0.24780-0.74604-0.61200 0.66381 0.75103-0.05253
  -4   5  16  562.48  235.98   1 0.23843-0.72995-0.60925 0.67631 0.75627-0.09886
  -4   5  15  483.24  320.51   1 0.22610-0.71088-0.60554 0.68783 0.76301-0.14669
  -4   5  14  -40.43  117.97   1 0.21047-0.68852-0.60068 0.69820 0.77128-0.19605
  -4   5  13  478.79  169.09   1 0.19117-0.66249-0.59442 0.70718 0.78109-0.24695
  -4   5  1218384.52  600.50   1 0.16778-0.63238-0.58649 0.71448 0.79238-0.29933
  -4   5  11 6856.68  570.00   1 0.13996-0.59811-0.57633 0.71941 0.80514-0.35313
  -4   5  1012205.33  765.93   1 0.10713-0.55854-0.56390 0.72222 0.81886-0.40794
  -4   5   932499.02  767.52   1 0.06895-0.51362-0.54851 0.72206 0.83329-0.46346
  -4   5   814695.59  513.15   1 0.02508-0.46302-0.52962 0.71841 0.84786-0.51912
  -4   5   720412.92 1044.68   1-0.02465-0.40678-0.50641 0.71040 0.86193-0.57432
  -4   5   6  685.68  135.14   1-0.08014-0.34453-0.47879 0.69802 0.87425-0.62773
  -4   5   5 5769.31  428.71   1-0.14105-0.27688-0.44608 0.68054 0.88380-0.67837
  -4   5   411018.97  706.82   1-0.20595-0.20529-0.40801 0.65746 0.88944-0.72498
  -4   5   323046.73 1340.73   1-0.27496-0.12954-0.36452 0.62925 0.88967-0.76632
  -4   5   2  688.53  135.80   1-0.34544-0.05246-0.31579 0.59576 0.88370-0.80144
  -4   5   1  147.11  103.09   1-0.41616 0.02500-0.26305 0.55828 0.87040-0.82927
   4  -5   0  134.75   51.40   1 0.49004-0.10506 0.21261-0.52374-0.84537 0.84537
  -4   5   0   21.44   91.97   1-0.48471 0.10008-0.20700 0.51747 0.84982-0.84982
   4  -5   1 1479.07  233.60   1 0.55452-0.17615 0.15466-0.48108-0.81766 0.85879
  -4   5  -1 1640.39  202.75   1-0.54961 0.17170-0.14917 0.47492 0.82199-0.86311
   4  -5   213233.10 1111.59   1 0.61396-0.24233 0.09734-0.43859-0.78330 0.86539
  -4   5  -212523.47  780.85   1-0.60845 0.23658-0.09028 0.43117 0.78843-0.87069
   4  -5   3 3734.08  648.23   1 0.66696-0.30193 0.03955-0.39602-0.74404 0.86717
   4  -5   420489.15 1377.38   1 0.71331-0.35493-0.01666-0.35500-0.70064 0.86486
   4  -5   519007.48 1431.33   1 0.75294-0.40118-0.07039-0.31650-0.65430 0.85958
   4  -5   618160.60  552.53   1 0.78528-0.44032-0.12238-0.27982-0.60692 0.85311
   4  -5   7 3842.76  382.33   1 0.81241-0.47403-0.16992-0.24754-0.55776 0.84499
   4  -5   8  235.65  167.76   1 0.83356-0.50225-0.21534-0.21760-0.50872 0.83689
   4  -5   9  824.10  199.77   1 0.85038-0.52577-0.25631-0.19191-0.45950 0.82868
   4  -5  10 4042.29  381.41   1 0.86290-0.54499-0.29413-0.16938-0.41094 0.82115
   4  -5  11 3799.29  530.64   1 0.87148-0.55931-0.32940-0.15030-0.36332 0.81521
   4  -5  12 2764.94  334.63   1 0.87691-0.57131-0.36145-0.13358-0.31681 0.80978
   4  -5  13  229.65  205.42   1 0.87945-0.58042-0.39098-0.11939-0.27146 0.80551
   4  -5  14  -73.52  128.90   1 0.87921-0.58693-0.41843-0.10693-0.22781 0.80253
   4  -5  15  937.86  258.39   1 0.87703-0.59132-0.44347-0.09718-0.18478 0.80055
   4  -5  16  -19.16  138.85   1 0.87286-0.59372-0.46658-0.08937-0.14286 0.79969
  -4   4  18  -40.05  132.63   1 0.29912-0.79842-0.62831 0.60168 0.71815 0.02198
  -4   4  17  190.30  203.27   1 0.29433-0.78870-0.62462 0.61427 0.72333-0.02484
  -4   4  16 1139.28  258.51   1 0.28758-0.77522-0.62289 0.62778 0.72752-0.07012
  -4   4  15 3638.17  392.35   1 0.27805-0.75897-0.62039 0.64052 0.73334-0.11702
  -4   4  14  893.44  239.61   1 0.26542-0.73960-0.61697 0.65233 0.74086-0.16564
  -4   4  13   29.42  104.75   1 0.24929-0.71674-0.61242 0.66302 0.75018-0.21604
  -4   4  12 2980.52  262.28   1 0.22920-0.68993-0.60649 0.67232 0.76133-0.26828
  -4   4  11  449.13  166.24   1 0.20467-0.65867-0.59883 0.67990 0.77427-0.32231
  -4   4  10 4379.73  403.00   1 0.17516-0.62242-0.58903 0.68533 0.78889-0.37801
  -4   4   913101.65  497.44   1 0.14014-0.58092-0.57640 0.68782 0.80506-0.43523
  -4   4   8 7476.82  497.32   1 0.09901-0.53305-0.56071 0.68736 0.82206-0.49333
  -4   4   730814.59 1771.07   1 0.05134-0.47865-0.54108 0.68297 0.83939-0.55175
  -4   4   6 3201.85  287.18   1-0.00313-0.41764-0.51656 0.67365 0.85624-0.60972
  -4   4   5  658.21  129.81   1-0.06429-0.34973-0.48690 0.65923 0.87108-0.66565
  -4   4   4  756.01  149.79   1-0.13167-0.27560-0.45128 0.63885 0.88261-0.71826
  -4   4   3 1877.25  181.50   1-0.20373-0.19685-0.40935 0.61196 0.88933-0.76599
  -4   4   2 9106.47  451.89   1-0.27993-0.11390-0.36125 0.57914 0.88945-0.80722
  -4   4   152333.22 1857.95   1-0.35728-0.02994-0.30727 0.54041 0.88200-0.84086
  -4   4   029073.95 1096.33   1-0.43392 0.05344-0.24907 0.49746 0.86583-0.86583
   4  -4   1  233.31   60.95   1 0.51149-0.13716 0.19392-0.45812-0.83711 0.87824
  -4   4  -1  220.82   93.46   1-0.50702 0.13307-0.18771 0.45136 0.84123-0.88235
   4  -4   2  592.35  104.96   1 0.57911-0.21154 0.13243-0.41152-0.80441 0.88650
  -4   4  -2  408.90  105.07   1-0.57413 0.20632-0.12450 0.40330 0.80924-0.89150
   4  -4   3 2764.52  487.77   1 0.63968-0.27872 0.07003-0.36434-0.76543 0.88857
   4  -4   4 7764.33 1010.65   1 0.69264-0.33833 0.00912-0.31864-0.72121 0.88543
   4  -4   5 2020.33  268.32   1 0.73775-0.39006-0.04905-0.27568-0.67327 0.87855
   4  -4   6 6091.29  421.35   1 0.77450-0.43358-0.10516-0.23491-0.62376 0.86995
   4  -4   718701.52  982.51   1 0.80499-0.47064-0.15623-0.19910-0.57233 0.85956
   4  -4   8  332.85  109.36   1 0.82916-0.50138-0.20344-0.16714-0.52066 0.84892
   4  -4   9  417.84  150.10   1 0.84728-0.52666-0.24811-0.13797-0.46961 0.83880
   4  -4  10 1103.44  233.91   1 0.86106-0.54713-0.28794-0.11344-0.41911 0.82932
   4  -4  11   84.09  128.43   1 0.87049-0.56232-0.32478-0.09272-0.36981 0.82170
   4  -4  12   19.82  131.13   1 0.87646-0.57486-0.35807-0.07476-0.32185 0.81482
   4  -4  13 6261.35  465.47   1 0.87934-0.58431-0.38855-0.05962-0.27528 0.80933
   4  -4  14  571.75  198.99   1 0.87928-0.59097-0.41674-0.04638-0.23062 0.80535
   4  -4  15   21.55  127.90   1 0.87718-0.59544-0.44232-0.03610-0.18680 0.80258
   4  -4  16   11.31  138.78   1 0.87303-0.59786-0.46582-0.02790-0.14428 0.80111
   4  -4  17   71.58  140.57   1 0.86707-0.59847-0.48741-0.02161-0.10297 0.80085
  -4   3  18  148.79  190.54   1 0.33902-0.83451-0.63756 0.54886 0.69178 0.04834
  -4   3  17   29.11  122.32   1 0.33709-0.82594-0.63715 0.56372 0.69310 0.00590
  -4   3  16   15.74  125.02   1 0.33289-0.81509-0.63623 0.57807 0.69598-0.03808
  -4   3  15  133.50  144.31   1 0.32613-0.80168-0.63472 0.59184 0.70054-0.08376
  -4   3  14  457.72  266.47   1 0.31649-0.78540-0.63250 0.60489 0.70694-0.13128
  -4   3  13  101.99  140.17   1 0.30358-0.76585-0.62941 0.61708 0.71531-0.18077
  -4   3  12   48.15  139.13   1 0.28643-0.74329-0.62259 0.62626 0.72823-0.23517
  -4   3  11 2426.00  277.15   1 0.26554-0.71567-0.61701 0.63591 0.74079-0.28883
  -4   3  10  831.67  249.96   1 0.23979-0.68318-0.60965 0.64379 0.75552-0.34464
  -4   3   9  264.48  101.52   1 0.20848-0.64515-0.60005 0.64942 0.77231-0.40252
  -4   3   8 4948.23  366.41   1 0.17091-0.60084-0.58757 0.65218 0.79091-0.46221
  -4   3   730706.31 1760.60   1 0.12639-0.54980-0.57128 0.65104 0.81096-0.52332
  -4   3   6 2039.53  237.03   1 0.07427-0.49094-0.55072 0.64571 0.83137-0.58482
  -4   3   5 3858.41  250.92   1 0.01422-0.42415-0.52474 0.63496 0.85114-0.64568
  -4   3   4 4025.93  246.38   1-0.05374-0.34962-0.49219 0.61763 0.86882-0.70447
  -4   3   3   78.56   93.03   1-0.12885-0.26776-0.45283 0.59351 0.88223-0.75897
  -4   3   2 1915.64  179.02   1-0.20933-0.18059-0.40596 0.56174 0.88959-0.80736
  -4   3   1115924.5 1622.67   1-0.29378-0.08940-0.35203 0.52309 0.88868-0.84757
  -4   3   024777.62  556.24   1-0.37863 0.00208-0.29161 0.47790 0.87840-0.87840
  -4   3  -121603.23  517.67   1-0.46107 0.09107-0.22681 0.42837 0.85788-0.89900
   4  -3   2 7919.25  446.06   1 0.54183-0.17813 0.16650-0.38377-0.82382 0.90608
  -4   3  -2 8279.83  308.53   1-0.53828 0.17500-0.15966 0.37649 0.82750-0.90974
   4  -3   3  509.84  106.66   1 0.61122-0.25433 0.10017-0.33232-0.78509 0.90822
  -4   3  -3  453.49  106.24   1-0.60727 0.25014-0.09148 0.32341 0.78920-0.91259
   4  -3   412029.41  550.95   1 0.67178-0.32150 0.03397-0.28135-0.73996 0.90414
   4  -3   5 3726.60  581.79   1 0.72315-0.37952-0.02944-0.23313-0.69005 0.89532
   4  -3   634629.73 2000.85   1 0.76550-0.42848-0.08890-0.18890-0.63725 0.88358
   4  -3   746873.70 2632.76   1 0.79882-0.46849-0.14526-0.14793-0.58376 0.87099
   4  -3   8 2784.92  295.22   1 0.82549-0.50174-0.19573-0.11272-0.52938 0.85764
   4  -3   9 1885.40  195.31   1 0.84531-0.52866-0.24307-0.08089-0.47577 0.84496
   4  -3  10 3489.76  356.49   1 0.86013-0.55019-0.28492-0.05432-0.42306 0.83326
   4  -3  11 3168.49  334.21   1 0.87015-0.56599-0.32328-0.03201-0.37189 0.82378
   4  -3  12 1873.23  254.76   1 0.87641-0.57882-0.35772-0.01291-0.32237 0.81534
   4  -3  13  271.58  149.09   1 0.87936-0.58834-0.38902 0.00304-0.27455 0.80860
   4  -3  14  760.39  198.62   1 0.87924-0.59490-0.41778 0.01688-0.22889 0.80362
   4  -3  15 2926.56  402.91   1 0.87699-0.59922-0.44373 0.02753-0.18432 0.80010
   4  -3  16  327.27  223.81   1 0.87266-0.60146-0.46744 0.03594-0.14126 0.79809
   4  -3  17 1161.54  316.53   1 0.86650-0.60186-0.48912 0.04233-0.09959 0.79747
   4  -3  18   81.11  149.42   1 0.85817-0.60210-0.51019 0.04826-0.05687 0.79695
  -4   2  18  179.99  152.77   1 0.37470-0.86637-0.64468 0.49390 0.66631 0.07381
  -4   2  17   47.27  129.24   1 0.37497-0.86000-0.64473 0.50922 0.66611 0.03290
  -4   2  16 1750.60  246.85   1 0.37317-0.85156-0.64440 0.52416 0.66744-0.00954
  -4   2  15  197.35  204.52   1 0.36905-0.84080-0.64363 0.53867 0.67046-0.05369
  -4   2  14 1848.81  308.80   1 0.36232-0.82742-0.64234 0.55265 0.67536-0.09970
  -4   2  1310707.36  532.23   1 0.35260-0.81105-0.64040 0.56599 0.68231-0.14776
  -4   2  12 3017.10  288.12   1 0.33944-0.79125-0.63765 0.57852 0.69150-0.19807
  -4   2  11 3095.70  345.63   1 0.32230-0.76747-0.63385 0.58998 0.70310-0.25079
  -4   2  10 3424.32  306.56   1 0.30055-0.73907-0.62866 0.60007 0.71724-0.30606
  -4   2   9  469.03  134.39   1 0.27293-0.70573-0.61902 0.60623 0.73641-0.36662
  -4   2   8 1229.33  170.23   1 0.23961-0.66568-0.60960 0.61205 0.75562-0.42691
  -4   2   7 9901.13  653.37   1 0.19914-0.61848-0.59704 0.61472 0.77709-0.48948
  -4   2   6 4883.81  250.82   1 0.15058-0.56319-0.58040 0.61332 0.80028-0.55375
  -4   2   5 5823.79  273.62   1 0.09313-0.49917-0.55837 0.60647 0.82434-0.61888
  -4   2   418616.50  474.68   1 0.02627-0.42557-0.53015 0.59348 0.84749-0.68312
  -4   2   3 3227.06  216.69   1-0.04994-0.34276-0.49408 0.57263 0.86797-0.74471
   4  -2  -3 2884.04  158.83   1 0.15003 0.24260-0.92343 0.84504 0.35319-0.47647
  -4   2   230873.00  622.96   1-0.13442-0.25154-0.44976 0.54355 0.88297-0.80079
  -4   2   1  538.86  115.95   1-0.22489-0.15437-0.39643 0.50537 0.89009-0.84897
  -4   2   0 3147.90  199.84   1-0.31855-0.05404-0.33468 0.45888 0.88685-0.88685
  -4   2  -123455.88  519.11   1-0.41146 0.04561-0.26670 0.40615 0.87152-0.91266
   4  -2   2 9092.31  316.40   1 0.50211-0.14245 0.20217-0.35721-0.84083 0.92309
  -4   2  -2 9507.75  328.97   1-0.49935 0.14001-0.19442 0.34915 0.84430-0.92654
   4  -2   3  616.78  108.23   1 0.58167-0.22884 0.12992-0.29991-0.80297 0.92611
  -4   2  -3  483.46  110.53   1-0.57864 0.22557-0.12011 0.28995 0.80668-0.93007
   4  -2   4 3657.50  618.58   1 0.65115-0.30493 0.05741-0.24262-0.75676 0.92094
   4  -2   5   -7.07   33.85   1 0.70968-0.37011-0.01204-0.18838-0.70441 0.90968
   4  -2   6 1284.47  172.21   1 0.75738-0.42442-0.07684-0.13880-0.64843 0.89476
   4  -2   7 4287.95  339.37   1 0.79447-0.46818-0.13775-0.09330-0.59146 0.87869
   4  -2   838053.90 2154.35   1 0.82356-0.50384-0.19178-0.05453-0.53381 0.86207
   4  -2   948486.88 4559.96   1 0.84484-0.53218-0.24189-0.01993-0.47720 0.84639
   4  -2  1035749.69  784.39   1 0.86039-0.55443-0.28575 0.00863-0.42197 0.83218
   4  -2  11 6094.64  492.32   1 0.87065-0.57049-0.32552 0.03242-0.36877 0.82065
   4  -2  12  258.34  187.27   1 0.87684-0.58325-0.36092 0.05248-0.31762 0.81059
   4  -2  13   76.62  134.46   1 0.87953-0.59251-0.39282 0.06904-0.26854 0.80259
   4  -2  14 1179.62  308.44   1 0.87904-0.59867-0.42193 0.08327-0.22192 0.79665
   4  -2  15 1124.48  225.96   1 0.87638-0.60258-0.44802 0.09405-0.17671 0.79249
   4  -2  16  522.35  178.54   1 0.87162-0.60439-0.47170 0.10244-0.13324 0.79007
   4  -2  17 1493.48  306.47   1 0.86459-0.60576-0.49452 0.11004-0.08903 0.78799
   4  -2  18  743.98  204.76   1 0.85632-0.60420-0.51415 0.11437-0.04849 0.78857
   4  -2  19   31.71  164.18   1 0.84663-0.60122-0.53209 0.11700-0.00926 0.79046
  -4   1  18  514.16  221.25   1 0.40618-0.89405-0.65000 0.43714 0.64226 0.09787
  -4   1  17  241.14  195.63   1 0.40848-0.88970-0.65035 0.45276 0.64044 0.05856
  -4   1  16  203.42  134.70   1 0.40891-0.88349-0.65042 0.46810 0.64010 0.01779
  -4   1  15 1222.41  278.74   1 0.40726-0.87520-0.65017 0.48313 0.64140-0.02462
  -4   1  14  670.50  193.53   1 0.40327-0.86455-0.64955 0.49778 0.64455-0.06889
  -4   1  13   12.00  133.84   1 0.39658-0.85122-0.64848 0.51199 0.64976-0.11521
  -4   1  12 1580.14  226.41   1 0.38679-0.83479-0.64683 0.52562 0.65725-0.16383
  -4   1  11 1381.64  256.50   1 0.37338-0.81473-0.64444 0.53850 0.66729-0.21498
  -4   1  10  963.55  213.29   1 0.35571-0.79042-0.64103 0.55037 0.68009-0.26891
  -4   1   9 1731.17  261.60   1 0.33302-0.76109-0.63626 0.56086 0.69588-0.32582
  -4   1   8 1722.12  197.65   1 0.30438-0.72580-0.62960 0.56949 0.71480-0.38585
  -4   1   7 4068.97  332.42   1 0.26821-0.68368-0.61774 0.57325 0.73922-0.45160
  -4   1   6 1092.51  157.51   1 0.22431-0.63305-0.60500 0.57575 0.76397-0.51744
  -4   1   5 1446.01  141.63   1 0.17092-0.57292-0.58757 0.57356 0.79090-0.58547
  -4   1   4  248.56   95.35   1 0.10686-0.50227-0.56379 0.56499 0.81896-0.65460
   4  -1  -4  251.99   33.20   1 0.55014-0.15488-0.32424 0.32282 0.76954-0.93369
  -4   1   310387.10  328.70   1 0.03154-0.42021-0.53248 0.54891 0.84585-0.72257
   4  -1  -310076.84  224.82   1 0.37956 0.00882-0.69189 0.67539 0.61417-0.73740
  -4   1   264223.91  992.17   1-0.05498-0.32707-0.49157 0.52323 0.86909-0.78692
   4  -1  -257105.18  810.22   1 0.22411 0.15766-0.86943 0.83796 0.44028-0.52245
  -4   1   1 1760.13  182.02   1-0.15099-0.22431-0.44050 0.48739 0.88496-0.84387
  -4   1   054933.95  636.80   1-0.25332-0.11528-0.37855 0.44066 0.89023-0.89023
  -4   1  -114790.25  349.83   1-0.35745-0.00446-0.30715 0.38450 0.88197-0.92311
  -4   1  -211071.97  303.72   1-0.45785 0.10247-0.22946 0.32210 0.85890-0.94114
   4  -1   313750.90  383.31   1 0.55146-0.20244 0.15754-0.26565-0.81918 0.94257
  -4   1  -314270.00  375.85   1-0.54977 0.20111-0.14902 0.25693 0.82191-0.94527
   4  -1   445843.47  929.36   1 0.63125-0.28910 0.07912-0.20217-0.77152 0.93570
   4  -1   5 8838.99  437.07   1 0.69810-0.36258 0.00244-0.14071-0.71599 0.92126
   4  -1   610541.89  357.80   1 0.75171-0.42281-0.06863-0.08485-0.65590 0.90223
   4  -1   7 2489.18  173.21   1 0.79269-0.47042-0.13472-0.03420-0.59454 0.88177
   4  -1   8   62.65   90.90   1 0.82397-0.50827-0.19260 0.00842-0.53289 0.86115
   4  -1   9  190.40  103.47   1 0.84628-0.53761-0.24555 0.04585-0.47275 0.84194
   4  -1  10  450.47  122.39   1 0.86207-0.56010-0.29129 0.07631-0.41469 0.82490
   4  -1  1116013.66  512.66   1 0.87207-0.57591-0.33224 0.10134-0.35931 0.81120
   4  -1  1217492.97 1013.08   1 0.87772-0.58813-0.36830 0.12207-0.30652 0.79949
   4  -1  13 1496.34  266.00   1 0.87973-0.59672-0.40049 0.13892-0.25628 0.79033
   4  -1  14  -14.92  122.58   1 0.87851-0.60211-0.42964 0.15320-0.20884 0.78357
   4  -1  15   96.08  111.09   1 0.87513-0.60529-0.45553 0.16380-0.16318 0.77896
   4  -1  16  414.64  159.19   1 0.86968-0.60642-0.47891 0.17187-0.11951 0.77634
   4  -1  17  192.04  183.26   1 0.86197-0.60709-0.50133 0.17900-0.07523 0.77420
   4  -1  18 1438.66  281.25   1 0.85314-0.60497-0.52050 0.18287-0.03487 0.77495
   4  -1  19  649.19  283.12   1 0.84296-0.60150-0.53794 0.18501 0.00405 0.77714
  -4   0  17   61.72  145.48   1 0.43671-0.91504-0.65502 0.39486 0.61661 0.08228
  -4   0  16  124.70  141.78   1 0.43918-0.91084-0.65532 0.41047 0.61454 0.04324
  -4   0  15  626.14  225.46   1 0.43980-0.90478-0.65539 0.42584 0.61402 0.00265
  -4   0  14  419.57  172.34   1 0.43832-0.89664-0.65522 0.44097 0.61527-0.03970
  -4   0  13  375.97  180.20   1 0.43542-0.88625-0.65409 0.45552 0.61852-0.08397
  -4   0  12  369.37  204.73   1 0.42879-0.87298-0.65324 0.46994 0.62402-0.13060
  -4   0  11  156.84  126.31   1 0.41893-0.85647-0.65189 0.48387 0.63208-0.17978
  -4   0  10  464.00  169.22   1 0.40524-0.83614-0.64986 0.49711 0.64300-0.23181
  -4   0   9  605.38  152.80   1 0.38699-0.81124-0.64687 0.50940 0.65710-0.28704
  -4   0   8 3926.99  299.08   1 0.36323-0.78084-0.64252 0.52032 0.67470-0.34575
  -4   0   718390.95 1093.82   1 0.33282-0.74378-0.63621 0.52929 0.69602-0.40819
  -4   0   6 3728.04  244.75   1 0.29382-0.69869-0.62449 0.53307 0.72365-0.47712
  -4   0   5  275.66  125.65   1 0.24575-0.64389-0.61140 0.53522 0.75218-0.54675
   4   0  -5   41.52   23.04   1 0.61550-0.21671 0.18892-0.11300 0.76515-0.96967
  -4   0   4 1180.15  134.47   1 0.18633-0.57774-0.59281 0.53187 0.78348-0.61913
  -4   0   3 8301.68  282.53   1 0.11391-0.49869-0.56653 0.52082 0.81612-0.69285
   4   0  -3 7958.71  183.55   1 0.50347-0.11894-0.45817 0.50367 0.73252-0.85566
  -4   0   225023.58  515.68   1 0.02774-0.40578-0.53080 0.50033 0.84703-0.76485
   4   0  -223273.16  407.73   1 0.38913-0.01144-0.67749 0.70780 0.62415-0.70631
  -4   0   135626.50  516.44   1-0.07193-0.29947-0.48301 0.46778 0.87265-0.83156
   4   0  -133334.70  451.39   1 0.27728 0.09373-0.81974 0.83499 0.50113-0.54221
  -4   0   0  203.10   84.61   1-0.18234-0.18234-0.42208 0.42208 0.88802-0.88802
   4   0   0  349.29   66.34   1 0.18227 0.18227-0.90191 0.90191 0.39156-0.39156
  -4   0  -1 2468.01  210.72   1-0.29859-0.05935-0.34880 0.36408 0.88835-0.92947
  -4   0  -217338.91  368.55   1-0.41362 0.06239-0.26503 0.29554 0.87101-0.95328
   4   0   314350.82  364.93   1 0.52041-0.17543 0.18599-0.23186-0.83340 0.95679
  -4   0  -314556.14  324.75   1-0.51999 0.17528-0.17622 0.22205 0.83579-0.95915
   4   0   463317.25  783.29   1 0.61285-0.27476 0.09849-0.15937-0.78403 0.94820
  -4   0  -464414.01  658.68   1-0.61231 0.27398-0.08630 0.14717 0.78588-0.95040
   4   0   5  121.93   36.86   1 0.68949-0.35804 0.01295-0.08905-0.72417 0.92944
   4   0   6 5188.24  606.10   1 0.74962-0.42478-0.06564-0.02568-0.65860 0.90492
   4   0   7 1609.06  156.79   1 0.79440-0.47617-0.13763 0.03085-0.59158 0.87881
   4   0   8 1610.24  163.97   1 0.82736-0.51570-0.19963 0.07758-0.52499 0.85324
   4   0   9  212.81   90.91   1 0.85002-0.54533-0.25533 0.11777-0.46071 0.82990
   4   0  10  844.78  152.30   1 0.86530-0.56731-0.30266 0.14981-0.39955 0.80975
   4   0  1110837.86  623.36   1 0.87434-0.58219-0.34436 0.17566-0.34195 0.79384
   4   0  12 2241.81  255.36   1 0.87884-0.59327-0.38062 0.19659-0.28765 0.78062
   4   0  13  239.80  168.04   1 0.87939-0.60039-0.41300 0.21410-0.23683 0.77050
   4   0  14 1337.16  208.12   1 0.87730-0.60487-0.44136 0.22716-0.18850 0.76323
   4   0  15  -14.10  104.97   1 0.87284-0.60698-0.46665 0.23715-0.14272 0.75850
   4   0  16  821.91  207.48   1 0.86644-0.60714-0.48932 0.24452-0.09920 0.75603
   4   0  17   47.50  125.07   1 0.85781-0.60688-0.51098 0.25080-0.05521 0.75417
   4   0  18  444.66  278.29   1 0.84824-0.60402-0.52938 0.25389-0.01535 0.75543
   4   0  19  376.27  237.47   1 0.83743-0.59992-0.54604 0.25526 0.02295 0.75823
   4   0  20  189.23  162.54   1 0.82552-0.59472-0.56118 0.25508 0.05992 0.76238
  -4  -1  17  434.66  272.74   1 0.46181-0.93627-0.65777 0.33555 0.59503 0.10387
  -4  -1  16 1212.59  273.40   1 0.46611-0.93390-0.65817 0.35126 0.59121 0.06657
  -4  -1  1514704.18 6451.76   1 0.46875-0.92988-0.65841 0.36680 0.58885 0.02782
  -4  -1  14 2840.26  342.11   1 0.46954-0.92400-0.65848 0.38218 0.58814-0.01258
  -4  -1  13 6542.82  425.95   1 0.46823-0.91601-0.65837 0.39736 0.58932-0.05487
  -4  -1  12  227.04  149.18   1 0.46449-0.90560-0.65802 0.41232 0.59266-0.09931
  -4  -1  11  191.83  130.76   1 0.45790-0.89235-0.65739 0.42699 0.59846-0.14623
  -4  -1  10 -255.01  123.72   1 0.44795-0.87572-0.65633 0.44124 0.60708-0.19597
  -4  -1   9 1228.24  231.57   1 0.43482-0.85526-0.65401 0.45446 0.61902-0.24895
  -4  -1   8 1071.80  151.87   1 0.41587-0.82966-0.65145 0.46717 0.63455-0.30560
  -4  -1   7  -10.32  102.16   1 0.39084-0.79799-0.64753 0.47852 0.65417-0.36634
  -4  -1   625422.27 1465.59   1 0.35830-0.75881-0.64155 0.48782 0.67825-0.43153
   4   1  -616703.97  935.12   1 0.59725-0.19561 0.37177-0.21872 0.71068-0.95597
  -4  -1   5  363.68  106.56   1 0.31644-0.71030-0.63249 0.49404 0.70697-0.50138
   4   1  -5  254.17   61.03   1 0.61619-0.22144 0.16409-0.02610 0.77030-0.97482
  -4  -1   4 4328.24  221.29   1 0.26248-0.65002-0.61616 0.49305 0.74259-0.57824
   4   1  -4 3372.82  128.23   1 0.60438-0.21681-0.06500 0.18781 0.79403-0.95797
  -4  -1   3 4265.83  214.87   1 0.19529-0.57611-0.59578 0.48791 0.77903-0.65577
   4   1  -3 3801.76  140.51   1 0.55901-0.17840-0.29280 0.40031 0.77573-0.89884
  -4  -1   219735.74  442.01   1 0.11192-0.48606-0.56576 0.47315 0.81693-0.73475
   4   1  -219058.08  351.24   1 0.48765-0.11382-0.49607 0.58842 0.71840-0.80050
  -4  -1   1 7555.51  251.67   1 0.01137-0.37877-0.52345 0.44608 0.85197-0.81088
   4   1  -1 7598.93  193.17   1 0.40318-0.03595-0.65676 0.73390 0.63726-0.67830
  -4  -1   0   11.34   92.01   1-0.10555-0.25518-0.46546 0.40332 0.87875-0.87875
   4   1   0   53.14   27.80   1 0.31844 0.04184-0.77311 0.83508 0.54852-0.54852
  -4  -1  -1 3413.27  262.34   1-0.23421-0.11981-0.39063 0.34380 0.89024-0.93136
   4   1   1 3334.39  522.87   1 0.24163 0.11197-0.85413 0.90085 0.46051-0.41942
   4   1   2 7779.43  222.62   1 0.17622 0.17095-0.90619 0.93778 0.38439-0.30221
   4   1   3 2296.65  299.11   1 0.48902-0.14808 0.21348-0.19713-0.84574 0.96912
  -4  -1  -3 1955.09  191.89   1-0.49033 0.14957-0.20220 0.18593 0.84775-0.97111
   4   1   4  180.53   59.85   1 0.59714-0.26311 0.11453-0.11326-0.79391 0.95809
  -4  -1  -4   90.69   86.80   1-0.59845 0.26418-0.10045 0.09923 0.79483-0.95935
   4   1   5   79.94   33.37   1 0.68547-0.35808 0.01778-0.03172-0.72787 0.93314
   4   1   6  959.30  168.93   1 0.75266-0.43188-0.06999 0.04082-0.65467 0.90100
   4   1   728228.91  555.49   1 0.80079-0.48658-0.14872 0.10406-0.58018 0.86741
   4   1   9 4676.57  246.01   1 0.85628-0.55558-0.27299 0.19756-0.43846 0.80764
   4   1  10  204.67   92.25   1 0.86979-0.57507-0.32167 0.23051-0.37414 0.78494
   4   1  11 6094.16  409.70   1 0.87710-0.58896-0.36302 0.25653-0.31447 0.76636
   4   1  12 3932.42  257.48   1 0.87970-0.59812-0.39876 0.27693-0.25905 0.75202
   4   1  1311147.95  711.00   1 0.87846-0.60343-0.43030 0.29363-0.20770 0.74138
   4   1  14 1634.67  219.78   1 0.87474-0.60628-0.45759 0.30562-0.15944 0.73417
   4   1  15 3648.46  303.80   1 0.86886-0.60696-0.48172 0.31444-0.11409 0.72986
   4   1  16 1313.01  254.08   1 0.86069-0.60700-0.50445 0.32173-0.06881 0.72666
   4   1  17 1894.05  249.09   1 0.85147-0.60450-0.52363 0.32560-0.02805 0.72702
   4   1  18  268.07  211.54   1 0.84102-0.60075-0.54088 0.32754 0.01083 0.72924
   4   1  19  -44.91  137.32   1 0.82948-0.59592-0.55644 0.32780 0.04811 0.73308
   4   1  20   34.29  129.53   1 0.81695-0.58897-0.57068 0.32678 0.08307 0.73913
  -4  -2  16  334.83  267.47   1 0.48881-0.95273-0.65996 0.29098 0.57053 0.08725
  -4  -2  15  265.69  164.26   1 0.49325-0.95051-0.66024 0.30657 0.56637 0.05030
  -4  -2  14 1291.86  257.11   1 0.49606-0.94665-0.66040 0.32203 0.56372 0.01184
  -4  -2  13   36.47  133.77   1 0.49701-0.94093-0.66045 0.33739 0.56282-0.02836
  -4  -2  12 6481.00  709.01   1 0.49584-0.93309-0.66039 0.35263 0.56393-0.07058
  -4  -2  11 1719.29  255.99   1 0.49220-0.92278-0.66017 0.36772 0.56736-0.11513
  -4  -2  10  -68.81  111.18   1 0.48562-0.90953-0.65974 0.38259 0.57350-0.16238
  -4  -2   9  585.73  119.02   1 0.47551-0.89275-0.65898 0.39713 0.58276-0.21276
  -4  -2   811592.24  427.78   1 0.46108-0.87165-0.65770 0.41115 0.59567-0.26677
  -4  -2   7   21.46   89.50   1 0.44127-0.84517-0.65557 0.42433 0.61278-0.32499
   4   2  -7   58.36   41.57   1 0.57993-0.17530 0.46175-0.23047 0.67116-0.95715
  -4  -2   6    5.37   80.81   1 0.41544-0.81214-0.65139 0.43558 0.63489-0.38818
   4   2  -6  -28.76   38.89   1 0.60380-0.20626 0.32758-0.11248 0.72671-0.97201
  -4  -2   5 6042.39  269.46   1 0.38023-0.77029-0.64568 0.44515 0.66219-0.45660
   4   2  -5 4065.30  160.89   1 0.61608-0.22536 0.16929 0.03076 0.76927-0.97378
  -4  -2   4   -1.69   85.29   1 0.33403-0.71743-0.63648 0.45122 0.69520-0.53073
   4   2  -4   95.88   46.46   1 0.61100-0.22782-0.00278 0.18756 0.79162-0.95546
  -4  -2   3  504.29  111.79   1 0.27307-0.65001-0.61906 0.44902 0.73633-0.61307
   4   2  -3  474.97   78.56   1 0.58595-0.20907-0.18120 0.35088 0.78982-0.91278
  -4  -2   2 1753.68  156.37   1 0.19546-0.56567-0.59584 0.44103 0.77895-0.69677
   4   2  -2 1267.78   99.46   1 0.54209-0.17218-0.35078 0.50516 0.76359-0.84567
  -4  -2   1 1093.82  119.90   1 0.09705-0.46056-0.55993 0.42043 0.82283-0.78173
   4   2  -1 1150.67  106.11   1 0.48443-0.12130-0.50341 0.64262 0.71546-0.75651
  -4  -2   0 2649.26  209.35   1-0.02351-0.33332-0.50695 0.38269 0.86164-0.86164
   4   2   0 2872.22  211.32   1 0.41907-0.06250-0.63041 0.75441 0.65341-0.65341
  -4  -2  -1 2001.14  177.25   1-0.16383-0.18628-0.43283 0.32388 0.88646-0.92757
   4   2   1 1915.59  317.17   1 0.35250-0.00290-0.73003 0.83881 0.58548-0.54440
  -4  -2  -211780.61  265.76   1-0.31488-0.02846-0.33721 0.24353 0.88720-0.96947
   4   2   211114.96  275.50   1 0.29016 0.05267-0.80619 0.89963 0.51561-0.43344
  -4  -2  -3    2.46   61.98   1-0.46158 0.12476-0.22639 0.14803 0.85772-0.98108
   4   2   3   42.43   50.31   1 0.23425 0.10193-0.86069 0.93889 0.45201-0.32876
   4   2   4 4809.38  486.94   1 0.58606-0.25609 0.12559-0.06216-0.80047 0.96464
  -4  -2  -4 4404.31  296.84   1-0.58987 0.25966-0.10904 0.04573 0.80009-0.96461
   4   2   4 4746.91  347.54   1 0.18650 0.14330-0.89887 0.96206 0.39654-0.23217
   4   2   566933.68 1119.04   1 0.68860-0.36528 0.01402 0.03419-0.72499 0.93026
   4   2   566694.03 1012.05   1 0.14624 0.17688-0.92576 0.97375 0.34865-0.14319
   4   2   632720.94  693.78   1 0.76305-0.44633-0.08521 0.11820-0.64069 0.88702
   4   2   734119.14  594.02   1 0.81321-0.50304-0.17144 0.18892-0.55613 0.84336
   4   2   8 7470.60  260.72   1 0.84532-0.54190-0.24310 0.24509-0.47574 0.80390
   4   2   9 2252.88  165.78   1 0.86483-0.56811-0.30095 0.28766-0.40184 0.77103
   4   2  1013904.98  832.84   1 0.87517-0.58446-0.34937 0.32042-0.33466 0.74547
   4   2  1126358.14 1510.62   1 0.87939-0.59525-0.38957 0.34527-0.27368 0.72557
   4   2  12 2388.34  188.95   1 0.87891-0.60128-0.42417 0.36503-0.21815 0.71078
   4   2  13 1120.44  197.31   1 0.87551-0.60444-0.45340 0.37896-0.16706 0.70073
   4   2  1416546.53  934.30   1 0.86972-0.60523-0.47877 0.38903-0.11978 0.69451
   4   2  15 2201.45  215.98   1 0.86160-0.60515-0.50226 0.39699-0.07332 0.69006
   4   2  16  486.10  186.38   1 0.85241-0.60268-0.52188 0.40131-0.03187 0.68972
   4   2  17   72.45  115.95   1 0.84204-0.59901-0.53936 0.40348 0.00731 0.69165
   4   2  18  346.38  247.15   1 0.83064-0.59432-0.55502 0.40383 0.04459 0.69548
   4   2  19  344.89  173.15   1 0.81831-0.58759-0.56926 0.40282 0.07934 0.70175
   4   2  20   73.42  129.59   1 0.80522-0.58117-0.58197 0.40023 0.11365 0.70855
   4   2  21  311.67  151.92   1 0.79135-0.57397-0.59346 0.39642 0.14680 0.71651
  -4  -3  16  359.22  218.88   1 0.50746-0.96752-0.66097 0.22994 0.55280 0.10498
  -4  -3  15 2253.25  379.67   1 0.51349-0.96688-0.66121 0.24548 0.54692 0.06975
  -4  -3  14 5138.30  447.88   1 0.51806-0.96478-0.66135 0.26093 0.54241 0.03315
  -4  -3  13   25.17  130.78   1 0.52099-0.96105-0.66144 0.27631 0.53949-0.00504
  -4  -3  12  684.24  217.99   1 0.52207-0.95546-0.66146 0.29164 0.53842-0.04507
  -4  -3  11   74.02  134.59   1 0.52100-0.94772-0.66144 0.30692 0.53948-0.08725
  -4  -3  10    6.23  102.73   1 0.51741-0.93745-0.66133 0.32212 0.54306-0.13194
  -4  -3   9 2300.32  258.33   1 0.51077-0.92414-0.66110 0.33720 0.54958-0.17958
  -4  -3   8 2384.25  258.15   1 0.50040-0.90710-0.66064 0.35203 0.55959-0.23070
   4   3  -8 1464.69  160.66   1 0.56186-0.15433 0.52848-0.21980 0.63640-0.96325
  -4  -3   719463.47  519.88   1 0.48538-0.88542-0.65973 0.36642 0.57372-0.28593
   4   3  -713338.81  351.48   1 0.58638-0.18613 0.42965-0.13733 0.68669-0.97287
  -4  -3   6  403.29  124.97   1 0.46444-0.85781-0.65802 0.38002 0.59269-0.34602
   4   3  -6  262.81   68.88   1 0.60552-0.21208 0.31401-0.03686 0.73125-0.97655
  -4  -3   5   75.08  100.54   1 0.43647-0.82271-0.65422 0.39161 0.61764-0.41205
   4   3  -5   33.66   48.21   1 0.61562-0.22894 0.18548 0.07664 0.76590-0.97041
  -4  -3   4 1046.21  166.68   1 0.39778-0.77738-0.64867 0.40134 0.64882-0.48435
   4   3  -4  713.90  125.54   1 0.61445-0.23529 0.04787 0.19896 0.78749-0.95134
  -4  -3   3 1463.00  154.38   1 0.34579-0.71874-0.63900 0.40694 0.68709-0.56373
   4   3  -3 1464.04  127.44   1 0.60027-0.22736-0.09616 0.32789 0.79398-0.91694
  -4  -3   212560.21  345.29   1 0.27522-0.64157-0.61964 0.40267 0.73504-0.65286
   4   3  -211950.29  316.29   1 0.57282-0.20686-0.23799 0.45441 0.78436-0.86643
  -4  -3   163406.30  942.76   1 0.18287-0.54248-0.59165 0.38992 0.78517-0.74408
   4   3  -160802.51  906.66   1 0.53429-0.17511-0.37365 0.57488 0.75822-0.79927
  -4  -3   0 1443.00  127.89   1 0.06269-0.41556-0.54589 0.35949 0.83550-0.83550
   4   3   0 1344.84  123.92   1 0.48746-0.13502-0.49650 0.68257 0.71823-0.71823
  -4  -3  -1 4465.23  180.48   1-0.08670-0.25947-0.47540 0.30424 0.87548-0.91657
   4   3   1 4516.51  204.33   1 0.43534-0.08942-0.60169 0.77255 0.66965-0.62861
  -4  -3  -2  700.11   85.73   1-0.25901-0.08044-0.37489 0.21911 0.89014-0.97237
   4   3   2  780.86  111.22   1 0.38180-0.04290-0.68856 0.84416 0.61652-0.53436
  -4  -3  -3   33.18   54.90   1-0.43511 0.10224-0.24787 0.10742 0.86558-0.98894
   4   3   3    8.72   42.46   1 0.33071 0.00148-0.75818 0.89862 0.56194-0.43870
   4   3   429220.60  548.53   1 0.58308-0.25717 0.12853-0.00294-0.80217 0.96635
  -4  -3  -430309.64  487.67   1-0.59038 0.26423-0.10854-0.01685 0.79979-0.96431
   4   3   428457.47  596.63   1 0.28363 0.04179-0.81313 0.93805 0.50828-0.34395
   4   3   5 2742.63  241.99   1 0.70317-0.38390-0.00384 0.11421-0.71100 0.91628
   4   3   5 2935.25  505.51   1 0.24158 0.07719-0.85417 0.96384 0.46045-0.25503
   4   3   6 3129.63  143.27   1 0.78377-0.47105-0.11993 0.21481-0.60935 0.85554
   4   3   6 2831.32  496.53   1 0.20557 0.10685-0.88443 0.97921 0.41894-0.17238
   4   3   8 6340.54  223.46   1 0.86033-0.56089-0.28554 0.34966-0.42225 0.75041
   4   3   8 5354.45  265.63   1 0.14908 0.14999-0.92402 0.98841 0.35206-0.02331
   4   3   9 1212.63  137.80   1 0.87410-0.58083-0.34300 0.39158-0.34392 0.71365
   4   3  10  152.85   66.42   1 0.87933-0.59263-0.38844 0.42168-0.27546 0.68627
   4   3  11 2393.12  213.17   1 0.87878-0.59855-0.42610 0.44450-0.21487 0.66644
   4   3  12 2610.95  323.51   1 0.87488-0.60123-0.45684 0.45993-0.16081 0.65343
   4   3  13 3217.78  238.36   1 0.86852-0.60143-0.48284 0.47063-0.11190 0.64558
   4   3  14   37.17   94.45   1 0.85987-0.60066-0.50637 0.47856-0.06483 0.64045
   4   3  15 6139.65  486.68   1 0.85029-0.59779-0.52579 0.48267-0.02331 0.64005
   4   3  16  584.06  191.84   1 0.83966-0.59387-0.54288 0.48445 0.01550 0.64234
   4   3  17   24.76  108.95   1 0.82815-0.58907-0.55806 0.48433 0.05212 0.64684
   4   3  18  269.91  163.26   1 0.81587-0.58241-0.57179 0.48282 0.08602 0.65396
   4   3  19 3387.32  352.66   1 0.80293-0.57615-0.58399 0.47972 0.11934 0.66175
   4   3  20  301.46  218.81   1 0.78932-0.56921-0.59500 0.47542 0.15141 0.67079
   4   3  21 2312.66  276.08   1 0.77507-0.56163-0.60496 0.47007 0.18244 0.68087
  -4  -4  15  614.21  231.01   1 0.52966-0.97919-0.66161 0.18382 0.53077 0.08590
  -4  -4  14  576.58  225.56   1 0.53577-0.97863-0.66167 0.19919 0.52453 0.05103
  -4  -4  13  -29.87  139.66   1 0.54041-0.97661-0.66169 0.21450 0.51972 0.01473
  -4  -4  12  660.71  250.50   1 0.54343-0.97295-0.66168 0.22980 0.51657-0.02322
  -4  -4  11    4.69  138.41   1 0.54458-0.96743-0.66167 0.24510 0.51536-0.06313
  -4  -4  10  234.09  167.47   1 0.54355-0.95973-0.66168 0.26041 0.51645-0.10533
  -4  -4   9 3639.90  289.51   1 0.53991-0.94942-0.66169 0.27572 0.52024-0.15024
  -4  -4   8  267.63   93.79   1 0.53308-0.93593-0.66165 0.29099 0.52728-0.19838
   4   4  -8  103.14   84.89   1 0.56931-0.16582 0.50282-0.13206 0.65042-0.97727
  -4  -4   7 2758.12  241.12   1 0.52229-0.91847-0.66147 0.30610 0.53819-0.25041
   4   4  -7 1226.49  178.63   1 0.58938-0.19324 0.41502-0.06065 0.69309-0.97927
  -4  -4   6 1399.87  217.32   1 0.50644-0.89594-0.66092 0.32087 0.55379-0.30712
   4   4  -6 1165.27  168.26   1 0.60535-0.21602 0.31540 0.02380 0.73080-0.97609
  -4  -4   5 1623.37  208.41   1 0.48397-0.86680-0.65963 0.33487 0.57502-0.36946
   4   4  -5  984.89  130.22   1 0.61474-0.23210 0.20698 0.11722 0.76108-0.96560
  -4  -4   4   15.60   92.67   1 0.45267-0.82883-0.65685 0.34739 0.60302-0.43857
   4   4  -4   41.26   54.38   1 0.61616-0.24101 0.09226 0.21662 0.78219-0.94603
  -4  -4   3  945.64  145.51   1 0.40970-0.77883-0.65054 0.35640 0.63948-0.51612
   4   4  -3  735.98  121.74   1 0.60868-0.24027-0.02813 0.32184 0.79291-0.91579
  -4  -4   230425.69 1100.61   1 0.34962-0.71211-0.63980 0.36093 0.68441-0.60217
   4   4  -228823.59 1058.51   1 0.59181-0.22959-0.14956 0.42817 0.79207-0.87404
  -4  -4   1158783.9 2002.04   1 0.26508-0.62082-0.61688 0.35298 0.74107-0.69998
   4   4  -1141515.1 1860.97   1 0.56572-0.21045-0.26721 0.53051 0.78009-0.82113
  -4  -4  -1 2987.40  142.12   1-0.00416-0.33810-0.51608 0.28279 0.85652-0.89761
   4   4   1 2969.22  195.53   1 0.49390-0.15216-0.48146 0.71439 0.72404-0.68299
  -4  -4  -2 9084.14  222.77   1-0.19867-0.13686-0.41239 0.19449 0.88907-0.97130
   4   4   2 8842.83  300.34   1 0.45150-0.11625-0.57120 0.78893 0.68546-0.60338
  -4  -4  -3 2297.15  105.43   1-0.41357 0.08484-0.26507 0.06245 0.87103-0.99443
   4   4   3 2446.81  362.29   1 0.40853-0.07997-0.64806 0.85065 0.64273-0.51961
   4   4   426102.44  433.39   1 0.59519-0.27335 0.11649 0.07126-0.79508 0.95926
  -4  -4  -427756.85  429.68   1-0.60756 0.28547-0.09118-0.09630 0.78901-0.95353
   4   4   425643.42  659.35   1 0.36561-0.04410-0.71202 0.89927 0.59945-0.43515
   4   4   5  368.28   59.41   1 0.73699-0.42179-0.04801 0.22054-0.67418 0.87946
   4   4   5  390.64   76.20   1 0.32593-0.01113-0.76408 0.93618 0.55672-0.35133
   4   4   6 6660.37  183.42   1 0.81910-0.51041-0.18282 0.33983-0.54373 0.78993
   4   4   6 6118.71  414.67   1 0.28970 0.01831-0.80668 0.96307 0.51509-0.26859
   4   4   792860.07 1195.81   1 0.85899-0.55685-0.28128 0.42282-0.42779 0.71493
   4   4   784666.00 1550.05   1 0.25740 0.04395-0.83946 0.98060 0.47857-0.19099
   4   4   8 4015.23  173.52   1 0.87550-0.57966-0.35150 0.47762-0.33155 0.66020
   4   4   8 3556.25  522.58   1 0.22929 0.06541-0.86501 0.99090 0.44628-0.11761
   4   4   9 2348.81  145.29   1 0.87947-0.59008-0.40335 0.51458-0.25262 0.62209
   4   4   9 2101.96  403.90   1 0.20589 0.08248-0.88418 0.99536 0.41931-0.04947
   4   4  10 3550.09  268.66   1 0.87720-0.59438-0.44214 0.53807-0.18713 0.59765
   4   4  10 3071.20  570.85   1 0.18590 0.09580-0.89930 0.99528 0.39584 0.01509
   4   4  11 1447.01  131.60   1 0.87134-0.59509-0.47281 0.55343-0.13116 0.58273
   4   4  11 1381.01  212.26   1 0.16956 0.10547-0.91076 0.99154 0.37649 0.07553
   4   4  12  431.34   85.45   1 0.86292-0.59425-0.49893 0.56387-0.08011 0.57350
   4   4  12  656.18  153.23   1 0.15656 0.11180-0.91932 0.98490 0.36100 0.13211
   4   4  1331682.56  626.41   1 0.85347-0.59151-0.51986 0.56950-0.03627 0.57077
   4   4  1330149.59 1366.88   1 0.14658 0.11511-0.92556 0.97594 0.34906 0.18515
   4   4  14  -85.83   84.85   1 0.84308-0.58782-0.53777 0.57210 0.00364 0.57197
   4   4  14  -99.31  157.91   1 0.13933 0.11568-0.92991 0.96509 0.34035 0.23495
   4   4  1521687.40 1353.36   1 0.83195-0.58340-0.55335 0.57238 0.04053 0.57620
   4   4  1520032.14 1291.99   1 0.13454 0.11381-0.93271 0.95269 0.33458 0.28181
   4   4  16   22.11   96.40   1 0.82017-0.57732-0.56727 0.57107 0.07417 0.58358
   4   4  16   50.43  131.17   1 0.13196 0.10972-0.93418 0.93897 0.33147 0.32602
   4   4  17  294.97  134.22   1 0.80792-0.57173-0.57951 0.56800 0.10686 0.59201
   4   4  17  237.12  173.12   1 0.13138 0.10363-0.93452 0.92410 0.33077 0.36781
   4   4  18  228.55  165.00   1 0.79513-0.56561-0.59051 0.56369 0.13805 0.60193
   4   4  18   35.93  119.33   1 0.13261 0.09573-0.93382 0.90820 0.33225 0.40742
   4   4  19 1952.38  290.44   1 0.78182-0.55897-0.60042 0.55831 0.16804 0.61305
   4   4  19 2127.84  310.43   1 0.13549 0.08618-0.93216 0.89134 0.33572 0.44505
   4   4  20 1265.07  235.64   1 0.76797-0.55180-0.60940 0.55198 0.19705 0.62515
   4   4  20  934.98  227.06   1 0.13988 0.07511-0.92959 0.87357 0.34101 0.48085
   4   4  21  448.57  162.32   1 0.75392-0.54444-0.61727 0.54445 0.22487 0.63808
   4   4  21  325.86  143.47   1 0.14567 0.06265-0.92611 0.85490 0.34797 0.51499
  -4  -5  14  207.78  148.97   1 0.54940-0.98840-0.66163 0.13708 0.51028 0.06528
  -4  -5  13   51.11  124.72   1 0.55553-0.98785-0.66152 0.15228 0.50374 0.03070
  -4  -5  12  426.88  262.12   1 0.56020-0.98586-0.66141 0.16747 0.49870-0.00535
  -4  -5  11   42.59  126.14   1 0.56327-0.98229-0.66147 0.18232 0.49515-0.04317
  -4  -5  10 1086.85  227.11   1 0.56442-0.97676-0.66143 0.19759 0.49389-0.08301
  -4  -5   9   22.79  114.98   1 0.56326-0.96891-0.66131 0.21329 0.49536-0.12535
  -4  -5   8   45.50  101.39   1 0.55944-0.95842-0.66143 0.22870 0.49952-0.17062
   4   5  -8   86.53   82.81   1 0.57239-0.17295 0.49152-0.05867 0.65633-0.98318
  -4  -5   7 -122.64   94.19   1 0.55226-0.94457-0.66159 0.24417 0.50724-0.21946
   4   5  -7  -89.80   75.27   1 0.58983-0.19779 0.41277 0.00364 0.69405-0.98023
  -4  -5   6  719.82  162.55   1 0.54079-0.92643-0.66169 0.25957 0.51933-0.27265
   4   5  -6  239.59   89.06   1 0.60410-0.21887 0.32529 0.07596 0.72749-0.97279
  -4  -5   5  355.71  115.27   1 0.52371-0.90268-0.66150 0.27468 0.53677-0.33121
   4   5  -5  368.33  116.40   1 0.61336-0.23476 0.23144 0.15483 0.75512-0.95964
  -4  -5   4  815.26  130.71   1 0.49908-0.87137-0.66057 0.28905 0.56086-0.39641
   4   5  -4  602.54  113.94   1 0.61651-0.24472 0.13239 0.23870 0.77613-0.93974
  -4  -5   3  181.31   73.56   1 0.46397-0.82959-0.65798 0.30177 0.59312-0.46978
   4   5  -3  468.57  120.33   1 0.61341-0.24902 0.03000 0.32575 0.78918-0.91206
  -4  -5   2 5360.49  360.72   1 0.41400-0.77268-0.65118 0.31023 0.63605-0.55381
   4   5  -2 4242.08  325.87   1 0.60317-0.24492-0.07467 0.41533 0.79410-0.87607
  -4  -5   1  439.29   80.74   1 0.34189-0.69393-0.63818 0.31251 0.68980-0.64868
   4   5  -1  274.17   84.02   1 0.58643-0.23490-0.17873 0.50421 0.79003-0.83101
  -4  -5   021826.04  787.56   1 0.23530-0.58045-0.60832 0.29750 0.75800-0.75800
   4   5   019651.65  763.80   1 0.56277-0.21820-0.27869 0.58887 0.77821-0.77821
  -4  -5  -150316.39 1711.63   1 0.08259-0.42094-0.55412 0.25869 0.82832-0.86941
   4   5   147559.73 1692.10   1 0.53429-0.19649-0.37366 0.66861 0.75822-0.71717
  -4  -5  -2    6.91   29.00   1-0.13185-0.19975-0.45118 0.17100 0.88263-0.96480
   4   5   2  178.91  131.68   1 0.50227-0.17122-0.46115 0.74093 0.73147-0.64937
  -4  -5  -3  695.25   58.14   1-0.40278 0.07799-0.27339 0.00867 0.87351-0.99691
   4   5   3  790.10  119.95   1 0.46732-0.14272-0.53927 0.80385 0.70056-0.57744
   4   5   4 3579.04  240.56   1 0.64021-0.32243 0.06945 0.18046-0.76505 0.92922
   4   5   4 3553.58  231.67   1 0.43199-0.11408-0.60775 0.85720 0.66634-0.50217
   4   5   5   44.68   26.77   1 0.80663-0.49540-0.15919 0.39359-0.56921 0.77437
   4   5   5   -6.27   75.82   1 0.39615-0.08534-0.66659 0.90066 0.63143-0.42604
   4   5   6  777.22   60.64   1 0.86764-0.56266-0.31267 0.53166-0.38655 0.63303
   4   5   6  892.72  185.39   1 0.36276-0.05865-0.71600 0.93492 0.59643-0.34997
   4   5   7  580.61   65.01   1 0.87943-0.58087-0.39959 0.60365-0.25869 0.54606
   4   5   7  531.70   85.90   1 0.33172-0.03432-0.75693 0.96068 0.56303-0.27549
   4   5   816263.63  592.65   1 0.87589-0.58391-0.45108 0.63984-0.17122 0.49964
   4   5   814767.30  824.81   1 0.30352-0.01291-0.79146 0.97933 0.53051-0.20184
   4   5   9 5184.69  333.50   1 0.86740-0.58254-0.48635 0.65935-0.10523 0.47527
   4   5   9 4282.07  334.09   1 0.27846 0.00548-0.81852 0.99114 0.50246-0.13270
   4   5  1025528.08 1423.94   1 0.85755-0.57940-0.51154 0.66924-0.05402 0.46517
   4   5  1024633.49 1809.78   1 0.25665 0.02064-0.84018 0.99754 0.47771-0.06688
   4   5  11 2562.61  157.55   1 0.84713-0.57569-0.53126 0.67365-0.01114 0.46341
   4   5  11 2402.82  435.70   1 0.23804 0.03259-0.85734 0.99945 0.45638-0.00446
   4   5  12 9824.65  310.63   1 0.83641-0.57168-0.54746 0.67455 0.02632 0.46706
   4   5  12 9075.62  545.99   1 0.22251 0.04147-0.87078 0.99764 0.43842 0.05458
   4   5  13   19.97   59.80   1 0.82538-0.56645-0.56145 0.67331 0.05927 0.47516
   4   5  13   84.97   84.94   1 0.21053 0.04712-0.88049 0.99287 0.42473 0.10947
   4   5  14 3685.62  310.83   1 0.81420-0.56194-0.57348 0.67004 0.09050 0.48503
   4   5  14 3096.39  568.40   1 0.20061 0.05037-0.88829 0.98547 0.41313 0.16217
   4   5  15  487.26  141.90   1 0.80271-0.55712-0.58418 0.66544 0.11987 0.49678
   4   5  15  174.38   84.07   1 0.19316 0.05115-0.89395 0.97592 0.40439 0.21200
   4   5  16   63.89   86.15   1 0.79089-0.55197-0.59381 0.65977 0.14784 0.50992
   4   5  16   81.46   79.40   1 0.18800 0.04964-0.89777 0.96455 0.39831 0.25918
   4   5  17 1985.91  283.54   1 0.77870-0.54645-0.60256 0.65321 0.17475 0.52412
   4   5  17 1721.04  294.04   1 0.18492 0.04604-0.90001 0.95159 0.39469 0.30390
   4   5  18 2647.01  270.14   1 0.76609-0.54051-0.61053 0.64588 0.20084 0.53914
   4   5  18 2052.81  333.64   1 0.18377 0.04053-0.90084 0.93722 0.39332 0.34636
   4   5  19  914.62  211.91   1 0.75340-0.53449-0.61755 0.63749 0.22587 0.55490
   4   5  19  725.73  152.07   1 0.18437 0.03325-0.90040 0.92158 0.39403 0.38673
   4   5  20  847.91  223.40   1 0.73988-0.52764-0.62422 0.62886 0.25080 0.57106
   4   5  20  759.29  140.19   1 0.18661 0.02435-0.89879 0.90477 0.39667 0.42519
   4   5  21   72.98  159.69   1 0.72586-0.52029-0.63033 0.61966 0.27532 0.58763
   4   5  21   58.26  120.88   1 0.19034 0.01394-0.89604 0.88682 0.40107 0.46188
  -4  -6  13  408.19  235.63   1 0.56662-0.99507-0.66135 0.08943 0.49147 0.04267
  -4  -6  12  -33.58  109.36   1 0.57271-0.99449-0.66109 0.10448 0.48472 0.00833
  -4  -6  11  836.64  232.22   1 0.57733-0.99244-0.66085 0.11955 0.47952-0.02755
  -4  -6  10   43.40  134.77   1 0.58030-0.98873-0.66068 0.13469 0.47617-0.06528
  -4  -6   9 4020.92  314.44   1 0.58132-0.98307-0.66062 0.14994 0.47501-0.10521
  -4  -6   8 3940.44  473.80   1 0.58001-0.97510-0.66070 0.16533 0.47649-0.14778
   4   6  -8 2298.54  294.42   1 0.57287-0.17748 0.48972 0.00522 0.65726-0.98411
  -4  -6   7 2835.46  256.89   1 0.57585-0.96426-0.66093 0.18087 0.48119-0.19357
   4   6  -7 2191.82  212.13   1 0.58869-0.20077 0.41844 0.06002 0.69161-0.97779
  -4  -6   6 1864.73  227.62   1 0.56808-0.94982-0.66129 0.19654 0.48986-0.24333
   4   6  -6 1160.91  206.05   1 0.60204-0.22092 0.34048 0.12282 0.72222-0.96752
  -4  -6   5  306.80   90.89   1 0.55534-0.93045-0.66153 0.21265 0.50394-0.29838
   4   6  -5  268.46  118.34   1 0.61144-0.23688 0.25772 0.19062 0.74813-0.95265
  -4  -6   4  749.31  151.27   1 0.53644-0.90487-0.66168 0.22810 0.52383-0.35938
   4   6  -4  427.71  129.46   1 0.61604-0.24829 0.17101 0.26215 0.76892-0.93253
  -4  -6   3 1988.82  174.33   1 0.50864-0.87040-0.66102 0.24275 0.55166-0.42832
   4   6  -3 1714.28  194.57   1 0.61586-0.25548 0.08164 0.33616 0.78360-0.90648
  -4  -6   2   43.49   66.84   1 0.46790-0.82300-0.65834 0.25537 0.58961-0.50739
   4   6  -2   77.14   84.69   1 0.61038-0.25674-0.01000 0.41264 0.79204-0.87396
  -4  -6   1  -27.13   56.59   1 0.40729-0.75551-0.65017 0.26242 0.64139-0.60027
   4   6  -1  202.78  119.97   1 0.59945-0.25189-0.10187 0.48940 0.79389-0.83488
  -4  -6   0 7981.57  481.14   1 0.31561-0.65719-0.63229 0.25982 0.70751-0.70751
   4   6   0 7002.73  476.66   1 0.58376-0.24292-0.19219 0.56453 0.78885-0.78885
  -4  -6  -1   64.74   51.02   1 0.16952-0.50407-0.58709 0.22933 0.79156-0.83265
   4   6   1  -24.89   84.61   1 0.56277-0.22890-0.27868 0.63574 0.77821-0.73717
  -4  -6  -2  772.71   64.13   1-0.06066-0.26704-0.48873 0.14641 0.87032-0.95249
   4   6   2  648.03  142.27   1 0.53886-0.21174-0.36098 0.70288 0.76112-0.67905
   4   6   3 3592.09  230.55   1 0.51172-0.19136-0.43709 0.76373 0.73965-0.61651
   4   6   4 3723.44  232.85   1 0.48321-0.16960-0.50618 0.81766 0.71434-0.55015
   4   6   5 4662.78  240.14   1 0.45337-0.14612-0.56755 0.86386 0.68726-0.48205
   4   6   6 4013.74  257.46   1 0.42431-0.12375-0.62136 0.90254 0.65868-0.41243
   4   6   7   54.20   58.76   1 0.39518-0.10177-0.66811 0.93384 0.63043-0.34289
   4   6   8  422.28  110.71   1 0.36873-0.08201-0.70761 0.95818 0.60276-0.27414
   4   6   9 2639.38  182.73   1 0.79602-0.51435-0.58979 0.82502 0.13596 0.23403
   4   6   9 2725.58  512.02   1 0.34437-0.06436-0.74079 0.97621 0.57673-0.20704
   4   6  10 3454.80  210.81   1 0.79325-0.51825-0.59199 0.81192 0.14242 0.26868
   4   6  10 3336.95  597.11   1 0.32240-0.04909-0.76837 0.98863 0.55286-0.14208
   4   6  1111827.68  586.40   1 0.78821-0.51988-0.59583 0.80046 0.15392 0.29828
   4   6  1110241.63  628.77   1 0.30285-0.03631-0.79221 0.99630 0.52977-0.07785
   4   6  1232530.12  562.78   1 0.78176-0.52009-0.60047 0.78979 0.16817 0.32514
   4   6  1230526.20 1372.47   1 0.28597-0.02609-0.81066 0.99949 0.51091-0.01791
   4   6  13  529.43  121.26   1 0.77427-0.51928-0.60547 0.77949 0.18410 0.35032
   4   6  13  246.38   77.67   1 0.27165-0.01842-0.82547 0.99905 0.49476 0.03932
   4   6  14 2520.60  256.24   1 0.76594-0.51762-0.61062 0.76934 0.20114 0.37439
   4   6  14 1913.75  526.24   1 0.25980-0.01322-0.83716 0.99549 0.48130 0.09386
   4   6  1519017.18  491.65   1 0.75728-0.51562-0.61546 0.75878 0.21843 0.39796
   4   6  1516920.87  896.55   1 0.25029-0.01037-0.84617 0.98925 0.47045 0.14580
   4   6  16  754.86  219.05   1 0.74754-0.51254-0.62054 0.74855 0.23683 0.42065
   4   6  16  443.03  108.63   1 0.24301-0.00974-0.85287 0.98070 0.46210 0.19523
   4   6  17    0.37   93.73   1 0.73716-0.50882-0.62547 0.73818 0.25567 0.44291
   4   6  17  -17.16  115.23   1 0.23781-0.01119-0.85755 0.97013 0.45611 0.24230
   4   6  18 1352.70  223.71   1 0.72614-0.50448-0.63021 0.72761 0.27484 0.46483
   4   6  18 1340.50  289.28   1 0.23454-0.01458-0.86044 0.95777 0.45235 0.28715
   4   6  19  105.29  117.78   1 0.71450-0.49950-0.63472 0.71682 0.29429 0.48648
   4   6  19  158.84  135.75   1 0.23308-0.01977-0.86172 0.94379 0.45066 0.32992
   4   6  20  745.32  186.58   1 0.70223-0.49390-0.63897 0.70576 0.31397 0.50789
   4   6  20  587.31  197.34   1 0.23331-0.02665-0.86152 0.92835 0.45092 0.37074
   4   6  21  -48.61  101.80   1 0.68932-0.48766-0.64294 0.69442 0.33385 0.52911
   4   6  21  128.47   69.93   1 0.23511-0.03510-0.85994 0.91151 0.45300 0.40975
  -4  -7  12  112.49  134.85   1 0.58109-0.99896-0.66063 0.04187 0.47527 0.01779
  -4  -7  11 1100.46  233.88   1 0.58705-0.99824-0.66024 0.05679 0.46844-0.01646
  -4  -7  10  -29.36  100.97   1 0.59152-0.99604-0.65991 0.07177 0.46325-0.05237
  -4  -7   9  193.51  204.00   1 0.59427-0.99212-0.65969 0.08686 0.46003-0.09024
  -4  -7   8 1074.64  187.63   1 0.59500-0.98617-0.65963 0.10211 0.45918-0.13047
   4   7  -8  874.10  162.92   1 0.57158-0.18024 0.49451 0.06251 0.65478-0.98163
  -4  -7   7  242.48  159.49   1 0.59327-0.97777-0.65977 0.11756 0.46121-0.17359
   4   7  -7  152.72  104.01   1 0.58641-0.20259 0.42949 0.11102 0.68676-0.97294
  -4  -7   6 1253.71  202.90   1 0.58847-0.96629-0.66014 0.13324 0.46680-0.22027
   4   7  -6  597.92  152.76   1 0.59926-0.22225 0.35921 0.16614 0.71543-0.96072
  -4  -7   5 1030.24  173.46   1 0.57968-0.95083-0.66072 0.14913 0.47687-0.27143
   4   7  -5  955.45  191.42   1 0.60893-0.23840 0.28520 0.22521 0.74017-0.94469
  -4  -7   4   91.67  109.62   1 0.56518-0.92975-0.66125 0.16562 0.49325-0.32881
   4   7  -4  102.60  110.73   1 0.61468-0.25097 0.20812 0.28711 0.76081-0.92443
  -4  -7   3   99.89   80.75   1 0.54350-0.90140-0.66168 0.18135 0.51650-0.39316
   4   7  -3  154.61  119.20   1 0.61665-0.26028 0.12890 0.35094 0.77660-0.89949
  -4  -7   225530.92  523.39   1 0.51086-0.86209-0.66111 0.19608 0.54949-0.46727
   4   7  -219489.44  548.53   1 0.61444-0.26481 0.04762 0.41705 0.78752-0.86944
  -4  -7   1 8497.15  449.77   1 0.46129-0.80585-0.65772 0.20800 0.59548-0.55437
   4   7  -1 7824.38  502.95   1 0.60807-0.26518-0.03417 0.48368 0.79314-0.83410
  -4  -7   0 1887.41  119.35   1 0.38289-0.72066-0.64616 0.21160 0.66020-0.66020
   4   7   0 1720.46  211.97   1 0.59742-0.26056-0.11547 0.54987 0.79356-0.79356
  -4  -7  -1   13.59   33.03   1 0.25052-0.58119-0.61278 0.19286 0.74948-0.79057
   4   7   1   54.19   82.98   1 0.58323-0.25309-0.19479 0.61401 0.78860-0.74761
   4   7   2  221.99   97.86   1 0.56483-0.24166-0.27070 0.67464 0.77953-0.69746
   4   7   3   49.20   89.16   1 0.54453-0.22811-0.34292 0.73170 0.76543-0.64232
   4   7   4  144.48   97.41   1 0.52170-0.21204-0.41017 0.78367 0.74805-0.58386
   4   7   5 4079.74  323.30   1 0.49796-0.19504-0.47174 0.83007 0.72766-0.52242
   4   7   6 3816.16  337.81   1 0.47301-0.17642-0.52722 0.87040 0.70589-0.45964
   4   7   7 4914.44  387.50   1 0.44872-0.15882-0.57659 0.90463 0.68277-0.39547
   4   7   8    9.03   93.56   1 0.42513-0.14192-0.61993 0.93283 0.65950-0.33116
   4   7   9  465.93  134.92   1 0.40271-0.12619-0.65752 0.95528 0.63677-0.26740
   4   7  10  383.36   78.55   1 0.38066-0.11134-0.69027 0.97250 0.61532-0.20454
   4   7  11 1843.85  311.16   1 0.36159-0.09897-0.71763 0.98471 0.59518-0.14333
   4   7  12 1221.89  129.70   1 0.67531-0.41763-0.64668 0.89800 0.35460 0.13845
   4   7  12 1176.08  229.32   1 0.34452-0.08861-0.74060 0.99251 0.57690-0.08397
   4   7  13    2.11   52.33   1 0.68426-0.43317-0.64436 0.88044 0.34142 0.19279
   4   7  13   83.36   83.96   1 0.32954-0.08033-0.75964 0.99641 0.56065-0.02665
   4   7  1418824.69 1158.20   1 0.68730-0.44288-0.64351 0.86429 0.33688 0.23842
   4   7  1416524.08 1256.44   1 0.31667-0.07416-0.77522 0.99683 0.54656 0.02851
   4   7  15 1565.28  176.35   1 0.68650-0.44874-0.64374 0.84921 0.33808 0.27831
   4   7  15 1478.81  197.01   1 0.30568-0.06987-0.78901 0.99406 0.53292 0.08333
   4   7  16  418.58  166.77   1 0.68303-0.45194-0.64470 0.83486 0.34325 0.31423
   4   7  16  346.82  153.47   1 0.29691-0.06775-0.79883 0.98863 0.52316 0.13417
   4   7  17   30.75   81.37   1 0.67756-0.45314-0.64614 0.82100 0.35129 0.34729
   4   7  17  135.93   80.36   1 0.29010-0.06759-0.80625 0.98080 0.51554 0.18287
   4   7  18   82.91  122.37   1 0.67063-0.45299-0.64782 0.80729 0.36133 0.37825
   4   7  18  236.10  158.08   1 0.28515-0.06929-0.81153 0.97083 0.50999 0.22951
   4   7  19 2074.36  246.85   1 0.66225-0.45128-0.64973 0.79389 0.37316 0.40751
   4   7  19 1964.86  333.59   1 0.28198-0.07277-0.81487 0.95892 0.50642 0.27416
   4   7  20 5205.88 1033.80   1 0.28048-0.07792-0.81643 0.94523 0.50473 0.31694
   4   7  21  575.91  154.73   1 0.28056-0.08466-0.81635 0.92990 0.50482 0.35793
  -4  -8  11   11.61  108.84   1 0.59265-0.99993-0.65982-0.00577 0.46194-0.00997
  -4  -8  10   34.21  107.56   1 0.59836-0.99897-0.65934 0.00905 0.45521-0.04433
  -4  -8   9  456.02  214.04   1 0.60253-0.99646-0.65895 0.02397 0.45025-0.08045
  -4  -8   8   16.78   91.34   1 0.60490-0.99216-0.65872 0.03905 0.44741-0.11870
   4   8  -8   46.57   96.25   1 0.56896-0.18167 0.50408 0.11504 0.64975-0.97660
  -4  -8   7 2518.37  283.23   1 0.60510-0.98569-0.65870 0.05434 0.44716-0.15954
   4   8  -7 1646.70  240.26   1 0.58317-0.20346 0.44436 0.15821 0.68003-0.96621
  -4  -8   6  632.25  177.39   1 0.60264-0.97655-0.65894 0.06989 0.45012-0.20358
   4   8  -6  442.39  130.16   1 0.59580-0.22289 0.38042 0.20698 0.70731-0.95261
  -4  -8   5  186.05  131.21   1 0.59677-0.96400-0.65948 0.08574 0.45710-0.25166
   4   8  -5   55.31   83.59   1 0.60557-0.23948 0.31358 0.25865 0.73139-0.93581
  -4  -8   4   38.71   75.09   1 0.58636-0.94692-0.66029 0.10186 0.46924-0.30489
   4   8  -4   29.46   75.25   1 0.61249-0.25282 0.24416 0.31315 0.75181-0.91543
  -4  -8   3   54.36   62.92   1 0.56964-0.92353-0.66123 0.11811 0.48813-0.36486
   4   8  -3  101.66   81.30   1 0.61599-0.26314 0.17281 0.36931 0.76855-0.89126
  -4  -8   2  -26.98   57.04   1 0.54308-0.89045-0.66168 0.13460 0.51694-0.43471
   4   8  -2  -12.84   81.74   1 0.61634-0.27072 0.10019 0.42654 0.78107-0.86299
  -4  -8   132894.47 1674.36   1 0.50261-0.84330-0.66075 0.14896 0.55748-0.51637
   4   8  -126155.82 1424.90   1 0.61320-0.27432 0.02666 0.48489 0.78947-0.83043
  -4  -8   014756.09  329.62   1 0.43669-0.77065-0.65424 0.15761 0.61745-0.61745
   4   8   013154.00  486.08   1 0.60650-0.27359-0.04684 0.54330 0.79370-0.79370
   4   8   1 5399.62  342.49   1 0.59685-0.27068-0.11916 0.60043 0.79345-0.75246
   4   8   210612.91  405.05   1 0.58429-0.26485-0.18952 0.65560 0.78909-0.70712
   4   8   3  214.26  102.90   1 0.56830-0.25583-0.25686 0.70768 0.78169-0.65858
   4   8   4 4053.48  321.16   1 0.55111-0.24539-0.32093 0.75659 0.77024-0.60609
   4   8   5  525.93  148.14   1 0.53187-0.23290-0.38094 0.80130 0.75630-0.55106
   4   8   6 2394.56  332.06   1 0.51205-0.21983-0.43621 0.84141 0.73994-0.49365
   4   8   7 1804.64  221.26   1 0.49174-0.20627-0.48656 0.87659 0.72210-0.43476
   4   8   824901.41  637.87   1 0.47082-0.19158-0.53189 0.90679 0.70385-0.37552
   4   8   9  171.50  141.47   1 0.45099-0.17844-0.57219 0.93196 0.68497-0.31559
   4   8  10 4785.11  336.66   1 0.43204-0.16618-0.60766 0.95229 0.66639-0.25597
   4   8  11 2577.79  271.83   1 0.41427-0.15510-0.63854 0.96803 0.64856-0.19710
   4   8  12  -25.50  102.61   1 0.39669-0.14477-0.66575 0.97964 0.63198-0.13905
   4   8  13  177.46   71.03   1 0.38189-0.13668-0.68843 0.98716 0.61661-0.08261
   4   8  14 2133.55  265.93   1 0.36880-0.13029-0.70750 0.99108 0.60283-0.02775
   4   8  15   96.80   99.69   1 0.35745-0.12564-0.72332 0.99175 0.59077 0.02537
   4   8  16  501.46  142.62   1 0.34787-0.12277-0.73619 0.98946 0.58051 0.07672
   4   8  17  191.33  111.78   1 0.34004-0.12164-0.74640 0.98451 0.57206 0.12624
   4   8  18   66.61   85.69   1 0.33392-0.12222-0.75418 0.97713 0.56542 0.17396
   4   8  19   18.74   83.51   1 0.32945-0.12446-0.75974 0.96755 0.56056 0.21989
   4   8  20  -34.54  111.21   1 0.32659-0.12830-0.76327 0.95592 0.55744 0.26410
   4   8  21 1320.29  272.72   1 0.32526-0.13367-0.76490 0.94239 0.55598 0.30663
  -4  -9   9  117.12  144.19   1 0.60634-0.99637-0.65857-0.03855 0.44566-0.07587
  -4  -9   8  -37.91   82.01   1 0.61002-0.99336-0.65818-0.02363 0.44121-0.11250
   4   9  -8   54.29  107.10   1 0.56522-0.18197 0.51719 0.16401 0.64267-0.96952
  -4  -9   7   43.80   85.64   1 0.61174-0.98842-0.65798-0.00851 0.43910-0.15148
   4   9  -7  231.46  185.40   1 0.57908-0.20347 0.46202 0.20260 0.67170-0.95788
  -4  -9   6  233.88  185.16   1 0.61110-0.98110-0.65806 0.00686 0.43989-0.19336
   4   9  -6  211.03  178.34   1 0.59164-0.22284 0.40342 0.24603 0.69799-0.94329
  -4  -9   5  585.99  130.62   1 0.60746-0.97078-0.65845 0.02256 0.44432-0.23888
   4   9  -5  419.18  179.20   1 0.60175-0.23977 0.34248 0.29181 0.72152-0.92593
  -4  -9   4   68.96   71.24   1 0.59987-0.95652-0.65920 0.03862 0.45342-0.28907
   4   9  -4  225.34  139.50   1 0.60950-0.25386 0.27941 0.33996 0.74191-0.90552
  -4  -9   3  287.91  120.50   1 0.58686-0.93684-0.66026 0.05499 0.46866-0.34539
   4   9  -3  298.70  162.52   1 0.61434-0.26552 0.21477 0.38942 0.75924-0.88195
  -4  -9   2  247.99   89.49   1 0.56533-0.90883-0.66124 0.07210 0.49310-0.41087
   4   9  -2  355.98  146.13   1 0.61642-0.27442 0.14894 0.44006 0.77319-0.85500
   4   9  -1   14.29   91.70   1 0.61589-0.28102 0.08241 0.49119 0.78350-0.82446
   4   9   0  405.54  143.80   1 0.61245-0.28432 0.01575 0.54268 0.79035-0.79035
   4   9   1 2925.70  361.61   1 0.60608-0.28387-0.05055 0.59388 0.79379-0.75280
   4   9   2  904.09  215.94   1 0.59744-0.28196-0.11538 0.64352 0.79356-0.71159
   4   9   3 1505.48  251.60   1 0.58652-0.27776-0.17828 0.69123 0.79006-0.66711
   4   9   4 2440.77  235.32   1 0.57270-0.27093-0.23852 0.73621 0.78429-0.62014
   4   9   5 4467.97  292.51   1 0.55819-0.26317-0.29582 0.77835 0.77518-0.56999
   4   9   6  196.49  148.38   1 0.54247-0.25420-0.34956 0.81694 0.76388-0.51766
   4   9   7 7890.28  386.59   1 0.52543-0.24391-0.39965 0.85170 0.75112-0.46378
   4   9   811512.33  718.84   1 0.50850-0.23372-0.44543 0.88232 0.73689-0.40850
   4   9   9  153.64  159.43   1 0.49156-0.22353-0.48699 0.90871 0.72194-0.35250
   4   9  10 1444.52  217.23   1 0.47431-0.21242-0.52442 0.93104 0.70711-0.29669
   4   9  11 1746.30  220.57   1 0.45836-0.20316-0.55763 0.94912 0.69205-0.24059
   4   9  12 1525.63  228.49   1 0.44333-0.19481-0.58688 0.96323 0.67751-0.18501
   4   9  13   54.48  114.49   1 0.42942-0.18759-0.61235 0.97357 0.66378-0.13024
   4   9  14 9667.36  984.16   1 0.41678-0.18165-0.63430 0.98038 0.65110-0.07652
   4   9  15 2633.52  538.37   1 0.40553-0.17709-0.65296 0.98390 0.63967-0.02404
   4   9  16 2293.93  362.40   1 0.39447-0.17335-0.66923 0.98447 0.62969 0.02754
   4   9  17   59.32   61.60   1 0.38615-0.17174-0.68202 0.98210 0.62106 0.07724
   4   9  18  916.64  263.05   1 0.37935-0.17164-0.69221 0.97714 0.61394 0.12544
   4   9  19  948.32  159.44   1 0.37403-0.17303-0.69999 0.96976 0.60836 0.17210
   4   9  20  446.43  174.30   1 0.37019-0.17589-0.70552 0.96014 0.60430 0.21723
   4   9  21  139.55   88.55   1 0.36778-0.18018-0.70895 0.94841 0.60176 0.26085
   4  10  -8    6.81  112.21   1 0.56047-0.18127 0.53302 0.21027 0.63383-0.96068
   4  10  -7   76.39  115.23   1 0.57510-0.20285 0.48119 0.24681 0.66159-0.94759
   4  10  -6  -23.72  103.76   1 0.58677-0.22208 0.42777 0.28373 0.68753-0.93282
   4  10  -5  283.39  230.59   1 0.59725-0.23937 0.37180 0.32453 0.71066-0.91508
   4  10  -4  330.30  225.37   1 0.60550-0.25443 0.31416 0.36701 0.73120-0.89474
   4  10  -3   74.47   94.70   1 0.61166-0.26688 0.25504 0.41122 0.74887-0.87158
   4  10  -2   20.69   85.62   1 0.61526-0.27730 0.19499 0.45609 0.76381-0.84562
   4  10  -1 1476.86  269.05   1 0.61665-0.28580 0.13427 0.50137 0.77569-0.81666
   4  10   0  649.15  215.22   1 0.61558-0.29147 0.07333 0.54714 0.78464-0.78464
   4  10   1  468.99  200.98   1 0.61223-0.29485 0.01274 0.59256 0.79057-0.74961
   4  10   2  130.27  116.58   1 0.60644-0.29493-0.04732 0.63752 0.79371-0.71174
   4  10   3 1175.47  226.55   1 0.59889-0.29410-0.10576 0.68076 0.79381-0.67086
   4  10   4   -8.52   98.18   1 0.58952-0.29147-0.16233 0.72215 0.79126-0.62732
   4  10   5 1290.56  234.25   1 0.57766-0.28659-0.21656 0.76113 0.78701-0.58183
   4  10   6 1757.39  269.89   1 0.56549-0.28117-0.26812 0.79754 0.77995-0.53373
   4  10   7  161.28  148.14   1 0.55236-0.27479-0.31661 0.83087 0.77113-0.48387
   4  10   8 5684.90  468.32   1 0.53860-0.26778-0.36177 0.86088 0.76093-0.43263
   4  10   9  822.83  176.27   1 0.52399-0.25991-0.40375 0.88750 0.74994-0.38050
   4  10  10 1916.85  234.61   1 0.50989-0.25256-0.44184 0.91043 0.73809-0.32760
   4  10  11   22.70  117.55   1 0.49606-0.24547-0.47632 0.92974 0.72597-0.27444
   4  10  12 1487.94  235.11   1 0.48274-0.23891-0.50722 0.94547 0.71391-0.22133
   4  10  13 2990.11  410.97   1 0.46945-0.23159-0.53480 0.95801 0.70256-0.16902
   4  10  14  193.28  133.35   1 0.45774-0.22658-0.55887 0.96695 0.69146-0.11688
   4  10  15 3073.37  351.57   1 0.44707-0.22260-0.57976 0.97270 0.68116-0.06554
   4  10  16  406.55  252.23   1 0.43755-0.21977-0.59763 0.97543 0.67184-0.01517
   4  10  17   46.14  125.22   1 0.42925-0.21816-0.61265 0.97531 0.66362 0.03408
   4  10  18  527.55  190.50   1 0.42222-0.21781-0.62500 0.97252 0.65658 0.08216
   4  10  19  336.15  161.54   1 0.41648-0.21876-0.63482 0.96721 0.65079 0.12899
   4  10  20   31.91  116.57   1 0.41204-0.22101-0.64227 0.95952 0.64629 0.17453
   4  11  -7   41.94  117.28   1 0.56933-0.20114 0.50273 0.28736 0.65047-0.93646
   4  11  -6   44.41  116.33   1 0.58117-0.22058 0.45314 0.32041 0.67593-0.92123
   4  11  -5   56.00  115.79   1 0.59201-0.23824 0.40145 0.35694 0.69882-0.90323
   4  11  -4  -18.54  113.61   1 0.60090-0.25394 0.34836 0.39487 0.71941-0.88294
   4  11  -3  104.02  123.02   1 0.60801-0.26726 0.29401 0.43432 0.73747-0.86018
   4  11  -2  222.65  165.02   1 0.61287-0.27894 0.23888 0.47427 0.75320-0.83501
   4  11  -1 3661.53  308.65   1 0.61569-0.28858 0.18320 0.51477 0.76639-0.80729
   4  11   0 1358.04  229.06   1 0.61664-0.29655 0.12712 0.55540 0.77690-0.77690
   4  11   1   30.32  103.59   1 0.61551-0.30215 0.07131 0.59604 0.78489-0.74393
   4  11   2  576.64  202.76   1 0.61247-0.30585 0.01608 0.63609 0.79032-0.70840
   4  11   3  220.68  165.39   1 0.60740-0.30658-0.03853 0.67559 0.79346-0.67050
   4  11   4  159.05  108.51   1 0.60094-0.30684-0.09143 0.71330 0.79404-0.63010
   4  11   5  178.36  153.79   1 0.59303-0.30566-0.14255 0.74924 0.79245-0.58753
   4  11   6 1423.77  255.38   1 0.58388-0.30325-0.19156 0.78306 0.78890-0.54299
   4  11   7  129.16  125.41   1 0.57277-0.29915-0.23821 0.81450 0.78433-0.49707
   4  11   8   87.06  121.69   1 0.56187-0.29500-0.28210 0.84325 0.77763-0.44933
   4  11   9  127.40  121.30   1 0.55047-0.29035-0.32311 0.86909 0.76978-0.40045
   4  11  10 1277.50  277.40   1 0.53883-0.28545-0.36107 0.89190 0.76110-0.35073
   4  11  11   16.45  116.24   1 0.52660-0.27997-0.39630 0.91174 0.75207-0.30054
   4  11  12 1218.77  210.57   1 0.51515-0.27526-0.42801 0.92829 0.74257-0.24999
   4  11  13   35.21  114.98   1 0.50410-0.27096-0.45658 0.94169 0.73307-0.19945
   4  11  14  159.85  130.37   1 0.49365-0.26726-0.48206 0.95201 0.72382-0.14914
   4  11  15 8854.22 3899.54   1 0.48394-0.26429-0.50453 0.95931 0.71501-0.09928
   4  11  16 1289.95  274.51   1 0.47434-0.26053-0.52434 0.96414 0.70714-0.05047
   4  11  17  -37.50  126.84   1 0.46643-0.25930-0.54113 0.96579 0.69972-0.00201
   4  11  18  145.12  119.68   1 0.45955-0.25911-0.55524 0.96477 0.69319 0.04555
   4  11  19  349.64  185.72   1 0.45375-0.26000-0.56681 0.96119 0.68762 0.09216
   4  12  -5   71.52  127.98   1 0.58602-0.23635 0.43134 0.38910 0.68594-0.89035
   4  12  -4  140.45  124.89   1 0.59549-0.25263 0.38219 0.42309 0.70662-0.87015
   4  12  -3   72.80  131.88   1 0.60320-0.26716 0.33205 0.45806 0.72517-0.84782
   4  12  -2  201.30  147.34   1 0.60934-0.27945 0.28106 0.49416 0.74141-0.82322
   4  12  -1  126.41  114.90   1 0.61348-0.29040 0.22968 0.53036 0.75557-0.79647
   4  12   0  -56.56  100.40   1 0.61585-0.29959 0.17809 0.56677 0.76746-0.76746
   4  12   1 1878.23  306.53   1 0.61664-0.30730 0.12629 0.60311 0.77704-0.73608
   4  12   2   81.68  135.26   1 0.61565-0.31304 0.07510 0.63912 0.78443-0.70251
   4  12   3  551.66  196.98   1 0.61307-0.31719 0.02465 0.67440 0.78964-0.66675
   4  12   4  148.16  132.57   1 0.60902-0.31988-0.02472 0.70860 0.79276-0.62892
   4  12   5   26.97  115.90   1 0.60336-0.31996-0.07320 0.74195 0.79409-0.58917
   4  12   6  282.67  213.85   1 0.59679-0.32012-0.11957 0.77313 0.79343-0.54752
   4  12   7  282.18  181.25   1 0.58922-0.31928-0.16399 0.80236 0.79115-0.50425
   4  12   8  266.15  134.49   1 0.57987-0.31695-0.20633 0.82950 0.78814-0.45984
   4  12   9  833.49  226.49   1 0.57090-0.31472-0.24615 0.85417 0.78324-0.41391
   4  12  10  681.67  185.31   1 0.56152-0.31210-0.28342 0.87628 0.77740-0.36703
   4  12  11  238.07  141.26   1 0.55196-0.30928-0.31800 0.89571 0.77085-0.31944
   4  12  12  108.63  120.63   1 0.54239-0.30647-0.34982 0.91237 0.76382-0.27137
   4  12  13  125.94  129.29   1 0.53242-0.30322-0.37929 0.92642 0.75674-0.22311
   4  12  14  932.79  251.61   1 0.52336-0.30091-0.40553 0.93750 0.74942-0.17474
   4  12  15    7.06  130.32   1 0.51478-0.29908-0.42899 0.94579 0.74226-0.12654
   4  12  16  200.14  145.00   1 0.50682-0.29787-0.44971 0.95135 0.73544-0.07867
   4  12  17  435.65  203.42   1 0.49959-0.29739-0.46776 0.95424 0.72910-0.03128
   4  12  18  265.82  167.00   1 0.49316-0.29771-0.48321 0.95452 0.72338 0.01548
   4  13  -2   98.84  136.10   1 0.60452-0.27939 0.32199 0.51500 0.72860-0.81037
   4  13  -1  110.04  123.83   1 0.60999-0.29096 0.27425 0.54786 0.74343-0.78433
   4  13   0   54.92  116.01   1 0.61368-0.30146 0.22642 0.58051 0.75638-0.75638
   4  13   1   14.42  118.90   1 0.61583-0.31043 0.17864 0.61310 0.76735-0.72644
   4  13   2  349.50  186.90   1 0.61665-0.31806 0.13077 0.64550 0.77629-0.69437
   4  13   3  201.49  180.21   1 0.61593-0.32407 0.08377 0.67733 0.78333-0.66044
   4  13   4  265.48  232.40   1 0.61388-0.32876 0.03761 0.70832 0.78849-0.62465
   4  13   5  275.03  210.03   1 0.61060-0.33222-0.00744 0.73820 0.79189-0.58709
   4  13   6  744.71  189.77   1 0.60595-0.33325-0.05167 0.76729 0.79381-0.54790
   4  13   7  529.60  191.59   1 0.60060-0.33462-0.09383 0.79425 0.79402-0.50712
   4  13   8 1146.47  244.03   1 0.59444-0.33519-0.13417 0.81941 0.79286-0.46498
   4  13   9  261.65  201.10   1 0.58762-0.33510-0.17250 0.84255 0.79052-0.42166
   4  13  10  600.12  230.04   1 0.57934-0.33386-0.20882 0.86372 0.78787-0.37750
   4  13  11   69.37  112.09   1 0.57172-0.33300-0.24267 0.88242 0.78373-0.33232
   4  13  12  920.34  240.91   1 0.56395-0.33198-0.27412 0.89871 0.77897-0.28653
   4  13  13  550.01  191.81   1 0.55619-0.33096-0.30309 0.91252 0.77381-0.24032
   4  13  14  135.07  137.11   1 0.54858-0.33010-0.32953 0.92381 0.76841-0.19389
   4  13  15  629.08  209.41   1 0.54126-0.32953-0.35344 0.93256 0.76296-0.14740
   4  13  16  196.48  124.18   1 0.53374-0.32873-0.37533 0.93900 0.75778-0.10101
   4  13  17  -38.30  113.60   1 0.52733-0.32908-0.39420 0.94270 0.75267-0.05485
   4  14   1  -11.29  114.17   1 0.61356-0.31220 0.22830 0.62552 0.75591-0.71501
   4  14   2  -19.09  112.64   1 0.61566-0.32112 0.18406 0.65458 0.76620-0.68440
   4  14   3  214.81  134.86   1 0.61649-0.32876 0.14027 0.68318 0.77476-0.65205
   4  14   4  138.23  123.14   1 0.61626-0.33516 0.09660 0.71137 0.78158-0.61774
   4  14   5   92.95  111.75   1 0.61477-0.34040 0.05431 0.73849 0.78682-0.58202
   4  14   6  679.84  190.21   1 0.61226-0.34462 0.01314 0.76449 0.79054-0.54478
   4  14   7   84.58  124.32   1 0.60882-0.34793-0.02670 0.78916 0.79285-0.50612
   4  14   8  122.90  120.68   1 0.60430-0.34902-0.06564 0.81294 0.79404-0.46616
   4  14   9  682.69  208.69   1 0.59939-0.35083-0.10231 0.83442 0.79388-0.42502
   4  14  10  262.62  141.83   1 0.59394-0.35212-0.13713 0.85405 0.79272-0.38287
   4  14  11  481.84  198.75   1 0.58810-0.35301-0.16997 0.87170 0.79071-0.33988
   4  14  12 1406.37  271.70   1 0.58201-0.35364-0.20070 0.88724 0.78802-0.29620
   4  14  13  748.79  251.63   1 0.57481-0.35353-0.22936 0.90083 0.78548-0.25199
   4  14  14   89.15  138.87   1 0.56861-0.35408-0.25562 0.91193 0.78188-0.20736
   4  14  15   13.15  110.78   1 0.56254-0.35476-0.27956 0.92072 0.77806-0.16250
   4  15   5  234.20  140.61   1 0.61654-0.34619 0.11305 0.74180 0.77915-0.57435
   4  15   6   44.66  124.75   1 0.61562-0.35200 0.07429 0.76539 0.78453-0.53876
   4  15   7  187.06  129.62   1 0.61382-0.35694 0.03665 0.78786 0.78858-0.50186
   4  15   8   87.08  123.92   1 0.61126-0.36111 0.00030 0.80903 0.79142-0.46374
   4  15   9  122.39  133.80   1 0.60774-0.36315-0.03525 0.82941 0.79335-0.42448
   4  15  10   24.42  123.84   1 0.60394-0.36608-0.06858 0.84755 0.79407-0.38422
   4  15  11  196.91  145.07   1 0.59970-0.36857-0.10018 0.86396 0.79392-0.34309
  -5  12   9 4181.38  417.32   1-0.43227-0.13161-0.25038 0.85825 0.86628-0.49606
   5 -12  -8 1755.61  298.28   1 0.47546 0.08177 0.22499-0.84935-0.85047 0.52144
  -5  12   8 1119.39  244.08   1-0.46681-0.09045-0.22206 0.84499 0.85602-0.52706
   5 -12  -7  180.23  129.25   1 0.51051 0.04012 0.19480-0.83445-0.83751 0.54961
  -5  12   7  -40.69  125.57   1-0.50214-0.04839-0.19199 0.83019 0.84320-0.55536
   5 -12  -6   38.73  103.33   1 0.54560-0.00156 0.16302-0.81796-0.82203 0.57526
  -5  12   6  -47.55  122.68   1-0.53757-0.00624-0.16031 0.81379 0.82783-0.58111
   5 -12  -5  484.64  136.89   1 0.58114-0.04364 0.13044-0.80026-0.80327 0.59805
  -5  12   5   84.77  130.32   1-0.57192 0.03415-0.12663 0.79562 0.81046-0.60481
   5 -12  -4  176.59  110.22   1 0.61500-0.08411 0.09626-0.78131-0.78262 0.61844
  -5  12   4  380.36  162.34   1-0.60627 0.07511-0.09251 0.77673 0.78985-0.62533
   5 -12  -3 2045.86  453.60   1 0.64770-0.12343 0.06124-0.76151-0.75942 0.63628
   5 -12  -2   79.99   73.06   1 0.67890-0.16124 0.02565-0.74114-0.73378 0.65169
   5 -12  -1 1227.55  234.66   1 0.70824-0.19721-0.01020-0.72047-0.70589 0.66484
   5 -12   0 1476.63  410.24   1 0.73558-0.23117-0.04607-0.69982-0.67586 0.67586
   5 -12   1  166.76  115.06   1 0.76067-0.26288-0.08169-0.67943-0.64396 0.68502
   5 -12   2  469.83  232.23   1 0.78236-0.29186-0.11764-0.65850-0.61161 0.69367
  -5  11  12  169.03  187.73   1-0.27340-0.30647-0.36554 0.86543 0.88973-0.39635
  -5  11  11  -11.20  118.96   1-0.30504-0.26839-0.34395 0.85920 0.88805-0.43557
  -5  11  10  184.80  183.59   1-0.33887-0.22781-0.32046 0.85097 0.88457-0.47322
  -5  11   9  136.80  181.04   1-0.37436-0.18558-0.29477 0.84054 0.87917-0.50896
  -5  11   8  387.43  204.67   1-0.41118-0.14202-0.26692 0.82795 0.87159-0.54251
  -5  11   7  896.06  231.36   1-0.44867-0.09791-0.23696 0.81307 0.86170-0.57386
   5 -11  -6 1580.92  305.98   1 0.49493 0.04506 0.20840-0.80112-0.84356 0.59679
  -5  11   6 1952.63  316.34   1-0.48692-0.05294-0.20512 0.79651 0.84901-0.60229
   5 -11  -5  273.88  129.46   1 0.53285 0.00054 0.17474-0.78276-0.82796 0.62231
  -5  11   5  181.83  182.99   1-0.52517-0.00796-0.17157 0.77824 0.83351-0.62791
   5 -11  -4 1345.61  243.14   1 0.57102-0.04420 0.14028-0.76317-0.80885 0.64467
  -5  11   4 1704.65  275.41   1-0.56297 0.03654-0.13657 0.75851 0.81511-0.65063
   5 -11  -3  148.33  109.92   1 0.60737-0.08716 0.10414-0.74225-0.78756 0.66442
  -5  11   3   49.05  123.85   1-0.59903 0.07854-0.09986 0.73721 0.79447-0.67108
   5 -11  -2  689.88  186.84   1 0.64231-0.12871 0.06716-0.72050-0.76349 0.68140
   5 -11  -1 1456.13  312.84   1 0.67546-0.16847 0.02969-0.69824-0.73679 0.69574
   5 -11   0  295.82  183.04   1 0.70646-0.20612-0.00797-0.67577-0.70770 0.70770
   5 -11   1 2036.20  428.43   1 0.73515-0.24142-0.04550-0.65346-0.67636 0.71742
   5 -11   2 2993.74  475.82   1 0.76130-0.27419-0.08262-0.63157-0.64310 0.72521
   5 -11   3  -18.08  138.24   1 0.78380-0.30390-0.11998-0.60928-0.60930 0.73240
   5 -11   4 -113.58  128.21   1 0.80463-0.33131-0.15558-0.58893-0.57301 0.73714
   5 -11   5  449.28  219.17   1 0.82276-0.35600-0.19014-0.56963-0.53563 0.74079
  -5  10  14  252.13  157.01   1-0.15554-0.43383-0.43792 0.84589 0.88545-0.31023
  -5  10  13   50.62  134.51   1-0.18153-0.40117-0.42255 0.84505 0.88796-0.35347
  -5  10  12  364.90  222.90   1-0.21124-0.36471-0.40480 0.84257 0.88966-0.39628
  -5  10  11  243.74  199.47   1-0.24348-0.32573-0.38481 0.83786 0.89030-0.43803
  -5  10  10 3458.88  374.35   1-0.27807-0.28440-0.36248 0.83081 0.88953-0.47838
  -5  10   9 1637.19  304.56   1-0.31446-0.24154-0.33750 0.82117 0.88724-0.51702
  -5  10   8  -14.39  110.14   1-0.35295-0.19631-0.31040 0.80933 0.88265-0.55357
  -5  10   7 1297.54  217.79   1-0.39286-0.14965-0.28094 0.79512 0.87563-0.58768
  -5  10   6  255.17  166.64   1-0.43372-0.10204-0.24923 0.77866 0.86588-0.61908
   5 -10  -5 2575.50  576.16   1 0.48243 0.04692 0.21910-0.76489-0.84808 0.64244
  -5  10   5 2692.92  326.08   1-0.47482-0.05437-0.21536 0.75993 0.85331-0.64771
   5 -10  -4 3321.41  593.87   1 0.52331-0.00055 0.18338-0.74447-0.83216 0.66765
  -5  10   4 4435.90  377.24   1-0.51603-0.00644-0.17976 0.73960 0.83749-0.67301
   5 -10  -3  228.71   98.26   1 0.56348-0.04732 0.14616-0.72254-0.81309 0.68970
  -5  10   3  243.46  162.84   1-0.55657 0.04082-0.14263 0.71775 0.81845-0.69509
   5 -10  -2  610.41  180.61   1 0.60300-0.09346 0.10860-0.69977-0.79031 0.70822
  -5  10   2  592.02  179.81   1-0.59512 0.08531-0.10380 0.69427 0.79689-0.71463
   5 -10  -1  139.58   99.75   1 0.64012-0.13720 0.06955-0.67594-0.76511 0.72406
   5 -10   0  472.77  118.23   1 0.67512-0.17881 0.03009-0.65170-0.73709 0.73709
   5 -10   1 1637.20  296.62   1 0.70761-0.21795-0.00942-0.62738-0.70653 0.74758
   5 -10   2 1405.79  217.18   1 0.73744-0.25439-0.04862-0.60340-0.67365 0.75576
   5 -10   3  651.51  176.33   1 0.76438-0.28795-0.08721-0.58003-0.63883 0.76199
   5 -10   4 1824.83  295.60   1 0.78742-0.31812-0.12590-0.55647-0.60341 0.76754
   5 -10   5  -37.60  132.28   1 0.80846-0.34573-0.16255-0.53508-0.56564 0.77081
   5 -10   6  287.93  159.88   1 0.82656-0.37040-0.19796-0.51493-0.52687 0.77307
   5 -10   7  135.69  151.16   1 0.84117-0.39200-0.23291-0.49541-0.48802 0.77517
  -5   9  15 2797.95  363.66   1-0.07102-0.52119-0.48348 0.81408 0.87246-0.25616
  -5   9  14  -11.44  140.99   1-0.09439-0.49108-0.47137 0.81721 0.87686-0.30165
  -5   9  13  455.45  302.92   1-0.12065-0.45807-0.45732 0.81840 0.88107-0.34694
  -5   9  12  599.69  183.68   1-0.14981-0.42215-0.44116 0.81748 0.88483-0.39178
  -5   9  11 1386.68  227.13   1-0.18086-0.38443-0.42294 0.81388 0.88791-0.43565
  -5   9  10 2257.63  284.05   1-0.21573-0.34282-0.40206 0.80828 0.88983-0.47868
  -5   9   9  628.39  196.86   1-0.25319-0.29861-0.37863 0.80013 0.89024-0.52020
  -5   9   8 3349.73  327.03   1-0.29299-0.25207-0.35256 0.78934 0.88873-0.55981
  -5   9   7  519.22  164.65   1-0.33442-0.20415-0.32361 0.77569 0.88511-0.59717
  -5   9   6 1501.41  237.41   1-0.37767-0.15416-0.29232 0.75966 0.87858-0.63177
  -5   9   5  102.41  108.75   1-0.42188-0.10320-0.25859 0.74118 0.86899-0.66331
   5  -9  -4 1457.63  271.14   1 0.47341 0.04530 0.22672-0.72557-0.85116 0.68664
  -5   9   4  764.32  185.92   1-0.46626-0.05226-0.22252 0.72027 0.85620-0.69172
   5  -9  -3  792.35  174.23   1 0.51737-0.00524 0.18871-0.70286-0.83469 0.71130
  -5   9   3  266.23  119.52   1-0.51054-0.00126-0.18462 0.69764 0.83979-0.71643
   5  -9  -2 3130.82  566.12   1 0.56034-0.05482 0.14915-0.67860-0.81471 0.73245
  -5   9   2 3771.55  490.24   1-0.55388 0.04879-0.14517 0.67347 0.81983-0.73759
   5  -9  -1   -7.43  112.61   1 0.60224-0.10338 0.10937-0.65360-0.79078 0.74973
  -5   9   1  350.22  178.97   1-0.59489 0.09575-0.10403 0.64763 0.79704-0.75591
   5  -9   0  -16.69  111.78   1 0.64144-0.14920 0.06810-0.62756-0.76413 0.76413
   5  -9   1  124.89   84.95   1 0.67811-0.19247 0.02658-0.60126-0.73447 0.77552
   5  -9   2  132.51   89.03   1 0.71186-0.23287-0.01481-0.57505-0.70215 0.78426
   5  -9   3 2588.82  341.79   1 0.74253-0.27016-0.05565-0.54943-0.66749 0.79065
   5  -9   4 5197.55  716.90   1 0.76901-0.30375-0.09668-0.52356-0.63187 0.79600
   5  -9   5   12.92  113.22   1 0.79318-0.33448-0.13556-0.49994-0.59369 0.79885
   5  -9   6  994.52  241.27   1 0.81409-0.36196-0.17311-0.47764-0.55432 0.80052
   5  -9   7   -4.36  122.18   1 0.83119-0.38600-0.21014-0.45605-0.51473 0.80188
   5  -9   8 1410.36  316.77   1 0.84594-0.40745-0.24467-0.43679-0.47382 0.80198
   5  -9   9   -5.73  140.73   1 0.85780-0.42601-0.27759-0.41917-0.43256 0.80175
  -5   8  16 1275.51  255.54   1 0.00666-0.60133-0.52130 0.77461 0.85334-0.19587
  -5   8  15  -10.18  159.65   1-0.01238-0.57593-0.51224 0.78071 0.85875-0.24244
  -5   8  14 1135.01  274.98   1-0.03433-0.54723-0.50174 0.78545 0.86433-0.28911
  -5   8  13  328.48  189.88   1-0.05936-0.51545-0.48938 0.78833 0.87004-0.33591
  -5   8  12 1366.15  207.77   1-0.08757-0.48049-0.47494 0.78913 0.87564-0.38260
  -5   8  11  131.86  123.58   1-0.11898-0.44233-0.45823 0.78765 0.88083-0.42887
  -5   8  10  442.65  264.13   1-0.15359-0.40097-0.43903 0.78369 0.88524-0.47437
  -5   8   9  240.05  146.24   1-0.19039-0.35750-0.41733 0.77671 0.88858-0.51855
  -5   8   8 3035.51  403.12   1-0.23100-0.31014-0.39264 0.76730 0.89020-0.56128
  -5   8   7  261.85  128.63   1-0.27418-0.26022-0.36504 0.75498 0.88970-0.60189
  -5   8   6 1325.28  247.44   1-0.31917-0.20871-0.33425 0.73949 0.88679-0.63998
  -5   8   5 1868.33  297.60   1-0.36605-0.15509-0.30089 0.72139 0.88060-0.67493
  -5   8   4  790.85  191.39   1-0.41385-0.10054-0.26485 0.70061 0.87096-0.70642
  -5   8   3 4024.37  367.79   1-0.46170-0.04615-0.22630 0.67722 0.85768-0.73432
   5  -8  -2  621.32  146.19   1 0.51547-0.01399 0.19039-0.65761-0.83548 0.75322
  -5   8   2  780.47  203.76   1-0.50915 0.00801-0.18584 0.65205 0.84037-0.75813
   5  -8  -1 6388.19 1172.93   1 0.56127-0.06638 0.14827-0.63078-0.81423 0.77311
  -5   8   1 6819.84  402.15   1-0.55530 0.06089-0.14383 0.62531 0.81911-0.77799
   5  -8   0 2976.22  374.84   1 0.60545-0.11727 0.10610-0.60339-0.78877 0.78877
  -5   8   0 3599.84  341.34   1-0.59869 0.11023-0.10020 0.59693 0.79468-0.79468
   5  -8   1 1960.36  341.31   1 0.64656-0.16499 0.06249-0.57500-0.76029 0.80133
   5  -8   2  815.62  188.14   1 0.68462-0.20969 0.01880-0.54652-0.72865 0.81076
   5  -8   3   -5.75  122.76   1 0.71932-0.25101-0.02443-0.51850-0.69423 0.81740
   5  -8   4  370.77  112.88   1 0.75047-0.28878-0.06685-0.49129-0.65750 0.82172
   5  -8   5 2310.17  254.78   1 0.77709-0.32242-0.10923-0.46413-0.61983 0.82499
   5  -8   6 5671.18  397.32   1 0.80100-0.35290-0.14909-0.43953-0.57980 0.82599
   5  -8   7  939.16  232.26   1 0.82137-0.37984-0.18735-0.41652-0.53873 0.82596
   5  -8   8 1732.81  277.32   1 0.83777-0.40327-0.22490-0.39444-0.49753 0.82570
   5  -8   9 1596.78  316.63   1 0.85162-0.42381-0.25967-0.37495-0.45530 0.82449
   5  -8  10  417.93  225.63   1 0.86246-0.44136-0.29263-0.35727-0.41293 0.82313
   5  -8  11  154.49  151.69   1 0.87041-0.45511-0.32443-0.34187-0.37029 0.82218
  -5   7  16  219.47  161.77   1 0.06158-0.65235-0.54543 0.73661 0.83588-0.17842
  -5   7  15   25.99  126.50   1 0.04439-0.62843-0.53810 0.74451 0.84171-0.22533
  -5   7  14  873.60  242.98   1 0.02416-0.60146-0.52921 0.75085 0.84814-0.27286
  -5   7  13  107.18  133.48   1 0.00071-0.57127-0.51856 0.75545 0.85503-0.32084
  -5   7  12  106.38  164.56   1-0.02615-0.53800-0.50569 0.75775 0.86231-0.36927
  -5   7  11  217.95  121.43   1-0.05645-0.50095-0.49084 0.75813 0.86941-0.41746
  -5   7  10  833.64  222.55   1-0.09032-0.46034-0.47351 0.75604 0.87614-0.46527
  -5   7   9 2018.42  318.03   1-0.12773-0.41618-0.45345 0.75123 0.88207-0.51229
  -5   7   8  132.95  156.97   1-0.16776-0.36946-0.43056 0.74312 0.88682-0.55790
  -5   7   7  178.37  151.95   1-0.21186-0.31862-0.40442 0.73226 0.88969-0.60188
  -5   7   6 1980.57  307.71   1-0.25878-0.26495-0.37504 0.71816 0.89015-0.64346
  -5   7   5 1006.85  220.00   1-0.30770-0.20950-0.34214 0.70054 0.88783-0.68216
  -5   7   4 7582.54  601.21   1-0.35853-0.15192-0.30637 0.68003 0.88180-0.71727
  -5   7   3 5482.92  488.06   1-0.41020-0.09351-0.26768 0.65659 0.87182-0.74842
  -5   7   2 4063.48  408.93   1-0.46169-0.03549-0.22630 0.63041 0.85768-0.77544
   5  -7  -1 1494.47  273.87   1 0.51815-0.02730 0.18801-0.60830-0.83436 0.79323
  -5   7   1 1714.44  269.84   1-0.51238 0.02192-0.18299 0.60237 0.83902-0.79790
   5  -7   0 3009.90  513.01   1 0.56671-0.08246 0.14307-0.57865-0.81139 0.81139
  -5   7   0 3208.02  370.66   1-0.56129 0.07755-0.13816 0.57282 0.81599-0.81599
   5  -7   1 1356.78  325.98   1 0.61301-0.13550 0.09833-0.54868-0.78393 0.82497
  -5   7  -1 1258.96  264.79   1-0.60689 0.12910-0.09187 0.54172 0.78945-0.83058
   5  -7   215661.57 1350.22   1 0.65574-0.18485 0.05228-0.51785-0.75316 0.83525
   5  -7   3 2740.21  460.04   1 0.69485-0.23060 0.00643-0.48721-0.71912 0.84228
   5  -7   4   56.17   87.50   1 0.73005-0.27242-0.03861-0.45738-0.68229 0.84651
   5  -7   5   -3.45  116.82   1 0.76121-0.31019-0.08248-0.42873-0.64323 0.84850
   5  -7   6   45.41  131.79   1 0.78747-0.34341-0.12600-0.40048-0.60332 0.84951
   5  -7   7 2198.55  275.24   1 0.81065-0.37315-0.16661-0.37513-0.56132 0.84854
   5  -7   8  475.65  185.88   1 0.83004-0.39912-0.20532-0.35167-0.51851 0.84677
   5  -7   9 1478.76  256.50   1 0.84533-0.42151-0.24313-0.32936-0.47570 0.84489
   5  -7  10   43.19  123.46   1 0.85789-0.44076-0.27786-0.30991-0.43221 0.84242
   5  -7  11  190.58  147.35   1 0.86728-0.45599-0.31123-0.29287-0.38852 0.84041
   5  -7  12  514.57  166.78   1 0.87392-0.46920-0.34198-0.27746-0.34539 0.83836
   5  -7  13  424.62  274.97   1 0.87798-0.47983-0.37085-0.26393-0.30266 0.83671
  -5   6  16  213.01  148.61   1 0.11385-0.70073-0.56650 0.69555 0.81615-0.15868
  -5   6  15  166.58  198.90   1 0.09868-0.67882-0.56058 0.70486 0.82219-0.20582
  -5   6  14   82.76  144.29   1 0.08045-0.65385-0.55325 0.71276 0.82911-0.25383
  -5   6  13  501.95  196.38   1 0.05893-0.62559-0.54431 0.71906 0.83680-0.30261
  -5   6  12   61.32  128.67   1 0.03390-0.59382-0.53352 0.72350 0.84510-0.35200
  -5   6  11  543.64  153.42   1 0.00516-0.55834-0.52061 0.72583 0.85377-0.40176
  -5   6  10  266.08  157.46   1-0.02750-0.51924-0.50504 0.72544 0.86265-0.45178
  -5   6   9 1346.21  238.88   1-0.06407-0.47593-0.48701 0.72265 0.87104-0.50126
  -5   6   8 8209.14  448.69   1-0.10460-0.42864-0.46596 0.71684 0.87859-0.54990
  -5   6   728673.86 1795.02   1-0.14898-0.37751-0.44163 0.70775 0.88473-0.59713
  -5   6   610997.48  723.65   1-0.19625-0.32357-0.41384 0.69484 0.88894-0.64225
  -5   6   518021.67 1043.40   1-0.24735-0.26573-0.38235 0.67863 0.89029-0.68471
  -5   6   4 4075.10  389.19   1-0.30090-0.20543-0.34723 0.65879 0.88819-0.72373
  -5   6   3  586.72  193.71   1-0.35578-0.14398-0.30836 0.63517 0.88222-0.75882
  -5   6   2 7011.02  395.75   1-0.41159-0.08143-0.26660 0.60867 0.87149-0.78922
   5  -6  -1 3844.06  315.51   1 0.47231 0.01449 0.22764-0.58570-0.85152 0.81039
  -5   6   1 4174.61  345.42   1-0.46688-0.01963-0.22200 0.57929 0.85599-0.81487
   5  -6   0 3879.17  706.74   1 0.52596-0.04575 0.18100-0.55435-0.83102 0.83102
  -5   6   0 4047.69  375.84   1-0.52081 0.04102-0.17549 0.54805 0.83543-0.83543
   5  -6   1 3024.49  387.71   1 0.57741-0.10396 0.13409-0.52228-0.80536 0.84641
  -5   6  -1 3359.91  367.15   1-0.57162 0.09789-0.12692 0.51469 0.81063-0.85176
   5  -6   2 8982.71  707.42   1 0.62524-0.15841 0.08552-0.48893-0.77572 0.85781
  -5   6  -2 8322.05  593.57   1-0.61983 0.15271-0.07848 0.48146 0.78079-0.86305
   5  -6   3  814.95  148.22   1 0.66919-0.20897 0.03697-0.45561-0.74216 0.86530
   5  -6   4 2435.88  394.26   1 0.70884-0.25527-0.01097-0.42286-0.70527 0.86949
   5  -6   5  801.99  171.92   1 0.74398-0.29702-0.05768-0.39137-0.66570 0.87097
   5  -6   6 9148.81 1352.60   1 0.77375-0.33371-0.10400-0.36035-0.62488 0.87107
   5  -6   7 1098.03  248.98   1 0.79990-0.36643-0.14716-0.33244-0.58179 0.86902
   5  -6   8 1204.39  270.51   1 0.82180-0.39491-0.18821-0.30664-0.53777 0.86603
   5  -6   9   21.71  122.09   1 0.83918-0.41934-0.22817-0.28218-0.49367 0.86285
   5  -6  10  657.46  218.44   1 0.85345-0.44031-0.26477-0.26087-0.44890 0.85911
   5  -6  11 5061.88  422.55   1 0.86433-0.45789-0.29914-0.24178-0.40427 0.85549
   5  -6  12 1458.29  327.75   1 0.87200-0.47129-0.33193-0.22530-0.35974 0.85271
   5  -6  13 1804.70  334.74   1 0.87698-0.48283-0.36202-0.21055-0.31596 0.85001
   5  -6  14   76.22  144.71   1 0.87941-0.49184-0.39013-0.19777-0.27278 0.84792
  -5   5  17  245.75  214.24   1 0.17337-0.76273-0.58842 0.64023 0.78974-0.09125
  -5   5  16  260.92  208.80   1 0.16314-0.74577-0.58487 0.65192 0.79455-0.13714
  -5   5  15 1102.79  259.04   1 0.15013-0.72603-0.58024 0.66253 0.80048-0.18416
  -5   5  14  531.05  236.09   1 0.13407-0.70357-0.57415 0.67153 0.80769-0.23240
  -5   5  13   68.98  136.39   1 0.11474-0.67751-0.56685 0.67946 0.81578-0.28159
  -5   5  12 1383.52  279.83   1 0.09185-0.64788-0.55786 0.68571 0.82483-0.33173
  -5   5  11  686.49  178.75   1 0.06510-0.61439-0.54691 0.68999 0.83465-0.38264
  -5   5  10  489.39  199.52   1 0.03426-0.57681-0.53368 0.69200 0.84499-0.43407
  -5   5   9 2198.68  231.35   1-0.00090-0.53491-0.51782 0.69137 0.85548-0.48566
  -5   5   855032.12 4950.88   1-0.04057-0.48877-0.49870 0.68745 0.86582-0.53712
  -5   5   7 1519.32  228.77   1-0.08463-0.43796-0.47647 0.68046 0.87510-0.58749
  -5   5   6 4224.21  393.65   1-0.13301-0.38283-0.45055 0.66977 0.88278-0.63626
  -5   5   5 8027.48  429.25   1-0.18477-0.32439-0.42065 0.65481 0.88820-0.68263
  -5   5   4 3231.82  282.05   1-0.24058-0.26183-0.38663 0.63608 0.89029-0.72583
  -5   5   3 1195.66  213.19   1-0.29897-0.19670-0.34854 0.61327 0.88833-0.76498
  -5   5   2 1417.27  235.97   1-0.35861-0.13047-0.30631 0.58628 0.88179-0.79952
  -5   5   114725.66  797.22   1-0.41884-0.06350-0.26097 0.55620 0.86975-0.82861
   5  -5   0 3421.46  724.16   1 0.48272-0.00655 0.21885-0.52998-0.84798 0.84798
  -5   5   0 3378.98  321.90   1-0.47799 0.00214-0.21270 0.52317 0.85222-0.85222
   5  -5   1 5021.25  435.60   1 0.53952-0.06995 0.16864-0.49506-0.82490 0.86603
  -5   5  -1 4691.12  294.62   1-0.53504 0.06592-0.16262 0.48837 0.82902-0.87014
   5  -5   2  -22.60   90.58   1 0.59315-0.13038 0.11854-0.45979-0.79631 0.87840
  -5   5  -2  -80.46  109.36   1-0.58815 0.12509-0.11075 0.45164 0.80112-0.88338
   5  -5   311698.06  893.61   1 0.64243-0.18628 0.06703-0.42350-0.76340 0.88653
   5  -5   4 8318.92  714.57   1 0.68700-0.23749 0.01595-0.38763-0.72647 0.89069
   5  -5   513481.99 1079.32   1 0.72651-0.28361-0.03387-0.35302-0.68631 0.89159
   5  -5   6 1629.23  340.66   1 0.76087-0.32459-0.08198-0.32014-0.64369 0.89002
   5  -5   7 -111.89  129.19   1 0.78942-0.35998-0.12923-0.28823-0.60008 0.88731
   5  -5   8  215.27  178.98   1 0.81394-0.39107-0.17282-0.25990-0.55464 0.88289
   5  -5   9  801.83  198.91   1 0.83344-0.41759-0.21508-0.23314-0.50902 0.87821
   5  -5  10  996.25  267.11   1 0.84939-0.44024-0.25365-0.20986-0.46280 0.87300
   5  -5  11   56.62  136.51   1 0.86160-0.45914-0.28971-0.18908-0.41677 0.86800
   5  -5  12  584.85  223.29   1 0.87030-0.47359-0.32393-0.17110-0.37099 0.86396
   5  -5  13  812.96  234.14   1 0.87606-0.48592-0.35523-0.15514-0.32606 0.86011
   5  -5  14   20.94  133.37   1 0.87910-0.49553-0.38434-0.14136-0.28187 0.85700
   5  -5  15  145.78  148.21   1 0.87942-0.50262-0.41166-0.12899-0.23904 0.85482
  -5   4  17   46.52  136.70   1 0.21713-0.80263-0.60277 0.59243 0.76779-0.06930
  -5   4  16  175.38  191.37   1 0.20907-0.78783-0.60023 0.60512 0.77201-0.11460
  -5   4  15  252.36  194.67   1 0.19832-0.77035-0.59677 0.61690 0.77751-0.16119
  -5   4  14  116.01  154.06   1 0.18462-0.74992-0.59224 0.62760 0.78432-0.20909
  -5   4  13 4897.19  411.20   1 0.16768-0.72625-0.58645 0.63705 0.79243-0.25829
  -5   4  12  570.78  199.07   1 0.14714-0.69928-0.57895 0.64467 0.80197-0.30887
  -5   4  11  112.91  141.02   1 0.12276-0.66815-0.56991 0.65086 0.81248-0.36047
  -5   4  10 2257.23  258.15   1 0.09413-0.63278-0.55877 0.65495 0.82396-0.41304
  -5   4   9 1170.22  210.18   1 0.06093-0.59285-0.54516 0.65657 0.83611-0.46629
  -5   4   8 3768.36  380.29   1 0.02289-0.54807-0.52864 0.65530 0.84853-0.51980
  -5   4   721929.88 1227.22   1-0.02024-0.49844-0.50851 0.65037 0.86081-0.57320
  -5   4   6 3017.62  300.25   1-0.06834-0.44360-0.48484 0.64194 0.87192-0.62540
  -5   4   5   44.89  122.34   1-0.12131-0.38387-0.45696 0.62929 0.88117-0.67573
  -5   4   4 2104.61  244.56   1-0.17823-0.32027-0.42448 0.61182 0.88771-0.72325
  -5   4   3  409.12  130.39   1-0.23939-0.25236-0.38738 0.59000 0.89029-0.76694
  -5   4   2 2006.79  222.46   1-0.30295-0.18219-0.34537 0.56324 0.88822-0.80595
  -5   4   1 4703.52  390.57   1-0.36801-0.11039-0.29945 0.53258 0.88027-0.83914
  -5   4   0 4696.64  390.07   1-0.43285-0.03880-0.24992 0.49831 0.86612-0.86612
   5  -4   1 8812.45  584.71   1 0.49979-0.03426 0.20419-0.46838-0.84173 0.88285
  -5   4  -1 9711.77  572.68   1-0.49580 0.03063-0.19749 0.46114 0.84567-0.88679
   5  -4   2 6827.57  736.48   1 0.55942-0.10049 0.15003-0.42952-0.81518 0.89744
  -5   4  -2 7155.83  459.30   1-0.55566 0.09720-0.14350 0.42242 0.81892-0.90116
   5  -4   3  287.25   99.40   1 0.61470-0.16260 0.09657-0.39089-0.78282 0.90595
  -5   4  -3  224.86  155.13   1-0.61053 0.15814-0.08814 0.38216 0.78707-0.91046
   5  -4   4 5165.89  895.06   1 0.66470-0.21922 0.04213-0.35166-0.74591 0.91009
   5  -4   5  962.44  187.15   1 0.70906-0.27022-0.01124-0.31349-0.70505 0.91032
   5  -4   624063.24  705.60   1 0.74754-0.31532-0.06269-0.27727-0.66124 0.90757
   5  -4   7 7126.00  524.15   1 0.77953-0.35412-0.11311-0.24222-0.61605 0.90328
   5  -4   8 1934.75  242.71   1 0.80678-0.38794-0.15947-0.21111-0.56891 0.89717
   5  -4   9 8776.48  400.58   1 0.82895-0.41668-0.20299-0.18285-0.52117 0.89047
   5  -4  10  142.43  129.15   1 0.84600-0.44084-0.24484-0.15653-0.47362 0.88383
   5  -4  11  500.15  168.72   1 0.85942-0.46095-0.28265-0.13401-0.42601 0.87724
   5  -4  12  332.14  209.18   1 0.86901-0.47630-0.31830-0.11454-0.37881 0.87178
   5  -4  13 1590.62  323.97   1 0.87539-0.48926-0.35076-0.09740-0.33262 0.86668
   5  -4  14  142.50  201.75   1 0.87886-0.49930-0.38083-0.08268-0.28734 0.86247
   5  -4  15 3746.36  430.69   1 0.87946-0.50663-0.40891-0.06952-0.24357 0.85935
   5  -4  16  818.03  226.84   1 0.87806-0.51179-0.43463-0.05909-0.20024 0.85707
  -5   3  17   43.31  134.30   1 0.25730-0.83892-0.61471 0.54219 0.74560-0.04710
  -5   3  16 -126.71  122.92   1 0.25138-0.82628-0.61303 0.55575 0.74899-0.09159
  -5   3  15  404.09  206.55   1 0.24292-0.81109-0.61058 0.56853 0.75377-0.13745
  -5   3  14  881.55  221.71   1 0.23163-0.79307-0.60722 0.58042 0.76001-0.18478
  -5   3  13 1283.04  251.85   1 0.21721-0.77192-0.60280 0.59123 0.76775-0.23361
  -5   3  12 1141.65  269.16   1 0.19931-0.74729-0.59710 0.60076 0.77700-0.28395
  -5   3  11 3227.30  327.24   1 0.17754-0.71879-0.58985 0.60875 0.78775-0.33578
  -5   3  10   24.78  138.40   1 0.15149-0.68601-0.58073 0.61487 0.79987-0.38899
  -5   3   910693.35  782.58   1 0.12070-0.64873-0.56913 0.61841 0.81333-0.44351
  -5   3   8  423.21  155.92   1 0.08483-0.60612-0.55503 0.61956 0.82748-0.49875
  -5   3   7 3510.21  316.47   1 0.04349-0.55804-0.53770 0.61746 0.84200-0.55436
  -5   3   6 4419.67  286.04   1-0.00365-0.50437-0.51632 0.61128 0.85638-0.60986
  -5   3   5  169.04  147.72   1-0.05645-0.44482-0.49084 0.60104 0.86941-0.66398
  -5   3   4 6577.69  490.85   1-0.11478-0.37975-0.46050 0.58594 0.88020-0.71585
  -5   3   3  513.33  134.07   1-0.17766-0.31018-0.42482 0.56532 0.88767-0.76432
  -5   3   2 2653.78  259.63   1-0.24493-0.23616-0.38389 0.53967 0.89029-0.80806
  -5   3   1 1516.22  185.65   1-0.31456-0.15990-0.33743 0.50847 0.88723-0.84609
  -5   3   0 7903.25  553.60   1-0.38516-0.08255-0.28673 0.47302 0.87717-0.87717
  -5   3  -1 7323.42  512.35   1-0.45459-0.00662-0.23213 0.43369 0.85991-0.90103
   5  -3   212195.26  840.12   1 0.52432-0.06943 0.18248-0.39974-0.83173 0.91399
  -5   3  -212563.00  788.76   1-0.52114 0.06663-0.17520 0.39203 0.83529-0.91753
   5  -3   3  757.27  174.64   1 0.58612-0.13809 0.12554-0.35769-0.80043 0.92357
  -5   3  -3  646.42  131.30   1-0.58263 0.13430-0.11620 0.34813 0.80438-0.92777
   5  -3   425101.93 1515.12   1 0.64223-0.20081 0.06725-0.31462-0.76355 0.92773
   5  -3   5  488.24  126.62   1 0.69196-0.25719 0.00995-0.27253-0.72185 0.92713
   5  -3   6  985.17  147.93   1 0.73496-0.30681-0.04524-0.23256-0.67659 0.92292
   5  -3   781867.21 1456.78   1 0.77065-0.34927-0.09918-0.19400-0.62949 0.91671
   5  -3   815129.20  893.73   1 0.80071-0.38590-0.14858-0.15986-0.58032 0.90858
   5  -3   9    4.17  110.28   1 0.82500-0.41676-0.19471-0.12899-0.53052 0.89981
   5  -3  10  543.02  164.78   1 0.84359-0.44240-0.23879-0.10045-0.48096 0.89116
   5  -3  1113179.45  555.89   1 0.85806-0.46357-0.27837-0.07615-0.43155 0.88277
   5  -3  12  312.51  161.82   1 0.86832-0.47962-0.31543-0.05520-0.38276 0.87573
   5  -3  13  139.29  133.05   1 0.87511-0.49298-0.34901-0.03696-0.33519 0.86925
   5  -3  14   36.30  135.16   1 0.87879-0.50323-0.37992-0.02138-0.28875 0.86388
   5  -3  15  697.82  195.69   1 0.87947-0.51060-0.40864-0.00754-0.24400 0.85977
   5  -3  16  -21.81  129.26   1 0.87804-0.51574-0.43483 0.00333-0.19990 0.85673
   5  -3  17   28.45  140.37   1 0.87448-0.51875-0.45895 0.01215-0.15695 0.85483
  -5   2  17  -13.11  132.33   1 0.29372-0.87147-0.62446 0.48978 0.72371-0.02522
  -5   2  16  270.26  162.16   1 0.28991-0.86093-0.62349 0.50405 0.72608-0.06868
  -5   2  15  506.14  180.37   1 0.28370-0.84799-0.62188 0.51768 0.72990-0.11359
  -5   2  14   -5.61  120.00   1 0.27482-0.83239-0.61953 0.53056 0.73528-0.16005
  -5   2  13  815.15  243.53   1 0.26297-0.81381-0.61630 0.54256 0.74230-0.20816
  -5   2  12   57.25  132.37   1 0.24777-0.79188-0.61199 0.55349 0.75104-0.25799
  -5   2  11 1382.68  265.32   1 0.22882-0.76620-0.60637 0.56311 0.76154-0.30957
  -5   2  1027303.11 5266.93   1 0.20564-0.73629-0.59914 0.57111 0.77378-0.36290
  -5   2   9 3131.63  369.72   1 0.17773-0.70164-0.58991 0.57712 0.78766-0.41787
  -5   2   830722.68 1647.40   1 0.14449-0.66188-0.57799 0.58037 0.80315-0.47441
  -5   2   7  308.44  192.68   1 0.10552-0.61618-0.56327 0.58089 0.81950-0.53186
  -5   2   6  -10.75  109.09   1 0.06031-0.56423-0.54489 0.57775 0.83632-0.58978
  -5   2   5 1733.92  212.31   1 0.00854-0.50572-0.52216 0.57025 0.85280-0.64734
  -5   2   4 2984.12  285.09   1-0.04993-0.44069-0.49409 0.55740 0.86797-0.70362
  -5   2   3 1242.85  161.26   1-0.11457-0.36930-0.46061 0.53916 0.88017-0.75691
   5  -2  -3 1082.33  193.26   1 0.24425 0.23937-0.85175 0.77355 0.46352-0.58678
  -5   2   2 9654.84  637.44   1-0.18442-0.29275-0.42085 0.51452 0.88818-0.80595
  -5   2   111259.45  539.70   1-0.25870-0.21173-0.37509 0.48404 0.89015-0.84903
  -5   2   0  255.37   99.02   1-0.33505-0.12872-0.32316 0.44735 0.88504-0.88504
  -5   2  -1 3198.67  235.28   1-0.41146-0.04557-0.26670 0.40616 0.87152-0.91266
   5  -2   2  107.60   69.92   1 0.48775-0.03690 0.21457-0.36960-0.84619 0.92845
  -5   2  -2   95.93   93.99   1-0.48534 0.03478-0.20647 0.36121 0.84959-0.93183
   5  -2   314689.79  915.25   1 0.55704-0.11279 0.15228-0.32261-0.81639 0.93978
  -5   2  -315893.80  956.99   1-0.55469 0.11085-0.14441 0.31442 0.81942-0.94278
   5  -2   4 1206.88  257.24   1 0.61988-0.18253 0.09116-0.27637-0.77937 0.94355
  -5   2  -4  885.71  154.87   1-0.61732 0.17967-0.08110 0.26616 0.78251-0.94703
   5  -2   5 1946.38  279.66   1 0.67561-0.24486 0.02952-0.22995-0.73666 0.94189
   5  -2   6  237.87   68.69   1 0.72362-0.29953-0.03006-0.18558-0.68953 0.93586
   5  -2   7 4433.44  792.82   1 0.76389-0.34641-0.08647-0.14438-0.63952 0.92690
   5  -2   8 7014.59  371.81   1 0.79621-0.38543-0.14074-0.10557-0.58841 0.91667
   5  -2   9  979.22  201.67   1 0.82253-0.41832-0.18967-0.07189-0.53615 0.90544
   5  -2  10  565.73  117.54   1 0.84248-0.44528-0.23607-0.04104-0.48424 0.89444
   5  -2  11  120.88  132.35   1 0.85775-0.46724-0.27743-0.01496-0.43277 0.88399
   5  -2  1220535.05  627.66   1 0.86842-0.48372-0.31583 0.00739-0.38221 0.87518
   5  -2  13 3076.69  423.22   1 0.87533-0.49721-0.35040 0.02662-0.33316 0.86721
   5  -2  14 2226.49  289.53   1 0.87894-0.50739-0.38201 0.04290-0.28551 0.86064
   5  -2  15  144.71  141.19   1 0.87943-0.51454-0.41122 0.05725-0.23977 0.85555
   5  -2  16  397.64  172.11   1 0.87773-0.51941-0.43768 0.06841-0.19495 0.85177
   5  -2  17  120.91  144.27   1 0.87388-0.52212-0.46194 0.07737-0.15147 0.84935
   5  -2  18 3023.34  441.96   1 0.86810-0.52291-0.48419 0.08433-0.10927 0.84820
  -5   1  16  381.03  220.62   1 0.32518-0.89086-0.63450 0.45219 0.70118-0.04328
  -5   1  15  387.57  212.56   1 0.32115-0.88019-0.63358 0.46654 0.70386-0.08708
  -5   1  14 1177.67  232.75   1 0.31463-0.86703-0.63206 0.48030 0.70816-0.13250
  -5   1  13 3846.94  343.49   1 0.30531-0.85107-0.62983 0.49334 0.71420-0.17965
  -5   1  12  286.56  168.43   1 0.29218-0.83242-0.62407 0.50341 0.72467-0.23162
  -5   1  11  552.31  274.34   1 0.27612-0.80963-0.61988 0.51445 0.73450-0.28254
  -5   1  10  -50.17  127.30   1 0.25598-0.78276-0.61434 0.52414 0.74636-0.33548
  -5   1   9 1155.19  206.64   1 0.23119-0.75124-0.60709 0.53213 0.76025-0.39046
  -5   1   8 1834.50  238.40   1 0.20112-0.71444-0.59768 0.53796 0.77609-0.44738
  -5   1   7  993.99  201.24   1 0.16510-0.67170-0.58555 0.54107 0.79363-0.50602
  -5   1   6 1510.43  165.52   1 0.12239-0.62242-0.56977 0.54050 0.81263-0.56608
  -5   1   5  149.79  136.18   1 0.07256-0.56584-0.55001 0.53597 0.83199-0.62653
  -5   1   4 -118.27   90.34   1 0.01511-0.50166-0.52515 0.52634 0.85087-0.68650
   5  -1  -4    0.73   17.54   1 0.52253-0.03624-0.40785 0.40649 0.74874-0.91293
  -5   1   3 4435.96  355.03   1-0.05007-0.42989-0.49401 0.51043 0.86800-0.74474
   5  -1  -3 3411.04  347.44   1 0.39379 0.08588-0.67160 0.65502 0.62758-0.75071
  -5   1   2 5297.75  273.10   1-0.12229-0.35092-0.45643 0.48808 0.88131-0.79914
   5  -1  -2 4236.97  367.39   1 0.27709 0.19578-0.81994 0.78847 0.50091-0.58308
  -5   1   1 4785.88  282.59   1-0.20036-0.26616-0.41138 0.45821 0.88916-0.84805
   5  -1  -1 4260.66  399.33   1 0.18117 0.28522-0.90270 0.85590 0.39025-0.43135
  -5   1   046980.28 1686.32   1-0.28264-0.17713-0.35946 0.42157 0.88932-0.88932
  -5   1  -113342.02  577.28   1-0.36630-0.08679-0.30071 0.37806 0.88056-0.92170
  -5   1  -2 2845.53  211.02   1-0.44838 0.00177-0.23720 0.32984 0.86179-0.94403
   5  -1   3 1169.96  219.62   1 0.52751-0.08729 0.17960-0.28770-0.83034 0.95373
  -5   1  -3 1122.72  153.74   1-0.52602 0.08614-0.17081 0.27873 0.83313-0.95649
   5  -1   4  858.36  168.79   1 0.59808-0.16479 0.11358-0.23663-0.79334 0.95752
  -5   1  -4 1023.29  141.41   1-0.59652 0.16293-0.10239 0.22535 0.79603-0.96055
   5  -1   5 7632.11  803.04   1 0.66063-0.23395 0.04677-0.18504-0.74925 0.95447
   5  -1   656650.11 3199.15   1 0.71416-0.29413-0.01775-0.13572-0.69975 0.94607
   5  -1   7 1175.64  183.10   1 0.75857-0.34516-0.07859-0.09011-0.64682 0.93420
   5  -1   8 1430.18  185.96   1 0.79384-0.38709-0.13668-0.04749-0.59255 0.92081
   5  -1   9 4379.64  329.27   1 0.82201-0.42183-0.18863-0.01080-0.53731 0.90660
   5  -1  10   22.51  113.48   1 0.84303-0.44981-0.23740 0.02242-0.48263 0.89283
   5  -1  11  -18.07  116.54   1 0.85874-0.47222-0.28049 0.05022-0.42882 0.88004
   5  -1  12 3299.82  334.08   1 0.86943-0.48874-0.32010 0.07386-0.37632 0.86929
   5  -1  13 1007.93  213.95   1 0.87609-0.50197-0.35546 0.09389-0.32571 0.85976
   5  -1  14 2361.29  338.89   1 0.87929-0.51174-0.38755 0.11065-0.27685 0.85198
   5  -1  15  386.24  154.43   1 0.87927-0.51834-0.41702 0.12528-0.23016 0.84594
   5  -1  16  417.20  238.25   1 0.87702-0.52266-0.44351 0.13648-0.18471 0.84154
   5  -1  17  206.30  211.31   1 0.87261-0.52481-0.46767 0.14533-0.14083 0.83871
   5  -1  18  -48.00  155.38   1 0.86630-0.52508-0.48972 0.15208-0.09842 0.83735
   5  -1  19  524.16  236.90   1 0.85777-0.52507-0.51106 0.15812-0.05504 0.83623
  -5   0  16  116.70  156.16   1 0.35582-0.91769-0.64105 0.39666 0.68002-0.02212
  -5   0  15 1897.68  325.73   1 0.35386-0.90909-0.64066 0.41154 0.68141-0.06463
  -5   0  14  478.93  293.24   1 0.34959-0.89818-0.63979 0.42594 0.68443-0.10876
  -5   0  13   94.07  139.85   1 0.34273-0.88467-0.63836 0.43979 0.68922-0.15468
  -5   0  12   48.52  132.55   1 0.33292-0.86822-0.63624 0.45294 0.69595-0.20253
  -5   0  11  280.22  149.54   1 0.31975-0.84840-0.63326 0.46524 0.70479-0.25248
  -5   0  10   -6.24  124.52   1 0.30270-0.82471-0.62919 0.47645 0.71587-0.30469
  -5   0   9 1699.01  254.16   1 0.28051-0.79669-0.62105 0.48392 0.73185-0.36206
  -5   0   8  369.33  134.90   1 0.25384-0.76329-0.61373 0.49184 0.74759-0.41889
  -5   0   7 2576.31  257.10   1 0.22122-0.72394-0.60404 0.49739 0.76562-0.47801
  -5   0   6  141.29   83.41   1 0.18181-0.67780-0.59129 0.49988 0.78569-0.53916
  -5   0   5  303.82  115.56   1 0.13463-0.62402-0.57436 0.49819 0.80744-0.60199
  -5   0   4  362.18  103.75   1 0.07914-0.56179-0.55272 0.49178 0.82959-0.66523
   5   0  -4  491.54   62.59   1 0.57051-0.08812-0.24775 0.30837 0.78302-0.94717
  -5   0   3   78.91   81.33   1 0.01472-0.49064-0.52497 0.47926 0.85099-0.72771
   5   0  -3  131.08   60.19   1 0.48940-0.01381-0.49202 0.53751 0.71999-0.84313
  -5   0   2 2285.79  192.16   1-0.05872-0.41059-0.48970 0.45922 0.86990-0.78773
   5   0  -2 1846.99  108.89   1 0.39603 0.07298-0.66811 0.69838 0.62990-0.71198
  -5   0   136875.32 1348.40   1-0.14015-0.32241-0.44658 0.43134 0.88369-0.84260
   5   0  -131357.46 1136.91   1 0.30660 0.15550-0.78796 0.80321 0.53394-0.57503
  -5   0  -1 9400.19  440.43   1-0.31928-0.12987-0.33418 0.34943 0.88678-0.92791
   5   0   1 8482.64  418.07   1 0.16201 0.28700-0.91579 0.90059 0.36751-0.32642
  -5   0  -2 3896.97  225.30   1-0.41046-0.03194-0.26748 0.29799 0.87176-0.95403
   5   0   314332.52  621.19   1 0.49791-0.06174 0.20582-0.25170-0.84244 0.96583
  -5   0  -315268.53  632.90   1-0.49754 0.06161-0.19598 0.24180 0.84500-0.96836
   5   0   4  729.00  114.19   1 0.57740-0.14817 0.13409-0.19498-0.80536 0.96954
  -5   0  -4  670.40  123.75   1-0.57712 0.14759-0.12159 0.18246 0.80755-0.97207
   5   0   5  291.59   48.55   1 0.64776-0.22514 0.06117-0.13728-0.75937 0.96460
   5   0   6  415.89   74.10   1 0.70743-0.29146-0.00918-0.08213-0.70672 0.95304
   5   0   711977.95  743.01   1 0.75620-0.34684-0.07511-0.03142-0.65001 0.93739
   5   0   8 6489.71  455.38   1 0.79431-0.39158-0.13747 0.01542-0.59175 0.92001
   5   0   918935.08  957.48   1 0.82397-0.42782-0.19261 0.05531-0.53287 0.90216
   5   0  10 1618.29  244.16   1 0.84558-0.45635-0.24376 0.09091-0.47493 0.88514
   5   0  11 3295.53  374.45   1 0.86121-0.47867-0.28841 0.12028-0.41848 0.86971
   5   0  12 2393.96  254.19   1 0.87139-0.49471-0.32898 0.14495-0.36391 0.85688
   5   0  13   54.02  105.07   1 0.87732-0.50721-0.36485 0.16548-0.31173 0.84578
   5   0  14 4101.86  491.33   1 0.87966-0.51612-0.39709 0.18238-0.26173 0.83687
   5   0  15  170.38  168.15   1 0.87875-0.52180-0.42648 0.19697-0.21423 0.83001
   5   0  16 3140.66  290.12   1 0.87563-0.52524-0.45269 0.20788-0.16833 0.82516
   5   0  17  136.10  146.70   1 0.87038-0.52656-0.47643 0.21632-0.12427 0.82215
   5   0  18  247.19  161.52   1 0.86282-0.52735-0.49920 0.22371-0.07957 0.81966
   5   0  19  636.94  228.09   1 0.85403-0.52528-0.51877 0.22798-0.03862 0.81981
  -5  -1  16  177.04  209.34   1 0.38249-0.94056-0.64608 0.33961 0.66050-0.00260
  -5  -1  15   54.21  152.05   1 0.38246-0.93388-0.64608 0.35488 0.66052-0.04374
  -5  -1  14 2383.32  320.96   1 0.38031-0.92508-0.64570 0.36977 0.66214-0.08648
  -5  -1  13   18.75  122.21   1 0.37576-0.91389-0.64488 0.38423 0.66552-0.13098
  -5  -1  12  363.46  190.60   1 0.36850-0.89999-0.64353 0.39815 0.67087-0.17745
  -5  -1  11 1221.20  226.60   1 0.35811-0.88296-0.64151 0.41141 0.67838-0.22607
  -5  -1  10  620.88  186.15   1 0.34412-0.86232-0.63865 0.42382 0.68825-0.27707
  -5  -1   9 2249.20  284.53   1 0.32591-0.83746-0.63467 0.43512 0.70069-0.33062
  -5  -1   8 2038.68  246.27   1 0.30277-0.80768-0.62921 0.44493 0.71583-0.38688
  -5  -1   7 9272.32  398.87   1 0.27311-0.77197-0.61907 0.45026 0.73630-0.44869
  -5  -1   6 8203.34  369.03   1 0.23740-0.72952-0.60895 0.45537 0.75684-0.51031
  -5  -1   5 9213.95  533.68   1 0.19381-0.67921-0.59530 0.45695 0.77977-0.57433
   5   1  -5 6678.16  353.80   1 0.61561-0.13061 0.07400 0.06390 0.78456-0.98937
  -5  -1   4 7047.26  489.73   1 0.14110-0.61985-0.57675 0.45367 0.80464-0.64027
  -5  -1   3 8042.86  532.98   1 0.07851-0.55053-0.55246 0.44462 0.82983-0.70655
   5   1  -3 7083.49  427.27   1 0.54295-0.07126-0.34804 0.45554 0.76424-0.88735
  -5  -1   2  375.19  160.90   1 0.00531-0.47059-0.52068 0.42808 0.85373-0.77154
   5   1  -2    6.16   38.03   1 0.47723-0.01232-0.51944 0.61179 0.70882-0.79091
  -5  -1   112004.45  531.06   1-0.07849-0.38016-0.47965 0.40228 0.87394-0.83285
   5   1  -111184.78  452.24   1 0.40480 0.05355-0.65415 0.73128 0.63892-0.67996
  -5  -1   0  442.17  112.29   1-0.17135-0.28059-0.42849 0.36638 0.88714-0.88714
   5   1   0  405.66  101.60   1 0.33354 0.11782-0.75465 0.81662 0.56501-0.56501
  -5  -1  -1  257.55   86.04   1-0.27048-0.17471-0.36746 0.32062 0.88983-0.93095
   5   1   1  238.70   49.11   1 0.26840 0.17629-0.82873 0.87545 0.49108-0.45000
  -5  -1  -2 9020.94  416.82   1-0.37176-0.06670-0.29669 0.26511 0.87963-0.96190
   5   1   2 8414.64  399.26   1 0.21129 0.22674-0.88000 0.91148 0.42537-0.34320
  -5  -1  -320968.02  803.87   1-0.46980 0.03782-0.21957 0.20330 0.85502-0.97838
   5   1   319496.63  865.10   1 0.16314 0.26850-0.91505 0.93144 0.36886-0.24558
   5   1   4  377.30   69.99   1 0.55936-0.13383 0.15008-0.14903-0.81521 0.97973
  -5  -1  -4  368.21  103.66   1-0.55998 0.13472-0.13941 0.13841 0.81668-0.98116
   5   1   5  283.05   68.96   1 0.63809-0.21954 0.07175-0.08570-0.76660 0.97183
   5   1   6 1770.54  320.71   1 0.70458-0.29268-0.00561-0.02355-0.70959 0.95591
   5   1   7 8761.96 1096.07   1 0.75783-0.35254-0.07750 0.03311-0.64782 0.93521
   5   1   8  711.19  121.47   1 0.79844-0.39975-0.14460 0.08469-0.58444 0.91270
   5   1   9  483.98  120.53   1 0.82898-0.43686-0.20306 0.12790-0.52109 0.89038
   5   1  1016000.31  483.31   1 0.85043-0.46518-0.25642 0.16571-0.45935 0.86956
   5   1  11 4498.73  306.16   1 0.86520-0.48666-0.30232 0.19632-0.40001 0.85124
   5   1  12 6586.97  475.42   1 0.87418-0.50149-0.34341 0.22158-0.34333 0.83630
   5   1  13  222.61   85.82   1 0.87874-0.51263-0.37930 0.24213-0.28970 0.82375
   5   1  14 5330.69  337.48   1 0.87942-0.51987-0.41163 0.25966-0.23909 0.81382
   5   1  15  783.42  208.73   1 0.87746-0.52447-0.44008 0.27281-0.19075 0.80653
   5   1  16  228.77  174.04   1 0.87309-0.52667-0.46557 0.28300-0.14474 0.80157
   5   1  17  505.51  183.50   1 0.86671-0.52686-0.48849 0.29062-0.10083 0.79871
   5   1  18  163.12  142.94   1 0.85808-0.52657-0.51038 0.29705-0.05646 0.79654
   5   1  19  752.06  237.71   1 0.84841-0.52361-0.52908 0.30044-0.01602 0.79722
   5   1  20  180.29  163.21   1 0.83744-0.51934-0.54603 0.30209 0.02292 0.79938
  -5  -2  15  111.99  193.93   1 0.40699-0.95459-0.65013 0.29685 0.64162-0.02484
  -5  -2  14  520.70  216.92   1 0.40678-0.94774-0.65009 0.31209 0.64179-0.06613
  -5  -2  13  111.70  188.26   1 0.40438-0.93870-0.64972 0.32699 0.64368-0.10914
  -5  -2  12   83.30  183.92   1 0.39949-0.92716-0.64895 0.34150 0.64750-0.15408
  -5  -2  11  670.31  191.50   1 0.39173-0.91276-0.64768 0.35550 0.65349-0.20118
  -5  -2  10   83.19  129.21   1 0.38065-0.89503-0.64576 0.36885 0.66188-0.25070
  -5  -2   9 2978.99  258.80   1 0.36565-0.87340-0.64298 0.38135 0.67294-0.30288
  -5  -2   8 7533.00  574.12   1 0.34603-0.84713-0.63905 0.39270 0.68692-0.35797
  -5  -2   7 2969.45  296.89   1 0.32090-0.81536-0.63353 0.40244 0.70403-0.41619
   5   2  -7 1838.81  169.58   1 0.58863-0.09305 0.41878-0.18851 0.69147-0.97765
  -5  -2   6  549.38  185.62   1 0.28839-0.77664-0.62310 0.40735 0.72702-0.48050
   5   2  -6   20.62   37.19   1 0.61074-0.12203 0.26601-0.05076 0.74580-0.99122
  -5  -2   5 2893.15  249.35   1 0.24880-0.73033-0.61229 0.41178 0.75046-0.54502
   5   2  -5 1963.65  233.06   1 0.61635-0.13537 0.10069 0.09926 0.78100-0.98580
  -5  -2   4  594.33  127.08   1 0.19994-0.67473-0.59730 0.41202 0.77669-0.61234
   5   2  -4  651.25   93.75   1 0.60361-0.12885-0.07121 0.25608 0.79408-0.95802
  -5  -2   3 2794.78  265.78   1 0.14013-0.60826-0.57639 0.40642 0.80506-0.68178
   5   2  -3 2380.64  187.72   1 0.57311-0.10536-0.23677 0.40631 0.78452-0.90763
  -5  -2   2  394.91   98.32   1 0.06838-0.52976-0.54827 0.39354 0.83349-0.75131
   5   2  -2  564.39  100.51   1 0.52863-0.06768-0.39044 0.54482 0.75372-0.83581
  -5  -2   1 4399.30  234.01   1-0.01638-0.43836-0.51035 0.37084 0.85980-0.81872
   5   2  -1 4280.34  197.04   1 0.47490-0.02070-0.52449 0.66370 0.70666-0.74771
  -5  -2   0 1777.96  170.21   1-0.11327-0.33472-0.46132 0.33705 0.87997-0.87997
   5   2   0 1621.67  146.89   1 0.41673 0.03096-0.63439 0.75839 0.65105-0.65105
  -5  -2  -1 1838.50  162.65   1-0.22036-0.22092-0.39922 0.29027 0.88997-0.93109
   5   2   1 1855.72  306.96   1 0.35864 0.08202-0.72170 0.83048 0.59204-0.55097
  -5  -2  -2  196.41   74.01   1-0.33274-0.10178-0.32479 0.23110 0.88531-0.96758
   5   2   2  216.82   63.38   1 0.30439 0.12954-0.79048 0.88392 0.53149-0.44932
  -5  -2  -3 3355.78  194.11   1-0.44360 0.01556-0.24106 0.16270 0.86319-0.98655
   5   2   3 3207.74  469.64   1 0.25524 0.17204-0.84152 0.91972 0.47610-0.35285
   5   2   415802.44  626.85   1 0.54405-0.12255 0.16445-0.10117-0.82277 0.98729
  -5  -2  -416823.39  660.88   1-0.54623 0.12491-0.15232 0.08923 0.82366-0.98814
   5   2   415200.25  643.23   1 0.21213 0.20849-0.87932 0.94227 0.42635-0.26202
   5   2   538319.16 1419.44   1 0.63320-0.21871 0.07703-0.02882-0.77013 0.97536
   5   2   535136.79 1348.27   1 0.17560 0.23866-0.90662 0.95461 0.38366-0.17819
   5   2   6 8008.90  778.22   1 0.70729-0.29945-0.00901 0.04200-0.70685 0.95318
   5   2   6 7217.59  373.74   1 0.14456 0.26303-0.92679 0.95958 0.34664-0.10007
   5   2   7 5440.80  719.45   1 0.76488-0.36365-0.08796 0.10573-0.63813 0.92551
   5   2   8  -21.56   55.46   1 0.80723-0.41256-0.16029 0.16251-0.56805 0.89631
   5   2   9 4663.57  354.62   1 0.83719-0.44923-0.22354 0.21024-0.49913 0.86832
   5   2  10   21.61   81.61   1 0.85765-0.47639-0.27712 0.24854-0.43316 0.84337
   5   2  11  482.70  131.43   1 0.87036-0.49511-0.32420 0.27991-0.37061 0.82250
   5   2  12 3227.04  311.87   1 0.87728-0.50861-0.36451 0.30488-0.31223 0.80520
   5   2  1321202.55 1333.36   1 0.87971-0.51761-0.39971 0.32474-0.25754 0.79159
   5   2  14 4404.93  318.54   1 0.87839-0.52281-0.43106 0.34132-0.20640 0.78113
   5   2  15  346.40  152.78   1 0.87461-0.52559-0.45830 0.35326-0.15814 0.77392
   5   2  16  810.88  179.03   1 0.86862-0.52617-0.48250 0.36216-0.11256 0.76939
   5   2  17  737.50  200.50   1 0.86033-0.52605-0.50530 0.36942-0.06705 0.76602
   5   2  18  738.40  201.15   1 0.85092-0.52335-0.52465 0.37346-0.02582 0.76591
   5   2  19 2590.55  319.39   1 0.84022-0.51936-0.54207 0.37558 0.01360 0.76759
   5   2  20   18.24  132.76   1 0.82837-0.51422-0.55780 0.37601 0.05147 0.77083
  -5  -3  15  280.00  163.75   1 0.42750-0.97130-0.65306 0.23771 0.62509-0.00831
  -5  -3  14  276.95  198.40   1 0.42906-0.96621-0.65327 0.25319 0.62380-0.04814
  -5  -3  13  138.52  199.23   1 0.42862-0.95912-0.65321 0.26840 0.62417-0.08963
  -5  -3  12   48.70  135.29   1 0.42589-0.94975-0.65285 0.28332 0.62641-0.13298
  -5  -3  11  133.53  139.42   1 0.42056-0.93777-0.65212 0.29786 0.63076-0.17846
  -5  -3  10  382.18  192.63   1 0.41218-0.92275-0.65091 0.31192 0.63750-0.22632
  -5  -3   9  172.93  152.86   1 0.40021-0.90414-0.64907 0.32536 0.64694-0.27687
  -5  -3   8  360.50  136.43   1 0.38397-0.88126-0.64635 0.33791 0.65938-0.33043
   5   3  -8  239.38   75.30   1 0.57021-0.07166 0.49957-0.19089 0.65214-0.97899
  -5  -3   7 9107.46  586.97   1 0.36258-0.85322-0.64239 0.34923 0.67517-0.38734
   5   3  -7 6108.02  388.91   1 0.59424-0.10278 0.38930-0.09698 0.70378-0.98996
  -5  -3   6  787.54  161.80   1 0.33495-0.81894-0.63668 0.35879 0.69457-0.44786
   5   3  -6  440.06  103.20   1 0.61094-0.12627 0.26364 0.01368 0.74648-0.99190
   5   3  -5  131.82   54.68   1 0.61650-0.13865 0.12858 0.13354 0.77677-0.98129
  -5  -3   4   36.56   83.71   1 0.25421-0.72514-0.61383 0.36640 0.74737-0.58302
  -5  -3   3  433.31  108.94   1 0.19845-0.66264-0.59681 0.36461 0.77744-0.65418
   5   3  -3  543.87  104.86   1 0.59152-0.12745-0.15121 0.38295 0.79197-0.91493
  -5  -3   2 1212.71  152.30   1 0.12925-0.58674-0.57236 0.35549 0.80975-0.72756
   5   3  -2  895.13  105.88   1 0.56130-0.10426-0.28425 0.50067 0.77725-0.85933
  -5  -3   1 2280.15  219.26   1 0.04522-0.49597-0.53845 0.33682 0.84143-0.80034
   5   3  -1 2114.69  202.50   1 0.52252-0.07226-0.40788 0.60911 0.74873-0.78978
  -5  -3   0 4114.13  210.39   1-0.05479-0.38929-0.49167 0.30527 0.86905-0.86905
   5   3   0 3892.40  203.89   1 0.47800-0.03449-0.51775 0.70382 0.70953-0.70953
  -5  -3  -1  208.62  104.22   1-0.16942-0.26794-0.42961 0.25855 0.88697-0.92809
   5   3   1  125.31   63.70   1 0.43025 0.00678-0.61087 0.78173 0.66461-0.62357
  -5  -3  -2  110.31   41.05   1-0.29366-0.13696-0.35211 0.19633 0.88869-0.97092
   5   3   2  197.00   74.35   1 0.38212 0.04784-0.68808 0.84368 0.61685-0.53470
  -5  -3  -3  -40.73   55.17   1-0.42013-0.00371-0.25996 0.11943 0.86943-0.99283
   5   3   3   92.48   47.48   1 0.33655 0.08671-0.75085 0.89129 0.56828-0.44505
   5   3   413524.69  551.18   1 0.53386-0.11640 0.17383-0.04833-0.82750 0.99202
  -5  -3  -413892.47  543.93   1-0.53806 0.12070-0.15986 0.03467 0.82760-0.99208
   5   3   413155.56  576.28   1 0.29446 0.12205-0.80152 0.92644 0.52042-0.35609
   5   3   5   60.62   32.02   1 0.63557-0.22514 0.07448 0.03588-0.76843 0.97366
   5   3   5  -30.01   68.99   1 0.25654 0.15331-0.84028 0.94995 0.47760-0.27218
   5   3   6   83.23   57.36   1 0.71798-0.31420-0.02268 0.11784-0.69568 0.94201
   5   3   6   42.25   64.55   1 0.22323 0.17998-0.87018 0.96459 0.43926-0.19275
   5   3   7  869.80  117.88   1 0.77901-0.38180-0.11227 0.19189-0.61687 0.90410
   5   3   7  710.02  136.50   1 0.19499 0.20189-0.89257 0.97216 0.40654-0.11889
   5   3   8 2050.64  149.73   1 0.82167-0.43103-0.18794 0.25230-0.53808 0.86634
   5   3   8 1796.40  300.36   1 0.17071 0.21951-0.90998 0.97437 0.37786-0.04911
   5   3   9  545.52   98.12   1 0.84950-0.46553-0.25394 0.30277-0.46244 0.83162
   5   3   9  208.77   83.06   1 0.15050 0.23304-0.92314 0.97233 0.35376 0.01607
   5   3  1016061.67  805.03   1 0.86670-0.48889-0.30896 0.34221-0.39161 0.80241
   5   3  1013737.45  744.18   1 0.13401 0.24286-0.93301 0.96700 0.33395 0.07698
   5   3  11 3194.94  222.15   1 0.87599-0.50474-0.35473 0.37263-0.32680 0.77869
   5   3  12  -17.90   73.40   1 0.87956-0.51488-0.39365 0.39622-0.26722 0.76019
   5   3  13 1863.25  241.28   1 0.87867-0.52049-0.42759 0.41538-0.21234 0.74601
   5   3  14 2174.65  237.29   1 0.87496-0.52335-0.45642 0.42892-0.16156 0.73629
   5   3  15 1403.06  221.62   1 0.86890-0.52385-0.48160 0.43879-0.11431 0.73009
   5   3  16  915.94  169.67   1 0.86049-0.52345-0.50492 0.44650-0.06784 0.72569
   5   3  17  319.12  153.81   1 0.85098-0.52065-0.52454 0.45081-0.02607 0.72504
   5   3  18  101.88  127.19   1 0.84024-0.51662-0.54203 0.45300 0.01352 0.72655
   5   3  19  -64.06  120.91   1 0.82843-0.51153-0.55772 0.45338 0.05128 0.72991
   5   3  20 1106.46  234.77   1 0.81564-0.50420-0.57203 0.45245 0.08663 0.73557
  -5  -4  14  703.67  208.79   1 0.44641-0.98051-0.65616 0.19368 0.60840-0.03283
  -5  -4  13 3246.69  372.30   1 0.44774-0.97517-0.65631 0.20913 0.60726-0.07281
  -5  -4  12  368.70  257.93   1 0.44699-0.96774-0.65623 0.22435 0.60791-0.11456
  -5  -4  11  214.91  160.30   1 0.44385-0.95794-0.65587 0.23930 0.61058-0.15835
  -5  -4  10  246.99  145.02   1 0.43871-0.94547-0.65449 0.25343 0.61576-0.20457
  -5  -4   9   12.18  107.69   1 0.42952-0.92963-0.65333 0.26754 0.62342-0.25336
  -5  -4   8 1085.03  179.54   1 0.41641-0.90989-0.65153 0.28101 0.63411-0.30516
   5   4  -8  555.08  118.25   1 0.57643-0.08193 0.47595-0.10518 0.66422-0.99107
  -5  -4   7 3867.37  350.93   1 0.39857-0.88540-0.64880 0.29356 0.64821-0.36038
   5   4  -7 2416.74  228.82   1 0.59591-0.10855 0.37974-0.02536 0.70758-0.99376
  -5  -4   6  -78.53   88.36   1 0.37490-0.85509-0.64472 0.30475 0.66616-0.41945
   5   4  -6   36.95   58.44   1 0.61014-0.12951 0.27261 0.06677 0.74390-0.98932
  -5  -4   5   96.06   90.86   1 0.34402-0.81756-0.63863 0.31394 0.68833-0.48273
   5   4  -5   18.71   50.08   1 0.61629-0.14247 0.15873 0.16547 0.77135-0.97586
  -5  -4   4 2063.38  209.19   1 0.30412-0.77102-0.62954 0.32013 0.71496-0.55049
   5   4  -4 1698.86  168.43   1 0.61407-0.14786 0.04096 0.26792 0.78818-0.95202
  -5  -4   3   65.61   86.11   1 0.25180-0.71213-0.61315 0.31878 0.74875-0.62549
   5   4  -3  200.14   95.11   1 0.60267-0.14256-0.07857 0.37237 0.79411-0.91706
  -5  -4   2 2445.91  185.37   1 0.18665-0.64025-0.59292 0.31379 0.78332-0.70114
   5   4  -2 2366.06  204.53   1 0.58291-0.12953-0.19634 0.47495 0.78845-0.87042
  -5  -4   1 1729.43  151.59   1 0.10447-0.55133-0.56286 0.29909 0.81992-0.77883
   5   4  -1 1766.68  152.80   1 0.55503-0.10868-0.30724 0.57054 0.77300-0.81404
  -5  -4   0  164.89   70.58   1 0.00300-0.44318-0.51940 0.27087 0.85452-0.85452
   5   4   0   22.12   65.03   1 0.52154-0.08198-0.41060 0.65870 0.74792-0.74792
  -5  -4  -1 2794.04  217.23   1-0.11801-0.31542-0.45876 0.22547 0.88068-0.92177
   5   4   1 2327.82  219.87   1 0.48429-0.05147-0.50374 0.73667 0.71533-0.67428
  -5  -4  -2 5126.60  188.85   1-0.25604-0.17066-0.37680 0.15891 0.89019-0.97242
   5   4   2 4374.29  227.36   1 0.44454-0.01815-0.58459 0.80232 0.67869-0.59661
  -5  -4  -3 5335.40  191.93   1-0.40131-0.01859-0.27451 0.07189 0.87383-0.99723
   5   4   3 5118.32  781.13   1 0.40495 0.01473-0.65390 0.85649 0.63907-0.51595
   5   4   4 4438.30  543.30   1 0.53198-0.11857 0.17554 0.01218-0.82835 0.99287
  -5  -4  -4 4775.98  179.67   1-0.53888 0.12546-0.15911-0.02816 0.82721-0.99169
   5   4   4 4376.67  641.22   1 0.36576 0.04681-0.71180 0.89906 0.59962-0.43531
   5   4   5  897.04  137.79   1 0.64929-0.24292 0.05948 0.11304-0.75821 0.96343
   5   4   5  782.97  179.56   1 0.32965 0.07621-0.75950 0.93160 0.56078-0.35540
   5   4   6   58.60   30.80   1 0.74039-0.34067-0.05269 0.21000-0.67010 0.91642
   5   4   6  330.35  117.37   1 0.29658 0.10252-0.79919 0.95558 0.52279-0.27629
   5   4   744432.22 2440.97   1 0.80297-0.40979-0.15258 0.29434-0.57615 0.86338
   5   4   741369.15 2397.07   1 0.26691 0.12553-0.83020 0.97134 0.48940-0.20181
   5   4   814408.00  835.09   1 0.84201-0.45533-0.23494 0.36119-0.48559 0.81376
   5   4   812397.89  942.07   1 0.24083 0.14496-0.85484 0.98073 0.45960-0.13092
   5   4   9 1059.14  124.89   1 0.86462-0.48423-0.30114 0.41193-0.40217 0.77189
   5   4   9 1028.46  187.54   1 0.21832 0.16082-0.87428 0.98491 0.43355-0.06380
   5   4  10 6357.45  371.83   1 0.87585-0.50204-0.35377 0.44922-0.32821 0.73902
   5   4  10 5923.25  877.56   1 0.19979 0.17305-0.88893 0.98491 0.41217-0.00123
   5   4  11 2641.17  187.53   1 0.87965-0.51241-0.39676 0.47687-0.26226 0.71415
   5   4  11 2467.55  386.75   1 0.18393 0.18224-0.90072 0.98151 0.39351 0.05851
   5   4  12 4035.80  320.05   1 0.87821-0.51743-0.43304 0.49836-0.20299 0.69562
   5   4  12 3401.52  628.46   1 0.17105 0.18845-0.90975 0.97534 0.37825 0.11486
   5   4  13 1875.63  232.56   1 0.87368-0.51947-0.46286 0.51288-0.14976 0.68344
   5   4  13 1706.32  389.54   1 0.16089 0.19194-0.91653 0.96691 0.36617 0.16804
   5   4  14 2091.66  214.00   1 0.86678-0.51914-0.48828 0.52301-0.10125 0.67598
   5   4  14 1842.63  307.26   1 0.15323 0.19293-0.92144 0.95662 0.35702 0.21828
   5   4  15  651.34  159.73   1 0.85765-0.51786-0.51132 0.53035-0.05449 0.67122
   5   4  15  610.66  123.47   1 0.14784 0.19165-0.92479 0.94477 0.35057 0.26583
   5   4  16  204.46  102.60   1 0.84759-0.51451-0.53048 0.53420-0.01289 0.67074
   5   4  16  226.00  171.29   1 0.14452 0.18830-0.92681 0.93160 0.34658 0.31090
   5   4  17  215.64  109.65   1 0.83647-0.51009-0.54738 0.53580 0.02612 0.67284
   5   4  17  139.96   98.81   1 0.14309 0.18306-0.92767 0.91726 0.34487 0.35371
   5   4  18 2453.41  266.21   1 0.82437-0.50353-0.56261 0.53579 0.06221 0.67777
   5   4  18 2238.68  282.73   1 0.14339 0.17609-0.92749 0.90188 0.34522 0.39445
   5   4  19   35.73  116.75   1 0.81160-0.49742-0.57603 0.53392 0.09736 0.68373
   5   4  19   43.22  114.74   1 0.14527 0.16753-0.92636 0.88554 0.34749 0.43328
   5   4  20  486.95  214.26   1 0.79809-0.49059-0.58810 0.53068 0.13105 0.69115
   5   4  20  577.93  202.99   1 0.14862 0.15752-0.92431 0.86829 0.35150 0.47036
   5   4  21  -12.61  119.43   1 0.78389-0.48305-0.59897 0.52625 0.16352 0.69979
   5   4  21  153.14  151.79   1 0.15332 0.14614-0.92137 0.85016 0.35714 0.50582
  -5  -5  13  153.29  201.16   1 0.46355-0.98711-0.65794 0.14869 0.59348-0.05903
  -5  -5  12  -21.45  115.37   1 0.46454-0.98143-0.65803 0.16409 0.59261-0.09926
  -5  -5  11  164.42  155.47   1 0.46335-0.97357-0.65792 0.17928 0.59366-0.14143
  -5  -5  10 2787.01  323.70   1 0.45964-0.96319-0.65756 0.19423 0.59694-0.18582
  -5  -5   9 3016.04  319.47   1 0.45295-0.94984-0.65688 0.20885 0.60277-0.23276
  -5  -5   8 2342.32  336.61   1 0.44272-0.93293-0.65574 0.22301 0.61155-0.28265
   5   5  -8 1391.55  220.08   1 0.57868-0.08823 0.46691-0.03406 0.66866-0.99551
  -5  -5   7  926.21  171.30   1 0.42872-0.91174-0.65323 0.23591 0.62408-0.33625
   5   5  -7  870.82  182.62   1 0.59560-0.11235 0.38154 0.03487 0.70687-0.99305
  -5  -5   6  382.64  112.54   1 0.40876-0.88513-0.65040 0.24835 0.64022-0.39351
   5   5  -6  265.38  106.09   1 0.60864-0.13204 0.28804 0.11341 0.73931-0.98473
  -5  -5   5  223.73   89.15   1 0.38206-0.85179-0.64601 0.25924 0.66082-0.45523
   5   5  -5  132.42  116.10   1 0.61548-0.14570 0.18947 0.19681 0.76503-0.96955
  -5  -5   4 3339.36  279.66   1 0.34681-0.80990-0.63921 0.26772 0.68638-0.52190
   5   5  -4 2854.79  279.67   1 0.61604-0.15385 0.08775 0.28317 0.78280-0.94664
  -5  -5   3  586.79  137.10   1 0.29923-0.75569-0.62585 0.26931 0.72025-0.59699
   5   5  -3  402.92  118.77   1 0.60981-0.15435-0.01636 0.37212 0.79237-0.91525
  -5  -5   2 5863.95  252.76   1 0.23871-0.68844-0.60934 0.26804 0.75612-0.67394
   5   5  -2 5140.65  286.10   1 0.59676-0.14735-0.11972 0.46038 0.79343-0.87540
  -5  -5   1   56.61   68.41   1 0.16012-0.60312-0.58380 0.25774 0.79594-0.75485
   5   5  -1   46.74  106.57   1 0.57704-0.13465-0.21940 0.54473 0.78668-0.82772
  -5  -5   0 1087.55  115.19   1 0.05889-0.49512-0.54429 0.23363 0.83682-0.83682
   5   5   0  949.87  152.76   1 0.55274-0.11709-0.31530 0.62548 0.77140-0.77140
  -5  -5  -1 2506.29  197.06   1-0.06820-0.36132-0.48491 0.18949 0.87189-0.91298
   5   5   1 2415.13  235.99   1 0.52390-0.09503-0.40400 0.69895 0.74986-0.70882
  -5  -5  -2   25.79   43.72   1-0.22112-0.20167-0.39875 0.11875 0.88999-0.97222
   5   5   2  107.32  101.85   1 0.49250-0.07038-0.48477 0.76456 0.72279-0.64069
  -5  -5  -3   32.86   39.32   1-0.39051-0.02544-0.28271 0.01799 0.87610-0.99951
   5   5   3   -8.87   72.06   1 0.45909-0.04336-0.55616 0.82075 0.69275-0.56963
   5   5   413101.75  905.28   1 0.54442-0.13505 0.16410 0.08584-0.82259 0.98711
  -5  -5  -414576.35  824.96   1-0.55686 0.14763-0.14102-0.10855 0.81854-0.98306
   5   5   413750.38  834.47   1 0.42584-0.01681-0.61867 0.86813 0.66021-0.49605
   5   5   5 1408.33  185.88   1 0.68226-0.27998 0.02161 0.21307-0.73078 0.93605
   5   5   5 1387.17  267.57   1 0.39245 0.00942-0.67237 0.90644 0.62760-0.42222
   5   5   6  462.53   70.25   1 0.78092-0.38520-0.11532 0.33447-0.61388 0.86008
   5   5   6  236.39  101.03   1 0.36152 0.03366-0.71773 0.93664 0.59511-0.34864
   5   5   714412.32  916.46   1 0.33279 0.05568-0.75559 0.95935 0.56420-0.27666
   5   5   8  459.78   75.09   1 0.86673-0.48378-0.30909 0.49741-0.39144 0.72009
   5   5   8  403.59   89.06   1 0.30661 0.07507-0.78795 0.97581 0.53395-0.20528
   5   5   9   51.66   49.88   1 0.87792-0.50154-0.37024 0.54323-0.30358 0.67331
   5   5   9  -23.27   94.31   1 0.28325 0.09179-0.81354 0.98615 0.50785-0.13809
   5   5  10  727.23  113.95   1 0.87924-0.50929-0.41772 0.57588-0.22899 0.63951
   5   5  10  627.44  142.06   1 0.26275 0.10563-0.83429 0.99166 0.48466-0.07383
   5   5  11 1461.78  206.64   1 0.87543-0.51205-0.45381 0.59667-0.16630 0.61787
   5   5  11 1249.53  285.98   1 0.24509 0.11664-0.85098 0.99309 0.46449-0.01256
   5   5  1213950.03  774.21   1 0.86854-0.51173-0.48277 0.61033-0.11204 0.60466
   5   5  1211493.62  779.24   1 0.23017 0.12490-0.86425 0.99111 0.44730 0.04570
   5   5  13 5822.96  436.72   1 0.85934-0.51007-0.50759 0.61937-0.06231 0.59681
   5   5  13 5892.13  872.49   1 0.21785 0.13057-0.87466 0.98627 0.43301 0.10107
   5   5  14 7067.65  310.87   1 0.84921-0.50666-0.52769 0.62418-0.01910 0.59472
   5   5  14 6942.09  913.46   1 0.20862 0.13350-0.88202 0.97919 0.42251 0.15280
   5   5  1511595.87  431.25   1 0.83819-0.50234-0.54498 0.62616 0.02044 0.59629
   5   5  1510717.51  643.22   1 0.20102 0.13443-0.88797 0.96995 0.41362 0.20277
   5   5  16  787.33  222.48   1 0.82646-0.49733-0.56007 0.62594 0.05714 0.60070
   5   5  16  916.63  149.69   1 0.19553 0.13325-0.89217 0.95894 0.40717 0.25031
   5   5  17  175.98  108.06   1 0.81407-0.49049-0.57360 0.62425 0.09083 0.60804
   5   5  17  475.70  135.64   1 0.19198 0.13013-0.89483 0.94641 0.40300 0.29558
   5   5  18 1458.09  209.36   1 0.80122-0.48431-0.58547 0.62082 0.12353 0.61645
   5   5  18 1045.11  146.55   1 0.19023 0.12521-0.89613 0.93251 0.40094 0.33873
   5   5  19 1085.24  234.26   1 0.78782-0.47758-0.59612 0.61617 0.15480 0.62629
   5   5  19  839.87  148.68   1 0.19014 0.11862-0.89619 0.91737 0.40084 0.37993
   5   5  20  353.92  169.85   1 0.77388-0.47031-0.60572 0.61046 0.18492 0.63728
   5   5  20  567.76  113.00   1 0.19160 0.11049-0.89511 0.90109 0.40256 0.41930
   5   5  21  223.17  176.91   1 0.19450 0.10092-0.89294 0.88372 0.40597 0.45699
  -5  -6  12  436.09  208.69   1 0.47779-0.99082-0.65916 0.10317 0.58069-0.08735
  -5  -6  11    0.47  107.43   1 0.47831-0.98466-0.65920 0.11851 0.58022-0.12799
  -5  -6  10  399.79  174.48   1 0.47651-0.97620-0.65906 0.13367 0.58185-0.17073
  -5  -6   9  -36.75  102.24   1 0.47201-0.96503-0.65869 0.14861 0.58593-0.21592
   5   6  -9  130.70  103.82   1 0.55824-0.06489 0.54017-0.02993 0.62973-0.99744
  -5  -6   8  228.94  186.48   1 0.46427-0.95062-0.65800 0.16322 0.59285-0.26395
   5   6  -8  222.23  124.81   1 0.57859-0.09219 0.46725 0.02769 0.66850-0.99535
  -5  -6   7   -0.94   90.97   1 0.45258-0.93226-0.65684 0.17736 0.60309-0.31530
   5   6  -7  236.08  124.22   1 0.59402-0.11488 0.39051 0.08795 0.70329-0.98947
  -5  -6   6    3.04   90.86   1 0.43641-0.90897-0.65421 0.19009 0.61769-0.37097
   5   6  -6   18.31   76.11   1 0.60629-0.13395 0.30753 0.15577 0.73336-0.97866
  -5  -6   5  315.85  147.61   1 0.41356-0.87948-0.65111 0.20226 0.63639-0.43080
   5   6  -5   42.46   70.21   1 0.61402-0.14828 0.22056 0.22778 0.75783-0.96235
  -5  -6   4  256.48  115.82   1 0.38271-0.84198-0.64612 0.21255 0.66033-0.49586
   5   6  -4  202.15  112.47   1 0.61650-0.15758 0.13068 0.30248 0.77642-0.94003
  -5  -6   3  185.06   78.06   1 0.34136-0.79398-0.63806 0.21976 0.69017-0.56681
   5   6  -3  166.88  122.01   1 0.61398-0.16253 0.03931 0.37849 0.78833-0.91122
  -5  -6   2  467.44  109.89   1 0.28430-0.73016-0.62204 0.21858 0.72953-0.64736
   5   6  -2  653.67  172.27   1 0.60586-0.16041-0.05250 0.45522 0.79383-0.87580
  -5  -6   1  713.69  134.14   1 0.21001-0.64914-0.60053 0.21231 0.77152-0.73043
   5   6  -1 1025.33  213.21   1 0.59292-0.15421-0.14316 0.53070 0.79242-0.83341
  -5  -6   0 2587.47  161.36   1 0.11047-0.54280-0.56520 0.19240 0.81752-0.81752
   5   6   0 2663.64  247.87   1 0.57465-0.14296-0.23004 0.60225 0.78539-0.78539
  -5  -6  -1 9508.87  482.55   1-0.02135-0.40426-0.50799 0.15043 0.86109-0.90218
   5   6   1 9604.05  565.39   1 0.55327-0.12833-0.31342 0.67047 0.77178-0.73074
  -5  -6  -2   62.72   49.98   1-0.19122-0.22766-0.41683 0.07471 0.88863-0.97086
   5   6   2   25.00   83.38   1 0.52846-0.11028-0.39096 0.73276 0.75357-0.67148
  -5  -6  -3  131.10   62.91   1-0.39429-0.01773-0.27986-0.04695 0.87533-0.99873
   5   6   3  108.65   86.96   1 0.50188-0.09045-0.46213 0.78878 0.73112-0.60798
   5   6   4  424.91  106.69   1 0.47360-0.06854-0.52593 0.83739 0.70645-0.54229
   5   6   5 1526.87  201.07   1 0.44554-0.04716-0.58269 0.87900 0.67967-0.47446
   5   6   6 9740.75  563.01   1 0.41797-0.02628-0.63229 0.91347 0.65230-0.40605
   5   6   7 1678.18  306.05   1 0.39050-0.00602-0.67538 0.94110 0.62558-0.33804
   5   6   8 2913.83  448.85   1 0.36565 0.01212-0.71196 0.96253 0.59950-0.27088
   5   6   9   -5.71   83.90   1 0.34278 0.02830-0.74286 0.97828 0.57502-0.20532
   5   6  10   93.80   47.55   1 0.86057-0.49512-0.50473 0.72458-0.06824 0.47940
   5   6  10  113.64   50.57   1 0.32210 0.04227-0.76873 0.98899 0.55253-0.14176
   5   6  11 1721.77  170.88   1 0.84972-0.49098-0.52681 0.73135-0.02106 0.47333
   5   6  11 1376.80  232.64   1 0.30362 0.05400-0.79135 0.99543 0.53063-0.07871
   5   6  12 1335.88  139.36   1 0.83862-0.48659-0.54438 0.73362 0.01902 0.47436
   5   6  12 1324.89  222.23   1 0.28758 0.06339-0.80896 0.99779 0.51271-0.01971
   5   6  13  168.42   98.63   1 0.82723-0.48090-0.55927 0.73329 0.05381 0.48062
   5   6  13  144.88   62.17   1 0.27385 0.07047-0.82325 0.99683 0.49725 0.03683
   5   6  1411828.57  394.26   1 0.81583-0.47618-0.57183 0.73055 0.08611 0.48942
   5   6  1411505.60  752.42   1 0.26236 0.07530-0.83467 0.99300 0.48423 0.09094
   5   6  15 5765.48  602.43   1 0.80419-0.47121-0.58288 0.72630 0.11621 0.50043
   5   6  15 4877.57  892.41   1 0.25303 0.07797-0.84361 0.98669 0.47358 0.14266
   5   6  16  552.96  123.84   1 0.79226-0.46595-0.59276 0.72088 0.14471 0.51304
   5   6  16 1032.03  220.71   1 0.24574 0.07861-0.85039 0.97822 0.46523 0.19210
   5   6  17   12.92   77.75   1 0.77997-0.46033-0.60169 0.71450 0.17202 0.52684
   5   6  17  138.54  119.88   1 0.24037 0.07733-0.85526 0.96784 0.45906 0.23936
   5   6  18 1038.40  177.53   1 0.76729-0.45432-0.60982 0.70732 0.19843 0.54155
   5   6  18 1133.13  249.89   1 0.23680 0.07425-0.85845 0.95577 0.45495 0.28455
   5   6  19  636.09  184.46   1 0.75457-0.44828-0.61692 0.69902 0.22363 0.55713
   5   6  19  626.63  119.54   1 0.23492 0.06947-0.86011 0.94218 0.45278 0.32780
   5   6  20  287.39  143.10   1 0.23463 0.06311-0.86036 0.92719 0.45245 0.36922
   5   6  21   69.44  129.16   1 0.23582 0.05527-0.85931 0.91088 0.45382 0.40893
  -5  -7  11   90.23  123.28   1 0.48883-0.99133-0.65996 0.05720 0.57051-0.11828
  -5  -7  10  160.12  119.35   1 0.48870-0.98452-0.65995 0.07250 0.57063-0.15951
  -5  -7   9  437.74  183.62   1 0.48608-0.97523-0.65977 0.08763 0.57307-0.20306
   5   7  -9  306.62  140.67   1 0.55807-0.06877 0.54071 0.03161 0.62942-0.99713
  -5  -7   8  974.57  191.84   1 0.48048-0.96297-0.65937 0.10253 0.57823-0.24933
   5   7  -8  343.27  125.27   1 0.57693-0.09457 0.47398 0.08304 0.66519-0.99204
  -5  -7   7  659.42  194.28   1 0.47128-0.94710-0.65863 0.11709 0.58658-0.29880
   5   7  -7  510.04  166.67   1 0.59147-0.11643 0.40430 0.13621 0.69763-0.98381
  -5  -7   6  352.12  160.59   1 0.45760-0.92674-0.65736 0.13112 0.59872-0.35205
   5   7  -6  324.44  173.59   1 0.60352-0.13529 0.32968 0.19567 0.72599-0.97129
  -5  -7   5   78.27   89.63   1 0.43843-0.90053-0.65446 0.14353 0.61599-0.41040
   5   7  -5  279.77  137.62   1 0.61191-0.15021 0.25190 0.25852 0.74973-0.95425
  -5  -7   4   92.10   80.05   1 0.41153-0.86699-0.65081 0.15516 0.63802-0.47355
   5   7  -4   -5.25   82.19   1 0.61602-0.16113 0.17171 0.32353 0.76878-0.93239
   5   7  -3  127.78   90.12   1 0.61611-0.16868 0.09015 0.38969 0.78248-0.90536
  -5  -7   2  122.11   87.02   1 0.32439-0.76656-0.63432 0.16922 0.70171-0.61947
  -5  -7   1 2327.56  223.32   1 0.25279-0.68805-0.61343 0.16304 0.74819-0.70710
   5   7  -1 3201.49  322.42   1 0.60325-0.16849-0.07408 0.52367 0.79410-0.83508
  -5  -7   0180561.014589.65   1 0.15596-0.58440-0.58212 0.14718 0.79800-0.79800
   5   7   0175500.514235.25   1 0.59099-0.16296-0.15424 0.58864 0.79179-0.79179
   5   7   128498.32  693.12   1 0.57445-0.15345-0.23094 0.65003 0.78528-0.74424
   5   7   2  141.05  143.14   1 0.55581-0.14156-0.30445 0.70839 0.77354-0.69147
   5   7   3 3660.09  274.29   1 0.53446-0.12698-0.37316 0.76183 0.75835-0.63520
   5   7   4  193.75  125.00   1 0.51189-0.11116-0.43662 0.81012 0.73980-0.57561
   5   7   5  444.06  145.75   1 0.48841-0.09442-0.49433 0.85266 0.71909-0.51384
   5   7   6 7037.38  335.72   1 0.46411-0.07640-0.54592 0.88910 0.69753-0.45128
   5   7   7 3157.06  257.88   1 0.44068-0.05965-0.59184 0.91988 0.67491-0.38762
   5   7   8 1741.32  218.20   1 0.41807-0.04373-0.63211 0.94501 0.65240-0.32407
   5   7   914329.67  501.90   1 0.39558-0.02849-0.66749 0.96487 0.63084-0.26115
   5   7  10  558.38  118.89   1 0.37569-0.01530-0.69758 0.97981 0.61010-0.19933
   5   7  11  996.66  239.95   1 0.35754-0.00386-0.72320 0.99028 0.59087-0.13902
   5   7  12   65.77   68.58   1 0.34127 0.00571-0.74482 0.99674 0.57338-0.08046
   5   7  1312527.83  684.37   1 0.32693 0.01334-0.76286 0.99962 0.55781-0.02380
   5   7  14 5327.00  683.05   1 0.31454 0.01902-0.77773 0.99934 0.54423 0.03084
   5   7  15   15.37  162.55   1 0.30390 0.02300-0.79103 0.99608 0.53094 0.08531
   5   7  16  171.99  113.38   1 0.29531 0.02494-0.80059 0.99039 0.52137 0.13596
   5   7  17   63.19   88.92   1 0.28853 0.02506-0.80793 0.98248 0.51379 0.18463
   5   7  18   95.78   83.28   1 0.28350 0.02344-0.81328 0.97258 0.50813 0.23137
   5   7  19  499.60  219.01   1 0.28011 0.02018-0.81681 0.96086 0.50432 0.27626
   5   7  20  504.91  106.22   1 0.27830 0.01534-0.81869 0.94749 0.50227 0.31939
   5   7  21  236.54  100.02   1 0.27797 0.00901-0.81903 0.93258 0.50191 0.36084
  -5  -8   9  -27.65   98.39   1 0.49527-0.98056-0.66035 0.02615 0.56447-0.19446
  -5  -8   8   68.87   94.70   1 0.49148-0.97010-0.66013 0.04122 0.56803-0.23913
   5   8  -8  205.69  162.09   1 0.57403-0.09572 0.48530 0.13382 0.65952-0.98637
  -5  -8   7  -64.74   81.56   1 0.48437-0.95632-0.65965 0.05605 0.57465-0.28687
   5   8  -7   26.95   83.71   1 0.58807-0.11714 0.42150 0.18107 0.69028-0.97646
  -5  -8   6  161.09  143.03   1 0.47312-0.93840-0.65879 0.07049 0.58492-0.33825
   5   8  -6   25.53   87.56   1 0.60010-0.13598 0.35372 0.23368 0.71745-0.96275
  -5  -8   5  381.08  145.09   1 0.45661-0.91522-0.65726 0.08426 0.59959-0.39403
   5   8  -5  396.78  171.21   1 0.60911-0.15144 0.28338 0.28910 0.74072-0.94524
  -5  -8   4  -13.07   64.54   1 0.43317-0.88481-0.65380 0.09607 0.62040-0.45592
   5   8  -4   85.80   96.74   1 0.61454-0.16369 0.21104 0.34626 0.76013-0.92374
  -5  -8   3   83.95   67.51   1 0.40032-0.84532-0.64908 0.10662 0.64685-0.52350
   5   8  -3   15.43   81.77   1 0.61650-0.17247 0.13732 0.40479 0.77528-0.89799
  -5  -8   2    2.00   56.23   1 0.35449-0.79285-0.64079 0.11360 0.68096-0.59873
   5   8  -2  171.55  119.41   1 0.61517-0.17849 0.06297 0.46376 0.78587-0.86779
   5   8  -1  236.48  105.81   1 0.61026-0.18031-0.01138 0.52294 0.79211-0.83307
   5   8   0 1246.32  221.25   1 0.60185-0.17779-0.08474 0.58120 0.79409-0.79409
   5   8   111186.55  702.24   1 0.59063-0.17330-0.15625 0.63752 0.79166-0.75068
   5   8   2  824.16  172.98   1 0.57587-0.16557-0.22467 0.69064 0.78606-0.70398
   5   8   3 3935.56  358.19   1 0.55972-0.15617-0.29017 0.74099 0.77621-0.65309
   5   8   4  331.19  148.82   1 0.54181-0.14502-0.35166 0.78732 0.76338-0.59924
   5   8   5  424.49  133.94   1 0.52221-0.13217-0.40874 0.82911 0.74847-0.54323
   5   8   6  113.56  104.70   1 0.50231-0.11902-0.46105 0.86625 0.73150-0.48521
   5   8   7   52.34  107.18   1 0.48219-0.10565-0.50846 0.89850 0.71340-0.42606
   5   8   8  -57.25  107.03   1 0.46171-0.09134-0.55085 0.92575 0.69525-0.36691
   5   8   9 3995.71  348.61   1 0.44241-0.07873-0.58860 0.94836 0.67661-0.30724
   5   8  10 2194.33  295.67   1 0.42406-0.06707-0.62180 0.96643 0.65842-0.24801
   5   8  11 4629.98  422.07   1 0.40690-0.05660-0.65073 0.98022 0.64106-0.18960
   5   8  12  529.05  127.88   1 0.38995-0.04696-0.67623 0.99012 0.62501-0.13208
   5   8  13  774.33  155.51   1 0.37569-0.03940-0.69758 0.99632 0.61010-0.07610
   5   8  14 7641.17  832.31   1 0.36303-0.03345-0.71562 0.99920 0.59672-0.02164
   5   8  15  834.44  158.52   1 0.35203-0.02915-0.73066 0.99908 0.58497 0.03118
   5   8  16   56.90   88.36   1 0.34268-0.02651-0.74298 0.99625 0.57492 0.08231
   5   8  17  800.46  119.74   1 0.33498-0.02550-0.75284 0.99095 0.56657 0.13173
   5   8  18  293.23  108.82   1 0.32888-0.02611-0.76046 0.98342 0.55993 0.17945
   5   8  19  918.84  203.00   1 0.32433-0.02826-0.76603 0.97383 0.55497 0.22549
   5   8  20 -114.08  125.57   1 0.32129-0.03192-0.76971 0.96235 0.55164 0.26989
   5   9  -8   61.70  102.14   1 0.57009-0.09583 0.50000 0.18121 0.65191-0.97876
   5   9  -7  878.85  193.83   1 0.58388-0.11705 0.44120 0.22342 0.68148-0.96766
   5   9  -6  258.32  162.45   1 0.59601-0.13600 0.37914 0.27031 0.70782-0.95311
   5   9  -5   46.16   98.46   1 0.60540-0.15219 0.31499 0.31930 0.73093-0.93535
   5   9  -4  277.09  137.91   1 0.61212-0.16531 0.24913 0.37025 0.75048-0.91410
   5   9  -3  525.65  155.78   1 0.61573-0.17573 0.18207 0.42212 0.76663-0.88933
   5   9  -2  207.59  137.94   1 0.61656-0.18389 0.11436 0.47441 0.77895-0.86087
   5   9  -1  375.01  134.16   1 0.61437-0.18844 0.04644 0.52716 0.78764-0.82860
   5   9   0  312.17  122.43   1 0.60938-0.19019-0.02089 0.57932 0.79259-0.79259
   5   9   1   -2.71   92.66   1 0.60153-0.18817-0.08709 0.63042 0.79408-0.75309
   5   9   2  154.81  104.25   1 0.59150-0.18486-0.15136 0.67950 0.79196-0.70999
   5   9   3  135.73  114.76   1 0.57847-0.17887-0.21287 0.72572 0.78743-0.66432
   5   9   4  118.37  109.65   1 0.56457-0.17172-0.27172 0.76942 0.77937-0.61522
   5   9   5  -25.69   98.44   1 0.54929-0.16319-0.32712 0.80966 0.76893-0.56374
   5   9   6  239.36  120.97   1 0.53257-0.15323-0.37885 0.84607 0.75686-0.51057
   5   9   7  130.76  148.55   1 0.51572-0.14313-0.42648 0.87853 0.74306-0.45572
   5   9   8 2124.37  305.64   1 0.49868-0.13284-0.46998 0.90687 0.72830-0.39991
   5   9   9  366.79  160.71   1 0.48180-0.12270-0.50933 0.93105 0.71305-0.34361
   5   9  10 2109.60  256.19   1 0.46479-0.11177-0.54453 0.95115 0.69817-0.28775
   5   9  11 2235.17  257.09   1 0.44911-0.10278-0.57585 0.96734 0.68314-0.23168
   5   9  12 5324.88  364.56   1 0.43438-0.09474-0.60343 0.97978 0.66871-0.17621
   5   9  13  522.81  177.53   1 0.42079-0.08783-0.62747 0.98868 0.65514-0.12160
   5   9  14 4971.82  904.17   1 0.40844-0.08218-0.64821 0.99429 0.64264-0.06805
   5   9  15 6075.58 1049.24   1 0.39622-0.07733-0.66649 0.99688 0.63150-0.01534
   5   9  16  -24.75  105.36   1 0.38660-0.07441-0.68135 0.99658 0.62152 0.03570
   5   9  17   40.81   99.25   1 0.37841-0.07292-0.69359 0.99367 0.61296 0.08534
   5   9  18  350.96  117.83   1 0.37165-0.07287-0.70343 0.98836 0.60584 0.13353
   5   9  19 2255.04  459.65   1 0.36630-0.07423-0.71104 0.98081 0.60019 0.18026
   5   9  20  -15.91  117.77   1 0.36235-0.07698-0.71657 0.97118 0.59600 0.22554
   5  10  -7   23.09  110.46   1 0.57890-0.11617 0.46277 0.26390 0.67134-0.95752
   5  10  -6  -13.15  100.02   1 0.59123-0.13531 0.40559 0.30592 0.69709-0.94239
   5  10  -5   45.14  105.75   1 0.60115-0.15205 0.34665 0.34969 0.72002-0.92444
   5  10  -4  -26.54  100.02   1 0.60882-0.16604 0.28626 0.39518 0.73985-0.90346
   5  10  -3  835.93  211.92   1 0.61377-0.17782 0.22483 0.44143 0.75678-0.87949
   5  10  -2  896.15  212.05   1 0.61622-0.18708 0.16276 0.48832 0.77056-0.85237
   5  10  -1  425.42  172.57   1 0.61634-0.19443 0.10040 0.53525 0.78104-0.82200
   5  10   0  138.59  135.28   1 0.61392-0.19874 0.03835 0.58213 0.78843-0.78843
   5  10   1   44.22   84.38   1 0.60920-0.20075-0.02286 0.62817 0.79268-0.75172
   5  10   2  610.64  199.15   1 0.60209-0.19942-0.08292 0.67312 0.79410-0.71213
   5  10   3  149.16  102.85   1 0.59329-0.19735-0.14103 0.71604 0.79253-0.66958
   5  10   4   88.45  113.50   1 0.58280-0.19359-0.19686 0.75668 0.78840-0.62446
   5  10   5  283.66  168.36   1 0.57000-0.18785-0.24988 0.79445 0.78272-0.57753
   5  10   6   45.71  107.61   1 0.55703-0.18163-0.30007 0.82949 0.77438-0.52816
   5  10   7 3991.20  311.39   1 0.54327-0.17462-0.34699 0.86125 0.76449-0.47723
   5  10   8 2756.44  285.99   1 0.52855-0.16666-0.39067 0.88958 0.75365-0.42526
   5  10   9   99.22  120.73   1 0.51416-0.15901-0.43063 0.91438 0.74174-0.37230
   5  10  10  102.19  126.38   1 0.49989-0.15149-0.46702 0.93560 0.72937-0.31889
   5  10  11  608.67  205.82   1 0.48600-0.14434-0.49986 0.95328 0.71689-0.26536
   5  10  12  253.13  139.21   1 0.47207-0.13639-0.52923 0.96758 0.70502-0.21252
   5  10  13 2177.83  255.98   1 0.45952-0.13054-0.55529 0.97850 0.69316-0.15962
   5  10  1410687.23 4598.47   1 0.44790-0.12561-0.57817 0.98624 0.68197-0.10739
   5  10  15 1543.12  259.87   1 0.43733-0.12173-0.59804 0.99098 0.67162-0.05600
   5  10  16  172.92  141.93   1 0.42789-0.11897-0.61508 0.99288 0.66225-0.00559
   5  10  17   43.41  114.29   1 0.41963-0.11740-0.62945 0.99212 0.65398 0.04372
   5  10  18  504.28  199.98   1 0.41260-0.11706-0.64134 0.98886 0.64687 0.09187
   5  10  19  -14.82  120.62   1 0.40681-0.11797-0.65087 0.98326 0.64097 0.13881
   5  11  -5  162.92  159.67   1 0.59615-0.15115 0.37836 0.38003 0.70812-0.91253
   5  11  -4  -11.69  108.29   1 0.60443-0.16625 0.32268 0.42054 0.72837-0.89190
   5  11  -3   48.31  112.33   1 0.61074-0.17882 0.26604 0.46229 0.74579-0.86850
   5  11  -2   91.81  115.98   1 0.61465-0.18954 0.20884 0.50431 0.76065-0.84245
   5  11  -1 1158.25  247.91   1 0.61639-0.19811 0.15140 0.54656 0.77273-0.81364
   5  11   1  158.77  165.65   1 0.61385-0.20942 0.03707 0.63027 0.78854-0.74758
   5  11   2  176.11  140.14   1 0.60958-0.21189-0.01877 0.67095 0.79249-0.71057
   5  11   3  -25.74   94.10   1 0.60332-0.21134-0.07349 0.71055 0.79410-0.67114
   5  11   4  245.52  154.15   1 0.59573-0.21048-0.12627 0.74815 0.79319-0.62925
   5  11   5   19.29  119.32   1 0.58677-0.20825-0.17696 0.78365 0.79017-0.58525
   5  11   6    9.79  121.03   1 0.57575-0.20430-0.22518 0.81664 0.78599-0.53977
   5  11   7  527.90  188.21   1 0.56480-0.20009-0.27084 0.84713 0.77951-0.49225
   5  11   8 2141.80  277.03   1 0.55322-0.19526-0.31363 0.87477 0.77173-0.44344
   5  11   9  144.21  132.25   1 0.54126-0.19006-0.35341 0.89940 0.76297-0.39363
   5  11  10  140.52  176.35   1 0.52865-0.18419-0.39039 0.92100 0.75373-0.34325
   5  11  11  468.63  180.01   1 0.51665-0.17894-0.42399 0.93943 0.74384-0.29231
   5  11  12  483.72  164.43   1 0.50495-0.17399-0.45446 0.95474 0.73381-0.24123
   5  11  13  255.99  204.79   1 0.49373-0.16952-0.48187 0.96698 0.72389-0.19026
   5  11  14  670.60  188.50   1 0.48316-0.16569-0.50629 0.97624 0.71429-0.13962
   5  11  15 1037.89  210.73   1 0.47269-0.16106-0.52789 0.98283 0.70560-0.08998
   5  11  16 1278.48  254.04   1 0.46375-0.15880-0.54667 0.98647 0.69719-0.04052
   5  11  17  104.97  125.09   1 0.45576-0.15751-0.56282 0.98748 0.68957 0.00813
   5  11  18  188.43  133.44   1 0.44880-0.15723-0.57645 0.98597 0.68284 0.05590
   5  11  19   37.42  121.03   1 0.44290-0.15802-0.58769 0.98207 0.67709 0.10269
   5  12  -3  196.50  176.26   1 0.60666-0.17878 0.30603 0.48438 0.73368-0.85639
   5  12  -2  130.23  123.07   1 0.61182-0.19075 0.25305 0.52217 0.74942-0.83122
   5  12  -1  262.57  224.17   1 0.61506-0.20081 0.19983 0.56021 0.76273-0.80363
   5  12   0  135.38  131.22   1 0.61644-0.20901 0.14667 0.59819 0.77361-0.77361
   5  12   1   96.85  100.23   1 0.61619-0.21578 0.09357 0.63582 0.78201-0.74105
   5  12   2  217.92  146.39   1 0.61410-0.22042 0.04142 0.67280 0.78813-0.70621
   5  12   3  289.03  232.19   1 0.61041-0.22347-0.00967 0.70873 0.79202-0.66914
   5  12   4   75.16  121.44   1 0.60502-0.22374-0.05970 0.74364 0.79396-0.63002
   5  12   5  175.10  188.84   1 0.59858-0.22402-0.10783 0.77657 0.79376-0.58884
   5  12   6   54.41  122.53   1 0.59103-0.22320-0.15401 0.80757 0.79180-0.54589
   5  12   7 2675.23  328.87   1 0.58256-0.22146-0.19802 0.83639 0.78829-0.50139
   5  12   8 2113.31  312.70   1 0.57243-0.21843-0.23966 0.86283 0.78414-0.45584
   5  12   9  664.33  196.86   1 0.56275-0.21550-0.27876 0.88678 0.77820-0.40886
   5  12  10 1176.44  245.33   1 0.55277-0.21226-0.31520 0.90806 0.77142-0.36105
   5  12  11  -65.84  102.25   1 0.54268-0.20893-0.34890 0.92661 0.76404-0.31263
   5  12  12  182.26  181.82   1 0.53212-0.20511-0.38018 0.94248 0.75650-0.26392
   5  12  13  171.86  165.09   1 0.52235-0.20209-0.40834 0.95548 0.74859-0.21496
   5  12  14  893.49  242.74   1 0.51298-0.19947-0.43375 0.96572 0.74073-0.16606
   5  12  15 1075.78  250.49   1 0.50415-0.19738-0.45646 0.97327 0.73311-0.11739
   5  12  16  190.42  186.65   1 0.49597-0.19595-0.47653 0.97817 0.72589-0.06912
   5  12  17  213.26  131.83   1 0.48853-0.19526-0.49404 0.98051 0.71920-0.02138
   5  12  18   -3.34  117.43   1 0.48192-0.19539-0.50907 0.98038 0.71315 0.02571
   5  13  -1   89.86  168.49   1 0.61234-0.20213 0.24625 0.57586 0.75126-0.79216
   5  13   0   55.59  128.97   1 0.61519-0.21180 0.19675 0.61018 0.76342-0.76342
   5  13   1   99.75  129.67   1 0.61644-0.21986 0.14752 0.64422 0.77345-0.73255
   5  13   2  275.84  202.26   1 0.61630-0.22664 0.09844 0.67783 0.78132-0.69940
   5  13   3  194.08  155.59   1 0.61458-0.23166 0.05049 0.71061 0.78722-0.66434
   5  13   4  484.13  185.77   1 0.61153-0.23534 0.00362 0.74230 0.79121-0.62736
   5  13   5   81.64  123.78   1 0.60700-0.23641-0.04224 0.77304 0.79357-0.58865
   5  13   6   83.19  116.40   1 0.60165-0.23779-0.08622 0.80184 0.79408-0.54817
   5  13   7  478.18  202.78   1 0.59538-0.23825-0.12841 0.82884 0.79311-0.50621
   5  13   8  204.88  133.60   1 0.58836-0.23795-0.16861 0.85385 0.79082-0.46294
   5  13   9  268.24  146.34   1 0.57979-0.23649-0.20669 0.87675 0.78810-0.41877
   5  13  10   54.46  120.85   1 0.57177-0.23522-0.24245 0.89735 0.78376-0.37339
   5  13  11  136.30  120.27   1 0.56351-0.23371-0.27581 0.91556 0.77869-0.32728
   5  13  12  164.73  125.36   1 0.55517-0.23212-0.30672 0.93131 0.77310-0.28066
   5  13  13   71.67  174.17   1 0.54690-0.23060-0.33513 0.94456 0.76718-0.23370
   5  13  14 1060.06  293.92   1 0.53884-0.22929-0.36102 0.95530 0.76111-0.18659
   5  13  15  100.59  128.39   1 0.53055-0.22772-0.38484 0.96367 0.75525-0.13952
   5  13  16  474.11  208.17   1 0.52327-0.22720-0.40577 0.96943 0.74935-0.09258
   5  14   3  187.76  188.14   1 0.61647-0.23756 0.10775 0.71540 0.77996-0.65708
   5  14   4  101.51  121.70   1 0.61520-0.24303 0.06359 0.74438 0.78580-0.62195
   5  14   5   83.49  124.18   1 0.61279-0.24735 0.02054 0.77226 0.78997-0.58517
   5  14   6  382.71  200.62   1 0.60936-0.25066-0.02119 0.79883 0.79261-0.54684
   5  14   7  105.26  124.44   1 0.60476-0.25159-0.06186 0.82434 0.79399-0.50710
   5  14   8   69.67  127.00   1 0.59966-0.25322-0.10045 0.84775 0.79392-0.46604
   5  14   9  268.41  190.52   1 0.59393-0.25422-0.13720 0.86931 0.79272-0.42385
   5  14  10  132.79  131.81   1 0.58772-0.25474-0.17199 0.88890 0.79056-0.38071
   5  14  11  216.65  140.96   1 0.58020-0.25435-0.20475 0.90653 0.78831-0.33690
   5  14  12  482.45  203.74   1 0.57346-0.25435-0.23526 0.92188 0.78472-0.29227
   5  14  13   50.88  140.05   1 0.56664-0.25429-0.26353 0.93500 0.78067-0.24719
  -6  11   8  757.12  302.30   1-0.42826-0.21612-0.25356 0.81458 0.86734-0.53827
  -6  11   7   40.69  140.24   1-0.46150-0.17630-0.22646 0.80257 0.85774-0.56990
   6 -11  -6  841.95  218.17   1 0.50279 0.12840 0.20157-0.79429-0.84057 0.59380
  -6  11   6 1741.08  306.84   1-0.49551-0.13557-0.19774 0.78913 0.84579-0.59907
   6 -11  -5  -69.49  125.94   1 0.53673 0.08786 0.17120-0.77922-0.82620 0.62055
  -6  11   5  242.03  165.50   1-0.52970-0.09466-0.16748 0.77415 0.83148-0.62588
   6 -11  -4  480.38  144.41   1 0.57113 0.04682 0.14018-0.76307-0.80879 0.64461
  -6  11   4  842.72  223.69   1-0.56370-0.05393-0.13587 0.75780 0.81472-0.65024
   6 -11  -3  118.49  124.06   1 0.60417 0.00717 0.10741-0.74552-0.78957 0.66644
  -6  11   3  237.27  265.12   1-0.59648-0.01520-0.10244 0.73978 0.79606-0.67267
   6 -11  -2  210.48  182.70   1 0.63627-0.03153 0.07373-0.72706-0.76793 0.68584
   6 -11  -1  192.87  132.24   1 0.66709-0.06897 0.03939-0.70795-0.74392 0.70288
   6 -11   0  262.25  131.87   1 0.69631-0.10483 0.00464-0.68839-0.71771 0.71771
   6 -11   1  -38.38  125.69   1 0.72377-0.13891-0.03025-0.66871-0.68937 0.73042
   6 -11   2  911.56  244.09   1 0.74922-0.17097-0.06507-0.64911-0.65911 0.74122
  -6  10  11  195.59  158.27   1-0.27939-0.38099-0.36161 0.81466 0.88947-0.43721
  -6  10  10 1289.30  306.11   1-0.30978-0.34414-0.34071 0.80912 0.88766-0.47631
  -6  10   9 1157.03  299.27   1-0.34219-0.30499-0.31811 0.80178 0.88414-0.51392
  -6  10   8  310.12  176.78   1-0.37613-0.26430-0.29346 0.79239 0.87886-0.54978
  -6  10   7  872.07  215.02   1-0.41133-0.22236-0.26680 0.78099 0.87155-0.58361
  -6  10   6  307.06  208.84   1-0.44725-0.17988-0.23811 0.76740 0.86212-0.61540
   6 -10  -5 2380.12  352.74   1 0.49076 0.12979 0.21199-0.75778-0.84510 0.63946
  -6  10   5 2658.53  320.54   1-0.48387-0.13654-0.20772 0.75228 0.85012-0.64452
   6 -10  -4 4350.36  701.53   1 0.52723 0.08672 0.17985-0.74093-0.83046 0.66595
  -6  10   4 5132.45  411.50   1-0.52059-0.09310-0.17569 0.73554 0.83553-0.67105
   6 -10  -3  721.53  203.56   1 0.56334 0.04401 0.14630-0.72267-0.81316 0.68977
  -6  10   3  769.80  210.78   1-0.55698-0.04999-0.14225 0.71737 0.81825-0.69489
   6 -10  -2   68.68   86.30   1 0.59920 0.00146 0.11245-0.70362-0.79265 0.71056
  -6  10   2  164.01  169.95   1-0.59195-0.00905-0.10697 0.69744 0.79884-0.71658
   6 -10  -1  258.27  102.00   1 0.63328-0.03922 0.07695-0.68334-0.77008 0.72904
  -6  10   1  303.96  148.25   1-0.62642 0.03202-0.07155 0.67724 0.77619-0.73506
   6 -10   0   36.25   81.14   1 0.66583-0.07838 0.04084-0.66246-0.74498 0.74498
   6 -10   1  216.46   80.06   1 0.69651-0.11571 0.00440-0.64121-0.71753 0.75858
   6 -10   2  394.90  181.16   1 0.72513-0.15095-0.03205-0.61997-0.68785 0.76996
   6 -10   3  707.44  230.75   1 0.75147-0.18391-0.06829-0.59895-0.65621 0.77937
   6 -10   4 4334.46  872.92   1 0.77445-0.21410-0.10509-0.57729-0.62383 0.78796
   6 -10   5  832.28  262.11   1 0.79590-0.24211-0.14020-0.55743-0.58896 0.79412
  -6   9  12  120.20  158.54   1-0.19507-0.46814-0.41454 0.79020 0.88887-0.39549
  -6   9  11  160.67  151.26   1-0.22374-0.43273-0.39714 0.78808 0.89006-0.43779
  -6   9  10 1507.57  293.20   1-0.25472-0.39500-0.37765 0.78387 0.89021-0.47906
  -6   9   9  208.95  140.28   1-0.28785-0.35513-0.35600 0.77750 0.88904-0.51901
  -6   9   8  795.91  209.32   1-0.32265-0.31384-0.33184 0.76866 0.88643-0.55735
  -6   9   7 2573.59  335.07   1-0.35935-0.27040-0.30577 0.75786 0.88168-0.59373
  -6   9   6  343.58  227.69   1-0.39735-0.22565-0.27753 0.74487 0.87469-0.62788
  -6   9   5  156.82  138.51   1-0.43625-0.18001-0.24721 0.72981 0.86519-0.65952
   6  -9  -4  280.22  154.23   1 0.48191 0.12799 0.21954-0.71840-0.84826 0.68375
  -6   9   4   23.95  115.00   1-0.47546-0.13428-0.21483 0.71258 0.85309-0.68861
   6  -9  -3  210.94  126.65   1 0.52101 0.08230 0.18545-0.69960-0.83315 0.70977
  -6   9   3  226.55  159.68   1-0.51479-0.08823-0.18086 0.69388 0.83801-0.71465
   6  -9  -2 4856.46  825.44   1 0.55955 0.03716 0.14991-0.67935-0.81512 0.73286
  -6   9   2 5216.52  423.61   1-0.55360-0.04269-0.14543 0.67373 0.81998-0.73774
   6  -9  -1 1720.76  394.50   1 0.59752-0.00752 0.11415-0.65838-0.79368 0.75264
  -6   9   1 1334.07  295.78   1-0.59076 0.00043-0.10815 0.65175 0.79955-0.75842
   6  -9   0 1398.48  180.92   1 0.63350-0.05012 0.07671-0.63616-0.76992 0.76992
  -6   9   0 1143.50  223.47   1-0.62712 0.04340-0.07080 0.62961 0.77569-0.77569
   6  -9   1 2933.03  528.42   1 0.66765-0.09088 0.03875-0.61342-0.74345 0.78450
   6  -9   2  193.68  128.04   1 0.69962-0.12950 0.00057-0.59044-0.71451 0.79662
   6  -9   3  206.47   96.83   1 0.72920-0.16569-0.03746-0.56763-0.68327 0.80643
   6  -9   4  394.50  158.39   1 0.75618-0.19929-0.07509-0.54522-0.65003 0.81425
   6  -9   5  165.49  134.07   1 0.77956-0.22980-0.11315-0.52235-0.61601 0.82117
   6  -9   6 1503.40  302.65   1 0.80109-0.25791-0.14926-0.50150-0.57962 0.82581
   6  -9   7 1548.58  275.84   1 0.81986-0.28324-0.18432-0.48168-0.54207 0.82930
  -6   8  13 1875.59  303.04   1-0.11498-0.55099-0.46039 0.75934 0.88023-0.34610
  -6   8  12  107.85  146.46   1-0.14061-0.51861-0.44632 0.76051 0.88375-0.39071
  -6   8  11  194.68  146.35   1-0.16808-0.48448-0.43038 0.75921 0.88685-0.43459
  -6   8  10  683.29  209.74   1-0.19904-0.44677-0.41217 0.75627 0.88909-0.47794
  -6   8   9  -39.62  120.38   1-0.23252-0.40654-0.39169 0.75107 0.89022-0.52019
  -6   8   8 2520.02  318.75   1-0.26835-0.36397-0.36885 0.74351 0.88990-0.56098
  -6   8   7 2049.13  269.02   1-0.30602-0.31979-0.34328 0.73327 0.88797-0.60003
  -6   8   6 1193.69  310.77   1-0.34567-0.27339-0.31562 0.72086 0.88367-0.63686
  -6   8   5 6503.37  429.33   1-0.38668-0.22564-0.28559 0.70609 0.87687-0.67119
  -6   8   4   37.53  122.75   1-0.42856-0.17701-0.25332 0.68908 0.86726-0.70273
   6  -8  -3   52.83  106.49   1 0.47664 0.12263 0.22400-0.67592-0.85007 0.72669
  -6   8   3   57.36  122.12   1-0.47067-0.12840-0.21884 0.66977 0.85473-0.73137
   6  -8  -2  529.95  112.09   1 0.51843 0.07424 0.18776-0.65498-0.83424 0.75198
  -6   8   2  436.44  146.80   1-0.51268-0.07966-0.18272 0.64893 0.83890-0.75666
   6  -8  -1  939.86  141.80   1 0.55942 0.02666 0.15003-0.63254-0.81519 0.77406
  -6   8   1  746.27  233.65   1-0.55393-0.03169-0.14512 0.62660 0.81981-0.77869
   6  -8   0 3692.17  458.83   1 0.59943-0.02011 0.11222-0.60951-0.79251 0.79251
  -6   8   0 3242.70  342.33   1-0.59323 0.01356-0.10569 0.60242 0.79806-0.79806
   6  -8   1 3032.79  402.32   1 0.63721-0.06450 0.07271-0.58523-0.76725 0.80829
   6  -8   2  168.23  100.42   1 0.67277-0.10667 0.03283-0.56056-0.73911 0.82120
   6  -8   3  778.60  191.02   1 0.70578-0.14634-0.00711-0.53582-0.70838 0.83155
   6  -8   4  -21.29  108.15   1 0.73603-0.18320-0.04669-0.51145-0.67533 0.83955
   6  -8   5  -37.17  106.58   1 0.76334-0.21712-0.08565-0.48772-0.64029 0.84556
   6  -8   6 1015.28  225.61   1 0.78679-0.24763-0.12486-0.46375-0.60445 0.85065
   6  -8   7  349.15  204.09   1 0.80807-0.27548-0.16183-0.44204-0.56641 0.85364
   6  -8   8  470.24  251.15   1 0.82636-0.30035-0.19754-0.42158-0.52734 0.85560
   6  -8   9 1985.97  319.64   1 0.84117-0.32212-0.23289-0.40173-0.48804 0.85723
  -6   7  14  208.61  164.14   1-0.03945-0.62936-0.49925 0.72083 0.86555-0.29034
  -6   7  13 2254.54  322.29   1-0.06130-0.60077-0.48841 0.72522 0.87045-0.33632
  -6   7  12   82.47  149.23   1-0.08601-0.56931-0.47575 0.72781 0.87535-0.38231
  -6   7  11 1007.57  249.74   1-0.11363-0.53493-0.46112 0.72842 0.88002-0.42807
  -6   7  10  -42.22  120.59   1-0.14419-0.49763-0.44433 0.72686 0.88418-0.47331
  -6   7   9   73.94  135.22   1-0.17687-0.45828-0.42528 0.72255 0.88760-0.51757
  -6   7   8  657.46  238.86   1-0.21309-0.41532-0.40368 0.71623 0.88973-0.56081
  -6   7   7  853.53  203.75   1-0.25186-0.36980-0.37948 0.70731 0.89025-0.60245
  -6   7   6  590.16  206.90   1-0.29289-0.32202-0.35263 0.69574 0.88874-0.64205
  -6   7   5  398.54  185.43   1-0.33552-0.27286-0.32283 0.68123 0.88498-0.67931
  -6   7   4  169.04  117.95   1-0.37976-0.22187-0.29077 0.66442 0.87819-0.71365
  -6   7   3 3913.83  496.59   1-0.42481-0.17008-0.25628 0.64520 0.86824-0.74484
   6  -7  -2  -18.17  118.10   1 0.47538 0.11325 0.22506-0.63005-0.85050 0.76824
  -6   7   2  146.64  151.49   1-0.46994-0.11846-0.21945 0.62356 0.85498-0.77274
   6  -7  -1  -46.55  116.87   1 0.51992 0.06211 0.18643-0.60671-0.83361 0.79248
  -6   7   1   -5.33  115.48   1-0.51469-0.06698-0.18094 0.60033 0.83805-0.79693
   6  -7   0 -100.69  119.36   1 0.56332 0.01211 0.14631-0.58189-0.81317 0.81317
  -6   7   0  101.89  123.59   1-0.55834-0.01661-0.14096 0.57562 0.81754-0.81754
   6  -7   1  118.45   62.21   1 0.60526-0.03662 0.10629-0.55665-0.78889 0.82993
  -6   7  -1  -57.22  121.20   1-0.59966 0.03067-0.09923 0.54908 0.79407-0.83520
   6  -7   2  610.47  155.28   1 0.64463-0.08260 0.06462-0.53019-0.76175 0.84384
   6  -7   3 4092.20  644.40   1 0.68134-0.12596 0.02270-0.50348-0.73161 0.85477
   6  -7   4  192.65  124.65   1 0.71508-0.16632-0.01894-0.47705-0.69877 0.86299
   6  -7   5  382.91  127.01   1 0.74564-0.20349-0.06001-0.45120-0.66363 0.86890
   6  -7   6 2063.09  331.44   1 0.77207-0.23695-0.10139-0.42509-0.62738 0.87358
   6  -7   7   99.67  131.56   1 0.79601-0.26745-0.14038-0.40135-0.58877 0.87600
   6  -7   8 1859.97  293.14   1 0.81665-0.29466-0.17803-0.37896-0.54898 0.87724
   6  -7   9 2419.50  368.65   1 0.83351-0.31844-0.21523-0.35726-0.50885 0.87803
   6  -7  10  245.35  239.77   1 0.84793-0.33957-0.24980-0.33798-0.46755 0.87775
   6  -7  11  196.48  151.78   1 0.85945-0.35778-0.28273-0.32033-0.42591 0.87714
  -6   6  15 1171.30  277.82   1 0.02905-0.70032-0.53138 0.67566 0.84663-0.23025
  -6   6  14  653.48  180.95   1 0.01145-0.67599-0.52348 0.68299 0.85195-0.27667
  -6   6  13   89.87  142.44   1-0.00914-0.64901-0.51376 0.68844 0.85788-0.32375
  -6   6  12  216.55  192.33   1-0.03263-0.61878-0.50257 0.69249 0.86391-0.37087
  -6   6  11   73.70  145.43   1-0.05923-0.58543-0.48945 0.69461 0.87001-0.41806
  -6   6  10  182.01  218.08   1-0.08902-0.54889-0.47418 0.69458 0.87591-0.46504
  -6   6   9    9.71  144.22   1-0.12203-0.50913-0.45657 0.69221 0.88127-0.51149
  -6   6   8 2919.59  273.83   1-0.15754-0.46695-0.43643 0.68687 0.88583-0.55691
  -6   6   7 2404.67  352.10   1-0.19677-0.42097-0.41352 0.67924 0.88897-0.60116
  -6   6   6  294.27  129.70   1-0.23880-0.37220-0.38776 0.66876 0.89028-0.64359
  -6   6   5   56.71  125.14   1-0.28324-0.32101-0.35906 0.65534 0.88929-0.68371
  -6   6   4 2694.11  290.86   1-0.32940-0.26829-0.32713 0.63869 0.88570-0.72116
  -6   6   3 5542.09  389.28   1-0.37713-0.21382-0.29272 0.61954 0.87868-0.75527
  -6   6   2 4216.29  364.60   1-0.42553-0.15867-0.25571 0.59779 0.86805-0.78578
   6  -6  -1 5623.93  680.47   1 0.47864 0.09935 0.22231-0.58037-0.84939 0.80826
  -6   6   1 6555.45  416.11   1-0.47378-0.10395-0.21624 0.57353 0.85367-0.81255
   6  -6   0 1267.20  260.61   1 0.52595 0.04545 0.18101-0.55436-0.83102 0.83102
  -6   6   0 1452.98  253.78   1-0.52128-0.04973-0.17507 0.54764 0.83523-0.83523
   6  -6   1  959.89  202.77   1 0.57189-0.00731 0.13945-0.52764-0.80838 0.84943
  -6   6  -1 1159.78  220.47   1-0.56665 0.00172-0.13170 0.51946 0.81335-0.85448
   6  -6   2  440.94  146.18   1 0.61532-0.05735 0.09593-0.49934-0.78241 0.86450
  -6   6  -2  340.36  159.50   1-0.61037 0.05205-0.08831 0.49129 0.78717-0.86943
   6  -6   3 2398.02  370.53   1 0.65600-0.10464 0.05200-0.47063-0.75296 0.87610
   6  -6   4 2628.87  500.38   1 0.69350-0.14879 0.00808-0.44192-0.72040 0.88462
   6  -6   5 6932.40 1287.41   1 0.72754-0.18945-0.03524-0.41381-0.68515 0.89043
   6  -6   6 1601.95  277.94   1 0.75794-0.22647-0.07766-0.38661-0.64767 0.89400
   6  -6   7 1010.53  234.97   1 0.78389-0.25937-0.12013-0.35947-0.60915 0.89638
   6  -6   8   57.01  126.84   1 0.80698-0.28903-0.15984-0.33501-0.56852 0.89678
   6  -6   9  136.48  149.70   1 0.82654-0.31516-0.19791-0.31220-0.52692 0.89621
   6  -6  10  790.60  199.85   1 0.84218-0.33780-0.23534-0.29030-0.48512 0.89532
   6  -6  11 1432.96  244.19   1 0.85521-0.35753-0.26985-0.27107-0.44246 0.89369
   6  -6  12 1802.79  346.26   1 0.86527-0.37428-0.30255-0.25365-0.39969 0.89194
   6  -6  13  372.20  174.54   1 0.87245-0.38720-0.33416-0.23841-0.35658 0.89063
  -6   5  15  351.01  175.09   1 0.07600-0.74338-0.55143 0.63357 0.83075-0.21437
  -6   5  14  360.76  197.78   1 0.06006-0.72071-0.54479 0.64217 0.83641-0.26113
  -6   5  13   31.17  129.66   1 0.04119-0.69509-0.53671 0.64932 0.84276-0.30856
  -6   5  12   61.09  128.17   1 0.01920-0.66637-0.52699 0.65484 0.84965-0.35655
  -6   5  11  229.06  249.00   1-0.00619-0.63456-0.51514 0.65817 0.85708-0.40512
  -6   5  10 3319.85  335.42   1-0.03486-0.59914-0.50148 0.65975 0.86446-0.45359
  -6   5   9  908.44  204.88   1-0.06706-0.56020-0.48549 0.65900 0.87166-0.50188
  -6   5   8 6059.89  676.22   1-0.10280-0.51770-0.46692 0.65567 0.87829-0.54960
  -6   5   7  266.16  204.60   1-0.14203-0.47172-0.44553 0.64952 0.88392-0.59631
  -6   5   6 1562.94  221.51   1-0.18404-0.42304-0.42108 0.63996 0.88815-0.64146
  -6   5   5  672.60  198.19   1-0.22968-0.37065-0.39346 0.62763 0.89018-0.68461
  -6   5   4 3507.21  382.10   1-0.27791-0.31568-0.36259 0.61203 0.88954-0.72508
  -6   5   3 2503.42  306.04   1-0.32792-0.25908-0.32816 0.59288 0.88587-0.76246
  -6   5   2  685.59  175.53   1-0.37941-0.20085-0.29103 0.57100 0.87826-0.79599
  -6   5   111243.24  801.95   1-0.43134-0.14218-0.25112 0.54635 0.86653-0.82539
   6  -5   039078.23 2805.07   1 0.48700 0.08035 0.21521-0.52634-0.84646 0.84646
  -6   5   046139.95 4165.41   1-0.48276-0.08429-0.20866 0.51913 0.85052-0.85052
   6  -5   1  158.31   91.40   1 0.53699 0.02376 0.17096-0.49738-0.82607 0.86720
  -6   5  -1  209.56  107.54   1-0.53293-0.02741-0.16455 0.49030 0.83000-0.87112
   6  -5   2 1265.82  275.21   1 0.58494-0.03103 0.12670-0.46795-0.80111 0.88320
  -6   5  -2 1321.20  239.03   1-0.58043 0.02617-0.11836 0.45925 0.80565-0.88791
   6  -5   3  629.98  182.00   1 0.62988-0.08259 0.08059-0.43706-0.77249 0.89562
  -6   5  -3  878.52  215.92   1-0.62560 0.07796-0.07241 0.42852 0.77677-0.90016
   6  -5   4 3243.02  629.78   1 0.67144-0.13076 0.03437-0.40607-0.74025 0.90443
   6  -5   5  599.62  139.08   1 0.70924-0.17521-0.01147-0.37542-0.70486 0.91014
   6  -5   6  271.78   89.24   1 0.74302-0.21561-0.05634-0.34577-0.66688 0.91320
   6  -5   7 2333.28  401.65   1 0.77198-0.25149-0.10125-0.31621-0.62751 0.91474
   6  -5   8  985.86  190.23   1 0.79763-0.28370-0.14319-0.28953-0.58589 0.91415
   6  -5   9   24.45  130.63   1 0.81935-0.31199-0.18332-0.26465-0.54318 0.91247
   6  -5  10  262.14  233.11   1 0.83680-0.33640-0.22265-0.24086-0.50018 0.91039
   6  -5  11  -77.52  134.48   1 0.85131-0.35761-0.25882-0.21997-0.45636 0.90759
   6  -5  12  249.18  156.36   1 0.86257-0.37557-0.29298-0.20109-0.41246 0.90471
   6  -5  13 1897.07  350.85   1 0.87072-0.38947-0.32585-0.18452-0.36831 0.90236
   6  -5  14  910.26  268.53   1 0.87618-0.40150-0.35604-0.16967-0.32487 0.90000
  -6   4  14  859.82  221.08   1 0.10611-0.76286-0.56350 0.59875 0.81926-0.24398
  -6   4  13  223.32  186.42   1 0.08903-0.73904-0.55673 0.60721 0.82590-0.29171
  -6   4  12  153.39  146.28   1 0.06878-0.71206-0.54844 0.61416 0.83335-0.34025
  -6   4  11  562.45  235.29   1 0.04515-0.68168-0.53842 0.61937 0.84146-0.38945
  -6   4  10  533.67  186.57   1 0.01792-0.64771-0.52641 0.62259 0.85003-0.43912
  -6   4   9  865.85  236.86   1-0.01320-0.61014-0.51185 0.62322 0.85897-0.48919
  -6   4   8 1305.01  220.28   1-0.04808-0.56851-0.49500 0.62162 0.86755-0.53886
  -6   4   7 3518.25  321.19   1-0.08690-0.52295-0.47529 0.61715 0.87552-0.58791
  -6   4   6 3460.10  365.78   1-0.12959-0.47351-0.45243 0.60953 0.88233-0.63580
  -6   4   5 1157.73  230.28   1-0.17547-0.42095-0.42609 0.59815 0.88749-0.68191
  -6   4   3  107.12  130.82   1-0.27760-0.30533-0.36279 0.56540 0.88955-0.76621
  -6   4   2 4271.32  365.98   1-0.33185-0.24448-0.32541 0.54329 0.88542-0.80315
  -6   4   1  613.82  196.59   1-0.38736-0.18222-0.28509 0.51822 0.87674-0.83560
  -6   4   0  438.32  171.69   1-0.44291-0.12020-0.24162 0.49000 0.86339-0.86339
   6  -4   1 5718.51  919.87   1 0.50108 0.05564 0.20307-0.46726-0.84123 0.88236
  -6   4  -1 5338.57  428.07   1-0.49751-0.05887-0.19601 0.45966 0.84501-0.88613
   6  -4   2  972.92  169.06   1 0.55357-0.00344 0.15556-0.43505-0.81814 0.90039
  -6   4  -2  539.19  153.82   1-0.55014 0.00047-0.14867 0.42760 0.82172-0.90396
   6  -4   3  -23.31  107.93   1 0.60316-0.05993 0.10844-0.40275-0.79021 0.91334
  -6   4  -3  -67.62  124.14   1-0.59941 0.05582-0.09948 0.39350 0.79423-0.91762
   6  -4   4  107.89   81.77   1 0.64912-0.11251 0.05966-0.36920-0.75833 0.92251
   6  -4   5 1927.13  414.48   1 0.69100-0.16103 0.01112-0.33587-0.72276 0.92804
   6  -4   6 1479.17  254.89   1 0.72842-0.20507-0.03641-0.30354-0.68416 0.93048
   6  -4   716818.03 1120.63   1 0.76127-0.24454-0.08257-0.27260-0.64314 0.93052
   6  -4   8 2062.85  324.51   1 0.78889-0.27899-0.12834-0.24224-0.60097 0.92923
   6  -4   9  261.49  147.72   1 0.81281-0.30949-0.17068-0.21516-0.55694 0.92623
   6  -4  10  798.76  232.13   1 0.83206-0.33565-0.21203-0.18934-0.51255 0.92276
   6  -4  11 3852.34  363.87   1 0.84798-0.35827-0.24993-0.16672-0.46738 0.91860
   6  -4  12  359.28  211.11   1 0.86034-0.37732-0.28558-0.14636-0.42219 0.91444
   6  -4  13  171.07  157.62   1 0.86934-0.39209-0.31971-0.12846-0.37685 0.91090
   6  -4  14  262.30  145.69   1 0.87542-0.40475-0.35096-0.11254-0.33234 0.90747
   6  -4  15 -104.71  133.43   1 0.87881-0.41471-0.38016-0.09868-0.28837 0.90458
  -6   3  15  181.88  149.40   1 0.16162-0.82091-0.58433 0.54229 0.79525-0.17893
  -6   3  14   94.95  139.21   1 0.14938-0.80194-0.57997 0.55316 0.80082-0.22559
  -6   3  13  969.11  248.81   1 0.13412-0.78024-0.57417 0.56252 0.80767-0.27348
  -6   3  12 6121.82  434.14   1 0.11579-0.75517-0.56725 0.57083 0.81536-0.32226
  -6   3  11  664.34  224.41   1 0.09403-0.72667-0.55873 0.57755 0.82399-0.37199
  -6   3  10  784.38  184.48   1 0.06856-0.69446-0.54835 0.58240 0.83343-0.42251
  -6   3   9 7213.45  783.96   1 0.03913-0.65829-0.53581 0.58510 0.84342-0.47360
  -6   3   8   25.34  146.50   1 0.00552-0.61794-0.52077 0.58530 0.85367-0.52494
  -6   3   717064.24  544.25   1-0.03255-0.57339-0.50260 0.58233 0.86390-0.57629
  -6   3   6 1836.91  255.04   1-0.07488-0.52431-0.48150 0.57647 0.87323-0.62671
  -6   3   517651.35 1024.35   1-0.12151-0.47093-0.45685 0.56706 0.88120-0.67576
  -6   3   4 2057.57  241.72   1-0.17181-0.41395-0.42823 0.55344 0.88718-0.72272
  -6   3   3 6092.40  474.47   1-0.22609-0.35292-0.39569 0.53619 0.89011-0.76677
  -6   3   2 7192.64  433.67   1-0.28321-0.28906-0.35908 0.51486 0.88929-0.80706
  -6   3   1  209.33  132.04   1-0.34209-0.22355-0.31818 0.48921 0.88415-0.84302
  -6   3   0  554.21  192.70   1-0.40186-0.15704-0.27409 0.46039 0.87371-0.87371
  -6   3  -1 2695.25  268.10   1-0.46111-0.09132-0.22678 0.42834 0.85787-0.89898
   6  -3   2  501.42   91.36   1 0.52152 0.02456 0.18499-0.40226-0.83293 0.91519
  -6   3  -2  776.80  187.64   1-0.51866-0.02705-0.17741 0.39424 0.83636-0.91860
   6  -3   3  116.23   73.90   1 0.57603-0.03687 0.13543-0.36758-0.80612 0.92925
  -6   3  -3  559.42  175.28   1-0.57295 0.03343-0.12564 0.35756 0.80989-0.93328
   6  -3   417974.13 1888.72   1 0.62680-0.09425 0.08386-0.33124-0.77464 0.93882
  -6   3  -418547.61 1055.17   1-0.62381 0.09090-0.07430 0.32145 0.77803-0.94255
   6  -3   513875.12 1348.89   1 0.67308-0.14714 0.03247-0.29506-0.73885 0.94407
   6  -3   625954.61 1448.84   1 0.71445-0.19517-0.01813-0.25966-0.69944 0.94576
   6  -3   7 2105.65  290.85   1 0.75067-0.23800-0.06714-0.22588-0.65725 0.94463
   6  -3   8 1023.27  180.98   1 0.78111-0.27525-0.11564-0.19281-0.61357 0.94183
   6  -3   9 1231.70  222.85   1 0.80727-0.30797-0.16036-0.16334-0.56797 0.93726
   6  -3  10 2527.46  373.81   1 0.82878-0.33605-0.20262-0.13634-0.52159 0.93192
   6  -3  11  621.49  183.72   1 0.84550-0.35977-0.24355-0.11097-0.47518 0.92641
   6  -3  12  755.51  197.74   1 0.85881-0.37978-0.28071-0.08910-0.42852 0.92077
   6  -3  13  227.38  233.67   1 0.86848-0.39524-0.31609-0.06988-0.38186 0.91591
   6  -3  14   38.33  125.02   1 0.87501-0.40834-0.34835-0.05295-0.33615 0.91129
   6  -3  15  225.99  200.61   1 0.87867-0.41857-0.37836-0.03828-0.29116 0.90737
   6  -3  16   40.55  147.01   1 0.87975-0.42623-0.40625-0.02573-0.24695 0.90424
  -6   2  15   19.11  140.86   1 0.19966-0.85508-0.59721 0.49300 0.77683-0.16051
  -6   2  14  -23.31  136.28   1 0.18938-0.83807-0.59383 0.50486 0.78198-0.20675
  -6   2  13  138.36  184.69   1 0.17623-0.81819-0.58940 0.51566 0.78837-0.25423
  -6   2  12 1052.28  239.55   1 0.15995-0.79518-0.58374 0.52524 0.79602-0.30296
  -6   2  11 1007.34  231.20   1 0.14013-0.76887-0.57639 0.53307 0.80506-0.35305
  -6   2  10 2225.89  319.09   1 0.11666-0.73867-0.56758 0.53950 0.81500-0.40408
  -6   2   9 1873.73  321.71   1 0.08912-0.70439-0.55676 0.54392 0.82587-0.45604
  -6   2   820784.91  639.93   1 0.05717-0.66571-0.54357 0.54596 0.83741-0.50867
  -6   2   7 8961.20  672.87   1 0.02056-0.62236-0.52760 0.54522 0.84924-0.56160
  -6   2   6  500.03  159.74   1-0.02105-0.57423-0.50813 0.54096 0.86102-0.61449
  -6   2   5 1688.48  239.39   1-0.06743-0.52110-0.48530 0.53337 0.87173-0.66630
  -6   2   4  775.00  191.64   1-0.11863-0.46316-0.45842 0.52173 0.88077-0.71643
  -6   2   3 1683.49  285.04   1-0.17400-0.40110-0.42695 0.50534 0.88737-0.76402
  -6   2   216935.94  524.09   1-0.23349-0.33486-0.39108 0.48475 0.89024-0.80801
   6  -2  -214197.40  370.07   1 0.21578 0.35228-0.87636 0.78291 0.43061-0.51277
  -6   2   115140.31  508.16   1-0.29585-0.26576-0.35064 0.45959 0.88854-0.84743
   6  -2  -113619.06  331.14   1 0.13715 0.42442-0.93119 0.82240 0.33773-0.37882
  -6   2   0 2412.92  225.53   1-0.35974-0.19521-0.30549 0.42968 0.88162-0.88162
  -6   2  -1 1879.12  182.42   1-0.42392-0.12429-0.25698 0.39643 0.86847-0.90960
   6  -2   2 3572.98  514.61   1 0.48888 0.05316 0.21360-0.36864-0.84579 0.92804
  -6   2  -2 3089.59  269.79   1-0.48674-0.05503-0.20527 0.36001 0.84908-0.93132
   6  -2   3   96.28   59.46   1 0.54895-0.01350 0.15989-0.33022-0.82041 0.94380
  -6   2  -3  107.85  110.47   1-0.54681 0.01176-0.15177 0.32178 0.82337-0.94673
   6  -2   4  135.69   57.71   1 0.60479-0.07630 0.10678-0.29199-0.78919 0.95337
  -6   2  -4  336.52  174.05   1-0.60255 0.07370-0.09630 0.28136 0.79224-0.95676
   6  -2   5  296.51   90.14   1 0.65591-0.13403 0.05209-0.25253-0.75303 0.95825
   6  -2   6 3379.13  491.48   1 0.70155-0.18632-0.00182-0.21381-0.71261 0.95893
   6  -2   711726.93 1604.07   1 0.74134-0.23273-0.05401-0.17685-0.66894 0.95632
   6  -2   8  694.78  165.96   1 0.77472-0.27289-0.10551-0.14080-0.62342 0.95168
   6  -2   9  330.82  105.26   1 0.80309-0.30783-0.15282-0.10875-0.57591 0.94520
   6  -2  10 1439.81  218.30   1 0.82625-0.33755-0.19730-0.07952-0.52761 0.93794
   6  -2  11  622.57  185.20   1 0.84413-0.36239-0.24014-0.05225-0.47933 0.93055
   6  -2  12 1117.48  239.60   1 0.85820-0.38315-0.27881-0.02886-0.43098 0.92323
   6  -2  13 1635.34  281.59   1 0.86831-0.39908-0.31539-0.00838-0.38282 0.91687
   6  -2  14    0.32  116.81   1 0.87504-0.41238-0.34858 0.00947-0.33582 0.91096
   6  -2  15   -3.36  134.76   1 0.87874-0.42265-0.37928 0.02483-0.28973 0.90594
   6  -2  16   98.02  161.59   1 0.87947-0.43005-0.40795 0.03868-0.24514 0.90197
   6  -2  17   84.55  152.23   1 0.87810-0.43525-0.43416 0.04959-0.20105 0.89893
  -6   1  15  -56.48  141.43   1 0.23428-0.88583-0.60802 0.44165 0.75856-0.14224
  -6   1  14   88.14  148.12   1 0.22595-0.87078-0.60550 0.45436 0.76309-0.18786
  -6   1  13  176.26  181.07   1 0.21486-0.85295-0.60206 0.46616 0.76899-0.23484
  -6   1  12  114.20  120.77   1 0.20071-0.83207-0.59755 0.47688 0.77630-0.28324
  -6   1  11 1099.28  200.21   1 0.18317-0.80780-0.59175 0.48632 0.78502-0.33306
  -6   1  10   92.93  144.00   1 0.16189-0.77979-0.58443 0.49423 0.79513-0.38425
  -6   1   9   17.25  132.87   1 0.13635-0.74773-0.57500 0.50002 0.80670-0.43688
  -6   1   8 1477.69  226.12   1 0.10641-0.71105-0.56362 0.50387 0.81914-0.49041
  -6   1   7  334.41  184.05   1 0.07155-0.66945-0.54959 0.50508 0.83236-0.54471
  -6   1   6 2444.25  286.18   1 0.03143-0.62259-0.53243 0.50316 0.84588-0.59933
  -6   1   5 2266.67  262.22   1-0.01434-0.57029-0.51131 0.49725 0.85927-0.65383
  -6   1   4 1256.88  234.83   1-0.06549-0.51238-0.48629 0.48746 0.87133-0.70699
  -6   1   3  315.93  177.05   1-0.12203-0.44910-0.45657 0.47299 0.88127-0.75801
   6  -1  -3  261.10   60.70   1 0.42244 0.14835-0.62460 0.60802 0.65681-0.77993
  -6   1   2  116.29  117.07   1-0.18327-0.38116-0.42153 0.45308 0.88809-0.80586
   6  -1  -2   63.94   26.73   1 0.32731 0.23650-0.76238 0.73073 0.55823-0.64038
  -6   1   114856.85  800.33   1-0.24873-0.30896-0.38148 0.42831 0.89028-0.84916
   6  -1  -112850.54  671.10   1 0.24501 0.31229-0.85106 0.80433 0.46439-0.50547
  -6   1   0 1765.37  216.03   1-0.31685-0.23416-0.33585 0.39795 0.88701-0.88701
   6  -1   0 1492.18  319.43   1 0.17700 0.37386-0.90564 0.84365 0.38532-0.38532
  -6   1  -1 7795.64  487.67   1-0.38612-0.15815-0.28602 0.36337 0.87698-0.91811
  -6   1  -2 3181.44  289.43   1-0.45464-0.08317-0.23209 0.32474 0.85989-0.94213
   6  -1   3 2731.37  490.20   1 0.52193 0.00946 0.18462-0.29273-0.83276 0.95614
  -6   1  -3 2946.28  274.88   1-0.52060-0.01049-0.17568 0.28360 0.83552-0.95888
   6  -1   4  634.10  110.41   1 0.58348-0.05905 0.12814-0.25119-0.80195 0.96613
  -6   1  -4  558.31  127.43   1-0.58217 0.05739-0.11665 0.23961 0.80465-0.96916
   6  -1   5 5303.99  522.62   1 0.63994-0.12213 0.06974-0.20801-0.76524 0.97047
   6  -1   651793.50 1172.40   1 0.69023-0.17907 0.01205-0.16553-0.72348 0.96980
   6  -1   7 6088.16  882.49   1 0.73383-0.22928-0.04370-0.12499-0.67791 0.96529
   6  -1   8 1611.87  289.32   1 0.77023-0.27242-0.09854-0.08563-0.63009 0.95835
   6  -1   9 1360.35  209.58   1 0.80075-0.30952-0.14866-0.05077-0.58024 0.94953
   6  -1  10 1531.59  244.71   1 0.82538-0.34071-0.19549-0.01919-0.52964 0.93997
   6  -1  11 1940.29  247.33   1 0.84419-0.36643-0.24028 0.01001-0.47916 0.93038
   6  -1  12  134.60  106.42   1 0.85872-0.38766-0.28043 0.03488-0.42889 0.92114
   6  -1  13   49.29   99.44   1 0.86896-0.40373-0.31811 0.05654-0.37907 0.91312
   6  -1  14 3717.78  350.94   1 0.87560-0.41694-0.35209 0.07518-0.33068 0.90581
   6  -1  15  478.21  293.88   1 0.87903-0.42695-0.38333 0.09108-0.28346 0.89967
   6  -1  16   99.39  147.94   1 0.87941-0.43396-0.41234 0.10530-0.23792 0.89475
   6  -1  17 2097.27  318.84   1 0.87762-0.43874-0.43870 0.11637-0.19316 0.89104
   6  -1  18   78.09  157.34   1 0.87366-0.44135-0.46295 0.12531-0.14960 0.88854
  -6   0  15  462.17  275.08   1 0.26533-0.91302-0.61695 0.38841 0.74091-0.12460
  -6   0  14  -22.73  137.75   1 0.25893-0.89988-0.61517 0.40187 0.74465-0.16942
  -6   0  13  706.28  255.81   1 0.24987-0.88409-0.61259 0.41453 0.74985-0.21571
  -6   0  12  232.37  158.16   1 0.23786-0.86536-0.60909 0.42625 0.75658-0.26353
  -6   0  11 3649.10  370.09   1 0.22257-0.84333-0.60446 0.43686 0.76490-0.31294
  -6   0  10 1553.97  241.70   1 0.20359-0.81762-0.59848 0.44612 0.77483-0.36395
  -6   0   9  907.96  238.14   1 0.18049-0.78779-0.59085 0.45372 0.78633-0.41654
  -6   0   8  579.75  197.19   1 0.15280-0.75338-0.58120 0.45931 0.79928-0.47057
  -6   0   7    4.06  111.36   1 0.11991-0.71391-0.56883 0.46218 0.81366-0.52602
  -6   0   6 3135.71  336.13   1 0.08159-0.66886-0.55372 0.46231 0.82869-0.58214
  -6   0   5 4317.90  367.82   1 0.03729-0.61782-0.53501 0.45883 0.84402-0.63856
  -6   0   4  844.02  262.94   1-0.01344-0.56053-0.51174 0.45078 0.85903-0.69468
  -6   0   3 5033.71  305.30   1-0.07029-0.49693-0.48385 0.43813 0.87232-0.74906
   6   0  -3 4839.90  191.51   1 0.49454 0.07212-0.47995 0.52545 0.72461-0.84776
  -6   0   2 3628.48  291.04   1-0.13316-0.42731-0.45046 0.41998 0.88280-0.80063
   6   0  -2 3553.86  224.31   1 0.41659 0.14355-0.63464 0.66491 0.65091-0.73299
  -6   0   1  843.49  147.74   1-0.20127-0.35251-0.41083 0.39555 0.88921-0.84810
   6   0  -1  742.53  143.59   1 0.34128 0.21184-0.74479 0.75995 0.57340-0.61448
  -6   0   0 9363.79  541.78   1-0.27352-0.27352-0.36547 0.36547 0.88972-0.88972
   6   0   0 8584.74  465.44   1 0.27327 0.27327-0.82383 0.82383 0.49660-0.49660
  -6   0  -1 2478.16  210.91   1-0.34806-0.19227-0.31392 0.32917 0.88334-0.92448
   6   0   1 2585.89  428.32   1 0.21430 0.32559-0.87757 0.86232 0.42887-0.38779
  -6   0  -2  577.52  134.22   1-0.42271-0.11088-0.25794 0.28845 0.86878-0.95105
   6   0   2  336.52   78.33   1 0.16474 0.36874-0.91399 0.88359 0.37076-0.28857
   6   0   3 2177.26  354.61   1 0.49551 0.03185 0.20790-0.25377-0.84335 0.96673
  -6   0  -3 2338.53  189.11   1-0.49517-0.03198-0.19804 0.24386 0.84592-0.96928
   6   0   4  880.55  153.22   1 0.56388-0.04311 0.14578-0.20695-0.81288 0.97739
  -6   0  -4  949.26  145.66   1-0.56333 0.04290-0.13622 0.19732 0.81491-0.97939
   6   0   5  206.10   97.00   1 0.62580-0.11205 0.08493-0.16104-0.77534 0.98056
  -6   0  -5   73.44  124.75   1-0.62535 0.11124-0.07267 0.14876 0.77694-0.98259
   6   0   6  177.71   76.64   1 0.68118-0.17407 0.02290-0.11422-0.73175 0.97808
   6   0   7 8202.95  930.83   1 0.72881-0.22833-0.03694-0.06959-0.68371 0.97109
   6   0   830704.57  887.74   1 0.76826-0.27448-0.09552-0.02651-0.63296 0.96122
   6   0   919401.97 1076.12   1 0.80078-0.31357-0.14870 0.01140-0.58020 0.94949
   6   0  1013300.12  880.74   1 0.82658-0.34594-0.19800 0.04544-0.52682 0.93715
   6   0  1116775.64  523.75   1 0.84596-0.37218-0.24472 0.07659-0.47376 0.92499
   6   0  12 1758.46  219.94   1 0.86055-0.39347-0.28625 0.10283-0.42131 0.91356
   6   0  13  366.97  149.54   1 0.87051-0.40928-0.32487 0.12550-0.36968 0.90373
   6   0  14 -122.27  117.67   1 0.87664-0.42199-0.35943 0.14472-0.31984 0.89497
   6   0  15    4.34  118.70   1 0.87945-0.43137-0.39095 0.16091-0.27149 0.88770
   6   0  16  604.60  177.21   1 0.87913-0.43765-0.42007 0.17526-0.22506 0.88189
   6   0  17 2337.58  334.86   1 0.87663-0.44172-0.44633 0.18622-0.17973 0.87761
   6   0  18  101.83  208.03   1 0.87196-0.44362-0.47034 0.19493-0.13582 0.87475
  -6  -1  14   35.30  139.92   1 0.28817-0.92525-0.62304 0.34758 0.72716-0.15193
  -6  -1  13   42.00  150.12   1 0.28110-0.91145-0.62120 0.36097 0.73149-0.19735
  -6  -1  11 1063.19  239.10   1 0.25814-0.87503-0.61495 0.38519 0.74511-0.29314
  -6  -1  10 1358.37  245.98   1 0.24150-0.85167-0.61016 0.39564 0.75456-0.34368
  -6  -1   9   62.27  135.45   1 0.22083-0.82426-0.60392 0.40463 0.76583-0.39604
  -6  -1   8 1997.89  244.96   1 0.19558-0.79229-0.59588 0.41183 0.77888-0.45018
  -6  -1   7 1884.13  215.90   1 0.16519-0.75517-0.58558 0.41677 0.79359-0.50598
  -6  -1   6  171.97   92.39   1 0.12890-0.71227-0.57222 0.41868 0.80989-0.56335
  -6  -1   5  535.34  139.87   1 0.08640-0.66303-0.55567 0.41736 0.82690-0.62144
  -6  -1   4 2252.27  269.24   1 0.03702-0.60692-0.53489 0.41182 0.84410-0.67974
   6   1  -4 1232.65  166.64   1 0.58698-0.01710-0.17585 0.29866 0.79026-0.95420
  -6  -1   3 4909.74  288.85   1-0.01974-0.54357-0.50875 0.40091 0.86068-0.73742
   6   1  -3 4259.82  180.29   1 0.54006 0.02270-0.35722 0.46472 0.76205-0.88516
  -6  -1   2 3809.99  255.48   1-0.08350-0.47306-0.47706 0.38445 0.87489-0.79271
   6   1  -2 4057.00  197.61   1 0.48165 0.07432-0.50967 0.60203 0.71290-0.79500
  -6  -1   1 3300.06  277.41   1-0.15398-0.39583-0.43880 0.36143 0.88528-0.84420
   6   1  -1 3330.76  231.33   1 0.41900 0.13048-0.63053 0.70767 0.65334-0.69438
  -6  -1   0 7543.58  466.26   1-0.23015-0.31297-0.39317 0.33106 0.89019-0.89019
   6   1   0 7021.06  723.77   1 0.35740 0.18503-0.72340 0.78537 0.59071-0.59071
  -6  -1  -1   78.26   86.69   1-0.31016-0.22623-0.34046 0.29362 0.88762-0.92876
   6   1   1   14.06   27.52   1 0.30041 0.23537-0.79495 0.84167 0.52706-0.48597
  -6  -1  -2 3515.28  285.69   1-0.39139-0.13825-0.28205 0.25046 0.87593-0.95820
   6   1   2 2913.09  454.03   1 0.24937 0.27976-0.84704 0.87851 0.46939-0.38722
  -6  -1  -3  427.12  119.37   1-0.47109-0.05210-0.21849 0.20222 0.85459-0.97795
   6   1   3  569.95  101.21   1 0.20523 0.31755-0.88470 0.90109 0.41854-0.29526
   6   1   4 4678.72  628.15   1 0.54589-0.02916 0.16274-0.16169-0.82189 0.98641
  -6  -1  -4 5227.28  356.71   1-0.54641 0.02993-0.15215 0.15115 0.82357-0.98805
   6   1   4 4443.14  863.97   1 0.16730 0.34881-0.91229 0.91349 0.37380-0.20943
   6   1   512413.15  686.79   1 0.61431-0.10462 0.09698-0.11093-0.78308 0.98830
  -6  -1  -513277.73  721.25   1-0.61508 0.10503-0.08343 0.09744 0.78403-0.98968
   6   1   511181.00  621.33   1 0.13537 0.37407-0.93222 0.91822 0.33559-0.13012
   6   1   6 3833.30  577.54   1 0.67519-0.17211 0.03000-0.05917-0.73702 0.98329
   6   1   7  191.46   53.48   1 0.72716-0.23073-0.03474-0.00964-0.68558 0.97296
   6   1   8   -8.56   95.60   1 0.76958-0.27983-0.09754 0.03763-0.63105 0.95931
   6   1   9  168.73  128.13   1 0.80378-0.32060-0.15404 0.07888-0.57463 0.94392
   6   1  10  503.66  146.27   1 0.82989-0.35340-0.20733 0.11661-0.51796 0.92817
   6   1  1123175.10 1461.09   1 0.84969-0.37990-0.25445 0.14845-0.46180 0.91303
   6   1  12  879.31  199.00   1 0.86377-0.40068-0.29715 0.17586-0.40693 0.89917
   6   1  13 2526.99  348.33   1 0.87289-0.41567-0.33642 0.19925-0.35336 0.88741
   6   1  14  681.87  164.91   1 0.87802-0.42737-0.37123 0.21873-0.30208 0.87721
   6   1  15   95.67  125.46   1 0.87975-0.43567-0.40270 0.23486-0.25270 0.86892
   6   1  17  289.28  199.25   1 0.87478-0.44384-0.45738 0.25951-0.15982 0.85770
   6   1  18   44.97  133.14   1 0.86912-0.44474-0.48084 0.26767-0.11578 0.85472
   6   1  19 1919.82  330.38   1 0.86115-0.44509-0.50334 0.27470-0.07110 0.85230
  -6  -2  14  542.22  216.40   1 0.31447-0.94655-0.63203 0.29402 0.70826-0.13260
  -6  -2  13  545.04  210.82   1 0.30930-0.93473-0.63080 0.30807 0.71163-0.17709
  -6  -2  12  138.79  141.16   1 0.30144-0.92023-0.62888 0.32143 0.71667-0.22325
  -6  -2  11   34.79  130.02   1 0.28968-0.90270-0.62343 0.33151 0.72623-0.27426
  -6  -2  10  250.55  250.31   1 0.27536-0.88166-0.61968 0.34299 0.73496-0.32408
  -6  -2   9   58.08  136.40   1 0.25713-0.85669-0.61466 0.35321 0.74569-0.37590
  -6  -2   8  375.73  185.97   1 0.23441-0.82725-0.60806 0.36184 0.75849-0.42978
  -6  -2   7 1028.67  183.48   1 0.20657-0.79268-0.59944 0.36846 0.77330-0.48568
  -6  -2   6  203.67   88.94   1 0.17288-0.75226-0.58825 0.37250 0.78997-0.54345
  -6  -2   5   58.98  102.04   1 0.13242-0.70516-0.57354 0.37310 0.80840-0.60294
  -6  -2   4  417.72  115.43   1 0.08474-0.65075-0.55500 0.36979 0.82752-0.66315
   6   2  -4  496.09   96.46   1 0.59967-0.03375-0.10036 0.28523 0.79392-0.95786
  -6  -2   3 3620.64  269.92   1 0.02906-0.58833-0.53139 0.36142 0.84662-0.72335
   6   2  -3 2861.70  175.39   1 0.56855-0.00973-0.25584 0.42538 0.78184-0.90495
  -6  -2   2  341.66  114.22   1-0.03518-0.51747-0.50133 0.34658 0.86453-0.78236
   6   2  -2  407.78   91.51   1 0.52647 0.02555-0.39669 0.55107 0.75196-0.83406
  -6  -2   116259.23  832.08   1-0.10748-0.43842-0.46442 0.32492 0.87906-0.83797
   6   2  -115183.51  752.17   1 0.47769 0.06757-0.51841 0.65762 0.70925-0.75030
  -6  -2   0  272.12  147.87   1-0.18735-0.35185-0.41913 0.29490 0.88838-0.88838
   6   2   0  130.08   78.59   1 0.42599 0.11283-0.61841 0.74241 0.66036-0.66036
  -6  -2  -1  423.50  115.54   1-0.27279-0.25967-0.36595 0.25700 0.88975-0.93086
   6   2   1  485.48  106.80   1 0.37458 0.15715-0.69919 0.80798 0.60894-0.56786
  -6  -2  -211590.57  621.47   1-0.36133-0.16437-0.30433 0.21065 0.88137-0.96364
   6   2   210640.39  685.74   1 0.32629 0.19874-0.76364 0.85726 0.55711-0.47496
  -6  -2  -3 4484.10  318.46   1-0.44917-0.07008-0.23655 0.15819 0.86155-0.98491
   6   2   3 4341.10  725.24   1 0.28216 0.23620-0.81467 0.89287 0.50663-0.38338
   6   2   4 3851.04  604.75   1 0.53082-0.01813 0.17660-0.11332-0.82887 0.99339
  -6  -2  -4 3937.73  301.58   1-0.53265 0.02012-0.16480 0.10171 0.83012-0.99460
   6   2   4 3929.61  708.00   1 0.24275 0.26896-0.85311 0.91606 0.46180-0.29746
   6   2   5  845.15  132.54   1 0.60660-0.10098 0.10492-0.05671-0.78804 0.99327
  -6  -2  -5  725.21  118.21   1-0.60886 0.10287-0.08985 0.04176 0.78816-0.99381
   6   2   5  919.53  177.00   1 0.20869 0.29671-0.88196 0.92995 0.42259-0.21712
   6   2   6 1455.83  209.02   1 0.67365-0.17464 0.03180 0.00118-0.73836 0.98463
   6   2   6 1052.51  216.28   1 0.17911 0.31962-0.90416 0.93695 0.38782-0.14125
   6   2   7 6215.46  585.43   1 0.73002-0.23766-0.03856 0.05633-0.68233 0.96971
   6   2   7 5513.78  390.70   1 0.15406 0.33801-0.92091 0.93850 0.35801-0.07036
   6   2   8 2175.74  279.24   1 0.77515-0.28943-0.10618 0.10841-0.62277 0.95103
   6   2   8 2391.49  229.34   1 0.13315 0.35224-0.93350 0.93589 0.33291-0.00416
   6   2   9  735.67  147.19   1 0.81046-0.33131-0.16625 0.15322-0.56170 0.93099
   6   2  10  245.75  126.48   1 0.83655-0.36405-0.22209 0.19351-0.50084 0.91105
   6   2  11 1334.14  211.93   1 0.85552-0.38972-0.27076 0.22689-0.44131 0.89254
   6   2  12  325.70  121.92   1 0.86821-0.40843-0.31499 0.25536-0.38336 0.87633
   6   2  13  476.30  189.30   1 0.87584-0.42262-0.35370 0.27873-0.32832 0.86237
   6   2  14   44.13  106.28   1 0.87932-0.43268-0.38825 0.29795-0.27575 0.85088
   6   2  15  -43.99  108.12   1 0.87915-0.43905-0.41962 0.31458-0.22580 0.84158
   6   2  16  742.39  165.33   1 0.87648-0.44294-0.44732 0.32698-0.17796 0.83479
   6   2  17  231.56  169.93   1 0.87149-0.44451-0.47223 0.33659-0.13224 0.83012
   6   2  18  382.91  227.66   1 0.86409-0.44527-0.49587 0.34469-0.08630 0.82638
   6   2  19  136.95  180.43   1 0.85533-0.44323-0.51618 0.34969-0.04418 0.82538
  -6  -3  13  -98.31  125.86   1 0.33268-0.95430-0.63618 0.25137 0.69612-0.16157
  -6  -3  12   64.69  119.66   1 0.32676-0.94174-0.63486 0.26533 0.70012-0.20669
  -6  -3  11   52.18  113.28   1 0.31797-0.92630-0.63285 0.27859 0.70596-0.25366
  -6  -3  10   61.02  121.48   1 0.30590-0.90759-0.62998 0.29099 0.71382-0.30263
  -6  -3   9  238.41  170.94   1 0.28911-0.88481-0.62329 0.29967 0.72657-0.35678
  -6  -3   8   -9.60  109.78   1 0.26893-0.85790-0.61794 0.30955 0.73879-0.41009
  -6  -3   7   60.30  104.87   1 0.24371-0.82595-0.61081 0.31766 0.75333-0.46571
  -6  -3   6 3580.00  281.55   1 0.21265-0.78815-0.60137 0.32345 0.77015-0.52362
  -6  -3   5    2.55   88.30   1 0.17483-0.74361-0.58892 0.32624 0.78904-0.58361
   6   3  -5   44.02   64.35   1 0.61635-0.04832 0.10098 0.16102 0.78096-0.98576
  -6  -3   4   14.38   85.87   1 0.12912-0.69123-0.57231 0.32497 0.80980-0.64544
   6   3  -4   19.01   50.98   1 0.60756-0.04627-0.03902 0.28586 0.79330-0.95715
  -6  -3   3 1040.08  162.40   1 0.07488-0.63025-0.55097 0.31886 0.83115-0.70788
   6   3  -3  827.13  114.75   1 0.58731-0.03208-0.17416 0.40590 0.79039-0.91335
  -6  -3   2 5663.45  301.00   1 0.01117-0.55981-0.52336 0.30649 0.85203-0.76985
   6   3  -2 3973.23  212.85   1 0.55717-0.00905-0.29955 0.51597 0.77448-0.85655
  -6  -3   1  442.25  121.99   1-0.06260-0.47939-0.48775 0.28611 0.87073-0.82964
   6   3  -1  552.89  133.78   1 0.52023 0.02109-0.41421 0.61545 0.74684-0.78789
  -6  -3   0 4625.35  318.64   1-0.14563-0.38962-0.44352 0.25712 0.88435-0.88435
   6   3   0 4824.33  313.31   1 0.47906 0.05551-0.51540 0.70147 0.71052-0.71052
  -6  -3  -1 4169.73  295.26   1-0.23693-0.29161-0.38893 0.21787 0.89027-0.93139
   6   3   1 4120.70  291.25   1 0.43569 0.09247-0.60105 0.77191 0.67000-0.62896
  -6  -3  -2 8143.76  466.98   1-0.33336-0.18840-0.32435 0.16857 0.88524-0.96751
   6   3   2 7642.30  481.88   1 0.39221 0.12883-0.67274 0.82834 0.62735-0.54520
  -6  -3  -3 2797.12  220.90   1-0.43043-0.08458-0.25184 0.11131 0.86677-0.99017
   6   3   3 2490.65  479.54   1 0.35106 0.16328-0.73196 0.87240 0.58393-0.46070
   6   3   4 1846.32  259.96   1 0.52004-0.01139 0.18632-0.06082-0.83356 0.99808
  -6  -3  -4 1684.91  155.08   1-0.52349 0.01491-0.17309 0.04790 0.83426-0.99874
   6   3   4 1971.64  340.91   1 0.31279 0.19484-0.77978 0.90507 0.54230-0.37799
   6   3   5  483.77  112.75   1 0.60434-0.10277 0.10724 0.00313-0.78947 0.99469
  -6  -3  -5  385.94   97.12   1-0.60840 0.10647-0.09032-0.01985 0.78846-0.99411
   6   3   5  609.03  128.16   1 0.27804 0.22291-0.81896 0.92863 0.50198-0.29656
   6   3   6   70.61   32.86   1 0.67832-0.18340 0.02627 0.06887-0.73429 0.98062
   6   3   6  -17.20   80.15   1 0.24706 0.24723-0.84917 0.94358 0.46675-0.22025
   6   3   7 2147.34  351.35   1 0.73895-0.25065-0.05070 0.13063-0.67183 0.95922
   6   3   7 1969.51  212.52   1 0.21995 0.26769-0.87292 0.95208 0.43545-0.14787
   6   3   8 1532.75  205.53   1 0.78616-0.30447-0.12383 0.18819-0.60548 0.93374
   6   3   8 1309.03  303.00   1 0.19709 0.28427-0.89099 0.95537 0.40900-0.08025
   6   3   9  931.43  166.69   1 0.82151-0.34639-0.18762 0.23673-0.53843 0.90772
   6   3   9  776.59  201.86   1 0.17730 0.29739-0.90543 0.95462 0.38567-0.01583
   6   3  10   -0.64   66.27   1 0.84635-0.37784-0.24573 0.27928-0.47253 0.88274
   6   3  10  149.06   93.62   1 0.16080 0.30722-0.91659 0.95057 0.36606 0.04487
   6   3  11 5129.66  417.89   1 0.86327-0.40145-0.29539 0.31366-0.40926 0.86049
   6   3  11 4881.68  823.29   1 0.14731 0.31403-0.92511 0.94390 0.34993 0.10209
   6   3  12 2357.37  272.27   1 0.87351-0.41773-0.33971 0.34228-0.34865 0.84162
   6   3  12 2016.20  296.92   1 0.13658 0.31810-0.93153 0.93511 0.33703 0.15608
   6   3  13 2882.26  269.38   1 0.87863-0.42942-0.37783 0.36507-0.29197 0.82602
   6   3  14  200.69  130.93   1 0.87941-0.43671-0.41193 0.38443-0.23859 0.81332
   6   3  15 2786.65  256.89   1 0.87728-0.44114-0.44152 0.39871-0.18822 0.80399
   6   3  16  196.59  138.64   1 0.87258-0.44300-0.46779 0.40968-0.14060 0.79743
   6   3  17  113.16  117.46   1 0.86537-0.44379-0.49234 0.41861-0.09337 0.79233
   6   3  18  296.98  177.08   1 0.85673-0.44186-0.51329 0.42425-0.05033 0.79041
   6   3  19  126.88  129.92   1 0.84661-0.43846-0.53211 0.42778-0.00921 0.79041
   6   3  20  208.95  144.31   1 0.83521-0.43376-0.54909 0.42944 0.03021 0.79209
  -6  -4  12  923.52  232.64   1 0.34793-0.95910-0.63945 0.20783 0.68559-0.19217
  -6  -4  11   36.08  110.21   1 0.34109-0.94561-0.63801 0.22167 0.69035-0.23805
  -6  -4  10  478.12  186.56   1 0.33115-0.92902-0.63584 0.23478 0.69716-0.28597
  -6  -4   9   33.59  106.23   1 0.31762-0.90885-0.63276 0.24698 0.70620-0.33613
  -6  -4   8  212.97  102.39   1 0.29991-0.88450-0.62851 0.25799 0.71765-0.38870
  -6  -4   7  444.80  167.44   1 0.27622-0.85459-0.61991 0.26459 0.73444-0.44683
  -6  -4   6  361.11  145.36   1 0.24784-0.81948-0.61201 0.27193 0.75100-0.50448
   6   4  -6   83.07   64.22   1 0.61195-0.04014 0.25135 0.08804 0.74988-0.99530
  -6  -4   5 3539.19  266.52   1 0.21268-0.77758-0.60138 0.27653 0.77013-0.56469
   6   4  -5 2188.14  189.79   1 0.61650-0.05151 0.13396 0.19024 0.77586-0.98038
  -6  -4   4  110.02   86.30   1 0.16956-0.72774-0.58711 0.27750 0.79154-0.62719
   6   4  -4   42.39   65.84   1 0.61239-0.05511 0.01500 0.29388 0.79040-0.95425
  -6  -4   3   45.09   81.21   1 0.11705-0.66852-0.56773 0.27349 0.81484-0.69157
   6   4  -3  163.07   90.33   1 0.59935-0.04809-0.10255 0.39635 0.79388-0.91683
  -6  -4   2 3211.24  285.67   1 0.05423-0.59897-0.54232 0.26332 0.83841-0.75623
   6   4  -2 3161.38  262.60   1 0.57808-0.03391-0.21464 0.49310 0.78723-0.86931
  -6  -4   1  281.65  115.21   1-0.02027-0.51782-0.50850 0.24473 0.86082-0.81973
   6   4  -1   12.08   64.10   1 0.55100-0.01358-0.32131 0.58460 0.77016-0.81120
  -6  -4   0  384.40  112.83   1-0.10626-0.42508-0.46508 0.21655 0.87886-0.87886
   6   4   0  456.47  116.79   1 0.51880 0.01182-0.41813 0.66623 0.74565-0.74565
  -6  -4  -1   -1.65   57.10   1-0.20341-0.32121-0.40954 0.17636 0.88932-0.93043
   6   4   1  -22.91   76.38   1 0.48379 0.04009-0.50487 0.73779 0.71487-0.67382
  -6  -4  -2  931.19  109.54   1-0.30864-0.20918-0.34149 0.12362 0.88776-0.97002
   6   4   2 1140.82  168.47   1 0.44700 0.07050-0.57990 0.79762 0.68110-0.59901
  -6  -4  -3 1345.99  132.56   1-0.41658-0.09450-0.26273 0.06011 0.87030-0.99370
   6   4   3 1358.35  214.77   1 0.41063 0.10018-0.64461 0.84719 0.64486-0.52174
   6   4   4  136.84   46.10   1 0.51562-0.01101 0.19026-0.00253-0.83542 0.99993
  -6  -4  -4   18.10   65.92   1-0.52109 0.01646-0.17524-0.01203 0.83531-0.99979
   6   4   4  127.66   50.44   1 0.37466 0.12898-0.69907 0.88633 0.60902-0.44471
   6   4   5 4584.97  769.12   1 0.61000-0.11250 0.10144 0.07109-0.78588 0.99110
  -6  -4  -5 5739.09  352.51   1-0.61628 0.11841-0.08218-0.09008 0.78321-0.98886
   6   4   5 5243.63  636.01   1 0.34148 0.15546-0.74454 0.91664 0.57362-0.36823
   6   4   6 4691.72  690.31   1 0.69153-0.20068 0.01047 0.14683-0.72226 0.96858
   6   4   6 4640.02  810.50   1 0.31092 0.17927-0.78300 0.93939 0.53872-0.29222
   6   4   7 9980.41  324.77   1 0.75608-0.27184-0.07495 0.21704-0.65016 0.93754
   6   4   7 8682.80  460.88   1 0.28328 0.20026-0.81351 0.95465 0.50788-0.22029
   6   4   8  566.41   99.18   1 0.80394-0.32628-0.15432 0.28082-0.57433 0.90259
   6   4   8  471.29   96.39   1 0.25872 0.21817-0.83820 0.96409 0.48007-0.15140
   6   4   9 1406.10  283.74   1 0.23724 0.23299-0.85805 0.96869 0.45546-0.08571
   6   4  10 1912.27  193.98   1 0.85898-0.39444-0.28124 0.37692-0.42785 0.83805
   6   4  10 1846.56  292.68   1 0.21877 0.24481-0.87390 0.96929 0.43408-0.02324
   6   4  11 6120.05  459.89   1 0.87195-0.41360-0.33166 0.41178-0.36012 0.81201
   6   4  11 5156.63  953.08   1 0.20372 0.25359-0.88588 0.96666 0.41677 0.03525
   6   4  12 2155.17  221.27   1 0.87828-0.42650-0.37390 0.43867-0.29801 0.79098
   6   4  12 1627.16  276.41   1 0.19079 0.25985-0.89571 0.96130 0.40160 0.09152
   6   4  13 2303.69  227.15   1 0.87943-0.43413-0.41088 0.46090-0.24033 0.77400
   6   4  13 1902.06  387.99   1 0.18034 0.26362-0.90329 0.95367 0.38927 0.14493
   6   4  14 7984.56  812.28   1 0.87719-0.43846-0.44219 0.47691-0.18704 0.76177
   6   4  14 6940.09  807.00   1 0.17220 0.26510-0.90897 0.94415 0.37962 0.19568
   6   4  15   19.97   95.48   1 0.87218-0.44001-0.46946 0.48889-0.13746 0.75324
   6   4  15  181.49  100.73   1 0.16617 0.26446-0.91304 0.93303 0.37246 0.24394
   6   4  16  347.42  197.66   1 0.86460-0.44027-0.49447 0.49820-0.08911 0.74696
   6   4  16   28.57   75.45   1 0.16209 0.26187-0.91574 0.92053 0.36760 0.28989
   6   4  17  257.38  187.75   1 0.85562-0.43799-0.51560 0.50402-0.04542 0.74439
   6   4  17   65.81   78.14   1 0.15980 0.25749-0.91724 0.90682 0.36487 0.33371
   6   4  18 1106.57  206.93   1 0.84523-0.43431-0.53437 0.50749-0.00410 0.74418
   6   4  18 1008.95  247.85   1 0.15917 0.25145-0.91764 0.89203 0.36412 0.37556
   6   4  19  -52.75  109.07   1 0.83365-0.42945-0.55116 0.50897 0.03519 0.74600
   6   4  19   80.64  108.22   1 0.16007 0.24387-0.91706 0.87625 0.36519 0.41558
   6   4  20   51.55  100.12   1 0.16239 0.23488-0.91554 0.85953 0.36796 0.45390
  -6  -5  11  -34.61  114.08   1 0.35988-0.96059-0.64186 0.16345 0.67711-0.22481
  -6  -5  10  298.79  201.21   1 0.35190-0.94596-0.64026 0.17712 0.68280-0.27161
  -6  -5   9  100.46  110.45   1 0.34050-0.92792-0.63788 0.19001 0.69076-0.32069
  -6  -5   8 1828.10  262.10   1 0.32512-0.90589-0.63449 0.20190 0.70122-0.37227
  -6  -5   7 4305.39  349.89   1 0.30502-0.87915-0.62976 0.21244 0.71439-0.42656
  -6  -5   6   47.48   92.44   1 0.27805-0.84582-0.62039 0.21815 0.73334-0.48681
   6   5  -6  -28.84   65.09   1 0.61045-0.04268 0.26924 0.13221 0.74488-0.99030
  -6  -5   5   55.85   96.45   1 0.24557-0.80661-0.61135 0.22434 0.75229-0.54685
   6   5  -5  144.26  103.40   1 0.61612-0.05517 0.16734 0.21893 0.76966-0.97417
  -6  -5   4   66.62   86.31   1 0.20503-0.75934-0.59894 0.22717 0.77409-0.60974
   6   5  -4  -16.97   70.06   1 0.61520-0.06194 0.06373 0.30719 0.78578-0.94962
  -6  -5   3  244.36   90.07   1 0.15488-0.70246-0.58194 0.22541 0.79833-0.67507
   6   5  -3  310.80  113.68   1 0.60743-0.06090-0.04023 0.39599 0.79334-0.91623
  -6  -5   2 3895.80  333.17   1 0.09322-0.63406-0.55841 0.21727 0.82430-0.74212
   6   5  -2 3881.61  358.77   1 0.59320-0.05264-0.14153 0.48219 0.79251-0.87448
  -6  -5   1 6651.70  430.19   1 0.01875-0.55285-0.52678 0.20088 0.84978-0.80869
   6   5  -1 6644.36  457.18   1 0.57287-0.03940-0.23779 0.56313 0.78439-0.82542
  -6  -5   0  718.80  116.51   1-0.07019-0.45725-0.48390 0.17324 0.87229-0.87229
   6   5   0  877.53  183.09   1 0.54863-0.02191-0.32935 0.63952 0.76845-0.76845
  -6  -5  -1  208.32  104.31   1-0.17348-0.34723-0.42726 0.13197 0.88732-0.92844
   6   5   1   13.27   84.59   1 0.52062-0.00069-0.41314 0.70809 0.74716-0.70611
  -6  -5  -2  452.15  111.94   1-0.28827-0.22569-0.35572 0.07571 0.88902-0.97125
   6   5   2  330.90  117.83   1 0.49068 0.02250-0.48904 0.76883 0.72115-0.63905
  -6  -5  -3  130.54   97.91   1-0.41003-0.09711-0.26781 0.00309 0.87186-0.99526
   6   5   3   59.66   78.24   1 0.45926 0.04758-0.55581 0.82040 0.69292-0.56979
   6   5   4 1304.92  239.29   1 0.52090-0.02033 0.18555 0.06440-0.83320 0.99771
  -6  -5  -4 1240.95  167.25   1-0.52896 0.02827-0.16815-0.08121 0.83181-0.99629
   6   5   4 1639.28  259.06   1 0.42822 0.07194-0.61449 0.86394 0.66258-0.49842
   6   5   5  832.00  187.03   1 0.62769-0.13425 0.08292 0.15176-0.77403 0.97925
   6   5   5 1226.88  230.81   1 0.39712 0.09582-0.66506 0.89913 0.63243-0.42705
   6   5   6 6835.50  443.87   1 0.71743-0.23063-0.02196 0.24143-0.69628 0.94261
   6   5   6 6516.05  983.49   1 0.36835 0.11789-0.70814 0.92705 0.60236-0.35590
   6   5   7  107.49   76.20   1 0.78449-0.30429-0.12110 0.32499-0.60819 0.89542
   6   5   7  111.33  102.01   1 0.34157 0.13797-0.74443 0.94819 0.57371-0.28617
   6   5   8  622.13  144.05   1 0.31708 0.15576-0.77474 0.96334 0.54702-0.21840
   6   5   9  103.68   60.36   1 0.85725-0.39000-0.27590 0.44901-0.43473 0.80391
   6   5   9  157.02   60.91   1 0.29498 0.17114-0.80095 0.97356 0.52101-0.15125
   6   5  10  103.73   70.40   1 0.87248-0.41156-0.33430 0.49195-0.35639 0.76720
   6   5  10   96.48   48.62   1 0.27547 0.18400-0.82159 0.97895 0.49909-0.08825
   6   5  11 1380.66  197.26   1 0.87888-0.42454-0.38113 0.52345-0.28686 0.73875
   6   5  11 1053.10  228.64   1 0.25848 0.19433-0.83842 0.98053 0.47981-0.02789
   6   5  12 3739.36  240.87   1 0.87910-0.43120-0.42076 0.54832-0.22390 0.71652
   6   5  12 3799.46  543.99   1 0.24395 0.20222-0.85202 0.97888 0.46318 0.02982
   6   5  13   68.08   98.60   1 0.87556-0.43422-0.45308 0.56533-0.16763 0.70131
   6   5  13  164.45  124.39   1 0.23176 0.20775-0.86287 0.97448 0.44914 0.08494
   6   5  14 3096.98  388.54   1 0.86923-0.43446-0.48046 0.57742-0.11651 0.69124
   6   5  14 2497.92  571.23   1 0.22180 0.21106-0.87138 0.96774 0.43759 0.13757
   6   5  15 1314.14  225.33   1 0.86049-0.43339-0.50492 0.58610-0.06784 0.68457
   6   5  15 1106.25  252.03   1 0.21392 0.21229-0.87788 0.95898 0.42843 0.18781
   6   5  16  271.19  178.38   1 0.85056-0.43017-0.52530 0.59117-0.02439 0.68224
   6   5  16  105.59  115.32   1 0.20866 0.21126-0.88199 0.94877 0.42255 0.23494
   6   5  17  149.42  146.62   1 0.83945-0.42578-0.54318 0.59375 0.01620 0.68276
   6   5  17   71.36   75.59   1 0.20457 0.20868-0.88522 0.93679 0.41777 0.28081
   6   5  18   25.38  102.13   1 0.82738-0.42041-0.55899 0.59425 0.05443 0.68564
   6   5  18   -6.01   97.51   1 0.20218 0.20440-0.88708 0.92346 0.41497 0.32470
   6   5  19  -57.44  114.41   1 0.20137 0.19854-0.88770 0.90888 0.41403 0.36674
   6   5  20  420.62  149.35   1 0.20204 0.19119-0.88718 0.89316 0.41481 0.40705
  -6  -6  10   86.33  115.04   1 0.36809-0.95834-0.64345 0.11823 0.67117-0.25998
  -6  -6   9  282.75  191.19   1 0.35864-0.94224-0.64162 0.13167 0.67800-0.30794
  -6  -6   8  354.71  215.29   1 0.34538-0.92234-0.63891 0.14424 0.68738-0.35843
  -6  -6   7   50.36   94.00   1 0.32759-0.89791-0.63505 0.15565 0.69956-0.41173
   6   6  -7   36.64   74.76   1 0.59626-0.02590 0.37768 0.10078 0.70839-0.99457
  -6  -6   6   36.07   98.98   1 0.30436-0.86804-0.62960 0.16548 0.71481-0.46809
   6   6  -6  -34.85   70.50   1 0.60836-0.04463 0.29066 0.17287 0.73851-0.98393
  -6  -6   5  382.77  152.38   1 0.27305-0.83022-0.61906 0.16988 0.73634-0.53090
   6   6  -5  370.61  133.83   1 0.61503-0.05811 0.20058 0.24776 0.76255-0.96707
  -6  -6   4   19.98   82.40   1 0.23507-0.78551-0.60825 0.17432 0.75812-0.59377
   6   6  -4  -12.65   73.52   1 0.61649-0.06724 0.10890 0.32407 0.77979-0.94363
  -6  -6   3  174.20  111.57   1 0.18722-0.73093-0.59311 0.17441 0.78304-0.65978
   6   6  -3   39.56   71.96   1 0.61249-0.06998 0.01632 0.40148 0.79030-0.91318
  -6  -6   2 6482.41  301.50   1 0.12714-0.66409-0.57156 0.16829 0.81064-0.72846
   6   6  -2 5793.46  322.80   1 0.60315-0.06655-0.07483 0.47755 0.79410-0.87607
  -6  -6   122348.48 1369.49   1 0.05276-0.58297-0.54169 0.15366 0.83891-0.79782
   6   6  -120728.75 1307.81   1 0.58925-0.05938-0.16383 0.55136 0.79116-0.83214
  -6  -6   0 9415.51  615.00   1-0.03874-0.48478-0.49959 0.12680 0.86539-0.86539
   6   6   0 9745.95  680.28   1 0.57046-0.04768-0.24799 0.62020 0.78299-0.78299
  -6  -6  -1 1381.33  150.16   1-0.14875-0.36805-0.44141 0.08401 0.88488-0.92600
   6   6   1 1132.93  172.72   1 0.54902-0.03300-0.32804 0.68510 0.76873-0.72770
  -6  -6  -2 1018.25  122.48   1-0.27559-0.23446-0.36411 0.02199 0.88964-0.97187
  -6  -6  -3 2418.42  191.13   1-0.41491-0.08829-0.26403-0.06278 0.87070-0.99411
   6   6   3 2553.81  262.60   1 0.49898 0.00350-0.46924 0.79589 0.72857-0.60542
   6   6   4 1015.24  162.92   1 0.47201 0.02417-0.52934 0.84079 0.70497-0.54080
   6   6   5   82.41   94.28   1 0.44542 0.04407-0.58291 0.87923 0.67955-0.47435
   6   6   6 2646.22  284.45   1 0.41942 0.06339-0.62981 0.91099 0.65376-0.40751
   6   6   710073.23  992.86   1 0.39354 0.08201-0.67068 0.93640 0.62873-0.34119
   6   6   8  177.66   56.48   1 0.37013 0.09872-0.70560 0.95618 0.60424-0.27563
   6   6   9  592.66  144.34   1 0.34853 0.11361-0.73533 0.97074 0.58121-0.21152
   6   6  10  352.57   92.91   1 0.32892 0.12652-0.76041 0.98067 0.55998-0.14920
   6   6  11  173.73   86.45   1 0.31129 0.13742-0.78258 0.98666 0.53913-0.08721
   6   6  12  750.87  146.90   1 0.29586 0.14620-0.79999 0.98882 0.52198-0.02898
   6   6  13 3194.68  581.15   1 0.28253 0.15287-0.81429 0.98787 0.50704 0.02704
   6   6  14  521.13  134.67   1 0.27125 0.15750-0.82587 0.98420 0.49432 0.08085
   6   6  15 5696.75  906.20   1 0.26195 0.16015-0.83507 0.97815 0.48375 0.13249
   6   6  16   76.85   61.89   1 0.25453 0.16092-0.84220 0.97003 0.47529 0.18204
   6   6  17 1312.43  278.16   1 0.24889 0.15990-0.84748 0.96006 0.46884 0.22957
   6   6  18   57.60   77.15   1 0.24494 0.15720-0.85112 0.94844 0.46431 0.27519
   6   6  19  504.58  179.29   1 0.24258 0.15290-0.85326 0.93534 0.46161 0.31898
   6   6  20 1030.07  311.64   1 0.24173 0.14711-0.85404 0.92086 0.46062 0.36105
  -6  -7   9  148.64  145.99   1 0.37195-0.95174-0.64417 0.07215 0.66834-0.29827
  -6  -7   8    1.10   86.87   1 0.36058-0.93373-0.64200 0.08525 0.67661-0.34766
  -6  -7   7  474.78  192.20   1 0.34486-0.91137-0.63881 0.09733 0.68774-0.39991
   6   7  -7  218.49  159.84   1 0.59364-0.02738 0.39262 0.14790 0.70244-0.98862
  -6  -7   6   60.21   90.64   1 0.32388-0.88374-0.63421 0.10800 0.70205-0.45533
   6   7  -6  -14.56   72.04   1 0.60546-0.04601 0.31443 0.21092 0.73112-0.97641
  -6  -7   5  443.00  145.24   1 0.29475-0.84805-0.62472 0.11339 0.72307-0.51763
   6   7  -5  239.45  127.58   1 0.61322-0.06034 0.23372 0.27670 0.75454-0.95905
  -6  -7   4  178.96  122.21   1 0.25916-0.80573-0.61523 0.11913 0.74452-0.58017
   6   7  -4   97.84  109.98   1 0.61640-0.07033 0.15133 0.34390 0.77275-0.93636
  -6  -7   3  575.00  139.06   1 0.21350-0.75334-0.60163 0.12077 0.76970-0.64644
   6   7  -3  252.06  113.04   1 0.61539-0.07689 0.06830 0.41155 0.78525-0.90813
  -6  -7   2  490.99  118.17   1 0.15501-0.68806-0.58178 0.11638 0.79843-0.71625
   6   7  -2  504.45  156.06   1 0.60998-0.07821-0.01453 0.47921 0.79228-0.87420
  -6  -7   1  -32.78   57.84   1 0.08075-0.60707-0.55338 0.10321 0.82900-0.78791
   6   7  -1   55.61  106.97   1 0.60035-0.07444-0.09562 0.54521 0.79399-0.83498
   6   7   0 5410.72  330.60   1 0.58726-0.06808-0.17442 0.60882 0.79037-0.79037
   6   7   1 3319.78  320.11   1 0.57022-0.05814-0.24899 0.66808 0.78284-0.74181
   6   7   2  417.45  142.71   1 0.55139-0.04607-0.31995 0.72389 0.77044-0.68837
   6   7   3 3322.54  330.90   1 0.53023-0.03168-0.38576 0.77443 0.75500-0.63185
   6   7   4   66.59   84.73   1 0.50816-0.01636-0.44630 0.81980 0.73660-0.57240
   6   7   5  698.62  160.73   1 0.48542-0.00037-0.50116 0.85950 0.71637-0.51113
   6   7   6   78.21   98.19   1 0.46213 0.01670-0.54999 0.89317 0.69565-0.44940
   6   7   7 2297.37  298.95   1 0.43974 0.03241-0.59359 0.92163 0.67399-0.38670
   6   7   8 8792.86  660.05   1 0.41820 0.04726-0.63190 0.94480 0.65253-0.32420
   6   7   9 3222.55  508.41   1 0.39677 0.06138-0.66562 0.96301 0.63207-0.26237
   6   7  10 1106.09  195.18   1 0.37781 0.07363-0.69447 0.97670 0.61234-0.20156
   6   7  11 2243.44  495.64   1 0.36048 0.08427-0.71917 0.98625 0.59400-0.14215
   6   7  12 4744.06 1049.41   1 0.34486 0.09318-0.74015 0.99206 0.57727-0.08434
   6   7  13  101.00  112.14   1 0.33103 0.10031-0.75779 0.99455 0.56228-0.02828
   6   7  14 1108.75  222.74   1 0.31900 0.10564-0.77245 0.99406 0.54913 0.02594
   6   7  15  371.51  128.07   1 0.30858 0.10941-0.78570 0.99076 0.53613 0.08012
   6   7  17 1478.14  298.79   1 0.29321 0.11147-0.80288 0.97744 0.51903 0.17939
   6   7  18  -96.69  104.82   1 0.28799 0.11004-0.80851 0.96781 0.51318 0.22632
   6   7  19  272.65  120.00   1 0.28432 0.10705-0.81240 0.95645 0.50906 0.27152
   6   7  20  250.74  111.54   1 0.28214 0.10259-0.81470 0.94350 0.50660 0.31507
   6   8  -7    6.13   78.88   1 0.59020-0.02805 0.41086 0.19171 0.69487-0.98104
   6   8  -6   22.97   83.97   1 0.60212-0.04678 0.33986 0.24754 0.72244-0.96774
   6   8  -5   55.33   92.75   1 0.61067-0.06183 0.26676 0.30572 0.74559-0.95010
   6   8  -4  207.65  147.06   1 0.61537-0.07335 0.19217 0.36513 0.76444-0.92805
   6   8  -3  705.27  184.69   1 0.61658-0.08210 0.11687 0.42503 0.77856-0.90144
   6   8  -2   78.48  134.84   1 0.61410-0.08635 0.04141 0.48532 0.78813-0.87006
   6   8  -1  230.87  148.72   1 0.60817-0.08716-0.03317 0.54472 0.79310-0.83406
   6   8   0  311.32  127.82   1 0.59886-0.08365-0.10592 0.60238 0.79381-0.79381
   6   8   1  313.20  147.73   1 0.58688-0.07840-0.17637 0.65764 0.79022-0.74923
   6   8   2  -51.02   85.62   1 0.57161-0.07024-0.24313 0.70910 0.78366-0.70159
   6   8   3  816.66  182.16   1 0.55518-0.06055-0.30670 0.75751 0.77311-0.65000
   6   8   4   94.38   93.21   1 0.53723-0.04936-0.36601 0.80166 0.75987-0.59572
   6   8   5 1126.72  197.52   1 0.51784-0.03674-0.42075 0.84111 0.74484-0.53960
   6   8   6  562.82  165.67   1 0.49834-0.02399-0.47080 0.87599 0.72800-0.48171
   6   8   7  399.89  164.65   1 0.47876-0.01115-0.51607 0.90610 0.71024-0.42290
   6   8   8  183.71  118.86   1 0.45899 0.00250-0.55636 0.93126 0.69266-0.36432
   6   8   9  323.25  139.33   1 0.44038 0.01442-0.59239 0.95216 0.67462-0.30525
   6   8  10   51.93  107.15   1 0.42271 0.02540-0.62414 0.96876 0.65708-0.24666
   6   8  11 4595.72  546.11   1 0.40620 0.03522-0.65187 0.98136 0.64035-0.18889
   6   8  12 2498.69  478.23   1 0.38986 0.04419-0.67637 0.99026 0.62491-0.13199
   6   8  13 2205.34  424.00   1 0.37608 0.05127-0.69701 0.99574 0.61051-0.07651
   6   8  14  462.59  103.93   1 0.36380 0.05684-0.71455 0.99813 0.59754-0.02246
   6   8  15 7315.16 1112.27   1 0.35307 0.06087-0.72927 0.99769 0.58609 0.03006
   6   8  16  -20.28   74.71   1 0.34388 0.06336-0.74142 0.99469 0.57621 0.08101
   6   8  17   43.04   67.19   1 0.33623 0.06431-0.75126 0.98937 0.56793 0.13037
   6   8  18  -16.87  113.23   1 0.33008 0.06376-0.75898 0.98193 0.56124 0.17814
   6   8  19 1051.70  303.92   1 0.32538 0.06175-0.76475 0.97255 0.55612 0.22433
   6   9  -6   78.96   97.22   1 0.59811-0.04687 0.36651 0.28295 0.71269-0.95798
   6   9  -5  -37.72   90.71   1 0.60738-0.06257 0.29974 0.33481 0.73568-0.94020
   6   9  -4    9.25   88.64   1 0.61335-0.07536 0.23164 0.38773 0.75507-0.91868
   6   9  -3 2661.74  207.72   1 0.61622-0.08505 0.16280 0.44139 0.77056-0.89327
   6   9  -2 1441.13  255.35   1 0.61620-0.09247 0.09370 0.49507 0.78199-0.86391
   6   9  -1  189.50  115.12   1 0.61309-0.09610 0.02504 0.54855 0.78961-0.83057
   6   9   0   52.88  105.42   1 0.60699-0.09574-0.04237 0.60088 0.79357-0.79357
   6   9   2  307.74  171.82   1 0.58778-0.08999-0.17168 0.69982 0.79059-0.70862
   6   9   3  372.16  171.49   1 0.57422-0.08354-0.23194 0.74479 0.78515-0.66204
   6   9   4   89.03   92.28   1 0.55995-0.07602-0.28933 0.78702 0.77636-0.61221
   6   9   5  607.03  192.82   1 0.54448-0.06731-0.34307 0.82561 0.76539-0.56021
   6   9   6  133.36  114.77   1 0.52776-0.05735-0.39297 0.86019 0.75301-0.50672
   6   9   7  -14.36  108.09   1 0.51105-0.04739-0.43883 0.89088 0.73908-0.45175
   6   9   8 1000.76  205.04   1 0.49426-0.03735-0.48060 0.91749 0.72437-0.39598
   6   9   9  297.79  175.20   1 0.47772-0.02756-0.51835 0.94007 0.70928-0.33985
   6   9  10   53.11  113.83   1 0.46117-0.01702-0.55195 0.95857 0.69474-0.28432
   6   9  11 1538.18  241.13   1 0.44590-0.00844-0.58200 0.97349 0.68002-0.22856
   6   9  12    7.92  126.02   1 0.43158-0.00081-0.60849 0.98484 0.66593-0.17343
   6   9  13  160.20  176.14   1 0.41835 0.00572-0.63164 0.99286 0.65268-0.11914
   6   9  14 5556.56  788.39   1 0.40632 0.01106-0.65169 0.99776 0.64047-0.06588
   6   9  15  652.22  218.85   1 0.39436 0.01559-0.66939 0.99978 0.62958-0.01343
   6   9  16  212.20   95.29   1 0.38492 0.01833-0.68389 0.99913 0.61977 0.03745
   6   9  17  302.88  122.05   1 0.37682 0.01973-0.69593 0.99601 0.61129 0.08701
   6   9  18  253.34  161.99   1 0.37007 0.01977-0.70569 0.99062 0.60418 0.13520
   6   9  19  506.10  149.21   1 0.36466 0.01848-0.71335 0.98312 0.59845 0.18201
   6  10  -5   23.00  100.26   1 0.60312-0.06280 0.33263 0.36371 0.72497-0.92939
   6  10  -4   62.49  104.72   1 0.61038-0.07642 0.27008 0.41137 0.74464-0.90825
   6  10  -3  111.83  106.42   1 0.61475-0.08761 0.20677 0.45950 0.76113-0.88384
   6  10  -2  150.29  116.83   1 0.61647-0.09615 0.14321 0.50787 0.77424-0.85604
   6  10  -1 3318.96  396.57   1 0.61580-0.10282 0.07968 0.55596 0.78385-0.82481
   6  10   0 7362.56 3250.90   1 0.61254-0.10629 0.01699 0.60348 0.79025-0.79025
   6  10   1 5361.24  403.35   1 0.60676-0.10621-0.04440 0.64979 0.79363-0.75265
   6  10   2 3017.92  317.09   1 0.59912-0.10529-0.10416 0.69436 0.79385-0.71188
   6  10   3  144.81  108.16   1 0.58963-0.10254-0.16173 0.73674 0.79130-0.66835
   6  10   4  838.21  202.90   1 0.57769-0.09771-0.21646 0.77618 0.78703-0.62288
   6  10   5  199.00  139.44   1 0.56537-0.09214-0.26859 0.81316 0.77987-0.57469
   6  10   6 1701.10  258.56   1 0.55209-0.08561-0.31753 0.84695 0.77094-0.52472
   6  10   7  619.60  190.45   1 0.53817-0.07844-0.36311 0.87738 0.76060-0.47333
   6  10   8 2928.77  324.09   1 0.52341-0.07045-0.40536 0.90428 0.74947-0.42108
   6  10   9 1130.42  246.91   1 0.50907-0.06285-0.44397 0.92771 0.73738-0.36794
   6  10  10 1451.59  265.28   1 0.49491-0.05544-0.47906 0.94764 0.72495-0.31446
   6  10  11  125.87  122.54   1 0.48118-0.04846-0.51071 0.96413 0.71248-0.26094
   6  10  12  103.19  124.25   1 0.46751-0.04071-0.53887 0.97722 0.70074-0.20824
   6  10  13  609.37  172.33   1 0.45517-0.03506-0.56400 0.98722 0.68899-0.15545
   6  10  15   72.95  123.83   1 0.43332-0.02659-0.60535 0.99829 0.66766-0.05203
   6  10  16  473.52  169.15   1 0.42400-0.02395-0.62191 0.99971 0.65836-0.00170
   6  10  17   64.97  125.30   1 0.41581-0.02246-0.63595 0.99861 0.65012 0.04758
   6  10  18  125.14  132.17   1 0.40880-0.02213-0.64763 0.99515 0.64300 0.09574
   6  11  -2  148.70  117.66   1 0.61544-0.09916 0.19034 0.52282 0.76484-0.84665
   6  11  -1  165.00  165.74   1 0.61665-0.10769 0.13142 0.56628 0.77618-0.81714
   6  11   0  105.52  124.37   1 0.61557-0.11334 0.07308 0.60944 0.78468-0.78468
   6  11   1 1071.40  268.68   1 0.61244-0.11695 0.01564 0.65170 0.79035-0.74939
   6  11   2  128.36  181.36   1 0.60719-0.11732-0.04051 0.69276 0.79352-0.71155
   6  11   3   30.31  104.11   1 0.60044-0.11730-0.09500 0.73207 0.79400-0.67105
   6  11   4  575.76  175.07   1 0.59218-0.11578-0.14746 0.76934 0.79219-0.62825
   6  11   5  235.26  175.85   1 0.58265-0.11297-0.19759 0.80428 0.78833-0.58340
   6  11   6  313.29  236.38   1 0.57118-0.10865-0.24498 0.83643 0.78341-0.53719
   6  11   7  662.59  215.57   1 0.55984-0.10406-0.28974 0.86603 0.77628-0.48902
   6  11   8 1187.29  267.94   1 0.54798-0.09895-0.33154 0.89268 0.76797-0.43968
   6  11   9  366.21  239.96   1 0.53534-0.09306-0.37049 0.91626 0.75904-0.38960
   6  11  10  175.04  205.30   1 0.52312-0.08760-0.40618 0.93678 0.74923-0.33875
   6  11  11  195.41  184.66   1 0.51107-0.08229-0.43877 0.95421 0.73910-0.28757
   6  11  12  633.12  176.05   1 0.49937-0.07734-0.46831 0.96858 0.72891-0.23633
   6  11  13  218.11  183.93   1 0.48817-0.07289-0.49487 0.97998 0.71887-0.18524
   6  11  14 3417.18  397.64   1 0.47763-0.06910-0.51855 0.98849 0.70920-0.13452
   6  11  15  970.02  250.15   1 0.46728-0.06452-0.53936 0.99429 0.70052-0.08490
   6  11  16  490.20  194.79   1 0.45836-0.06229-0.55762 0.99742 0.69206-0.03539
   6  11  17  274.79  154.72   1 0.45038-0.06100-0.57338 0.99804 0.68438 0.01332
   6  12  -1  174.45  130.60   1 0.61576-0.11034 0.18096 0.57908 0.76686-0.80776
   6  12   0  345.29  218.23   1 0.61664-0.11843 0.12636 0.61821 0.77703-0.77703
   6  12   1   32.53  120.62   1 0.61555-0.12408 0.07259 0.65680 0.78473-0.74377
   6  12   2   92.02  139.98   1 0.61274-0.12800 0.01983 0.69440 0.79003-0.70811
   6  12   3   75.47  126.96   1 0.60833-0.13033-0.03161 0.73067 0.79304-0.67016
   6  12   4  116.94  110.51   1 0.60227-0.12983-0.08159 0.76552 0.79410-0.63016
   6  12   5  118.94  116.37   1 0.59519-0.12948-0.12958 0.79832 0.79306-0.58813
   6  12   6  147.56  127.26   1 0.58706-0.12808-0.17543 0.82899 0.79029-0.54438
   6  12   7   12.60  119.81   1 0.57716-0.12533-0.21887 0.85720 0.78675-0.49949
   6  12   8 1075.52  245.27   1 0.56755-0.12247-0.25991 0.88308 0.78123-0.45293
   6  12   9  443.29  217.94   1 0.55751-0.11918-0.29832 0.90634 0.77471-0.40538
   6  12  10  -24.73  112.05   1 0.54723-0.11565-0.33402 0.92689 0.76743-0.35706
   6  12  11  506.10  218.32   1 0.53692-0.11209-0.36697 0.94468 0.75963-0.30822
   6  12  12  286.22  184.56   1 0.52620-0.10812-0.39746 0.95975 0.75175-0.25917
   6  12  13  371.25  208.14   1 0.51630-0.10496-0.42493 0.97206 0.74354-0.20992
   6  12  14  288.19  204.38   1 0.50683-0.10224-0.44971 0.98168 0.73544-0.16077
   6  12  15 2758.86  376.98   1 0.49791-0.10007-0.47186 0.98866 0.72761-0.11189
   6  12  16  194.19  200.72   1 0.48964-0.09855-0.49146 0.99310 0.72021-0.06343
   6  13   2  -29.79  119.42   1 0.61572-0.13500 0.07725 0.69902 0.78416-0.70224
   6  13   3   26.92  134.46   1 0.61333-0.13934 0.02866 0.73243 0.78930-0.66642
   6  13   4   45.87  130.86   1 0.60960-0.14235-0.01861 0.76455 0.79248-0.62864
   6  13   5   12.53  108.86   1 0.60444-0.14269-0.06455 0.79535 0.79403-0.58910
   6  13   6  407.14  159.88   1 0.59847-0.14345-0.10857 0.82419 0.79375-0.54784
   6  13   7   30.63  116.45   1 0.59163-0.14334-0.15063 0.85106 0.79201-0.50511
   6  13   8   62.03  124.63   1 0.58408-0.14252-0.19057 0.87581 0.78899-0.46112
   6  13   9  360.92  201.75   1 0.57507-0.14069-0.22822 0.89828 0.78562-0.41628
   6  13  10  -13.62  115.40   1 0.56664-0.13901-0.26354 0.91845 0.78067-0.37030
   6  13  11   41.63  123.60   1 0.55802-0.13714-0.29643 0.93618 0.77506-0.32365
   6  13  12   -7.96  120.23   1 0.54938-0.13524-0.32684 0.95143 0.76899-0.27654
   6  13  13   67.27  128.80   1 0.54084-0.13346-0.35476 0.96419 0.76264-0.22916
   6  13  14  310.09  165.50   1 0.53200-0.13136-0.38054 0.97453 0.75641-0.18173
   7 -10  -5 1202.73  162.55   1 0.50520 0.20654 0.19946-0.74525-0.83962 0.63398
  -7  10   5  568.52  246.88   1-0.49895-0.21268-0.19476 0.73933 0.84446-0.63886
   7 -10  -4  692.08  161.12   1 0.53779 0.16735 0.17022-0.73131-0.82570 0.66119
  -7  10   4  269.97  176.15   1-0.53172-0.17319-0.16565 0.72549 0.83055-0.66607
   7 -10  -3 1570.68  274.72   1 0.57078 0.12762 0.14051-0.71646-0.80898 0.68584
  -7  10   3  953.77  255.19   1-0.56437-0.13382-0.13523 0.71035 0.81436-0.69100
   7 -10  -2  895.92  152.00   1 0.60266 0.08914 0.10895-0.70012-0.79052 0.70843
  -7  10   2  956.08  271.65   1-0.59599-0.09620-0.10292 0.69339 0.79636-0.71410
   7 -10  -1 1846.12  269.70   1 0.63372 0.05146 0.07647-0.68287-0.76976 0.72872
   7 -10   0   85.07   86.90   1 0.66367 0.01490 0.04330-0.66492-0.74676 0.74676
  -7   9   8 2019.27  342.80   1-0.35558-0.37210-0.30851 0.74533 0.88226-0.55318
  -7   9   7 1835.17  322.67   1-0.38805-0.33288-0.28457 0.73665 0.87660-0.58866
  -7   9   6   -8.88  130.77   1-0.42165-0.29254-0.25877 0.72611 0.86904-0.62223
  -7   9   5 2039.72  282.42   1-0.45597-0.25171-0.23101 0.71348 0.85948-0.65389
   7  -9  -4  184.07  142.83   1 0.49672 0.20438 0.20685-0.70570-0.84289 0.67838
  -7   9   4  336.36  262.21   1-0.49087-0.21008-0.20173 0.69948 0.84754-0.68306
   7  -9  -3  538.34  165.04   1 0.53156 0.16294 0.17592-0.69007-0.82854 0.70515
  -7   9   3  528.39  225.36   1-0.52589-0.16834-0.17093 0.68395 0.83319-0.70983
   7  -9  -2 1026.93  292.00   1 0.56611 0.12180 0.14365-0.67309-0.81171 0.72945
  -7   9   2  878.14  230.87   1-0.56064-0.12687-0.13878 0.66708 0.81634-0.73410
   7  -9  -1  120.02  150.04   1 0.60039 0.08073 0.11125-0.65548-0.79192 0.75088
  -7   9   1  321.59  168.94   1-0.59420-0.08733-0.10472 0.64832 0.79746-0.75633
   7  -9   0  393.06  118.35   1 0.63318 0.04133 0.07706-0.63651-0.77015 0.77015
  -7   9   0  783.51  263.71   1-0.62728-0.04763-0.07063 0.62945 0.77557-0.77557
   7  -9   1 3088.28  503.18   1 0.66462 0.00328 0.04223-0.61690-0.74598 0.78702
   7  -9   2 2095.78  391.42   1 0.69440-0.03314 0.00698-0.59686-0.71955 0.80165
   7  -9   3   19.35   81.83   1 0.72233-0.06769-0.02836-0.57673-0.69096 0.81412
   7  -9   4  201.81  111.24   1 0.74819-0.10016-0.06360-0.55670-0.66042 0.82464
  -7   8  10  876.86  229.21   1-0.24581-0.49117-0.38333 0.72743 0.89029-0.47914
  -7   8   9   63.71  145.97   1-0.27567-0.45456-0.36406 0.72344 0.88964-0.51960
  -7   8   8  233.82  162.10   1-0.30728-0.41645-0.34242 0.71715 0.88787-0.55879
  -7   8   7  747.30  275.01   1-0.34080-0.37619-0.31910 0.70908 0.88432-0.59638
  -7   8   6  825.14  261.57   1-0.37578-0.33446-0.29372 0.69897 0.87892-0.63211
  -7   8   5 2494.87  350.79   1-0.41192-0.29158-0.26635 0.68684 0.87142-0.66574
  -7   8   4  221.02  198.43   1-0.44878-0.24823-0.23687 0.67253 0.86167-0.69719
   7  -8  -3  741.53  111.17   1 0.49151 0.19895 0.21134-0.66327-0.84483 0.72144
  -7   8   3  852.28  239.23   1-0.48611-0.20417-0.20580 0.65673 0.84931-0.72595
  -7   8   2  328.30  167.15   1-0.52343-0.16014-0.17315 0.63935 0.83428-0.75204
   7  -8  -1   67.25  117.61   1 0.56532 0.11194 0.14440-0.62691-0.81212 0.77099
  -7   8   1  303.64  200.90   1-0.56028-0.11656-0.13912 0.62060 0.81653-0.77541
   7  -8   0  371.05  159.12   1 0.60140 0.06904 0.11022-0.60751-0.79130 0.79130
  -7   8   0  374.90  202.02   1-0.59573-0.07512-0.10319 0.59991 0.79652-0.79652
   7  -8   1 1041.23  265.23   1 0.63582 0.02801 0.07421-0.58672-0.76825 0.80930
   7  -8   2   30.81   89.49   1 0.66861-0.01138 0.03765-0.56538-0.74265 0.82474
   7  -8   3 4697.41  919.24   1 0.69945-0.04887 0.00078-0.54371-0.71468 0.83784
   7  -8   4 1738.56  303.68   1 0.72813-0.08417-0.03603-0.52212-0.68448 0.84870
   7  -8   5 -134.13  127.46   1 0.75445-0.11710-0.07257-0.50080-0.65233 0.85760
   7  -8   6  234.08  157.52   1 0.77745-0.14724-0.10980-0.47882-0.61928 0.86547
   7  -8   7  478.54  206.04   1 0.79874-0.17509-0.14512-0.45875-0.58391 0.87113
  -7   7  11 1124.80  251.04   1-0.16899-0.57082-0.42986 0.69657 0.88693-0.43467
  -7   7  10  326.98  253.10   1-0.19660-0.53647-0.41363 0.69562 0.88896-0.47781
  -7   7   9 1830.82  318.80   1-0.22659-0.49973-0.39538 0.69265 0.89012-0.52009
  -7   7   8  885.29  200.18   1-0.25884-0.46073-0.37500 0.68756 0.89015-0.56123
  -7   7   7   81.80  136.01   1-0.29317-0.41966-0.35244 0.68027 0.88872-0.60091
  -7   7   6  278.83  178.81   1-0.32914-0.37716-0.32731 0.67046 0.88573-0.63892
  -7   7   5  275.58  240.98   1-0.36682-0.33274-0.30032 0.65872 0.88047-0.67480
  -7   7   4   35.42  139.58   1-0.40566-0.28715-0.27117 0.64483 0.87286-0.70832
  -7   7   3 2874.56  329.04   1-0.44518-0.24116-0.23978 0.62862 0.86273-0.73937
   7  -7  -2 2856.91  600.49   1 0.48994 0.18989 0.21270-0.61769-0.84540 0.76315
  -7   7   2 2891.95  329.72   1-0.48503-0.19459-0.20673 0.61084 0.84970-0.76746
   7  -7  -1  -67.72  102.43   1 0.52942 0.14380 0.17787-0.59815-0.82949 0.78837
  -7   7   1   40.55  129.40   1-0.52467-0.14823-0.17203 0.59142 0.83374-0.79262
   7  -7   0  720.58  151.64   1 0.56818 0.09845 0.14166-0.57724-0.81061 0.81061
  -7   7   0  532.90  205.03   1-0.56360-0.10257-0.13597 0.57062 0.81477-0.81477
   7  -7   1  569.08  109.07   1 0.60597 0.05380 0.10557-0.55592-0.78844 0.82949
  -7   7  -1  637.20  193.97   1-0.60085-0.05932-0.09802 0.54787 0.79332-0.83445
   7  -7   2 1031.53  228.30   1 0.64188 0.01128 0.06763-0.53321-0.76381 0.84590
   7  -7   3 2785.28  492.23   1 0.67581-0.02925 0.02928-0.51008-0.73649 0.85962
   7  -7   4   73.22   97.73   1 0.70745-0.06755-0.00922-0.48677-0.70669 0.87091
   7  -7   5 1071.16  204.66   1 0.73660-0.10332-0.04747-0.46373-0.67465 0.87992
   7  -7   6 1183.53  263.58   1 0.76307-0.13640-0.08525-0.44118-0.64066 0.88698
   7  -7   7  711.13  196.08   1 0.78599-0.16637-0.12355-0.41819-0.60576 0.89299
   7  -7   8  905.41  298.49   1 0.80689-0.19385-0.15967-0.39732-0.56870 0.89696
   7  -7   9  102.09  140.67   1 0.82499-0.21852-0.19470-0.37755-0.53054 0.89983
  -7   6  12  936.93  252.80   1-0.09697-0.64560-0.47001 0.65994 0.87731-0.38427
  -7   6  11   79.27  146.71   1-0.12146-0.61436-0.45688 0.66204 0.88119-0.42923
  -7   6  10  198.85  138.40   1-0.14862-0.58045-0.44183 0.66223 0.88469-0.47382
  -7   6   9  243.53  151.11   1-0.17782-0.54459-0.42473 0.65989 0.88768-0.51764
  -7   6   8 1584.82  256.34   1-0.21024-0.50543-0.40541 0.65585 0.88962-0.56070
  -7   6   7  136.81  207.08   1-0.24509-0.46382-0.38379 0.64951 0.89029-0.60249
  -7   6   6 2473.81  307.20   1-0.28217-0.42000-0.35977 0.64077 0.88934-0.64265
  -7   6   5  177.17  150.18   1-0.32101-0.37460-0.33298 0.62928 0.88660-0.68093
  -7   6   4  246.00  139.39   1-0.36159-0.32728-0.30414 0.61570 0.88132-0.71679
  -7   6   3 1596.75  255.99   1-0.40330-0.27882-0.27299 0.59980 0.87339-0.74999
  -7   6   2   41.08  134.88   1-0.44561-0.23006-0.23944 0.58146 0.86260-0.78036
   7  -6  -1  233.64   81.87   1 0.49241 0.17677 0.21057-0.56863-0.84450 0.80337
  -7   6   1    5.04  132.92   1-0.48804-0.18091-0.20416 0.56145 0.84860-0.80748
   7  -6   0  -75.58  115.42   1 0.53424 0.12835 0.17348-0.54684-0.82733 0.82733
  -7   6   0   72.68  132.40   1-0.52999-0.13223-0.16722 0.53979 0.83134-0.83134
   7  -6   1  324.82  137.88   1 0.57519 0.08051 0.13624-0.52443-0.80658 0.84763
  -7   6  -1  517.51  174.71   1-0.57046-0.08566-0.12804 0.51581 0.81127-0.85240
   7  -6   2 1006.41  244.83   1 0.61436 0.03473 0.09692-0.50033-0.78304 0.86513
  -7   6  -2  857.28  196.20   1-0.60984-0.03966-0.08885 0.49183 0.78752-0.86978
   7  -6   3   32.00   76.83   1 0.65154-0.00905 0.05698-0.47562-0.75646 0.87960
   7  -6   4  296.57  159.22   1 0.68634-0.05050 0.01674-0.45058-0.72708 0.89130
   7  -6   5 3060.08  535.68   1 0.71847-0.08925-0.02332-0.42573-0.69516 0.90043
   7  -6   6 1994.85  309.57   1 0.74772-0.12511-0.06294-0.40133-0.66101 0.90734
   7  -6   7   71.68   84.20   1 0.77321-0.15763-0.10315-0.37645-0.62569 0.91292
   7  -6   8 2249.13  314.00   1 0.79639-0.18738-0.14105-0.35381-0.58809 0.91635
   7  -6   9  977.86  250.15   1 0.81652-0.21408-0.17778-0.33233-0.54925 0.91854
   7  -6  11   -4.29  124.68   1 0.84735-0.25842-0.24828-0.29264-0.46941 0.92063
  -7   5  12  151.95  191.19   1-0.05085-0.68782-0.49363 0.62142 0.86818-0.37513
  -7   5  11   79.89  134.78   1-0.07445-0.65747-0.48172 0.62476 0.87315-0.42119
  -7   5  10  -83.53  118.59   1-0.10092-0.62424-0.46792 0.62619 0.87798-0.46711
  -7   5   9  104.14  126.28   1-0.13030-0.58811-0.45204 0.62555 0.88242-0.51264
  -7   5   8  194.09  158.94   1-0.16201-0.54973-0.43387 0.62220 0.88628-0.55736
  -7   5   7 2617.93  351.21   1-0.19710-0.50790-0.41333 0.61693 0.88899-0.60118
  -7   5   6 2820.39  320.92   1-0.23483-0.46343-0.39025 0.60914 0.89025-0.64356
  -7   5   5  774.97  208.38   1-0.27492-0.41658-0.36455 0.59871 0.88967-0.68409
  -7   5   4 3584.52  336.89   1-0.31689-0.36804-0.33583 0.58529 0.88701-0.72247
  -7   5   3 3626.03  489.26   1-0.36059-0.31760-0.30487 0.56959 0.88148-0.75808
  -7   5   2  436.52  213.78   1-0.40535-0.26609-0.27142 0.55139 0.87293-0.79066
  -7   5   1   52.93  134.16   1-0.45055-0.21445-0.23543 0.53063 0.86114-0.82002
   7  -5   0  515.24  112.80   1 0.49940 0.15915 0.20453-0.51565-0.84188 0.84188
  -7   5   0  395.07  179.68   1-0.49558-0.16269-0.19767 0.50815 0.84576-0.84576
   7  -5   1  865.03  214.85   1 0.54350 0.10845 0.16496-0.49138-0.82303 0.86416
  -7   5  -1  664.67  184.45   1-0.53980-0.11175-0.15826 0.48400 0.82677-0.86789
   7  -5   2 6534.54 1366.28   1 0.58622 0.05881 0.12543-0.46668-0.80037 0.88246
  -7   5  -2 7074.08  772.03   1-0.58215-0.06329-0.11667 0.45756 0.80466-0.88692
   7  -5   3 1023.53  191.74   1 0.62682 0.01159 0.08384-0.44031-0.77463 0.89776
  -7   5  -3  709.52  193.70   1-0.62292-0.01591-0.07524 0.43135 0.77865-0.90204
   7  -5   4  263.10  123.29   1 0.66496-0.03314 0.04184-0.41353-0.74570 0.90988
   7  -5   5  296.68  126.87   1 0.70026-0.07510-0.00022-0.38667-0.71388 0.91915
   7  -5   6  -15.17   85.62   1 0.73245-0.11390-0.04183-0.36028-0.67953 0.92585
   7  -5   7 1264.14  224.84   1 0.76135-0.14942-0.08269-0.33464-0.64303 0.93042
   7  -5   8 1992.43  300.46   1 0.78619-0.18121-0.12388-0.30883-0.60543 0.93369
   7  -5   9  232.91  211.74   1 0.80839-0.20998-0.16242-0.28555-0.56578 0.93507
   7  -5  10 1452.48  266.34   1 0.82731-0.23547-0.19953-0.26370-0.52509 0.93542
   7  -5  11  169.71  143.70   1 0.84254-0.25760-0.23620-0.24259-0.48407 0.93530
   7  -5  12  561.66  284.49   1 0.85530-0.27706-0.27011-0.22396-0.44213 0.93438
  -7   4  13   29.70  137.55   1 0.01317-0.75432-0.52426 0.57475 0.85145-0.31725
  -7   4  12  266.64  212.03   1-0.00656-0.72819-0.51496 0.58062 0.85718-0.36414
  -7   4  11  -14.76  134.26   1-0.02905-0.69896-0.50430 0.58520 0.86303-0.41108
  -7   4  10  400.81  187.10   1-0.05458-0.66668-0.49177 0.58791 0.86900-0.45814
  -7   4   9 2291.77  272.97   1-0.08325-0.63126-0.47719 0.58857 0.87484-0.50506
  -7   4   8 3017.45  354.04   1-0.11509-0.59267-0.46034 0.58695 0.88024-0.55155
  -7   4   710646.76 4580.82   1-0.15007-0.55094-0.44102 0.58287 0.88485-0.59725
  -7   4   6 4047.23  367.85   1-0.18765-0.50669-0.41895 0.57572 0.88840-0.64171
  -7   4   5  532.68  177.36   1-0.22855-0.45905-0.39416 0.56622 0.89016-0.68459
  -7   4   4 1015.92  249.56   1-0.27197-0.40888-0.36648 0.55382 0.88978-0.72532
  -7   4   3  239.61  139.61   1-0.31735-0.35690-0.33551 0.53813 0.88696-0.76356
  -7   4   2  119.11  131.35   1-0.36442-0.30309-0.30208 0.51996 0.88087-0.79860
  -7   4   1 2966.39  350.34   1-0.41239-0.24837-0.26598 0.49912 0.87130-0.83017
  -7   4   0 1257.61  300.95   1-0.46056-0.19377-0.22723 0.47561 0.85804-0.85804
   7  -4   1  786.66  127.74   1 0.51138 0.13653 0.19402-0.45822-0.83716 0.87828
  -7   4  -1  310.24  200.27   1-0.50817-0.13943-0.18670 0.45036 0.84077-0.88189
   7  -4   2 2800.89  541.28   1 0.55763 0.08368 0.15173-0.43121-0.81610 0.89835
  -7   4  -2 3278.77  341.07   1-0.55450-0.08638-0.14458 0.42351 0.81952-0.90176
   7  -4   3  240.13   88.79   1 0.60186 0.03249 0.10975-0.40407-0.79101 0.91415
  -7   4  -3  276.18  149.60   1-0.59848-0.03629-0.10042 0.39444 0.79481-0.91820
   7  -4   4  512.26  159.04   1 0.64354-0.01579 0.06581-0.37534-0.76256 0.92674
   7  -4   5 4544.06  788.30   1 0.68222-0.06112 0.02165-0.34640-0.73082 0.93609
   7  -4   6  129.62   50.48   1 0.71751-0.10303-0.02208-0.31787-0.69618 0.94251
   7  -4   7  439.52  105.80   1 0.74922-0.14135-0.06507-0.29011-0.65911 0.94649
   7  -4   8  308.05  145.95   1 0.77656-0.17561-0.10839-0.26219-0.62064 0.94890
   7  -4   9 1061.85  218.94   1 0.80087-0.20649-0.14887-0.23697-0.58002 0.94931
   7  -4  10 1079.58  245.25   1 0.82158-0.23377-0.18776-0.21333-0.53827 0.94859
   7  -4  11 2298.70  313.44   1 0.83829-0.25734-0.22610-0.19055-0.49611 0.94734
   7  -4  12   34.73  127.69   1 0.85226-0.27801-0.26145-0.17049-0.45307 0.94532
   7  -4  13 1661.33  312.30   1 0.86314-0.29558-0.29497-0.15226-0.40983 0.94310
  -7   3  13   29.12  138.68   1 0.05389-0.79115-0.54217 0.53052 0.83853-0.30434
  -7   3  12   44.23  149.56   1 0.03573-0.76625-0.53433 0.53791 0.84451-0.35142
  -7   3  11  -40.35  127.64   1 0.01455-0.73834-0.52489 0.54371 0.85104-0.39903
  -7   3  10 -107.18  126.89   1-0.00999-0.70736-0.51336 0.54736 0.85811-0.44724
  -7   3   9  660.09  187.62   1-0.03768-0.67292-0.50011 0.54936 0.86513-0.49535
  -7   3   810122.99 4358.20   1-0.06880-0.63505-0.48461 0.54909 0.87201-0.54332
  -7   3   7  517.30  179.78   1-0.10340-0.59370-0.46660 0.54633 0.87839-0.59079
  -7   3   6  442.79  189.50   1-0.14144-0.54891-0.44586 0.54082 0.88385-0.63733
  -7   3   5   13.79  127.42   1-0.18243-0.50125-0.42202 0.53196 0.88803-0.68246
  -7   3   4  293.22  201.80   1-0.22688-0.45006-0.39520 0.52042 0.89013-0.72567
  -7   3   3   75.02  135.83   1-0.27398-0.39621-0.36517 0.50567 0.88970-0.76636
  -7   3   2  175.62  133.56   1-0.32310-0.34046-0.33153 0.48731 0.88639-0.80412
  -7   3   121572.80  617.61   1-0.37377-0.28305-0.29521 0.46624 0.87928-0.83814
  -7   3   0  120.35  176.56   1-0.42511-0.22497-0.25605 0.44234 0.86816-0.86816
   7  -3   1 1014.30  213.06   1 0.47885 0.16501 0.22213-0.42410-0.84932 0.89045
  -7   3  -1  961.00  190.14   1-0.47625-0.16741-0.21417 0.41572 0.85282-0.89394
   7  -3   2   25.60  105.44   1 0.52888 0.10839 0.17835-0.39562-0.82973 0.91199
  -7   3  -2   -8.82  121.22   1-0.52630-0.11063-0.17056 0.38739 0.83301-0.91525
   7  -3   3 8920.26 1116.34   1 0.57689 0.05340 0.13459-0.36674-0.80565 0.92878
  -7   3  -310101.70  470.68   1-0.57415-0.05656-0.12447 0.35640 0.80922-0.93261
   7  -3   4 3425.21  530.64   1 0.62236 0.00132 0.08856-0.33594-0.77770 0.94188
  -7   3  -4 3622.75  340.00   1-0.61967-0.00443-0.07865 0.32580 0.78090-0.94542
   7  -3   5 3326.47  465.09   1 0.66461-0.04753 0.04224-0.30483-0.74599 0.95121
   7  -3   6  975.76  242.30   1 0.70323-0.09281-0.00391-0.27388-0.71094 0.95727
   7  -3   7  -54.82  108.68   1 0.73788-0.13407-0.04922-0.24379-0.67313 0.96051
   7  -3   8  252.02  102.56   1 0.76782-0.17089-0.09486-0.21359-0.63359 0.96185
   7  -3   9  288.00  159.78   1 0.79427-0.20392-0.13742-0.18628-0.59180 0.96109
   7  -3  10  337.15  218.62   1 0.81674-0.23296-0.17821-0.16075-0.54878 0.95910
   7  -3  11  758.59  199.42   1 0.83488-0.25791-0.21829-0.13623-0.50528 0.95651
   7  -3  12 1625.91  245.00   1 0.84994-0.27967-0.25512-0.11469-0.46097 0.95321
   7  -3  13  918.15  232.09   1 0.86166-0.29808-0.28991-0.09518-0.41651 0.94978
   7  -3  14  742.89  235.47   1 0.87020-0.31242-0.32348-0.07782-0.37161 0.94674
  -7   2  13  860.44  255.71   1 0.09197-0.82533-0.55791 0.48412 0.82478-0.29059
  -7   2  12  521.39  248.30   1 0.07534-0.80197-0.55116 0.49261 0.83098-0.33788
  -7   2  11  119.52  129.81   1 0.05564-0.77553-0.54292 0.49960 0.83793-0.38592
  -7   2  10 1225.25  241.98   1 0.03265-0.74580-0.53297 0.50489 0.84550-0.43458
  -7   2   9  -78.77  131.66   1 0.00617-0.71258-0.52107 0.50823 0.85348-0.48366
  -7   2   8 5190.45  399.65   1-0.02415-0.67579-0.50665 0.50900 0.86181-0.53311
  -7   2   710460.21 4501.19   1-0.05806-0.63514-0.49003 0.50762 0.86976-0.58215
  -7   2   6  -37.76  129.49   1-0.09579-0.59065-0.47063 0.50346 0.87711-0.63059
  -7   2   5   73.67  133.89   1-0.13731-0.54239-0.44816 0.49623 0.88334-0.67790
  -7   2   4  100.11  125.84   1-0.18215-0.49086-0.42219 0.48529 0.88801-0.72355
  -7   2   3 1406.44  257.80   1-0.23059-0.43568-0.39289 0.47128 0.89020-0.76685
  -7   2   2 1290.11  267.65   1-0.28179-0.37774-0.36002 0.45369 0.88936-0.80713
  -7   2   1 1583.26  228.69   1-0.33499-0.31789-0.32320 0.43214 0.88505-0.84391
   7  -2  -1 1335.87  297.00   1 0.21824 0.43426-0.87434 0.76564 0.43346-0.47454
  -7   2   0 7566.42  588.11   1-0.38949-0.25664-0.28348 0.40768 0.87631-0.87631
   7  -2   0 6376.09  717.82   1 0.15876 0.48729-0.91791 0.79392 0.36362-0.36362
  -7   2  -1 6396.70  519.13   1-0.44428-0.19542-0.24051 0.37997 0.86299-0.90411
   7  -2   2  248.83   76.29   1 0.50017 0.13306 0.20386-0.35889-0.84158 0.92384
  -7   2  -2  303.74  147.30   1-0.49826-0.13473-0.19536 0.35010 0.84472-0.92696
   7  -2   3  602.24  184.37   1 0.55240 0.07423 0.15666-0.32699-0.81872 0.94210
  -7   2  -3  308.75  129.20   1-0.55046-0.07580-0.14837 0.31838 0.82156-0.94492
   7  -2   4 6667.61  978.64   1 0.60171 0.01791 0.10991-0.29512-0.79111 0.95529
  -7   2  -4 6566.97  537.69   1-0.59974-0.02030-0.09915 0.28420 0.79402-0.95854
   7  -2   5 1648.62  240.61   1 0.64781-0.03480 0.06111-0.26154-0.75933 0.96456
   7  -2   6 2023.64  290.45   1 0.68996-0.08361 0.01237-0.22802-0.72373 0.97005
   7  -2   7 3109.14  479.89   1 0.72771-0.12797-0.03548-0.19538-0.68495 0.97234
   7  -2   8   73.75   43.63   1 0.76091-0.16778-0.08204-0.16404-0.64364 0.97207
   7  -2   9 3036.09  271.70   1 0.78895-0.20263-0.12845-0.13312-0.60087 0.97016
   7  -2  10 1822.32  248.48   1 0.81312-0.23337-0.17127-0.10555-0.55631 0.96664
   7  -2  11   62.51  117.45   1 0.83258-0.25959-0.21317-0.07922-0.51123 0.96246
   7  -2  12   95.04  170.88   1 0.84859-0.28230-0.25152-0.05616-0.46543 0.95767
   7  -2  13  247.89  202.54   1 0.86095-0.30136-0.28758-0.03538-0.41958 0.95285
   7  -2  14 1442.11  308.49   1 0.86991-0.31613-0.32218-0.01692-0.37343 0.94856
   7  -2  15 2300.99  335.80   1 0.87585-0.32864-0.35375-0.00068-0.32823 0.94445
  -7   1  13  368.39  208.31   1 0.12714-0.85661-0.57156 0.43564 0.81064-0.27645
  -7   1  12  -88.98  139.18   1 0.11214-0.83487-0.56584 0.44516 0.81684-0.32374
  -7   1  11  209.83  204.12   1 0.09404-0.81003-0.55873 0.45328 0.82399-0.37198
  -7   1  10  -35.32  126.50   1 0.07258-0.78183-0.55002 0.45980 0.83198-0.42107
  -7   1   9  206.93  210.73   1 0.04752-0.75004-0.53945 0.46447 0.84067-0.47085
  -7   1   8  889.50  247.89   1 0.01863-0.71441-0.52673 0.46698 0.84982-0.52109
  -7   1   7   15.86  130.39   1-0.01450-0.67478-0.51124 0.46670 0.85931-0.57170
  -7   1   6  574.20  198.54   1-0.05161-0.63092-0.49325 0.46395 0.86835-0.62183
  -7   1   5  -67.05  123.35   1-0.09296-0.58283-0.47212 0.45806 0.87661-0.67118
  -7   1   4 2108.79  267.42   1-0.13847-0.53057-0.44752 0.44869 0.88348-0.71913
  -7   1   3 1051.68  206.22   1-0.18772-0.47464-0.41891 0.43518 0.88840-0.76506
  -7   1   2  344.51  165.90   1-0.24066-0.41495-0.38658 0.41814 0.89029-0.80806
  -7   1   1  387.78  168.82   1-0.29641-0.35246-0.35027 0.39710 0.88851-0.84739
   7  -1  -1  388.67   98.25   1 0.30381 0.34458-0.79114 0.74441 0.53084-0.57192
  -7   1   0  106.38  155.15   1-0.35404-0.28816-0.30962 0.37171 0.88248-0.88248
   7  -1   0   94.94   86.46   1 0.24135 0.40038-0.85437 0.79240 0.46019-0.46019
  -7   1  -1   44.12  111.63   1-0.41253-0.22292-0.26588 0.34323 0.87127-0.91241
   7  -1   1   46.37   51.29   1 0.18886 0.44648-0.89714 0.81995 0.39932-0.35823
   7  -1   2 2032.26  248.90   1 0.47180 0.15739 0.22806-0.32087-0.85169 0.93395
  -7   1  -2 1608.76  240.18   1-0.47069-0.15835-0.21883 0.31147 0.85472-0.93696
   7  -1   2 1665.14  373.63   1 0.14495 0.48372-0.92655 0.83416 0.34710-0.26491
   7  -1   3  119.46   48.87   1 0.52843 0.09417 0.17877-0.28687-0.82994 0.95332
  -7   1  -3   59.37  110.80   1-0.52722-0.09510-0.16973 0.27765 0.83260-0.95596
   7  -1   414238.57 1533.65   1 0.58199 0.03356 0.12960-0.25265-0.80279 0.96697
  -7   1  -415030.43 1002.02   1-0.58088-0.03509-0.11792 0.24088 0.80539-0.96991
   7  -1   5 2030.69  324.78   1 0.63225-0.02330 0.07805-0.21632-0.77081 0.97604
   7  -1   6  718.54  138.94   1 0.67812-0.07579 0.02656-0.18005-0.73446 0.98073
   7  -1   752983.9610201.99   1 0.71918-0.12350-0.02425-0.14445-0.69439 0.98177
   7  -1   8 1550.16  280.01   1 0.75509-0.16602-0.07350-0.11042-0.65148 0.97991
   7  -1   9  212.00  155.43   1 0.78532-0.20303-0.12246-0.07697-0.60685 0.97614
   7  -1  10 1080.31  216.26   1 0.81109-0.23537-0.16744-0.04724-0.56043 0.97075
   7  -1  11   12.62  107.63   1 0.83170-0.26270-0.21125-0.01901-0.51346 0.96468
   7  -1  12  262.66  165.33   1 0.84844-0.28613-0.25112 0.00557-0.46592 0.95817
   7  -1  13  -68.83  115.92   1 0.86120-0.30560-0.28841 0.02757-0.41849 0.95175
   7  -1  14  205.71  192.67   1 0.87031-0.32054-0.32398 0.04707-0.37093 0.94606
   7  -1  15  137.18  190.24   1 0.87621-0.33301-0.35627 0.06402-0.32453 0.94074
   7  -1  16  434.72  260.76   1 0.87921-0.34259-0.38625 0.07867-0.27888 0.93618
  -7   0  13  154.36  152.54   1 0.15935-0.88469-0.58353 0.38546 0.79630-0.26215
  -7   0  12  504.96  205.30   1 0.14585-0.86469-0.57848 0.39566 0.80254-0.30944
  -7   0  11 1005.85  266.79   1 0.12943-0.84153-0.57242 0.40484 0.80967-0.35766
  -7   0  10 5086.28  421.57   1 0.10963-0.81499-0.56487 0.41252 0.81786-0.40694
  -7   0   9 3949.42  363.96   1 0.08616-0.78478-0.55557 0.41846 0.82698-0.45716
  -7   0   8 7702.78  495.82   1 0.05872-0.75060-0.54422 0.42234 0.83688-0.50814
  -7   0   7  336.43  153.68   1 0.02702-0.71216-0.53048 0.42384 0.84726-0.55962
  -7   0   6  215.75  147.41   1-0.00939-0.66924-0.51364 0.42221 0.85795-0.61143
  -7   0   5  267.44  128.69   1-0.05024-0.62164-0.49393 0.41774 0.86804-0.66261
  -7   0   4  163.48  109.89   1-0.09581-0.56932-0.47062 0.40967 0.87711-0.71276
  -7   0   3 4485.28  405.83   1-0.14596-0.51242-0.44333 0.39761 0.88439-0.76113
  -7   0   2 1221.77  248.46   1-0.20027-0.45143-0.41143 0.38087 0.88916-0.80693
  -7   0   1  765.01  193.44   1-0.25833-0.38662-0.37533 0.36005 0.89016-0.84904
   7   0  -1  582.72  133.39   1 0.37901 0.26519-0.69271 0.70787 0.61359-0.65466
  -7   0   0  -77.96  107.74   1-0.31913-0.31913-0.33428 0.33428 0.88679-0.88679
   7   0   0   61.51   35.99   1 0.31875 0.31875-0.77276 0.77276 0.54885-0.54885
  -7   0  -1  -14.05   99.61   1-0.38145-0.25005-0.28950 0.30476 0.87787-0.91901
   7   0   1  -57.70   56.13   1 0.26517 0.36581-0.83193 0.81667 0.48741-0.44633
  -7   0  -2  108.69   76.93   1-0.44401-0.18107-0.24073 0.27128 0.86307-0.94531
   7   0   2  256.27  113.38   1 0.21852 0.40581-0.87411 0.84361 0.43379-0.35162
   7   0   3 6506.91  881.89   1 0.50552 0.11304 0.19919-0.24506-0.83950 0.96289
  -7   0  -3 6867.93  496.48   1-0.50518-0.11318-0.18933 0.23515 0.84198-0.96534
   7   0   3 5214.10  546.26   1 0.17891 0.43905-0.90430 0.85870 0.38758-0.26430
   7   0   4   61.62   71.68   1 0.56418 0.04777 0.14550-0.20667-0.81272 0.97724
  -7   0  -4    1.70  101.11   1-0.56366-0.04798-0.13591 0.19701 0.81474-0.97922
   7   0   4   46.10   71.00   1 0.14521 0.46608-0.92639 0.86559 0.34741-0.18304
   7   0   5 7291.16 1247.70   1 0.61845-0.01356 0.09266-0.16877-0.78033 0.98556
  -7   0  -5 7530.82  580.22   1-0.61812 0.01281-0.08027 0.15636 0.78196-0.98761
   7   0   6  154.30   87.04   1 0.66837-0.07009 0.03792-0.12926-0.74286 0.98912
   7   0   7 5722.27  909.38   1 0.71287-0.12125-0.01609-0.09044-0.70111 0.98849
   7   0   8  191.21   69.50   1 0.75152-0.16652-0.06835-0.05340-0.65615 0.98459
   7   0   9  283.26  136.25   1 0.78387-0.20561-0.12009-0.01720-0.60919 0.97848
   7   0  10   21.63   95.83   1 0.81106-0.23937-0.16738 0.01483-0.56049 0.97081
   7   0  11 2427.73  257.84   1 0.83257-0.26755-0.21315 0.04502-0.51126 0.96249
   7   0  12 6052.32  434.76   1 0.84972-0.29141-0.25453 0.07111-0.46170 0.95395
   7   0  13  132.30  191.75   1 0.86257-0.31095-0.29298 0.09428-0.41247 0.94573
   7   0  14  341.67  200.51   1 0.87148-0.32571-0.32938 0.11467-0.36335 0.93848
   7   0  15   15.21  128.06   1 0.87700-0.33781-0.36222 0.13218-0.31567 0.93188
   7   0  16 1182.61  205.26   1 0.87952-0.34690-0.39254 0.14716-0.26899 0.92628
   7   0  17  -90.37  130.35   1 0.87910-0.35309-0.42082 0.16072-0.22379 0.92167
  -7  -1  12   57.42  137.64   1 0.17641-0.89116-0.58946 0.34447 0.78829-0.29523
  -7  -1  11   83.28  137.79   1 0.16171-0.86973-0.58436 0.35460 0.79521-0.34324
  -7  -1  10  379.90  263.16   1 0.14347-0.84494-0.57762 0.36313 0.80359-0.39268
  -7  -1   9 1674.42  277.85   1 0.12170-0.81643-0.56951 0.37026 0.81292-0.44309
  -7  -1   8    5.22  140.35   1 0.09587-0.78386-0.55946 0.37545 0.82328-0.49455
  -7  -1   7 1348.06  254.19   1 0.06562-0.74687-0.54712 0.37835 0.83447-0.54683
  -7  -1   6 1081.08  268.25   1 0.03061-0.70512-0.53207 0.37853 0.84614-0.59959
  -7  -1   5  269.28  108.37   1-0.00968-0.65829-0.51350 0.37518 0.85802-0.65259
  -7  -1   4  444.18  162.88   1-0.05497-0.60625-0.49158 0.36849 0.86909-0.70474
  -7  -1   3   17.29  101.30   1-0.10553-0.54894-0.46547 0.35762 0.87874-0.75548
  -7  -1   2   10.64  100.97   1-0.16110-0.48668-0.43439 0.34172 0.88619-0.80396
   7   1  -2   39.11   50.00   1 0.49553 0.15150-0.47758 0.56993 0.72550-0.80760
  -7  -1   1 2544.45  303.00   1-0.22130-0.41974-0.39865 0.32125 0.89000-0.84888
   7   1  -1 2757.81  261.24   1 0.44075 0.19985-0.59170 0.66884 0.67499-0.71603
  -7  -1   023576.38 1285.18   1-0.28515-0.34914-0.35780 0.29568 0.88919-0.88919
   7   1   020480.80 1136.51   1 0.38645 0.24705-0.68157 0.74354 0.62137-0.62137
  -7  -1  -1 3564.23  322.02   1-0.35150-0.27607-0.31144 0.26460 0.88286-0.92399
   7   1   1 2760.19  456.29   1 0.33550 0.29129-0.75218 0.79899 0.56714-0.52606
   7   1   2  285.19   76.84   1 0.28915 0.33106-0.80727 0.83874 0.51448-0.43231
   7   1   3  886.98  139.01   1 0.48423 0.13028 0.21757-0.20123-0.84745 0.97084
  -7  -1  -3  970.78  153.18   1-0.48494-0.12948-0.20681 0.19054 0.84974-0.97310
   7   1   3  797.11  152.48   1 0.24786 0.36570-0.84843 0.86465 0.46767-0.34441
   7   1   4   30.42   73.19   1 0.54807 0.05984 0.16071-0.15965-0.82084 0.98535
  -7  -1  -4  -23.12   83.99   1-0.54849-0.05920-0.15021 0.14922 0.82254-0.98702
   7   1   4   39.73   65.69   1 0.21178 0.39513-0.87961 0.88058 0.42594-0.26160
   7   1   5 6495.25  931.84   1 0.60711-0.00628 0.10440-0.11835-0.78772 0.99295
  -7  -1  -5 7394.39  503.67   1-0.60787 0.00662-0.09087 0.10487 0.78881-0.99446
   7   1   5 5726.76  991.28   1 0.18108 0.41950-0.90277 0.88876 0.39014-0.18467
   7   1   6 8462.00 1070.81   1 0.66138-0.06716 0.04592-0.07509-0.74864 0.99491
   7   1   6 8078.71 1270.35   1 0.15466 0.43925-0.92053 0.89133 0.35873-0.11217
   7   1   7 2251.68  450.95   1 0.70948-0.12192-0.01178-0.03260-0.70462 0.99200
   7   1   7 2166.98  260.43   1 0.13247 0.45477-0.93389 0.88949 0.33208-0.04443
   7   1   8  210.06   88.36   1 0.75087-0.16993-0.06743 0.00782-0.65698 0.98542
   7   1   9 2774.31  272.97   1 0.78518-0.21095-0.12223 0.04707-0.60707 0.97636
   7   1  10  422.57  148.91   1 0.81350-0.24583-0.17198 0.08156-0.55555 0.96587
   7   1  11  169.65  122.80   1 0.83551-0.27448-0.21973 0.11373-0.50361 0.95484
   7   1  12  271.19  135.14   1 0.85266-0.29832-0.26255 0.14126-0.45170 0.94395
   7   1  13 3440.54  337.21   1 0.86512-0.31748-0.30199 0.16542-0.40045 0.93372
   7   1  14 1324.17  223.58   1 0.87338-0.33162-0.33901 0.18651-0.34965 0.92478
   7   1  15  146.92  168.51   1 0.87812-0.34293-0.37217 0.20433-0.30065 0.91686
   7   1  16  382.12  191.07   1 0.87975-0.35113-0.40254 0.21936-0.25296 0.91026
   7   1  17  260.69  189.70   1 0.87842-0.35639-0.43073 0.23286-0.20697 0.90485
  -7  -2  12  -69.20  120.26   1 0.20328-0.91416-0.59838 0.29122 0.77498-0.28193
  -7  -2  11  135.62  153.45   1 0.19031-0.89445-0.59414 0.30221 0.78152-0.32955
  -7  -2  10  132.95  124.16   1 0.17400-0.87141-0.58863 0.31195 0.78944-0.37856
  -7  -2   9   79.66  117.50   1 0.15399-0.84468-0.58162 0.32017 0.79874-0.42895
  -7  -2   8  118.70  129.70   1 0.12971-0.81380-0.57253 0.32638 0.80955-0.48082
  -7  -2   7 1020.09  248.63   1 0.10106-0.77842-0.56152 0.33061 0.82126-0.53362
  -7  -2   6   12.11  106.20   1 0.06744-0.73806-0.54788 0.33221 0.83382-0.58727
  -7  -2   5   75.79  109.77   1 0.02843-0.69231-0.53111 0.33067 0.84682-0.64136
  -7  -2   4  337.38  138.52   1-0.01653-0.64079-0.51028 0.32506 0.85984-0.69550
  -7  -2   3  127.43  136.06   1-0.06718-0.58339-0.48543 0.31545 0.87168-0.74842
   7   2  -3   13.48   42.42   1 0.57110 0.07879-0.24529 0.41482 0.78337-0.90648
  -7  -2   2  361.66  110.04   1-0.12372-0.52009-0.45565 0.30090 0.88151-0.79934
   7   2  -2  323.82   96.91   1 0.53289 0.11025-0.37918 0.53356 0.75646-0.83854
  -7  -2   115132.63  982.97   1-0.18587-0.45125-0.42000 0.28049 0.88828-0.84716
   7   2  -114232.52  909.95   1 0.48899 0.14735-0.49298 0.63219 0.71961-0.76066
  -7  -2   013996.63  920.34   1-0.25276-0.37762-0.37891 0.25468 0.89024-0.89024
   7   2   012337.97  798.44   1 0.44287 0.18708-0.58774 0.71174 0.67706-0.67706
  -7  -2  -1  211.04  111.19   1-0.32326-0.30037-0.33142 0.22248 0.88637-0.92750
   7   2   1  194.38  100.42   1 0.39728 0.22598-0.66615 0.77501 0.63119-0.59015
  -7  -2  -2  158.06  118.67   1-0.39537-0.22151-0.27903 0.18535 0.87510-0.95737
   7   2   2   82.41   38.81   1 0.35325 0.26285-0.72902 0.82265 0.58628-0.50413
  -7  -2  -3  445.01  123.30   1-0.46721-0.14325-0.22172 0.14336 0.85588-0.97924
   7   2   3  426.13   95.11   1 0.31291 0.29648-0.77964 0.85811 0.54244-0.41920
   7   2   4 1239.51  219.08   1 0.53486 0.06902 0.17292-0.10964-0.82705 0.99157
  -7  -2  -4 1263.81  179.26   1-0.53639-0.06736-0.16139 0.09830 0.82839-0.99287
   7   2   4 1165.97  216.37   1 0.27642 0.32638-0.82062 0.88356 0.50016-0.33583
   7   2   5  777.56  154.14   1 0.59913-0.00237 0.11253-0.06431-0.79270 0.99792
  -7  -2  -5  713.58  133.06   1-0.60119 0.00400-0.09768 0.04959 0.79311-0.99876
   7   2   5  607.20  121.03   1 0.24394 0.35221-0.85203 0.89972 0.46317-0.25775
   7   2   6 4203.16  632.58   1 0.65811-0.06796 0.04962-0.01663-0.75127 0.99754
   7   2   6 4455.34  651.83   1 0.21550 0.37400-0.87659 0.90903 0.43027-0.18377
   7   2   7 8606.24 1082.70   1 0.70996-0.12646-0.01239 0.03016-0.70413 0.99151
   7   2   7 8093.00  874.69   1 0.19138 0.39182-0.89527 0.91286 0.40230-0.11464
   7   2   8  917.65  183.00   1 0.75399-0.17711-0.07191 0.07446-0.65293 0.98136
   7   2   8  799.08  200.34   1 0.17047 0.40606-0.91014 0.91253 0.37758-0.04883
   7   2   9 7437.41  335.28   1 0.78994-0.21973-0.13009 0.11707-0.59921 0.96850
   7   2   9 6492.58  923.27   1 0.15291 0.41695-0.92163 0.90883 0.35664 0.01319
   7   2  10 3460.04  264.41   1 0.81889-0.25525-0.18241 0.15413-0.54418 0.95450
   7   2  10 3102.18  301.96   1 0.13841 0.42478-0.93045 0.90245 0.33924 0.07168
   7   2  12   63.77   92.30   1 0.85734-0.30699-0.27617 0.21702-0.43439 0.92663
   7   2  13  537.79  131.93   1 0.86875-0.32443-0.31721 0.24225-0.38031 0.91436
   7   2  14  287.88  198.99   1 0.87583-0.33808-0.35365 0.26335-0.32838 0.90351
   7   2  15  160.44  174.84   1 0.87924-0.34806-0.38675 0.28111-0.27811 0.89432
   7   2  16 2474.76  303.03   1 0.87926-0.35462-0.41725 0.29691-0.22978 0.88661
   7   2  17   28.14  112.37   1 0.87688-0.35882-0.44452 0.30888-0.18293 0.88081
   7   2  18   39.71  123.26   1 0.87221-0.36071-0.46933 0.31839-0.13771 0.87664
  -7  -3  11   35.81  131.20   1 0.21517-0.91545-0.60216 0.24807 0.76882-0.31686
  -7  -3  10   53.62  113.69   1 0.20061-0.89415-0.59752 0.25866 0.77635-0.36547
  -7  -3   9  347.38  180.29   1 0.18237-0.86919-0.59148 0.26787 0.78541-0.41562
  -7  -3   8  793.35  188.80   1 0.16003-0.84012-0.58377 0.27539 0.79598-0.46728
  -7  -3   7 1347.01  262.06   1 0.13291-0.80637-0.57372 0.28068 0.80818-0.52054
  -7  -3   6  299.27  136.77   1 0.10084-0.76756-0.56143 0.28362 0.82135-0.57480
  -7  -3   5   20.91   94.03   1 0.06310-0.72308-0.54607 0.28349 0.83535-0.62990
  -7  -3   4 2342.14  319.62   1 0.01919-0.67243-0.52698 0.27964 0.84965-0.68529
  -7  -3   3  342.47  117.11   1-0.03153-0.61513-0.50310 0.27098 0.86365-0.74039
   7   3  -3  507.18  132.58   1 0.58799 0.05839-0.17059 0.40233 0.79067-0.91362
  -7  -3   2 1079.20  169.83   1-0.08876-0.55115-0.47432 0.25745 0.87586-0.79368
   7   3  -2  720.65  131.00   1 0.55958 0.07961-0.29070 0.50712 0.77611-0.85818
  -7  -3   1  771.89  163.71   1-0.15259-0.48057-0.43959 0.23796 0.88513-0.84405
   7   3  -1  624.26  141.44   1 0.52545 0.10694-0.39959 0.60083 0.75114-0.79219
  -7  -3   0  761.71  143.02   1-0.22261-0.40385-0.39784 0.21150 0.89003-0.89003
   7   3   0  908.57  162.95   1 0.48787 0.13777-0.49556 0.68163 0.71860-0.71860
  -7  -3  -1 1389.79  219.40   1-0.29745-0.32224-0.34909 0.17805 0.88862-0.92976
   7   3   1 1564.04  211.93   1 0.44853 0.17076-0.57697 0.74784 0.68257-0.64153
  -7  -3  -2 1636.08  207.61   1-0.37497-0.23797-0.29432 0.13854 0.87906-0.96133
   7   3   2 1446.21  214.51   1 0.40961 0.20299-0.64629 0.80201 0.64383-0.56175
  -7  -3  -3 1467.92  188.17   1-0.45300-0.15351-0.23343 0.09298 0.86040-0.98376
   7   3   3 1435.82  257.65   1 0.37148 0.23392-0.70367 0.84411 0.60567-0.48244
   7   3   4  900.41  152.50   1 0.52563 0.07420 0.18130-0.05579-0.83116 0.99568
  -7  -3  -4  784.52  123.75   1-0.52849-0.07131-0.16858 0.04340 0.83202-0.99650
   7   3   4  728.58  157.35   1 0.33631 0.26240-0.75116 0.87644 0.56802-0.40371
   7   3   5  925.20  189.30   1 0.59575-0.00305 0.11593-0.00556-0.79475 0.99997
  -7  -3  -5 1064.50  143.58   1-0.59934 0.00622-0.09955-0.01062 0.79427-0.99992
   7   3   5  885.47  181.58   1 0.30404 0.28800-0.79087 0.90054 0.53110-0.32568
   7   3   6  530.41  136.41   1 0.65986-0.07377 0.04764 0.04750-0.74987 0.99614
   7   3   6  537.60  141.97   1 0.27492 0.31047-0.82216 0.91658 0.49846-0.25195
   7   3   7  189.02   69.71   1 0.71552-0.13609-0.01951 0.09944-0.69831 0.98569
   7   3   7  424.96  118.67   1 0.24906 0.32967-0.84732 0.92649 0.46904-0.18146
   7   3   8 1567.34  238.66   1 0.76191-0.18909-0.08352 0.14823-0.64227 0.97070
   7   3   8 1839.42  386.03   1 0.22644 0.34564-0.86746 0.93137 0.44298-0.11431
   7   3   9 1357.33  188.94   1 0.79891-0.23274-0.14543 0.19453-0.58359 0.95288
   7   3   9 1400.68  261.53   1 0.20742 0.35840-0.88297 0.93215 0.42111-0.05127
   7   3  1020144.67  520.77   1 0.82771-0.26810-0.20036 0.23421-0.52416 0.93448
   7   3  1017903.61 1099.36   1 0.19085 0.36830-0.89567 0.92965 0.40167 0.00925
   7   3  11  318.15  155.96   1 0.84869-0.29562-0.25178 0.27004-0.46511 0.91633
   7   3  11  223.90  154.58   1 0.17701 0.37547-0.90564 0.92442 0.38533 0.06669
   7   3  12   11.08   90.01   1 0.86365-0.31729-0.29675 0.29973-0.40746 0.89971
   7   3  12  122.66  123.92   1 0.16569 0.38012-0.91336 0.91695 0.37189 0.12122
   7   3  13   28.34   91.49   1 0.87320-0.33288-0.33806 0.32529-0.35102 0.88507
   7   3  13   84.13   71.01   1 0.15670 0.38245-0.91923 0.90762 0.36117 0.17304
   7   3  14  624.11  150.51   1 0.87831-0.34457-0.37424 0.34615-0.29748 0.87261
   7   3  14  501.94  166.16   1 0.14984 0.38263-0.92355 0.89674 0.35297 0.22233
   7   3  15  403.71  231.98   1 0.87948-0.35225-0.40727 0.36447-0.24624 0.86202
   7   3  15  515.88  199.34   1 0.14495 0.38085-0.92655 0.88454 0.34710 0.26930
   7   3  16  -41.96  103.49   1 0.87787-0.35721-0.43642 0.37831-0.19714 0.85397
   7   3  16  404.61  221.21   1 0.14186 0.37727-0.92841 0.87120 0.34339 0.31410
   7   3  17    1.60  107.07   1 0.87372-0.35963-0.46266 0.38925-0.15014 0.84802
   7   3  17    8.84  109.45   1 0.14043 0.37203-0.92926 0.85685 0.34167 0.35691
   7   3  18  431.48  178.48   1 0.86742-0.35989-0.48634 0.39763-0.10508 0.84401
   7   3  18  214.01  134.70   1 0.14054 0.36525-0.92920 0.84159 0.34180 0.39787
  -7  -4  10  -10.18  115.37   1 0.22325-0.91293-0.60467 0.20365 0.76454-0.35366
  -7  -4   9   51.38  107.29   1 0.20675-0.88970-0.59950 0.21371 0.77320-0.40341
  -7  -4   8  715.56  207.26   1 0.18617-0.86239-0.59276 0.22221 0.78356-0.45485
  -7  -4   7  -17.22   94.83   1 0.16095-0.83044-0.58410 0.22878 0.79556-0.50794
  -7  -4   6   76.31  107.94   1 0.13033-0.79316-0.57276 0.23282 0.80928-0.56274
  -7  -4   5   70.67   96.00   1 0.09399-0.75008-0.55871 0.23401 0.82401-0.61855
  -7  -4   4   21.24   90.67   1 0.05109-0.70044-0.54097 0.23150 0.83948-0.67511
   7   4  -4   18.79   62.79   1 0.61222 0.03612 0.01263 0.29624 0.79058-0.95442
  -7  -4   3  -37.02   91.71   1 0.00074-0.64350-0.51836 0.22411 0.85516-0.73190
   7   4  -3  135.91  100.90   1 0.59927 0.04314-0.10315 0.39694 0.79387-0.91682
  -7  -4   2 1440.38  189.33   1-0.05695-0.57905-0.49059 0.21158 0.86952-0.78735
   7   4  -2 1259.88  176.36   1 0.57865 0.05659-0.21204 0.49050 0.78752-0.86960
  -7  -4   1  240.03  124.77   1-0.12241-0.50684-0.45636 0.19260 0.88133-0.84024
   7   4  -1   51.30   73.38   1 0.55293 0.07556-0.31464 0.57794 0.77153-0.81257
  -7  -4   0  398.54  115.81   1-0.19552-0.42703-0.41428 0.16582 0.88890-0.88890
   7   4   0  695.74  159.31   1 0.52280 0.09889-0.40709 0.65518 0.74896-0.74896
  -7  -4  -1   -0.52   70.02   1-0.27473-0.34107-0.36467 0.13150 0.88967-0.93079
   7   4   1  -33.33   73.89   1 0.49036 0.12459-0.48979 0.72272 0.72085-0.67981
  -7  -4  -2  488.47  123.39   1-0.35855-0.25045-0.30635 0.08847 0.88180-0.96407
   7   4   2  440.10  121.51   1 0.45651 0.15212-0.56134 0.77907 0.69028-0.60819
  -7  -4  -3  851.17  161.42   1-0.44364-0.15892-0.24103 0.03848 0.86317-0.98653
   7   4   3  479.79  127.83   1 0.42305 0.17889-0.62356 0.82615 0.65741-0.53429
   7   4   4 8341.93  827.91   1 0.52196 0.07383 0.18460 0.00312-0.83275 0.99726
  -7  -4  -4 9542.64  644.16   1-0.52641-0.06944-0.17046-0.01681 0.83296-0.99744
   7   4   4 7951.06 1242.16   1 0.38985 0.20486-0.67638 0.86364 0.62491-0.46060
   7   4   5 2133.58  395.57   1 0.59873-0.01009 0.11293 0.05959-0.79294 0.99817
  -7  -4  -5 2693.72  255.49   1-0.60415 0.01509-0.09467-0.07759 0.79122-0.99687
   7   4   5 2801.68  494.47   1 0.35912 0.22889-0.72104 0.89314 0.59255-0.38717
   7   4   6  114.97   49.51   1 0.66844-0.08641 0.03784 0.11946-0.74280 0.98907
   7   4   6  118.60   43.47   1 0.33061 0.25069-0.75831 0.91525 0.56183-0.31536
   7   4   7 1737.98  329.56   1 0.72784-0.15247-0.03565 0.17774-0.68481 0.97219
   7   4   7 2021.87  388.33   1 0.30460 0.27003-0.79024 0.93138 0.53172-0.24413
   7   4   8  101.61  106.08   1 0.77586-0.20715-0.10730 0.23380-0.62170 0.94995
   7   4   8  124.07   59.44   1 0.28124 0.28673-0.81564 0.94152 0.50559-0.17692
   7   4   9 1022.45  160.81   1 0.81292-0.25078-0.17089 0.28213-0.55672 0.92601
   7   4   9  852.24  124.05   1 0.26057 0.30075-0.83641 0.94705 0.48219-0.11243
   7   4  10  102.11  102.53   1 0.24255 0.31212-0.85329 0.94868 0.46157-0.05073
   7   4  11 3348.59  415.80   1 0.85888-0.30980-0.28094 0.36134-0.42823 0.87945
   7   4  11 2827.66  522.92   1 0.22707 0.32095-0.86692 0.94705 0.44371 0.00820
   7   4  12 4991.79  546.05   1 0.87100-0.32811-0.32711 0.39189-0.36654 0.85951
   7   4  12 4357.63  811.50   1 0.21401 0.32736-0.87781 0.94269 0.42853 0.06446
   7   4  13 3495.29  289.96   1 0.87756-0.34124-0.36685 0.41629-0.30871 0.84276
   7   4  13 2807.23  458.17   1 0.20381 0.33130-0.88581 0.93619 0.41688 0.11733
   7   4  14 1881.12  200.23   1 0.87974-0.35000-0.40194 0.43604-0.25393 0.82907
   7   4  14 1939.43  463.70   1 0.19516 0.33328-0.89245 0.92763 0.40674 0.16856
   7   4  15  271.41  174.64   1 0.87816-0.35490-0.43360 0.45302-0.20203 0.81780
   7   4  15   77.85   74.10   1 0.18849 0.33327-0.89741 0.91739 0.39889 0.21750
   7   4  16   -6.48   95.89   1 0.87405-0.35735-0.46109 0.46522-0.15302 0.80985
   7   4  16  210.83   82.57   1 0.18367 0.33143-0.90091 0.90570 0.39320 0.26429
   7   4  17   50.09  105.45   1 0.86766-0.35753-0.48559 0.47442-0.10653 0.80441
   7   4  17   18.81   40.66   1 0.18055 0.32788-0.90314 0.89273 0.38952 0.30907
   7   4  18  119.61   93.58   1 0.17902 0.32273-0.90422 0.87861 0.38771 0.35196
  -7  -5   9   -2.06  101.29   1 0.22689-0.90597-0.60579 0.15784 0.76258-0.39279
  -7  -5   8  134.71  111.43   1 0.20801-0.88036-0.59990 0.16718 0.77256-0.44385
  -7  -5   7 1718.28  231.23   1 0.18449-0.85011-0.59220 0.17472 0.78438-0.49677
  -7  -5   6   97.25  101.15   1 0.15566-0.81455-0.58222 0.17998 0.79798-0.55146
  -7  -5   5  151.68  143.46   1 0.12059-0.77279-0.56909 0.18225 0.81338-0.60792
  -7  -5   4  251.22  115.78   1 0.07879-0.72425-0.55257 0.18097 0.82972-0.66536
   7   5  -4  222.21  116.73   1 0.61505 0.02927 0.06015 0.31077 0.78618-0.95003
  -7  -5   3   64.29   93.39   1 0.02924-0.66796-0.53147 0.17509 0.84657-0.72329
   7   5  -3   31.14   68.28   1 0.60694 0.03151-0.04283 0.39868 0.79359-0.91654
  -7  -5   2   43.57   81.06   1-0.02909-0.60300-0.50427 0.16314 0.86304-0.78087
   7   5  -2   58.59   81.87   1 0.59296 0.03876-0.14298 0.48364 0.79243-0.87440
  -7  -5   1 1123.19  169.68   1-0.09614-0.52921-0.47045 0.14455 0.87717-0.83608
   7   5  -1  799.40  151.84   1 0.57315 0.05139-0.23659 0.56192 0.78455-0.82558
  -7  -5   0   58.43   92.97   1-0.17249-0.44614-0.42783 0.11726 0.88724-0.88724
   7   5   0   53.78   71.32   1 0.54992 0.06787-0.32498 0.63516 0.76939-0.76939
  -7  -5  -1  711.39  190.09   1-0.25678-0.35511-0.37633 0.08104 0.89018-0.93130
   7   5   1  527.26  128.87   1 0.52341 0.08759-0.40538 0.70033 0.74946-0.70841
  -7  -5  -2   69.49   80.31   1-0.34761-0.25745-0.31424 0.03426 0.88341-0.96568
   7   5   2  -15.28   81.44   1 0.49531 0.10894-0.47811 0.75789 0.72530-0.64321
  -7  -5  -3 1066.12  167.25   1-0.44107-0.15754-0.24310-0.02154 0.86391-0.98727
   7   5   3  988.07  190.38   1 0.46602 0.13195-0.54198 0.80657 0.69933-0.57621
   7   5   4 1836.72  301.72   1 0.52616 0.06559 0.18082 0.06913-0.83093 0.99544
  -7  -5  -4 2152.82  204.68   1-0.53255-0.05935-0.16490-0.08447 0.83017-0.99465
   7   5   4 2241.97  254.25   1 0.43711 0.15417-0.59845 0.84790 0.67140-0.50724
   7   5   5  667.64  106.01   1 0.61073-0.02615 0.10069 0.13400-0.78541 0.99063
   7   5   5  627.30  137.42   1 0.40897 0.17563-0.64735 0.88166 0.64317-0.43796
   7   5   6  461.84   87.83   1 0.68669-0.10876 0.01632 0.20314-0.72676 0.97308
   7   5   6  674.62  149.06   1 0.38124 0.19608-0.68940 0.90832 0.61593-0.36946
   7   5   7    7.95   47.63   1 0.74925-0.17794-0.06511 0.26936-0.65907 0.94645
   7   5   7  -15.18   79.74   1 0.35610 0.21451-0.72516 0.92892 0.58933-0.30179
   7   5   8   32.38   46.84   1 0.79766-0.23298-0.14325 0.33189-0.58583 0.91409
   7   5   8   77.45   68.93   1 0.33298 0.23093-0.75536 0.94396 0.56440-0.23578
   7   5   9  251.06   81.87   1 0.31201 0.24519-0.78069 0.95413 0.54144-0.17175
   7   5  10 2758.29  484.74   1 0.29322 0.25734-0.80288 0.96024 0.51903-0.10820
   7   5  11  713.06  137.52   1 0.87031-0.32485-0.32397 0.46629-0.37093 0.82282
   7   5  11 1261.45  248.08   1 0.27673 0.26718-0.82030 0.96241 0.50051-0.04858
   7   5  12   -3.59   67.59   1 0.87766-0.33878-0.36779 0.49477-0.30729 0.80026
   7   5  12   71.07   95.95   1 0.26244 0.27481-0.83459 0.96145 0.48432 0.00868
   7   5  13  246.38  135.76   1 0.25029 0.28032-0.84618 0.95779 0.47044 0.06364
   7   5  14  356.45  196.34   1 0.24017 0.28378-0.85544 0.95180 0.45883 0.11634
   7   5  15   77.83  105.64   1 0.23198 0.28532-0.86268 0.94379 0.44939 0.16686
   7   5  16   59.05   81.89   1 0.22561 0.28503-0.86816 0.93401 0.44202 0.21531
   7   5  17  225.29  131.16   1 0.22096 0.28303-0.87208 0.92268 0.43662 0.26179
   7   5  18  256.45  135.12   1 0.21792 0.27942-0.87460 0.90996 0.43309 0.30641
   7   5  19   39.12  141.37   1 0.21639 0.27430-0.87586 0.89596 0.43131 0.34928
  -7  -6   8    5.70   92.46   1 0.22527-0.89375-0.60529 0.11041 0.76346-0.43475
  -7  -6   7  167.88  138.60   1 0.20334-0.86509-0.59840 0.11876 0.77496-0.48734
  -7  -6   6  141.29   93.17   1 0.17605-0.83107-0.58934 0.12493 0.78846-0.54193
  -7  -6   5  165.65  140.86   1 0.14240-0.79070-0.57722 0.12825 0.80407-0.59861
  -7  -6   4  270.15  186.44   1 0.10167-0.74324-0.56176 0.12802 0.82102-0.65665
   7   6  -4  155.83  123.62   1 0.61642 0.02388 0.10467 0.32830 0.78042-0.94426
  -7  -6   3  331.60  154.85   1 0.05266-0.68748-0.54165 0.12314 0.83895-0.71567
   7   6  -3  -36.64   77.47   1 0.61214 0.02143 0.01162 0.40618 0.79065-0.91354
  -7  -6   2  578.35  122.97   1-0.00606-0.62212-0.51520 0.11193 0.85704-0.77487
   7   6  -2 1071.15  212.28   1 0.60264 0.02511-0.07878 0.48150 0.79411-0.87608
  -7  -6   1  510.21  126.12   1-0.07481-0.54662-0.48154 0.09351 0.87322-0.83213
   7   6  -1  727.78  165.70   1 0.58878 0.03224-0.16634 0.55388 0.79098-0.83197
  -7  -6   0  132.57   99.98   1-0.15479-0.45993-0.43799 0.06531 0.88554-0.88554
   7   6   0   62.82   78.32   1 0.57037 0.04348-0.24836 0.62057 0.78293-0.78293
  -7  -6  -1  314.60  110.36   1-0.24498-0.36299-0.38386 0.02646 0.89029-0.93141
   7   6   1  511.35  165.04   1 0.54964 0.05745-0.32595 0.68300 0.76918-0.72814
   7   6   2   58.67   99.21   1 0.52634 0.07397-0.39706 0.73887 0.75186-0.66976
   7   6   3  105.68   94.67   1 0.50195 0.09161-0.46195 0.78859 0.73119-0.60804
   7   6   4  153.82   86.46   1 0.47690 0.10991-0.52016 0.83164 0.70851-0.54432
   7   6   5  151.56  115.65   1 0.45147 0.12915-0.57127 0.86758 0.68543-0.48022
   7   6   6   50.22   89.04   1 0.42700 0.14693-0.61664 0.89782 0.66137-0.41512
   7   6   7 7276.36  358.79   1 0.40355 0.16369-0.65616 0.92220 0.63764-0.35035
   7   6   8  414.50  115.93   1 0.38047 0.17945-0.69054 0.94112 0.61512-0.28650
   7   6   9  441.32  104.30   1 0.35997 0.19325-0.71987 0.95529 0.59346-0.22376
   7   6  10 2818.09  526.95   1 0.34125 0.20526-0.74484 0.96510 0.57337-0.16259
   7   6  11  448.42  169.01   1 0.32440 0.21541-0.76594 0.97105 0.55505-0.10320
   7   6  12  635.39  168.37   1 0.30936 0.22379-0.78481 0.97364 0.53699-0.04399
   7   6  13 1171.44  205.14   1 0.29631 0.23018-0.79949 0.97307 0.52249 0.01159
   7   6  14  220.75  153.19   1 0.28514 0.23470-0.81154 0.96987 0.50998 0.06519
   7   6  15  107.14  120.51   1 0.27578 0.23741-0.82127 0.96435 0.49944 0.11681
   7   6  16   90.17   75.98   1 0.26817 0.23837-0.82896 0.95679 0.49082 0.16651
   7   6  17  705.74  153.65   1 0.26222 0.23767-0.83481 0.94739 0.48406 0.21436
   7   6  18  169.36   94.01   1 0.25785 0.23538-0.83903 0.93636 0.47909 0.26041
   7   7  -4  -21.03   79.11   1 0.61644 0.02079 0.14698 0.34825 0.77355-0.93716
   7   7  -3  -18.88   82.87   1 0.61516 0.01439 0.06281 0.41704 0.78588-0.90877
   7   7  -2  213.42  134.42   1 0.60945 0.01337-0.02018 0.48486 0.79256-0.87448
   7   7  -1  323.52  154.45   1 0.59965 0.01741-0.10052 0.55011 0.79392-0.83490
   7   7   0  171.44   99.36   1 0.58654 0.02378-0.17813 0.61254 0.79008-0.79008
   7   7   1   73.39   99.14   1 0.56973 0.03341-0.25100 0.67009 0.78255-0.74152
   7   7   2   85.60   97.02   1 0.55137 0.04502-0.32004 0.72397 0.77042-0.68835
   7   7   3  122.61   92.83   1 0.53092 0.05869-0.38374 0.77240 0.75555-0.63240
   7   7   4 1701.84  278.35   1 0.50973 0.07313-0.44224 0.81574 0.73795-0.57376
   7   7   5 1402.30  233.51   1 0.48802 0.08809-0.49521 0.85355 0.71874-0.51349
   7   7   6 -137.22   82.01   1 0.46589 0.10408-0.54225 0.88543 0.69921-0.45296
   7   7   7 3558.44  440.61   1 0.44461 0.11867-0.58446 0.91250 0.67876-0.39147
   7   7   8   20.77   98.92   1 0.42413 0.13246-0.62168 0.93458 0.65850-0.33016
   7   7   9  -73.58  101.86   1 0.40475 0.14515-0.65423 0.95200 0.63886-0.26949
   7   7  11 3578.62  613.83   1 0.36898 0.16684-0.70724 0.97432 0.60303-0.15118
   7   7  12 2574.86  586.48   1 0.35393 0.17518-0.72810 0.98002 0.58701-0.09408
   7   7  13   43.03   63.58   1 0.34051 0.18190-0.74579 0.98255 0.57257-0.03856
   7   7  14 4160.16  573.93   1 0.32874 0.18697-0.76063 0.98224 0.55978 0.01529
   7   7  15 2033.34  478.99   1 0.31860 0.19040-0.77293 0.97938 0.54869 0.06746
   7   7  16  -61.51  113.64   1 0.30992 0.19251-0.78416 0.97396 0.53762 0.11971
   7   7  17  124.38   77.11   1 0.30296 0.19282-0.79210 0.96665 0.52989 0.16852
   7   7  18  207.61   86.28   1 0.29751 0.19161-0.79817 0.95747 0.52383 0.21567
   7   8  -4  -12.29   82.14   1 0.61554 0.01765 0.18773 0.36958 0.76541-0.92903
   7   8  -3   17.94   87.95   1 0.61652 0.00902 0.11100 0.43089 0.77947-0.90235
   7   8  -2  132.08  149.09   1 0.61372 0.00508 0.03489 0.49183 0.78875-0.87067
   7   8  -1  902.57  217.15   1 0.60731 0.00578-0.03937 0.55101 0.79348-0.83447
   7   8   0 1237.48  206.71   1 0.59798 0.00838-0.11183 0.60829 0.79366-0.79366
   7   8   1 1195.81  169.13   1 0.58592 0.01371-0.18134 0.66262 0.78981-0.74882
   7   8   2  112.64  100.72   1 0.57075 0.02170-0.24677 0.71274 0.78316-0.70108
   7   8   3  126.79  101.39   1 0.55458 0.03112-0.30883 0.75965 0.77269-0.64958
   7   8   4   -8.15   88.65   1 0.53706 0.04188-0.36653 0.80219 0.75974-0.59559
   7   8   5  530.23  162.13   1 0.51827 0.05390-0.41960 0.83996 0.74520-0.53996
   7   8   6  426.69  172.16   1 0.49945 0.06597-0.46810 0.87329 0.72898-0.48269
   7   8   7   33.78   96.98   1 0.48062 0.07805-0.51196 0.90199 0.71196-0.42462
   7   8   8  150.43  142.72   1 0.46169 0.09093-0.55090 0.92580 0.69523-0.36689
   7   8   9  -15.59   94.11   1 0.44384 0.10209-0.58592 0.94568 0.67801-0.30863
   7   8  11  519.26  204.67   1 0.41100 0.12155-0.64399 0.97348 0.64524-0.19378
   7   8  12  533.48  174.72   1 0.39523 0.12990-0.66805 0.98193 0.63047-0.13755
   7   8  13  638.75  193.08   1 0.38188 0.13654-0.68845 0.98718 0.61660-0.08259
   7   8  14  877.82  154.01   1 0.36993 0.14179-0.70589 0.98947 0.60403-0.02895
   7   8  15 1567.13  322.50   1 0.35941 0.14560-0.72064 0.98906 0.59286 0.02329
   7   8  16  490.10  192.35   1 0.35033 0.14798-0.73294 0.98621 0.58314 0.07408
   7   8  17   89.00   83.83   1 0.34267 0.14894-0.74300 0.98111 0.57490 0.12340
   7   8  18  174.95   90.37   1 0.33642 0.14848-0.75101 0.97397 0.56814 0.17124
   7   9  -3   76.24  100.61   1 0.61632 0.00602 0.15697 0.44722 0.77168-0.89439
   7   9  -2  -59.38   90.55   1 0.61602-0.00122 0.08676 0.50201 0.78293-0.86485
   7   9  -1 2200.04  301.02   1 0.61258-0.00452 0.01760 0.55600 0.79020-0.83116
   7   9   018537.07 8122.34   1 0.60618-0.00377-0.04968 0.60820 0.79377-0.79377
   7   9   1 1315.72  256.75   1 0.59747-0.00179-0.11515 0.65848 0.79357-0.75259
   7   9   2  746.05  220.31   1 0.58658 0.00236-0.17794 0.70608 0.79009-0.70812
   7   9   3  183.98  177.11   1 0.57301 0.00873-0.23716 0.75001 0.78447-0.66136
   7   9   4  177.10  135.90   1 0.55885 0.01614-0.29340 0.79109 0.77562-0.61147
   7   9   5   89.26   94.58   1 0.54362 0.02463-0.34588 0.82842 0.76474-0.55956
   7   9   6  401.12  180.78   1 0.52725 0.03422-0.39445 0.86167 0.75260-0.50631
   7   9   7 2342.94  289.57   1 0.51096 0.04376-0.43905 0.89110 0.73901-0.45167
   7   9   8 1238.80  220.67   1 0.49466 0.05332-0.47966 0.91655 0.72472-0.39633
   7   9   9  633.50  190.34   1 0.47863 0.06260-0.51636 0.93808 0.71012-0.34069
   7   9  10   81.80  141.68   1 0.46265 0.07261-0.54892 0.95555 0.69615-0.28573
   7   9  11  125.53  139.96   1 0.44787 0.08070-0.57823 0.96972 0.68194-0.23048
   7   9  12   77.44  129.42   1 0.43399 0.08789-0.60413 0.98048 0.66832-0.17582
   7   9  13 4221.31  395.96   1 0.42114 0.09405-0.62685 0.98806 0.65550-0.12196
   7   9  14 1608.74  296.33   1 0.40942 0.09909-0.64660 0.99267 0.64364-0.06905
   7   9  15   72.96  129.50   1 0.39773 0.10330-0.66411 0.99450 0.63305-0.01689
   7   9  16  -84.92  118.95   1 0.38843 0.10589-0.67856 0.99380 0.62343 0.03380
   7   9  17  420.78  193.18   1 0.38039 0.10722-0.69066 0.99074 0.61504 0.08326
   7  10  -3   91.64  101.97   1 0.61501 0.00329 0.20101 0.46525 0.76246-0.88517
   7  10  -2  -24.63  105.32   1 0.61650-0.00501 0.13625 0.51483 0.77547-0.85727
   7  10  -1   14.28  104.29   1 0.61553-0.01148 0.07180 0.56385 0.78483-0.82579
   7  10   0  558.24  205.78   1 0.61192-0.01461 0.00867 0.61181 0.79086-0.79086
   7  10   1 2989.83  342.15   1 0.60584-0.01413-0.05265 0.65803 0.79383-0.75285
   7  10   2  223.60  178.41   1 0.59793-0.01294-0.11217 0.70237 0.79365-0.71168
   7  10   3  157.83  138.73   1 0.58824-0.00998-0.16924 0.74425 0.79077-0.66781
   7  10   4   89.10  114.57   1 0.57620-0.00514-0.22319 0.78292 0.78623-0.62209
   7  10   5  102.79  118.36   1 0.56386 0.00043-0.27446 0.81904 0.77892-0.57373
   7  10   6   -8.94  101.73   1 0.55066 0.00688-0.32245 0.85187 0.76992-0.52370
   7  10   7  200.14  131.73   1 0.53690 0.01390-0.36703 0.88129 0.75961-0.47235
   7  10   8  149.38  127.84   1 0.52239 0.02164-0.40824 0.90715 0.74862-0.42024
   7  10   9  194.04  148.60   1 0.50832 0.02897-0.44590 0.92965 0.73673-0.36730
   7  10  10  892.68  251.48   1 0.49446 0.03607-0.48013 0.94871 0.72455-0.31406
   7  10  11  499.38  191.06   1 0.48104 0.04274-0.51102 0.96443 0.71235-0.26082
   7  10  12  256.04  180.90   1 0.46774 0.05018-0.53839 0.97674 0.70096-0.20846
   7  10  13  453.33  223.09   1 0.45568 0.05555-0.56298 0.98620 0.68948-0.15594
   7  10  14  719.86  237.40   1 0.44449 0.06005-0.58468 0.99275 0.67865-0.10406
   7  10  15  162.12  138.98   1 0.43427 0.06358-0.60363 0.99656 0.66860-0.05297
   7  10  16   -4.43  124.14   1 0.42508 0.06608-0.62001 0.99781 0.65945-0.00279
   7  11  -1  -54.23  108.04   1 0.61663-0.01660 0.12340 0.57429 0.77751-0.81847
   7  11   0  143.37  129.70   1 0.61523-0.02193 0.06433 0.61819 0.78571-0.78571
   7  11   1  112.77  127.82   1 0.61175-0.02519 0.00646 0.66088 0.79102-0.75006
   7  11   2  122.44  118.45   1 0.60618-0.02516-0.04967 0.70192 0.79377-0.71180
   7  11   3   19.49  114.54   1 0.59913-0.02484-0.10406 0.74113 0.79385-0.67089
   7  11   4  160.00  134.82   1 0.59064-0.02307-0.15621 0.77808 0.79167-0.62773
   7  11   5   68.87  127.33   1 0.58002-0.01967-0.20559 0.81220 0.78822-0.58303
   7  11   6  135.12  122.75   1 0.56936-0.01575-0.25254 0.84400 0.78233-0.53611
   7  11   7   33.14  102.39   1 0.55798-0.01112-0.29660 0.87289 0.77503-0.48777
   7  11   8  125.51  115.33   1 0.54614-0.00603-0.33765 0.89879 0.76662-0.43832
   7  11   9   77.07  127.54   1 0.53359-0.00024-0.37579 0.92156 0.75766-0.38823
   7  11  10  316.28  157.82   1 0.52149 0.00509-0.41074 0.94134 0.74788-0.33740
   7  11  11   80.99  134.80   1 0.50958 0.01026-0.44264 0.95808 0.73782-0.28629
   7  11  12 2894.97  345.06   1 0.49803 0.01506-0.47156 0.97184 0.72772-0.23514
   7  11  13  146.46  141.28   1 0.48699 0.01935-0.49759 0.98270 0.71780-0.18417
   7  11  14  375.99  176.24   1 0.47659 0.02300-0.52082 0.99077 0.70823-0.13355
   7  11  15 2308.28  332.94   1 0.46642 0.02746-0.54114 0.99607 0.69972-0.08409
   7  12   2  149.29  135.51   1 0.61201-0.03620 0.00981 0.70441 0.79078-0.70886
   7  12   3  137.62  128.39   1 0.60705-0.03673-0.04177 0.74090 0.79356-0.67060
   7  12   4  168.66  172.04   1 0.60090-0.03731-0.09167 0.77561 0.79404-0.63010
   7  12   5  119.27  138.27   1 0.59355-0.03668-0.13950 0.80825 0.79261-0.58768
   7  12   6  117.75  132.38   1 0.58519-0.03505-0.18506 0.83862 0.78949-0.54358
   7  12   7  776.05  251.21   1 0.57511-0.03221-0.22802 0.86635 0.78564-0.49838
   7  12   8  -19.39  108.32   1 0.56537-0.02921-0.26857 0.89174 0.77988-0.45158
   7  12   9   25.90  115.18   1 0.55525-0.02584-0.30644 0.91446 0.77316-0.40382
   7  12  10  -30.32  119.03   1 0.54494-0.02228-0.34159 0.93446 0.76573-0.35536
   7  12  11  530.05  232.19   1 0.53411-0.01821-0.37421 0.95168 0.75807-0.30654
   7  12  12   77.25  134.52   1 0.52393-0.01478-0.40391 0.96621 0.74989-0.25731
   7  12  13  148.99  133.65   1 0.51406-0.01165-0.43091 0.97805 0.74165-0.20802
  -8   8   5 2587.05  364.66   1-0.44052-0.35443-0.24354 0.66392 0.86407-0.65847
   8  -8  -4 1479.04  271.57   1 0.47825 0.31001 0.22264-0.65927-0.84953 0.68501
  -8   8   4 1949.70  335.53   1-0.47325-0.31497-0.21668 0.65233 0.85385-0.68937
   8  -8  -3   70.77  101.46   1 0.51128 0.27037 0.19411-0.64603-0.83720 0.71381
  -8   8   3  155.93  151.19   1-0.50639-0.27512-0.18827 0.63920 0.84149-0.71813
   8  -8  -2 1133.12  199.23   1 0.54437 0.23069 0.16416-0.63137-0.82262 0.74036
  -8   8   2 1214.62  285.91   1-0.53959-0.23519-0.15845 0.62465 0.82687-0.74463
   8  -8  -1   -8.66  122.90   1 0.57751 0.19069 0.13399-0.61606-0.80531 0.76426
  -8   8   1  -74.80  137.51   1-0.57210-0.19656-0.12646 0.60797 0.81037-0.76924
   8  -8   0  103.51  106.00   1 0.60963 0.15195 0.10181-0.59910-0.78611 0.78611
  -8   8   0   74.15  199.39   1-0.60443-0.15761-0.09438 0.59111 0.79104-0.79104
   8  -8   1  290.44  109.75   1 0.64082 0.11415 0.06878-0.58130-0.76459 0.80564
   8  -8   2  575.01  157.80   1 0.67079 0.07757 0.03512-0.56286-0.74081 0.82290
  -8   7   6   96.95  148.04   1-0.36735-0.43013-0.29993 0.64308 0.88038-0.63358
  -8   7   5   23.72  133.62   1-0.40066-0.39008-0.27501 0.63341 0.87397-0.66830
  -8   7   4  369.27  174.00   1-0.43496-0.34903-0.24824 0.62189 0.86555-0.70101
   8  -7  -3 1868.30  336.74   1 0.47443 0.30318 0.22586-0.61556-0.85082 0.72743
  -8   7   3 1665.42  275.76   1-0.46990-0.30766-0.21948 0.60832 0.85499-0.73163
   8  -7  -2  926.44  209.80   1 0.50961 0.26141 0.19559-0.60058-0.83787 0.75561
  -8   7   2  997.61  253.61   1-0.50516-0.26567-0.18934 0.59345 0.84199-0.75975
   8  -7  -1  155.19   97.48   1 0.54469 0.21973 0.16386-0.58414-0.82246 0.78134
  -8   7   1   53.70  133.90   1-0.54036-0.22376-0.15775 0.57713 0.82651-0.78539
   8  -7   0 1671.61  301.66   1 0.57955 0.17797 0.13199-0.56712-0.80417 0.80417
  -8   7   0 1152.09  232.87   1-0.57468-0.18330-0.12396 0.55859 0.80892-0.80892
   8  -7   1 1639.40  320.89   1 0.61327 0.13763 0.09805-0.54841-0.78375 0.82480
  -8   7  -1 1830.24  291.28   1-0.60859-0.14278-0.09013 0.53998 0.78834-0.82947
   8  -7   2  418.87  152.95   1 0.64581 0.09848 0.06332-0.52889-0.76086 0.84295
   8  -7   3  543.76  152.70   1 0.67686 0.06082 0.02804-0.50884-0.73557 0.85870
   8  -7   4  102.96  112.42   1 0.70614 0.02488-0.00756-0.48843-0.70802 0.87224
   8  -7   5  101.53  109.95   1 0.73343-0.00902-0.04316-0.46805-0.67838 0.88365
  -8   6   8  134.96  143.09   1-0.26220-0.54463-0.37283 0.62327 0.89007-0.56115
  -8   6   7  303.20  251.98   1-0.29328-0.50681-0.35237 0.61809 0.88871-0.60091
  -8   6   6 1744.29  303.27   1-0.32603-0.46752-0.32949 0.61053 0.88607-0.63927
  -8   6   5  397.46  212.23   1-0.36049-0.42631-0.30495 0.60125 0.88150-0.67583
  -8   6   4  380.67  240.36   1-0.39624-0.38382-0.27838 0.58994 0.87492-0.71038
  -8   6   3  775.32  198.20   1-0.43294-0.34037-0.24985 0.57666 0.86610-0.74269
   8  -6  -2 1580.33  270.15   1 0.47424 0.29273 0.22602-0.56878-0.85088 0.76862
  -8   6   2 1766.02  271.56   1-0.47021-0.29667-0.21922 0.56124 0.85488-0.77264
   8  -6   0 2053.49  403.79   1 0.54867 0.20511 0.16015-0.53350-0.82055 0.82055
  -8   6   0 2579.15  338.07   1-0.54481-0.20864-0.15364 0.52620 0.82436-0.82436
   8  -6   1  504.64  129.62   1 0.58518 0.16166 0.12646-0.51465-0.80097 0.84202
  -8   6  -1  428.20  252.36   1-0.58089-0.16642-0.11790 0.50567 0.80539-0.84652
   8  -6   2 1660.80  315.24   1 0.62038 0.11985 0.09064-0.49405-0.77903 0.86112
  -8   6  -2 2013.37  303.63   1-0.61625-0.12445-0.08222 0.48520 0.78324-0.86550
   8  -6   3  524.91  184.46   1 0.65410 0.07951 0.05412-0.47275-0.75446 0.87759
   8  -6   4  503.82  121.12   1 0.68602 0.04095 0.01713-0.45097-0.72738 0.89159
   8  -6   5  139.24   77.58   1 0.71585 0.00449-0.01993-0.42912-0.69796 0.90323
   8  -6   6 1517.86  290.03   1 0.74339-0.02965-0.05685-0.40742-0.66643 0.91275
   8  -6   7  420.27  234.46   1 0.76774-0.06110-0.09473-0.38487-0.63371 0.92094
   8  -6   8 1570.16  323.46   1 0.79026-0.09019-0.13063-0.36422-0.59867 0.92693
  -8   5   9  -38.74  135.59   1-0.19090-0.61877-0.41703 0.59007 0.88861-0.51858
  -8   5   8  104.05  153.30   1-0.22003-0.58289-0.39943 0.58775 0.88996-0.56104
  -8   5   7  107.73  151.61   1-0.25144-0.54473-0.37975 0.58335 0.89026-0.60245
  -8   5   6  126.01  140.66   1-0.28498-0.50445-0.35791 0.57680 0.88920-0.64251
  -8   5   5  123.23  133.48   1-0.32030-0.46256-0.33347 0.56768 0.88667-0.68100
  -8   5   4  652.81  180.64   1-0.35735-0.41876-0.30722 0.55668 0.88199-0.71745
  -8   5   3 1217.93  255.40   1-0.39569-0.37367-0.27879 0.54351 0.87504-0.75163
  -8   5   2  -62.38  119.15   1-0.43492-0.32771-0.24828 0.52825 0.86556-0.78329
   8  -5  -1 1252.55  249.22   1 0.47808 0.27826 0.22278-0.51862-0.84958 0.80845
  -8   5   1 1029.25  207.76   1-0.47459-0.28163-0.21556 0.51076 0.85340-0.81228
   8  -5   0  644.55  160.41   1 0.51764 0.23210 0.18847-0.49960-0.83458 0.83458
  -8   5   0  199.95  156.16   1-0.51419-0.23530-0.18139 0.49186 0.83827-0.83827
   8  -5   1  421.20  218.12   1 0.55665 0.18650 0.15266-0.47908-0.81659 0.85772
  -8   5  -1   60.52  123.85   1-0.55327-0.18950-0.14574 0.47149 0.82014-0.86126
   8  -5   2 2230.78  362.01   1 0.59468 0.14148 0.11700-0.45825-0.79539 0.87748
  -8   5  -2 2251.39  319.19   1-0.59100-0.14564-0.10792 0.44881 0.79941-0.88167
   8  -5   3  -94.25  127.50   1 0.63118 0.09837 0.07920-0.43567-0.77157 0.89471
   8  -5   4  471.15  180.02   1 0.66584 0.05710 0.04083-0.41252-0.74497 0.90915
   8  -5   5  722.13  192.37   1 0.69833 0.01795 0.00215-0.38905-0.71576 0.92103
   8  -5   6  642.32  152.85   1 0.72838-0.01870-0.03637-0.36574-0.68419 0.93052
   8  -5   7   64.91   67.81   1 0.75580-0.05274-0.07453-0.34280-0.65054 0.93792
   8  -5   8  582.67  186.74   1 0.77976-0.08372-0.11347-0.31925-0.61570 0.94396
   8  -5   9  260.81  210.64   1 0.80159-0.11212-0.15013-0.29784-0.57871 0.94800
   8  -5  10  182.09  214.34   1 0.82058-0.13768-0.18576-0.27747-0.54049 0.95081
  -8   4  10  -11.40  133.86   1-0.12388-0.68854-0.45556 0.55170 0.88154-0.47067
  -8   4   9  147.94  151.46   1-0.15022-0.65545-0.44093 0.55231 0.88487-0.51509
  -8   4   8  756.07  177.03   1-0.17873-0.62028-0.42419 0.55041 0.88775-0.55883
  -8   4   7 1722.26  304.12   1-0.21027-0.58199-0.40539 0.54688 0.88962-0.60182
  -8   4   6  152.88  177.90   1-0.24424-0.54127-0.38432 0.54109 0.89030-0.64361
  -8   4   5  178.78  152.37   1-0.28047-0.49830-0.36090 0.53295 0.88942-0.68385
  -8   4   4 1009.06  238.63   1-0.31858-0.45359-0.33466 0.52203 0.88684-0.72231
  -8   4   3  389.21  212.52   1-0.35843-0.40700-0.30644 0.50906 0.88182-0.75842
  -8   4   2  -69.61  121.03   1-0.39952-0.35917-0.27588 0.49376 0.87422-0.79195
  -8   4   1  -24.11  115.93   1-0.44140-0.31087-0.24283 0.47594 0.86382-0.82270
   8  -4   0  115.57   93.98   1 0.48640 0.25931 0.21573-0.46463-0.84668 0.84668
  -8   4   0  165.14  145.23   1-0.48346-0.26208-0.20806 0.45644 0.85027-0.85027
   8  -4   1  123.29   95.55   1 0.52811 0.21099 0.17906-0.44325-0.83007 0.87120
  -8   4  -1  -62.63  117.63   1-0.52520-0.21362-0.17155 0.43520 0.83350-0.87462
   8  -4   2  174.61  103.65   1 0.56894 0.16356 0.14092-0.42041-0.81020 0.89246
  -8   4  -2   62.00  124.18   1-0.56578-0.16680-0.13254 0.41133 0.81383-0.89609
   8  -4   3  689.50  167.14   1 0.60831 0.11718 0.10317-0.39748-0.78696 0.91009
  -8   4  -3  246.60  153.70   1-0.60525-0.12071-0.09355 0.38756 0.79051-0.91390
   8  -4   4 2436.86  615.42   1 0.64584 0.07304 0.06329-0.37282-0.76084 0.92502
   8  -4   5 2445.66  436.43   1 0.68111 0.03111 0.02297-0.34771-0.73181 0.93708
   8  -4   6  -29.23  103.98   1 0.71379-0.00817-0.01727-0.32268-0.70014 0.94647
   8  -4   7  468.86  165.81   1 0.74362-0.04462-0.05718-0.29799-0.66614 0.95352
   8  -4   8   53.66   80.93   1 0.76982-0.07781-0.09792-0.27266-0.63069 0.95895
   8  -4   9  -78.32  123.67   1 0.79359-0.10815-0.13624-0.24959-0.59300 0.96229
   8  -4  10  330.66  172.01   1 0.81427-0.13540-0.17345-0.22764-0.55395 0.96428
   8  -4  11  202.11  224.36   1 0.83138-0.15918-0.21055-0.20611-0.51426 0.96549
  -8   3  10   91.79  153.21   1-0.08470-0.72382-0.47644 0.51044 0.87511-0.46424
  -8   3   9  213.51  207.39   1-0.11045-0.69131-0.46283 0.51208 0.87953-0.50975
  -8   3   8   37.21  136.02   1-0.13904-0.65597-0.44720 0.51168 0.88355-0.55486
  -8   3   7   71.97  134.95   1-0.17009-0.61825-0.42922 0.50860 0.88703-0.59923
  -8   3   6  -10.92  125.84   1-0.20430-0.57730-0.40901 0.50367 0.88936-0.64267
  -8   3   5  276.84  191.29   1-0.24110-0.53375-0.38630 0.49624 0.89029-0.68472
  -8   3   4  630.16  205.14   1-0.28028-0.48782-0.36102 0.48624 0.88943-0.72497
  -8   3   3 1995.88  297.05   1-0.32143-0.44006-0.33269 0.47321 0.88656-0.76315
  -8   3   2   32.40  121.49   1-0.36428-0.39046-0.30218 0.45796 0.88089-0.79862
  -8   3   1 5996.57  406.75   1-0.40827-0.33973-0.26917 0.44021 0.87227-0.83113
  -8   3   0 7482.01  467.48   1-0.45286-0.28874-0.23355 0.41983 0.86044-0.86044
   8  -3   1   -4.91   99.60   1 0.49966 0.23540 0.20430-0.40627-0.84178 0.88290
  -8   3  -1   63.91  127.89   1-0.49732-0.23755-0.19617 0.39773 0.84509-0.88621
   8  -3   2  -61.61  101.97   1 0.54343 0.18503 0.16502-0.38228-0.82306 0.90532
  -8   3  -2   82.95  121.64   1-0.54109-0.18707-0.15707 0.37391 0.82616-0.90840
   8  -3   3  218.71  101.25   1 0.58574 0.13568 0.12590-0.35805-0.80065 0.92378
  -8   3  -3  290.60  133.92   1-0.58329-0.13861-0.11555 0.34747 0.80399-0.92738
   8  -3   4  -50.87  107.36   1 0.62628 0.08853 0.08442-0.33179-0.77500 0.93918
  -8   3  -4   -3.14  120.43   1-0.62386-0.09143-0.07425 0.32140 0.77799-0.94251
   8  -3   5   61.81  133.39   1 0.66446 0.04375 0.04241-0.30501-0.74611 0.95134
   8  -3   6  608.26  155.43   1 0.69989 0.00165 0.00022-0.27803-0.71424 0.96057
   8  -3   7 3036.36  422.00   1 0.73225-0.03731-0.04156-0.25146-0.67976 0.96714
   8  -3   8  133.27  143.82   1 0.76134-0.07302-0.08268-0.22556-0.64305 0.97148
   8  -3   9  978.95  260.26   1 0.78646-0.10505-0.12433-0.19937-0.60498 0.97427
   8  -3  10  653.35  228.40   1 0.80882-0.13398-0.16321-0.17575-0.56495 0.97527
   8  -3  11  119.61  152.08   1 0.82785-0.15958-0.20067-0.15354-0.52381 0.97516
   8  -3  12  922.48  279.20   1 0.84317-0.18166-0.23776-0.13205-0.48220 0.97445
  -8   2  10  420.82  221.13   1-0.04745-0.75716-0.49532 0.46719 0.86741-0.45654
  -8   2   9  163.68  157.17   1-0.07244-0.72542-0.48275 0.46987 0.87275-0.50297
  -8   2   8  394.47  235.84   1-0.10048-0.69063-0.46816 0.47051 0.87791-0.54921
  -8   2   7  271.02  249.81   1-0.13160-0.65276-0.45132 0.46891 0.88260-0.59499
  -8   2   6   84.39  137.62   1-0.16548-0.61220-0.43188 0.46443 0.88661-0.63992
  -8   2   5  514.39  171.39   1-0.20266-0.56827-0.40999 0.45782 0.88928-0.68371
  -8   2   4  194.79  154.81   1-0.24262-0.52157-0.38535 0.44845 0.89030-0.72584
  -8   2   3  138.08  133.56   1-0.28506-0.47239-0.35786 0.43624 0.88919-0.76585
  -8   2   2 3288.69  354.79   1-0.32951-0.42129-0.32705 0.42073 0.88569-0.80342
  -8   2   1  -90.56  122.75   1-0.37558-0.36848-0.29387 0.40281 0.87896-0.83782
  -8   2   0  -64.91  126.70   1-0.42258-0.31473-0.25803 0.38223 0.86881-0.86881
   8  -2   1 1787.37  240.72   1 0.47158 0.25944 0.22825-0.36799-0.85176 0.89289
  -8   2  -1 2065.29  284.78   1-0.46990-0.26102-0.21948 0.35895 0.85499-0.89611
   8  -2   1 1752.93  293.35   1 0.18607 0.54444-0.89918 0.75999 0.39604-0.35494
   8  -2   2  774.54  201.76   1 0.51839 0.20603 0.18780-0.34283-0.83426 0.91652
  -8   2  -2  619.62  205.89   1-0.51666-0.20754-0.17919 0.33393 0.83722-0.91946
   8  -2   2  840.38  143.65   1 0.14601 0.57783-0.92591 0.77152 0.34837-0.26619
   8  -2   3  616.41  166.69   1 0.56400 0.15382 0.14567-0.31599-0.81281 0.93620
  -8   2  -3  683.00  228.22   1-0.56223-0.15525-0.13727 0.30729 0.81550-0.93886
   8  -2   4 1004.64  184.09   1 0.60748 0.10327 0.10402-0.28923-0.78749 0.95166
  -8   2  -4  994.22  239.85   1-0.60572-0.10551-0.09307 0.27812 0.79021-0.95473
   8  -2   5  -21.31   88.55   1 0.64872 0.05542 0.06011-0.26054-0.75864 0.96386
   8  -2   6  941.69  188.90   1 0.68704 0.01044 0.01590-0.23154-0.72644 0.97276
   8  -2   7 1937.49  340.76   1 0.72201-0.03113-0.02793-0.20292-0.69131 0.97869
   8  -2   8  115.41   88.31   1 0.75341-0.06914-0.07107-0.17501-0.65369 0.98213
   8  -2   9  194.69  191.20   1 0.78055-0.10316-0.11473-0.14684-0.61447 0.98376
   8  -2  10  115.25  135.07   1 0.80452-0.13371-0.15538-0.12144-0.57322 0.98354
   8  -2  11 1499.95  281.62   1 0.82487-0.16063-0.19445-0.09762-0.53081 0.98217
   8  -2  12 1367.08  299.51   1 0.84122-0.18369-0.23302-0.07466-0.48789 0.98014
   8  -2  13  176.73  171.06   1 0.85474-0.20391-0.26849-0.05447-0.44420 0.97747
  -8   1  10   -1.98  128.38   1-0.01245-0.78825-0.51220 0.42195 0.85877-0.44790
  -8   1   9  307.23  255.52   1-0.03652-0.75743-0.50068 0.42566 0.86486-0.49507
  -8   1   8 1195.78  271.76   1-0.06382-0.72338-0.48713 0.42735 0.87099-0.54229
  -8   1   7 7114.24  450.56   1-0.09445-0.68600-0.47134 0.42680 0.87687-0.58926
  -8   1   6 3144.72  363.22   1-0.12844-0.64526-0.45306 0.42376 0.88217-0.63565
  -8   1   5 3845.99  369.69   1-0.16552-0.60150-0.43186 0.41757 0.88662-0.68104
  -8   1   4  565.24  185.81   1-0.20606-0.55422-0.40794 0.40893 0.88944-0.72498
  -8   1   3  514.38  207.01   1-0.24954-0.50399-0.38096 0.39724 0.89027-0.76693
  -8   1   2 4144.00  339.88   1-0.29557-0.45122-0.35083 0.38238 0.88856-0.80633
  -8   1   1  287.25  197.74   1-0.34362-0.39649-0.31708 0.36392 0.88395-0.84281
  -8   1   0   81.87  134.43   1-0.39309-0.34028-0.28076 0.34286 0.87558-0.87558
  -8   1  -1 2005.54  327.71   1-0.44328-0.28370-0.24132 0.31869 0.86328-0.90440
   8  -1   1 1450.14  302.35   1 0.25181 0.47437-0.84476 0.76753 0.47218-0.43110
   8  -1   2  227.50  107.54   1 0.49416 0.22623 0.20907-0.30188-0.84385 0.92611
  -8   1  -2   27.01  119.98   1-0.49315-0.22710-0.19977 0.29242 0.84669-0.92893
   8  -1   2  151.19  105.31   1 0.20906 0.51075-0.88167 0.78928 0.42301-0.34083
   8  -1   3   24.30   68.06   1 0.54309 0.17070 0.16534-0.27345-0.82323 0.94661
  -8   1  -3   69.33  124.91   1-0.54198-0.17155-0.15625 0.26417 0.82573-0.94909
   8  -1   3   89.19   73.88   1 0.17254 0.54059-0.90873 0.80114 0.38003-0.25675
   8  -1   4 4306.30  723.38   1 0.58981 0.11688 0.12187-0.24492-0.79829 0.96246
  -8   1  -4 5047.52  606.63   1-0.58883-0.11834-0.11007 0.23303 0.80072-0.96523
   8  -1   4 4272.60  483.50   1 0.14177 0.56469-0.92846 0.80567 0.34329-0.17891
   8  -1   5  142.75   91.63   1 0.63429 0.06579 0.07586-0.21413-0.76936 0.97458
   8  -1   6 9367.02 4247.27   1 0.67560 0.01787 0.02953-0.18302-0.73667 0.98294
   8  -1   7  248.84  146.06   1 0.71332-0.02650-0.01667-0.15203-0.70063 0.98802
   8  -1   8  195.95   96.30   1 0.74706-0.06686-0.06201-0.12191-0.66185 0.99028
   8  -1   9  -44.08  122.12   1 0.77621-0.10286-0.10784-0.09159-0.62117 0.99046
   8  -1  10  196.77  227.10   1 0.80174-0.13495-0.15039-0.06429-0.57843 0.98876
   8  -1  11  -12.47  118.49   1 0.82326-0.16305-0.19116-0.03878-0.53449 0.98585
   8  -1  12 3449.84  393.60   1 0.84047-0.18693-0.23124-0.01430-0.49002 0.98226
   8  -1  13  332.01  174.88   1 0.85455-0.20771-0.26794 0.00710-0.44489 0.97816
   8  -1  14    8.26  132.74   1 0.86527-0.22512-0.30257 0.02644-0.39968 0.97397
  -8   0  10   65.45  135.59   1 0.02024-0.81674-0.52746 0.37511 0.84933-0.43842
  -8   0   9  -13.81  128.41   1-0.00303-0.78701-0.51661 0.37946 0.85621-0.48643
  -8   0   8 7099.62  477.92   1-0.02944-0.75385-0.50411 0.38220 0.86313-0.53444
  -8   0   7  945.31  219.50   1-0.05940-0.71714-0.48936 0.38269 0.87005-0.58244
  -8   0   6   -4.62  123.27   1-0.09300-0.67680-0.47210 0.38067 0.87662-0.63010
  -8   0   5   70.29  131.84   1-0.13027-0.63277-0.45206 0.37586 0.88242-0.67698
  -8   0   4  351.62  217.12   1-0.17100-0.58536-0.42869 0.36757 0.88711-0.72265
  -8   0   3  568.50  217.73   1-0.21534-0.53427-0.40230 0.35646 0.88981-0.76647
  -8   0   2 6055.52  389.79   1-0.26277-0.48010-0.37247 0.34191 0.89006-0.80783
  -8   0   1  -71.66  113.78   1-0.31280-0.42338-0.33865 0.32339 0.88739-0.84626
  -8   0   0   72.94  110.92   1-0.36472-0.36472-0.30186 0.30186 0.88082-0.88082
   8   0   0   53.36   47.30   1 0.36428 0.36428-0.71388 0.71388 0.59805-0.59805
  -8   0  -1 1477.21  258.64   1-0.41772-0.30496-0.26184 0.27709 0.87002-0.91115
   8   0   1  930.02  194.81   1 0.31494 0.40691-0.77726 0.76210 0.54467-0.50359
   8   0   2 1802.01  277.67   1 0.47113 0.24521 0.22862-0.25921-0.85191 0.93417
  -8   0  -2 1617.08  270.31   1-0.47097-0.24534-0.21859 0.24914 0.85463-0.93687
   8   0   2 1468.52  343.48   1 0.27111 0.44431-0.82602 0.79551 0.49415-0.41198
   8   0   3 1282.73  248.63   1 0.52357 0.18618 0.18316-0.22903-0.83205 0.95544
  -8   0  -3 1116.28  232.62   1-0.52324-0.18635-0.17331 0.21914 0.83437-0.95773
   8   0   3  651.20  168.75   1 0.23264 0.47612-0.86210 0.81635 0.45016-0.32690
   8   0   4  658.54  114.04   1 0.57372 0.12890 0.13767-0.19856-0.80739 0.97157
  -8   0  -4  570.97  179.89   1-0.57367-0.12944-0.12494 0.18582 0.80949-0.97401
   8   0   4  432.80  100.14   1 0.19970 0.50272-0.88899 0.82819 0.41207-0.24770
   8   0   5 3596.43  574.70   1 0.62164 0.07437 0.08932-0.16543-0.77818 0.98341
  -8   0  -5 3887.17  504.02   1-0.62138-0.07511-0.07686 0.15295 0.77972-0.98537
   8   0   5 2694.28  583.13   1 0.17124 0.52452-0.90962 0.83363 0.37848-0.17301
   8   0   6 1752.60  362.80   1 0.66613 0.02327 0.04049-0.13183-0.74472 0.99099
   8   0   6 1388.27  281.97   1 0.14711 0.54197-0.92523 0.83404 0.34970-0.10314
   8   0   7 2180.75  278.54   1 0.70667-0.02392-0.00823-0.09830-0.70748 0.99486
   8   0   8  -73.81  110.30   1 0.74279-0.06665-0.05602-0.06574-0.66717 0.99560
   8   0   9  109.05  119.26   1 0.77389-0.10457-0.10421-0.03308-0.62467 0.99396
   8   0  10   53.91  113.51   1 0.80084-0.13809-0.14881-0.00374-0.58008 0.99041
   8   0  11   81.42  122.36   1 0.82335-0.16717-0.19135 0.02353-0.53429 0.98564
   8   0  12  214.94  177.31   1 0.84119-0.19163-0.23296 0.04954-0.48796 0.98021
   8   0  13  310.05  179.94   1 0.85556-0.21270-0.27086 0.07216-0.44118 0.97444
   8   0  14   49.57  121.20   1 0.86630-0.23014-0.30643 0.09244-0.39446 0.96875
   8   0  15   53.96  133.77   1 0.87367-0.24337-0.34059 0.11055-0.34739 0.96361
  -8  -1  10  214.11  180.72   1 0.04984-0.84244-0.54044 0.32596 0.83990-0.42898
  -8  -1   9   59.04  131.14   1 0.02797-0.81383-0.53090 0.33165 0.84696-0.47714
  -8  -1   8 -107.97  118.21   1 0.00257-0.78169-0.51942 0.33541 0.85451-0.52578
  -8  -1   7 1367.12  253.80   1-0.02682-0.74581-0.50537 0.33656 0.86248-0.57487
  -8  -1   6 1294.68  244.13   1-0.05986-0.70602-0.48913 0.33556 0.87015-0.62363
  -8  -1   5  553.33  175.06   1-0.09691-0.66223-0.47004 0.33172 0.87730-0.67187
  -8  -1   4  658.42  215.34   1-0.13799-0.61440-0.44779 0.32470 0.88342-0.71907
  -8  -1   3  267.49  185.74   1-0.18292-0.56278-0.42174 0.31378 0.88807-0.76472
  -8  -1   2  159.52  162.94   1-0.23161-0.50735-0.39226 0.29958 0.89021-0.80798
  -8  -1   1  -60.93  104.66   1-0.28348-0.44873-0.35890 0.28151 0.88928-0.84816
  -8  -1   0  188.62  160.76   1-0.33792-0.38758-0.32114 0.25904 0.88469-0.88469
   8   1   0  215.21  124.71   1 0.41908 0.30597-0.63039 0.69239 0.65342-0.65342
  -8  -1  -1  178.45  158.77   1-0.39392-0.32483-0.28013 0.23329 0.87541-0.91654
   8   1   1   48.07   44.89   1 0.37268 0.34519-0.70194 0.74876 0.60693-0.56586
  -8  -1  -2  676.41  178.66   1-0.45061-0.26174-0.23538 0.20384 0.86112-0.94336
   8   1   2  493.74  103.71   1 0.33000 0.38117-0.75907 0.79073 0.56116-0.47900
   8   1   3 2044.69  374.69   1 0.50597 0.19973 0.19879-0.18244-0.83932 0.96271
  -8  -1  -3 2236.39  316.42   1-0.50655-0.19909-0.18813 0.17186 0.84143-0.96479
   8   1   3 1934.99  431.64   1 0.29139 0.41326-0.80486 0.82108 0.51699-0.39374
   8   1   4  877.18  197.98   1 0.56040 0.13871 0.14910-0.14805-0.81468 0.97920
  -8  -1  -4  733.47  197.80   1-0.56072-0.13820-0.13871 0.13772 0.81630-0.98078
   8   1   4  617.60  147.25   1 0.25696 0.44104-0.83988 0.84085 0.47807-0.31373
   8   1   5 2969.56  532.91   1 0.61138 0.08057 0.10001-0.11396-0.78498 0.99021
  -8  -1  -5 3302.63  411.88   1-0.61209-0.08034-0.08653 0.10053 0.78603-0.99168
   8   1   5 2544.58  481.65   1 0.22671 0.46464-0.86722 0.85294 0.44329-0.23787
   8   1   611791.44 1843.79   1 0.65923 0.02611 0.04835-0.07752-0.75037 0.99664
   8   1   610975.52 1855.09   1 0.20086 0.48419-0.88810 0.85890 0.41343-0.16686
   8   1   7  212.33  116.81   1 0.70269-0.02400-0.00324-0.04114-0.71148 0.99886
   8   1   7   83.29   66.04   1 0.17835 0.50003-0.90470 0.86029 0.38691-0.09926
   8   1   8 1823.13  280.24   1 0.74117-0.06909-0.05376-0.00584-0.66915 0.99759
   8   1   8 1842.52  334.47   1 0.15926 0.51244-0.91758 0.85798 0.36423-0.03548
   8   1   9  -11.91  100.17   1 0.77412-0.10883-0.10457 0.02940-0.62433 0.99362
   8   1   9  223.36  139.51   1 0.14330 0.52173-0.92754 0.85274 0.34513 0.02471
   8   1  10  462.44  256.97   1 0.80227-0.14355-0.15135 0.06093-0.57744 0.98776
   8   1  10  353.79  141.67   1 0.13018 0.52818-0.93519 0.84519 0.32932 0.08160
   8   1  11  985.21  184.69   1 0.82549-0.17334-0.19573 0.09006-0.52937 0.98073
   8   1  12   25.41  108.66   1 0.84362-0.19805-0.23887 0.11758-0.48086 0.97311
   8   1  13 1296.36  263.81   1 0.85790-0.21903-0.27790 0.14133-0.43215 0.96542
   8   1  14  495.23  198.94   1 0.86827-0.23540-0.31523 0.16273-0.38304 0.95817
   8   1  15   59.23  123.85   1 0.87511-0.24881-0.34897 0.18113-0.33524 0.95146
   8   1  16  569.30  205.78   1 0.87882-0.25909-0.38025 0.19707-0.28823 0.94553
  -8  -2   9   69.77  124.40   1 0.05564-0.83761-0.54292 0.28154 0.83793-0.46811
  -8  -2   8  122.61  119.43   1 0.03135-0.80658-0.53240 0.28625 0.84591-0.51717
  -8  -2   7   77.11  151.15   1 0.00315-0.77165-0.51969 0.28878 0.85434-0.56670
  -8  -2   6  -10.75   91.30   1-0.02945-0.73253-0.50410 0.28841 0.86313-0.61661
  -8  -2   5  263.15  209.98   1-0.06612-0.68911-0.48597 0.28551 0.87146-0.66603
  -8  -2   4  475.81  185.46   1-0.10723-0.64125-0.46456 0.27934 0.87902-0.71467
  -8  -2   3  349.69  165.16   1-0.15277-0.58896-0.43949 0.26951 0.88515-0.76189
  -8  -2   2   31.84  102.68   1-0.20259-0.53245-0.41004 0.25525 0.88928-0.80705
  -8  -2   1  238.48  140.94   1-0.25626-0.47203-0.37666 0.23715 0.89019-0.84908
  -8  -2   0  296.15  174.78   1-0.31323-0.40833-0.33835 0.21415 0.88735-0.88735
   8   2   0  194.18  134.28   1 0.46483 0.25625-0.54445 0.66845 0.69821-0.69821
  -8  -2  -1  325.64  171.25   1-0.37235-0.34246-0.29626 0.18732 0.87953-0.92066
   8   2   1  187.81  117.01   1 0.42371 0.29068-0.62241 0.73127 0.65807-0.61703
  -8  -2  -2  938.69  215.02   1-0.43255-0.27551-0.25016 0.15647 0.86620-0.94847
   8   2   2 1064.96  199.66   1 0.38354 0.32363-0.68596 0.77959 0.61833-0.53618
   8   2   3 1132.02  235.83   1 0.49096 0.21071 0.21182-0.13325-0.84503 0.96842
  -8  -2  -3 1480.90  255.27   1-0.49258-0.20910-0.20026 0.12190 0.84690-0.97026
   8   2   3 1073.80  272.82   1 0.34634 0.35413-0.73822 0.81669 0.57885-0.45562
   8   2   4 3566.49  619.48   1 0.54949 0.14558 0.15938-0.09611-0.82015 0.98466
  -8  -2  -4 4177.69  466.22   1-0.55077-0.14419-0.14808 0.08499 0.82141-0.98589
   8   2   4 3812.30  615.35   1 0.31218 0.38158-0.78049 0.84381 0.54163-0.37732
   8   2   5   67.37   50.63   1 0.60427 0.08362 0.10731-0.05910-0.78951 0.99474
  -8  -2  -5   26.13  100.55   1-0.60611-0.08227-0.09268 0.04459 0.78996-0.99561
   8   2   5  120.81   82.12   1 0.28139 0.40585-0.81548 0.86317 0.50576-0.30035
   8   2   6   76.37   63.83   1 0.65568 0.02559 0.05235-0.01936-0.75321 0.99948
   8   2   6  115.25   44.53   1 0.25397 0.42662-0.84273 0.87517 0.47465-0.22815
   8   2   715584.40 2009.20   1 0.70214-0.02751-0.00255 0.02032-0.71203 0.99941
   8   2   714620.14 1662.64   1 0.22987 0.44406-0.86451 0.88170 0.44695-0.15937
   8   2   8 9457.20 4289.40   1 0.74291-0.07490-0.05618 0.05873-0.66702 0.99545
   8   2   8 8312.06 1074.41   1 0.20943 0.45824-0.88137 0.88376 0.42345-0.09470
   8   2   9 5030.37  327.75   1 0.77750-0.11624-0.10989 0.09686-0.61919 0.98848
   8   2   9 4075.05  724.33   1 0.19155 0.46945-0.89515 0.88234 0.40249-0.03265
   8   2  10  245.16  138.87   1 0.80653-0.15184-0.15902 0.13073-0.56939 0.97972
   8   2  10   88.40   64.59   1 0.17645 0.47788-0.90603 0.87802 0.38466 0.02627
   8   2  11 4593.91  350.61   1 0.82963-0.18134-0.20677 0.16290-0.51860 0.96983
   8   2  11 3794.01  517.81   1 0.16392 0.48374-0.91454 0.87133 0.36978 0.08224
   8   2  12  369.91  242.46   1 0.84796-0.20637-0.24987 0.19072-0.46745 0.95970
   8   2  12  158.68   94.18   1 0.15376 0.48723-0.92110 0.86270 0.35766 0.13546
   8   2  13  146.86  152.38   1 0.86165-0.22676-0.28988 0.21545-0.41655 0.94982
   8   2  13   74.42  108.31   1 0.14577 0.48855-0.92605 0.85245 0.34809 0.18612
   8   2  14  124.58  159.73   1 0.87115-0.24228-0.32782 0.23752-0.36554 0.94068
   8   2  14   51.84  113.98   1 0.13978 0.48787-0.92965 0.84084 0.34089 0.23441
   8   2  15  220.61  168.47   1 0.13562 0.48536-0.93208 0.82808 0.33588 0.28052
   8   2  16  -81.54  117.88   1 0.87954-0.26382-0.39310 0.27213-0.26809 0.92538
   8   2  16  103.58  123.21   1 0.13314 0.48117-0.93351 0.81431 0.33289 0.32460
  -8  -3   9  134.19  124.43   1 0.07993-0.85801-0.55304 0.22953 0.82930-0.45948
  -8  -3   8 1154.30  235.53   1 0.05680-0.82814-0.54341 0.23513 0.83754-0.50880
  -8  -3   7  117.31  116.02   1 0.02962-0.79423-0.53163 0.23859 0.84645-0.55881
  -8  -3   6  328.06  167.06   1-0.00219-0.75587-0.51700 0.23917 0.85598-0.60946
  -8  -3   5  -41.43   93.90   1-0.03836-0.71296-0.49978 0.23719 0.86530-0.65986
  -8  -3   4 1026.84  189.34   1-0.07938-0.66519-0.47919 0.23184 0.87411-0.70976
  -8  -3   3  142.74  121.06   1-0.12535-0.61247-0.45476 0.22264 0.88174-0.75848
  -8  -3   2  127.97  103.85   1-0.17627-0.55486-0.42563 0.20873 0.88755-0.80532
  -8  -3   1 1559.35  202.01   1-0.23173-0.49265-0.39218 0.19056 0.89021-0.84910
   8   3  -1 1479.78  163.10   1 0.53646 0.18706-0.36840 0.56966 0.75926-0.80030
  -8  -3   0  674.39  158.57   1-0.29114-0.42649-0.35380 0.16746 0.88885-0.88885
   8   3   0  697.30  152.10   1 0.50225 0.21447-0.46121 0.64728 0.73145-0.73145
  -8  -3  -1  118.60  138.67   1-0.35372-0.35715-0.30985 0.13881 0.88253-0.92367
   8   3   1  -23.71   79.78   1 0.46658 0.24384-0.54081 0.71168 0.69986-0.65882
  -8  -3  -2  348.20  135.93   1-0.41784-0.28628-0.26174 0.10596 0.86999-0.95226
   8   3   2  428.99  168.84   1 0.43110 0.27263-0.60935 0.76507 0.66545-0.58337
   8   3   3   82.69   88.11   1 0.47937 0.21825 0.22169-0.08090-0.84914 0.97253
  -8  -3  -3   78.19   94.37   1-0.48222-0.21552-0.20912 0.06866 0.85072-0.97408
   8   3   3    0.22   64.80   1 0.39605 0.30043-0.66676 0.80720 0.63132-0.50809
   8   3   4  146.10   83.88   1 0.54241 0.14861 0.16597-0.04046-0.82355 0.98806
  -8  -3  -4  -18.24   88.25   1-0.54481-0.14621-0.15364 0.02845 0.82436-0.98884
   8   3   4  -20.27   82.84   1 0.36346 0.32632-0.71503 0.84032 0.59717-0.43286
   8   3   5  498.95  113.89   1 0.60130 0.08252 0.11032 0.00004-0.79136 0.99658
  -8  -3  -5  424.85  146.65   1-0.60445-0.07986-0.09437-0.01580 0.79103-0.99668
   8   3   5  526.36  144.38   1 0.33324 0.34984-0.75503 0.86516 0.56468-0.35929
   8   3   6   30.59   50.34   1 0.65651 0.02070 0.05142 0.04372-0.75255 0.99882
   8   3   6   50.66   50.12   1 0.30568 0.37081-0.78902 0.88344 0.53291-0.28641
   8   3   7  148.68   86.80   1 0.70600-0.03543-0.00739 0.08732-0.70816 0.99554
   8   3   7  499.80  137.48   1 0.28088 0.38895-0.81602 0.89518 0.50518-0.21759
   8   3   8  120.46   67.14   1 0.74890-0.08495-0.06462 0.12932-0.65952 0.98795
   8   3   8  -51.37   93.63   1 0.25887 0.40431-0.83805 0.90197 0.48025-0.15158
   8   3   9   20.21   91.35   1 0.78477-0.12753-0.12155 0.17066-0.60774 0.97704
   8   3  10  521.68  141.86   1 0.81412-0.16346-0.17317 0.20702-0.55425 0.96458
   8   3  10  431.49  116.96   1 0.22293 0.42694-0.87043 0.90384 0.43891-0.02807
   8   3  11 3235.76  318.72   1 0.83688-0.19257-0.22283 0.24110-0.49997 0.95120
   8   3  11 2557.29  434.17   1 0.20928 0.43435-0.88149 0.90028 0.42327 0.02875
   8   3  12  684.31  176.59   1 0.85429-0.21668-0.26717 0.27016-0.44586 0.93811
   8   3  12  499.15  142.69   1 0.19743 0.43952-0.89073 0.89431 0.40940 0.08371
   8   3  13 1290.64  200.97   1 0.86669-0.23526-0.30893 0.29617-0.39165 0.92570
   8   3  13 1274.49  284.44   1 0.18775 0.44253-0.89795 0.88634 0.39802 0.13619
   8   3  14  211.26  122.44   1 0.87463-0.24977-0.34607 0.31797-0.33947 0.91460
   8   3  14  353.91  154.65   1 0.18008 0.44353-0.90348 0.87666 0.38896 0.18634
   8   3  15  352.39  209.64   1 0.87879-0.26051-0.37994 0.33651-0.28871 0.90492
   8   3  15  255.82  126.94   1 0.17428 0.44266-0.90754 0.86553 0.38209 0.23430
   8   3  16   51.61   73.70   1 0.17021 0.44006-0.91032 0.85311 0.37726 0.28023
  -8  -4   8  140.61  115.12   1 0.07858-0.84603-0.55249 0.18208 0.82980-0.50107
  -8  -4   7  133.33  149.33   1 0.05245-0.81316-0.54156 0.18638 0.83902-0.55137
  -8  -4   6   97.65  136.89   1 0.02177-0.77574-0.52814 0.18820 0.84887-0.60232
  -8  -4   5  199.45  174.23   1-0.01413-0.73328-0.51141 0.18669 0.85921-0.65378
  -8  -4   4   41.75   88.45   1-0.05498-0.68569-0.49157 0.18209 0.86909-0.70474
  -8  -4   3  516.16  182.50   1-0.10131-0.63261-0.46771 0.17347 0.87805-0.75479
  -8  -4   2   32.63   90.61   1-0.15329-0.57392-0.43884 0.15983 0.88538-0.80315
  -8  -4   1 1874.98  267.30   1-0.21058-0.50989-0.40520 0.14147 0.88964-0.84852
   8   4  -1 1090.35  173.96   1 0.55966 0.15991-0.29042 0.55372 0.77616-0.81720
  -8  -4   0 2072.20  252.09   1-0.27269-0.44103-0.36601 0.11756 0.88975-0.88975
   8   4   0 1938.81  214.16   1 0.53201 0.18076-0.38052 0.62861 0.75641-0.75641
  -8  -4  -1 2326.00  245.27   1-0.33890-0.36803-0.32044 0.08731 0.88456-0.92570
   8   4   1 2503.71  248.41   1 0.50225 0.20376-0.46120 0.69412 0.73145-0.69040
  -8  -4  -2 1889.55  271.28   1-0.40736-0.29282-0.26987 0.05199 0.87248-0.95474
   8   4   2 1971.32  295.08   1 0.47120 0.22856-0.53108 0.74880 0.70421-0.62212
  -8  -4  -3  119.99   80.45   1-0.47660-0.21718-0.21387 0.01131 0.85270-0.97606
   8   4   3  297.20  147.14   1 0.44039 0.25268-0.59238 0.79497 0.67463-0.55150
   8   4   4  359.04  174.15   1 0.54043 0.14656 0.16780 0.01992-0.82448 0.98900
  -8  -4  -4  633.06  161.03   1-0.54412-0.14295-0.15428-0.03299 0.82469-0.98917
   8   4   4  744.86  180.48   1 0.41039 0.27599-0.64500 0.83245 0.64462-0.48045
   8   4   5   90.06   74.81   1 0.60385 0.07591 0.10774 0.06479-0.78978 0.99500
  -8  -4  -5  276.42  151.06   1-0.60852-0.07173-0.09021-0.08205 0.78839-0.99404
   8   4   5   58.43   67.39   1 0.38100 0.29808-0.68976 0.86185 0.61568-0.41029
   8   4   6 2776.56  471.91   1 0.66310 0.01005 0.04396 0.11334-0.74723 0.99350
   8   4   6 3087.69  580.89   1 0.35424 0.31814-0.72769 0.88463 0.58734-0.34088
   8   4   7  310.80   92.93   1 0.71559-0.04909-0.01959 0.16168-0.69823 0.98562
   8   4   7  576.23  143.97   1 0.32961 0.33606-0.75955 0.90134 0.56073-0.27319
   8   4   8 1001.88  190.53   1 0.76025-0.10036-0.08106 0.20793-0.64454 0.97297
   8   4   8 1223.58  237.63   1 0.30725 0.35182-0.78723 0.91311 0.53466-0.20599
   8   4   9 1141.59  176.97   1 0.79673-0.14352-0.14163 0.25287-0.58750 0.95679
   8   4   9 1117.70  217.29   1 0.28724 0.36517-0.80931 0.91995 0.51234-0.14258
   8   4  10   28.99   76.47   1 0.82554-0.17891-0.19583 0.29182-0.52926 0.93958
   8   4  10  114.58  103.37   1 0.26957 0.37619-0.82755 0.92294 0.49241-0.08158
   8   4  11  177.41  133.39   1 0.84694-0.20662-0.24722 0.32762-0.47071 0.92193
   8   4  11   35.49   48.27   1 0.25419 0.38492-0.84252 0.92266 0.47490-0.02298
   8   4  12  750.75  122.55   1 0.24099 0.39146-0.85470 0.91959 0.45978 0.03322
   8   4  13   72.44   87.81   1 0.22988 0.39592-0.86450 0.91414 0.44696 0.08712
   8   4  14  115.35  129.03   1 0.22075 0.39840-0.87226 0.90664 0.43637 0.13879
   8   4  15  145.33  126.45   1 0.21347 0.39903-0.87825 0.89738 0.42790 0.18834
   8   4  16  195.13  105.39   1 0.20853 0.39771-0.88209 0.88687 0.42240 0.23509
   8   4  17  213.87   88.16   1 0.20463 0.39494-0.88517 0.87475 0.41784 0.28074
  -8  -5   6  155.28  132.76   1 0.04142-0.79149-0.53681 0.13473 0.84268-0.59613
  -8  -5   5   80.36   96.89   1 0.00639-0.74972-0.52117 0.13433 0.85342-0.64796
  -8  -5   4   83.19   88.72   1-0.03460-0.70215-0.50161 0.13000 0.86439-0.70005
  -8  -5   3   18.77   82.50   1-0.08130-0.64871-0.47820 0.12182 0.87447-0.75121
  -8  -5   2  969.67  178.25   1-0.13425-0.58901-0.44986 0.10872 0.88294-0.80077
  -8  -5   1   54.46   92.30   1-0.19365-0.52290-0.41539 0.08954 0.88878-0.84767
   8   5  -1  324.85  204.79   1 0.57729 0.13833-0.21828 0.54361 0.78682-0.82785
  -8  -5   0 2848.13  255.84   1-0.25873-0.45107-0.37507 0.06450 0.89015-0.89015
   8   5   0 2644.58  270.03   1 0.55569 0.15318-0.30486 0.61504 0.77346-0.77346
  -8  -5  -1  341.64  114.41   1-0.32902-0.37396-0.32739 0.03216 0.88574-0.92688
   8   5   1  568.27  187.14   1 0.53106 0.17101-0.38334 0.67829 0.75566-0.71461
  -8  -5  -2  592.85  145.32   1-0.40246-0.29378-0.27363-0.00634 0.87358-0.95585
   8   5   2  302.21  123.93   1 0.50498 0.19034-0.45437 0.73416 0.73384-0.65174
   8   5   3  998.98  178.58   1 0.47811 0.21046-0.51750 0.78212 0.70964-0.58649
   8   5   4   91.33  134.50   1 0.45096 0.23145-0.57227 0.82172 0.68493-0.52076
   8   5   5  109.36   90.65   1 0.42471 0.25101-0.62066 0.85497 0.65908-0.45387
   8   5   6  437.23  149.20   1 0.39958 0.26945-0.66251 0.88169 0.63356-0.38731
   8   5   7  906.72  201.19   1 0.37500 0.28668-0.69858 0.90234 0.60938-0.32184
   8   5   8  117.91   78.36   1 0.35304 0.30194-0.72930 0.91790 0.58606-0.25744
   8   5   9 2638.88  436.48   1 0.33298 0.31529-0.75535 0.92880 0.56440-0.19471
   8   5  10   70.03   93.37   1 0.31490 0.32668-0.77731 0.93560 0.54462-0.13385
   8   5  13  117.07   98.83   1 0.27247 0.34922-0.82464 0.93625 0.49570 0.03838
   8   5  14  520.70  147.77   1 0.26217 0.35287-0.83486 0.93121 0.48401 0.09116
   8   5  15  499.09  150.07   1 0.25366 0.35473-0.84302 0.92412 0.47430 0.14195
   8   5  16  205.76  103.80   1 0.24685 0.35489-0.84937 0.91522 0.46651 0.19083
   8   5  17  -40.44  101.28   1 0.24166 0.35343-0.85410 0.90470 0.46054 0.23787
   8   6  -1  134.90  106.58   1 0.59129 0.12089-0.15255 0.54008 0.79189-0.83288
   8   6   0   42.30   91.05   1 0.57391 0.13101-0.23329 0.60550 0.78498-0.78498
   8   6   1  101.13  104.24   1 0.55442 0.14375-0.30940 0.66646 0.77258-0.73154
   8   6   2   56.46   84.44   1 0.53253 0.15884-0.37895 0.72076 0.75683-0.67473
   8   6   3  942.54  219.40   1 0.50967 0.17496-0.44242 0.76906 0.73790-0.61475
   8   6   4   92.94   97.84   1 0.48618 0.19170-0.49943 0.81091 0.71706-0.55287
   8   6   5   61.82   97.42   1 0.46237 0.20938-0.54949 0.84581 0.69588-0.49067
   8   6   6 1960.10  254.40   1 0.43938 0.22568-0.59426 0.87544 0.67363-0.42738
   8   6   7 1652.58  236.54   1 0.41727 0.24111-0.63348 0.89952 0.65159-0.36430
   8   6   8   13.81   90.25   1 0.39537 0.25562-0.66782 0.91839 0.63062-0.30201
   8   6   9  872.72  233.04   1 0.37585 0.26844-0.69735 0.93276 0.61027-0.24057
   8   6  10  253.78  158.63   1 0.35790 0.27968-0.72271 0.94297 0.59125-0.18048
   8   6  11   -5.86   37.42   1 0.34163 0.28925-0.74434 0.94945 0.57378-0.12193
   8   6  12  359.19  216.67   1 0.32708 0.29710-0.76267 0.95262 0.55797-0.06505
   8   6  13  935.04  205.75   1 0.31425 0.30322-0.77807 0.95286 0.54391-0.00991
   8   6  14  996.66  332.69   1 0.30303 0.30790-0.79201 0.95034 0.52998 0.04519
   8   6  15  147.40   98.46   1 0.29358 0.31070-0.80248 0.94556 0.51944 0.09681
   8   6  16   97.48  109.19   1 0.28575 0.31188-0.81090 0.93873 0.51066 0.14667
   8   6  17  223.84   79.34   1 0.27947 0.31150-0.81748 0.93005 0.50360 0.19482
   8   7  -1  230.29  162.24   1 0.60112 0.10709-0.09006 0.53965 0.79406-0.83504
   8   7   0  257.19  196.10   1 0.58866 0.11282-0.16700 0.60140 0.79093-0.79093
   8   7   1  312.00  192.67   1 0.57263 0.12159-0.23881 0.65790 0.78425-0.74321
   8   7   2    8.24   93.83   1 0.55519 0.13228-0.30666 0.71060 0.77312-0.69104
   8   7   3   88.27  129.51   1 0.53616 0.14456-0.36930 0.75808 0.75903-0.63592
   8   7   4  157.23  153.73   1 0.51575 0.15818-0.42641 0.79991 0.74308-0.57889
   8   7   5 1028.05  231.22   1 0.49521 0.17197-0.47835 0.83668 0.72521-0.51997
   8   7   6 1047.66  184.49   1 0.47431 0.18678-0.52441 0.86759 0.70711-0.46086
   8   7   7  121.06  151.51   1 0.45416 0.20025-0.56600 0.89404 0.68802-0.40073
   8   7   8  161.26  130.75   1 0.43472 0.21299-0.60282 0.91572 0.66904-0.34071
   8   7   9   84.77  114.54   1 0.41626 0.22476-0.63519 0.93295 0.65058-0.28120
   8   7  10  155.18  120.84   1 0.39793 0.23566-0.66379 0.94602 0.63326-0.22249
   8   7  11   35.61   77.77   1 0.38195 0.24494-0.68834 0.95542 0.61667-0.16482
   8   7  12  -22.32  102.68   1 0.36739 0.25279-0.70950 0.96142 0.60134-0.10842
   8   7  13  579.39  182.02   1 0.35432 0.25917-0.72758 0.96435 0.58742-0.05342
   8   7  14 2015.33  398.95   1 0.34275 0.26403-0.74290 0.96451 0.57499 0.00009
   8   7  15  324.05  145.41   1 0.33269 0.26739-0.75572 0.96217 0.56408 0.05207
   8   7  16  -25.77  112.92   1 0.32411 0.26926-0.76629 0.95759 0.55473 0.10249
   8   8  -1 2005.47  263.39   1 0.60830 0.09484-0.03195 0.54351 0.79306-0.83402
   8   8   0  186.81  153.94   1 0.59920 0.09832-0.10363 0.60009 0.79386-0.79386
   8   8   1   41.35  103.42   1 0.58761 0.10318-0.17260 0.65387 0.79052-0.74953
   8   8   2  -60.99   94.59   1 0.57301 0.11051-0.23718 0.70315 0.78447-0.70239
   8   8   3  199.20  169.33   1 0.55751 0.11926-0.29830 0.74912 0.77471-0.65160
   8   8   4  162.32  131.35   1 0.54076 0.12926-0.35501 0.79067 0.76258-0.59843
   8   8   5  139.11  133.93   1 0.52281 0.14043-0.40706 0.82742 0.74897-0.54373
   8   8   6  180.87  180.18   1 0.50486 0.15163-0.45468 0.85988 0.73373-0.48744
   8   8   7  278.24  204.26   1 0.48690 0.16285-0.49780 0.88783 0.71771-0.43037
   8   8   8  159.61  138.68   1 0.46887 0.17487-0.53601 0.91091 0.70202-0.37369
   8   8   9  114.07  125.32   1 0.45181 0.18524-0.57060 0.93036 0.68576-0.31638
   8   8  10  693.81  193.26   1 0.43557 0.19480-0.60127 0.94590 0.66988-0.25946
   8   8  11  -38.29  101.14   1 0.42031 0.20337-0.62829 0.95778 0.65466-0.20320
   8   8  12  557.61  119.92   1 0.40617 0.21082-0.65193 0.96628 0.64031-0.14781
   8   8  13  698.05  192.49   1 0.39212 0.21737-0.67288 0.97162 0.62726-0.09326
   8   8  14   61.77   95.44   1 0.38046 0.22233-0.69057 0.97414 0.61511-0.04003
   8   8  15  329.97  121.84   1 0.37011 0.22597-0.70563 0.97405 0.60422 0.01193
   8   8  16  306.02  134.88   1 0.36110 0.22828-0.71831 0.97158 0.59466 0.06256
   8   9  -1   43.91  144.39   1 0.61299 0.08612 0.02357 0.55002 0.78973-0.83069
   8   9   0  380.35  176.39   1 0.60684 0.08671-0.04368 0.60220 0.79361-0.79361
   8   9   1  279.30  170.37   1 0.59840 0.08842-0.10900 0.65233 0.79374-0.75275
   8   9   2  130.51  111.81   1 0.58784 0.09226-0.17136 0.69950 0.79061-0.70864
   8   9   3  172.20  119.95   1 0.57468 0.09814-0.22993 0.74278 0.78540-0.66229
   8   9   4   -3.38  101.22   1 0.56099 0.10509-0.28544 0.78313 0.77705-0.61290
   8   9   5  173.83  125.14   1 0.54629 0.11303-0.33714 0.81968 0.76674-0.56155
   8   9   6  208.10  170.93   1 0.53053 0.12201-0.38488 0.85210 0.75524-0.50895
   8   9   7 1472.83  277.50   1 0.51487 0.13092-0.42875 0.88081 0.74234-0.45500
   8   9   8 1650.45  250.79   1 0.49920 0.13985-0.46872 0.90561 0.72876-0.40037
   8   9   9  322.50  188.68   1 0.48378 0.14852-0.50489 0.92661 0.71486-0.34543
   8   9  10  244.30  165.73   1 0.46845 0.15794-0.53690 0.94352 0.70163-0.29121
   8   9  11  292.79  183.45   1 0.45420 0.16550-0.56591 0.95740 0.68806-0.23660
   8   9  12  837.57  202.06   1 0.44079 0.17223-0.59164 0.96799 0.67502-0.18252
   8   9  13  202.64  141.08   1 0.42832 0.17800-0.61430 0.97551 0.66269-0.12915
   8   9  14   32.68  125.07   1 0.41691 0.18273-0.63409 0.98016 0.65123-0.07665
   8   9  15   55.42  120.75   1 0.40660 0.18635-0.65122 0.98216 0.64076-0.02513
   8  10   1  143.32  122.52   1 0.60632 0.07654-0.04844 0.65383 0.79374-0.75275
   8  10   2   56.26  117.08   1 0.59857 0.07756-0.10789 0.69808 0.79376-0.71179
   8  10   3   39.19  113.58   1 0.58909 0.08031-0.16467 0.73967 0.79110-0.66814
   8  10   4  108.35  158.67   1 0.57732 0.08480-0.21813 0.77786 0.78683-0.62268
   8  10   5   56.59  161.11   1 0.56530 0.09007-0.26885 0.81342 0.77983-0.57465
   8  10   6   88.27  124.78   1 0.55247 0.09616-0.31624 0.84566 0.77121-0.52498
   8  10   7  234.79  185.05   1 0.53910 0.10277-0.36021 0.87447 0.76132-0.47405
   8  10   8  155.78  193.24   1 0.52504 0.11006-0.40078 0.89969 0.75080-0.42241
   8  10   9  314.42  197.24   1 0.51140 0.11695-0.43791 0.92165 0.73938-0.36995
   8  10  10  331.95  200.37   1 0.49798 0.12362-0.47168 0.94026 0.72768-0.31720
   8  10  11  117.08  130.33   1 0.48497 0.12989-0.50220 0.95561 0.71595-0.26442
   8  10  12   90.55  128.95   1 0.47211 0.13694-0.52915 0.96750 0.70505-0.21255
   8  10  13  593.35  200.63   1 0.46038 0.14198-0.55356 0.97677 0.69398-0.16044
   8  11   4   31.05  119.21   1 0.59112 0.06758-0.15347 0.77535 0.79184-0.62790
   8  11   5  154.22  127.42   1 0.58067 0.07075-0.20252 0.80912 0.78854-0.58335
   8  11   6   38.97  117.17   1 0.57019 0.07448-0.24908 0.84053 0.78283-0.53661
   8  11   7  279.05  184.80   1 0.55904 0.07888-0.29269 0.86899 0.77575-0.48849
   8  11   8   -8.15  122.99   1 0.54746 0.08372-0.33328 0.89443 0.76759-0.43929
   8  11   9  -39.29  131.88   1 0.53519 0.08921-0.37092 0.91669 0.75893-0.38949
   8  11  10  328.12  246.92   1 0.52338 0.09427-0.40545 0.93606 0.74944-0.33896
   8  11  11  343.91  210.53   1 0.51175 0.09916-0.43699 0.95243 0.73968-0.28815
  -9   5   4 1158.93  279.90   1-0.39877-0.46853-0.27645 0.52592 0.87438-0.70984
  -9   5   3  650.09  252.95   1-0.43257-0.42798-0.25014 0.51486 0.86620-0.74279
   9  -5  -2   -8.66  120.23   1 0.47034 0.38379 0.22928-0.50983-0.85217 0.76991
  -9   5   2 -128.00  143.89   1-0.46717-0.38699-0.22176 0.50168 0.85590-0.77366
   9  -5  -1  192.31  116.28   1 0.50526 0.34228 0.19941-0.49525-0.83960 0.79847
  -9   5   1   39.14  142.99   1-0.50210-0.34533-0.19202 0.48721 0.84321-0.80209
   9  -5   0  139.25   91.17   1 0.54019 0.30075 0.16802-0.47915-0.82459 0.82459
  -9   5   0  166.81  154.35   1-0.53706-0.30366-0.16078 0.47125 0.82807-0.82807
   9  -5   1    4.27   86.12   1 0.57482 0.25910 0.13661-0.46264-0.80679 0.84783
  -9   5  -1   76.51  145.31   1-0.57138-0.26307-0.12716 0.45283 0.81077-0.85190
   9  -5   2   64.78  109.82   1 0.60860 0.21870 0.10287-0.44412-0.78677 0.86886
  -9   5  -2   74.75  143.84   1-0.60526-0.22257-0.09354 0.43443 0.79050-0.87276
   9  -5   3  384.34  130.17   1 0.64131 0.17938 0.06825-0.42473-0.76423 0.88736
   9  -5   4  334.73  127.51   1 0.67261 0.14147 0.03301-0.40471-0.73925 0.90343
   9  -5   5  999.11  204.84   1 0.70222 0.10520-0.00266-0.38423-0.71194 0.91722
  -9   4   5  165.53  215.29   1-0.33149-0.53861-0.32566 0.49777 0.88546-0.67979
  -9   4   4   28.13  133.88   1-0.36526-0.49809-0.30146 0.48883 0.88073-0.71619
  -9   4   3   44.16  136.08   1-0.40035-0.45626-0.27525 0.47787 0.87404-0.75063
  -9   4   2  156.12  204.63   1-0.43643-0.41343-0.24706 0.46494 0.86514-0.78287
   9  -4  -1  -98.96  117.51   1 0.47586 0.36764 0.22466-0.45827-0.85034 0.80921
  -9   4   1  -20.17  132.47   1-0.47322-0.37027-0.21671 0.44981 0.85387-0.81275
   9  -4   0  -40.08  119.61   1 0.51279 0.32410 0.19277-0.44167-0.83658 0.83658
  -9   4   0   43.23  139.00   1-0.51015-0.32662-0.18496 0.43334 0.83995-0.83995
   9  -4   1 1575.52  317.31   1 0.54953 0.28077 0.15935-0.42354-0.82013 0.86126
  -9   4  -1 1600.77  284.40   1-0.54689-0.28316-0.15170 0.41536 0.82334-0.86446
   9  -4   2  619.84  188.10   1 0.58560 0.23764 0.12605-0.40514-0.80073 0.88282
  -9   4  -2  586.00  246.41   1-0.58277-0.24100-0.11606 0.39486 0.80430-0.88656
   9  -4   3  114.23   60.84   1 0.62064 0.19599 0.09037-0.38468-0.77886 0.90200
  -9   4  -3   62.56  136.86   1-0.61787-0.19929-0.08053 0.37455 0.78214-0.90553
   9  -4   4  135.17  102.45   1 0.65428 0.15573 0.05392-0.36345-0.75432 0.91850
   9  -4   5 1232.35  307.42   1 0.68619 0.11716 0.01692-0.34166-0.72721 0.93249
   9  -4   6   37.42   96.40   1 0.71607 0.08067-0.02021-0.31975-0.69773 0.94406
   9  -4   7 1005.04  309.59   1 0.74368 0.04645-0.05725-0.29792-0.66607 0.95345
  -9   3   6  324.94  211.90   1-0.26506-0.60771-0.37098 0.46564 0.89000-0.64331
  -9   3   5 1029.76  242.36   1-0.29785-0.56818-0.34930 0.45924 0.88841-0.68283
  -9   3   4  820.61  240.28   1-0.33245-0.52696-0.32499 0.45026 0.88535-0.72081
  -9   3   3  458.37  231.27   1-0.36873-0.48394-0.29892 0.43945 0.88015-0.75675
  -9   3   2  205.51  161.56   1-0.40628-0.43964-0.27070 0.42648 0.87272-0.79045
  -9   3   1  -24.59  134.01   1-0.44483-0.39471-0.24007 0.41108 0.86283-0.82171
   9  -3   0  232.73  168.79   1 0.48581 0.34704 0.21622-0.40290-0.84689 0.84689
  -9   3   0  143.06  145.34   1-0.48373-0.34909-0.20784 0.39412 0.85017-0.85017
   9  -3   1 2035.69  356.36   1 0.52474 0.30152 0.18210-0.38407-0.83155 0.87268
  -9   3  -1 2735.22  362.88   1-0.52263-0.30347-0.17387 0.37542 0.83464-0.87576
   9  -3   2  452.18  178.74   1 0.56318 0.25648 0.14645-0.36371-0.81324 0.89550
  -9   3  -2  303.85  164.12   1-0.56104-0.25833-0.13840 0.35523 0.81613-0.89837
   9  -3   3   61.87   73.93   1 0.60052 0.21205 0.11112-0.34327-0.79184 0.91498
  -9   3  -3  151.48  201.40   1-0.59831-0.21479-0.10059 0.33252 0.79492-0.91831
   9  -3   4   47.34  135.91   1 0.63658 0.16937 0.07339-0.32077-0.76770 0.93188
   9  -3   5  256.82  159.34   1 0.67085 0.12849 0.03506-0.29765-0.74076 0.94598
   9  -3   6  -15.13  134.50   1 0.70301 0.08967-0.00364-0.27415-0.71116 0.95749
   9  -3   7  163.22   85.94   1 0.73274 0.05332-0.04223-0.25079-0.67918 0.96657
   9  -3   8   86.83   89.17   1 0.75986 0.01959-0.08048-0.22776-0.64508 0.97351
   9  -3   9  883.32  251.90   1 0.78361-0.01114-0.11967-0.20403-0.60960 0.97890
  -9   2   7 1004.95  262.30   1-0.20110-0.67450-0.41093 0.42820 0.88920-0.60140
  -9   2   5   84.39  137.51   1-0.26524-0.59687-0.37087 0.41869 0.88999-0.68442
  -9   2   4   42.50  133.22   1-0.30068-0.55469-0.34738 0.41049 0.88820-0.72374
  -9   2   3  328.25  210.90   1-0.33800-0.51073-0.32108 0.39950 0.88468-0.76127
  -9   2   2  522.34  189.39   1-0.37695-0.46503-0.29286 0.38654 0.87871-0.79644
  -9   2   1  195.98  211.93   1-0.41710-0.41814-0.26232 0.37126 0.87017-0.82904
  -9   2   0   84.03  145.75   1-0.45809-0.37078-0.22927 0.35346 0.85882-0.85882
   9  -2   1    7.68   51.23   1 0.50067 0.32154 0.20342-0.34316-0.84139 0.88252
  -9   2  -1   32.83  131.60   1-0.49917-0.32298-0.19457 0.33403 0.84437-0.88549
   9  -2   2  196.02  113.91   1 0.54150 0.27412 0.16681-0.32185-0.82398 0.90623
  -9   2  -2   77.33  182.41   1-0.53993-0.27550-0.15814 0.31288 0.82671-0.90895
   9  -2   3  483.44  153.61   1 0.58123 0.22727 0.13035-0.30034-0.80322 0.92636
  -9   2  -3  213.62  170.23   1-0.57969-0.22935-0.11908 0.28892 0.80608-0.92947
   9  -2   4  956.51  196.99   1 0.61980 0.18209 0.09125-0.27646-0.77943 0.94361
  -9   2  -4  992.06  271.05   1-0.61822-0.18421-0.08017 0.26522 0.78190-0.94642
   9  -2   4  872.55  193.89   1 0.15335 0.64829-0.92136 0.73657 0.35717-0.19279
   9  -2   5  603.70  169.09   1 0.65653 0.13875 0.05140-0.25184-0.75254 0.95777
   9  -2   6   -6.32  123.77   1 0.69104 0.09758 0.01108-0.22672-0.72273 0.96905
   9  -2   7  193.27  121.17   1 0.72294 0.05905-0.02917-0.20169-0.69028 0.97766
   9  -2   8  341.85  171.87   1 0.75203 0.02336-0.06908-0.17700-0.65549 0.98393
   9  -2   9  575.55  225.20   1 0.77756-0.00912-0.10997-0.15159-0.61910 0.98840
   9  -2  10  319.42  242.63   1 0.80055-0.03868-0.14829-0.12853-0.58062 0.99095
  -9   1   7  755.21  277.57   1-0.16956-0.70213-0.42953 0.38468 0.88698-0.59918
  -9   1   6 -108.11  135.58   1-0.20050-0.66445-0.41129 0.38173 0.88917-0.64248
  -9   1   5  111.34  128.14   1-0.23408-0.62411-0.39071 0.37643 0.89024-0.68467
  -9   1   4   59.15  118.76   1-0.27016-0.58129-0.36766 0.36866 0.88984-0.72538
  -9   1   3  140.77  129.08   1-0.30849-0.53630-0.34160 0.35793 0.88777-0.76436
  -9   1   2  570.00  218.53   1-0.34876-0.48928-0.31341 0.34500 0.88325-0.80098
  -9   1   1 2923.10  324.57   1-0.39056-0.44074-0.28267 0.32951 0.87609-0.83496
  -9   1   0   27.50  116.47   1-0.43340-0.39115-0.24948 0.31158 0.86597-0.86597
   9  -1   1  128.17  119.17   1 0.47765 0.34053 0.22315-0.30067-0.84973 0.89086
  -9   1  -1  -42.10  112.70   1-0.47684-0.34135-0.21366 0.29103 0.85262-0.89374
   9  -1   2  381.63  199.51   1 0.52093 0.29065 0.18553-0.27834-0.83319 0.91544
  -9   1  -2   93.50  168.39   1-0.52001-0.29146-0.17621 0.26885 0.83578-0.91802
   9  -1   3  712.21  156.60   1 0.56347 0.24151 0.14618-0.25428-0.81309 0.93648
  -9   1  -3  712.26  180.65   1-0.56244-0.24231-0.13707 0.24499 0.81539-0.93875
   9  -1   3  594.07  171.86   1 0.23404 0.56993-0.86088 0.75316 0.45176-0.32851
   9  -1   4  -48.96  116.83   1 0.60430 0.19352 0.10727-0.23032-0.78949 0.95367
  -9   1  -4   30.26  114.15   1-0.60344-0.19493-0.09540 0.21836 0.79167-0.95619
   9  -1   4  153.77  107.95   1 0.20300 0.59460-0.88644 0.76364 0.41594-0.25156
   9  -1   5  -32.43  118.04   1 0.64358 0.14763 0.06577-0.20404-0.76254 0.96776
   9  -1   5  145.05   86.00   1 0.17623 0.61470-0.90618 0.76819 0.38441-0.17894
   9  -1   6  988.79  243.12   1 0.68052 0.10403 0.02367-0.17716-0.73234 0.97866
   9  -1   6  900.21  173.01   1 0.15354 0.63072-0.92124 0.76805 0.35740-0.11084
   9  -1   7   11.71   70.59   1 0.71466 0.06328-0.01839-0.15031-0.69922 0.98661
   9  -1   7   46.45   97.01   1 0.13450 0.64309-0.93273 0.76434 0.33453-0.04687
   9  -1   8  415.94  129.83   1 0.74572 0.02561-0.06012-0.12380-0.66353 0.99197
   9  -1   9  168.46   81.29   1 0.77301-0.00860-0.10284-0.09659-0.62599 0.99528
   9  -1  10  156.05  132.90   1 0.79740-0.03956-0.14279-0.07189-0.58630 0.99662
   9  -1  11  258.52  199.75   1 0.81841-0.06715-0.18148-0.04846-0.54520 0.99656
  -9   0   7 1168.43  228.62   1-0.14027-0.72743-0.44651 0.33984 0.88371-0.59610
  -9   0   6   36.96  134.09   1-0.17092-0.69011-0.42874 0.33706 0.88710-0.64041
  -9   0   5  -27.56  111.90   1-0.20472-0.64957-0.40875 0.33235 0.88938-0.68380
  -9   0   4  117.46  122.92   1-0.24132-0.60621-0.38617 0.32505 0.89029-0.72583
  -9   0   3 1021.38  259.92   1-0.28054-0.56025-0.36085 0.31501 0.88942-0.76608
  -9   0   2  -46.24  102.22   1-0.32208-0.51203-0.33224 0.30172 0.88649-0.80422
  -9   0   1  112.64  119.89   1-0.36550-0.46186-0.30129 0.28603 0.88069-0.83956
  -9   0   0 5862.44  420.01   1-0.41031-0.41031-0.26760 0.26760 0.87179-0.87179
  -9   0  -1 1890.64  290.84   1-0.45604-0.35821-0.23095 0.24622 0.85946-0.90058
   9   0   2   -4.43   51.62   1 0.50186 0.30568 0.20238-0.23297-0.84093 0.92319
  -9   0  -2   19.14  106.44   1-0.50170-0.30583-0.19237 0.22292 0.84337-0.92561
   9   0   3 1289.44  239.53   1 0.54707 0.25387 0.16164-0.20752-0.82132 0.94471
  -9   0  -3  946.32  225.89   1-0.54674-0.25406-0.15184 0.19766 0.82341-0.94677
   9   0   3 1110.44  247.13   1 0.28567 0.51419-0.81098 0.76523 0.51057-0.38732
   9   0   4  901.57  167.50   1 0.59052 0.20324 0.12117-0.18206-0.79787 0.96205
  -9   0  -4  868.76  228.45   1-0.59048-0.20383-0.10844 0.16931 0.79973-0.96425
   9   0   4  551.17  143.39   1 0.25298 0.54022-0.84366 0.78265 0.47353-0.30919
   9   0   5  175.45  147.15   1 0.63246 0.15469 0.07783-0.15394-0.77067 0.97589
   9   0   5  201.86  157.44   1 0.22445 0.56210-0.86915 0.79289 0.44067-0.23525
   9   0   6   91.79   82.54   1 0.67187 0.10867 0.03387-0.12521-0.73989 0.98616
   9   0   6  201.11  137.54   1 0.20015 0.58008-0.88865 0.79745 0.41259-0.16603
   9   0   7  102.59   88.33   1 0.70832 0.06556-0.01031-0.09623-0.70581 0.99319
   9   0   7  -50.94   95.27   1 0.17903 0.59452-0.90422 0.79782 0.38772-0.10007
   9   0   8  167.89  103.52   1 0.74135 0.02591-0.05402-0.06774-0.66893 0.99736
   9   0   8   -9.81   69.27   1 0.16115 0.60574-0.91636 0.79476 0.36648-0.03773
   9   0   9  233.15  149.00   1 0.77036-0.00998-0.09874-0.03855-0.62991 0.99920
   9   0   9  -49.80   98.90   1 0.14620 0.61402-0.92579 0.78900 0.34860 0.02124
   9   0  10   94.34  120.52   1 0.79604-0.04223-0.14045-0.01210-0.58871 0.99903
   9   0  10  110.25   99.86   1 0.13390 0.61964-0.93307 0.78108 0.33381 0.07711
   9   0  11  356.21  218.37   1 0.81802-0.07079-0.18071 0.01290-0.54605 0.99740
   9   0  12  207.07  184.07   1 0.83593-0.09512-0.22066 0.03724-0.50252 0.99476
  -9  -1   6   78.80  130.63   1-0.14377-0.71328-0.44456 0.29099 0.88413-0.63761
  -9  -1   5  -41.52  110.19   1-0.17751-0.67285-0.42491 0.28639 0.88765-0.68208
  -9  -1   4  102.62  159.33   1-0.21454-0.62908-0.40279 0.27955 0.88979-0.72533
  -9  -1   3  331.48  172.91   1-0.25455-0.58232-0.37776 0.26980 0.89022-0.76687
  -9  -1   2   46.12  100.12   1-0.29726-0.53286-0.34969 0.25701 0.88845-0.80622
  -9  -1   1   -5.85   96.95   1-0.34233-0.48109-0.31800 0.24065 0.88412-0.84299
  -9  -1   0  126.54  121.69   1-0.38912-0.42755-0.28376 0.22166 0.87638-0.87638
  -9  -1  -1  217.66  177.59   1-0.43703-0.37290-0.24658 0.19974 0.86498-0.90611
   9   1   2   96.83  105.28   1 0.48477 0.31873 0.21711-0.18547-0.84726 0.92951
  -9  -1  -2   50.59  105.59   1-0.48546-0.31812-0.20636 0.17482 0.84955-0.93179
   9   1   3   73.26   74.53   1 0.53278 0.26412 0.17481-0.15846-0.82799 0.95138
  -9  -1  -3  -10.58   98.44   1-0.53325-0.26360-0.16425 0.14798 0.82985-0.95321
   9   1   3  135.10  104.31   1 0.33528 0.46026-0.75246 0.76897 0.56690-0.44366
   9   1   4   -7.37  108.35   1 0.57896 0.21074 0.13257-0.13130-0.80450 0.96868
  -9  -1  -4  393.45  229.13   1-0.57986-0.21038-0.11891 0.11770 0.80598-0.97050
   9   1   4  258.30  138.47   1 0.30241 0.48669-0.79271 0.79368 0.52928-0.36495
   9   1   5  402.20  196.83   1 0.62368 0.15940 0.08716-0.10111-0.77679 0.98202
  -9  -1  -5  275.15  175.94   1-0.62433-0.15931-0.07376 0.08776 0.77766-0.98331
   9   1   6  650.46  178.88   1 0.66569 0.11078 0.04100-0.07017-0.74509 0.99136
   9   1   6  965.86  159.67   1 0.24701 0.52878-0.84922 0.81969 0.46668-0.22018
   9   1   7 7721.47 1343.47   1 0.70446 0.06536-0.00545-0.03893-0.70972 0.99710
   9   1   7 7233.37 1247.09   1 0.22431 0.54482-0.86926 0.82448 0.44051-0.15293
   9   1   8  486.07  183.59   1 0.73944 0.02375-0.05138-0.00822-0.67124 0.99968
   9   1   8  -57.15  100.05   1 0.20514 0.55771-0.88477 0.82517 0.41843-0.08969
   9   1   9  111.85  114.82   1 0.77006-0.01371-0.09828 0.02312-0.63034 0.99963
   9   1   9  131.21   87.63   1 0.18841 0.56777-0.89747 0.82267 0.39879-0.02895
   9   1  10  247.50  166.97   1 0.79687-0.04710-0.14188 0.05146-0.58724 0.99756
   9   1  10  161.27  113.68   1 0.17432 0.57519-0.90751 0.81751 0.38214 0.02879
   9   1  11 1783.50  304.91   1 0.81959-0.07638-0.18380 0.07812-0.54265 0.99401
   9   1  11 1247.23  226.18   1 0.16266 0.58018-0.91537 0.81017 0.36828 0.08374
   9   1  12  153.82  127.23   1 0.83790-0.10109-0.22520 0.10391-0.49718 0.98943
   9   1  12 -155.69  116.77   1 0.15323 0.58293-0.92143 0.80103 0.35703 0.13609
   9   1  13  187.82  128.01   1 0.85283-0.12271-0.26304 0.12647-0.45108 0.98434
   9   1  13  -15.94  110.18   1 0.14585 0.58364-0.92600 0.79040 0.34818 0.18602
  -9  -2   6   99.43  169.45   1-0.11909-0.73405-0.45817 0.24247 0.88084-0.63432
  -9  -2   5  282.19  179.44   1-0.15295-0.69344-0.43939 0.23893 0.88517-0.67974
  -9  -2   4    7.25  105.08   1-0.19025-0.64946-0.41741 0.23206 0.88857-0.72411
  -9  -2   3 1912.80  283.66   1-0.23098-0.60197-0.39265 0.22258 0.89020-0.76686
  -9  -2   2  332.05  191.32   1-0.27485-0.55137-0.36460 0.20981 0.88967-0.80744
  -9  -2   1  190.07  139.54   1-0.32154-0.49794-0.33261 0.19316 0.88655-0.84541
  -9  -2   0  364.41  224.14   1-0.37036-0.44237-0.29772 0.17353 0.87987-0.87987
  -9  -2  -1  415.69  226.29   1-0.42069-0.38529-0.25951 0.15057 0.86928-0.91042
  -9  -2  -2  -58.80   84.69   1-0.47188-0.32775-0.21783 0.12419 0.85432-0.93656
   9   2   2   14.32   71.84   1 0.41668 0.38215-0.63448 0.72821 0.65100-0.56891
   9   2   3 1153.42  280.36   1 0.52121 0.27165 0.18528-0.10671-0.83307 0.95645
  -9  -2  -3 1220.31  208.61   1-0.52259-0.27032-0.17390 0.09553 0.83465-0.95801
   9   2   3  801.73  208.77   1 0.38160 0.40994-0.68887 0.76734 0.61630-0.49307
   9   2   4  932.19  280.64   1 0.57026 0.21537 0.14102-0.07758-0.80926 0.97344
  -9  -2  -4 1008.24  203.67   1-0.57224-0.21394-0.12632 0.06301 0.81029-0.97481
   9   2   4  824.50  165.11   1 0.34950 0.43534-0.73404 0.79736 0.58225-0.41794
   9   2   5 2214.21  391.02   1 0.61793 0.16110 0.09321-0.04500-0.78068 0.98591
  -9  -2  -5 2170.34  257.30   1-0.61955-0.16002-0.07877 0.03068 0.78098-0.98663
   9   2   5 1761.03  299.06   1 0.32012 0.45801-0.77111 0.81927 0.55036-0.34498
   9   2   6  916.64  242.49   1 0.66263 0.10978 0.04450-0.01150-0.74761 0.99388
   9   2   6  848.28  156.94   1 0.29367 0.47801-0.80239 0.83483 0.51954-0.27303
   9   2   7  812.86  196.66   1 0.70373 0.06202-0.00455 0.02232-0.71044 0.99782
   9   2   7 1041.79  204.55   1 0.27004 0.49499-0.82708 0.84428 0.49294-0.20536
   9   2   8   -5.32  104.02   1 0.74060 0.01854-0.05298 0.05553-0.66984 0.99828
   9   2   8   -0.70   68.82   1 0.24922 0.50915-0.84717 0.84911 0.46922-0.14055
   9   2   9   91.55  113.54   1 0.77267-0.02035-0.10231 0.08928-0.62650 0.99579
   9   2   9  109.72   97.29   1 0.23109 0.52063-0.86346 0.85015 0.44836-0.07860
   9   2  10  -13.50  100.63   1 0.80035-0.05460-0.14794 0.11966-0.58098 0.99131
   9   2  10   53.02   53.41   1 0.21549 0.52957-0.87659 0.84803 0.43027-0.01943
   9   2  11 1599.49  225.63   1 0.82347-0.08429-0.19158 0.14804-0.53402 0.98538
   9   2  11 1374.26  311.41   1 0.20277 0.53603-0.88662 0.84341 0.41567 0.03635
   9   2  12   63.87  112.48   1 0.84180-0.10897-0.23442 0.17526-0.48622 0.97847
   9   2  12   -0.44  115.23   1 0.19178 0.54035-0.89498 0.83657 0.40277 0.09034
   9   2  13   61.92   64.04   1 0.18285 0.54261-0.90150 0.82789 0.39224 0.14197
  -9  -3   5  223.98  163.14   1-0.13128-0.71120-0.45150 0.18891 0.88255-0.67712
  -9  -3   4  239.26  179.34   1-0.16890-0.66689-0.42991 0.18245 0.88693-0.72247
  -9  -3   3  227.60  151.70   1-0.21033-0.61872-0.40535 0.17317 0.88963-0.76628
  -9  -3   2 1089.97  230.54   1-0.25534-0.56696-0.37726 0.16035 0.89021-0.80798
  -9  -3   1  999.33  203.78   1-0.30369-0.51185-0.34487 0.14332 0.88816-0.84702
  -9  -3   0 3202.47  296.10   1-0.35464-0.45416-0.30919 0.12289 0.88240-0.88240
  -9  -3  -1  143.39  109.10   1-0.40754-0.39451-0.26973 0.09869 0.87243-0.91357
  -9  -3  -2  997.31  202.66   1-0.46168-0.33399-0.22631 0.07057 0.85768-0.93992
   9   3   2 1112.17  207.54   1 0.45591 0.33895-0.56254 0.71826 0.68970-0.60762
   9   3   3   43.35   74.99   1 0.51310 0.27572 0.19250-0.05170-0.83645 0.95984
  -9  -3  -3   85.29   96.00   1-0.51552-0.27343-0.18021 0.03975 0.83770-0.96106
   9   3   3   75.51   94.24   1 0.42422 0.36395-0.62152 0.76211 0.65859-0.53546
   9   3   4   78.45   67.24   1 0.56615 0.21607 0.14361-0.01811-0.81169 0.97620
  -9  -3  -4    7.36   84.40   1-0.56846-0.21366-0.12997 0.00457 0.81237-0.97689
   9   3   4  171.63  135.17   1 0.39322 0.38763-0.67117 0.79646 0.62840-0.46409
   9   3   5  397.69  211.55   1 0.61603 0.15893 0.09519 0.01517-0.78194 0.98717
  -9  -3  -5  206.08  178.85   1-0.61878-0.15673-0.07958-0.03059 0.78151-0.98716
   9   3   5  392.50  204.99   1 0.36479 0.40935-0.71316 0.82329 0.59859-0.39321
   9   3   6  212.71  140.39   1 0.66353 0.10481 0.04347 0.05168-0.74687 0.99314
   9   3   6  280.07  176.25   1 0.33857 0.42887-0.74828 0.84325 0.57047-0.32400
   9   3   7 1660.04  267.04   1 0.70697 0.05472-0.00861 0.08854-0.70718 0.99456
   9   3   7 2095.14  364.91   1 0.31471 0.44603-0.77754 0.85736 0.54441-0.25687
   9   3   8   82.17   87.08   1 0.74557 0.00950-0.05991 0.12462-0.66372 0.99215
   9   3   8  125.49   66.62   1 0.29328 0.46099-0.80281 0.86672 0.51910-0.19043
   9   3   9  117.78  100.47   1 0.77881-0.03052-0.11196 0.16106-0.61718 0.98647
   9   3   9  -26.48  105.24   1 0.27424 0.47338-0.82285 0.87151 0.49769-0.12794
   9   3  10  518.37  133.05   1 0.25754 0.48342-0.83933 0.87274 0.47873-0.06789
   9   3  11  -10.98  113.07   1 0.24309 0.49122-0.85281 0.87097 0.46219-0.01026
   9   3  12  181.02   98.54   1 0.23077 0.49688-0.86373 0.86664 0.44799 0.04500
   9   3  13  726.39  226.10   1 0.22047 0.50053-0.87248 0.86014 0.43606 0.09802
   9   3  14  191.97  147.35   1 0.21262 0.50214-0.87881 0.85200 0.42717 0.14813
  -9  -4   2  -30.20   81.27   1-0.23935-0.57903-0.38741 0.10839 0.89029-0.80806
  -9  -4   1 1112.62  216.59   1-0.28932-0.52232-0.35502 0.09128 0.88896-0.84784
  -9  -4   0  329.36  142.37   1-0.34269-0.46216-0.31775 0.06935 0.88407-0.88407
  -9  -4  -1  248.94  137.32   1-0.39840-0.39971-0.27673 0.04360 0.87446-0.91560
  -9  -4  -2  118.09  104.17   1-0.45578-0.33594-0.23116 0.01333 0.85954-0.94178
   9   4   2  260.04  174.03   1 0.48987 0.30047-0.49094 0.70870 0.72041-0.63831
   9   4   3  417.64  244.16   1 0.46133 0.32286-0.55162 0.75421 0.69489-0.57176
   9   4   4  101.78  105.39   1 0.43352 0.34398-0.60499 0.79244 0.66786-0.50369
   9   4   5  972.86  203.76   1 0.40683 0.36399-0.65085 0.82316 0.64099-0.43578
   9   4   6 2885.69  564.82   1 0.38080 0.38265-0.69005 0.84699 0.61547-0.36901
   9   4   7 1680.58  418.98   1 0.35738 0.39936-0.72342 0.86521 0.59070-0.30316
   9   4   8  220.63  110.80   1 0.33592 0.41412-0.75165 0.87828 0.56760-0.23898
   9   4   9  118.55  135.87   1 0.31651 0.42683-0.77541 0.88689 0.54639-0.17669
   9   4  10  656.99  164.59   1 0.29914 0.43771-0.79636 0.89175 0.52565-0.11481
   9   4  11  156.16   91.55   1 0.28384 0.44636-0.81292 0.89305 0.50851-0.05659
   9   4  12   57.12   98.06   1 0.27052 0.45303-0.82660 0.89149 0.49349-0.00048
   9   4  13  110.29   70.44   1 0.25912 0.45777-0.83781 0.88745 0.48053 0.05355
   9   4  14   43.93   74.71   1 0.24955 0.46069-0.84687 0.88125 0.46960 0.10557
   9   5   2   61.69   88.81   1 0.51850 0.26789-0.41897 0.69875 0.74539-0.66329
   9   5   3  135.15  138.20   1 0.49370 0.28594-0.48195 0.74657 0.72386-0.60071
   9   5   4  -35.72   91.41   1 0.46855 0.30498-0.53668 0.78613 0.70172-0.53756
   9   5   5  167.57  158.21   1 0.44407 0.32277-0.58547 0.81978 0.67824-0.47303
   9   5   6  479.22  184.08   1 0.42049 0.33967-0.62797 0.84715 0.65484-0.40859
   9   5   7  564.42  183.66   1 0.39723 0.35553-0.66490 0.86865 0.63254-0.34500
   9   5   8 1610.42  322.11   1 0.37632 0.36973-0.69665 0.88525 0.61077-0.28215
   9   5   9 1275.27  248.90   1 0.35706 0.38229-0.72385 0.89730 0.59036-0.22066
   9   5  10 3286.42  453.04   1 0.33954 0.39310-0.74703 0.90533 0.57152-0.16075
   9   5  11  143.80  165.28   1 0.32380 0.40214-0.76667 0.90981 0.55439-0.10254
   9   5  12  240.45  179.48   1 0.30980 0.40964-0.78430 0.91115 0.53748-0.04448
   9   5  13  125.05   89.55   1 0.29760 0.41518-0.79807 0.90967 0.52393 0.01015
   9   5  14  351.97  126.82   1 0.28713 0.41901-0.80943 0.90579 0.51221 0.06295
   9   6   2   28.23   91.05   1 0.54263 0.23987-0.34906 0.69096 0.76400-0.68193
   9   6   4  607.46  196.53   1 0.49926 0.26969-0.46855 0.78003 0.72882-0.56462
   9   6   5   42.17  102.17   1 0.47731 0.28489-0.51925 0.81557 0.70890-0.50365
   9   6   6  218.76  158.16   1 0.45548 0.30071-0.56338 0.84455 0.68929-0.44304
   9   6   7  427.45  184.75   1 0.43463 0.31487-0.60297 0.86901 0.66896-0.38167
   9   6   8  306.60  172.25   1 0.41480 0.32800-0.63764 0.88854 0.64910-0.32077
   9   6   9   92.39  127.00   1 0.39521 0.34015-0.66807 0.90349 0.63046-0.26076
   9   6  10   67.53  120.34   1 0.37797 0.35069-0.69424 0.91450 0.61250-0.20173
   9   6  11 1579.38  362.95   1 0.36221 0.35974-0.71676 0.92187 0.59585-0.14400
   9   6  12  690.46  189.93   1 0.34800 0.36725-0.73602 0.92597 0.58065-0.08772
   9   6  13   42.93  143.14   1 0.33535 0.37319-0.75237 0.92716 0.56698-0.03298
   9   6  14  203.33  180.52   1 0.32426 0.37758-0.76611 0.92575 0.55490 0.02017
   9   7   2   62.07  101.16   1 0.56217 0.21638-0.28097 0.68491 0.77782-0.69575
   9   7   3  448.15  178.01   1 0.54444 0.22736-0.34321 0.73199 0.76536-0.64225
   9   7   4  364.85  162.12   1 0.52535 0.23966-0.39990 0.77340 0.75105-0.58686
   9   7   5  -59.63  104.20   1 0.50609 0.25217-0.45158 0.80991 0.73480-0.52956
   9   7   6   94.22  119.97   1 0.48676 0.26475-0.49812 0.84129 0.71758-0.47129
   9   7   7   -1.09  104.26   1 0.46744 0.27808-0.53901 0.86704 0.70068-0.41339
   9   7   8  536.99  187.39   1 0.44903 0.28981-0.57601 0.88891 0.68306-0.35473
   9   7   9  105.15  121.62   1 0.43146 0.30069-0.60871 0.90647 0.66581-0.29643
   9   7  10  276.53  187.75   1 0.41492 0.31054-0.63744 0.92007 0.64922-0.23881
   9   7  11  127.24  136.99   1 0.39957 0.31920-0.66253 0.93002 0.63354-0.18209
   9   7  12  116.66  103.62   1 0.38440 0.32686-0.68467 0.93659 0.61923-0.12631
   9   7  13  178.09  138.93   1 0.37164 0.33292-0.70345 0.94021 0.60583-0.07183
   9   8   2  178.67  117.06   1 0.57793 0.19667-0.21533 0.68130 0.78715-0.70508
   9   8   3  187.35  160.22   1 0.56343 0.20442-0.27615 0.72697 0.77864-0.65552
   9   8   4  139.73  114.66   1 0.54769 0.21341-0.33252 0.76817 0.76776-0.60361
   9   8   5   11.16  107.62   1 0.53076 0.22354-0.38420 0.80456 0.75542-0.55018
   9   8   6    2.91  103.81   1 0.51381 0.23375-0.43157 0.83676 0.74144-0.49515
   9   8   7  884.07  206.27   1 0.49680 0.24401-0.47453 0.86456 0.72663-0.43929
   9   8   8   24.86  116.89   1 0.48004 0.25402-0.51324 0.88811 0.71142-0.38304
   9   8   9   28.49  115.32   1 0.46348 0.26470-0.54722 0.90699 0.69693-0.32756
   9   8  10  -74.60  118.68   1 0.44795 0.27354-0.57809 0.92271 0.68201-0.27160
   9   8  11  -60.74  123.71   1 0.43330 0.28151-0.60540 0.93488 0.66763-0.21617
   9   8  12  110.42  139.44   1 0.41965 0.28846-0.62942 0.94377 0.65400-0.16150
   9   9   4  210.05  168.07   1 0.56592 0.19123-0.26642 0.76411 0.78022-0.61607
   9   9   5  157.22  120.49   1 0.55200 0.19840-0.31785 0.80039 0.77088-0.56569
   9   9   6  152.86  174.90   1 0.53744 0.20621-0.36536 0.83274 0.76003-0.51381
   9   9   7  827.62  269.23   1 0.52214 0.21472-0.40892 0.86098 0.74842-0.46108
   9   9   8   97.25  132.81   1 0.50721 0.22291-0.44874 0.88563 0.73577-0.40739
   9   9   9  145.94  179.26   1 0.49248 0.23089-0.48483 0.90655 0.72277-0.35333
   9   9  10  103.42  129.17   1 0.47818 0.23844-0.51734 0.92390 0.70970-0.29922
  10  -1   0   61.74  122.23   1 0.47539 0.44058 0.22505-0.28728-0.85050 0.85050
 -10   1   0  253.33  140.07   1-0.47477-0.44136-0.21541 0.27750 0.85333-0.85333
  10  -1   1   37.33   61.42   1 0.51315 0.39622 0.19245-0.26997-0.83643 0.87756
 -10   1  -1  308.02  196.99   1-0.51243-0.39699-0.18295 0.26032 0.83901-0.88013
  10  -1   2   -1.69   89.63   1 0.55083 0.35194 0.15813-0.25094-0.81949 0.90175
 -10   1  -2   98.42  181.55   1-0.54999-0.35270-0.14881 0.24146 0.82180-0.90404
  10  -1   3 -112.44  123.97   1 0.58761 0.30796 0.12405-0.23188-0.79957 0.92270
 -10   1  -3  184.20  183.19   1-0.58692-0.30925-0.11196 0.21971 0.80185-0.92524
  10  -1   4  -47.51  114.85   1 0.62369 0.26527 0.08716-0.21021-0.77679 0.94097
 -10   1  -4   60.47  128.68   1-0.62290-0.26666-0.07526 0.19822 0.77866-0.94318
  10  -1   5  215.05  111.66   1 0.65831 0.22403 0.04939-0.18766-0.75111 0.95634
  10  -1   6  514.93  212.05   1 0.69113 0.18455 0.01096-0.16444-0.72263 0.96896
 -10   0   1   13.57  107.59   1-0.41699-0.50155-0.26241 0.24715 0.87020-0.82906
 -10   0   0  292.50  192.69   1-0.45609-0.45609-0.23090 0.23090 0.85945-0.85945
  10   0   1  178.23  120.11   1 0.49555 0.40978 0.20786-0.22315-0.84333 0.88446
 -10   0  -1  114.28  128.04   1-0.49554-0.40993-0.19771 0.21299 0.84577-0.88689
  10   0   2  268.17  131.28   1 0.53521 0.36352 0.17260-0.20318-0.82689 0.90915
 -10   0  -2  190.43  178.12   1-0.53504-0.36370-0.16262 0.19317 0.82902-0.91126
  10   0   3   41.16   99.55   1 0.57396 0.31754 0.13744-0.18310-0.80726 0.93039
 -10   0  -3  237.48  175.74   1-0.57406-0.31805-0.12456 0.17021 0.80927-0.93266
  10   0   4  169.55   98.13   1 0.61215 0.27275 0.09921-0.16010-0.78448 0.94866
 -10   0  -4  396.22  211.43   1-0.61211-0.27339-0.08651 0.14738 0.78602-0.95054
  10   0   5  214.17  126.36   1 0.64886 0.22943 0.05996-0.13607-0.75854 0.96376
  10   0   6  135.74  133.58   1 0.68366 0.18797 0.01994-0.11127-0.72952 0.97585
  10   0   7  608.89  142.14   1 0.71610 0.14891-0.02025-0.08628-0.69769 0.98507
 -10  -1   1  586.70  243.07   1-0.39879-0.51581-0.27643 0.19908 0.87438-0.83324
 -10  -1   0  197.93  125.84   1-0.43954-0.46870-0.24433 0.18224 0.86435-0.86435
 -10  -1  -1  105.34  124.34   1-0.48082-0.42070-0.21031 0.16349 0.85122-0.89234
  10   1   2  180.90  110.37   1 0.52172 0.37297 0.18481-0.15317-0.83285 0.91510
 -10  -1  -2  -32.57  108.42   1-0.52232-0.37248-0.17414 0.14260 0.83477-0.91701
  10   1   3   60.15   74.18   1 0.56307 0.32503 0.14656-0.13021-0.81330 0.93669
 -10  -1  -3   75.51  115.25   1-0.56345-0.32463-0.13611 0.11984 0.81485-0.93821
  10   1   4  157.59  144.84   1 0.60288 0.27795 0.10872-0.10745-0.79038 0.95456
 -10  -1  -4   86.35  115.53   1-0.60368-0.27776-0.09515 0.09393 0.79152-0.95604
  10   1   5 1117.62  190.69   1 0.64172 0.23250 0.06780-0.08175-0.76392 0.96915
  10   1   6 1045.29  257.07   1 0.67854 0.18902 0.02601-0.05517-0.73409 0.98042
  10   1   7  152.89  102.28   1 0.71280 0.14814-0.01601-0.02837-0.70117 0.98855
  10   1   7   26.18   56.08   1 0.27114 0.58909-0.82598 0.78120 0.49418-0.20660
  10   1   8   33.33   76.52   1 0.74416 0.11017-0.05794-0.00166-0.66547 0.99391
  10   1   8  193.36   92.75   1 0.25118 0.60239-0.84535 0.78531 0.47147-0.14280
 -10  -2   1  214.48  130.14   1-0.38316-0.52750-0.28823 0.14878 0.87755-0.83642
 -10  -2   0   93.82  153.99   1-0.42533-0.47858-0.25587 0.13167 0.86811-0.86811
 -10  -2  -1  386.15  202.64   1-0.46877-0.42880-0.22043 0.11151 0.85536-0.89648
  10   2   2  -45.41   94.33   1 0.51091 0.37974 0.19444-0.10057-0.83735 0.91960
 -10  -2  -2   -1.78  102.78   1-0.51236-0.37849-0.18301 0.08937 0.83903-0.92127
 -10  -2  -3  237.31  180.23   1-0.55568-0.32844-0.14347 0.06511 0.81891-0.94227
 -10  -2  -4  145.91  110.19   1-0.59820-0.27918-0.10070 0.03739 0.79498-0.95950
  10   2   6  100.96   75.02   1 0.33426 0.52824-0.75374 0.78675 0.56580-0.31933
  10   2   8   65.79   79.90   1 0.29051 0.55896-0.80581 0.80775 0.51600-0.18733
  10   2   9   -6.50  108.61   1 0.27224 0.57057-0.82487 0.81156 0.49543-0.12568
  10   3   6  208.09  153.58   1 0.37311 0.48541-0.70133 0.79630 0.60738-0.36092
  10   3   7  215.14  140.53   1 0.35011 0.50170-0.73322 0.81304 0.58291-0.29537
  10   3   8  327.33  118.09   1 0.32921 0.51590-0.76005 0.82472 0.56029-0.23167
  10   3   9  -25.96  106.20   1 0.31046 0.52825-0.78354 0.83220 0.53821-0.16845
  10   4   6   23.35  100.80   1 0.41043 0.44483-0.64494 0.80211 0.64466-0.39841
  10   4   7 3612.19  522.86   1 0.38727 0.46055-0.68032 0.82211 0.62222-0.33468
  10   4   8 1465.08  323.44   1 0.36664 0.47448-0.71057 0.83720 0.60054-0.27193
  10   4   9  662.42  160.11   1 0.34777 0.48664-0.73632 0.84780 0.58040-0.21070
  10   5   5   61.09  104.67   1 0.46616 0.39181-0.54168 0.77600 0.69947-0.49426
  10   5   6    0.29  101.31   1 0.44404 0.40724-0.58553 0.80470 0.67821-0.43196
  10   5   7   10.78  107.99   1 0.42292 0.42168-0.62378 0.82782 0.65728-0.36999
  10   5   8   60.13  121.20   1 0.40304 0.43487-0.65699 0.84589 0.63711-0.30878
;
_shelx_hkl_checksum              81720
_shelx_res_file
;
    shelx.res created by SHELXL-2014/7
TITL KSPH run in space group P -1
CELL  0.71073   7.9150  12.1641  17.2550   69.510   79.500   82.930
ZERR     4.00   0.0070   0.0010   0.0140    0.020    0.020    0.030
LATT   1
SFAC  C    H    N    O    S
UNIT  72 36 12 8 4
MERG   2
FMAP   2
ACTA
BOND   $H
CONF
WPDB
L.S.   20
EQIV $1 1+x,y,z
EQIV $2 x,y,1+z
EQIV $3 x,-1+y,z
EQIV $4 1-x,-y,2-z
EQIV $5 x-1,y,z
HTAB C1 N1
HTAB C1' N1'
HTAB C2 N3'_$1
HTAB C13 N3_$2
HTAB C5' O2_$3
HTAB C8' O2_$3
HTAB C12' O2'_$4
HTAB C2' O3_$5
WGHT    0.082900    0.151600
FVAR       5.88210
S1    5    0.389212    0.788887    0.390105    11.00000    0.05873    0.06131 =
         0.05207   -0.02406   -0.01266    0.01512
O2    4    0.416241    0.761880    0.549647    11.00000    0.07006    0.07404 =
         0.05713   -0.03644   -0.01649    0.02280
O3    4    0.803335    0.484621    0.483729    11.00000    0.07082    0.06832 =
         0.05976   -0.03169   -0.01343    0.02115
N1    3    0.611131    0.632771    0.357635    11.00000    0.04887    0.05134 =
         0.04197   -0.01943   -0.00851   -0.00003
N2    3    0.596481    0.635077    0.494704    11.00000    0.04645    0.04697 =
         0.03986   -0.01786   -0.00814    0.00229
N3    3    0.784711    0.494647   -0.044226    11.00000    0.13120    0.12841 =
         0.06695   -0.05580   -0.03497    0.03829
C1    1    0.723359    0.565074    0.215281    11.00000    0.05742    0.06711 =
         0.03984   -0.01928   -0.01350    0.00625
AFIX  43
H1    2    0.777585    0.532418    0.262506    11.00000   -1.20000
AFIX   0
C2    1    0.774415    0.525918    0.148373    11.00000    0.06240    0.07434 =
         0.04653   -0.02422   -0.01040    0.01220
AFIX  43
H2    2    0.862343    0.467174    0.150478    11.00000   -1.20000
AFIX   0
C3    1    0.694479    0.574255    0.077983    11.00000    0.06722    0.07008 =
         0.04008   -0.02248   -0.00817   -0.00365
C4    1    0.564477    0.661761    0.074800    11.00000    0.06898    0.07344 =
         0.04373   -0.01944   -0.01873    0.00250
AFIX  43
H4    2    0.511106    0.694434    0.027303    11.00000   -1.20000
AFIX   0
C5    1    0.513918    0.700599    0.141840    11.00000    0.06796    0.06194 =
         0.04842   -0.02103   -0.01820    0.00810
AFIX  43
H5    2    0.426382    0.759673    0.139343    11.00000   -1.20000
AFIX   0
C6    1    0.592406    0.652414    0.213523    11.00000    0.04977    0.05260 =
         0.03798   -0.01307   -0.00826   -0.00756
C7    1    0.536130    0.690240    0.286470    11.00000    0.04728    0.04977 =
         0.03911   -0.01599   -0.00640   -0.00623
C8    1    0.415598    0.775766    0.293794    11.00000    0.05994    0.05836 =
         0.04584   -0.01497   -0.01608    0.00521
AFIX  43
H8    2    0.354234    0.822045    0.251256    11.00000   -1.20000
AFIX   0
C9    1    0.546014    0.675534    0.415443    11.00000    0.04482    0.04512 =
         0.04013   -0.01625   -0.00626   -0.00296
C10   1    0.526551    0.682551    0.557464    11.00000    0.04837    0.05209 =
         0.04670   -0.02291   -0.00866    0.00271
C11   1    0.614891    0.619121    0.629564    11.00000    0.05256    0.04907 =
         0.04259   -0.01528   -0.00654   -0.00795
C12   1    0.593468    0.634076    0.706619    11.00000    0.07423    0.06383 =
         0.04315   -0.02251   -0.00485   -0.00634
AFIX  43
H12   2    0.511158    0.688550    0.720173    11.00000   -1.20000
AFIX   0
C13   1    0.698788    0.565143    0.762031    11.00000    0.08474    0.07165 =
         0.04308   -0.01372   -0.01377   -0.01836
AFIX  43
H13   2    0.689346    0.573746    0.814154    11.00000   -1.20000
AFIX   0
C14   1    0.818081    0.483562    0.742293    11.00000    0.07226    0.07333 =
         0.04968   -0.00408   -0.02333   -0.01171
AFIX  43
H14   2    0.887289    0.437975    0.781600    11.00000   -1.20000
AFIX   0
C15   1    0.838702    0.466933    0.665270    11.00000    0.05886    0.06096 =
         0.05495   -0.01126   -0.01469   -0.00023
AFIX  43
H15   2    0.919065    0.411072    0.652273    11.00000   -1.20000
AFIX   0
C16   1    0.733905    0.537507    0.609330    11.00000    0.04594    0.04781 =
         0.04305   -0.01320   -0.00892   -0.00473
C17   1    0.724556    0.542447    0.523341    11.00000    0.04584    0.04483 =
         0.04970   -0.01568   -0.00796    0.00224
C18   1    0.745359    0.531090    0.009338    11.00000    0.09159    0.08790 =
         0.04804   -0.03001   -0.02168    0.01437
MOLE    2
S1'   5    0.376783   -0.068213    0.749558    11.00000    0.07091    0.06512 =
         0.06255   -0.02515   -0.02199    0.02069
O2'   4    0.404360   -0.030032    0.895364    11.00000    0.06194    0.13654 =
         0.08281   -0.05362   -0.03464    0.03695
O3'   4   -0.067348    0.195210    0.798799    11.00000    0.08300    0.09729 =
         0.06021   -0.03617   -0.03206    0.04272
N1'   3    0.165625    0.102808    0.684696    11.00000    0.04546    0.05494 =
         0.04509   -0.02020   -0.00777    0.00227
N2'   3    0.187023    0.080086    0.824604    11.00000    0.04684    0.05995 =
         0.04261   -0.01895   -0.01197    0.00382
N3'   3   -0.048511    0.256294    0.245124    11.00000    0.12273    0.08750 =
         0.06224   -0.01224   -0.03560   -0.00887
C1'   1    0.058469    0.196398    0.523481    11.00000    0.04650    0.05090 =
         0.04857   -0.02209   -0.00240   -0.00120
AFIX  43
H1'   2    0.021379    0.234294    0.562537    11.00000   -1.20000
AFIX   0
C2'   1    0.000245    0.239580    0.447170    11.00000    0.04773    0.04873 =
         0.05563   -0.01570   -0.00612   -0.00017
AFIX  43
H2'   2   -0.075503    0.306035    0.434881    11.00000   -1.20000
AFIX   0
C3'   1    0.055556    0.183092    0.388733    11.00000    0.05067    0.04955 =
         0.04619   -0.01166   -0.00573   -0.00875
C4'   1    0.169404    0.084870    0.407186    11.00000    0.06508    0.06145 =
         0.04909   -0.02609   -0.00368    0.00139
AFIX  43
H4'   2    0.207550    0.047670    0.367791    11.00000   -1.20000
AFIX   0
C5'   1    0.225840    0.042449    0.482954    11.00000    0.05623    0.05541 =
         0.05422   -0.02479   -0.00863    0.01063
AFIX  43
H5'   2    0.301642   -0.024004    0.494893    11.00000   -1.20000
AFIX   0
C6'   1    0.171407    0.097413    0.543035    11.00000    0.04151    0.04642 =
         0.04613   -0.01667   -0.00092   -0.00590
C7'   1    0.229068    0.050524    0.624855    11.00000    0.04393    0.04772 =
         0.04822   -0.01897   -0.00471   -0.00310
C8'   1    0.342870   -0.042535    0.650244    11.00000    0.06425    0.06013 =
         0.05863   -0.02853   -0.01209    0.01218
AFIX  43
H8'   2    0.396012   -0.086994    0.617288    11.00000   -1.20000
AFIX   0
C9'   1    0.230805    0.048520    0.752016    11.00000    0.04406    0.05078 =
         0.04697   -0.01725   -0.00668   -0.00010
C10'  1    0.278432    0.036833    0.892904    11.00000    0.04727    0.08090 =
         0.05418   -0.02220   -0.01724    0.00074
C11'  1    0.189003    0.086970    0.956086    11.00000    0.05577    0.06878 =
         0.04537   -0.01754   -0.01127   -0.00974
C12'  1    0.225945    0.073814    1.034074    11.00000    0.07221    0.09914 =
         0.05249   -0.02222   -0.02108   -0.00700
AFIX  43
H12'  2    0.319776    0.025985    1.055016    11.00000   -1.20000
AFIX   0
C13'  1    0.118341    0.134316    1.079536    11.00000    0.09883    0.09895 =
         0.04630   -0.02469   -0.01236   -0.02714
AFIX  43
H13'  2    0.139983    0.126676    1.132437    11.00000   -1.20000
AFIX   0
C14'  1   -0.019174    0.205198    1.049456    11.00000    0.09916    0.08033 =
         0.05183   -0.02717   -0.00197   -0.01140
AFIX  43
H14'  2   -0.088868    0.245219    1.081811    11.00000   -1.20000
AFIX   0
C15'  1   -0.055830    0.218081    0.971595    11.00000    0.08320    0.06671 =
         0.05370   -0.02267   -0.01081    0.00695
AFIX  43
H15'  2   -0.149537    0.266169    0.950737    11.00000   -1.20000
AFIX   0
C16'  1    0.049912    0.157935    0.925973    11.00000    0.06054    0.05523 =
         0.04184   -0.01521   -0.00695   -0.00551
C17'  1    0.040690    0.152550    0.842343    11.00000    0.05660    0.05678 =
         0.04647   -0.01629   -0.01039    0.00607
C18'  1   -0.003744    0.225311    0.308378    11.00000    0.07355    0.05684 =
         0.05738   -0.01383   -0.01138   -0.00893
HKLF 4
REM  KSPH run in space group P -1
REM R1 =  0.0584 for    4330 Fo > 4sig(Fo)  and  0.0944 for all    6901 data
REM    433 parameters refined using      0 restraints
END
WGHT      0.0747      0.1789
REM Highest difference peak  0.232,  deepest hole -0.359,  1-sigma level  0.051
Q1    1   0.6789  0.5812  0.6203  11.00000  0.05    0.22
Q2    1   0.0072  0.2241  0.7949  11.00000  0.05    0.20
Q3    1   0.0262  0.1872  0.9393  11.00000  0.05    0.20
Q4    1   0.4053 -0.0741  0.8914  11.00000  0.05    0.19
Q5    1   0.1212  0.1147  0.9456  11.00000  0.05    0.18
Q6    1   0.3964  0.7934  0.2750  11.00000  0.05    0.18
Q7    1  -0.1833  0.3321  0.4717  11.00000  0.05    0.18
Q8    1   0.4902  0.7012  0.8741  11.00000  0.05    0.18
Q9    1   0.5571  0.6748  0.1914  11.00000  0.05    0.18
Q10   1   0.7541  0.5235  0.3589  11.00000  0.05    0.18
Q11   1   0.6571  0.5289  0.3745  11.00000  0.05    0.18
Q12   1   0.6635  0.6419  0.0622  11.00000  0.05    0.18
Q13   1   0.2826  0.0058  0.6317  11.00000  0.05    0.17
Q14   1   0.0763  0.1670  0.6714  11.00000  0.05    0.17
Q15   1   0.7801  0.5116  0.6269  11.00000  0.05    0.17
Q16   1   0.5712  0.5755  0.3537  11.00000  0.05    0.17
Q17   1   0.1349  0.1214  0.8227  11.00000  0.05    0.17
Q18   1   0.3169  0.0161  0.7416  11.00000  0.05    0.17
Q19   1   0.2127  0.0451  0.9404  11.00000  0.05    0.17
Q20   1   0.7271  0.4726  0.2801  11.00000  0.05    0.17
;
_shelx_res_checksum              22300
loop_
_space_group_symop_operation_xyz
'x, y, z'
'-x, -y, -z'
loop_
_atom_site_type_symbol
_atom_site_label
_atom_site_fract_x
_atom_site_fract_y
_atom_site_fract_z
_atom_site_U_iso_or_equiv
_atom_site_adp_type
_atom_site_calc_flag
_atom_site_occupancy
S S1 0.38921(8) 0.78889(6) 0.39010(4) 0.0571(2) Uani d 1
O O2 0.4162(2) 0.76188(17) 0.54965(12) 0.0647(5) Uani d 1
O O3 0.8033(2) 0.48462(17) 0.48373(12) 0.0654(5) Uani d 1
N N1 0.6111(2) 0.63277(17) 0.35764(12) 0.0464(5) Uani d 1
N N2 0.5965(2) 0.63508(17) 0.49470(12) 0.0438(4) Uani d 1
N N3 0.7847(4) 0.4946(3) -0.04423(19) 0.1041(11) Uani d 1
C C1 0.7234(3) 0.5651(2) 0.21528(16) 0.0545(6) Uani d 1
H H1 0.7776 0.5324 0.2625 0.065 Uiso calc 1
C C2 0.7744(4) 0.5259(3) 0.14837(16) 0.0612(7) Uani d 1
H H2 0.8623 0.4672 0.1505 0.073 Uiso calc 1
C C3 0.6945(4) 0.5743(3) 0.07798(16) 0.0581(7) Uani d 1
C C4 0.5645(4) 0.6618(3) 0.07480(17) 0.0614(7) Uani d 1
H H4 0.5111 0.6944 0.0273 0.074 Uiso calc 1
C C5 0.5139(4) 0.7006(2) 0.14184(16) 0.0586(7) Uani d 1
H H5 0.4264 0.7597 0.1393 0.070 Uiso calc 1
C C6 0.5924(3) 0.6524(2) 0.21352(14) 0.0467(5) Uani d 1
C C7 0.5361(3) 0.6902(2) 0.28647(14) 0.0448(5) Uani d 1
C C8 0.4156(3) 0.7758(2) 0.29379(16) 0.0551(6) Uani d 1
H H8 0.3542 0.8220 0.2513 0.066 Uiso calc 1
C C9 0.5460(3) 0.6755(2) 0.41544(14) 0.0428(5) Uani d 1
C C10 0.5266(3) 0.6826(2) 0.55746(15) 0.0477(5) Uani d 1
C C11 0.6149(3) 0.6191(2) 0.62956(15) 0.0478(6) Uani d 1
C C12 0.5935(4) 0.6341(3) 0.70662(16) 0.0595(7) Uani d 1
H H12 0.5112 0.6885 0.7202 0.071 Uiso calc 1
C C13 0.6988(4) 0.5651(3) 0.76203(17) 0.0662(8) Uani d 1
H H13 0.6893 0.5737 0.8142 0.079 Uiso calc 1
C C14 0.8181(4) 0.4836(3) 0.74229(18) 0.0670(8) Uani d 1
H H14 0.8873 0.4380 0.7816 0.080 Uiso calc 1
C C15 0.8387(3) 0.4669(2) 0.66527(17) 0.0600(7) Uani d 1
H H15 0.9191 0.4111 0.6523 0.072 Uiso calc 1
C C16 0.7339(3) 0.5375(2) 0.60933(15) 0.0457(5) Uani d 1
C C17 0.7246(3) 0.5424(2) 0.52334(15) 0.0472(5) Uani d 1
C C18 0.7454(4) 0.5311(3) 0.00934(18) 0.0742(9) Uani d 1
S S1' 0.37678(10) -0.06821(7) 0.74956(5) 0.0658(2) Uani d 1
O O2' 0.4044(3) -0.0300(2) 0.89536(15) 0.0899(7) Uani d 1
O O3' -0.0673(3) 0.1952(2) 0.79880(13) 0.0790(6) Uani d 1
N N1' 0.1656(2) 0.10281(18) 0.68470(12) 0.0479(5) Uani d 1
N N2' 0.1870(2) 0.08009(18) 0.82460(13) 0.0493(5) Uani d 1
N N3' -0.0485(4) 0.2563(3) 0.24512(17) 0.0912(9) Uani d 1
C C1' 0.0585(3) 0.1964(2) 0.52348(16) 0.0480(5) Uani d 1
H H1' 0.0214 0.2343 0.5625 0.058 Uiso calc 1
C C2' 0.0002(3) 0.2396(2) 0.44717(16) 0.0517(6) Uani d 1
H H2' -0.0755 0.3060 0.4349 0.062 Uiso calc 1
C C3' 0.0556(3) 0.1831(2) 0.38873(16) 0.0497(6) Uani d 1
C C4' 0.1694(3) 0.0849(2) 0.40719(16) 0.0576(6) Uani d 1
H H4' 0.2076 0.0477 0.3678 0.069 Uiso calc 1
C C5' 0.2258(3) 0.0424(2) 0.48295(16) 0.0548(6) Uani d 1
H H5' 0.3016 -0.0240 0.4949 0.066 Uiso calc 1
C C6' 0.1714(3) 0.0974(2) 0.54304(15) 0.0449(5) Uani d 1
C C7' 0.2291(3) 0.0505(2) 0.62486(15) 0.0461(5) Uani d 1
C C8' 0.3429(3) -0.0425(2) 0.65024(17) 0.0597(7) Uani d 1
H H8' 0.3960 -0.0870 0.6173 0.072 Uiso calc 1
C C9' 0.2308(3) 0.0485(2) 0.75202(15) 0.0473(5) Uani d 1
C C10' 0.2784(3) 0.0368(3) 0.89290(17) 0.0601(7) Uani d 1
C C11' 0.1890(3) 0.0870(3) 0.95609(16) 0.0561(6) Uani d 1
C C12' 0.2259(4) 0.0738(3) 1.03407(19) 0.0738(9) Uani d 1
H H12' 0.3198 0.0260 1.0550 0.089 Uiso calc 1
C C13' 0.1183(5) 0.1343(3) 1.07954(19) 0.0792(9) Uani d 1
H H13' 0.1400 0.1267 1.1324 0.095 Uiso calc 1
C C14' -0.0192(5) 0.2052(3) 1.04946(19) 0.0765(9) Uani d 1
H H14' -0.0889 0.2452 1.0818 0.092 Uiso calc 1
C C15' -0.0558(4) 0.2181(3) 0.97160(18) 0.0682(8) Uani d 1
H H15' -0.1495 0.2662 0.9507 0.082 Uiso calc 1
C C16' 0.0499(3) 0.1579(2) 0.92597(15) 0.0528(6) Uani d 1
C C17' 0.0407(3) 0.1526(2) 0.84234(16) 0.0541(6) Uani d 1
C C18' -0.0037(4) 0.2253(2) 0.30838(19) 0.0634(7) Uani d 1
loop_
_atom_site_aniso_label
_atom_site_aniso_U_11
_atom_site_aniso_U_22
_atom_site_aniso_U_33
_atom_site_aniso_U_12
_atom_site_aniso_U_13
_atom_site_aniso_U_23
S1 0.0587(4) 0.0613(4) 0.0521(4) 0.0151(3) -0.0127(3) -0.0241(3)
O2 0.0701(11) 0.0740(13) 0.0571(12) 0.0228(10) -0.0165(9) -0.0364(10)
O3 0.0708(12) 0.0683(12) 0.0598(12) 0.0211(10) -0.0134(10) -0.0317(10)
N1 0.0489(11) 0.0513(11) 0.0420(11) 0.0000(9) -0.0085(9) -0.0194(9)
N2 0.0465(10) 0.0470(11) 0.0399(10) 0.0023(8) -0.0081(8) -0.0179(9)
N3 0.131(3) 0.128(3) 0.0669(18) 0.038(2) -0.0350(18) -0.0558(19)
C1 0.0574(14) 0.0671(16) 0.0398(13) 0.0062(12) -0.0135(11) -0.0193(12)
C2 0.0624(16) 0.0743(18) 0.0465(15) 0.0122(14) -0.0104(12) -0.0242(14)
C3 0.0672(16) 0.0701(17) 0.0401(14) -0.0036(14) -0.0082(12) -0.0225(13)
C4 0.0690(17) 0.0734(19) 0.0437(15) 0.0025(14) -0.0187(13) -0.0194(13)
C5 0.0680(16) 0.0619(16) 0.0484(15) 0.0081(13) -0.0182(13) -0.0210(13)
C6 0.0498(13) 0.0526(14) 0.0380(12) -0.0076(11) -0.0083(10) -0.0131(11)
C7 0.0473(12) 0.0498(13) 0.0391(12) -0.0062(10) -0.0064(10) -0.0160(11)
C8 0.0599(15) 0.0584(15) 0.0458(14) 0.0052(12) -0.0161(12) -0.0150(12)
C9 0.0448(12) 0.0451(12) 0.0401(12) -0.0030(10) -0.0063(10) -0.0162(10)
C10 0.0484(12) 0.0521(14) 0.0467(14) 0.0027(11) -0.0087(11) -0.0229(11)
C11 0.0526(13) 0.0491(13) 0.0426(13) -0.0079(11) -0.0065(11) -0.0153(11)
C12 0.0742(17) 0.0638(16) 0.0431(14) -0.0063(14) -0.0049(13) -0.0225(13)
C13 0.085(2) 0.0716(19) 0.0431(15) -0.0184(16) -0.0138(14) -0.0137(14)
C14 0.0723(18) 0.0733(19) 0.0497(16) -0.0117(15) -0.0233(14) -0.0041(14)
C15 0.0589(15) 0.0610(17) 0.0550(16) -0.0002(13) -0.0147(13) -0.0113(13)
C16 0.0459(12) 0.0478(13) 0.0430(13) -0.0047(10) -0.0089(10) -0.0132(11)
C17 0.0458(12) 0.0448(13) 0.0497(14) 0.0022(10) -0.0080(11) -0.0157(11)
C18 0.092(2) 0.088(2) 0.0480(16) 0.0144(18) -0.0217(15) -0.0300(16)
S1' 0.0709(4) 0.0651(5) 0.0625(5) 0.0207(4) -0.0220(4) -0.0252(4)
O2' 0.0619(12) 0.137(2) 0.0828(16) 0.0369(13) -0.0346(11) -0.0536(15)
O3' 0.0830(13) 0.0973(16) 0.0602(13) 0.0427(12) -0.0321(11) -0.0362(12)
N1' 0.0455(10) 0.0549(12) 0.0451(12) 0.0023(9) -0.0078(9) -0.0202(10)
N2' 0.0468(10) 0.0600(13) 0.0426(11) 0.0038(9) -0.0120(9) -0.0189(10)
N3' 0.123(2) 0.087(2) 0.0622(18) -0.0089(18) -0.0356(17) -0.0122(15)
C1' 0.0465(12) 0.0509(14) 0.0486(14) -0.0012(10) -0.0024(11) -0.0221(11)
C2' 0.0477(13) 0.0487(14) 0.0556(15) -0.0002(11) -0.0061(11) -0.0157(12)
C3' 0.0507(13) 0.0495(14) 0.0462(14) -0.0088(11) -0.0057(11) -0.0117(11)
C4' 0.0651(16) 0.0614(16) 0.0491(15) 0.0014(13) -0.0037(12) -0.0261(13)
C5' 0.0562(14) 0.0554(15) 0.0542(15) 0.0106(12) -0.0086(12) -0.0248(13)
C6' 0.0415(11) 0.0464(13) 0.0461(13) -0.0059(10) -0.0009(10) -0.0167(11)
C7' 0.0439(12) 0.0477(13) 0.0482(14) -0.0031(10) -0.0047(10) -0.0190(11)
C8' 0.0642(16) 0.0601(16) 0.0586(17) 0.0122(13) -0.0121(13) -0.0285(14)
C9' 0.0441(12) 0.0508(14) 0.0470(14) -0.0001(10) -0.0067(11) -0.0172(11)
C10' 0.0473(14) 0.0809(19) 0.0542(16) 0.0007(13) -0.0172(12) -0.0222(14)
C11' 0.0558(14) 0.0688(17) 0.0454(14) -0.0097(13) -0.0113(12) -0.0175(13)
C12' 0.0722(18) 0.099(2) 0.0525(17) -0.0070(17) -0.0211(15) -0.0222(17)
C13' 0.099(2) 0.099(3) 0.0463(17) -0.027(2) -0.0124(17) -0.0247(17)
C14' 0.099(2) 0.080(2) 0.0518(18) -0.0114(19) -0.0020(17) -0.0272(16)
C15' 0.0832(19) 0.0667(18) 0.0537(17) 0.0069(15) -0.0108(15) -0.0227(14)
C16' 0.0605(15) 0.0552(15) 0.0418(14) -0.0055(12) -0.0070(11) -0.0152(12)
C17' 0.0566(14) 0.0568(15) 0.0465(14) 0.0061(12) -0.0104(12) -0.0163(12)
C18' 0.0736(18) 0.0568(16) 0.0574(18) -0.0089(14) -0.0114(15) -0.0138(14)
loop_
_atom_type_symbol
_atom_type_description
_atom_type_scat_dispersion_real
_atom_type_scat_dispersion_imag
_atom_type_scat_source
C C 0.0033 0.0016 'International Tables Vol C Tables 4.2.6.8 and 6.1.1.4'
H H 0.0000 0.0000 'International Tables Vol C Tables 4.2.6.8 and 6.1.1.4'
N N 0.0061 0.0033 'International Tables Vol C Tables 4.2.6.8 and 6.1.1.4'
O O 0.0106 0.0060 'International Tables Vol C Tables 4.2.6.8 and 6.1.1.4'
S S 0.1246 0.1234 'International Tables Vol C Tables 4.2.6.8 and 6.1.1.4'
loop_
_geom_angle_atom_site_label_1
_geom_angle_atom_site_label_2
_geom_angle_atom_site_label_3
_geom_angle
C8 S1 C9 87.83(12)
C9 N1 C7 110.1(2)
C9 N2 C10 123.2(2)
C9 N2 C17 126.21(19)
C10 N2 C17 110.61(19)
C2 C1 C6 121.1(2)
C2 C1 H1 119.4
C6 C1 H1 119.4
C1 C2 C3 119.7(3)
C1 C2 H2 120.2
C3 C2 H2 120.2
C4 C3 C2 120.1(2)
C4 C3 C18 120.5(2)
C2 C3 C18 119.4(3)
C5 C4 C3 120.0(2)
C5 C4 H4 120.0
C3 C4 H4 120.0
C4 C5 C6 120.7(3)
C4 C5 H5 119.6
C6 C5 H5 119.6
C1 C6 C5 118.4(2)
C1 C6 C7 120.3(2)
C5 C6 C7 121.3(2)
C8 C7 N1 114.2(2)
C8 C7 C6 127.5(2)
N1 C7 C6 118.2(2)
C7 C8 S1 111.79(19)
C7 C8 H8 124.1
S1 C8 H8 124.1
N1 C9 N2 123.2(2)
N1 C9 S1 116.02(18)
N2 C9 S1 120.76(16)
O2 C10 N2 124.1(2)
O2 C10 C11 129.1(2)
N2 C10 C11 106.7(2)
C16 C11 C12 122.1(2)
C16 C11 C10 108.7(2)
C12 C11 C10 129.2(2)
C13 C12 C11 117.0(3)
C13 C12 H12 121.5
C11 C12 H12 121.5
C12 C13 C14 121.3(3)
C12 C13 H13 119.3
C14 C13 H13 119.3
C13 C14 C15 122.0(3)
C13 C14 H14 119.0
C15 C14 H14 119.0
C16 C15 C14 116.5(3)
C16 C15 H15 121.8
C14 C15 H15 121.8
C11 C16 C15 121.2(2)
C11 C16 C17 109.0(2)
C15 C16 C17 129.8(2)
O3 C17 N2 125.4(2)
O3 C17 C16 129.7(2)
N2 C17 C16 104.86(19)
N3 C18 C3 178.6(4)
C8' S1' C9' 88.02(12)
C9' N1' C7' 110.2(2)
C10' N2' C9' 123.8(2)
C10' N2' C17' 110.2(2)
C9' N2' C17' 125.9(2)
C2' C1' C6' 121.1(2)
C2' C1' H1' 119.4
C6' C1' H1' 119.4
C1' C2' C3' 119.5(2)
C1' C2' H2' 120.2
C3' C2' H2' 120.2
C4' C3' C2' 119.9(2)
C4' C3' C18' 119.0(2)
C2' C3' C18' 121.0(2)
C5' C4' C3' 120.2(2)
C5' C4' H4' 119.9
C3' C4' H4' 119.9
C4' C5' C6' 121.0(2)
C4' C5' H5' 119.5
C6' C5' H5' 119.5
C1' C6' C5' 118.2(2)
C1' C6' C7' 120.8(2)
C5' C6' C7' 121.0(2)
C8' C7' N1' 114.0(2)
C8' C7' C6' 126.3(2)
N1' C7' C6' 119.7(2)
C7' C8' S1' 111.73(19)
C7' C8' H8' 124.1
S1' C8' H8' 124.1
N1' C9' N2' 123.1(2)
N1' C9' S1' 116.08(18)
N2' C9' S1' 120.86(18)
O2' C10' N2' 123.7(3)
O2' C10' C11' 129.4(3)
N2' C10' C11' 106.8(2)
C16' C11' C12' 120.7(3)
C16' C11' C10' 108.8(2)
C12' C11' C10' 130.4(3)
C13' C12' C11' 117.2(3)
C13' C12' H12' 121.4
C11' C12' H12' 121.4
C14' C13' C12' 122.0(3)
C14' C13' H13' 119.0
C12' C13' H13' 119.0
C13' C14' C15' 120.6(3)
C13' C14' H14' 119.7
C15' C14' H14' 119.7
C16' C15' C14' 117.9(3)
C16' C15' H15' 121.1
C14' C15' H15' 121.1
C15' C16' C11' 121.5(3)
C15' C16' C17' 129.9(3)
C11' C16' C17' 108.5(2)
O3' C17' N2' 125.6(2)
O3' C17' C16' 128.8(2)
N2' C17' C16' 105.6(2)
N3' C18' C3' 178.5(3)
loop_
_geom_bond_atom_site_label_1
_geom_bond_atom_site_label_2
_geom_bond_distance
S1 C8 1.698(3)
S1 C9 1.728(3)
O2 C10 1.207(3)
O3 C17 1.193(3)
N1 C9 1.281(3)
N1 C7 1.383(3)
N2 C9 1.397(3)
N2 C10 1.398(3)
N2 C17 1.433(3)
N3 C18 1.138(4)
C1 C2 1.375(4)
C1 C6 1.386(3)
C1 H1 0.9300
C2 C3 1.382(4)
C2 H2 0.9300
C3 C4 1.380(4)
C3 C18 1.432(4)
C4 C5 1.374(4)
C4 H4 0.9300
C5 C6 1.394(3)
C5 H5 0.9300
C6 C7 1.465(3)
C7 C8 1.346(3)
C8 H8 0.9300
C10 C11 1.464(3)
C11 C16 1.374(3)
C11 C12 1.382(3)
C12 C13 1.367(4)
C12 H12 0.9300
C13 C14 1.372(4)
C13 H13 0.9300
C14 C15 1.391(4)
C14 H14 0.9300
C15 C16 1.376(4)
C15 H15 0.9300
C16 C17 1.479(3)
S1' C8' 1.697(3)
S1' C9' 1.724(3)
O2' C10' 1.204(3)
O3' C17' 1.190(3)
N1' C9' 1.284(3)
N1' C7' 1.384(3)
N2' C10' 1.404(3)
N2' C9' 1.408(3)
N2' C17' 1.421(3)
N3' C18' 1.131(4)
C1' C2' 1.378(4)
C1' C6' 1.387(3)
C1' H1' 0.9300
C2' C3' 1.389(3)
C2' H2' 0.9300
C3' C4' 1.384(4)
C3' C18' 1.444(4)
C4' C5' 1.363(4)
C4' H4' 0.9300
C5' C6' 1.400(3)
C5' H5' 0.9300
C6' C7' 1.461(4)
C7' C8' 1.353(3)
C8' H8' 0.9300
C10' C11' 1.463(4)
C11' C16' 1.374(4)
C11' C12' 1.380(4)
C12' C13' 1.374(5)
C12' H12' 0.9300
C13' C14' 1.363(5)
C13' H13' 0.9300
C14' C15' 1.377(4)
C14' H14' 0.9300
C15' C16' 1.367(4)
C15' H15' 0.9300
C16' C17' 1.482(4)
loop_
_geom_hbond_atom_site_label_D
_geom_hbond_atom_site_label_H
_geom_hbond_atom_site_label_A
_geom_hbond_site_symmetry_A
_geom_hbond_distance_DH
_geom_hbond_distance_HA
_geom_hbond_distance_DA
_geom_hbond_angle_DHA
C1 H1 N1 . 0.93 2.48 2.818(4) 102
C1' H1' N1' . 0.93 2.52 2.856(4) 101
C2 H2 N3' 1_655 0.93 2.61 3.376(4) 141
C13 H13 N3 1_556 0.93 2.51 3.324(5) 146
C5' H5' O2 1_545 0.93 2.55 3.444(3) 161
C8' H8' O2 1_545 0.93 2.48 3.346(3) 156
C12' H12' O2' 2_657 0.93 2.50 3.285(4) 143
C2' H2' O3 1_455 0.93 2.61 3.395(3) 142
loop_
_geom_torsion_atom_site_label_1
_geom_torsion_atom_site_label_2
_geom_torsion_atom_site_label_3
_geom_torsion_atom_site_label_4
_geom_torsion
C6 C1 C2 C3 0.1(4)
C1 C2 C3 C4 0.3(4)
C1 C2 C3 C18 -178.5(3)
C2 C3 C4 C5 -0.3(4)
C18 C3 C4 C5 178.5(3)
C3 C4 C5 C6 -0.1(4)
C2 C1 C6 C5 -0.5(4)
C2 C1 C6 C7 178.0(2)
C4 C5 C6 C1 0.5(4)
C4 C5 C6 C7 -178.0(2)
C9 N1 C7 C8 0.2(3)
C9 N1 C7 C6 -179.2(2)
C1 C6 C7 C8 177.7(2)
C5 C6 C7 C8 -3.9(4)
C1 C6 C7 N1 -3.1(3)
C5 C6 C7 N1 175.4(2)
N1 C7 C8 S1 -0.1(3)
C6 C7 C8 S1 179.19(19)
C9 S1 C8 C7 0.0(2)
C7 N1 C9 N2 -180.0(2)
C7 N1 C9 S1 -0.2(3)
C10 N2 C9 N1 179.4(2)
C17 N2 C9 N1 -0.1(4)
C10 N2 C9 S1 -0.4(3)
C17 N2 C9 S1 -179.84(17)
C8 S1 C9 N1 0.1(2)
C8 S1 C9 N2 179.9(2)
C9 N2 C10 O2 0.4(4)
C17 N2 C10 O2 179.9(2)
C9 N2 C10 C11 -178.65(19)
C17 N2 C10 C11 0.8(3)
O2 C10 C11 C16 -178.6(3)
N2 C10 C11 C16 0.4(3)
O2 C10 C11 C12 0.2(5)
N2 C10 C11 C12 179.2(2)
C16 C11 C12 C13 1.2(4)
C10 C11 C12 C13 -177.5(2)
C11 C12 C13 C14 -1.1(4)
C12 C13 C14 C15 0.2(4)
C13 C14 C15 C16 0.5(4)
C12 C11 C16 C15 -0.4(4)
C10 C11 C16 C15 178.5(2)
C12 C11 C16 C17 179.6(2)
C10 C11 C16 C17 -1.5(3)
C14 C15 C16 C11 -0.5(4)
C14 C15 C16 C17 179.5(2)
C9 N2 C17 O3 -2.0(4)
C10 N2 C17 O3 178.5(2)
C9 N2 C17 C16 177.8(2)
C10 N2 C17 C16 -1.7(2)
C11 C16 C17 O3 -178.3(3)
C15 C16 C17 O3 1.8(4)
C11 C16 C17 N2 1.9(3)
C15 C16 C17 N2 -178.0(2)
C6' C1' C2' C3' 0.0(4)
C1' C2' C3' C4' -0.6(4)
C1' C2' C3' C18' 179.5(2)
C2' C3' C4' C5' 0.8(4)
C18' C3' C4' C5' -179.3(2)
C3' C4' C5' C6' -0.5(4)
C2' C1' C6' C5' 0.3(4)
C2' C1' C6' C7' -178.4(2)
C4' C5' C6' C1' -0.1(4)
C4' C5' C6' C7' 178.7(2)
C9' N1' C7' C8' -0.5(3)
C9' N1' C7' C6' 179.6(2)
C1' C6' C7' C8' -177.6(2)
C5' C6' C7' C8' 3.7(4)
C1' C6' C7' N1' 2.3(3)
C5' C6' C7' N1' -176.4(2)
N1' C7' C8' S1' -0.4(3)
C6' C7' C8' S1' 179.53(19)
C9' S1' C8' C7' 0.9(2)
C7' N1' C9' N2' -178.4(2)
C7' N1' C9' S1' 1.2(3)
C10' N2' C9' N1' -167.8(2)
C17' N2' C9' N1' 16.6(4)
C10' N2' C9' S1' 12.6(3)
C17' N2' C9' S1' -162.98(19)
C8' S1' C9' N1' -1.2(2)
C8' S1' C9' N2' 178.4(2)
C9' N2' C10' O2' 1.1(4)
C17' N2' C10' O2' 177.3(3)
C9' N2' C10' C11' -178.0(2)
C17' N2' C10' C11' -1.8(3)
O2' C10' C11' C16' -179.3(3)
N2' C10' C11' C16' -0.3(3)
O2' C10' C11' C12' 1.7(5)
N2' C10' C11' C12' -179.3(3)
C16' C11' C12' C13' 0.0(4)
C10' C11' C12' C13' 179.0(3)
C11' C12' C13' C14' -0.3(5)
C12' C13' C14' C15' 0.4(5)
C13' C14' C15' C16' -0.1(5)
C14' C15' C16' C11' -0.2(4)
C14' C15' C16' C17' 178.5(3)
C12' C11' C16' C15' 0.3(4)
C10' C11' C16' C15' -178.9(2)
C12' C11' C16' C17' -178.7(3)
C10' C11' C16' C17' 2.1(3)
C10' N2' C17' O3' -174.7(3)
C9' N2' C17' O3' 1.4(4)
C10' N2' C17' C16' 3.0(3)
C9' N2' C17' C16' 179.1(2)
C15' C16' C17' O3' -4.4(5)
C11' C16' C17' O3' 174.5(3)
C15' C16' C17' N2' 178.0(3)
C11' C16' C17' N2' -3.1(3)

_cod_database_fobs_code 1543673
