#------------------------------------------------------------------------------
#$Date: 2016-05-18 04:23:32 +0300 (Wed, 18 May 2016) $
#$Revision: 182999 $
#$URL: svn://www.crystallography.net/cod/cif/1/54/33/1543333.cif $
#------------------------------------------------------------------------------
#
# This file is available in the Crystallography Open Database (COD),
# http://www.crystallography.net/. The original data for this entry
# were provided by IUCr Journals, http://journals.iucr.org/.
#
# The file may be used within the scientific community so long as
# proper attribution is given to the journal article from which the
# data were obtained.
#
data_1543333
loop_
_publ_author_name
'Yallur, Basappa'
'Krishna, P. Murali'
'Hosamani, Amar A.'
_publ_section_title
;
 Benzo[4,5]imidazo[2,1-<i>b</i>]thiazole-2-carbaldehyde
;
_journal_coeditor_code           SU4045
_journal_issue                   5
_journal_name_full               IUCrData
_journal_page_first              x160778
_journal_paper_doi               10.1107/S2414314616007781
_journal_volume                  1
_journal_year                    2016
_chemical_formula_iupac          'C10 H6 N2 O S'
_chemical_formula_moiety         'C10 H6 N2 O S'
_chemical_formula_sum            'C10 H6 N2 O S'
_chemical_formula_weight         202.23
_chemical_name_systematic
;
Benzo[4,5]imidazo[2,1-<i>b</i>]thiazole-2-carbaldehyde
;
_space_group_crystal_system      monoclinic
_space_group_IT_number           14
_space_group_name_Hall           '-P 2ybc'
_space_group_name_H-M_alt        'P 1 21/c 1'
_symmetry_space_group_name_Hall  '-P 2ybc'
_symmetry_space_group_name_H-M   'P 1 21/c 1'
_atom_sites_solution_hydrogens   mixed
_atom_sites_solution_primary     direct
_atom_sites_solution_secondary   difmap
_audit_creation_method           SHELXL-2014/6
_cell_angle_alpha                90
_cell_angle_beta                 96.473(17)
_cell_angle_gamma                90
_cell_formula_units_Z            4
_cell_length_a                   5.6514(16)
_cell_length_b                   21.220(7)
_cell_length_c                   7.381(2)
_cell_measurement_reflns_used    563
_cell_measurement_temperature    298(2)
_cell_measurement_theta_max      24.99
_cell_measurement_theta_min      5
_cell_volume                     879.5(5)
_computing_cell_refinement
;
SAINT (Bruker, 2012)
;
_computing_data_collection
;
APEX2 (Bruker, 2012)
;
_computing_data_reduction
;
SAINT (Bruker, 2012)
;
_computing_molecular_graphics
;
OLEX2 (Dolomanov <i>et al.</i>,  2009) and
Mercury (Macrae <i>et al.</i>,  2008)
;
_computing_publication_material
;
OLEX2 (Dolomanov <i>et al.</i>,  2009)
;
_computing_structure_refinement
;
SHELXL2014 (Sheldrick, 2015)
;
_computing_structure_solution
;
olex2.solve (Bourhis <i>et al.</i>,  2015)
;
_diffrn_ambient_temperature      298(2)
_diffrn_detector_area_resol_mean 7.9
_diffrn_measured_fraction_theta_full 0.998
_diffrn_measured_fraction_theta_max 0.918
_diffrn_measurement_device       'three-circle diffractometer'
_diffrn_measurement_device_type  'Bruker SMART APEXII area-detector'
_diffrn_measurement_method       '\w and \f scans'
_diffrn_radiation_monochromator  'mirror optics'
_diffrn_radiation_type           MoK\a
_diffrn_radiation_wavelength     0.71073
_diffrn_reflns_av_R_equivalents  0.1290
_diffrn_reflns_limit_h_max       7
_diffrn_reflns_limit_h_min       -6
_diffrn_reflns_limit_k_max       29
_diffrn_reflns_limit_k_min       -29
_diffrn_reflns_limit_l_max       10
_diffrn_reflns_limit_l_min       -10
_diffrn_reflns_number            15536
_diffrn_reflns_theta_full        25.242
_diffrn_reflns_theta_max         30.052
_diffrn_reflns_theta_min         1.919
_exptl_absorpt_coefficient_mu    0.329
_exptl_absorpt_correction_T_max  0.746
_exptl_absorpt_correction_T_min  0.584
_exptl_absorpt_correction_type   multi-scan
_exptl_absorpt_process_details
;
(SADABS; Bruker, 2012)
;
_exptl_crystal_colour            colourless
_exptl_crystal_density_diffrn    1.527
_exptl_crystal_description       block
_exptl_crystal_F_000             416
_exptl_crystal_size_max          0.24
_exptl_crystal_size_mid          0.23
_exptl_crystal_size_min          0.22
_refine_diff_density_max         0.229
_refine_diff_density_min         -0.352
_refine_ls_extinction_method     none
_refine_ls_goodness_of_fit_ref   0.911
_refine_ls_hydrogen_treatment    mixed
_refine_ls_matrix_type           full
_refine_ls_number_parameters     131
_refine_ls_number_reflns         2357
_refine_ls_number_restraints     0
_refine_ls_restrained_S_all      0.911
_refine_ls_R_factor_all          0.1921
_refine_ls_R_factor_gt           0.0581
_refine_ls_shift/su_max          0.000
_refine_ls_shift/su_mean         0.000
_refine_ls_structure_factor_coef Fsqd
_refine_ls_weighting_details
'w=1/[\s^2^(Fo^2^)+(0.0593P)^2^] where P=(Fo^2^+2Fc^2^)/3'
_refine_ls_weighting_scheme      calc
_refine_ls_wR_factor_gt          0.1085
_refine_ls_wR_factor_ref         0.1504
_reflns_number_gt                935
_reflns_number_total             2357
_reflns_threshold_expression     'I > 2\s(I)'
_cod_data_source_file            su4045sup1.cif
_cod_data_source_block           I
_cod_database_code               1543333
_shelx_space_group_comment
;
The symmetry employed for this shelxl refinement is uniquely defined
by the following loop, which should always be used as a source of
symmetry information in preference to the above space-group names.
They are only intended as comments.
;
_shelx_hkl_file
;
   1   0   0   46.86    0.67
   1   0   0   46.38    0.50
   1   0   0   47.53    1.09
   1   0   0   45.14    0.67
  -1   0   0   46.07    0.68
  -1   0   0   46.50    0.66
  -1   0   0   46.33    1.06
  -2   0   0   32.53    1.22
   2   0   0   33.80    0.74
   2   0   0   33.92    0.67
   2   0   0   36.18    1.30
   2   0   0   33.58    0.76
  -2   0   0   33.30    0.75
  -2   0   0   34.59    0.81
   3   0   0   65.79    1.17
  -3   0   0   62.07    1.13
  -3   0   0   62.40    1.16
   3   0   0   60.31    1.16
   3   0   0   62.98    1.15
   4   0   0   23.24    0.69
   4   0   0   23.19    0.74
  -4   0   0   23.69    0.72
   4   0   0   23.08    0.83
   5   0   0    3.79    0.50
   6   0   0   -0.17    0.28
   7   0   0    1.75    0.47
  -1  -1   0  138.89    1.91
  -1  -1   0  137.22    1.35
   1  -1   0  139.32    1.52
   1  -1   0  139.89    1.39
  -1  -1   0  138.96    1.36
   1  -1   0  138.71    1.24
  -1   1   0  136.68    1.76
  -1   1   0  138.43    1.46
   1   1   0  139.63    1.14
   1   1   0  136.37    1.33
   1   1   0  136.71    1.14
   1   1   0  142.12    1.94
   1   1   0  139.24    1.37
  -1   1   0  140.22    1.42
  -2  -1   0   22.33    0.62
   2  -1   0   20.45    0.69
   2  -1   0   22.29    0.62
   2  -1   0   23.39    0.66
  -2  -1   0   21.12    1.12
  -2  -1   0   20.45    0.62
  -2   1   0   21.84    0.64
   2   1   0   21.56    1.05
  -2   1   0   22.14    1.05
   2   1   0   21.47    0.62
   2   1   0   22.54    0.57
  -2   1   0   20.74    0.66
   2   1   0   22.16    0.62
   3  -1   0   -0.11    0.18
  -3  -1   0    0.53    0.21
  -3  -1   0    0.34    0.20
   3  -1   0    0.06    0.25
   3  -1   0    0.35    0.20
   3   1   0    0.49    0.21
  -3   1   0    0.03    0.21
   3   1   0    0.06    0.17
   3   1   0    0.11    0.17
   3   1   0   -0.21    0.33
  -3   1   0    0.14    0.22
   4  -1   0    0.97    0.32
  -4  -1   0    1.00    0.26
   4  -1   0    0.65    0.24
   4  -1   0    1.02    0.30
   4   1   0    0.69    0.23
  -4   1   0    1.20    0.29
   4   1   0    1.13    0.28
   4   1   0    1.08    0.29
   5  -1   0    6.83    0.67
   5   1   0    6.30    0.64
   6  -1   0    0.16    0.21
   6   1   0   -0.08    0.24
   7  -1   0    0.01    0.37
   7   1   0    0.25    0.38
   0  -2   0   75.15    1.05
   0  -2   0   72.74    1.01
   0  -2   0   73.95    0.98
   0  -2   0   76.97    1.16
   0  -2   0   74.24    1.33
   0  -2   0   74.71    0.97
   0   2   0   73.63    1.16
   0   2   0   73.61    1.30
   0   2   0   75.46    1.02
  -1  -2   0   34.91    0.59
  -1  -2   0   33.66    0.79
  -1  -2   0   35.59    1.06
  -1  -2   0   35.47    0.83
   1  -2   0   36.65    0.74
   1  -2   0   36.68    1.00
  -1   2   0   36.16    0.86
  -1   2   0   35.45    0.93
   1   2   0   35.20    0.75
   1   2   0   37.38    0.70
   1   2   0   35.36    0.71
   1   2   0   35.14    1.03
  -2  -2   0   15.95    0.98
  -2  -2   0   17.69    0.62
   2  -2   0   17.64    0.77
   2  -2   0   16.09    0.61
   2  -2   0   16.50    0.65
  -2   2   0   15.12    0.86
   2   2   0   16.13    1.00
   2   2   0   17.22    0.58
   2   2   0   16.71    0.62
  -2   2   0   15.79    0.66
   2   2   0   16.44    0.60
  -2   2   0   17.09    0.65
  -3  -2   0    6.41    0.47
   3  -2   0    6.49    0.53
   3  -2   0    6.24    0.63
   3  -2   0    6.28    0.54
   3   2   0    6.82    1.05
   3   2   0    6.62    0.46
   3   2   0    5.83    0.43
   3   2   0    5.85    0.40
  -3   2   0    8.24    0.65
  -3   2   0    6.99    0.57
   4  -2   0    2.37    0.39
   4  -2   0    2.59    0.37
   4  -2   0    2.67    0.45
  -4  -2   0    2.58    0.35
   4   2   0    1.67    0.37
  -4   2   0    3.59    0.54
   4   2   0    2.53    0.41
   4   2   0    2.08    0.30
   5  -2   0    0.84    0.33
   5   2   0    0.60    0.29
   6  -2   0    0.92    0.37
   6   2   0    0.50    0.29
   7  -2   0    0.10    0.43
   7   2   0   -0.34    0.35
   0  -3   0    0.16    0.40
   0  -3   0   -0.02    0.18
   0  -3   0    0.21    0.31
   0  -3   0    0.05    0.23
   0  -3   0   -0.10    0.16
   0  -3   0    0.12    0.18
   0   3   0   -0.04    0.20
   0   3   0    0.20    0.29
   0   3   0    0.35    0.40
   0   3   0   -0.19    0.18
   0   3   0   -0.06    0.15
   1  -3   0   14.61    0.62
   1  -3   0   17.75    0.88
  -1  -3   0   16.07    0.77
  -1  -3   0   15.60    0.50
  -1  -3   0   15.69    0.48
  -1  -3   0   15.49    0.84
  -1  -3   0   16.34    0.50
  -1  -3   0   15.93    0.69
   1  -3   0   15.52    0.45
   1  -3   0   16.42    0.73
   1   3   0   14.84    0.85
  -1   3   0   17.09    0.81
  -1   3   0   13.87    0.47
  -1   3   0   14.64    0.79
   1   3   0   15.48    0.58
   1   3   0   16.30    0.60
   2  -3   0   -0.22    0.24
   2  -3   0    0.60    0.28
   2  -3   0   -0.04    0.34
  -2  -3   0    0.24    0.54
  -2  -3   0    0.09    0.28
  -2  -3   0   -0.14    0.23
  -2   3   0   -0.65    0.26
   2   3   0    0.84    0.46
   2   3   0    0.41    0.35
  -2   3   0    0.12    0.24
   2   3   0    0.38    0.25
   2   3   0    0.17    0.24
   3  -3   0    7.33    0.53
   3  -3   0    9.41    0.62
  -3  -3   0    8.29    0.55
  -3  -3   0    8.05    0.64
   3  -3   0    8.11    0.81
   3   3   0    8.13    0.52
   3   3   0    8.85    0.72
   3   3   0    5.70    0.91
   3   3   0    8.58    0.49
  -3   3   0    8.14    0.59
   4  -3   0    0.47    0.41
   4  -3   0    1.57    0.37
  -4  -3   0    0.90    0.29
   4  -3   0    0.40    0.27
  -4   3   0    0.76    0.31
   4   3   0    1.39    0.73
   4   3   0    1.20    0.29
   4   3   0    1.77    0.42
   4   3   0    0.81    0.27
   5  -3   0    0.56    0.30
   5  -3   0    0.98    0.30
   5  -3   0    0.18    0.23
   5   3   0    0.98    0.33
   6  -3   0    0.31    0.26
   6   3   0    0.05    0.20
   7  -3   0    0.03    0.35
   7   3   0    0.72    0.41
   0  -4   0   29.81    1.05
   0  -4   0   31.16    0.96
   0  -4   0   29.09    0.91
   0  -4   0   30.18    0.87
   0  -4   0   28.90    1.27
   0  -4   0   30.31    0.90
   0   4   0   29.87    0.94
   0   4   0   30.04    0.91
   0   4   0   30.54    0.90
   0   4   0   30.06    1.26
   0   4   0   29.32    1.11
   1  -4   0    3.30    0.62
   1  -4   0    4.20    0.50
  -1  -4   0    3.21    0.36
  -1  -4   0    4.67    0.42
   1  -4   0    3.88    0.62
  -1  -4   0    5.05    0.64
  -1  -4   0    4.52    0.69
  -1  -4   0    4.36    0.68
   1  -4   0    4.24    0.35
  -1  -4   0    3.68    0.37
   1   4   0    3.89    0.27
  -1   4   0    4.36    0.75
   1   4   0    5.31    0.61
   1   4   0    3.87    0.33
  -1   4   0    4.15    0.57
   1   4   0    4.56    0.69
   1   4   0    3.75    0.43
  -1   4   0    4.41    0.36
   1   4   0    4.11    0.59
   1   4   0    3.28    0.41
   2  -4   0   74.12    1.90
  -2  -4   0   78.85    2.03
  -2  -4   0   78.97    1.06
  -2  -4   0   77.53    1.56
  -2  -4   0   76.22    1.65
  -2  -4   0   75.28    1.01
   2  -4   0   75.96    1.51
   2   4   0   77.25    2.06
  -2   4   0   68.26    1.70
   2   4   0   73.61    1.47
  -2   4   0   79.98    1.80
   2   4   0   79.30    1.46
   2   4   0   76.84    1.73
  -2   4   0   78.17    1.17
   3  -4   0   10.19    0.66
   3  -4   0   11.80    0.69
   3  -4   0   11.43    0.85
  -3  -4   0   10.20    0.64
   3   4   0   10.67    0.62
   3   4   0   10.93    0.66
   3   4   0   11.33    0.78
  -3   4   0   11.86    0.82
   3   4   0   12.49    1.30
   4  -4   0    5.29    0.63
   4  -4   0    4.91    0.75
  -4  -4   0    5.05    0.54
   4  -4   0    4.11    0.59
   4   4   0    4.34    0.49
  -4   4   0    5.13    0.71
   4   4   0    6.21    0.81
   4   4   0    3.35    0.51
   4   4   0    4.01    0.92
   5  -4   0    9.92    0.88
   5  -4   0   10.65    0.63
   5  -4   0    8.18    0.76
   5  -4   0    8.25    0.76
   5   4   0   11.08    0.74
   6  -4   0    5.99    0.83
  -6  -4   0    5.16    1.29
   6   4   0    4.28    0.61
   7  -4   0    1.84    0.56
   7   4   0    0.72    0.41
   0  -5   0    0.02    0.52
   0  -5   0   -0.03    0.31
   0  -5   0   -0.68    0.53
   0  -5   0   -0.36    0.26
   0  -5   0    0.34    0.39
   0  -5   0   -0.04    0.29
   0   5   0   -0.15    0.26
   0   5   0   -0.14    0.35
   0   5   0    0.50    0.68
   0   5   0   -0.35    0.39
   0   5   0    0.01    0.31
   1  -5   0    9.09    0.51
  -1  -5   0    8.91    0.85
   1  -5   0    9.37    0.69
  -1  -5   0   10.27    0.95
  -1  -5   0    9.28    0.65
  -1  -5   0    8.54    0.52
  -1  -5   0   10.26    0.68
   1  -5   0   10.64    0.86
  -1  -5   0   12.61    1.10
   1  -5   0    8.73    0.98
   1   5   0    9.54    0.83
  -1   5   0   10.20    0.72
   1   5   0    9.99    0.52
   1   5   0    9.22    0.65
   1   5   0   10.14    1.11
   1   5   0    9.73    0.84
  -1   5   0    9.83    0.50
  -1   5   0    9.44    1.10
   1   5   0    8.89    0.63
  -1   5   0    9.60    0.91
   1   5   0    9.36    0.52
  -2  -5   0    0.70    0.33
  -2  -5   0    1.40    0.24
   2  -5   0    2.02    0.46
  -2  -5   0    1.20    0.24
  -2  -5   0    1.91    0.64
   2  -5   0    1.97    0.43
  -2  -5   0    2.08    0.50
   2  -5   0    1.51    0.55
  -2   5   0    2.23    0.47
   2   5   0    1.34    0.38
   2   5   0    2.05    0.59
  -2   5   0    2.68    0.60
   2   5   0    1.76    0.43
  -2   5   0    1.66    0.29
   2   5   0    1.56    0.37
   3  -5   0   12.25    0.75
   3  -5   0   12.14    0.69
   3  -5   0   12.24    1.27
  -3  -5   0   11.82    0.75
   3   5   0   11.79    0.85
   3   5   0   11.25    0.70
   3   5   0   11.54    1.29
  -3   5   0   12.49    0.58
  -3   5   0   11.97    0.79
   3   5   0   12.64    0.70
   4  -5   0    0.14    0.29
   4  -5   0    0.34    0.47
  -4  -5   0    0.42    0.29
   4  -5   0   -0.04    0.32
   4   5   0   -0.17    0.20
   4   5   0    0.53    0.67
  -4   5   0   -0.29    0.34
   4   5   0   -0.04    0.44
   4   5   0    0.09    0.26
  -4   5   0    0.79    0.29
   5  -5   0    0.45    0.32
   5  -5   0    0.28    0.40
   5   5   0    0.76    0.44
   5   5   0    0.45    0.27
   5   5   0   -0.47    0.59
   5   5   0    0.69    0.25
  -6  -5   0    0.79    0.81
   6  -5   0    0.23    0.34
   6   5   0   -0.05    0.28
   7  -5   0    0.13    0.42
   7   5   0   -0.02    0.36
   0  -6   0    0.76    0.39
   0  -6   0    0.47    0.43
   0  -6   0   -0.32    0.53
   0  -6   0    0.68    0.36
   0  -6   0   -0.09    0.61
   0  -6   0   -0.02    0.29
   0   6   0    1.16    0.41
   0   6   0    0.16    0.41
   0   6   0    0.41    0.35
   0   6   0    1.24    0.39
   0   6   0   -0.02    0.76
  -1  -6   0    0.20    0.25
  -1  -6   0    0.30    0.30
  -1  -6   0    0.13    0.47
  -1  -6   0    0.37    0.54
  -1  -6   0    0.28    0.33
   1  -6   0   -0.09    0.49
   1  -6   0    0.11    0.32
   1  -6   0    0.09    0.48
   1  -6   0   -0.15    0.32
  -1  -6   0    0.22    0.52
   1  -6   0    0.21    0.28
  -1   6   0   -0.13    0.67
   1   6   0    0.40    0.75
  -1   6   0    0.12    0.23
   1   6   0    0.27    0.35
  -1   6   0   -0.05    0.38
   1   6   0    0.24    0.17
   1   6   0   -0.18    0.30
   1   6   0    0.20    0.26
   1   6   0    0.06    0.31
  -1   6   0    0.33    0.32
   1   6   0    0.07    0.32
  -2  -6   0    9.94    0.73
  -2  -6   0    9.65    0.93
   2  -6   0   10.58    1.20
   2  -6   0   11.17    1.04
   2  -6   0    7.73    0.74
  -2  -6   0    9.11    0.57
  -2  -6   0    9.92    0.65
   2   6   0    9.60    1.06
   2   6   0    9.32    0.90
  -2   6   0    9.34    1.01
  -2   6   0   10.28    0.68
  -2   6   0    9.46    0.47
   2   6   0    9.23    1.09
  -2   6   0   10.62    1.10
   2   6   0    9.56    0.66
   2   6   0   10.71    0.75
   3  -6   0    5.44    0.67
   3  -6   0    4.35    0.86
  -3  -6   0    6.66    0.74
   3   6   0    6.39    0.97
   3   6   0    5.61    0.66
   3   6   0    4.28    0.56
  -3   6   0    6.07    0.84
  -3   6   0    4.96    0.44
   3   6   0    6.18    0.99
  -4  -6   0    5.52    0.70
   4  -6   0    5.22    0.69
   4  -6   0    5.39    0.74
   4  -6   0    6.66    1.05
   4   6   0    5.10    0.68
  -4   6   0    5.52    0.55
   4   6   0    5.59    0.91
   4   6   0    4.73    0.62
   4   6   0    5.23    1.11
  -4   6   0    4.17    0.71
   5  -6   0    0.44    0.48
   5  -6   0    0.12    0.31
   5   6   0    0.36    0.30
   5   6   0   -0.06    0.27
   5   6   0    1.85    0.84
  -6  -6   0    1.67    0.94
   6  -6   0    1.61    0.57
   6   6   0    0.23    0.35
   7  -6   0    0.32    0.37
   7   6   0   -0.17    0.34
   0  -7   0   -0.28    0.31
   0  -7   0   -0.26    0.46
   0  -7   0    0.05    0.31
   0  -7   0   -0.24    0.27
   0  -7   0   -0.06    0.42
   0  -7   0   -0.45    0.68
   0   7   0   -0.17    0.30
   0   7   0    0.27    0.33
   0   7   0   -0.64    0.78
   0   7   0   -0.35    0.38
   0   7   0    0.31    0.32
  -1  -7   0    5.19    0.57
   1  -7   0    4.98    0.65
  -1  -7   0    4.91    0.65
  -1  -7   0    5.68    0.81
  -1  -7   0    6.31    0.90
  -1  -7   0    5.27    0.64
   1  -7   0    6.07    1.06
   1  -7   0    6.23    0.88
   1  -7   0    4.94    0.56
   1  -7   0    6.73    0.75
  -1  -7   0    5.46    0.87
  -1   7   0    6.16    1.10
   1   7   0    6.03    0.59
   1   7   0    4.12    0.62
   1   7   0    5.35    0.70
  -1   7   0    5.07    0.54
   1   7   0    4.82    1.06
   1   7   0    5.88    0.80
  -1   7   0    6.38    0.83
   1   7   0    7.98    0.81
   1   7   0    5.73    0.65
  -1   7   0    4.86    0.66
  -2  -7   0    1.18    0.32
  -2  -7   0    0.67    0.40
  -2  -7   0    1.82    0.44
   2  -7   0    0.80    0.56
   2  -7   0    1.45    0.30
   2  -7   0    1.36    0.51
   2  -7   0    1.10    0.38
   2   7   0    0.90    0.45
  -2   7   0    1.35    0.40
  -2   7   0    1.03    0.25
   2   7   0    1.71    0.66
   2   7   0    1.61    0.44
   2   7   0    1.11    0.34
  -2   7   0    1.05    0.42
   3  -7   0    2.98    0.79
  -3  -7   0    2.23    0.50
   3  -7   0    2.70    0.57
   3  -7   0    2.31    0.50
   3   7   0   -0.05    0.40
   3   7   0    2.36    0.55
   3   7   0    1.65    0.58
  -3   7   0    2.15    0.33
  -3   7   0    3.75    0.71
   3   7   0    2.23    0.48
   4  -7   0   -0.19    0.33
   4  -7   0   -0.43    0.25
   4  -7   0    0.01    0.55
  -4  -7   0    0.69    0.37
   4   7   0    0.36    0.51
  -4   7   0    0.33    0.20
  -4   7   0   -0.42    0.35
   4   7   0   -0.41    0.47
   4   7   0   -0.20    0.31
   4   7   0    0.11    0.26
   5  -7   0    0.58    0.44
   5  -7   0   -0.58    0.47
   5   7   0    0.08    0.25
   5   7   0   -0.02    0.28
   5   7   0   -0.46    0.61
  -6  -7   0   -0.29    0.71
   6  -7   0    0.06    0.31
   6  -7   0   -0.60    0.25
   6   7   0    0.00    0.27
   7  -7   0    0.25    0.50
   7   7   0   -0.38    0.39
   0  -8   0    5.42    0.81
   0  -8   0    5.14    0.93
   0  -8   0    5.40    0.94
   0  -8   0    6.24    0.74
   0  -8   0    4.22    0.70
   0  -8   0    5.44    0.70
   0   8   0    7.18    1.01
   0   8   0    4.28    1.13
   0   8   0    5.50    0.65
   0   8   0    5.02    0.69
   0   8   0    5.43    0.70
   1  -8   0   46.99    1.56
  -1  -8   0   46.89    1.46
   1  -8   0   47.58    2.23
   1  -8   0   45.60    1.51
  -1  -8   0   44.43    1.83
  -1  -8   0   44.46    1.54
   1  -8   0   47.01    1.77
   1  -8   0   44.51    1.24
  -1  -8   0   46.25    1.63
  -1  -8   0   46.12    1.77
   1   8   0   46.63    1.43
  -1   8   0   46.40    1.76
   1   8   0   45.15    1.55
   1   8   0   43.86    2.16
   1   8   0   45.90    1.77
  -1   8   0   46.08    1.69
  -1   8   0   45.11    2.11
  -1   8   0   48.41    1.39
   1   8   0   46.69    1.46
   1   8   0   45.78    1.56
   1   8   0   46.10    1.56
   2  -8   0    1.19    0.28
   2  -8   0    0.79    0.66
  -2  -8   0    0.94    0.37
  -2  -8   0    0.85    0.45
  -2  -8   0    0.38    0.32
   2  -8   0    0.87    0.53
   2  -8   0    0.39    0.32
   2   8   0    0.34    0.45
   2   8   0    1.31    0.36
   2   8   0    1.02    0.12
   2   8   0    0.46    0.62
   2   8   0    1.79    0.46
  -2   8   0    0.85    0.25
  -2   8   0    1.48    0.41
  -2   8   0    1.08    0.50
   3  -8   0   11.08    1.42
   3  -8   0   11.91    1.10
  -3  -8   0   10.89    1.02
   3  -8   0   12.28    1.11
   3   8   0    9.59    1.32
   3   8   0   10.62    0.97
   3   8   0   11.31    0.83
  -3   8   0   11.22    0.57
  -3   8   0   11.46    1.23
   3   8   0    9.93    1.29
   4  -8   0   10.06    1.17
   4  -8   0   11.46    1.47
  -4  -8   0   11.92    1.11
   4  -8   0   12.11    1.16
   4   8   0   12.38    1.06
  -4   8   0   13.22    0.58
   4   8   0   14.23    1.76
  -4   8   0   15.45    1.45
   4   8   0   11.99    0.89
   4   8   0   14.86    1.55
   5  -8   0    0.31    0.55
   5  -8   0   -0.22    0.33
   5   8   0    0.02    0.77
   5   8   0    0.25    0.31
   5   8   0    0.16    0.30
   6  -8   0    0.77    0.49
  -6  -8   0    1.59    0.93
   6  -8   0    1.60    0.50
   6   8   0    1.68    0.48
   7  -8   0    0.69    0.44
   7   8   0    1.24    0.56
   0  -9   0   -0.17    0.22
   0  -9   0   -0.10    0.28
   0  -9   0   -0.40    0.49
   0  -9   0    0.05    0.46
   0  -9   0   -0.22    0.24
   0  -9   0   -0.72    0.47
   0   9   0   -0.87    0.61
   0   9   0   -0.21    0.30
   0   9   0   -0.76    0.38
   0   9   0   -0.11    0.26
   0   9   0    0.15    0.28
   1  -9   0   -0.26    0.43
  -1  -9   0    0.11    0.43
  -1  -9   0    0.64    0.33
   1  -9   0   -0.38    0.33
  -1  -9   0    1.25    0.56
   1  -9   0    1.24    0.74
   1  -9   0   -0.30    0.32
   1  -9   0    0.19    0.31
  -1  -9   0    0.31    0.54
  -1  -9   0   -0.10    0.25
   1   9   0   -0.08    0.25
  -1   9   0    1.17    0.76
  -1   9   0   -0.18    0.39
   1   9   0    0.15    0.43
   1   9   0   -0.23    0.48
  -1   9   0    0.58    0.38
   1   9   0   -0.32    0.55
   1   9   0    0.30    0.31
   1   9   0   -0.50    0.46
   1   9   0    0.42    0.31
   2  -9   0    0.66    0.46
  -2  -9   0   -0.27    0.37
  -2  -9   0    0.20    0.31
   2  -9   0   -0.35    0.57
   2  -9   0    0.50    0.37
   2  -9   0    0.30    0.35
   2  -9   0    0.22    0.23
  -2  -9   0    0.04    0.28
   2   9   0    0.01    0.13
   2   9   0    0.03    0.16
   2   9   0   -0.33    0.37
   2   9   0   -0.04    0.56
  -2   9   0    0.10    0.27
   2   9   0    0.21    0.27
   2   9   0    0.03    0.29
  -2   9   0    0.21    0.23
  -2   9   0    0.13    0.36
   3  -9   0   13.45    1.37
  -3  -9   0    9.30    1.04
   3  -9   0    8.65    1.00
   3  -9   0    7.41    1.27
  -3   9   0   10.13    0.56
   3   9   0   10.48    1.08
   3   9   0   10.29    1.02
  -3   9   0   11.09    1.25
   3   9   0   11.38    1.49
   3   9   0   11.07    1.41
  -4  -9   0    1.26    0.57
   4  -9   0   -0.06    0.67
   4  -9   0    1.34    0.52
   4   9   0    2.68    0.94
  -4   9   0    1.29    0.26
   4   9   0    0.90    0.38
   4   9   0    1.31    0.83
   4   9   0    0.82    0.42
  -4   9   0    1.33    0.66
   5  -9   0    1.16    0.66
  -5  -9   0   -1.16    0.67
   5  -9   0    0.61    0.47
   5   9   0    0.03    0.30
   5   9   0   -0.38    0.65
   5   9   0    0.86    0.46
   6  -9   0    1.07    0.51
   6  -9   0    0.27    0.52
  -6  -9   0    0.24    0.77
   6   9   0   -0.12    0.82
   6   9   0    0.13    0.33
   7  -9   0   -0.04    0.47
   7  -9   0    0.07    0.45
   7   9   0    0.23    0.41
   0 -10   0    5.23    0.99
   0 -10   0    6.45    0.82
   0 -10   0    6.68    0.93
   0 -10   0    7.20    0.93
   0 -10   0    9.97    1.09
   0 -10   0    5.47    0.95
   0  10   0    6.60    0.83
   0  10   0    8.06    0.98
   0  10   0    7.78    1.16
   0  10   0    6.54    1.16
   0  10   0    4.55    0.70
   0  10   0    7.02    0.75
  -1 -10   0    7.01    1.01
   1 -10   0    7.60    1.03
  -1 -10   0    6.98    1.09
   1 -10   0    7.72    0.78
  -1 -10   0    8.62    0.94
  -1 -10   0    6.64    0.98
   1 -10   0    5.96    0.92
   1 -10   0    5.49    1.19
   1 -10   0    8.54    0.96
   1  10   0    7.40    0.93
   1  10   0    8.37    0.94
   1  10   0    8.67    1.36
   1  10   0    7.26    0.82
  -1  10   0    7.63    0.98
   1  10   0    8.51    0.93
  -1  10   0    8.46    1.13
   1  10   0    7.11    1.06
   1  10   0    7.31    0.86
   2 -10   0    6.30    0.94
  -2 -10   0    6.28    0.99
  -2 -10   0    5.10    0.77
   2 -10   0    7.09    0.68
   2 -10   0    7.27    0.91
   2 -10   0    5.58    0.82
   2 -10   0    7.41    1.36
  -2 -10   0    7.33    0.99
  -2  10   0    7.07    0.94
   2  10   0    6.61    1.13
  -2  10   0    6.16    0.65
   2  10   0    4.92    0.52
   2  10   0    6.12    0.87
   2  10   0    6.09    0.85
  -2  10   0    5.90    0.99
   2  10   0    6.76    0.58
   2  10   0    5.95    0.96
   2  10   0    6.28    0.97
   3 -10   0    1.88    0.59
   3 -10   0    1.45    0.54
   3 -10   0    0.87    0.79
  -3 -10   0    1.94    0.63
   3  10   0    1.93    0.60
  -3  10   0    1.34    0.60
  -3  10   0    1.40    0.36
   3  10   0    0.30    0.59
   3  10   0    1.32    0.68
   3  10   0    0.59    0.36
   4 -10   0    5.16    0.89
   4 -10   0    2.83    0.95
   4  10   0    4.10    0.80
   4  10   0    4.83    1.16
  -4  10   0    4.89    0.45
   4  10   0    5.01    0.77
  -4  10   0    3.76    0.90
  -5 -10   0    2.61    1.00
   5 -10   0    0.89    0.51
   5 -10   0    0.27    0.58
   5  10   0    0.56    0.37
   5  10   0    0.59    0.63
   5  10   0    0.06    0.40
   6 -10   0    1.39    0.61
  -6 -10   0    1.40    1.05
   6 -10   0    0.86    0.65
   6  10   0    1.32    0.52
   6  10   0    1.10    0.46
   6  10   0    1.67    0.90
   7 -10   0   -0.11    0.45
   7 -10   0    0.04    0.48
   7  10   0    0.73    0.45
   0 -11   0    0.07    0.37
   0 -11   0   -0.09    0.28
   0 -11   0   -0.72    0.59
   0 -11   0    0.89    0.43
   0  11   0   -0.21    0.25
   0  11   0    0.04    0.54
   0  11   0   -0.53    0.31
   0  11   0    0.27    0.32
   0  11   0   -0.90    0.49
   0  11   0    0.30    0.30
   1 -11   0    0.16    0.27
  -1 -11   0    1.18    0.57
   1 -11   0    0.20    0.72
   1 -11   0    0.49    0.41
  -1 -11   0    1.03    0.43
   1 -11   0    0.77    0.41
  -1 -11   0    1.59    0.75
   1 -11   0    0.95    0.55
  -1 -11   0    0.60    0.43
   1  11   0    1.35    0.47
   1  11   0    0.81    0.43
   1  11   0    0.79    0.75
   1  11   0    1.11    0.47
   1  11   0    0.52    0.38
   1  11   0    0.40    0.50
   1  11   0   -0.10    0.46
  -1  11   0   -0.11    0.31
  -1  11   0    1.73    0.68
  -2 -11   0    0.11    0.33
  -2 -11   0   -0.42    0.61
  -2 -11   0    0.22    0.31
   2 -11   0    0.21    0.73
   2 -11   0    0.65    0.29
   2 -11   0    0.36    0.36
   2 -11   0   -0.23    0.40
  -2 -11   0   -0.31    0.36
   2 -11   0    0.22    0.36
  -2  11   0    0.44    0.34
  -2  11   0    0.13    0.50
   2  11   0    0.04    0.19
   2  11   0    0.11    0.45
   2  11   0    0.01    0.20
   2  11   0    0.33    0.43
   2  11   0    0.55    0.64
   2  11   0    0.33    0.33
   2  11   0    0.52    0.42
   3 -11   0    0.56    0.44
   3 -11   0    0.98    0.83
   3 -11   0    1.90    0.56
  -3 -11   0    1.15    0.54
   3 -11   0    1.68    0.70
   3  11   0    1.36    0.57
   3  11   0    1.89    0.73
  -3  11   0    1.40    0.34
   3  11   0    1.55    0.52
  -3  11   0    2.86    0.90
   3  11   0    1.18    0.89
   4 -11   0    1.92    0.79
  -4 -11   0    2.00    0.87
   4 -11   0    3.40    0.83
   4  11   0    1.82    0.51
   4  11   0    1.10    0.54
   4  11   0    2.57    0.93
   5 -11   0    0.95    0.54
   5 -11   0   -0.46    0.67
  -5 -11   0   -0.05    0.69
   5  11   0    0.14    0.33
   5  11   0    0.20    0.45
   5  11   0   -0.20    0.56
   6 -11   0    0.11    0.66
   6 -11   0    0.04    0.46
  -6 -11   0    1.15    1.01
   6 -11   0   -0.43    0.39
   6  11   0   -0.56    0.74
   6  11   0    0.01    0.38
   6  11   0    0.00    0.35
   7 -11   0    0.33    0.45
   7 -11   0    0.38    0.62
   7  11   0    0.25    0.46
   0 -12   0   -0.15    0.34
   0 -12   0    0.24    0.39
   0 -12   0   -0.06    0.31
   0 -12   0   -0.57    0.57
   0  12   0   -0.05    0.30
   0  12   0   -0.12    0.37
   0  12   0    0.41    0.63
   0  12   0   -0.17    0.32
   0  12   0    0.09    0.33
   1 -12   0   10.75    1.16
  -1 -12   0    7.53    1.12
   1 -12   0    9.22    0.97
  -1 -12   0   10.70    1.43
  -1 -12   0   11.93    1.34
  -1 -12   0   10.81    1.10
   1 -12   0   10.11    1.26
   1 -12   0    7.49    1.32
   1  12   0    9.83    1.09
   1  12   0    8.37    1.23
   1  12   0    7.85    1.09
   1  12   0    9.46    1.14
   1  12   0    8.90    0.98
  -1  12   0    8.48    1.08
   1  12   0   10.68    1.72
  -1  12   0   10.12    1.35
   1  12   0    7.92    0.98
  -2 -12   0   -0.10    0.43
   2 -12   0    0.82    0.61
   2 -12   0    0.36    0.27
   2 -12   0   -0.08    0.38
  -2 -12   0    0.09    0.53
   2 -12   0    0.28    0.36
   2 -12   0    0.21    0.77
  -2 -12   0    0.01    0.38
   2  12   0    0.85    0.57
  -2  12   0    0.05    0.48
   2  12   0   -1.07    0.71
  -2  12   0   -0.23    0.28
   2  12   0   -0.33    0.21
   2  12   0   -0.03    0.22
   2  12   0    0.30    0.47
   2  12   0    0.63    0.48
   2  12   0    0.44    0.35
  -3 -12   0    3.35    0.87
   3 -12   0    6.25    1.01
   3 -12   0    3.93    0.91
  -3 -12   0    4.05    1.07
   3 -12   0    2.95    1.04
   3 -12   0    4.92    0.84
  -3  12   0    4.08    0.93
   3  12   0    4.33    0.84
   3  12   0    4.60    0.81
   3  12   0    4.09    1.00
   3  12   0    6.04    1.37
   4 -12   0    1.95    0.70
  -4 -12   0    2.66    0.99
   4 -12   0    1.55    0.79
   4 -12   0    1.64    0.58
   4  12   0    3.54    1.00
   4  12   0    2.28    0.70
   4  12   0    1.45    0.50
   5 -12   0    0.09    0.40
   5 -12   0   -0.13    0.67
  -5 -12   0    0.23    0.76
   5 -12   0   -0.34    0.49
   5  12   0   -0.24    0.39
   5  12   0    0.06    0.34
   5  12   0    0.29    0.70
   6 -12   0    0.92    0.66
   6 -12   0    0.08    0.43
  -6 -12   0    0.87    1.02
   6 -12   0    1.13    0.72
   6  12   0   -0.19    0.79
   6  12   0    1.69    0.60
   6  12   0    0.25    0.52
   7 -12   0    1.03    0.67
   7  12   0    0.30    0.51
   0 -13   0    0.01    0.34
   0 -13   0    2.62    0.90
   0 -13   0    0.44    0.37
   0  13   0   -0.65    0.47
   0  13   0    1.00    0.49
   0  13   0    0.21    0.42
   0  13   0   -0.43    0.25
   0  13   0    0.21    0.39
   1 -13   0    0.86    0.47
  -1 -13   0    1.37    0.52
   1 -13   0    1.52    0.51
  -1 -13   0    0.73    0.74
   1 -13   0    1.79    0.77
  -1 -13   0    0.41    0.43
  -1 -13   0    1.13    0.69
   1 -13   0   -0.26    0.28
   1  13   0    0.96    0.48
   1  13   0    1.04    0.49
  -1  13   0    1.43    0.54
   1  13   0    0.93    0.47
   1  13   0    0.17    0.51
   1  13   0    1.08    0.49
   1  13   0    1.64    0.89
  -1  13   0    2.23    0.92
   1  13   0    0.43    0.55
  -2 -13   0   -0.32    0.41
   2 -13   0   -1.01    0.49
  -2 -13   0   -0.11    0.56
   2 -13   0    0.42    0.36
   2 -13   0    0.32    0.42
  -2 -13   0   -0.27    0.45
   2 -13   0    0.56    0.55
   2 -13   0   -0.22    0.35
   2  13   0    0.50    0.48
   2  13   0    1.94    0.85
  -2  13   0    0.28    0.55
   2  13   0    0.21    0.32
   2  13   0   -0.25    0.38
   2  13   0    0.25    0.29
   2  13   0    0.03    0.34
   2  13   0   -0.33    0.33
  -2  13   0   -0.13    0.40
  -3 -13   0   -0.46    0.53
  -3 -13   0   -0.39    0.53
   3 -13   0    1.10    0.60
   3 -13   0    0.53    0.48
   3 -13   0   -0.10    0.67
   3  13   0    0.04    0.52
  -3  13   0    0.72    0.72
   3  13   0   -0.24    0.43
   3  13   0    0.40    0.44
  -4 -13   0   -0.52    0.48
   4 -13   0    0.09    0.47
   4 -13   0   -0.76    0.57
   4 -13   0    0.40    0.43
   4  13   0    0.21    0.32
   4  13   0    0.00    0.49
   4  13   0   -0.29    0.43
   5 -13   0    0.39    0.50
   5 -13   0   -0.39    0.41
  -5 -13   0    0.01    0.78
   5 -13   0   -0.10    0.69
   5  13   0    2.41    1.03
   5  13   0   -0.50    0.28
   5  13   0   -0.30    0.40
  -6 -13   0   -0.24    1.00
   6 -13   0   -0.33    0.75
   6 -13   0   -0.35    0.50
   6  13   0    0.42    0.61
   6  13   0    0.24    0.50
   6  13   0    0.42    0.85
   7 -13   0    0.11    0.58
   7  13   0    0.43    0.51
   0 -14   0    7.34    1.38
   0 -14   0    7.73    1.05
   0 -14   0    5.95    0.88
   0  14   0    8.80    1.08
   0  14   0    9.92    1.19
   0  14   0    7.13    1.37
   0  14   0    6.68    0.90
  -1 -14   0    4.90    1.32
   1 -14   0    4.78    1.17
   1 -14   0    5.57    0.99
   1 -14   0    5.24    0.81
   1 -14   0    4.95    0.88
  -1 -14   0    5.85    1.09
  -1 -14   0    7.06    1.04
  -1 -14   0    5.86    0.92
   1  14   0    6.14    0.94
   1  14   0    6.95    1.04
  -1  14   0    3.06    0.93
   1  14   0    6.97    1.20
  -1  14   0    6.74    1.02
   1  14   0    6.62    1.08
   1  14   0    9.15    1.19
   1  14   0    5.05    0.94
   2 -14   0    1.06    0.86
  -2 -14   0    2.84    0.79
   2 -14   0    4.07    0.85
   2 -14   0    2.34    0.70
  -2 -14   0    2.95    0.92
   2 -14   0    4.13    0.98
  -2 -14   0    4.91    1.07
   2 -14   0    4.75    0.73
   2  14   0    5.61    1.08
   2  14   0    4.76    0.90
   2  14   0    5.92    1.43
  -2  14   0    2.89    1.03
   2  14   0    4.74    0.74
   2  14   0    4.60    0.96
  -2  14   0    3.31    0.78
   2  14   0    4.05    0.87
   2  14   0    4.18    0.61
  -3 -14   0    1.75    0.76
   3 -14   0    2.28    0.48
  -3 -14   0    0.69    0.72
   3 -14   0    3.28    0.87
   3 -14   0    2.31    0.71
   3 -14   0    2.47    0.96
  -3  14   0    1.96    0.84
   3  14   0    1.14    0.65
   3  14   0    3.13    0.77
   3  14   0    3.25    0.82
   4 -14   0    2.57    0.75
   4 -14   0    0.20    0.87
   4 -14   0    3.23    0.92
  -4 -14   0    1.70    0.85
   4  14   0    1.32    0.81
   4  14   0    2.69    0.85
   4  14   0    1.41    0.61
  -5 -14   0    1.10    0.90
   5 -14   0    0.67    0.63
   5 -14   0    0.57    0.83
   5  14   0    2.11    1.12
   5  14   0    2.40    0.76
   5  14   0    1.37    0.65
   6 -14   0    1.13    0.89
   6 -14   0    1.60    0.80
  -6 -14   0    0.92    1.16
   6  14   0    0.57    1.00
   6  14   0    3.34    0.87
   6  14   0    0.52    0.55
   0 -15   0   -0.58    0.52
   0 -15   0   -0.17    0.41
   0 -15   0    0.16    0.35
   0  15   0   -0.06    0.40
   0  15   0    0.27    0.78
   0  15   0   -0.04    0.48
   0  15   0   -0.46    0.36
  -1 -15   0    0.61    0.87
  -1 -15   0    0.07    0.47
   1 -15   0    0.58    0.52
   1 -15   0   -0.13    0.70
  -1 -15   0    0.84    0.50
   1 -15   0    0.95    0.50
   1 -15   0    0.43    0.52
  -1  15   0    0.41    0.42
   1  15   0    0.51    0.51
   1  15   0   -0.15    0.43
   1  15   0    0.58    0.70
   1  15   0   -0.16    0.38
  -1  15   0   -0.55    0.57
   1  15   0    0.33    0.43
   1  15   0    0.78    0.50
  -2 -15   0   -0.28    0.52
   2 -15   0   -0.18    0.39
   2 -15   0   -0.17    0.64
   2 -15   0    0.66    0.40
   2 -15   0   -0.01    0.44
  -2 -15   0    0.27    0.44
  -2 -15   0    0.24    0.58
   2  15   0    0.34    0.46
  -2  15   0   -0.55    0.60
   2  15   0   -0.29    0.33
   2  15   0    0.05    0.33
   2  15   0   -0.34    0.73
   2  15   0    0.30    0.42
   2  15   0   -0.06    0.47
  -2  15   0    0.04    0.38
  -3 -15   0    1.02    0.79
   3 -15   0    0.38    0.34
   3 -15   0    0.24    0.51
   3 -15   0    0.13    0.72
  -3 -15   0    0.30    0.62
   3 -15   0   -0.16    0.49
   3  15   0    0.50    0.44
  -3  15   0   -0.55    0.69
   3  15   0    0.60    0.56
   3  15   0   -0.03    0.58
   4 -15   0    1.40    0.88
   4 -15   0    0.66    0.65
  -4 -15   0    0.69    0.74
   4  15   0    0.28    0.57
   4  15   0    0.29    0.41
   4  15   0   -0.15    0.52
   5 -15   0    0.25    0.86
  -5 -15   0   -1.11    0.65
   5 -15   0    0.05    0.64
   5  15   0    0.12    0.86
   5  15   0    0.01    0.41
   5  15   0    0.21    0.51
   6 -15   0    0.23    0.92
   6 -15   0    0.68    0.68
   6  15   0    0.09    0.55
   6  15   0    0.01    0.43
   6  15   0    0.92    1.16
   0 -16   0   -0.20    0.47
   0 -16   0   -0.48    0.36
   0 -16   0   -0.51    0.64
   0  16   0   -0.72    0.57
   0  16   0    0.45    0.52
   0  16   0   -0.20    0.45
  -1 -16   0    0.79    0.62
   1 -16   0    0.77    0.51
   1 -16   0    0.57    0.54
   1 -16   0    0.29    0.49
   1 -16   0   -0.70    0.65
  -1 -16   0   -0.44    0.86
  -1 -16   0    1.12    0.57
  -1  16   0   -0.18    0.36
   1  16   0   -0.42    0.59
   1  16   0    0.40    0.57
   1  16   0    0.01    0.39
   1  16   0    0.01    0.36
   1  16   0    0.46    0.44
  -1  16   0    0.01    0.64
   1  16   0    0.90    0.57
   2 -16   0   -0.32    0.39
  -2 -16   0    0.98    0.78
   2 -16   0    1.18    0.66
   2 -16   0    0.75    0.45
   2 -16   0    0.51    0.85
  -2 -16   0    0.82    0.66
   2  16   0    1.91    0.64
   2  16   0    3.33    1.01
   2  16   0    1.30    0.62
   2  16   0    1.79    0.69
   2  16   0    2.20    0.62
  -2  16   0    1.62    0.97
  -3 -16   0    0.24    0.66
   3 -16   0   -0.57    0.86
   3 -16   0    0.69    0.55
  -3 -16   0   -0.39    0.68
   3 -16   0    0.36    0.38
  -3  16   0    1.37    0.87
   3  16   0    0.47    0.60
   3  16   0    0.75    0.49
   3  16   0   -0.30    0.55
   4 -16   0    0.17    0.87
  -4 -16   0    0.74    0.80
   4 -16   0   -1.08    0.49
   4  16   0   -0.64    0.43
   4  16   0   -0.70    0.54
   4  16   0   -0.18    0.37
   5 -16   0    0.00    0.75
   5 -16   0   -0.34    0.85
  -5 -16   0    0.21    0.67
   5  16   0   -0.58    0.52
   5  16   0   -0.01    0.43
   5  16   0   -0.96    0.90
   6 -16   0   -0.24    0.62
   6 -16   0   -0.16    0.89
   6  16   0    0.46    0.54
   6  16   0    0.41    0.61
   0 -17   0    0.33    0.50
   0 -17   0   -0.18    0.45
   0 -17   0    0.29    0.79
   0  17   0    1.09    0.95
   0  17   0   -0.87    0.36
   0  17   0    0.48    0.50
   0  17   0   -0.16    0.44
  -1 -17   0    8.79    1.75
  -1 -17   0    5.33    1.15
   1 -17   0    8.53    1.15
   1 -17   0    7.26    1.60
   1 -17   0    7.95    1.28
   1  17   0    8.49    1.28
   1  17   0    9.00    1.24
   1  17   0    9.17    1.29
   1  17   0    7.96    1.48
  -1  17   0    6.41    1.41
   1  17   0   10.10    1.34
   2 -17   0   -0.96    0.68
   2 -17   0    0.18    0.41
   2 -17   0   -0.29    0.49
  -2 -17   0    0.02    0.79
  -2 -17   0    0.80    0.84
   2  17   0    0.26    0.40
   2  17   0   -0.35    0.40
   2  17   0   -0.07    0.41
   2  17   0    1.41    0.81
   2  17   0    0.61    0.49
  -2  17   0   -0.51    0.55
  -3 -17   0    1.05    0.83
   3 -17   0    1.16    0.74
   3 -17   0    0.44    0.89
  -3 -17   0    1.85    0.82
   3  17   0   -0.34    0.52
   3  17   0    0.82    0.56
   3  17   0    0.08    0.58
  -3  17   0    0.43    0.78
  -4 -17   0    0.03    0.79
   4 -17   0    0.81    0.75
   4 -17   0   -0.66    0.72
   4  17   0   -0.17    0.49
   4  17   0   -0.01    0.65
   4  17   0    1.25    0.66
  -5 -17   0   -0.09    0.82
   5 -17   0   -0.14    0.70
   5 -17   0   -0.52    1.15
   5  17   0   -0.25    0.48
   5  17   0    0.70    0.69
   5  17   0    1.47    1.06
   6 -17   0    1.38    0.89
   6 -17   0    0.24    0.99
   6  17   0   -0.25    0.74
   6  17   0    0.29    0.54
   0 -18   0    3.81    0.92
   0 -18   0    6.30    1.54
   0  18   0    4.90    1.06
   0  18   0    5.16    1.10
   0  18   0    4.94    1.34
   0  18   0    5.05    1.00
   1 -18   0    1.10    0.87
   1 -18   0   -0.41    0.43
  -1 -18   0   -0.49    0.50
  -1 -18   0   -0.68    0.68
   1 -18   0    0.52    0.47
   1  18   0   -0.08    0.42
   1  18   0    0.23    0.63
   1  18   0    0.19    0.65
   1  18   0    0.16    0.55
   1  18   0   -0.55    0.56
  -1  18   0    0.40    0.96
  -2 -18   0   -0.76    0.56
  -2 -18   0   -0.18    0.69
   2 -18   0    0.41    0.97
   2 -18   0    0.13    0.48
   2 -18   0    0.20    0.60
  -2  18   0   -0.98    0.64
   2  18   0   -0.12    0.50
   2  18   0   -0.58    0.38
   2  18   0    0.02    0.53
   2  18   0    0.39    0.46
   2  18   0    0.66    0.79
  -3 -18   0   -0.17    0.62
   3 -18   0    2.44    0.88
   3 -18   0    1.14    0.92
   3  18   0    1.72    0.21
   3  18   0    2.31    0.27
   3  18   0    1.82    0.79
   3  18   0    3.65    0.98
   3  18   0    1.34    0.79
  -3  18   0    1.45    0.96
  -4 -18   0    0.03    0.83
   4 -18   0    1.11    1.07
   4 -18   0    1.66    0.88
   4  18   0    0.08    0.45
   4  18   0    1.00    0.76
   4  18   0    1.09    1.02
   5 -18   0    0.69    0.86
   5 -18   0   -0.22    1.08
   5  18   0    1.06    0.79
   5  18   0    1.03    0.65
   5  18   0    0.34    1.14
   6 -18   0    0.16    0.81
   6  18   0    0.41    0.67
   6  18   0    0.47    0.64
   0 -19   0   -0.28    0.47
   0 -19   0   -1.17    0.76
   0  19   0    0.61    0.85
   0  19   0    1.08    0.59
   0  19   0    0.56    0.56
   0  19   0    0.17    0.52
   1 -19   0    0.26    0.88
  -1 -19   0    0.17    0.95
  -1 -19   0   -0.71    0.47
   1 -19   0   -0.33    0.42
  -1  19   0    0.01    0.39
  -1  19   0   -0.85    0.68
   1  19   0    0.37    0.57
   1  19   0    0.71    0.59
   1  19   0    0.56    0.65
   1  19   0    0.42    0.76
   1  19   0    0.65    0.57
   2 -19   0    0.07    0.58
   2 -19   0    0.07    0.89
   2 -19   0   -0.18    0.46
  -2 -19   0    0.39    0.78
  -2 -19   0    0.13    0.68
   2  19   0    0.22    0.41
   2  19   0    1.11    1.03
   2  19   0    0.44    0.55
   2  19   0    0.05    0.59
   2  19   0   -0.37    0.45
  -2  19   0    0.81    0.91
   3 -19   0   -0.60    0.72
   3 -19   0   -0.01    0.51
  -3 -19   0   -0.94    0.70
   3  19   0   -0.74    0.41
   3  19   0   -0.07    0.66
   3  19   0    0.00    0.17
   3  19   0   -0.21    0.23
   3  19   0    0.23    0.64
  -3  19   0    0.71    0.99
  -4 -19   0    0.33    0.84
   4 -19   0    1.31    1.02
   4 -19   0    0.10    0.66
   4  19   0    0.06    0.65
   4  19   0   -0.75    0.69
   4  19   0    1.71    0.86
   5 -19   0   -0.29    0.77
   5 -19   0   -0.40    1.11
   5  19   0    1.32    0.65
   5  19   0    0.75    1.02
   5  19   0    0.08    0.65
   6 -19   0    0.49    0.87
   6  19   0   -0.32    0.65
   0 -20   0    2.60    0.88
   0 -20   0    0.51    1.42
   0  20   0    0.55    0.57
   0  20   0    0.97    0.82
   0  20   0    1.15    1.01
   1 -20   0   -0.05    0.56
   1 -20   0    0.49    0.89
  -1 -20   0   -0.73    0.52
  -1 -20   0    0.59    0.94
   1  20   0    0.97    1.00
   1  20   0    0.12    0.50
   1  20   0   -0.31    0.53
  -1  20   0    0.94    0.68
  -1  20   0   -0.68    0.72
   1  20   0   -0.49    0.57
  -2 -20   0    0.76    0.93
  -2 -20   0   -0.40    0.64
   2 -20   0    0.84    0.58
   2 -20   0    0.57    1.02
   2  20   0    0.01    0.40
   2  20   0    1.29    0.71
   2  20   0    1.40    0.96
   2  20   0    0.58    0.65
   2  20   0   -0.27    0.43
  -2  20   0    2.96    1.34
  -3 -20   0   -0.67    0.71
   3 -20   0   -0.13    0.59
   3 -20   0    0.73    1.06
   3  20   0    0.23    0.29
   3  20   0    0.06    0.22
   3  20   0   -0.23    0.62
   3  20   0   -0.28    0.55
   3  20   0    0.56    0.82
   4 -20   0    1.36    0.90
   4 -20   0   -0.43    0.98
  -4 -20   0   -0.12    0.90
   4  20   0    0.56    0.65
   4  20   0    0.46    0.60
   4  20   0   -0.17    0.81
   5 -20   0   -1.52    0.70
   5 -20   0   -0.62    1.02
   5  20   0   -0.34    0.51
   5  20   0   -0.71    0.80
   5  20   0    0.47    0.75
   0 -21   0    1.04    1.44
   0 -21   0   -0.31    0.60
   0  21   0   -0.35    0.45
   0  21   0   -0.25    1.01
   1 -21   0   -0.66    0.83
  -1 -21   0   -0.36    0.89
   1 -21   0   -0.60    0.49
  -1 -21   0   -0.38    0.63
   1  21   0   -0.46    0.62
   1  21   0   -0.31    0.56
   1  21   0   -0.85    0.91
   1  21   0    0.04    0.52
  -1  21   0   -0.32    0.82
  -1  21   0   -0.14    0.44
  -2 -21   0   -1.00    0.96
  -2 -21   0    0.10    0.70
   2 -21   0    0.83    0.63
   2 -21   0   -0.46    0.92
   2  21   0    0.24    0.49
  -2  21   0   -0.92    0.71
   2  21   0    0.02    0.49
   2  21   0    0.74    0.75
  -3 -21   0    0.18    0.75
   3 -21   0    1.03    1.09
   3  21   0   -0.47    0.25
   3  21   0    0.05    0.82
   3  21   0    0.17    0.51
   3  21   0   -0.13    0.24
   3  21   0   -0.57    0.63
   4 -21   0   -1.43    1.30
   4  21   0   -0.61    0.83
   4  21   0   -0.15    0.56
   4  21   0    0.66    0.79
   5  21   0   -0.52    0.53
   0 -22   0    0.80    0.76
   0 -22   0    0.52    1.32
   0  22   0    1.48    0.75
   0  22   0   -0.47    1.03
  -1 -22   0    1.83    0.93
  -1 -22   0    3.44    1.38
   1 -22   0    1.84    0.85
   1 -22   0    1.37    1.36
  -1  22   0    2.77    0.83
   1  22   0    2.76    0.92
   1  22   0    4.31    1.19
   1  22   0    1.09    0.69
  -1  22   0    1.23    0.98
   1  22   0    2.60    1.39
  -2 -22   0    2.29    1.14
   2 -22   0    0.38    1.06
  -2 -22   0    3.25    1.28
  -2  22   0    3.17    1.27
   2  22   0    4.54    1.01
   2  22   0    2.53    0.89
   2  22   0    1.73    0.72
   3 -22   0   -0.26    1.44
  -3 -22   0    1.82    1.00
   3  22   0    0.98    0.98
   3  22   0    1.47    0.40
   3  22   0    0.98    0.33
   3  22   0   -0.89    0.60
   4 -22   0   -0.20    1.24
   4  22   0    0.83    0.79
   4  22   0    1.51    1.03
   5  22   0    0.19    0.77
   0 -23   0   -0.06    0.71
   0 -23   0   -0.32    1.09
   0  23   0   -0.15    0.58
   0  23   0    0.76    1.12
  -1 -23   0    0.44    0.70
   1 -23   0    0.03    1.35
  -1 -23   0    0.17    0.81
   1 -23   0   -0.59    0.56
   1  23   0   -0.05    0.73
   1  23   0    1.81    1.19
  -1  23   0    0.15    0.62
  -1  23   0   -0.98    0.96
   1  23   0    0.97    0.69
  -2 -23   0    1.01    1.13
  -2 -23   0   -0.43    0.79
   2 -23   0    0.65    1.61
   2  23   0    0.82    0.70
   2  23   0   -0.28    0.52
  -2  23   0   -0.29    0.58
   2  23   0    0.28    0.62
  -2  23   0    1.19    1.06
   3 -23   0   -1.05    1.18
  -3 -23   0   -0.04    0.87
   3  23   0   -0.13    0.88
   3  23   0    0.03    0.29
   3  23   0    0.30    0.82
   3  23   0   -0.24    0.32
   4  23   0    0.38    1.05
   4  23   0   -1.12    0.75
   0 -24   0    3.76    1.63
   0 -24   0    5.76    1.30
   0  24   0    7.63    2.04
   0  24   0    4.75    1.21
   1 -24   0    1.81    0.83
  -1 -24   0    2.21    1.32
   1 -24   0    0.16    1.34
  -1 -24   0    1.12    0.94
  -1  24   0    0.12    0.62
   1  24   0    0.70    0.75
  -1  24   0    1.51    1.31
   1  24   0    1.52    1.20
  -2 -24   0    1.93    1.09
   2 -24   0    0.45    1.55
  -2  24   0   -0.44    1.16
   2  24   0    0.60    0.74
   2  24   0   -0.93    0.54
   2  24   0    0.08    0.58
   3 -24   0    0.98    1.35
   3  24   0    0.75    0.95
   3  24   0    0.25    0.30
   3  24   0    0.39    0.40
   3  24   0    0.38    0.84
   4  24   0    0.10    0.85
   0 -25   0    0.29    1.00
   0 -25   0    1.19    1.43
   0  25   0    0.13    1.38
   0  25   0   -0.50    0.76
  -1 -25   0    0.06    1.08
   1 -25   0    0.77    0.84
   1 -25   0    0.16    1.33
  -1 -25   0    1.34    1.03
   1  25   0    0.70    1.17
  -1  25   0    0.87    1.27
  -1  25   0   -0.12    0.68
   1  25   0   -0.24    0.67
  -2 -25   0    1.70    1.22
   2 -25   0   -0.86    1.02
   2  25   0    0.08    0.64
  -2  25   0   -0.44    1.36
   2  25   0   -0.25    0.58
   2  25   0   -0.32    0.68
   3 -25   0    0.52    1.34
   3  25   0   -0.50    0.98
   3  25   0    0.38    0.42
   3  25   0    0.50    0.93
   3  25   0    0.07    0.32
   0 -26   0    0.82    0.98
   0 -26   0    0.13    0.94
   0  26   0    0.10    1.23
   0  26   0    0.17    0.67
  -1 -26   0    0.44    1.21
   1 -26   0    0.50    1.23
  -1 -26   0    1.45    1.21
   1  26   0    0.23    1.07
  -1  26   0    0.79    1.39
   1  26   0    0.24    0.79
   2 -26   0   -0.14    1.25
   2  26   0   -2.05    0.73
   2  26   0    0.03    0.64
   2  26   0   -0.08    0.58
   3  26   0    0.65    0.95
   0 -27   0    0.23    0.82
   0 -27   0    0.07    1.10
   0  27   0   -0.03    1.07
   0  27   0   -0.50    0.64
   1 -27   0    1.15    1.39
  -1 -27   0   -0.78    1.06
  -1  27   0    0.13    1.35
   1  27   0    0.69    0.83
   2  27   0    1.19    0.85
   2  27   0    0.00    0.64
   2  27   0   -0.74    0.86
   0 -28   0    0.24    1.34
   0 -28   0   -0.69    1.03
   0  28   0    1.06    1.29
   1 -28   0    2.37    1.32
  -1  28   0   -0.32    1.55
   1  28   0    0.40    0.79
   2  28   0    1.23    0.82
   2  28   0    2.22    0.87
   2  28   0    1.02    0.93
   0 -29   0    0.29    1.48
  -1  29   0   -0.02    1.30
   7   0  -1    0.02    0.20
   6   0  -1    0.12    0.19
   5   0  -1   -0.04    0.15
  -5   0   1    0.02    0.33
   4   0  -1   -0.20    0.10
   4   0  -1   -0.96    0.39
  -4   0   1   -0.46    0.27
   3   0  -1    0.10    0.30
  -3   0   1   -0.43    0.19
  -2   0   1   -0.17    0.19
   2   0  -1    0.13    0.27
   1   0  -1    0.24    0.18
  -1   0   1    0.01    0.18
   1   0  -1   -0.02    0.27
   1   0  -1   -0.05    0.19
  -1   0   1    0.02    0.17
  -1   0   1   -0.35    0.23
  -1   0   1    0.00    0.21
   1   0  -1   -0.08    0.13
   1   0  -1   -0.16    0.19
   0   0   1   -0.04    0.24
   0   0   1   -0.09    0.28
   0   0  -1   -0.35    0.10
   0   0  -1    0.18    0.28
   0   0   1    0.10    0.18
   0   0  -1   -0.18    0.21
   0   0  -1    0.24    0.18
   0   0  -1    0.09    0.26
   0   0   1    0.34    0.21
   1   0   1    0.26    0.40
   1   0   1   -0.05    0.15
   1   0   1   -0.24    0.26
  -1   0  -1   -0.07    0.36
  -1   0  -1    0.10    0.38
   1   0   1    0.03    0.28
  -1   0  -1   -0.13    0.20
   2   0   1   -0.12    0.25
   2   0   1    0.04    0.29
  -2   0  -1    0.32    0.39
  -2   0  -1   -0.08    0.15
   2   0   1    0.06    0.25
  -2   0  -1    0.30    0.46
  -2   0  -1   -0.03    0.29
   3   0   1   -0.02    0.22
  -3   0  -1   -0.31    0.24
   3   0   1   -0.05    0.24
   3   0   1    0.55    0.28
   4   0   1    0.42    0.36
   4   0   1    0.48    0.28
  -4   0  -1   -0.17    0.29
   4   0   1   -0.08    0.33
   5   0   1    0.23    0.33
   5   0   1    0.01    0.21
   6   0   1   -0.08    0.39
   6   0   1    0.56    0.37
   7   0   1    0.14    0.38
   7  -1  -1    0.08    0.20
   7   1  -1    0.00    0.19
   6  -1  -1    0.02    0.15
   6   1  -1   -0.12    0.18
  -5  -1   1    0.06    0.38
   5  -1  -1    0.50    0.21
  -5   1   1   -0.44    0.32
   5   1  -1    0.10    0.19
  -4  -1   1    2.16    0.55
   4  -1  -1    2.27    0.28
   4   1  -1    2.42    0.22
  -4   1   1    2.06    0.49
   4   1  -1    2.32    0.74
   3  -1  -1    6.58    0.90
  -3  -1   1    7.26    0.79
  -3   1   1    7.90    0.86
  -3   1   1    7.14    0.66
   3   1  -1    8.97    1.06
  -2  -1   1   -0.46    0.23
   2  -1  -1    0.22    0.27
  -2  -1   1    0.22    0.30
   2  -1  -1    0.02    0.09
   2  -1  -1    0.39    0.14
  -2   1   1    0.07    0.17
  -2   1   1   -0.17    0.30
   2   1  -1   -0.03    0.30
  -2   1   1    0.15    0.20
  -2   1   1    0.11    0.14
   1  -1  -1    4.74    0.40
  -1  -1   1    4.93    0.40
  -1  -1   1    4.74    0.48
  -1  -1   1    4.42    0.36
   1  -1  -1    4.51    0.31
  -1  -1   1    5.62    0.51
   1  -1  -1    4.87    0.36
   1  -1  -1    4.11    0.37
   1  -1  -1    4.55    0.33
   1   1  -1    4.11    0.28
  -1   1   1    4.80    0.39
   1   1  -1    6.69    0.57
   1   1  -1    5.68    0.44
  -1   1   1    3.86    0.27
   1   1  -1    3.88    0.50
   1   1  -1    4.48    0.33
  -1   1   1    4.06    0.36
  -1   1   1    4.11    0.40
   0  -1   1    2.11    0.28
   0  -1  -1    1.96    0.35
   0  -1   1    2.10    0.28
   0  -1   1    2.41    0.38
   0  -1   1    2.04    0.39
   0  -1   1    1.99    0.30
   0  -1  -1    2.15    0.39
   0  -1  -1    1.77    0.26
   0   1   1    2.53    0.30
   0   1  -1    1.88    0.29
   0   1   1    2.12    0.39
   0   1   1    2.12    0.38
   0   1  -1    2.18    0.39
   0   1  -1    2.09    0.28
   0   1   1    1.98    0.28
   0   1  -1    2.39    0.36
   1  -1   1    4.10    0.46
  -1  -1  -1    2.86    0.37
  -1  -1  -1    4.27    0.53
  -1  -1  -1    4.20    0.54
   1  -1   1    3.63    0.56
   1  -1   1    3.80    0.35
   1  -1   1    3.15    0.50
  -1  -1  -1    4.34    0.64
  -1   1  -1    4.11    0.54
   1   1   1    3.73    0.50
  -1   1  -1    3.75    0.54
   1   1   1    2.95    0.48
   1   1   1    3.57    0.36
  -1   1  -1    2.39    0.34
   1   1   1    3.53    0.37
  -2  -1  -1   19.43    1.08
  -2  -1  -1   19.44    0.69
   2  -1   1   19.85    0.86
   2  -1   1   19.19    0.82
   2  -1   1   19.84    0.92
  -2  -1  -1   20.91    0.92
  -2  -1  -1   20.22    0.90
   2   1   1   18.77    0.91
   2   1   1   17.78    0.90
   2   1   1   19.40    0.83
  -2   1  -1   19.40    0.76
  -2   1  -1   18.25    0.83
  -2   1  -1   19.58    0.97
   3  -1   1    0.09    0.27
  -3  -1  -1    0.47    0.35
   3  -1   1    0.24    0.30
   3  -1   1    0.34    0.24
   3   1   1    0.16    0.23
  -3   1  -1   -0.09    0.26
   3   1   1   -0.12    0.28
   3   1   1    0.21    0.30
  -4  -1  -1    0.64    0.39
   4  -1   1    0.23    0.38
   4  -1   1    1.37    0.49
   4  -1   1    0.63    0.28
   4   1   1    0.76    0.28
   4   1   1    0.53    0.35
   4   1   1    1.42    0.45
  -4   1  -1    2.03    0.50
   5  -1   1    0.47    0.46
   5  -1   1    0.03    0.28
   5   1   1   -0.09    0.35
   5   1   1   -0.04    0.28
   6  -1   1    0.82    0.46
   6  -1   1    0.35    0.42
   6   1   1   -0.34    0.32
   6   1   1   -0.16    0.36
   7  -1   1    0.65    0.47
   7   1   1    0.76    0.45
   7  -2  -1    0.84    0.34
   7   2  -1    0.06    0.19
   6  -2  -1    1.89    0.36
   6   2  -1    2.02    0.32
   5  -2  -1    1.37    0.31
  -5  -2   1    2.41    0.68
   5   2  -1    1.30    0.30
  -5   2   1    1.04    0.40
  -4  -2   1    8.64    1.00
   4  -2  -1    8.92    0.47
  -4   2   1    9.93    0.68
   4   2  -1    7.53    1.15
   4   2  -1    8.46    0.36
  -3   2   1   15.69    0.68
  -3   2   1   13.93    0.37
  -3   2   1   16.67    0.42
   3   2  -1   16.77    1.40
   3   2  -1   13.79    0.31
  -3   2   1   14.50    0.94
   3   2  -1   15.93    0.36
  -2  -2   1    0.22    0.40
  -2  -2   1    0.04    0.19
  -2  -2   1    0.22    0.15
  -2  -2   1    0.01    0.36
   2  -2  -1    0.21    0.17
   2  -2  -1   -0.13    0.21
   2  -2  -1   -0.01    0.27
  -2   2   1    0.13    0.19
   2   2  -1   -0.13    0.30
  -2   2   1    0.17    0.14
   2   2  -1    0.20    0.13
   2   2  -1    0.06    0.14
   2   2  -1    0.04    0.13
  -2   2   1    0.02    0.26
   2   2  -1   -0.01    0.16
  -2   2   1    0.36    0.34
  -1  -2   1    6.60    0.56
  -1  -2   1    6.46    0.58
   1  -2  -1    6.20    0.37
   1  -2  -1    6.23    0.41
  -1  -2   1    6.56    0.61
  -1  -2   1    5.82    0.43
   1  -2  -1    5.91    0.28
   1  -2  -1    6.25    0.48
   1   2  -1    5.46    0.42
  -1   2   1    6.03    0.52
   1   2  -1    6.08    0.61
   1   2  -1    5.98    0.38
   1   2  -1    5.82    0.58
  -1   2   1    6.78    0.41
  -1   2   1    6.19    0.44
   0  -2   1    2.98    0.47
   0  -2  -1    2.60    0.34
   0  -2  -1    2.87    0.45
   0  -2   1    2.21    0.30
   0  -2   1    2.27    0.32
   0  -2   1    2.00    0.39
   0  -2  -1    1.45    0.29
   0  -2  -1    2.61    0.41
   0  -2   1    1.67    0.43
   0   2   1    2.83    0.46
   0   2   1    2.68    0.44
   0   2   1    2.20    0.35
   0   2  -1    2.89    0.36
   0   2  -1    2.59    0.32
   0   2  -1    3.30    0.48
   0   2   1    2.76    0.37
   0   2  -1    2.85    0.42
   1  -2   1    2.63    0.51
  -1  -2  -1    1.38    0.31
  -1  -2  -1    1.32    0.45
  -1  -2  -1    0.98    0.37
   1  -2   1    2.45    0.52
   1  -2   1    1.29    0.27
  -1  -2  -1    1.33    0.55
   1  -2   1    1.06    0.34
  -1   2  -1    1.23    0.38
   1   2   1    1.25    0.42
   1   2   1    1.11    0.24
  -1   2  -1    1.14    0.47
  -1   2  -1    1.34    0.34
  -1   2  -1    1.42    0.35
   1   2   1    1.05    0.34
   1   2   1    1.00    0.36
   2  -2   1    9.58    0.85
   2  -2   1    9.34    0.69
  -2  -2  -1    8.79    0.54
  -2  -2  -1   10.18    0.83
  -2  -2  -1    9.09    0.83
  -2  -2  -1    8.25    0.95
   2  -2   1    8.55    0.63
   2   2   1   10.16    0.73
  -2   2  -1    8.29    0.57
   2   2   1    8.66    0.64
  -2   2  -1    8.46    0.62
  -2   2  -1   11.45    0.92
   2   2   1    9.48    0.69
   3  -2   1   28.46    1.10
   3  -2   1   27.60    1.22
  -3  -2  -1   27.53    1.09
   3   2   1   27.03    1.13
   3   2   1   27.40    1.12
  -3   2  -1   28.33    1.13
   3   2   1   29.09    1.06
  -4  -2  -1    2.00    0.49
   4  -2   1    1.73    0.57
   4  -2   1    1.71    0.50
   4  -2   1    0.95    0.35
   4   2   1    1.54    0.41
   4   2   1    2.62    0.55
  -4   2  -1    1.81    0.49
   4   2   1    2.30    0.55
   5  -2   1    5.34    0.78
   5  -2   1    6.41    0.93
   5   2   1    4.43    0.71
   5   2   1    6.55    0.78
   6  -2   1    0.80    0.44
   6  -2   1    1.69    0.58
   6   2   1    0.27    0.40
   6   2   1    0.69    0.35
   7  -2   1    0.83    0.54
   7   2   1    2.45    0.74
   7  -3  -1   -0.17    0.19
   7  -3  -1    0.08    0.21
   7   3  -1   -0.20    0.18
   6  -3  -1    0.41    0.22
  -6  -3   1   -0.19    0.54
   6   3  -1    0.05    0.18
   5  -3  -1    1.00    0.31
  -5  -3   1    1.42    0.58
   5   3  -1    2.36    0.87
   5   3  -1    0.98    0.26
  -5   3   1    0.81    0.32
   4  -3  -1    0.58    0.23
  -4  -3   1    0.49    0.47
   4   3  -1    0.08    0.43
   4   3  -1    0.30    0.16
  -4   3   1    0.68    0.28
   3  -3  -1    0.32    0.18
   3  -3  -1    0.47    0.20
   3  -3  -1    0.39    0.21
  -3  -3   1    0.48    0.15
  -3  -3   1    0.22    0.11
  -3  -3   1   -0.04    0.31
  -3   3   1    0.46    0.23
   3   3  -1    0.26    0.15
  -3   3   1    0.07    0.36
   3   3  -1    0.40    0.38
  -3   3   1    0.56    0.17
   3   3  -1    0.17    0.12
  -2  -3   1    0.91    0.25
  -2  -3   1    1.50    0.58
  -2  -3   1    1.00    0.45
   2  -3  -1    0.68    0.29
   2  -3  -1    0.92    0.25
   2  -3  -1    1.50    0.27
   2   3  -1    1.11    0.24
   2   3  -1    0.81    0.24
   2   3  -1    0.67    0.29
   2   3  -1    2.69    0.62
  -2   3   1    0.91    0.31
   2   3  -1    1.35    0.30
  -2   3   1    0.90    0.38
   1  -3  -1    7.16    0.59
   1  -3  -1    6.65    0.47
   1  -3  -1    6.70    0.67
  -1  -3   1    6.25    0.65
  -1  -3   1    5.32    0.50
  -1  -3   1    5.90    0.64
  -1  -3   1    6.59    0.37
  -1  -3   1    9.26    0.79
  -1   3   1    6.47    0.59
   1   3  -1    6.64    0.51
   1   3  -1    5.73    0.61
   1   3  -1    7.10    0.57
   1   3  -1    6.71    0.69
  -1   3   1    6.06    0.35
  -1   3   1    5.77    0.40
  -1   3   1    6.62    0.71
   0  -3  -1    4.53    0.55
   0  -3  -1    4.36    0.34
   0  -3   1    3.44    0.39
   0  -3  -1    4.47    0.49
   0  -3   1    4.78    0.60
   0  -3   1    4.28    0.55
   0  -3   1    3.70    0.54
   0  -3  -1    4.51    0.50
   0  -3   1    3.99    0.41
   0  -3  -1    4.23    0.53
   0   3   1    5.83    0.52
   0   3   1    4.28    0.31
   0   3  -1    4.87    0.56
   0   3  -1    4.07    0.46
   0   3  -1    3.41    0.39
   0   3   1    5.15    0.51
   0   3   1    5.72    0.63
   0   3   1    4.34    0.51
   0   3  -1    4.76    0.56
  -1  -3  -1    0.00    0.34
  -1  -3  -1    0.08    0.25
   1  -3   1    0.08    0.20
  -1  -3  -1   -0.31    0.40
   1  -3   1    0.43    0.35
   1  -3   1   -0.14    0.47
   1  -3   1    0.32    0.37
  -1  -3  -1   -0.14    0.38
   1   3   1    0.16    0.17
   1   3   1   -0.33    0.27
   1   3   1   -0.31    0.32
  -1   3  -1    0.08    0.39
  -1   3  -1   -0.11    0.25
  -1   3  -1    0.06    0.37
   1   3   1    0.06    0.37
  -1   3  -1   -0.15    0.23
   1   3   1    0.15    0.32
  -2  -3  -1    0.90    0.42
   2  -3   1    0.81    0.32
   2  -3   1    1.02    0.42
  -2  -3  -1    0.55    0.27
  -2  -3  -1    0.66    0.37
   2  -3   1    0.70    0.45
  -2  -3  -1    0.47    0.33
   2   3   1    0.47    0.33
   2   3   1    0.41    0.41
   2   3   1    0.30    0.30
  -2   3  -1    0.67    0.44
  -2   3  -1    0.51    0.26
   2   3   1    1.43    0.39
  -2   3  -1    0.94    0.39
   3  -3   1    1.17    0.35
   3  -3   1    2.10    0.50
   3  -3   1    0.09    0.20
  -3  -3  -1    1.41    0.40
  -3   3  -1    1.57    0.45
   3   3   1    0.55    0.38
   3   3   1    0.33    0.30
   3   3   1    0.81    0.32
  -4  -3  -1    1.17    0.48
   4  -3   1    0.83    0.56
   4  -3   1    1.41    0.46
   4  -3   1    1.15    0.41
   4   3   1    0.82    0.37
   4   3   1    1.27    0.46
  -4   3  -1    0.95    0.43
   4   3   1    2.34    0.54
   5  -3   1   -0.18    0.47
   5  -3   1    0.14    0.35
   5   3   1   -0.16    0.28
   5   3   1    0.50    0.41
   6  -3   1    0.20    0.45
   6  -3   1    0.09    0.34
   6   3   1   -0.20    0.36
   6   3   1    0.08    0.37
   7  -3   1    0.25    0.43
   7   3   1   -0.38    0.43
   7  -4  -1    0.40    0.31
   7  -4  -1    0.44    0.34
   7   4  -1    0.11    0.25
  -6  -4   1    1.44    0.73
   6  -4  -1    2.12    0.40
   6   4  -1    2.62    0.42
   5  -4  -1    5.53    0.65
  -5  -4   1    4.26    0.94
  -5   4   1    4.60    0.50
   5   4  -1    4.50    1.12
   5   4  -1    4.32    0.50
   4  -4  -1    0.07    0.20
   4  -4  -1   -0.21    0.15
   4  -4  -1    0.08    0.19
  -4  -4   1    0.37    0.46
   4   4  -1   -0.20    0.14
  -4   4   1   -0.13    0.16
   4   4  -1   -0.46    0.37
  -3  -4   1    1.03    0.49
  -3  -4   1    0.96    0.27
   3  -4  -1    0.95    0.29
   3  -4  -1    0.97    0.31
   3  -4  -1    1.48    0.33
  -3  -4   1    1.13    0.23
   3   4  -1    1.21    0.26
  -3   4   1    1.73    0.39
   3   4  -1    1.00    0.53
  -3   4   1    1.57    0.38
   3   4  -1    1.21    0.25
  -3   4   1    1.22    0.16
   3   4  -1    1.24    0.30
  -3   4   1    0.79    0.36
   3   4  -1    1.22    0.26
   2  -4  -1    4.74    0.56
   2  -4  -1    4.84    0.55
  -2  -4   1    5.66    0.80
   2  -4  -1    3.94    0.44
  -2  -4   1    3.48    0.67
  -2  -4   1    5.02    0.58
  -2  -4   1    4.30    0.47
   2   4  -1    3.68    0.38
   2   4  -1    5.48    0.55
  -2   4   1    4.71    0.59
   2   4  -1    7.15    0.76
  -2   4   1    4.90    0.56
   2   4  -1    4.58    0.46
  -2   4   1    4.82    0.69
   2   4  -1    3.95    0.64
  -1  -4   1    4.49    0.61
  -1  -4   1    4.50    0.43
  -1  -4   1    4.73    0.59
   1  -4  -1    4.20    0.57
   1  -4  -1    4.94    0.50
  -1  -4   1    3.63    0.72
  -1  -4   1    4.57    0.63
   1  -4  -1    5.50    0.77
   1   4  -1    5.22    0.72
   1   4  -1    5.26    0.61
   1   4  -1    4.71    0.27
  -1   4   1    4.14    0.66
   1   4  -1    5.27    0.65
   1   4  -1    4.27    0.24
   1   4  -1    5.07    0.61
  -1   4   1    3.68    0.44
   1   4  -1    5.58    0.53
   0  -4  -1    3.48    0.56
   0  -4   1    2.21    0.46
   0  -4   1    2.07    0.50
   0  -4   1    1.72    0.39
   0  -4  -1    2.86    0.34
   0  -4   1    2.79    0.72
   0  -4  -1    2.16    0.45
   0  -4  -1    2.13    0.48
   0  -4   1    2.33    0.43
   0   4   1    1.76    0.40
   0   4  -1    2.45    0.42
   0   4   1    2.76    0.61
   0   4   1    2.77    0.33
   0   4   1    2.95    0.54
   0   4  -1    2.06    0.57
   0   4   1    2.90    0.47
   0   4  -1    2.56    0.57
   0   4  -1    3.06    0.43
   0   4  -1    2.05    0.42
   1  -4   1    8.20    0.67
  -1  -4  -1    7.85    0.76
   1  -4   1    8.65    0.59
   1  -4   1    8.19    0.70
   1  -4   1    8.98    0.81
  -1  -4  -1    8.59    0.80
   1  -4   1    8.72    0.87
  -1  -4  -1    8.07    0.79
  -1  -4  -1    8.41    0.66
   1   4   1    8.38    0.61
   1   4   1    8.23    0.76
   1   4   1    9.54    0.89
   1   4   1    8.04    0.75
   1   4   1    7.31    0.54
  -1   4  -1    7.74    0.65
  -1   4  -1    8.78    0.91
  -1   4  -1    8.97    0.75
  -1   4  -1    8.24    0.77
   1   4   1    9.64    0.82
   2  -4   1    4.73    0.62
   2  -4   1    4.48    0.75
   2  -4   1    5.34    0.64
  -2  -4  -1    4.96    0.66
  -2  -4  -1    5.88    0.69
  -2  -4  -1    3.87    0.72
  -2  -4  -1    4.83    0.50
  -2   4  -1    4.29    0.53
  -2   4  -1    5.74    0.72
  -2   4  -1    4.98    0.65
  -2   4  -1    6.57    0.63
   2   4   1    4.11    0.77
   2   4   1    4.52    0.61
   2   4   1    5.50    0.69
   2   4   1    4.85    0.60
   3  -4   1   -0.21    0.27
   3  -4   1   -0.31    0.38
   3  -4   1   -0.10    0.23
  -3  -4  -1   -0.03    0.29
   3   4   1    0.35    0.43
  -3   4  -1   -0.08    0.28
   3   4   1   -0.12    0.25
   3   4   1    0.38    0.34
   3   4   1    0.04    0.19
  -3   4  -1   -0.33    0.25
  -4  -4  -1    4.08    0.69
   4  -4   1    3.92    0.67
   4  -4   1    3.63    0.57
   4  -4   1    3.15    0.77
  -4   4  -1    3.97    0.73
   4   4   1    2.91    0.61
   4   4   1    4.01    0.67
   4   4   1    2.98    0.62
   5  -4   1    6.50    0.82
   5  -4   1    7.35    1.16
   5   4   1    7.18    0.80
   5   4   1    6.41    0.84
   6  -4   1    0.12    0.63
   6  -4   1    0.89    0.46
   6   4   1    0.62    0.35
   6   4   1   -0.42    0.34
   7  -4   1    0.22    0.41
   7   4   1    0.37    0.44
   7  -5  -1   -0.03    0.29
   7  -5  -1   -0.07    0.28
   7   5  -1   -0.20    0.25
   6  -5  -1    1.06    0.42
  -6  -5   1    0.65    0.67
   6   5  -1    0.82    0.29
   5  -5  -1    0.51    0.31
  -5  -5   1   -0.32    0.45
   5   5  -1   -0.25    0.57
   5   5  -1   -0.21    0.17
  -4  -5   1    0.68    0.50
  -4  -5   1   -0.08    0.18
   4  -5  -1   -0.26    0.17
   4  -5  -1   -0.08    0.23
   4  -5  -1    0.19    0.23
   4   5  -1   -0.06    0.10
   4   5  -1    0.09    0.18
   4   5  -1    0.22    0.51
   3  -5  -1    2.38    0.48
   3  -5  -1    2.79    0.42
  -3  -5   1    2.41    0.40
  -3  -5   1    1.96    0.57
   3  -5  -1    1.77    0.41
   3   5  -1    2.94    0.51
  -3   5   1    2.53    0.49
  -3   5   1    2.45    0.55
   3   5  -1    2.44    0.35
   3   5  -1    2.37    0.36
   3   5  -1    2.53    0.38
   3   5  -1    2.19    0.66
  -2  -5   1    0.02    0.11
   2  -5  -1    0.03    0.27
   2  -5  -1   -0.01    0.31
   2  -5  -1   -0.15    0.16
  -2  -5   1    0.41    0.48
  -2  -5   1   -0.17    0.49
   2  -5  -1   -0.15    0.26
  -2  -5   1    0.02    0.12
  -2  -5   1    0.00    0.32
  -2  -5   1    0.06    0.28
  -2   5   1    0.26    0.27
   2   5  -1    0.36    0.28
   2   5  -1    0.23    0.23
   2   5  -1    0.00    0.37
   2   5  -1    0.14    0.30
  -2   5   1   -0.16    0.28
  -2   5   1    0.05    0.43
   2   5  -1   -0.26    0.26
   1  -5  -1   12.33    0.91
  -1  -5   1   11.86    0.64
   1  -5  -1   11.45    0.73
  -1  -5   1   12.46    1.14
  -1  -5   1   11.24    0.80
  -1  -5   1   12.71    0.93
   1  -5  -1   11.30    0.93
   1   5  -1   12.31    1.07
  -1   5   1   13.04    1.14
   1   5  -1   13.64    0.87
   1   5  -1   12.32    0.54
   1   5  -1   12.43    0.63
   1   5  -1   11.59    0.94
   1   5  -1   11.55    0.72
  -1   5   1   11.54    0.83
   1   5  -1   12.02    0.52
  -1   5   1   11.01    0.66
   0  -5   1    5.68    0.60
   0  -5  -1    8.29    0.55
   0  -5  -1    7.58    0.74
   0  -5   1    8.13    0.93
   0  -5  -1    7.80    0.93
   0  -5  -1    7.79    0.71
   0  -5   1    7.36    0.77
   0  -5   1    7.17    0.80
   0  -5   1    8.61    0.81
   0   5  -1    6.89    0.73
   0   5   1    7.28    0.72
   0   5   1    9.79    0.88
   0   5   1    8.59    0.95
   0   5  -1    8.63    0.94
   0   5   1    7.80    0.54
   0   5  -1    6.58    0.66
   0   5  -1    7.39    0.67
   0   5  -1    7.24    0.62
   0   5   1    8.08    0.68
   1  -5   1    2.17    0.44
  -1  -5  -1    1.83    0.53
   1  -5   1    1.60    0.46
   1  -5   1    2.30    0.67
   1  -5   1    2.17    0.63
  -1  -5  -1    1.99    0.59
  -1  -5  -1    2.13    0.42
   1  -5   1    2.67    0.48
   1   5   1    2.60    0.39
  -1   5  -1    1.90    0.63
   1   5   1    1.71    0.38
  -1   5  -1    2.14    0.37
  -1   5  -1    1.26    0.51
   1   5   1    2.34    0.51
   1   5   1    2.12    0.57
   1   5   1    1.96    0.43
  -1   5  -1    2.01    0.52
   1   5   1    2.32    0.48
   2  -5   1    1.05    0.58
  -2  -5  -1    1.43    0.33
  -2  -5  -1    1.02    0.38
   2  -5   1    1.54    0.43
   2  -5   1    1.68    0.47
  -2  -5  -1    1.45    0.53
  -2  -5  -1    1.59    0.46
  -2   5  -1    1.26    0.40
  -2   5  -1    1.05    0.33
   2   5   1    0.78    0.37
   2   5   1    1.71    0.57
   2   5   1    1.73    0.49
   2   5   1    0.33    0.37
  -2   5  -1    0.98    0.47
   3  -5   1    0.89    0.38
   3  -5   1    0.73    0.35
   3  -5   1    0.29    0.45
  -3  -5  -1    0.12    0.35
   3   5   1    1.48    0.47
  -3   5  -1    0.78    0.45
   3   5   1    1.03    0.41
   3   5   1    0.22    0.47
  -3   5  -1    0.04    0.23
   3   5   1    0.07    0.27
   4  -5   1    0.89    0.45
   4  -5   1    0.51    0.45
   4  -5   1    1.15    0.40
  -4  -5  -1    0.52    0.41
  -4   5  -1    1.00    0.40
   4   5   1    1.59    0.55
  -4   5  -1    1.21    0.50
   4   5   1    0.42    0.41
   4   5   1    0.81    0.44
   5  -5   1    1.72    0.56
   5  -5   1    0.62    0.59
   5   5   1    0.84    0.46
   5   5   1    1.58    0.54
   6  -5   1   -0.11    0.64
   6  -5   1   -0.62    0.30
   6   5   1    0.20    0.47
   6   5   1    0.05    0.33
   7  -5   1    1.07    0.51
   7   5   1    0.01    0.48
   7  -6  -1    0.81    0.40
   7  -6  -1    0.76    0.42
   7   6  -1    0.94    0.38
   6  -6  -1   -0.13    0.25
  -6  -6   1    0.12    0.71
   6  -6  -1    0.59    0.36
   6   6  -1    0.20    0.27
   6   6  -1   -0.47    0.65
  -5  -6   1   -0.06    0.49
   5  -6  -1    0.03    0.25
   5  -6  -1   -0.11    0.19
   5  -6  -1   -0.37    0.26
   5   6  -1   -0.19    0.58
   5   6  -1   -0.23    0.19
   4  -6  -1    4.72    0.62
  -4  -6   1    6.32    1.07
  -4  -6   1    7.22    0.66
   4  -6  -1    6.63    0.67
   4  -6  -1    4.97    0.63
   4   6  -1    4.73    1.01
   4   6  -1    4.74    0.56
  -4   6   1    8.54    0.89
   4   6  -1    5.63    0.60
   4   6  -1    7.11    0.66
   4   6  -1    5.70    0.49
   3  -6  -1   -0.32    0.30
  -3  -6   1    0.27    0.29
   3  -6  -1   -0.39    0.32
  -3  -6   1   -0.94    0.32
   3  -6  -1   -0.04    0.21
   3  -6  -1   -0.10    0.25
  -3   6   1    0.06    0.31
   3   6  -1    0.29    0.28
   3   6  -1   -0.07    0.20
   3   6  -1    0.41    0.43
  -3   6   1    0.13    0.34
   3   6  -1    0.16    0.33
   3   6  -1    0.10    0.20
  -2  -6   1    6.96    0.57
  -2  -6   1    9.32    1.10
   2  -6  -1    7.92    0.82
  -2  -6   1    8.04    0.86
  -2  -6   1    8.42    0.77
   2  -6  -1    9.16    0.85
   2  -6  -1    7.67    0.74
   2  -6  -1    7.82    0.92
  -2  -6   1    7.56    0.51
  -2   6   1    6.84    0.91
   2   6  -1   10.62    1.16
   2   6  -1    6.52    0.75
   2   6  -1    6.90    0.66
  -2   6   1    7.06    0.82
   2   6  -1    6.93    0.63
   1  -6  -1   20.65    0.98
  -1  -6   1   19.99    1.36
   1  -6  -1   20.80    1.18
   1  -6  -1   21.26    1.21
  -1  -6   1   20.97    1.12
   1  -6  -1   20.54    0.96
  -1  -6   1   19.73    0.96
  -1  -6   1   20.16    1.17
  -1   6   1   19.77    1.33
   1   6  -1   22.14    1.07
   1   6  -1   20.22    0.82
  -1   6   1   20.38    1.12
  -1   6   1   21.24    0.90
   1   6  -1   20.58    1.21
   1   6  -1   20.84    0.89
   1   6  -1   22.61    0.81
   1   6  -1   19.66    1.04
   1   6  -1   20.91    1.26
   0  -6  -1    8.62    0.86
   0  -6  -1    7.66    0.77
   0  -6   1    5.24    0.91
   0  -6   1    8.33    0.75
   0  -6  -1    8.16    0.95
   0  -6   1    6.82    0.74
   0  -6  -1    8.91    0.63
   0  -6   1    9.30    0.90
   0  -6   1    8.19    0.90
   0   6  -1    7.64    0.72
   0   6  -1    7.22    0.77
   0   6  -1    7.14    0.71
   0   6   1    8.00    0.60
   0   6   1    7.76    0.73
   0   6   1    7.66    0.75
   0   6  -1    5.97    0.66
   0   6  -1    8.71    1.16
   0   6   1    8.50    1.16
  -1  -6  -1   28.98    1.28
   1  -6   1   29.85    1.32
   1  -6   1   26.86    1.47
  -1  -6  -1   28.79    1.11
  -1  -6  -1   28.41    1.19
  -1  -6  -1   27.22    1.37
   1  -6   1   28.99    1.10
   1  -6   1   27.35    1.16
  -1  -6  -1   30.58    1.22
   1  -6   1   29.10    1.16
  -1   6  -1   28.88    1.22
   1   6   1   27.86    1.42
   1   6   1   29.21    1.17
   1   6   1   28.98    1.18
   1   6   1   28.35    1.05
   1   6   1   28.07    1.10
  -1   6  -1   29.31    0.99
  -1   6  -1   28.66    1.29
  -1   6  -1   28.39    1.39
   1   6   1   29.20    1.33
   2  -6   1    0.34    0.46
   2  -6   1    0.04    0.30
  -2  -6  -1    0.02    0.35
   2  -6   1    0.23    0.37
  -2  -6  -1   -0.04    0.21
   2   6   1   -0.40    0.30
  -2   6  -1    0.37    0.35
   2   6   1    0.51    0.36
  -2   6  -1    0.27    0.27
   2   6   1    0.30    0.29
  -2   6  -1    0.27    0.26
   2   6   1    0.19    0.24
   2   6   1   -0.73    0.40
   2   6   1    0.53    0.31
   3  -6   1    8.55    0.93
  -3  -6  -1    9.76    1.00
   3  -6   1    9.29    1.03
   3  -6   1    6.13    0.98
  -3   6  -1    7.38    0.74
   3   6   1    8.62    0.95
   3   6   1    7.63    0.87
   3   6   1    6.74    0.83
   3   6   1    7.24    1.08
  -3   6  -1    8.56    1.01
   4  -6   1    0.06    0.50
   4  -6   1   -0.10    0.30
  -4  -6  -1    0.00    0.39
   4  -6   1    0.02    0.31
  -4   6  -1    0.39    0.35
   4   6   1    1.16    0.58
   4   6   1    0.12    0.40
   4   6   1   -0.46    0.39
  -4   6  -1    0.11    0.40
   4   6   1   -0.08    0.30
   5  -6   1    0.05    0.58
   5  -6   1    0.00    0.30
   5   6   1   -0.40    0.32
   5   6   1    0.00    0.39
   6  -6   1    1.55    0.60
   6  -6   1    1.38    0.78
   6   6   1    2.63    0.53
   6   6   1    1.24    0.48
   7  -6   1   -0.11    0.44
   7   6   1   -0.07    0.40
   7  -7  -1   -0.21    0.42
   7  -7  -1   -0.44    0.30
   7   7  -1    0.12    0.34
   6  -7  -1    0.36    0.34
   6  -7  -1    0.09    0.39
  -6  -7   1    0.94    0.71
   6   7  -1    0.50    0.29
   6   7  -1    0.84    0.99
   5  -7  -1   -0.29    0.26
  -5  -7   1    0.27    0.65
   5  -7  -1   -0.29    0.22
   5  -7  -1    0.12    0.29
   5   7  -1   -0.10    0.22
   5   7  -1   -0.67    0.54
   4  -7  -1    0.77    0.42
  -4  -7   1    0.69    0.37
  -4  -7   1    0.34    0.46
   4  -7  -1    0.70    0.42
   4  -7  -1    0.72    0.35
   4  -7  -1    0.44    0.30
   4   7  -1    0.04    0.42
   4   7  -1    0.80    0.54
   4   7  -1    0.46    0.30
   4   7  -1    0.32    0.25
   4   7  -1    0.68    0.33
  -4   7   1    0.53    0.41
   3  -7  -1   12.31    0.87
  -3  -7   1   11.86    0.82
  -3  -7   1   12.54    1.36
   3  -7  -1   13.15    0.85
   3  -7  -1   10.49    1.13
  -3   7   1   14.01    0.86
   3   7  -1   14.79    1.21
   3   7  -1   13.38    1.42
  -3   7   1   11.82    1.07
   3   7  -1   12.57    0.78
   3   7  -1   13.56    0.79
   2  -7  -1    2.40    0.68
   2  -7  -1    2.55    0.57
   2  -7  -1    2.39    0.49
  -2  -7   1    3.32    0.53
  -2  -7   1    2.13    0.41
  -2  -7   1    2.43    0.63
  -2  -7   1    2.06    0.67
   2  -7  -1    1.78    0.46
   2  -7  -1    2.82    0.17
   2   7  -1    4.27    0.78
  -2   7   1    3.20    0.64
   2   7  -1    1.88    0.58
   2   7  -1    2.67    0.49
   2   7  -1    3.01    0.63
   2   7  -1    2.48    0.45
   1  -7  -1    0.51    0.47
  -1  -7   1    1.31    0.46
   1  -7  -1    0.93    0.39
  -1  -7   1    0.01    0.46
   1  -7  -1    0.31    0.61
   1  -7  -1    0.09    0.35
  -1  -7   1    1.02    0.67
  -1  -7   1    1.03    0.58
  -1   7   1    0.51    0.69
  -1   7   1    0.60    0.39
   1   7  -1    0.33    0.36
   1   7  -1    0.32    0.38
   1   7  -1    0.63    0.44
  -1   7   1    0.25    0.27
   1   7  -1    0.31    0.21
   1   7  -1    0.79    0.30
   1   7  -1   -0.14    0.36
   1   7  -1    0.44    0.56
   0  -7   1    0.70    0.65
   0  -7   1   -0.93    0.49
   0  -7  -1    0.53    0.39
   0  -7   1    0.88    0.35
   0  -7  -1    1.62    0.53
   0  -7  -1    0.29    0.32
   0  -7   1    0.46    0.36
   0  -7   1    0.26    0.45
   0  -7  -1    1.67    0.72
   0  -7   1    0.63    0.35
   0   7   1    0.60    0.36
   0   7   1    0.62    0.37
   0   7   1   -0.21    0.23
   0   7  -1    0.33    0.72
   0   7  -1    0.24    0.30
   0   7  -1    0.62    0.39
   0   7   1    0.79    0.64
   0   7   1    0.39    0.48
   0   7  -1    0.50    0.48
   0   7  -1    0.61    0.37
  -1  -7  -1    8.96    0.90
  -1  -7  -1    7.84    0.75
   1  -7   1    8.81    0.85
  -1  -7  -1    8.49    0.96
   1  -7   1    8.07    0.95
   1  -7   1    7.59    0.76
   1  -7   1    5.83    0.93
  -1  -7  -1    6.25    0.93
   1  -7   1    7.93    0.84
  -1  -7  -1    7.76    0.81
   1   7   1    9.54    0.78
  -1   7  -1    7.24    0.95
  -1   7  -1    9.89    1.18
  -1   7  -1    8.04    0.59
   1   7   1    8.74    1.14
   1   7   1    8.93    0.85
  -1   7  -1    7.14    0.77
   1   7   1    8.85    0.93
   1   7   1    6.93    0.74
   1   7   1    7.97    0.85
   2  -7   1   16.18    1.54
   2  -7   1   14.72    1.31
  -2  -7  -1   14.54    1.04
  -2  -7  -1   14.60    0.91
   2  -7   1   13.62    0.95
   2   7   1   14.49    0.67
   2   7   1   16.17    1.47
   2   7   1   15.35    0.97
  -2   7  -1   14.95    0.81
   2   7   1   13.58    0.63
   2   7   1   13.87    1.26
   2   7   1   13.84    1.00
  -2   7  -1   14.91    0.97
  -2   7  -1   13.55    1.26
   3  -7   1    7.70    0.93
   3  -7   1    6.37    1.04
  -3  -7  -1    9.05    1.02
   3  -7   1    7.13    0.87
   3   7   1    8.06    1.19
  -3   7  -1    8.02    1.05
   3   7   1    8.79    1.13
  -3   7  -1    7.50    0.74
   3   7   1    7.61    0.91
   3   7   1    6.88    0.81
  -4  -7  -1    0.39    0.43
   4  -7   1   -0.24    0.30
   4  -7   1    0.59    0.63
   4  -7   1   -0.23    0.44
   4   7   1    0.98    0.58
   4   7   1    0.03    0.26
   4   7   1   -0.64    0.38
  -4   7  -1   -0.14    0.38
   4   7   1    0.27    0.39
  -4   7  -1    0.14    0.31
   5  -7   1    0.05    0.38
   5  -7   1    1.66    0.76
   5   7   1    0.06    0.30
   5   7   1    0.08    0.36
   6  -7   1   -0.03    0.32
   6  -7   1    0.62    0.79
   6   7   1    0.12    0.41
   6   7   1    0.39    0.44
   7  -7   1    0.33    0.48
   7   7   1    0.30    0.46
   7  -8  -1    0.20    0.44
   7  -8  -1    0.30    0.39
   7   8  -1    0.64    0.40
   6  -8  -1    1.55    0.53
  -6  -8   1    0.72    0.71
   6  -8  -1    0.88    0.48
   6   8  -1    1.12    0.45
   6   8  -1    1.90    0.98
   5  -8  -1    0.69    0.41
   5  -8  -1    0.56    0.37
   5  -8  -1    0.73    0.39
  -5  -8   1    0.36    0.63
   5   8  -1    0.99    0.79
   5   8  -1    0.28    0.20
   5   8  -1    0.89    0.38
   4  -8  -1    2.96    0.63
   4  -8  -1    2.42    0.53
   4  -8  -1    2.82    0.59
   4  -8  -1    1.78    0.59
  -4  -8   1    2.99    0.86
  -4  -8   1    2.38    0.56
   4   8  -1    3.26    0.87
   4   8  -1    2.09    0.46
  -4   8   1    2.56    0.64
   4   8  -1    4.05    0.72
   4   8  -1    2.39    0.50
   4   8  -1    1.39    0.41
   3  -8  -1    3.85    0.62
   3  -8  -1    5.83    0.82
   3  -8  -1    4.55    0.70
  -3  -8   1    4.73    0.93
   3  -8  -1    5.79    1.00
  -3  -8   1    6.52    0.82
  -3   8   1    5.47    0.82
   3   8  -1    5.18    0.68
   3   8  -1    5.72    0.70
  -3   8   1    5.49    0.73
   3   8  -1    6.55    0.96
   3   8  -1    4.89    0.90
  -2  -8   1    0.22    0.24
   2  -8  -1    0.37    0.16
   2  -8  -1    0.26    0.55
   2  -8  -1    0.74    0.38
   2  -8  -1    0.44    0.32
  -2  -8   1    0.00    0.44
   2  -8  -1   -0.15    0.43
  -2  -8   1    0.65    0.55
   2   8  -1    0.42    0.32
   2   8  -1    1.10    0.48
   2   8  -1   -0.27    0.40
   2   8  -1   -0.05    0.39
  -2   8   1    1.44    0.55
   2   8  -1    0.02    0.28
  -1  -8   1   29.42    1.42
   1  -8  -1   29.87    1.13
  -1  -8   1   29.77    1.21
   1  -8  -1   30.74    1.30
   1  -8  -1   28.90    1.30
  -1  -8   1   29.59    1.28
   1  -8  -1   30.08    1.58
  -1  -8   1   32.80    1.76
   1  -8  -1   29.78    1.56
  -1  -8   1   30.02    1.46
  -1   8   1   31.09    1.51
   1   8  -1   29.81    1.51
   1   8  -1   31.75    1.19
  -1   8   1   28.64    1.83
   1   8  -1   27.98    1.33
   1   8  -1   31.11    1.24
  -1   8   1   29.97    1.20
   1   8  -1   29.77    1.25
   1   8  -1   27.44    1.40
   1   8  -1   29.56    1.55
   0  -8   1   41.02    1.56
   0  -8  -1   41.07    1.52
   0  -8   1   47.13    1.55
   0  -8   1   40.73    1.46
   0  -8   1   43.14    2.03
   0  -8  -1   43.98    1.51
   0  -8   1   41.43    1.66
   0  -8  -1   41.26    1.82
   0  -8   1   42.91    1.63
   0  -8  -1   42.16    1.76
   0   8   1   43.89    1.23
   0   8  -1   42.59    1.93
   0   8   1   41.75    1.52
   0   8  -1   43.74    1.50
   0   8  -1   43.64    1.61
   0   8   1   44.38    2.02
   0   8   1   42.52    1.70
   0   8   1   41.77    1.60
   0   8  -1   41.97    1.75
   0   8   1   42.85    1.64
   0   8  -1   42.76    1.44
  -1  -8  -1    3.25    0.77
   1  -8   1    3.36    0.62
   1  -8   1    4.64    0.83
   1  -8   1    3.01    0.57
  -1  -8  -1    2.05    0.49
  -1  -8  -1    2.92    0.55
  -1  -8  -1    3.09    0.66
   1  -8   1    2.96    0.57
   1  -8   1    3.59    1.01
  -1  -8  -1    2.96    0.63
   1   8   1    3.43    0.57
   1   8   1    3.51    0.57
   1   8   1    3.43    0.74
   1   8   1    2.51    0.55
  -1   8  -1    5.44    0.86
   1   8   1    3.14    0.59
  -1   8  -1    3.80    0.57
   1   8   1    4.26    0.87
  -1   8  -1    3.26    0.80
  -1   8  -1    2.87    0.56
  -2  -8  -1    1.70    0.51
  -2  -8  -1    1.13    0.37
   2  -8   1    1.37    0.39
   2  -8   1    1.58    0.57
   2  -8   1    1.47    0.70
   2  -8   1    1.18    0.46
   2   8   1    1.60    0.52
   2   8   1    0.90    0.25
   2   8   1    1.10    0.46
   2   8   1    2.35    0.52
  -2   8  -1    2.16    0.44
   2   8   1    1.58    0.35
   2   8   1    2.86    0.76
  -2   8  -1    1.83    0.58
  -2   8  -1    1.55    0.44
  -3  -8  -1    7.06    0.98
   3  -8   1    6.94    1.32
   3  -8   1    9.13    1.06
   3  -8   1    7.96    0.95
   3   8   1    5.22    0.78
   3   8   1    8.55    1.16
  -3   8  -1    4.67    0.87
  -3   8  -1    7.57    0.80
   3   8   1    6.34    1.13
   3   8   1    7.86    0.98
   4  -8   1    1.10    0.50
   4  -8   1    0.63    0.62
  -4  -8  -1   -0.09    0.42
   4   8   1    2.00    0.87
   4   8   1    0.66    0.43
  -4   8  -1    1.01    0.39
   4   8   1    0.70    0.48
  -4   8  -1    0.84    0.53
   5  -8   1    1.06    0.92
   5  -8   1    2.28    0.64
   5   8   1    1.32    0.58
   5   8   1    1.85    0.59
   6  -8   1    0.88    0.89
   6  -8   1    0.88    0.59
   6   8   1    0.64    0.50
   6   8   1    0.58    0.43
   7  -8   1    1.97    0.73
   7   8   1    0.76    0.50
   7  -9  -1   -0.29    0.40
   7  -9  -1   -0.46    0.37
   7   9  -1    1.00    0.50
   6  -9  -1    0.46    0.41
   6  -9  -1    0.38    0.40
  -6  -9   1    0.03    0.77
   6   9  -1    0.65    0.90
   6   9  -1   -0.07    0.30
   5  -9  -1    3.71    0.65
  -5  -9   1    5.22    1.28
   5  -9  -1    3.44    0.69
   5  -9  -1    2.90    0.62
   5   9  -1    3.82    0.53
   5   9  -1    5.04    0.76
   5   9  -1    4.56    1.34
   4  -9  -1    0.80    0.41
   4  -9  -1    0.37    0.33
   4  -9  -1    0.68    0.53
  -4  -9   1    0.45    0.46
   4  -9  -1    0.05    0.48
  -4  -9   1    0.38    0.50
  -4   9   1    0.12    0.43
   4   9  -1    0.59    0.36
   4   9  -1    1.14    0.61
   4   9  -1   -0.02    0.36
   4   9  -1    0.41    0.62
   4   9  -1    0.67    0.42
  -3  -9   1    0.50    0.56
   3  -9  -1    0.41    0.42
  -3  -9   1    0.04    0.43
   3  -9  -1    0.48    0.33
   3  -9  -1    0.92    0.42
   3  -9  -1   -0.59    0.45
   3   9  -1    0.99    0.43
  -3   9   1    1.56    0.54
   3   9  -1   -0.25    0.36
   3   9  -1    0.26    0.45
   3   9  -1    0.55    0.33
   3   9  -1    0.44    0.43
  -2  -9   1   13.39    0.93
   2  -9  -1   15.14    1.36
   2  -9  -1   12.47    0.88
   2  -9  -1   12.51    0.93
  -2  -9   1   11.42    1.30
   2  -9  -1    9.25    1.20
  -2  -9   1   11.68    1.33
   2  -9  -1   13.17    0.53
   2   9  -1   12.85    1.22
   2   9  -1   12.26    0.86
   2   9  -1   14.50    1.39
   2   9  -1   14.06    1.46
   2   9  -1   13.15    0.97
  -2   9   1   10.97    1.18
  -1  -9   1    6.55    0.75
   1  -9  -1    6.88    0.82
   1  -9  -1    5.38    0.95
  -1  -9   1    5.51    1.15
   1  -9  -1    7.61    0.85
  -1  -9   1    6.09    0.95
   1  -9  -1    6.92    0.73
  -1  -9   1    5.74    0.77
   1  -9  -1    8.08    1.04
   1   9  -1    5.34    0.76
  -1   9   1    7.04    1.02
   1   9  -1    6.62    0.91
   1   9  -1    6.66    0.80
   1   9  -1    6.63    1.09
   1   9  -1    6.10    0.75
   1   9  -1    5.85    0.86
  -1   9   1    7.12    0.79
   0  -9  -1    4.80    0.90
   0  -9   1    3.13    0.58
   0  -9  -1    5.04    0.76
   0  -9   1    3.37    0.66
   0  -9   1    3.26    0.74
   0  -9   1    3.19    0.61
   0  -9   1    2.71    0.59
   0  -9  -1    6.03    1.16
   0  -9  -1    4.52    0.71
   0  -9   1    5.16    1.09
   0   9   1    3.24    0.61
   0   9   1    5.12    0.92
   0   9   1    3.28    0.50
   0   9  -1    3.97    0.63
   0   9   1    4.81    0.78
   0   9  -1    4.31    0.68
   0   9  -1    3.53    0.69
   0   9   1    3.03    0.62
   0   9  -1    5.31    1.04
   0   9  -1    1.30    0.55
   0   9   1    3.81    0.88
   1  -9   1   18.07    1.09
  -1  -9  -1   16.70    1.45
   1  -9   1   17.16    1.38
   1  -9   1   14.77    1.62
   1  -9   1   19.10    1.20
   1  -9   1   19.90    1.16
  -1  -9  -1   18.58    1.08
  -1  -9  -1   17.58    0.99
  -1  -9  -1   18.38    1.18
  -1   9  -1   18.48    0.98
   1   9   1   17.55    1.01
   1   9   1   19.29    1.07
  -1   9  -1   23.10    1.53
  -1   9  -1   16.06    1.18
   1   9   1   19.97    1.33
   1   9   1   15.93    1.12
   1   9   1   17.48    1.12
   1   9   1   16.78    1.56
  -2  -9  -1    5.05    0.86
   2  -9   1    6.74    0.92
   2  -9   1    6.44    1.18
   2  -9   1    4.84    0.63
  -2  -9  -1    5.34    0.81
   2  -9   1    6.38    0.94
   2   9   1    6.18    0.66
   2   9   1    6.32    1.04
   2   9   1    6.57    0.96
   2   9   1    6.28    0.95
  -2   9  -1    5.78    0.98
  -2   9  -1    6.43    0.67
  -2   9  -1    5.69    0.77
   2   9   1    5.75    0.60
   2   9   1    5.57    0.77
   3  -9   1    0.49    0.48
   3  -9   1   -0.13    0.64
  -3  -9  -1   -0.07    0.41
   3  -9   1   -0.05    0.33
   3   9   1    0.36    0.48
  -3   9  -1    0.25    0.49
  -3   9  -1    0.25    0.31
   3   9   1    0.49    0.59
   3   9   1   -0.23    0.51
   3   9   1   -0.21    0.23
  -4  -9  -1    6.70    0.92
   4  -9   1    5.96    0.96
   4  -9   1    7.09    1.28
   4   9   1    7.68    0.96
   4   9   1    5.58    1.31
   4   9   1    5.58    0.86
  -4   9  -1    9.94    0.98
  -4   9  -1    7.86    1.12
   5  -9   1   -0.31    0.73
   5  -9   1    1.01    0.54
   5   9   1    0.77    0.85
   5   9   1    0.00    0.45
   5   9   1    0.11    0.34
   6  -9   1   -0.11    0.46
   6  -9   1   -0.34    0.80
   6   9   1   -0.44    0.45
   6   9   1   -0.13    0.35
   7  -9   1    0.32    0.60
   7   9   1   -0.26    0.39
   7 -10  -1    0.44    0.51
   7 -10  -1    1.11    0.62
   7  10  -1    0.72    0.50
  -6 -10   1    0.38    0.70
   6 -10  -1    0.13    0.40
   6 -10  -1   -0.29    0.37
   6 -10  -1   -0.37    0.33
   6  10  -1   -0.03    0.32
   6  10  -1   -0.05    0.80
   5 -10  -1    0.94    0.55
   5 -10  -1    0.79    0.42
  -5 -10   1    0.46    0.74
   5 -10  -1    0.83    0.45
   5  10  -1    1.17    0.47
   5  10  -1    1.06    0.88
   5  10  -1    0.10    0.30
   4 -10  -1   10.64    1.22
   4 -10  -1    7.36    1.07
  -4 -10   1   12.30    1.60
   4 -10  -1   11.25    1.17
  -4  10   1   11.75    1.37
   4  10  -1   10.28    1.00
   4  10  -1   11.54    1.12
   4  10  -1    9.73    1.52
   4  10  -1   11.63    1.14
   3 -10  -1    0.48    0.36
   3 -10  -1    0.13    0.46
  -3 -10   1    0.04    0.44
  -3 -10   1    0.07    0.40
   3 -10  -1    0.11    0.29
   3 -10  -1   -1.46    0.52
   3  10  -1   -0.24    0.53
   3  10  -1    0.44    0.55
   3  10  -1   -0.23    0.37
   3  10  -1   -0.08    0.24
  -3  10   1   -0.60    0.36
   3  10  -1   -0.09    0.32
   2 -10  -1    1.04    0.68
   2 -10  -1    0.43    0.40
   2 -10  -1    0.78    0.63
   2 -10  -1    0.88    0.41
  -2 -10   1    0.37    0.50
   2 -10  -1    0.94    0.26
  -2 -10   1    0.61    0.55
  -2 -10   1    0.72    0.36
   2  10  -1    0.93    0.60
   2  10  -1    0.61    0.36
  -2  10   1    1.11    0.54
   2  10  -1    0.85    0.19
   2  10  -1    0.21    0.47
   2  10  -1    1.07    0.22
   2  10  -1    0.75    0.42
   2  10  -1    0.88    0.50
   1 -10  -1   19.22    1.01
   1 -10  -1   20.36    1.83
   1 -10  -1   19.01    1.23
  -1 -10   1   21.84    2.06
   1 -10  -1   19.58    1.40
  -1 -10   1   19.44    1.17
  -1 -10   1   19.19    1.23
   1 -10  -1   19.99    1.13
  -1 -10   1   18.83    1.27
   1  10  -1   18.31    1.51
   1  10  -1   20.80    1.08
   1  10  -1   19.30    1.12
  -1  10   1   17.88    1.33
   1  10  -1   19.47    1.46
   1  10  -1   20.38    1.40
  -1  10   1   22.81    1.16
   1  10  -1   21.11    1.22
   0 -10  -1   41.97    1.61
   0 -10   1   41.42    1.89
   0 -10   1   43.44    2.46
   0 -10  -1   42.65    1.98
   0 -10   1   43.31    1.60
   0 -10  -1   42.47    1.62
   0 -10   1   42.72    1.78
   0 -10   1   41.42    1.80
   0 -10  -1   41.90    1.92
   0 -10   1   42.96    1.70
   0  10   1   42.99    1.64
   0  10  -1   47.75    2.10
   0  10  -1   40.23    1.93
   0  10   1   39.04    2.23
   0  10   1   43.10    1.83
   0  10  -1   44.07    1.74
   0  10   1   40.22    1.87
   0  10   1   43.97    1.39
   0  10  -1   42.58    1.59
   0  10  -1   44.26    1.79
   0  10   1   43.86    2.03
  -1 -10  -1    0.60    0.40
   1 -10   1    0.32    0.46
   1 -10   1    0.47    0.62
   1 -10   1    0.62    0.41
   1 -10   1    0.27    0.39
   1 -10   1    0.17    0.29
  -1 -10  -1    0.06    0.32
  -1 -10  -1    0.33    0.41
  -1 -10  -1    0.37    0.47
  -1  10  -1    1.36    0.61
   1  10   1    0.39    0.56
  -1  10  -1   -0.18    0.29
   1  10   1    0.62    0.37
   1  10   1    0.44    0.35
   1  10   1    0.58    0.40
  -1  10  -1    0.84    0.41
   1  10   1    0.24    0.29
  -2 -10  -1    2.11    0.66
   2 -10   1    2.34    0.60
   2 -10   1    2.08    0.81
   2 -10   1    0.88    0.56
  -2 -10  -1    1.87    0.58
   2 -10   1    1.82    0.45
  -2  10  -1    1.91    0.77
   2  10   1    1.89    0.63
   2  10   1    1.09    0.61
   2  10   1    1.77    0.39
   2  10   1    2.38    0.56
   2  10   1    1.94    0.64
   2  10   1    2.12    0.47
  -2  10  -1    1.92    0.46
  -2  10  -1    1.88    0.57
   3 -10   1   15.73    1.44
   3 -10   1   15.71    1.51
   3 -10   1   12.83    1.70
  -3 -10  -1   15.34    1.44
  -3  10  -1   16.16    1.60
   3  10   1   17.86    1.84
  -3  10  -1   15.78    0.90
   3  10   1   13.71    1.36
   3  10   1   16.42    1.17
   3  10   1   15.57    1.69
   4 -10   1    9.64    1.26
   4 -10   1    8.61    1.62
   4  10   1    5.85    0.94
  -4  10  -1    7.41    0.83
   4  10   1    8.07    1.41
  -4  10  -1    4.98    1.03
   4  10   1    6.59    1.02
   5 -10   1    0.58    0.46
   5 -10   1    0.94    0.86
   5  10   1    1.19    0.83
   5  10   1    0.91    0.55
   5  10   1   -0.04    0.34
   6 -10   1    0.58    0.84
   6 -10   1    0.60    0.52
   6  10   1    0.29    0.41
   6  10   1    0.89    0.58
   7 -10   1   -0.28    0.47
   7  10   1   -0.28    0.46
   7 -11  -1    0.43    0.46
   7 -11  -1   -0.13    0.50
   7  11  -1    0.15    0.46
   6 -11  -1   -0.05    0.50
   6 -11  -1    0.63    0.52
   6 -11  -1    0.09    0.46
  -6 -11   1    0.71    0.93
   6  11  -1    0.09    0.38
   6  11  -1    0.78    0.69
   5 -11  -1    4.11    0.78
   5 -11  -1    5.51    0.93
   5 -11  -1    2.46    0.70
  -5 -11   1    3.56    1.10
   5  11  -1    4.20    1.21
   5  11  -1    4.14    0.79
   5  11  -1    3.26    0.63
  -4 -11   1    2.89    0.94
   4 -11  -1    3.21    0.67
   4 -11  -1    3.05    0.83
   4 -11  -1    2.62    0.67
   4  11  -1    3.69    0.70
   4  11  -1    3.77    1.03
   4  11  -1    3.15    0.72
   4  11  -1    3.59    0.72
   3 -11  -1    0.36    0.52
  -3 -11   1   -0.26    0.42
   3 -11  -1   -0.30    0.35
   3 -11  -1    1.55    0.89
  -3 -11   1    0.32    0.59
   3 -11  -1   -0.17    0.27
  -3  11   1    0.75    0.55
   3  11  -1   -0.03    0.63
   3  11  -1   -0.59    0.38
   3  11  -1   -0.83    0.32
   3  11  -1    0.52    0.39
   3  11  -1   -0.04    0.30
   2 -11  -1    9.49    1.36
   2 -11  -1   11.71    1.47
   2 -11  -1   12.70    1.30
   2 -11  -1    8.66    1.08
  -2 -11   1   12.64    1.55
  -2 -11   1    6.78    1.13
  -2 -11   1   11.35    1.13
   2 -11  -1    9.33    0.59
  -2  11   1   11.49    1.36
   2  11  -1   10.89    1.13
   2  11  -1   10.26    0.67
   2  11  -1    8.85    0.56
   2  11  -1   10.22    1.30
   2  11  -1    9.89    1.41
   2  11  -1    9.15    1.03
   2  11  -1    6.45    1.13
  -1 -11   1   13.03    1.26
   1 -11  -1   13.02    0.95
  -1 -11   1   17.62    2.02
  -1 -11   1   12.07    1.27
   1 -11  -1   12.37    1.52
   1 -11  -1   11.23    0.99
   1 -11  -1   15.20    1.58
   1 -11  -1   12.79    1.23
  -1  11   1   11.21    1.22
   1  11  -1   14.05    1.50
   1  11  -1   13.77    1.22
   1  11  -1   11.52    1.49
   1  11  -1   12.88    1.15
  -1  11   1   13.47    1.21
   1  11  -1   12.78    1.23
  -1  11   1   13.44    1.49
   1  11  -1   13.39    1.38
   0 -11  -1    5.62    1.06
   0 -11   1    3.23    0.66
   0 -11   1    2.97    0.65
   0 -11   1    3.22    0.97
   0 -11  -1    4.14    0.70
   0 -11  -1    3.20    0.68
   0 -11   1    2.66    0.65
   0  11  -1    4.46    0.77
   0  11  -1    3.97    0.70
   0  11   1    3.46    0.90
   0  11   1    4.53    0.74
   0  11  -1    4.35    0.90
   0  11   1    3.63    0.76
   0  11   1    2.78    0.57
   0  11  -1    3.77    0.69
   0  11   1    4.29    0.74
   0  11  -1    5.14    1.07
   1 -11   1   17.11    1.64
  -1 -11  -1   15.83    1.12
   1 -11   1   17.17    1.08
  -1 -11  -1   16.63    1.22
   1 -11   1   17.44    1.49
   1 -11   1   16.27    1.12
   1 -11   1   18.10    2.12
  -1  11  -1   16.78    1.68
  -1  11  -1   17.01    1.44
   1  11   1   20.09    1.95
  -1  11  -1   17.05    1.08
   1  11   1   16.41    1.12
   1  11   1   15.40    1.08
   1  11   1   16.23    1.18
   1  11   1   16.58    1.33
   2 -11   1    0.40    0.55
  -2 -11  -1    0.46    0.56
   2 -11   1    0.09    0.32
  -2 -11  -1    0.45    0.39
   2 -11   1   -0.52    0.58
   2 -11   1    0.75    0.44
  -2  11  -1    0.59    0.35
   2  11   1    0.10    0.41
   2  11   1    0.05    0.28
  -2  11  -1    0.22    0.47
   2  11   1   -0.39    0.53
   2  11   1    0.83    0.42
   2  11   1    0.67    0.30
  -2  11  -1    1.03    0.48
   2  11   1    0.55    0.50
   3 -11   1    1.68    0.72
   3 -11   1    1.77    0.67
   3 -11   1    3.57    1.13
  -3 -11  -1    2.05    0.70
   3  11   1    1.51    0.76
  -3  11  -1    2.22    0.50
   3  11   1    1.86    0.57
   3  11   1    1.25    0.70
   3  11   1    2.27    0.75
  -3  11  -1    2.40    0.76
   4 -11   1    7.23    1.12
   4 -11   1    8.35    1.68
   4  11   1    6.23    0.95
   4  11   1    5.64    0.99
   4  11   1    8.34    1.46
   5 -11   1    0.28    0.47
   5 -11   1    0.56    0.91
   5  11   1    0.73    0.51
   5  11   1    0.55    0.48
   5  11   1    0.79    0.83
   6 -11   1    0.06    0.53
   6 -11   1   -0.09    0.78
   6  11   1   -0.25    0.41
   6  11   1    0.05    0.42
   7 -11   1    0.02    0.49
   7  11   1   -0.09    0.44
   7 -12  -1    0.26    0.55
   7 -12  -1    0.12    0.56
   7  12  -1   -0.07    0.46
   6 -12  -1   -0.04    0.50
   6 -12  -1    0.97    0.57
  -6 -12   1    0.14    0.74
   6 -12  -1    0.58    0.58
   6  12  -1    1.19    0.55
   6  12  -1    1.29    0.96
   5 -12  -1    2.31    0.64
   5 -12  -1    1.37    0.67
   5 -12  -1    2.60    0.80
  -5 -12   1    2.26    0.96
   5  12  -1    2.49    1.17
   5  12  -1    2.26    0.59
   5  12  -1    3.05    0.70
   4 -12  -1   11.40    1.29
   4 -12  -1    9.86    1.21
   4 -12  -1   11.24    1.42
  -4 -12   1   11.53    1.70
   4  12  -1   11.92    1.28
   4  12  -1   13.26    1.77
   4  12  -1   11.39    1.17
   4  12  -1   10.13    1.19
   3 -12  -1   14.37    1.80
  -3 -12   1   17.92    1.72
   3 -12  -1   13.89    1.38
   3 -12  -1   15.92    1.62
   3 -12  -1   15.21    1.44
  -3 -12   1   13.39    1.66
   3  12  -1   16.09    1.18
   3  12  -1   16.29    1.61
   3  12  -1   15.61    1.81
   3  12  -1   15.00    1.72
  -3  12   1   16.18    1.66
   3  12  -1   17.51    1.29
   2 -12  -1   11.76    1.24
   2 -12  -1   11.30    1.22
  -2 -12   1   10.93    1.43
   2 -12  -1    9.17    0.66
  -2 -12   1   10.36    1.47
   2 -12  -1    7.70    1.39
   2 -12  -1   11.79    1.47
  -2 -12   1    9.37    1.11
   2  12  -1   10.44    1.15
  -2  12   1   12.62    1.50
   2  12  -1    8.34    1.29
   2  12  -1   11.71    1.58
   2  12  -1    9.92    0.73
   2  12  -1   10.30    1.25
  -2  12   1   10.98    1.27
   2  12  -1   10.43    1.13
   2  12  -1    9.74    0.70
   1 -12  -1   21.27    1.32
   1 -12  -1   20.68    2.01
  -1 -12   1   29.48    2.68
   1 -12  -1   19.78    1.30
   1 -12  -1   22.26    1.20
   1 -12  -1   22.17    1.63
  -1 -12   1   21.29    1.41
  -1 -12   1   21.86    1.39
   1  12  -1   21.28    1.38
   1  12  -1   22.38    1.57
  -1  12   1   23.46    2.03
   1  12  -1   20.49    1.67
   1  12  -1   23.27    2.15
  -1  12   1   21.45    1.46
   1  12  -1   22.31    1.33
  -1  12   1   21.37    1.26
   1  12  -1   22.89    1.35
   0 -12  -1   22.10    1.37
   0 -12  -1   19.92    1.86
   0 -12  -1   26.04    1.45
   0 -12   1   23.01    1.53
   0 -12   1   25.90    2.54
   0 -12   1   25.13    1.33
   0 -12   1   23.20    1.36
   0  12  -1   22.89    1.36
   0  12   1   23.15    1.39
   0  12  -1   22.22    1.63
   0  12   1   22.39    1.16
   0  12   1   23.36    1.33
   0  12   1   23.16    1.67
   0  12  -1   19.08    1.28
   0  12  -1   23.47    1.50
   0  12   1   23.91    1.54
  -1 -12  -1   15.58    1.14
   1 -12   1   16.63    2.07
   1 -12   1   14.89    1.38
   1 -12   1   15.82    1.03
  -1 -12  -1   18.02    1.72
   1 -12   1   16.21    1.53
   1 -12   1   15.91    1.17
  -1  12  -1   16.44    1.21
  -1  12  -1   18.76    1.92
   1  12   1   16.88    1.49
  -1  12  -1   14.39    1.07
   1  12   1   15.05    1.07
   1  12   1   18.54    1.16
   1  12   1   18.76    1.28
   1  12   1   20.26    2.17
   2 -12   1   18.98    1.78
   2 -12   1   18.01    1.05
   2 -12   1   17.05    1.26
  -2 -12  -1   17.78    1.71
   2 -12   1   12.80    1.88
  -2 -12  -1   19.21    1.69
   2  12   1   18.32    1.65
   2  12   1   17.64    1.28
   2  12   1   18.81    1.07
   2  12   1   21.20    2.15
  -2  12  -1   18.38    1.02
   2  12   1   19.22    1.18
   2  12   1   18.42    1.67
  -2  12  -1   17.62    1.94
  -2  12  -1   20.04    1.47
  -3 -12  -1   22.80    1.60
   3 -12   1   23.87    1.62
   3 -12   1   21.27    2.41
   3 -12   1   26.60    1.65
   3  12   1   22.26    1.49
   3  12   1   26.07    2.51
  -3  12  -1   23.39    1.15
  -3  12  -1   24.28    2.29
   3  12   1   22.82    1.52
   3  12   1   24.99    2.22
   4 -12   1    4.83    0.95
   4 -12   1    5.45    1.38
   4  12   1    5.01    1.13
   4  12   1    4.96    0.85
   4  12   1    3.73    0.83
   5 -12   1    2.42    1.21
   5 -12   1    2.53    0.86
   5  12   1    3.79    0.89
   5  12   1    2.56    1.11
   5  12   1    2.65    0.71
  -6 -12  -1   -0.54    0.92
   6 -12   1    0.81    0.59
   6 -12   1   -0.34    0.74
   6  12   1    2.49    0.81
   6  12   1    1.12    0.54
   7 -12   1    2.29    0.86
   7  12   1    1.43    0.62
   7 -13  -1    0.74    0.66
   7  13  -1   -0.05    0.40
   6 -13  -1    0.37    0.60
   6 -13  -1   -0.03    0.57
  -6 -13   1    1.01    0.95
   6 -13  -1    0.03    0.57
   6  13  -1    0.78    0.50
   6  13  -1    0.51    0.83
   5 -13  -1    0.53    0.50
  -5 -13   1    0.66    0.85
   5 -13  -1    2.00    0.74
   5 -13  -1    1.94    0.64
   5  13  -1    2.25    0.67
   5  13  -1    1.78    0.59
   5  13  -1    0.60    0.87
   4 -13  -1    2.95    0.76
   4 -13  -1    3.85    0.88
   4 -13  -1    2.53    0.93
  -4 -13   1    2.63    1.03
   4  13  -1    5.85    1.28
   4  13  -1    4.01    0.90
   4  13  -1    3.00    0.75
   4  13  -1    2.69    0.69
  -3 -13   1   -0.61    0.43
   3 -13  -1    1.07    0.51
  -3 -13   1    0.03    0.48
   3 -13  -1   -0.43    0.37
   3 -13  -1    0.72    0.79
   3  13  -1    0.31    0.42
   3  13  -1    0.46    0.55
   3  13  -1    0.43    0.47
   3  13  -1    0.01    0.50
  -3  13   1    0.28    0.58
  -2 -13   1    4.88    0.87
   2 -13  -1    6.15    1.00
   2 -13  -1    5.40    0.67
   2 -13  -1    4.85    1.31
  -2 -13   1    5.35    1.11
   2 -13  -1    5.27    1.10
   2 -13  -1    4.77    0.89
  -2 -13   1    3.15    0.81
   2  13  -1    3.63    0.81
   2  13  -1    2.89    0.68
   2  13  -1    3.48    1.14
   2  13  -1    4.53    0.61
   2  13  -1    4.52    1.01
   2  13  -1    4.28    0.59
   2  13  -1    4.65    0.91
  -2  13   1    5.62    1.01
  -2  13   1    2.17    0.73
   1 -13  -1   -0.84    0.50
  -1 -13   1   -0.72    0.68
  -1 -13   1   -0.25    0.29
   1 -13  -1   -0.34    0.32
   1 -13  -1   -0.32    0.36
   1 -13  -1   -0.10    0.24
  -1 -13   1    0.27    0.48
   1  13  -1    0.01    0.49
  -1  13   1    0.78    0.65
   1  13  -1   -0.06    0.59
   1  13  -1   -0.15    0.65
  -1  13   1   -0.42    0.29
   1  13  -1    0.19    0.39
   1  13  -1   -0.34    0.28
   1  13  -1   -0.32    0.41
  -1  13   1    0.18    0.38
   0 -13  -1   -0.33    0.60
   0 -13   1    0.09    0.35
   0 -13  -1    0.70    0.47
   0 -13  -1   -0.55    0.32
   0 -13   1   -0.41    0.58
   0 -13   1    0.46    0.42
   0 -13  -1   -0.38    0.43
   0 -13   1    0.25    0.38
   0  13   1    0.39    0.45
   0  13   1    0.61    0.45
   0  13  -1    0.48    0.61
   0  13  -1   -0.19    0.35
   0  13  -1    0.52    0.39
   0  13   1    0.15    0.36
   0  13   1    0.44    0.64
   0  13   1    0.07    0.35
   1 -13   1    6.12    1.00
  -1 -13  -1    5.79    0.92
   1 -13   1    4.30    1.21
  -1 -13  -1    3.84    0.93
   1 -13   1    4.27    0.80
   1 -13   1    5.52    0.80
   1 -13   1    4.39    0.84
  -1  13  -1    4.31    1.00
   1  13   1    5.22    0.82
  -1  13  -1    5.47    0.90
   1  13   1    4.36    0.80
  -1  13  -1    5.58    0.91
   1  13   1    5.19    0.82
   1  13   1    5.64    0.94
   2 -13   1   -0.16    0.37
   2 -13   1   -0.28    0.40
  -2 -13  -1    0.39    0.42
   2 -13   1   -0.14    0.58
   2 -13   1   -1.13    0.83
  -2 -13  -1   -0.34    0.47
   2 -13   1   -0.32    0.26
   2  13   1   -0.42    0.35
   2  13   1    0.02    0.88
  -2  13  -1    0.55    0.42
   2  13   1    1.04    0.51
   2  13   1   -0.12    0.28
  -2  13  -1   -0.13    0.52
   2  13   1   -0.27    0.31
  -2  13  -1   -0.19    0.34
   2  13   1   -0.35    0.22
  -3 -13  -1    0.45    0.58
   3 -13   1    3.63    1.17
   3 -13   1    0.61    0.58
   3  13   1    1.14    0.68
  -3  13  -1    0.92    0.68
   3  13   1    1.73    0.74
  -3  13  -1    0.96    0.45
   3  13   1    1.70    0.58
   4 -13   1    3.42    1.07
   4 -13   1    2.56    0.76
   4  13   1    3.35    0.74
   4  13   1    1.81    0.87
   4  13   1    5.01    1.02
   5 -13   1   -0.38    0.53
   5 -13   1   -0.43    0.92
   5  13   1   -0.29    0.84
   5  13   1    0.31    0.62
   5  13   1    0.37    0.47
   6 -13   1   -0.46    0.80
   6 -13   1   -0.31    0.50
  -6 -13  -1   -0.19    1.00
   6  13   1    0.17    0.55
   6  13   1   -0.03    0.58
   6 -14  -1    0.42    0.65
  -6 -14   1    0.17    0.85
   6 -14  -1   -0.49    0.66
   6  14  -1    0.62    0.90
   6  14  -1   -0.19    0.43
   6  14  -1    0.16    0.50
   5 -14  -1    0.42    0.55
  -5 -14   1   -0.35    0.67
   5 -14  -1   -0.18    0.61
   5 -14  -1    0.20    0.49
   5  14  -1   -0.35    0.40
   5  14  -1   -0.36    0.72
   5  14  -1    0.03    0.46
   4 -14  -1    1.35    0.81
  -4 -14   1    3.47    1.03
   4 -14  -1    5.65    1.03
   4 -14  -1    4.52    0.93
   4  14  -1    5.81    0.94
   4  14  -1    3.68    0.87
   4  14  -1    5.32    1.20
   3 -14  -1    0.72    0.64
   3 -14  -1    0.82    0.53
  -3 -14   1    2.50    0.87
   3 -14  -1    1.46    0.34
   3 -14  -1    1.15    0.90
  -3 -14   1    1.15    0.73
   3  14  -1    1.18    0.54
   3  14  -1    1.00    0.54
   3  14  -1    1.61    0.70
   3  14  -1    1.46    0.70
  -3  14   1    0.43    0.73
   2 -14  -1    0.55    0.85
   2 -14  -1    2.36    0.52
  -2 -14   1    1.01    0.54
   2 -14  -1    3.26    0.86
   2 -14  -1    1.44    0.95
  -2 -14   1    1.45    0.62
   2 -14  -1    2.09    0.68
  -2 -14   1    1.93    0.92
   2  14  -1    1.24    0.64
   2  14  -1    1.95    0.63
   2  14  -1    1.85    0.94
   2  14  -1    1.17    0.72
   2  14  -1    2.41    0.66
  -2  14   1    2.88    0.76
   2  14  -1    0.84    0.39
  -2  14   1    1.97    0.89
   2  14  -1    2.63    0.52
  -1 -14   1    0.47    0.66
  -1 -14   1   -0.13    0.43
   1 -14  -1    0.17    0.36
   1 -14  -1    0.39    0.62
   1 -14  -1    0.05    0.28
   1 -14  -1    0.82    0.49
  -1 -14   1    0.24    0.45
   1  14  -1    0.25    0.51
  -1  14   1    0.38    0.73
   1  14  -1    0.26    0.50
   1  14  -1    0.83    0.77
   1  14  -1    0.82    0.57
  -1  14   1    0.04    0.27
  -1  14   1    0.24    0.41
   1  14  -1    1.01    0.53
   0 -14   1   -1.44    0.62
   0 -14  -1    0.29    0.39
   0 -14   1   -0.78    0.30
   0 -14   1    0.53    0.49
   0 -14  -1    0.05    0.43
   0 -14   1    0.09    0.39
   0 -14  -1    0.41    0.62
   0  14   1    0.31    0.47
   0  14  -1   -0.32    0.32
   0  14   1   -0.06    0.37
   0  14  -1    0.54    0.65
   0  14   1    0.09    0.37
   0  14   1    0.52    0.65
   0  14   1    0.51    0.43
   0  14  -1   -0.39    0.37
   1 -14   1    0.46    0.81
   1 -14   1    0.19    0.46
  -1 -14  -1    0.89    0.69
   1 -14   1   -0.10    0.54
   1 -14   1    0.65    0.47
  -1 -14  -1    0.09    0.37
   1 -14   1    0.34    0.41
   1  14   1    0.34    0.44
  -1  14  -1    0.00    0.42
  -1  14  -1    0.60    0.64
   1  14   1   -0.23    0.31
   1  14   1   -0.49    0.43
   1  14   1    0.59    0.45
   2 -14   1    7.08    1.14
   2 -14   1    8.40    1.20
   2 -14   1    6.78    1.54
  -2 -14  -1    6.47    1.18
   2 -14   1    7.67    0.96
   2  14   1    7.54    0.92
  -2  14  -1    7.67    1.14
   2  14   1   11.01    2.00
   2  14   1    7.70    1.05
  -2  14  -1    6.27    1.28
   2  14   1    8.03    1.20
   2  14   1    5.24    1.01
  -2  14  -1    6.75    0.95
   2  14   1    8.00    1.18
   3 -14   1    5.21    1.46
   3 -14   1    7.09    0.92
   3 -14   1    7.15    1.21
  -3 -14  -1    5.58    1.13
   3 -14   1    4.88    0.99
   3  14   1    4.70    0.90
   3  14   1    5.04    0.96
  -3  14  -1    7.88    1.04
   3  14   1    6.88    1.16
  -3  14  -1    7.07    1.43
   4 -14   1    0.20    0.48
   4 -14   1    1.13    1.09
   4  14   1    0.23    0.67
   4  14   1    0.01    0.44
   4  14   1    1.22    0.87
   5 -14   1    1.67    1.23
   5 -14   1    0.08    0.61
   5  14   1   -0.09    0.44
   5  14   1   -0.43    0.89
   5  14   1    0.46    0.52
   6 -14   1   -0.61    0.45
   6 -14   1    0.43    0.98
   6  14   1    0.07    0.49
   6  14   1   -0.59    0.64
  -6 -15   1    0.43    0.90
   6 -15  -1   -0.57    0.59
   6 -15  -1    0.84    0.77
   6  15  -1   -0.28    0.56
   6  15  -1   -0.32    0.37
   6  15  -1    1.04    1.02
   5 -15  -1    1.00    0.60
   5 -15  -1   -0.69    0.60
  -5 -15   1    0.28    0.72
   5  15  -1    0.01    0.47
   5  15  -1   -0.38    0.48
   5  15  -1    0.97    0.83
   4 -15  -1    0.32    0.56
   4 -15  -1    0.16    0.46
   4 -15  -1   -0.38    0.71
  -4 -15   1   -0.21    0.61
   4  15  -1   -0.34    0.45
   4  15  -1    0.17    0.45
   4  15  -1   -0.32    0.62
   3 -15  -1    2.04    0.78
   3 -15  -1    1.04    0.35
  -3 -15   1    1.57    0.83
  -3 -15   1    2.50    0.88
   3 -15  -1    2.84    0.84
   3 -15  -1    1.24    0.90
   3  15  -1    3.55    1.01
   3  15  -1    1.66    0.60
  -3  15   1    1.91    0.97
   3  15  -1    2.01    0.86
   3  15  -1    1.54    0.71
   2 -15  -1    6.79    0.82
  -2 -15   1    7.06    1.22
  -2 -15   1    9.26    1.37
   2 -15  -1    7.07    1.14
   2 -15  -1    5.52    1.37
   2 -15  -1    4.63    0.94
  -2 -15   1    5.63    1.29
  -2  15   1    7.39    1.42
  -2  15   1    7.45    1.14
   2  15  -1    8.60    1.17
   2  15  -1    6.09    1.12
   2  15  -1    6.20    1.53
   2  15  -1    5.98    0.77
   2  15  -1    5.82    1.20
   2  15  -1    6.29    0.76
   2  15  -1    6.92    1.12
   1 -15  -1    0.49    0.43
   1 -15  -1    0.30    0.44
  -1 -15   1   -1.08    0.53
  -1 -15   1    0.48    0.50
   1 -15  -1   -0.36    0.32
  -1 -15   1   -0.06    0.39
   1 -15  -1    0.83    0.79
   1  15  -1    0.34    0.49
  -1  15   1    0.06    0.32
  -1  15   1   -0.75    0.49
  -1  15   1    1.07    0.58
   1  15  -1    0.45    0.50
   1  15  -1    0.37    0.68
   1  15  -1   -0.24    0.36
   1  15  -1   -0.05    0.38
   0 -15   1    0.65    0.51
   0 -15   1   -0.21    0.81
   0 -15  -1    0.50    0.72
   0 -15  -1   -0.49    0.34
   0 -15   1   -0.50    0.42
   0 -15   1    0.31    0.52
   0 -15  -1    0.69    0.58
   0  15   1    0.37    0.48
   0  15  -1   -0.14    0.37
   0  15   1    0.41    0.42
   0  15   1   -0.45    0.38
   0  15  -1    0.05    0.66
   0  15   1    0.07    0.66
   0  15  -1    0.09    0.40
   0  15   1    0.38    0.53
   1 -15   1   10.31    1.39
   1 -15   1    9.37    1.85
  -1 -15  -1    9.44    1.44
   1 -15   1    9.56    1.29
   1 -15   1    8.68    1.12
  -1 -15  -1    7.52    1.33
  -1 -15  -1    8.95    1.18
   1  15   1    9.88    1.27
   1  15   1    7.77    1.10
   1  15   1    9.22    1.17
   1  15   1    8.63    1.11
  -1  15  -1    9.25    1.45
   2 -15   1   -0.31    0.44
  -2 -15  -1   -0.54    0.56
   2 -15   1    0.15    0.55
   2 -15   1    0.91    1.13
   2 -15   1   -0.36    0.31
   2  15   1   -0.18    0.54
   2  15   1    0.04    0.40
  -2  15  -1   -0.63    0.60
   2  15   1   -0.50    0.35
  -2  15  -1    1.04    0.61
   2  15   1    0.56    0.51
   2  15   1   -0.09    0.28
   3 -15   1    0.67    1.00
   3 -15   1    1.38    0.65
  -3 -15  -1    2.22    0.91
   3 -15   1    2.98    0.67
   3  15   1    2.59    0.77
  -3  15  -1    2.95    0.71
   3  15   1    1.89    0.32
  -3  15  -1    1.12    0.87
   3  15   1    1.14    0.62
   3  15   1    1.90    0.72
   3  15   1    1.68    0.30
   4 -15   1    0.75    0.67
   4 -15   1    1.22    1.23
   4  15   1    0.19    0.46
   4  15   1    0.71    0.62
   4  15   1    0.88    0.90
   5 -15   1    0.46    0.67
  -5 -15  -1    0.45    0.97
   5 -15   1   -0.15    1.01
   5  15   1   -0.50    0.73
   5  15   1   -0.52    0.40
   5  15   1    0.59    0.66
   6 -15   1   -0.68    0.52
   6 -15   1   -0.59    0.93
   6  15   1   -0.11    0.54
   6  15   1    0.49    0.66
   6 -16  -1   -0.32    0.73
   6 -16  -1    0.92    0.81
   6  16  -1    0.72    0.57
   6  16  -1    0.04    0.46
   5 -16  -1    0.58    0.61
   5 -16  -1    0.31    0.73
  -5 -16   1   -0.55    0.61
   5  16  -1    0.89    0.51
   5  16  -1    0.28    0.65
   5  16  -1    0.11    0.75
   4 -16  -1    3.38    0.92
  -4 -16   1    1.39    0.77
   4 -16  -1    1.63    0.99
   4  16  -1    1.55    0.81
   4  16  -1    1.01    0.68
   4  16  -1    0.67    0.49
  -3 -16   1    7.01    1.30
   3 -16  -1   10.09    1.36
  -3 -16   1    9.77    1.56
   3 -16  -1    6.63    1.42
   3  16  -1    8.89    1.52
   3  16  -1    7.02    1.31
   3  16  -1    9.99    1.33
  -3  16   1    6.33    1.33
   3  16  -1    6.47    1.06
  -2 -16   1   12.02    1.71
  -2 -16   1   13.14    1.72
   2 -16  -1   16.81    1.76
   2 -16  -1   12.95    0.96
  -2 -16   1   13.70    1.83
   2 -16  -1    9.89    1.64
   2 -16  -1   15.43    1.66
   2  16  -1   15.69    1.69
   2  16  -1   14.38    1.68
   2  16  -1   11.70    1.01
   2  16  -1   12.84    1.79
   2  16  -1   10.17    1.06
  -2  16   1   10.46    1.66
   1 -16  -1   12.30    1.49
  -1 -16   1    9.41    1.35
   1 -16  -1    9.47    1.62
  -1 -16   1   11.35    1.47
   1 -16  -1    9.40    1.16
  -1 -16   1    8.95    1.64
   1 -16  -1   11.85    1.42
   1  16  -1   10.76    1.40
   1  16  -1   11.09    1.69
   1  16  -1    9.37    1.31
   1  16  -1   11.89    1.41
  -1  16   1    9.52    1.29
  -1  16   1   10.40    1.03
   1  16  -1    8.11    1.22
  -1  16   1    9.63    1.53
   0 -16  -1   15.46    1.68
   0 -16   1   14.84    1.56
   0 -16   1   12.86    1.47
   0 -16  -1   12.73    1.56
   0 -16   1    9.19    1.34
   0 -16  -1   13.08    1.73
   0 -16   1   14.96    2.24
   0  16  -1   13.27    1.77
   0  16  -1   14.14    1.43
   0  16   1   12.39    1.84
   0  16   1   13.03    1.50
   0  16  -1   13.26    1.49
   0  16  -1   14.66    1.62
   0  16   1   12.78    1.54
   0  16   1   13.29    1.39
   0  16   1   15.86    1.77
   1 -16   1   14.89    1.68
  -1 -16  -1   12.86    1.78
   1 -16   1   13.15    2.26
  -1 -16  -1   12.50    1.45
   1 -16   1   13.24    1.38
   1  16   1   13.75    1.52
  -1  16  -1   12.16    1.85
   1  16   1   14.99    1.55
   1  16   1   13.05    1.42
  -1  16  -1   10.08    1.49
   1  16   1   10.15    1.23
   2 -16   1   13.00    1.30
   2 -16   1   14.41    2.26
   2 -16   1   16.55    1.81
  -2 -16  -1   10.43    1.49
   2  16   1   10.51    1.48
   2  16   1   11.78    1.46
   2  16   1   15.54    1.45
   2  16   1   11.27    1.36
   2  16   1   13.38    1.62
  -2  16  -1    9.78    1.62
   3 -16   1    4.72    1.02
   3 -16   1    0.52    1.03
   3 -16   1    5.93    0.88
  -3 -16  -1    2.88    0.88
   3  16   1    3.72    0.47
   3  16   1    4.34    1.07
  -3  16  -1    5.73    1.33
   3  16   1    3.23    0.92
   3  16   1    3.71    0.85
   3  16   1    3.50    0.44
   4 -16   1    0.89    1.12
   4 -16   1    2.75    0.92
  -4 -16  -1    1.46    1.04
   4  16   1    2.10    0.76
   4  16   1    2.03    0.91
   4  16   1    0.68    0.58
  -5 -16  -1    0.06    1.03
   5 -16   1    0.71    0.93
   5 -16   1    0.82    0.84
   5  16   1    0.42    0.71
   5  16   1    0.88    0.60
   5  16   1    0.04    0.62
   6 -16   1    0.30    1.05
   6 -16   1    0.27    0.78
   6  16   1    0.70    0.62
   6  16   1    1.32    0.80
   6 -17  -1   -0.21    0.72
   6 -17  -1    0.50    0.80
   6  17  -1   -0.53    0.62
   6  17  -1    0.64    0.63
  -5 -17   1    1.09    1.02
   5 -17  -1    0.37    0.79
   5 -17  -1    0.16    0.64
   5  17  -1   -0.28    0.70
   5  17  -1   -0.13    0.59
   5  17  -1   -0.01    0.49
   4 -17  -1    0.67    0.88
   4 -17  -1   -0.20    0.51
  -4 -17   1    0.41    0.59
   4  17  -1    0.19    0.54
   4  17  -1    0.41    0.63
   4  17  -1   -0.58    0.58
  -3 -17   1   -0.40    0.49
   3 -17  -1   -0.14    0.48
   3 -17  -1   -1.02    0.62
   3  17  -1   -0.24    0.55
   3  17  -1   -0.33    0.47
   3  17  -1   -0.09    0.42
  -3  17   1   -1.55    0.68
   2 -17  -1   -0.16    0.70
  -2 -17   1    0.04    0.73
   2 -17  -1    0.01    0.52
  -2 -17   1    0.28    0.63
   2 -17  -1    1.17    0.47
   2  17  -1   -0.07    0.70
   2  17  -1    0.65    0.42
  -2  17   1   -0.42    0.77
   2  17  -1    1.14    0.42
   2  17  -1    0.67    0.64
  -1 -17   1    5.94    1.16
   1 -17  -1    2.31    0.72
  -1 -17   1    3.69    0.98
   1 -17  -1    3.18    0.85
   1 -17  -1    2.86    1.06
  -1 -17   1    3.17    1.27
   1  17  -1    1.94    0.70
   1  17  -1    3.95    0.93
   1  17  -1    3.43    0.84
   1  17  -1    1.77    0.94
  -1  17   1    3.19    1.04
  -1  17   1    3.16    0.73
  -1  17   1    3.91    1.03
   0 -17   1    3.20    0.90
   0 -17  -1    1.93    0.84
   0 -17  -1    2.19    0.70
   0 -17   1    1.68    0.78
   0 -17   1    5.00    1.14
   0 -17  -1    3.99    1.10
   0 -17   1    2.14    1.13
   0  17  -1    0.91    0.60
   0  17   1    1.36    0.63
   0  17   1    1.71    0.69
   0  17  -1    3.16    1.09
   0  17   1    2.05    1.02
   0  17  -1    1.99    0.66
   0  17   1    2.46    0.73
   0  17   1    3.26    0.87
   1 -17   1    0.21    0.42
  -1 -17  -1   -1.09    0.41
  -1 -17  -1   -0.32    0.60
   1 -17   1    0.16    1.06
   1 -17   1    0.24    0.54
  -1  17  -1    0.47    0.88
   1  17   1    1.14    0.55
   1  17   1   -0.40    0.40
   1  17   1   -0.69    0.34
  -1  17  -1    0.34    0.48
   1  17   1   -0.30    0.37
  -2 -17  -1    0.36    0.68
  -2 -17  -1    0.21    0.66
   2 -17   1    0.74    1.18
   2 -17   1   -0.18    0.50
   2 -17   1    0.28    0.45
   2  17   1    0.13    0.58
   2  17   1   -0.54    0.39
   2  17   1    0.16    0.48
  -2  17  -1    0.25    0.76
   2  17   1   -0.09    0.48
   2  17   1    0.21    0.40
   3 -17   1    0.83    1.19
   3 -17   1   -0.41    0.60
   3 -17   1    0.41    0.42
  -3 -17  -1   -0.10    0.75
  -3 -17  -1    0.28    0.91
   3  17   1    0.18    0.58
   3  17   1    0.46    0.34
   3  17   1    0.38    0.34
   3  17   1    0.24    0.52
   3  17   1    0.08    0.54
  -3  17  -1    0.19    0.70
   4 -17   1   -0.33    0.96
   4 -17   1    0.40    0.71
  -4 -17  -1   -0.69    0.76
   4  17   1    2.04    1.06
   4  17   1    0.20    0.48
   4  17   1    0.24    0.59
   5 -17   1   -1.05    0.86
   5 -17   1    0.25    0.71
  -5 -17  -1   -0.11    0.85
   5  17   1    0.42    0.65
   5  17   1    0.23    0.71
   5  17   1   -0.18    0.57
   6 -17   1   -0.17    0.75
   6  17   1    1.19    0.73
   6  17   1    0.18    0.68
   6 -18  -1    1.04    0.97
   6 -18  -1   -0.77    0.76
   6  18  -1    0.06    0.68
   5 -18  -1    0.28    0.64
  -5 -18   1   -0.58    0.83
   5 -18  -1    1.05    0.95
   5  18  -1   -0.18    0.71
   5  18  -1    0.70    0.60
   5  18  -1    0.17    0.66
   4 -18  -1    0.40    0.67
  -4 -18   1   -0.20    0.71
   4 -18  -1    0.32    0.82
   4  18  -1   -0.34    0.42
   4  18  -1   -0.60    0.59
   4  18  -1   -0.82    0.60
   3 -18  -1    0.47    0.82
  -3 -18   1   -0.19    0.63
   3 -18  -1    0.69    0.65
   3  18  -1   -0.20    0.62
   3  18  -1    0.70    0.80
  -3  18   1    0.11    0.82
   3  18  -1    0.22    0.56
  -2 -18   1    8.71    1.43
   2 -18  -1    9.36    1.51
  -2 -18   1    9.61    1.97
   2 -18  -1   10.17    1.13
   2 -18  -1    9.33    1.68
   2  18  -1    9.56    1.75
  -2  18   1    9.09    1.62
   2  18  -1    9.00    1.12
   2  18  -1    8.07    1.35
   2  18  -1   10.54    1.09
   1 -18  -1    1.25    0.66
  -1 -18   1    4.00    1.36
  -1 -18   1    2.15    0.91
   1 -18  -1    0.09    0.49
   1 -18  -1    1.79    0.97
   1  18  -1    0.86    0.88
  -1  18   1    3.01    1.10
   1  18  -1    1.66    0.73
  -1  18   1    1.53    0.61
   1  18  -1    1.37    0.69
   1  18  -1    2.02    0.79
   0 -18  -1    0.00    0.56
   0 -18   1   -0.77    0.68
   0 -18  -1    1.80    0.90
   0 -18   1   -0.96    0.63
   0 -18   1    0.56    0.62
   0  18  -1    0.08    0.66
   0  18   1    0.15    0.73
   0  18  -1    0.57    0.87
   0  18   1    0.23    0.83
   0  18   1    0.00    0.46
   0  18  -1    0.41    0.81
   0  18   1    0.78    0.82
   1 -18   1   14.10    2.37
  -1 -18  -1   12.67    1.68
  -1 -18  -1   18.43    2.15
   1 -18   1   16.27    1.64
   1 -18   1   19.88    2.16
  -1  18  -1   10.08    1.71
   1  18   1   15.55    1.60
   1  18   1   18.75    2.06
   1  18   1   16.10    1.56
   1  18   1   16.26    1.66
  -2 -18  -1    1.45    0.97
   2 -18   1    0.40    1.17
  -2 -18  -1   -0.48    0.56
   2 -18   1   -0.15    0.46
   2 -18   1   -0.32    0.51
   2  18   1   -0.44    0.48
   2  18   1   -0.09    0.37
   2  18   1   -0.16    0.65
  -2  18  -1   -0.23    0.81
   2  18   1   -0.21    0.41
   2  18   1    0.01    0.47
  -3 -18  -1    0.00    0.69
   3 -18   1    0.00    0.74
   3 -18   1    2.53    1.55
   3  18   1    0.91    0.81
   3  18   1    0.04    0.23
   3  18   1    0.18    0.53
  -3  18  -1    0.60    0.78
   3  18   1   -0.09    0.64
   3  18   1   -0.20    0.27
  -4 -18  -1    0.85    0.77
   4 -18   1   -0.31    0.58
   4 -18   1   -0.56    1.09
   4  18   1   -0.19    0.54
   4  18   1   -0.75    0.57
   4  18   1   -0.02    0.72
   5 -18   1   -0.67    1.00
   5 -18   1   -0.10    0.70
   5  18   1   -0.12    0.80
   5  18   1    0.98    0.82
   5  18   1    0.18    0.64
   6 -18   1    1.03    0.77
   6  18   1    0.27    0.72
   6 -19  -1   -1.13    0.78
   6  19  -1    0.21    0.81
   5 -19  -1    0.84    0.95
   5 -19  -1    0.24    0.76
   5  19  -1    1.49    0.92
   5  19  -1    0.26    0.60
   5  19  -1    0.06    0.67
   4 -19  -1   -0.07    0.65
  -4 -19   1   -0.27    0.72
   4 -19  -1    0.02    0.77
   4  19  -1    0.64    0.77
   4  19  -1   -0.41    0.55
   4  19  -1   -0.47    0.66
  -3 -19   1   -0.85    0.64
   3 -19  -1    0.75    0.75
   3 -19  -1    1.28    1.03
   3  19  -1    0.83    0.82
   3  19  -1    0.61    0.76
   2 -19  -1   -0.06    0.41
  -2 -19   1    0.24    0.62
   2 -19  -1   -0.05    0.56
   2 -19  -1    0.00    0.92
  -2 -19   1   -0.64    0.99
   2  19  -1    0.35    0.91
   2  19  -1    1.56    0.84
   2  19  -1    0.14    0.40
  -2  19   1    1.13    0.86
   2  19  -1    0.43    0.51
  -1 -19   1    7.52    1.60
   1 -19  -1    6.22    1.55
   1 -19  -1    7.63    1.17
  -1 -19   1    6.73    1.30
   1  19  -1    7.55    1.70
  -1  19   1    6.20    0.92
  -1  19   1    6.16    1.53
   1  19  -1    5.51    1.11
   1  19  -1    5.29    1.09
   1  19  -1    6.19    1.23
   0 -19  -1    2.16    0.84
   0 -19   1   -0.82    0.83
   0 -19   1    2.26    0.73
   0 -19  -1    2.85    1.13
   0  19   1    3.61    0.81
   0  19  -1    2.35    0.78
   0  19   1    4.29    1.09
   0  19  -1    3.24    1.14
   0  19   1    3.20    1.08
   0  19  -1    2.91    0.91
  -1 -19  -1    0.47    0.70
   1 -19   1   -0.92    0.73
   1 -19   1    1.50    0.67
  -1 -19  -1    0.51    0.85
   1  19   1   -0.22    0.50
   1  19   1   -0.91    0.48
  -1  19  -1   -0.17    0.90
   1  19   1   -0.13    0.40
   2 -19   1    1.31    0.67
   2 -19   1    1.06    1.18
  -2 -19  -1    0.90    0.93
  -2 -19  -1    0.17    0.72
  -2  19  -1    0.38    0.87
   2  19   1    1.20    0.66
   2  19   1    1.06    0.67
   2  19   1    0.71    0.82
   2  19   1    1.71    0.60
   2  19   1    0.18    0.55
   3 -19   1    0.13    0.81
  -3 -19  -1   -1.43    0.59
   3 -19   1   -0.75    1.03
  -3  19  -1   -0.24    0.89
   3  19   1    0.43    0.36
   3  19   1   -0.14    0.66
   3  19   1   -0.53    0.39
   3  19   1    0.02    0.25
   3  19   1   -0.38    0.56
  -4 -19  -1    0.70    0.94
   4 -19   1    0.45    0.75
   4 -19   1    0.16    0.91
   4  19   1    0.71    0.64
   4  19   1   -0.86    0.70
   4  19   1   -0.15    0.70
   5 -19   1    1.12    1.22
   5 -19   1    0.77    0.87
   5  19   1    1.50    0.88
   5  19   1   -0.06    0.60
   5  19   1   -0.02    0.84
   5 -20  -1    1.83    1.13
   5 -20  -1    0.46    0.88
   5  20  -1    0.71    0.98
   5  20  -1    0.28    0.75
   4 -20  -1    3.42    1.20
  -4 -20   1    0.96    0.97
   4 -20  -1   -0.32    0.76
   4  20  -1    1.25    0.84
   4  20  -1    3.03    1.10
   3 -20  -1    1.82    0.90
   3 -20  -1    0.78    1.12
  -3 -20   1    1.66    0.95
   3  20  -1    0.42    0.74
   3  20  -1    1.32    0.97
  -2 -20   1    2.33    1.30
   2 -20  -1    1.19    0.61
   2 -20  -1    1.64    1.05
  -2 -20   1    2.06    0.88
   2  20  -1    1.50    1.17
   2  20  -1    2.02    0.83
   2  20  -1    0.85    0.49
   2  20  -1    1.39    0.61
  -2  20   1    2.08    1.05
  -2  20   1    0.98    0.57
  -1 -20   1    1.05    1.17
  -1 -20   1    4.01    1.09
   1 -20  -1    1.42    1.13
   1 -20  -1    2.21    0.78
  -1  20   1    2.25    0.67
   1  20  -1    3.25    1.02
   1  20  -1    3.23    0.91
  -1  20   1    3.75    1.26
   1  20  -1    1.53    1.13
   1  20  -1    2.96    0.98
   0 -20  -1    3.28    1.17
   0 -20   1    5.37    1.13
   0 -20  -1    4.36    1.06
   0 -20   1    1.68    1.33
   0  20   1    3.52    0.85
   0  20  -1    1.67    0.99
   0  20  -1    3.07    0.91
   0  20   1    5.29    1.35
  -1 -20  -1    2.03    1.04
   1 -20   1    1.95    0.74
   1 -20   1    1.23    1.09
  -1 -20  -1    2.59    1.08
  -1  20  -1    1.73    1.09
   1  20   1    3.03    0.97
   1  20   1    3.01    0.90
   1  20   1    2.79    0.82
  -2 -20  -1    2.21    1.07
   2 -20   1    0.64    0.65
  -2 -20  -1    2.82    1.14
   2 -20   1    1.46    1.19
   2  20   1   -0.16    0.73
   2  20   1    0.76    0.52
   2  20   1    2.07    0.80
  -2  20  -1    0.40    0.93
   2  20   1    0.59    0.70
  -3 -20  -1    2.81    1.15
   3 -20   1    0.95    1.22
   3  20   1    1.81    0.50
   3  20   1    0.60    0.76
   3  20   1    2.12    0.58
   3  20   1    2.62    1.03
   3  20   1    0.60    0.68
  -4 -20  -1    6.74    1.71
   4 -20   1    4.78    1.65
   4  20   1    1.70    1.05
   4  20   1    2.88    0.97
   4  20   1    2.60    1.24
   5  20   1    0.56    0.76
   5  20   1    0.25    0.68
   5  20   1    1.10    1.13
   5 -21  -1    0.85    0.94
   5  21  -1    0.29    0.98
   4 -21  -1    0.70    1.00
   4  21  -1   -0.97    0.69
   4  21  -1   -0.61    0.77
   3 -21  -1   -0.37    0.91
  -3 -21   1   -0.92    0.62
   3  21  -1    0.19    0.68
   2 -21  -1    0.87    1.01
  -2 -21   1   -0.43    0.91
  -2 -21   1    1.88    0.93
   2  21  -1    0.56    0.39
   2  21  -1    0.75    0.73
  -2  21   1   -0.05    1.02
   2  21  -1    1.45    1.12
  -2  21   1    1.05    0.58
   2  21  -1    0.11    0.48
   1 -21  -1    1.51    0.93
  -1 -21   1    0.70    0.73
   1 -21  -1    0.17    0.61
  -1 -21   1    0.67    0.99
   1  21  -1   -0.02    0.55
  -1  21   1   -0.37    0.40
  -1  21   1    0.18    0.84
   1  21  -1    0.01    0.59
   1  21  -1    0.25    0.65
   1  21  -1   -1.54    0.81
   0 -21   1   -0.98    0.84
   0 -21  -1   -0.26    0.61
   0 -21  -1   -0.67    0.60
   0 -21   1   -0.23    0.54
   0  21  -1    0.87    0.99
   0  21   1   -0.55    0.77
   0  21   1    0.60    0.52
   0  21  -1   -0.12    0.60
  -1 -21  -1   -0.58    0.63
   1 -21   1   -0.04    0.57
  -1 -21  -1    0.14    0.74
   1 -21   1   -0.13    0.92
  -1  21  -1   -0.70    0.98
   1  21   1   -0.29    0.51
   1  21   1    0.58    0.55
   1  21   1    2.24    0.78
  -2 -21  -1    1.98    1.12
   2 -21   1    0.54    0.66
  -2 -21  -1   -0.65    0.59
   2 -21   1    0.53    1.06
   2  21   1    0.24    0.58
   2  21   1    0.76    0.61
  -2  21  -1   -1.14    0.88
   2  21   1    0.37    0.71
   2  21   1    0.17    0.86
   3 -21   1   -1.23    0.83
  -3 -21  -1    0.20    0.82
   3  21   1   -0.14    0.35
   3  21   1    0.65    0.42
   3  21   1    1.01    0.81
   3  21   1   -0.06    0.70
   4 -21   1   -1.72    0.70
   4  21   1   -0.51    0.85
   4  21   1   -0.92    0.71
   4 -22  -1   -0.93    0.90
   4  22  -1   -0.30    0.70
   4  22  -1   -0.05    0.75
   3 -22  -1    0.34    0.82
  -3 -22   1    0.34    0.91
   3  22  -1    0.07    0.88
  -2 -22   1    1.31    0.88
   2 -22  -1   -0.46    0.77
  -2 -22   1    1.21    1.22
   2  22  -1   -0.35    0.46
   2  22  -1   -0.39    0.71
  -2  22   1    1.86    1.23
   2  22  -1    0.55    0.68
   2  22  -1    1.26    1.12
   1 -22  -1    1.42    0.87
   1 -22  -1    0.58    0.67
  -1 -22   1   -1.46    0.82
  -1 -22   1    0.11    0.77
   1  22  -1    0.48    1.06
   1  22  -1    1.80    0.85
  -1  22   1    0.77    0.79
   1  22  -1    0.52    0.63
  -1  22   1   -0.28    0.94
   1  22  -1    0.17    0.78
   0 -22   1    0.28    0.77
   0 -22   1    1.97    1.30
   0 -22  -1    1.63    0.83
   0 -22  -1    0.35    0.90
   0  22  -1   -0.31    0.90
   0  22  -1    0.23    0.72
   0  22   1    1.12    1.07
   0  22   1    0.68    0.55
  -1 -22  -1    0.13    0.94
   1 -22   1    1.20    1.13
   1 -22   1   -0.08    0.61
  -1 -22  -1    1.21    0.87
  -1  22  -1   -0.93    0.45
   1  22   1    0.23    0.45
   1  22   1   -0.10    0.61
  -1  22  -1    0.10    0.96
  -2 -22  -1    0.67    1.11
   2 -22   1   -0.39    0.64
   2 -22   1    0.90    1.19
  -2 -22  -1    3.49    1.27
   2  22   1    0.24    0.70
   2  22   1    0.60    0.78
   2  22   1   -0.05    0.54
   2  22   1   -0.82    0.63
  -2  22  -1   -0.51    1.01
   3 -22   1   -1.32    1.09
  -3 -22  -1    0.56    1.16
   3  22   1    0.20    0.75
   3  22   1   -0.48    0.67
   3  22   1   -0.10    0.33
   3  22   1    0.40    0.41
   4 -22   1    0.66    1.24
   4  22   1   -0.19    0.92
   4  22   1   -0.16    1.00
   4  23  -1   -0.59    0.80
   4  23  -1    1.84    1.27
  -3 -23   1    0.15    0.82
   3 -23  -1   -0.03    0.92
   3  23  -1   -0.47    0.56
   2 -23  -1   -0.81    0.87
  -2 -23   1    1.45    1.05
   2  23  -1    0.35    0.47
   2  23  -1    0.20    0.77
  -2  23   1   -0.35    1.00
   2  23  -1    2.01    1.18
   2  23  -1    0.09    0.50
  -1 -23   1    0.23    1.58
   1 -23  -1   -0.43    0.69
  -1 -23   1    1.07    0.94
   1 -23  -1   -0.55    0.90
   1  23  -1    0.36    0.95
   1  23  -1   -0.39    0.61
   1  23  -1   -0.70    0.72
   1  23  -1    0.27    0.77
  -1  23   1   -0.11    0.51
  -1  23   1    0.19    0.83
   0 -23  -1   -0.99    0.76
   0 -23  -1    0.42    0.72
   0 -23   1    0.53    0.73
   0 -23   1   -0.61    0.95
   0  23   1   -0.22    0.47
   0  23  -1    0.09    0.65
   0  23  -1   -1.43    0.89
  -1 -23  -1    0.23    0.90
   1 -23   1    0.58    0.75
  -1 -23  -1   -0.19    0.84
   1 -23   1    0.18    1.22
  -1  23  -1    1.21    1.24
   1  23   1   -0.49    0.54
  -1  23  -1   -0.25    0.64
   2 -23   1   -0.20    1.09
  -2 -23  -1    0.15    1.04
  -2 -23  -1    0.28    0.94
   2  23   1   -0.10    0.62
   2  23   1   -0.57    0.52
   2  23   1   -0.09    0.49
  -2  23  -1    0.18    1.27
   2  23   1   -0.60    0.76
   3 -23   1    0.89    1.33
   3  23   1    0.27    0.82
   3  23   1   -0.58    0.65
   3  23   1   -0.16    0.39
   3  23   1   -0.17    0.33
   4  23   1    0.89    1.03
   3 -24  -1   -0.78    0.89
   3  24  -1   -0.28    0.92
  -2 -24   1    1.59    1.25
   2 -24  -1   -1.12    0.96
  -2  24   1   -1.14    0.91
   2  24  -1   -0.85    0.90
   2  24  -1   -0.05    0.74
   2  24  -1    0.38    0.64
   2  24  -1    1.16    0.66
  -1 -24   1    1.59    1.13
   1 -24  -1    2.02    0.90
   1 -24  -1   -0.15    0.91
  -1 -24   1    1.99    1.69
   1  24  -1    2.58    1.59
   1  24  -1    1.70    0.99
   1  24  -1    1.00    0.88
  -1  24   1    1.53    1.09
   0 -24   1    1.21    1.35
   0 -24  -1    1.40    1.24
   0 -24   1    1.12    0.83
   0 -24  -1    1.96    1.00
   0  24  -1    2.10    1.40
   0  24   1    1.81    0.80
   0  24  -1    0.93    0.79
  -1 -24  -1    1.03    1.00
   1 -24   1    0.01    0.75
   1 -24   1    0.63    1.19
  -1 -24  -1    0.21    0.71
  -1  24  -1   -0.65    1.12
   1  24   1    0.12    0.90
   1  24   1    0.85    0.76
  -1  24  -1    2.17    0.89
   2 -24   1   -0.06    1.07
  -2 -24  -1   -0.20    0.84
  -2  24  -1    1.25    1.15
   2  24   1    0.26    0.71
   2  24   1   -0.53    0.64
   2  24   1    0.33    0.58
   2  24   1   -1.55    0.80
   3 -24   1   -0.32    1.26
   3  24   1   -0.18    0.70
   3  24   1    0.80    0.46
   3  24   1    0.80    0.54
   3  24   1    1.10    1.07
   4  24   1    0.76    1.07
   3  25  -1   -0.13    1.00
   2 -25  -1    0.29    1.15
   2  25  -1   -0.61    1.34
   2  25  -1    0.07    0.53
   2  25  -1    0.75    0.70
   2  25  -1   -0.20    0.76
   1 -25  -1   -0.55    1.08
  -1 -25   1   -0.01    1.04
  -1 -25   1   -0.88    1.26
   1  25  -1    1.22    0.94
  -1  25   1    0.87    1.13
   1  25  -1   -0.95    0.86
   0 -25   1   -0.18    1.27
   0 -25  -1    0.06    0.81
   0 -25  -1    0.44    1.14
   0 -25   1    1.04    0.86
   0  25  -1    0.45    0.76
   0  25  -1    0.05    1.14
   1 -25   1   -0.87    0.69
  -1 -25  -1   -0.19    1.04
  -1 -25  -1    0.38    1.00
   1 -25   1   -0.81    1.28
   1  25   1    0.74    1.03
  -1  25  -1   -0.25    1.11
   1  25   1   -0.14    0.64
  -1  25  -1   -0.86    0.53
   2 -25   1   -0.21    1.40
  -2  25  -1    0.03    1.38
   2  25   1    0.22    0.89
   2  25   1    0.24    0.67
   2  25   1   -0.78    0.71
   2  25   1    0.72    0.67
   3  25   1   -0.45    0.47
   3  25   1    0.28    0.61
   3  25   1    0.40    0.70
   3  26  -1    1.67    1.07
   2 -26  -1   -0.82    1.01
   2  26  -1   -0.22    0.84
   2  26  -1    0.14    0.62
   2  26  -1    0.84    1.22
   2  26  -1    0.26    0.72
  -1 -26   1    0.23    1.36
  -1 -26   1   -0.17    0.89
   1 -26  -1   -0.61    1.01
   1  26  -1    1.34    1.27
   1  26  -1    0.69    0.83
   0 -26  -1    2.37    1.17
   0 -26   1    1.52    1.01
   0 -26  -1   -0.49    0.95
   0 -26   1   -1.18    1.76
   0  26  -1    1.26    1.38
   0  26  -1    1.79    0.88
  -1 -26  -1    0.83    1.02
  -1 -26  -1    1.10    1.16
   1 -26   1   -0.36    0.91
   1 -26   1   -1.15    1.10
  -1  26  -1    1.23    1.41
  -1  26  -1    0.58    0.89
   1  26   1   -0.23    0.66
   1  26   1   -0.37    0.91
   2 -26   1    1.33    1.50
   2  26   1    1.60    0.89
   2  26   1    3.25    1.18
   2  26   1    2.12    0.88
   2  26   1    0.57    1.18
   3  26   1    0.52    0.87
   2  27  -1   -0.15    0.69
   2  27  -1   -0.21    0.86
   2  27  -1    0.64    0.77
   1 -27  -1   -0.39    1.04
  -1 -27   1    0.46    1.43
   1  27  -1    1.38    0.99
   1  27  -1   -0.23    1.33
   0 -27   1    0.19    0.87
   0 -27   1   -1.22    1.29
   0 -27  -1    0.28    1.07
   0 -27  -1   -0.06    0.93
   0  27  -1   -0.13    0.87
   0  27  -1   -1.07    1.20
  -1 -27  -1    1.57    1.38
   1 -27   1   -0.31    1.82
  -1  27  -1    1.87    1.39
   1  27   1    0.15    1.24
  -1  27  -1   -1.14    0.68
   2  27   1   -0.07    0.86
   2  27   1    0.47    0.63
   2  27   1    0.85    0.92
   3  27   1    0.56    0.86
   2  28  -1   -2.51    0.74
   2  28  -1   -0.63    0.60
   2  28  -1   -0.83    0.66
   1 -28  -1   -0.49    1.00
   1  28  -1   -0.07    0.76
   0 -28  -1   -0.30    0.90
   0 -28   1   -2.35    1.26
   0  28  -1   -1.70    1.19
   0  28  -1    1.29    0.96
   0  28   1   -0.48    1.07
   1 -28   1   -2.57    1.66
  -1 -28  -1   -1.56    1.54
  -1  28  -1    0.12    1.63
   1  28   1   -0.51    1.20
   2  28   1    0.22    0.67
   1  29  -1   -0.15    0.87
   0 -29  -1   -0.06    1.26
   0 -29   1    1.99    2.08
   0  29   1    0.81    1.39
  -1  29  -1   -0.67    1.68
  -5   0   2   10.28    1.00
   4   0  -2   19.33    0.40
   4   0  -2   21.63    1.74
  -4   0   2   18.63    0.94
  -3   0   2   35.54    1.14
  -3   0   2   37.01    1.56
   3   0  -2   36.20    1.44
   3   0  -2   33.94    0.67
   2   0  -2    0.62    0.26
   2   0  -2   -0.14    0.18
   2   0  -2    0.36    0.29
   2   0  -2   -0.01    0.17
  -2   0   2    0.02    0.26
  -2   0   2    0.26    0.27
   2   0  -2   -0.02    0.20
  -2   0   2    0.23    0.26
  -2   0   2    0.01    0.32
   1   0  -2  966.71    6.97
  -1   0   2  985.17    7.42
   1   0  -2  962.65    7.13
   1   0  -2  974.12    7.38
  -1   0   2  987.64    7.19
  -1   0   2  986.85    6.75
  -1   0   2  987.55    7.12
   1   0  -2 1000.00    6.94
   0   0  -2  313.50    3.89
   0   0  -2  306.88    3.73
   0   0   2  311.11    3.75
   0   0   2  318.43    3.38
   0   0  -2  310.64    3.52
   0   0   2  308.77    3.87
   0   0  -2  306.74    3.51
   0   0   2  308.50    3.63
   1   0   2    4.48    0.73
   1   0   2    3.90    0.69
  -1   0  -2    3.53    0.59
   1   0   2    4.22    0.59
   1   0   2    3.83    0.51
  -1   0  -2    3.36    0.56
  -1   0  -2    4.27    0.84
  -2   0  -2   83.45    2.01
   2   0   2   81.98    2.14
   2   0   2   79.69    1.60
   2   0   2   78.73    1.98
  -2   0  -2   80.40    2.11
   2   0   2   79.25    2.25
   3   0   2   35.58    1.56
   3   0   2   35.32    1.61
  -3   0  -2   35.43    1.48
   3   0   2   36.86    1.46
   4   0   2   14.46    1.35
   4   0   2   16.68    1.11
  -4   0  -2   13.72    1.03
   4   0   2   14.49    1.39
   5   0   2   -0.02    0.41
   5   0   2    0.40    0.47
   6   0   2    2.69    0.79
   6   0   2    5.73    1.06
   7   0   2    0.35    0.49
   5  -1  -2    1.87    0.23
  -5  -1   2    1.53    0.48
   5  -1  -2    1.82    0.20
  -5   1   2    1.81    0.42
   5   1  -2    1.63    0.83
   4  -1  -2   -0.69    0.35
   4  -1  -2    0.30    0.11
  -4  -1   2    0.22    0.30
   4   1  -2   -0.35    0.42
  -4   1   2    0.12    0.26
   3  -1  -2    3.96    0.29
  -3  -1   2    4.95    0.65
   3  -1  -2    4.21    0.76
  -3   1   2    4.73    0.72
  -3   1   2    3.90    0.32
   3   1  -2    4.78    0.81
  -3   1   2    4.65    0.51
  -3   1   2    4.35    0.25
   3   1  -2    3.94    0.32
  -2  -1   2   12.77    0.60
   2  -1  -2   13.56    0.63
   2  -1  -2   12.95    0.60
  -2  -1   2   13.53    1.01
  -2  -1   2   12.71    0.75
   2  -1  -2   13.64    0.61
   2  -1  -2   13.44    0.75
  -2  -1   2   13.30    0.65
   2  -1  -2   14.00    0.60
  -2   1   2   14.33    0.66
   2   1  -2   13.48    0.61
   2   1  -2   13.74    0.64
   2   1  -2   13.52    0.77
  -2   1   2   13.13    0.62
  -2   1   2   12.83    0.73
  -2   1   2   13.18    0.64
   2   1  -2   12.49    0.58
   2   1  -2   12.40    0.97
   1  -1  -2   83.80    1.56
   1  -1  -2   82.70    1.70
   1  -1  -2   83.52    1.74
   1  -1  -2   83.72    1.36
  -1  -1   2   82.44    1.46
  -1  -1   2   87.85    1.85
  -1  -1   2   82.27    1.73
   1  -1  -2   86.15    1.56
  -1  -1   2   82.61    1.66
   1   1  -2   83.46    1.77
   1   1  -2   83.42    1.66
  -1   1   2   83.20    1.71
  -1   1   2   82.19    1.74
  -1   1   2   83.16    1.50
   1   1  -2   85.64    1.67
   1   1  -2   83.15    1.04
   1   1  -2   80.62    1.51
  -1   1   2   82.98    1.58
   0  -1   2  140.94    2.40
   0  -1   2  135.24    2.31
   0  -1   2  141.27    2.45
   0  -1  -2  139.18    2.49
   0  -1  -2  140.71    2.62
   0  -1   2  136.00    2.52
   0  -1  -2  141.09    2.29
   0  -1   2  140.29    2.14
   0   1   2  142.45    2.20
   0   1   2  141.88    2.56
   0   1  -2  137.82    2.40
   0   1   2  141.21    2.43
   0   1   2  137.59    2.24
   0   1  -2  141.75    2.54
   0   1  -2  141.07    2.25
   0   1  -2  141.45    2.23
  -1  -1  -2   15.31    0.88
   1  -1   2   16.71    1.09
  -1  -1  -2   16.02    1.09
  -1  -1  -2   15.50    0.90
   1  -1   2   17.34    0.86
   1  -1   2   15.79    0.87
   1  -1   2   15.78    0.99
   1   1   2   16.15    0.87
  -1   1  -2   15.38    0.96
   1   1   2   17.23    1.03
  -1   1  -2   16.02    0.90
   1   1   2   16.07    0.87
  -1   1  -2   16.20    1.13
   1   1   2   16.58    0.94
   2  -1   2    3.81    0.63
   2  -1   2    3.37    0.47
  -2  -1  -2    5.32    0.67
   2  -1   2    3.88    0.74
  -2  -1  -2    6.07    0.77
   2  -1   2    3.49    0.64
  -2   1  -2    7.29    0.88
   2   1   2    4.80    0.73
   2   1   2    4.73    0.57
   2   1   2    3.94    0.62
   2   1   2    3.56    0.49
  -2   1  -2    3.91    0.56
   3  -1   2    0.48    0.45
  -3  -1  -2    0.72    0.46
   3  -1   2    0.02    0.40
   3  -1   2    0.26    0.32
   3   1   2    0.08    0.21
   3   1   2    0.21    0.40
  -3   1  -2    1.07    0.43
   3   1   2    0.28    0.37
   4  -1   2    6.65    0.95
   4  -1   2    8.12    0.96
   4  -1   2    7.69    0.97
  -4  -1  -2    8.15    1.01
  -4   1  -2    7.82    1.00
   4   1   2    7.87    1.11
   4   1   2    6.70    0.91
   4   1   2    7.55    1.01
   5  -1   2    1.49    0.54
   5  -1   2    0.26    0.53
   5   1   2    0.61    0.54
   5   1   2    1.26    0.49
   6  -1   2    1.50    0.80
   6  -1   2    0.52    0.47
   6   1   2   -0.24    0.38
   6   1   2    0.14    0.51
   7  -1   2    0.54    0.49
   7   1   2    0.91    0.60
   6  -2  -2    1.13    0.23
   6  -2  -2    1.07    0.18
  -5  -2   2    0.45    0.40
   5  -2  -2    0.53    0.18
   5  -2  -2    0.83    0.21
  -5   2   2    1.34    0.38
   5   2  -2    0.63    0.69
  -4  -2   2    1.90    0.53
   4  -2  -2    2.73    0.30
   4   2  -2    2.62    0.74
   4   2  -2    2.18    0.20
  -4   2   2    2.42    0.41
   3  -2  -2    4.69    0.34
   3  -2  -2    6.93    0.56
  -3  -2   2    4.04    0.23
  -3  -2   2    3.71    0.62
   3  -2  -2    4.35    0.62
   3  -2  -2    4.37    0.32
  -3   2   2    4.23    0.65
   3   2  -2    4.60    0.76
  -3   2   2    4.49    0.46
  -3   2   2    4.58    0.44
   3   2  -2    4.56    0.29
  -3   2   2    5.31    0.43
   2  -2  -2   12.79    0.68
   2  -2  -2   13.66    0.68
  -2  -2   2   13.05    0.62
   2  -2  -2   13.55    0.67
  -2  -2   2   12.92    1.03
  -2  -2   2   12.07    0.78
   2  -2  -2   13.15    0.61
  -2  -2   2   13.56    0.68
   2  -2  -2   13.30    0.56
  -2   2   2   12.71    0.71
   2   2  -2   13.38    0.62
   2   2  -2   12.73    0.63
   2   2  -2   12.42    0.67
   2   2  -2   13.25    0.84
  -2   2   2   13.74    0.57
   2   2  -2   12.85    1.03
  -2   2   2   12.35    0.66
  -2   2   2   12.76    0.67
   1  -2  -2   41.29    1.19
  -1  -2   2   42.50    1.29
   1  -2  -2   40.13    1.19
  -1  -2   2   43.25    1.30
  -1  -2   2   44.19    1.12
  -1  -2   2   43.28    1.28
   1  -2  -2   42.49    1.29
   1  -2  -2   43.60    0.86
   1  -2  -2   40.10    1.01
  -1   2   2   38.59    1.26
   1   2  -2   40.37    1.32
  -1   2   2   42.84    1.19
   1   2  -2   43.67    0.81
   1   2  -2   41.15    1.14
   1   2  -2   41.03    1.32
  -1   2   2   43.54    1.32
   1   2  -2   43.33    1.24
   0  -2   2   25.61    1.08
   0  -2   2   26.00    1.19
   0  -2   2   25.31    0.98
   0  -2   2   26.84    1.10
   0  -2  -2   24.03    1.14
   0  -2   2   26.57    1.16
   0  -2  -2   25.72    1.11
   0  -2  -2   27.92    1.23
   0  -2  -2   25.87    1.02
   0   2  -2   27.63    1.25
   0   2  -2   26.41    1.03
   0   2   2   25.39    1.18
   0   2   2   25.30    1.10
   0   2  -2   26.12    1.00
   0   2  -2   25.25    1.08
   0   2   2   26.32    0.97
   0   2   2   25.84    1.00
  -1  -2  -2   17.45    1.02
   1  -2   2   17.81    1.09
  -1  -2  -2   19.46    1.03
   1  -2   2   18.01    0.90
   1  -2   2   18.41    1.01
  -1  -2  -2   19.01    1.11
   1  -2   2   17.63    1.12
  -1   2  -2   18.50    1.19
   1   2   2   17.67    1.11
  -1   2  -2   19.00    0.98
   1   2   2   19.75    0.95
  -1   2  -2   19.39    0.96
   1   2   2   18.04    1.09
  -1   2  -2   18.88    1.06
   1   2   2   19.55    1.06
   2  -2   2    8.73    0.93
  -2  -2  -2   10.99    1.03
   2  -2   2    7.34    0.88
   2  -2   2    6.44    0.80
  -2  -2  -2    8.54    0.81
   2  -2   2    7.28    0.73
  -2   2  -2    8.24    0.92
   2   2   2    8.70    0.97
   2   2   2    7.70    0.67
   2   2   2    5.08    0.74
   2   2   2    8.88    0.85
  -2   2  -2    8.34    0.80
  -3  -2  -2    5.22    0.84
   3  -2   2    2.79    0.71
   3  -2   2    4.05    0.66
   3  -2   2    4.99    0.83
   3   2   2    4.34    0.81
   3   2   2    2.78    0.55
  -3   2  -2    3.18    0.64
   3   2   2    4.19    0.74
   4  -2   2   -0.04    0.46
   4  -2   2    0.31    0.42
   4  -2   2   -0.21    0.28
  -4  -2  -2    0.05    0.41
   4   2   2   -0.07    0.37
   4   2   2   -0.73    0.38
  -4   2  -2   -0.21    0.35
   4   2   2   -0.24    0.35
   5  -2   2    1.89    0.70
   5  -2   2    1.37    0.53
   5   2   2    1.58    0.60
   5   2   2    1.53    0.57
   6  -2   2    0.75    0.63
   6  -2   2    0.45    0.35
   6   2   2   -0.18    0.47
   6   2   2   -0.16    0.37
   7  -2   2    0.22    0.69
   7   2   2    0.30    0.60
   6  -3  -2    0.08    0.17
   6  -3  -2   -0.16    0.18
   6   3  -2   -0.13    0.74
  -5  -3   2    0.88    0.52
   5  -3  -2    0.75    0.23
   5  -3  -2    0.54    0.22
   5   3  -2    1.14    0.62
  -4  -3   2    1.80    0.51
   4  -3  -2    2.20    0.34
   4   3  -2    1.91    0.27
  -4   3   2    2.25    0.32
   4   3  -2    2.34    0.82
  -3  -3   2    0.95    0.20
  -3  -3   2    1.17    0.36
   3  -3  -2    0.90    0.24
  -3  -3   2    0.90    0.37
   3  -3  -2    1.37    0.38
   3  -3  -2    0.80    0.23
   3  -3  -2    0.40    0.36
   3   3  -2    1.02    0.26
  -3   3   2    1.21    0.29
   3   3  -2    0.65    0.22
   3   3  -2    0.52    0.41
  -3   3   2    0.93    0.38
   3   3  -2    1.05    0.23
  -3   3   2    1.03    0.21
  -3   3   2    1.58    0.49
  -2  -3   2   -0.19    0.32
  -2  -3   2   -0.04    0.25
   2  -3  -2    0.16    0.27
   2  -3  -2   -0.18    0.22
   2  -3  -2   -0.37    0.19
   2  -3  -2    0.31    0.19
  -2  -3   2    0.55    0.42
   2  -3  -2    0.04    0.24
  -2  -3   2    0.17    0.35
  -2   3   2    0.50    0.30
   2   3  -2    0.28    0.37
   2   3  -2    0.20    0.28
  -2   3   2    0.22    0.30
  -2   3   2    0.19    0.26
   2   3  -2    0.28    0.32
   2   3  -2    0.02    0.26
   2   3  -2    0.30    0.28
   1  -3  -2    7.81    0.34
  -1  -3   2    9.89    0.89
   1  -3  -2    7.90    0.74
   1  -3  -2    6.91    0.62
   1  -3  -2    8.09    0.75
  -1  -3   2    8.05    0.82
   1  -3  -2    8.42    0.49
  -1  -3   2    8.72    0.77
  -1  -3   2    8.29    0.60
   1   3  -2    8.78    0.43
   1   3  -2    8.82    0.83
  -1   3   2   12.95    1.02
   1   3  -2    8.80    0.75
  -1   3   2    9.97    0.75
   1   3  -2    7.37    0.69
   1   3  -2    9.18    0.72
  -1   3   2   10.33    0.89
   0  -3  -2   21.55    0.88
   0  -3  -2   22.51    1.16
   0  -3   2   21.01    1.13
   0  -3   2   21.26    0.94
   0  -3   2   19.98    0.96
   0  -3  -2   20.52    0.95
   0  -3   2   20.80    1.05
   0  -3   2   20.62    1.00
   0  -3  -2   20.54    1.05
   0   3  -2   21.54    0.94
   0   3   2   21.63    1.16
   0   3   2   20.09    0.96
   0   3   2   20.35    1.05
   0   3   2   20.73    0.93
   0   3  -2   20.82    0.97
   0   3  -2   20.84    0.98
   0   3  -2   23.91    1.25
  -1  -3  -2    0.42    0.38
   1  -3   2   -0.06    0.37
   1  -3   2    1.24    0.41
  -1  -3  -2    0.81    0.62
  -1  -3  -2    1.10    0.38
   1  -3   2    0.84    0.37
  -1  -3  -2    0.84    0.50
   1  -3   2    1.46    0.55
  -1   3  -2    1.19    0.37
  -1   3  -2    0.78    0.32
  -1   3  -2    0.09    0.60
   1   3   2    1.17    0.46
   1   3   2    0.99    0.39
   1   3   2    0.48    0.28
  -1   3  -2    0.79    0.45
   1   3   2    0.22    0.53
  -2  -3  -2    7.86    0.84
   2  -3   2   10.89    1.06
   2  -3   2    8.30    1.01
   2  -3   2    8.37    0.80
  -2  -3  -2    8.60    0.91
   2  -3   2    8.92    0.80
   2   3   2    8.74    1.00
   2   3   2    8.56    0.84
  -2   3  -2    7.39    0.77
   2   3   2    9.02    0.99
  -2   3  -2    8.19    0.93
  -2   3  -2    9.51    0.94
   2   3   2    8.73    0.71
   3  -3   2    0.20    0.28
   3  -3   2    0.15    0.41
  -3  -3  -2    0.01    0.37
   3  -3   2   -0.21    0.33
   3   3   2   -0.49    0.28
   3   3   2   -0.09    0.35
   3   3   2    0.09    0.30
  -3   3  -2   -0.10    0.33
  -4  -3  -2    2.89    0.73
   4  -3   2    2.54    0.76
   4  -3   2    3.30    0.69
   4  -3   2    4.82    0.89
  -4   3  -2    3.44    0.75
   4   3   2    3.01    0.73
   4   3   2    2.11    0.56
   4   3   2    4.40    0.83
   5  -3   2   -0.33    0.49
   5  -3   2    0.16    0.37
   5   3   2   -0.32    0.33
   5   3   2   -0.12    0.42
   6  -3   2   -0.42    0.38
   6  -3   2   -0.07    0.61
   6   3   2   -0.16    0.42
   6   3   2    0.09    0.37
   7  -3   2    0.32    0.53
   7   3   2    0.13    0.51
   7  -4  -2    2.15    0.34
   7  -4  -2    1.89    0.29
   6  -4  -2    3.55    0.45
   6  -4  -2    3.47    0.48
   6   4  -2    3.47    1.17
   5  -4  -2    3.63    0.46
  -5  -4   2    3.41    0.77
   5  -4  -2    4.06    0.48
   5   4  -2    4.85    1.07
   5   4  -2    4.18    0.40
   4  -4  -2    1.74    0.25
   4  -4  -2    1.30    0.19
  -4  -4   2    0.59    0.39
   4  -4  -2    1.70    0.32
   4   4  -2    1.47    0.54
  -4   4   2    2.00    0.31
   4   4  -2    1.66    0.29
   3  -4  -2   30.27    1.18
  -3  -4   2   29.55    1.36
  -3  -4   2   29.34    1.19
   3  -4  -2   29.83    0.97
   3  -4  -2   30.76    0.99
   3   4  -2   28.95    1.48
   3   4  -2   30.10    0.93
  -3   4   2   29.70    1.01
   3   4  -2   29.68    0.90
  -3   4   2   28.29    1.17
   3   4  -2   28.42    0.94
   2  -4  -2    6.43    0.65
  -2  -4   2    6.49    0.38
  -2  -4   2    7.31    0.62
  -2  -4   2    5.94    0.74
   2  -4  -2    7.09    0.65
  -2  -4   2    6.39    0.78
   2  -4  -2    6.52    0.35
  -2  -4   2    5.67    0.77
   2   4  -2    6.48    0.90
   2   4  -2    6.65    0.64
  -2   4   2    7.38    0.56
   2   4  -2    6.99    0.65
  -2   4   2    6.28    0.66
   2   4  -2    7.61    0.90
   2   4  -2    6.00    0.58
  -2   4   2    7.98    0.78
  -1  -4   2   11.50    0.71
   1  -4  -2   11.28    0.83
  -1  -4   2   12.12    0.98
   1  -4  -2   11.44    0.77
  -1  -4   2   10.29    0.93
   1  -4  -2   10.88    0.70
  -1   4   2   13.08    0.86
   1   4  -2   12.18    0.83
  -1   4   2   10.27    0.76
   1   4  -2   11.38    0.52
   1   4  -2   10.99    0.76
   1   4  -2   11.83    0.87
  -1   4   2   11.46    1.00
   1   4  -2   10.73    0.79
   0  -4   2    4.47    0.70
   0  -4   2    4.14    0.72
   0  -4   2    3.68    0.53
   0  -4  -2    4.21    0.70
   0  -4   2    3.58    0.64
   0  -4   2    3.24    0.54
   0  -4  -2    3.30    0.40
   0  -4  -2    3.70    0.66
   0  -4  -2    4.24    0.57
   0  -4  -2    2.23    0.52
   0   4  -2    3.04    0.52
   0   4  -2    3.48    0.54
   0   4   2    2.34    0.66
   0   4  -2    4.56    0.61
   0   4   2    3.75    0.64
   0   4   2    3.55    0.55
   0   4  -2    3.72    0.74
   0   4   2    2.60    0.48
   0   4  -2    3.06    0.64
   1  -4   2   53.77    1.66
   1  -4   2   53.56    1.67
  -1  -4  -2   51.69    1.52
   1  -4   2   53.82    1.58
  -1  -4  -2   53.43    1.80
  -1  -4  -2   54.13    1.78
   1  -4   2   52.75    1.86
  -1  -4  -2   52.38    1.61
   1  -4   2   53.09    1.74
   1   4   2   55.83    1.73
  -1   4  -2   53.91    1.62
  -1   4  -2   51.60    1.74
  -1   4  -2   52.34    1.54
   1   4   2   54.73    1.84
  -1   4  -2   52.18    1.83
   1   4   2   51.39    1.70
   1   4   2   52.89    1.55
   2  -4   2   37.52    1.45
   2  -4   2   36.73    1.67
  -2  -4  -2   38.31    1.53
   2  -4   2   39.97    1.57
  -2  -4  -2   39.27    1.48
   2  -4   2   39.16    1.31
  -2   4  -2   40.51    1.64
   2   4   2   38.77    1.62
   2   4   2   38.76    1.45
   2   4   2   38.17    1.20
   2   4   2   37.55    1.56
  -2   4  -2   39.80    1.57
  -2   4  -2   37.45    1.40
   3  -4   2    2.06    0.54
   3  -4   2    2.51    0.65
  -3  -4  -2    3.62    0.64
   3  -4   2    1.50    0.61
   3   4   2    1.71    0.49
   3   4   2    3.27    0.70
  -3   4  -2    1.76    0.50
   3   4   2    2.44    0.55
  -3   4  -2    2.49    0.64
   4  -4   2   13.94    1.02
   4  -4   2   13.53    1.43
   4  -4   2   15.16    1.37
  -4  -4  -2   14.29    1.34
  -4   4  -2   12.91    1.38
   4   4   2   17.20    1.51
   4   4   2   10.81    1.08
   4   4   2   13.64    1.30
   5  -4   2    8.01    1.04
   5  -4   2   14.19    1.83
   5   4   2    9.89    1.21
   6  -4   2    5.95    1.01
   6  -4   2    5.00    1.24
   6   4   2    2.06    0.71
   6   4   2    5.50    0.98
   7  -4   2    0.59    0.60
   7   4   2    0.28    0.58
   7  -5  -2   -0.03    0.22
   7  -5  -2    0.30    0.30
  -6  -5   2    0.41    0.55
   6  -5  -2    0.17    0.25
   6  -5  -2   -0.32    0.26
   6   5  -2   -0.30    0.66
   5  -5  -2    0.95    0.31
   5  -5  -2    0.60    0.29
  -5  -5   2    1.04    0.56
   5   5  -2    1.15    0.73
   5   5  -2    0.69    0.22
   4  -5  -2    2.82    0.40
   4  -5  -2    3.82    0.50
  -4  -5   2    3.30    0.73
   4  -5  -2    3.30    0.50
   4  -5  -2    4.14    0.51
   4   5  -2    3.17    0.42
   4   5  -2    4.14    0.93
  -4   5   2    4.23    0.49
   3  -5  -2    5.30    0.59
  -3  -5   2    5.95    0.84
   3  -5  -2    4.89    0.73
   3  -5  -2    4.82    0.53
  -3  -5   2    3.68    0.69
   3   5  -2    3.42    0.77
  -3   5   2    4.55    0.64
   3   5  -2    5.63    0.65
   3   5  -2    5.12    0.55
  -3   5   2    5.95    0.69
   3   5  -2    4.78    0.55
  -2  -5   2    2.59    0.35
   2  -5  -2    3.46    0.30
  -2  -5   2    2.62    0.44
   2  -5  -2    2.91    0.62
   2  -5  -2    2.89    0.46
  -2  -5   2    2.27    0.61
  -2  -5   2    2.46    0.60
   2  -5  -2    2.62    0.50
  -2   5   2    2.47    0.37
   2   5  -2    2.46    0.46
   2   5  -2    3.06    0.65
   2   5  -2    1.65    0.41
   2   5  -2    1.99    0.58
  -2   5   2    2.72    0.53
   1  -5  -2    0.26    0.33
  -1  -5   2    0.13    0.46
  -1  -5   2    0.25    0.44
  -1  -5   2   -0.38    0.20
  -1  -5   2    0.35    0.40
   1  -5  -2    0.49    0.40
   1   5  -2    0.04    0.37
  -1   5   2    0.73    0.45
   1   5  -2    0.29    0.35
   1   5  -2    0.23    0.21
  -1   5   2   -0.18    0.36
  -1   5   2    0.49    0.40
   1   5  -2    0.57    0.49
   1   5  -2    0.36    0.35
   0  -5  -2    5.11    0.81
   0  -5   2    4.05    0.79
   0  -5   2    3.38    0.48
   0  -5  -2    3.82    0.66
   0  -5  -2    3.51    0.45
   0  -5  -2    3.67    0.55
   0  -5   2    3.79    0.57
   0  -5   2    3.70    0.72
   0  -5   2    2.47    0.62
   0  -5  -2    3.07    0.57
   0   5  -2    3.71    0.69
   0   5  -2    3.72    0.82
   0   5  -2    2.32    0.43
   0   5   2    3.98    0.65
   0   5   2    4.07    0.56
   0   5   2    4.54    0.68
   0   5  -2    4.30    0.63
   0   5   2    4.26    0.80
   0   5  -2    3.87    0.63
   1  -5   2    2.10    0.50
  -1  -5  -2    1.54    0.47
   1  -5   2    2.31    0.56
  -1  -5  -2    1.40    0.50
   1  -5   2    2.38    0.71
  -1  -5  -2    1.25    0.58
  -1  -5  -2    2.50    0.53
   1  -5   2    1.58    0.55
   1  -5   2    1.84    0.45
  -1   5  -2    2.83    0.65
   1   5   2    2.07    0.43
  -1   5  -2    1.24    0.39
   1   5   2    3.39    0.72
   1   5   2    1.69    0.53
  -1   5  -2    3.17    0.74
  -1   5  -2    1.14    0.40
   1   5   2    0.85    0.35
   2  -5   2   15.34    0.97
  -2  -5  -2   14.05    0.90
   2  -5   2   15.27    1.05
   2  -5   2   13.84    1.36
   2  -5   2   14.82    0.97
  -2  -5  -2   14.21    1.02
   2   5   2   15.12    1.06
  -2   5  -2   15.33    0.96
  -2   5  -2   15.03    0.95
   2   5   2   15.02    1.07
   2   5   2   15.68    1.34
   2   5   2   16.82    0.98
  -2   5  -2   15.47    1.07
   2   5   2   14.20    0.81
   3  -5   2    0.51    0.50
   3  -5   2    0.76    0.42
  -3  -5  -2    0.93    0.45
   3  -5   2    0.44    0.48
  -3   5  -2    0.61    0.43
   3   5   2    0.66    0.49
  -3   5  -2    0.66    0.48
   3   5   2    0.45    0.52
   3   5   2    0.70    0.39
  -4  -5  -2   -0.06    0.43
   4  -5   2    0.65    0.61
   4  -5   2    0.61    0.41
  -4   5  -2    0.11    0.50
   4   5   2    0.09    0.31
   4   5   2   -0.01    0.38
   5  -5   2    0.99    0.57
   5  -5   2    0.36    0.62
   5   5   2    0.94    0.56
   5   5   2    0.78    0.61
   6  -5   2    0.05    0.78
   6  -5   2   -0.22    0.40
   6   5   2    0.22    0.49
   6   5   2   -0.27    0.47
   7  -5   2   -0.06    0.51
   7   5   2    0.77    0.71
   7  -6  -2    0.82    0.39
   7  -6  -2    0.99    0.38
   6  -6  -2   -0.06    0.21
   6  -6  -2   -0.06    0.28
  -6  -6   2   -0.77    0.52
   6   6  -2   -0.16    0.83
   5  -6  -2    1.01    0.35
  -5  -6   2    0.72    0.60
   5  -6  -2    1.05    0.38
   5   6  -2    1.18    0.32
   5   6  -2    2.03    0.93
   4  -6  -2    1.88    0.42
  -4  -6   2    2.11    0.36
  -4  -6   2    2.86    0.72
   4  -6  -2    2.88    0.53
   4  -6  -2    2.62    0.51
   4  -6  -2    2.02    0.42
  -4   6   2    2.78    0.51
   4   6  -2    2.54    0.41
   4   6  -2    1.82    0.26
   4   6  -2    1.91    0.39
   4   6  -2    0.68    0.55
   3  -6  -2    5.96    0.83
   3  -6  -2    5.86    0.68
   3  -6  -2    4.88    0.65
  -3  -6   2    6.01    0.87
  -3  -6   2    4.27    0.77
   3   6  -2    5.27    0.69
  -3   6   2    5.36    0.66
  -3   6   2    6.45    0.70
   3   6  -2    5.05    0.58
   3   6  -2    5.46    0.63
   3   6  -2    5.26    0.89
   2  -6  -2    1.42    0.44
  -2  -6   2    1.80    0.60
   2  -6  -2    1.28    0.52
  -2  -6   2    0.45    0.42
  -2  -6   2    0.60    0.30
   2  -6  -2    1.10    0.38
   2  -6  -2    1.63    0.20
   2   6  -2    0.38    0.36
   2   6  -2    1.47    0.40
   2   6  -2    0.88    0.41
  -2   6   2    1.50    0.51
   2   6  -2    1.27    0.51
   2   6  -2    1.67    0.56
  -2   6   2    1.02    0.26
  -1  -6   2   -0.10    0.24
   1  -6  -2   -0.03    0.32
  -1  -6   2    0.73    0.48
   1  -6  -2    0.48    0.55
  -1  -6   2   -0.42    0.50
   1  -6  -2    0.54    0.42
  -1  -6   2    0.21    0.47
   1   6  -2   -0.10    0.36
  -1   6   2    0.44    0.38
   1   6  -2    0.04    0.35
   1   6  -2   -0.01    0.30
  -1   6   2    0.10    0.44
  -1   6   2   -0.04    0.20
  -1   6   2    0.86    0.37
   1   6  -2    0.12    0.21
   1   6  -2   -0.66    0.38
   0  -6   2    0.25    0.47
   0  -6   2    0.09    0.28
   0  -6  -2    0.54    0.31
   0  -6  -2    0.08    0.33
   0  -6  -2   -0.46    0.35
   0  -6   2    0.39    0.46
   0  -6  -2   -0.14    0.47
   0  -6   2    0.34    0.50
   0  -6   2   -0.25    0.27
   0  -6  -2    0.34    0.26
   0   6  -2    0.21    0.32
   0   6   2    0.64    0.44
   0   6  -2    1.26    0.63
   0   6  -2    0.17    0.26
   0   6   2    0.71    0.31
   0   6   2   -0.04    0.26
   0   6  -2    0.08    0.36
   0   6  -2   -0.62    0.31
   0   6   2    0.28    0.48
   1  -6   2    7.80    0.97
  -1  -6  -2    8.98    0.87
  -1  -6  -2    8.50    1.04
   1  -6   2    8.66    1.08
   1  -6   2    9.52    0.92
   1  -6   2    7.30    0.78
  -1  -6  -2    9.78    0.90
   1  -6   2    8.89    0.89
  -1  -6  -2    8.60    0.98
   1   6   2    8.40    1.10
  -1   6  -2    9.58    0.91
  -1   6  -2    9.02    1.10
  -1   6  -2    9.33    1.01
   1   6   2    9.68    0.87
   1   6   2    8.15    0.88
   1   6   2   11.41    1.18
   1   6   2    7.26    0.81
  -1   6  -2   10.09    0.98
   2  -6   2    7.90    1.00
   2  -6   2    7.08    0.84
  -2  -6  -2    6.76    0.79
  -2  -6  -2    6.49    0.94
   2  -6   2    8.21    0.87
   2  -6   2    6.22    0.98
  -2   6  -2    6.88    0.84
   2   6   2    7.98    0.97
   2   6   2    5.75    0.72
   2   6   2    8.47    1.03
  -2   6  -2    7.77    0.99
   2   6   2    6.00    0.63
   2   6   2    6.97    0.96
  -2   6  -2    6.47    0.77
  -3  -6  -2    9.55    1.11
   3  -6   2    8.96    1.10
   3  -6   2    7.94    0.99
   3  -6   2    5.16    0.94
  -3   6  -2    7.84    0.95
   3   6   2    7.98    1.03
   3   6   2    9.09    1.10
   3   6   2    9.58    1.19
  -3   6  -2    7.43    1.05
  -4  -6  -2    2.57    0.68
   4  -6   2    1.81    0.56
   4  -6   2    2.48    0.98
  -4   6  -2    0.83    0.61
   4   6   2    0.72    0.45
   4   6   2    1.13    0.57
   5  -6   2    0.52    0.70
   5  -6   2    0.00    0.37
   5   6   2    1.04    0.58
   5   6   2    0.49    0.48
   6  -6   2    2.55    1.04
   6  -6   2    0.78    0.57
   6   6   2    2.38    0.78
   6   6   2    0.35    0.56
   7  -6   2   -0.31    0.43
   7   6   2   -0.21    0.44
   7  -7  -2   -0.37    0.25
   7  -7  -2    0.24    0.38
   7   7  -2    0.49    0.99
  -6  -7   2    0.04    0.59
   6  -7  -2   -0.12    0.37
   6  -7  -2    0.08    0.26
   6   7  -2    0.14    0.60
  -5  -7   2    0.14    0.46
   5  -7  -2    0.22    0.24
   5  -7  -2    0.27    0.29
   5  -7  -2   -0.09    0.25
   5   7  -2    0.36    0.27
   5   7  -2   -0.75    0.53
   4  -7  -2    1.31    0.41
  -4  -7   2    0.36    0.33
   4  -7  -2    0.69    0.35
   4  -7  -2    0.83    0.46
   4  -7  -2    0.82    0.38
  -4  -7   2    1.49    0.68
  -4   7   2    1.05    0.39
   4   7  -2    0.69    0.31
   4   7  -2    0.98    0.32
   4   7  -2    1.59    0.78
   4   7  -2    0.96    0.34
   3  -7  -2    0.58    0.36
   3  -7  -2    1.10    0.37
  -3  -7   2    1.42    0.56
  -3  -7   2    0.96    0.50
   3  -7  -2    0.16    0.26
   3   7  -2    1.10    0.36
  -3   7   2    0.77    0.39
   3   7  -2    1.03    0.58
   3   7  -2    0.78    0.38
  -3   7   2    1.03    0.35
   3   7  -2    0.63    0.42
  -2  -7   2    0.03    0.48
  -2  -7   2    0.44    0.25
   2  -7  -2    0.71    0.43
   2  -7  -2   -0.45    0.30
   2  -7  -2    0.40    0.28
  -2  -7   2   -0.16    0.39
   2   7  -2   -0.32    0.33
   2   7  -2    0.18    0.36
   2   7  -2    0.00    0.29
   2   7  -2    0.06    0.34
  -2   7   2    0.09    0.18
   2   7  -2   -0.32    0.39
  -2   7   2   -0.29    0.33
   1  -7  -2    3.12    0.57
  -1  -7   2    3.13    0.55
  -1  -7   2    2.97    0.67
   1  -7  -2    2.23    0.56
   1  -7  -2    3.90    0.77
  -1  -7   2    1.33    0.67
  -1   7   2    2.88    0.72
  -1   7   2    3.24    0.54
   1   7  -2    3.28    0.73
   1   7  -2    3.20    0.59
  -1   7   2    3.32    0.71
  -1   7   2    2.70    0.50
   1   7  -2    3.22    0.62
   1   7  -2    2.80    0.44
   1   7  -2    4.42    0.73
   0  -7  -2    9.92    0.62
   0  -7  -2    8.98    1.01
   0  -7   2    9.49    0.93
   0  -7   2    8.69    1.31
   0  -7   2   10.38    1.12
   0  -7  -2    8.12    0.87
   0  -7  -2   10.65    1.06
   0  -7   2    9.18    0.86
   0   7   2    8.82    0.87
   0   7   2    9.96    1.04
   0   7  -2   10.89    1.05
   0   7  -2    7.78    1.08
   0   7  -2    9.09    1.00
   0   7   2   10.42    1.13
   0   7  -2    8.70    0.84
   0   7   2    8.27    0.52
   0   7  -2    9.67    0.92
   0   7   2    9.13    0.94
  -1  -7  -2    0.60    0.42
   1  -7   2    1.57    0.53
  -1  -7  -2    0.60    0.42
   1  -7   2    0.31    0.43
   1  -7   2    1.45    0.57
   1  -7   2    1.11    0.42
  -1  -7  -2    0.51    0.39
   1  -7   2    0.42    0.62
  -1   7  -2    0.89    0.39
  -1   7  -2    0.14    0.39
   1   7   2    0.48    0.40
  -1   7  -2    0.60    0.36
   1   7   2    0.69    0.42
   1   7   2    0.75    0.40
   1   7   2    0.65    0.47
   1   7   2    0.67    0.44
   2  -7   2    3.01    0.72
   2  -7   2    3.33    0.90
   2  -7   2    3.79    0.62
  -2  -7  -2    3.74    0.69
   2  -7   2    3.45    0.58
  -2  -7  -2    2.78    0.68
   2   7   2    2.88    0.66
   2   7   2    1.69    0.61
  -2   7  -2    4.07    0.74
  -2   7  -2    3.68    0.63
   2   7   2    2.86    0.50
   2   7   2    4.41    0.84
   2   7   2    2.93    0.51
   2   7   2    3.43    0.70
  -2   7  -2    3.94    0.78
  -3  -7  -2   -0.03    0.45
   3  -7   2    0.55    0.53
   3  -7   2   -0.47    0.59
   3  -7   2    0.46    0.38
  -3   7  -2   -0.04    0.33
   3   7   2    0.15    0.45
   3   7   2   -0.18    0.32
   3   7   2    0.37    0.45
  -3   7  -2    0.54    0.52
   4  -7   2    0.11    0.34
   4  -7   2   -0.27    0.61
  -4  -7  -2    0.22    0.47
  -4   7  -2   -0.41    0.55
   4   7   2   -0.40    0.34
   4   7   2    0.58    0.49
   5  -7   2    0.44    0.39
   5  -7   2    0.19    0.74
   5   7   2   -0.16    0.47
   5   7   2   -0.45    0.44
   6  -7   2    0.30    0.82
   6  -7   2   -0.26    0.42
   6   7   2   -0.14    0.40
   6   7   2   -0.40    0.56
   7  -7   2    0.65    0.61
   7   7   2   -0.13    0.55
   7  -8  -2    0.81    0.43
   7  -8  -2    0.98    0.51
   7   8  -2    2.30    1.13
   6  -8  -2   -0.07    0.33
  -6  -8   2    0.32    0.66
   6  -8  -2   -0.17    0.27
   6   8  -2   -0.46    0.78
  -5  -8   2    3.04    0.88
   5  -8  -2    3.08    0.63
   5  -8  -2    2.71    0.58
   5  -8  -2    2.88    0.52
   5   8  -2    2.08    0.96
   5   8  -2    3.29    0.55
  -4  -8   2    8.95    0.85
   4  -8  -2    8.19    0.88
  -4  -8   2    9.56    1.25
   4  -8  -2    9.51    0.94
   4  -8  -2    9.49    1.00
   4  -8  -2    8.14    0.99
   4   8  -2    8.95    0.88
   4   8  -2    9.62    0.89
   4   8  -2    8.68    1.31
  -4   8   2   11.70    1.15
  -3  -8   2    1.17    0.54
   3  -8  -2    0.56    0.44
   3  -8  -2    0.81    0.39
   3  -8  -2    0.16    0.37
   3  -8  -2    1.38    0.44
   3   8  -2    1.46    0.58
   3   8  -2    1.79    0.46
   3   8  -2    0.99    0.46
   3   8  -2    1.50    0.49
  -3   8   2    0.59    0.37
  -3   8   2    0.66    0.41
  -2  -8   2   15.76    1.65
   2  -8  -2   17.01    0.99
   2  -8  -2   16.71    1.23
  -2  -8   2   18.73    1.30
   2  -8  -2   19.35    1.22
  -2  -8   2   17.63    1.02
  -2   8   2   16.49    0.56
   2   8  -2   18.77    1.20
   2   8  -2   17.92    1.53
   2   8  -2   16.65    0.92
  -2   8   2   18.36    1.18
   2   8  -2   15.84    1.77
   2   8  -2   14.63    1.40
   1  -8  -2    6.25    0.77
   1  -8  -2    6.12    0.87
  -1  -8   2    7.67    1.01
  -1  -8   2    6.83    0.89
   1  -8  -2    6.67    0.99
  -1  -8   2    6.13    1.05
   1   8  -2    6.28    0.80
   1   8  -2    8.49    1.00
   1   8  -2    6.07    0.84
  -1   8   2    5.88    0.83
   1   8  -2    7.45    1.02
   1   8  -2    5.56    0.80
  -1   8   2    6.40    0.76
  -1   8   2    6.59    0.26
  -1   8   2    7.71    0.99
   0  -8   2   28.77    1.38
   0  -8  -2   27.83    0.91
   0  -8  -2   27.69    1.26
   0  -8  -2   28.44    1.48
   0  -8   2   25.81    1.22
   0  -8  -2   27.89    1.63
   0  -8   2   25.98    1.62
   0  -8   2   27.67    1.36
   0   8  -2   27.28    1.45
   0   8   2   28.38    0.93
   0   8   2   28.64    1.52
   0   8   2   26.16    1.48
   0   8  -2   26.41    1.32
   0   8   2   27.09    1.33
   0   8   2   26.97    1.27
   0   8  -2   29.20    1.55
   0   8  -2   26.61    1.24
   0   8  -2   27.22    1.30
   1  -8   2    4.89    0.81
  -1  -8  -2    4.78    0.83
   1  -8   2    3.39    0.62
  -1  -8  -2    4.74    0.66
   1  -8   2    3.56    0.69
   1  -8   2    3.88    1.08
  -1  -8  -2    3.86    0.81
   1  -8   2    3.80    0.69
   1   8   2    4.40    0.68
   1   8   2    3.51    0.65
  -1   8  -2    3.84    0.69
   1   8   2    4.20    0.63
   1   8   2    4.55    0.83
  -1   8  -2    3.35    0.88
   1   8   2    3.38    0.77
  -1   8  -2    4.28    0.70
   2  -8   2    3.91    1.02
   2  -8   2    6.83    0.88
  -2  -8  -2    3.14    0.74
   2  -8   2    3.10    0.60
  -2  -8  -2    4.86    0.74
   2  -8   2    5.55    0.94
   2  -8   2    5.71    0.87
   2   8   2    3.72    0.66
  -2   8  -2    4.57    0.87
   2   8   2    3.12    0.74
   2   8   2    4.89    0.89
   2   8   2    4.41    0.64
   2   8   2    3.54    0.55
   2   8   2    5.14    0.87
  -2   8  -2    6.37    0.94
  -2   8  -2    7.20    0.92
   3  -8   2   19.77    1.94
   3  -8   2   22.07    1.45
  -3  -8  -2   18.58    1.29
   3  -8   2   22.33    1.36
  -3   8  -2   22.53    1.58
   3   8   2   21.33    1.34
  -3   8  -2   21.77    1.20
   3   8   2   19.64    1.32
   3   8   2   20.76    1.74
   3   8   2   19.17    1.80
   4  -8   2   -0.16    0.60
   4  -8   2    0.04    0.39
  -4  -8  -2   -0.15    0.48
   4   8   2    0.11    0.34
  -4   8  -2    0.51    0.54
  -4   8  -2    0.62    0.55
   4   8   2   -0.49    0.46
   5  -8   2   -0.20    0.78
   5  -8   2    0.05    0.48
   5   8   2    0.66    0.48
   5   8   2    0.17    0.55
   6  -8   2    2.28    1.03
   6  -8   2    2.28    0.83
   6   8   2    2.44    0.88
   6   8   2    0.72    0.58
   7  -8   2    1.58    0.85
   7   8   2    0.09    0.60
   7  -9  -2    0.11    0.53
   7  -9  -2   -0.06    0.41
   7   9  -2   -0.44    1.05
   6  -9  -2    0.02    0.34
  -6  -9   2   -0.32    0.65
   6  -9  -2   -0.17    0.30
   6   9  -2    0.22    0.75
   5  -9  -2    1.42    0.53
   5  -9  -2    2.73    0.59
   5  -9  -2    2.59    0.58
  -5  -9   2    2.06    0.77
   5   9  -2    1.10    0.45
   5   9  -2    1.46    0.32
   5   9  -2    1.21    0.72
   4  -9  -2    2.14    0.55
   4  -9  -2    1.36    0.51
  -4  -9   2    1.20    0.66
   4  -9  -2    2.95    0.65
   4   9  -2    3.02    0.58
   4   9  -2    3.05    0.65
   4   9  -2    1.14    0.66
   3  -9  -2    0.51    0.45
  -3  -9   2    0.11    0.53
   3  -9  -2    0.85    0.38
   3  -9  -2    0.82    0.44
  -3  -9   2    0.88    0.53
   3  -9  -2   -0.32    0.42
   3   9  -2    0.69    0.51
   3   9  -2    0.49    0.33
  -3   9   2    0.07    0.40
   3   9  -2    0.34    0.53
  -3   9   2    0.79    0.31
   3   9  -2    0.47    0.36
  -2  -9   2    0.47    0.72
   2  -9  -2    1.42    0.44
  -2  -9   2    1.29    0.49
  -2  -9   2    0.37    0.45
   2  -9  -2    0.24    0.50
   2  -9  -2    1.09    0.55
   2   9  -2    0.98    0.54
   2   9  -2    1.04    0.54
   2   9  -2    0.43    0.36
  -2   9   2    0.70    0.52
   2   9  -2    0.80    0.49
  -2   9   2    1.16    0.24
  -1  -9   2    0.29    0.46
   1  -9  -2    0.29    0.61
   1  -9  -2    0.52    0.35
   1  -9  -2   -0.30    0.40
  -1  -9   2   -0.20    0.32
  -1  -9   2    0.91    0.81
  -1   9   2   -0.04    0.27
  -1   9   2    0.70    0.40
   1   9  -2    0.00    0.24
   1   9  -2    0.28    0.46
   1   9  -2   -0.15    0.42
  -1   9   2    0.48    0.16
  -1   9   2   -0.06    0.37
   1   9  -2    0.17    0.36
   1   9  -2    0.02    0.37
   1   9  -2   -0.43    0.30
   0  -9  -2    0.64    0.39
   0  -9  -2    1.01    0.60
   0  -9  -2    0.89    0.33
   0  -9   2    1.93    0.59
   0  -9   2    1.15    0.63
   0  -9  -2    0.79    0.59
   0  -9   2    0.53    0.39
   0  -9   2    1.13    0.75
   0   9  -2    0.52    0.49
   0   9  -2    1.05    0.55
   0   9   2    0.84    0.59
   0   9   2    1.91    0.65
   0   9  -2    1.82    0.54
   0   9   2    0.17    0.33
   0   9   2    1.61    0.69
   0   9  -2    0.90    0.44
   0   9   2    0.92    0.29
   0   9  -2    1.08    0.50
   1  -9   2    0.95    0.44
  -1  -9  -2    1.61    0.63
   1  -9   2    1.45    0.51
   1  -9   2    0.65    0.62
  -1  -9  -2    0.27    0.35
  -1  -9  -2    0.67    0.44
   1  -9   2    1.31    0.58
   1  -9   2    1.07    0.49
   1   9   2    1.01    0.41
  -1   9  -2    1.49    0.48
  -1   9  -2    0.38    0.48
   1   9   2    1.52    0.68
  -1   9  -2    1.12    0.44
   1   9   2    0.64    0.39
   1   9   2    0.70    0.53
   1   9   2    0.12    0.36
   2  -9   2   15.72    1.42
   2  -9   2   13.16    1.14
   2  -9   2   15.86    1.54
   2  -9   2   12.34    1.14
  -2  -9  -2   11.67    1.14
   2  -9   2    8.69    1.34
  -2  -9  -2   11.02    1.26
   2   9   2   14.02    1.45
  -2   9  -2   11.93    1.20
   2   9   2   13.62    1.32
  -2   9  -2   13.60    0.97
   2   9   2   12.81    1.27
   2   9   2   13.43    0.93
   2   9   2   13.19    1.41
   2   9   2   12.40    1.08
  -2   9  -2   12.03    1.39
   3  -9   2    0.43    0.40
  -3  -9  -2    0.58    0.55
   3  -9   2   -0.94    0.55
   3  -9   2    0.02    0.49
  -3   9  -2   -0.51    0.37
   3   9   2    0.10    0.42
   3   9   2    0.49    0.55
  -3   9  -2    0.39    0.45
   3   9   2    0.88    0.54
   3   9   2   -0.57    0.41
   4  -9   2    2.99    1.07
   4  -9   2    1.86    0.64
   4   9   2    2.19    0.74
  -4   9  -2    2.31    0.94
   4   9   2    2.02    0.66
   5  -9   2    2.92    1.04
   5  -9   2    3.08    0.87
   5   9   2    2.28    0.84
   5   9   2    1.80    0.70
   6  -9   2   -0.32    0.91
   6  -9   2   -0.06    0.46
   6   9   2    0.60    0.58
   6   9   2    0.02    0.47
   7  -9   2    0.27    0.64
   7   9   2   -0.15    0.54
   7 -10  -2    0.10    0.49
   7 -10  -2    0.06    0.48
  -6 -10   2    0.00    0.70
   6 -10  -2   -0.17    0.28
   6 -10  -2   -0.02    0.37
   6  10  -2    0.32    0.81
   5 -10  -2    2.13    0.60
   5 -10  -2    1.18    0.51
  -5 -10   2    1.52    0.74
   5 -10  -2    2.85    0.63
   5  10  -2    0.61    0.40
   5  10  -2    1.05    0.41
   5  10  -2    2.37    0.82
   4 -10  -2    1.44    0.52
   4 -10  -2    0.12    0.38
  -4 -10   2    1.85    0.75
   4 -10  -2    0.77    0.45
   4  10  -2    0.11    0.60
   4  10  -2    1.18    0.47
   3 -10  -2    0.43    0.54
   3 -10  -2    2.37    0.61
   3 -10  -2    1.90    0.63
   3 -10  -2    0.95    0.49
  -3 -10   2    2.23    0.68
  -3 -10   2    2.20    0.76
   3  10  -2    1.00    0.54
  -3  10   2    2.21    0.41
   3  10  -2    1.96    0.61
  -3  10   2    2.29    0.64
   3  10  -2    1.45    0.51
   3  10  -2    1.69    0.70
   2 -10  -2    6.84    0.61
  -2 -10   2    5.31    1.06
  -2 -10   2    3.82    0.81
  -2 -10   2    5.74    0.83
   2 -10  -2    6.67    0.91
   2 -10  -2    5.07    0.76
   2 -10  -2    6.07    0.89
   2 -10  -2    8.24    1.21
   2  10  -2    6.39    0.35
   2  10  -2    5.59    0.95
  -2  10   2    6.85    0.94
   2  10  -2    6.86    1.10
   2  10  -2    3.76    0.78
   2  10  -2    5.75    0.33
   2  10  -2    6.22    0.86
  -1 -10   2    3.35    0.70
   1 -10  -2    4.44    0.96
   1 -10  -2    4.29    0.86
   1 -10  -2    4.62    0.76
  -1 -10   2    5.86    0.95
  -1 -10   2    5.65    1.21
   1  10  -2    4.54    0.95
  -1  10   2    4.38    0.41
  -1  10   2    4.39    0.72
  -1  10   2    6.49    1.06
   1  10  -2    4.31    0.69
   1  10  -2    3.84    0.74
   1  10  -2    4.16    0.66
   1  10  -2    4.89    0.96
  -1  10   2    5.47    0.85
   0 -10   2    4.76    0.76
   0 -10   2    5.32    0.86
   0 -10  -2    6.48    0.91
   0 -10   2    4.42    1.16
   0 -10  -2    4.56    0.89
   0 -10   2    5.93    0.88
   0  10   2    6.17    0.95
   0  10  -2    4.13    0.83
   0  10   2    5.99    0.66
   0  10  -2    6.39    0.91
   0  10  -2    6.49    0.86
   0  10  -2    6.30    1.06
   0  10   2    6.78    0.92
   0  10   2    8.47    1.18
   0  10  -2    5.03    0.78
   1 -10   2    8.11    1.02
   1 -10   2    5.69    1.15
  -1 -10  -2    7.55    1.00
   1 -10   2    7.96    1.03
   1 -10   2    6.29    0.95
  -1 -10  -2    7.31    1.06
  -1 -10  -2    6.94    0.87
   1 -10   2    7.83    0.97
  -1 -10  -2    9.81    1.12
  -1  10  -2    6.36    1.06
  -1  10  -2    7.45    1.01
  -1  10  -2    8.64    1.04
   1  10   2    5.93    0.85
   1  10   2    7.19    0.81
   1  10   2    8.22    0.99
   1  10   2    8.23    0.99
   1  10   2    9.02    1.26
   1  10   2    8.02    1.09
   2 -10   2    1.70    0.62
   2 -10   2    1.50    0.59
   2 -10   2    1.14    0.48
   2 -10   2    1.27    0.49
  -2 -10  -2    1.58    0.60
   2 -10   2    2.63    0.92
  -2 -10  -2    0.11    0.56
  -2  10  -2    1.38    0.51
   2  10   2    0.79    0.39
   2  10   2    1.56    0.52
   2  10   2    2.52    0.73
  -2  10  -2    0.86    0.48
   2  10   2    1.82    0.46
   2  10   2    0.24    0.47
  -2  10  -2    1.89    0.68
   2  10   2    1.59    0.69
  -3 -10  -2    6.64    1.17
   3 -10   2    4.74    0.89
   3 -10   2    4.44    1.19
   3 -10   2    5.16    1.02
   3  10   2    3.90    1.05
   3  10   2    3.53    0.18
   3  10   2    4.85    0.90
   3  10   2    7.52    1.35
  -3  10  -2    5.39    0.86
  -3  10  -2    5.12    0.95
  -3  10  -2    7.35    1.24
   3  10   2    4.94    0.98
   4 -10   2    1.70    0.99
   4 -10   2    1.23    0.61
   4  10   2    0.86    0.57
   4  10   2    2.47    0.82
   5 -10   2    0.44    0.74
   5 -10   2    1.31    0.58
   5  10   2    2.64    0.80
   5  10   2    0.92    0.60
   6 -10   2   -0.88    0.96
   6 -10   2    0.96    0.59
   6  10   2    0.93    0.59
   6  10   2   -0.35    0.55
   7 -10   2    0.60    0.63
   7  10   2    0.35    0.59
   7 -11  -2    1.03    0.53
   7 -11  -2   -0.48    0.46
   6 -11  -2    0.04    0.38
  -6 -11   2    0.13    0.73
   6 -11  -2   -0.26    0.39
   6 -11  -2   -0.14    0.43
   6  11  -2    1.08    0.87
  -5 -11   2    1.90    0.82
   5 -11  -2    1.05    0.48
   5 -11  -2    0.52    0.46
   5 -11  -2    0.30    0.47
   5  11  -2    0.61    0.38
   5  11  -2    0.49    0.73
   5  11  -2    0.06    0.35
   4 -11  -2    0.00    0.35
   4 -11  -2    0.64    0.53
   4 -11  -2    0.26    0.41
  -4 -11   2   -0.22    0.44
   4  11  -2   -0.15    0.37
   4  11  -2    0.25    0.58
  -3 -11   2    0.54    0.61
   3 -11  -2    0.58    0.51
   3 -11  -2    0.79    0.70
   3 -11  -2    0.92    0.47
   3 -11  -2    0.73    0.46
  -3 -11   2    0.40    0.51
   3  11  -2   -0.25    0.49
  -3  11   2    0.98    0.34
   3  11  -2    0.44    0.57
   3  11  -2    1.30    0.67
   3  11  -2    0.19    0.38
  -2 -11   2    0.31    0.35
   2 -11  -2    1.10    0.35
   2 -11  -2    0.90    0.50
   2 -11  -2    0.45    0.36
  -2 -11   2    0.99    0.85
  -2 -11   2    1.22    0.60
   2 -11  -2    0.72    0.48
   2 -11  -2   -0.13    0.49
   2  11  -2    0.41    0.45
   2  11  -2    0.56    0.54
   2  11  -2    0.60    0.20
   2  11  -2    0.71    0.24
   2  11  -2    0.51    0.41
   2  11  -2    0.05    0.44
   1 -11  -2   -0.31    0.62
  -1 -11   2    0.68    0.44
  -1 -11   2    0.18    0.36
   1 -11  -2    0.29    0.38
   1 -11  -2    0.67    0.44
  -1 -11   2    0.50    0.69
   1 -11  -2   -0.36    0.49
   1  11  -2    0.25    0.39
  -1  11   2    0.51    0.23
   1  11  -2   -0.81    0.40
   1  11  -2    0.04    0.30
  -1  11   2    0.52    0.40
   1  11  -2    0.81    0.50
  -1  11   2    0.61    0.40
  -1  11   2    1.44    0.58
   1  11  -2    0.33    0.54
   0 -11  -2    0.21    0.48
   0 -11  -2    0.02    0.32
   0 -11   2    0.27    0.80
   0 -11  -2   -0.27    0.29
   0 -11   2    0.39    0.43
   0 -11   2    0.15    0.33
   0 -11   2    0.14    0.33
   0  11  -2    0.87    0.46
   0  11   2   -0.43    0.26
   0  11  -2    0.12    0.55
   0  11   2    0.41    0.49
   0  11   2    0.62    0.48
   0  11  -2    0.00    0.29
   0  11   2   -0.26    0.24
   1 -11   2    1.81    0.91
   1 -11   2    1.29    0.51
  -1 -11  -2    1.80    0.53
  -1 -11  -2    1.13    0.48
   1 -11   2    1.96    0.62
   1 -11   2    1.65    0.53
  -1 -11  -2    0.16    0.45
  -1 -11  -2    1.76    0.67
  -1  11  -2    2.59    0.68
  -1  11  -2    0.43    0.51
   1  11   2    0.72    0.60
   1  11   2    1.08    0.42
  -1  11  -2    1.52    0.58
   1  11   2    1.83    0.57
   1  11   2    0.20    0.34
   1  11   2    2.46    0.63
   2 -11   2    2.10    0.76
   2 -11   2    4.40    0.87
  -2 -11  -2    3.51    0.90
   2 -11   2    2.14    0.95
  -2 -11  -2    4.16    0.87
   2 -11   2    3.96    0.71
   2 -11   2    4.85    0.99
  -2  11  -2    4.69    0.96
   2  11   2    3.00    0.66
  -2  11  -2    4.86    0.77
   2  11   2    1.91    0.97
   2  11   2    2.50    0.78
   2  11   2    3.53    0.80
   2  11   2    3.84    0.71
   2  11   2    4.00    0.91
  -2  11  -2    2.71    0.75
  -3 -11  -2    1.56    0.72
   3 -11   2   -0.37    0.81
   3 -11   2    1.34    0.60
   3 -11   2    1.75    0.74
  -3  11  -2    0.28    0.57
   3  11   2    0.77    0.59
  -3  11  -2    1.14    0.51
   3  11   2    1.17    0.29
   3  11   2    2.33    0.70
  -3  11  -2    0.70    0.58
   3  11   2    0.42    0.61
   3  11   2    0.87    0.23
   4 -11   2    1.45    1.01
   4 -11   2    1.38    0.67
   4  11   2    1.04    0.60
   4  11   2    0.93    0.51
   4  11   2    0.99    0.77
   5 -11   2   -0.51    0.80
   5 -11   2   -0.29    0.41
   5  11   2    0.07    0.43
   5  11   2    0.74    0.59
   6 -11   2    0.83    1.08
   6 -11   2    0.10    0.58
   6  11   2    0.42    0.47
   6  11   2   -0.71    0.55
   7 -12  -2    0.42    0.50
   7 -12  -2    0.39    0.49
   6 -12  -2   -0.28    0.40
   6 -12  -2    0.47    0.45
   6 -12  -2   -0.22    0.42
  -6 -12   2   -0.33    0.64
   6  12  -2   -0.68    0.93
   5 -12  -2    0.08    0.54
  -5 -12   2    1.00    0.86
   5 -12  -2    0.10    0.37
   5 -12  -2   -0.04    0.44
   5  12  -2    0.25    0.42
   5  12  -2   -0.04    0.38
   5  12  -2   -0.13    0.67
   4 -12  -2    3.95    0.83
   4 -12  -2    4.91    1.00
   4 -12  -2    3.63    0.72
  -4 -12   2    1.87    0.73
   4  12  -2    2.71    0.87
   4  12  -2    3.73    0.71
   3 -12  -2   -0.22    0.71
  -3 -12   2   -0.65    0.66
   3 -12  -2   -0.30    0.32
   3 -12  -2    0.00    0.48
   3 -12  -2   -0.17    0.34
  -3 -12   2    0.07    0.64
  -3  12   2    0.32    0.28
   3  12  -2    0.45    0.55
   3  12  -2    0.35    0.56
   3  12  -2   -0.22    0.47
   3  12  -2    0.44    0.40
   2 -12  -2    4.09    0.58
   2 -12  -2    5.01    0.85
  -2 -12   2    4.55    1.16
  -2 -12   2    3.04    0.82
   2 -12  -2    4.87    0.87
  -2 -12   2    5.67    0.93
   2 -12  -2    5.29    1.11
   2 -12  -2    5.43    0.95
   2  12  -2    4.79    0.87
   2  12  -2    5.03    1.01
   2  12  -2    3.83    0.91
   2  12  -2    6.10    1.10
   2  12  -2    4.71    0.55
   2  12  -2    4.47    0.56
   1 -12  -2   -0.01    0.41
  -1 -12   2    0.35    0.41
   1 -12  -2    0.30    0.73
   1 -12  -2    0.51    0.38
  -1 -12   2   -0.11    0.71
   1 -12  -2    0.06    0.51
  -1 -12   2    0.89    0.44
   1  12  -2   -0.23    0.28
   1  12  -2   -0.06    0.62
  -1  12   2    0.15    0.40
  -1  12   2    0.11    0.21
   1  12  -2    0.57    0.57
   1  12  -2    0.15    0.48
   1  12  -2   -0.02    0.37
  -1  12   2    0.65    0.42
  -1  12   2    0.53    0.53
   0 -12   2    4.39    0.81
   0 -12  -2    4.22    0.83
   0 -12   2    4.13    0.84
   0 -12   2    3.16    1.05
   0 -12  -2    4.46    0.98
   0 -12   2    3.56    0.75
   0 -12  -2    3.07    0.73
   0  12  -2    4.66    0.80
   0  12  -2    3.84    1.08
   0  12   2    4.14    0.88
   0  12   2    5.36    0.90
   0  12   2    4.37    0.94
   0  12  -2    4.06    0.74
   0  12   2    4.32    0.60
  -1 -12  -2    2.22    0.64
   1 -12   2    1.13    0.91
  -1 -12  -2    1.27    0.68
  -1 -12  -2    1.45    0.56
   1 -12   2    1.10    0.50
   1 -12   2    1.42    0.56
   1 -12   2    1.08    0.55
   1  12   2    1.29    0.49
  -1  12  -2    1.03    0.70
   1  12   2    1.18    0.47
   1  12   2    1.56    0.72
   1  12   2    0.70    0.44
  -1  12  -2   -0.16    0.23
   1  12   2    1.87    0.58
   2 -12   2    1.13    0.49
   2 -12   2    3.29    1.32
   2 -12   2    1.98    0.67
   2 -12   2    1.66    0.58
  -2 -12  -2    1.67    0.63
  -2 -12  -2    2.06    0.83
  -2  12  -2    1.21    0.57
   2  12   2    1.97    0.74
   2  12   2    1.13    0.59
  -2  12  -2    2.40    0.79
   2  12   2    1.95    0.64
   2  12   2    2.18    0.87
   2  12   2    0.65    0.39
   2  12   2    2.64    0.58
   3 -12   2    5.79    1.05
  -3 -12  -2    6.39    1.11
   3 -12   2    7.41    1.61
   3  12   2    5.39    0.59
  -3  12  -2    6.80    1.33
   3  12   2    7.47    1.23
   3  12   2    9.79    1.44
   3  12   2    7.61    0.73
   3  12   2    5.96    0.99
   4 -12   2   -0.74    0.33
   4 -12   2   -0.51    0.84
   4  12   2   -0.46    0.50
   4  12   2    0.29    0.57
   4  12   2   -0.38    0.38
   5 -12   2    0.40    0.98
   5 -12   2    0.18    0.53
   5  12   2   -0.21    0.41
   5  12   2    1.30    0.73
   6 -12   2    0.57    1.32
   6 -12   2    0.26    0.69
   6  12   2   -0.09    0.70
   6  12   2    0.25    0.57
   7 -13  -2   -0.07    0.55
   7 -13  -2    0.37    0.56
  -6 -13   2   -0.86    0.72
   6 -13  -2   -0.04    0.41
   6 -13  -2   -0.26    0.48
   6 -13  -2    0.18    0.53
   6  13  -2    2.67    1.27
   5 -13  -2    0.80    0.57
  -5 -13   2    1.16    0.83
   5 -13  -2    0.97    0.53
   5 -13  -2    0.07    0.38
   5  13  -2    0.74    0.55
   5  13  -2    0.43    0.42
   5  13  -2    0.98    0.90
   4 -13  -2    0.13    0.44
   4 -13  -2    0.75    0.67
  -4 -13   2    0.89    0.69
   4 -13  -2    0.32    0.49
   4  13  -2   -0.42    0.55
   4  13  -2    0.04    0.38
  -3 -13   2   -0.34    0.57
   3 -13  -2    0.23    0.44
   3 -13  -2   -0.15    0.42
  -3 -13   2   -0.95    0.40
   3 -13  -2    0.04    0.35
   3  13  -2   -0.16    0.35
   3  13  -2   -0.32    0.56
   3  13  -2    0.25    0.59
   2 -13  -2    0.04    0.26
  -2 -13   2    0.48    0.82
  -2 -13   2    0.68    0.49
   2 -13  -2   -0.03    0.41
  -2 -13   2    0.26    0.38
   2 -13  -2    0.01    0.41
   2 -13  -2    0.00    0.46
   2 -13  -2   -0.92    0.63
   2  13  -2   -0.29    0.58
   2  13  -2    0.70    0.53
   2  13  -2   -0.69    0.61
   2  13  -2    0.32    0.25
   2  13  -2    0.21    0.41
   2  13  -2   -0.02    0.23
  -1 -13   2    1.18    0.95
   1 -13  -2    0.35    0.34
   1 -13  -2    1.18    0.61
   1 -13  -2    0.97    0.51
  -1 -13   2    0.55    0.49
  -1 -13   2    0.10    0.42
  -1  13   2    0.27    0.48
  -1  13   2   -0.02    0.40
   1  13  -2   -0.01    0.37
   1  13  -2    0.13    0.39
  -1  13   2    0.69    0.40
   1  13  -2   -0.04    0.53
   1  13  -2    0.64    0.63
   1  13  -2    0.12    0.67
  -1  13   2    0.74    0.31
   0 -13  -2    1.80    0.64
   0 -13  -2    1.29    0.59
   0 -13   2    0.92    0.86
   0 -13   2    0.85    0.48
   0 -13  -2    2.00    0.84
   0 -13   2    1.79    0.62
   0 -13   2    0.81    0.52
   0  13  -2    0.79    0.65
   0  13   2    2.07    0.61
   0  13  -2    1.76    0.65
   0  13  -2    3.27    0.74
   0  13   2    2.32    0.77
   0  13   2    1.54    0.43
   0  13   2    2.06    0.69
   0  13   2    1.81    0.66
   1 -13   2    0.30    0.39
   1 -13   2    0.42    0.56
  -1 -13  -2   -0.30    0.51
   1 -13   2   -0.54    0.35
   1 -13   2    0.67    0.94
  -1 -13  -2   -0.32    0.40
   1  13   2   -0.97    0.28
   1  13   2    0.55    0.60
  -1  13  -2    0.35    0.62
  -1  13  -2    0.15    0.32
   1  13   2   -0.47    0.37
   1  13   2   -0.29    0.30
   1  13   2   -0.16    0.37
  -2 -13  -2    1.03    0.63
   2 -13   2    0.96    0.54
   2 -13   2    0.29    0.54
  -2 -13  -2   -0.27    0.53
   2 -13   2    0.33    0.47
   2 -13   2    0.85    0.84
   2  13   2    0.64    0.48
   2  13   2    1.35    0.66
   2  13   2    0.22    0.37
  -2  13  -2    0.69    0.51
  -2  13  -2    0.48    0.56
   2  13   2    0.51    0.39
   2  13   2    0.56    0.70
  -3 -13  -2    0.82    0.69
   3 -13   2    0.08    0.49
   3 -13   2    1.09    0.89
   3  13   2   -0.32    0.55
   3  13   2   -0.09    0.20
   3  13   2   -0.68    0.46
   3  13   2    0.59    0.53
   3  13   2   -0.06    0.26
  -3  13  -2    0.15    0.63
   4 -13   2   -0.07    0.89
   4 -13   2   -0.26    0.47
   4  13   2    0.76    0.68
   4  13   2    0.47    0.49
   4  13   2   -0.87    0.46
   5 -13   2    1.03    1.25
   5 -13   2    0.04    0.51
   5  13   2    0.30    0.58
   5  13   2    0.93    0.69
   6 -13   2    0.70    1.26
   6 -13   2    0.52    0.76
   6  13   2   -0.22    0.68
   6  13   2    0.04    0.49
   6 -14  -2    0.10    0.49
  -6 -14   2    0.09    0.91
   6 -14  -2    0.23    0.59
   6  14  -2    1.87    1.13
  -5 -14   2    1.93    0.91
   5 -14  -2    0.13    0.57
   5 -14  -2    1.49    0.60
   5 -14  -2    1.26    0.72
   5  14  -2    0.67    0.63
   5  14  -2    0.86    0.91
   5  14  -2    1.60    0.57
   4 -14  -2    1.97    0.72
  -4 -14   2    1.04    0.72
   4 -14  -2    2.61    0.77
   4 -14  -2    0.80    0.58
   4  14  -2    1.33    0.64
   4  14  -2    0.84    0.76
   4  14  -2    1.63    0.67
  -3 -14   2    2.23    0.90
   3 -14  -2    2.29    0.31
   3 -14  -2    2.27    0.82
   3 -14  -2    2.89    0.83
   3 -14  -2    2.04    0.65
  -3 -14   2    0.50    0.59
   3  14  -2    2.12    0.73
   3  14  -2    0.98    0.75
   3  14  -2    2.24    0.87
  -2 -14   2    6.45    1.54
   2 -14  -2    3.19    0.77
   2 -14  -2    2.18    0.75
   2 -14  -2    4.18    0.63
   2 -14  -2    4.87    1.19
   2 -14  -2    2.21    0.75
  -2 -14   2    4.04    0.90
  -2 -14   2    3.53    0.92
   2  14  -2    3.73    0.60
   2  14  -2    3.55    0.92
   2  14  -2    3.86    1.24
   2  14  -2    3.28    0.54
   2  14  -2    3.41    0.92
   2  14  -2    4.18    0.89
  -1 -14   2    5.92    0.97
   1 -14  -2    6.93    1.04
   1 -14  -2    5.40    1.12
  -1 -14   2    6.23    1.07
  -1 -14   2    6.47    1.45
  -1  14   2    7.16    1.12
  -1  14   2    6.51    1.07
   1  14  -2    7.56    1.11
   1  14  -2    6.27    0.90
  -1  14   2    9.39    1.38
  -1  14   2    6.00    0.66
   1  14  -2    8.09    1.27
   1  14  -2    3.85    1.06
   0 -14   2    6.16    1.09
   0 -14  -2    7.02    1.07
   0 -14  -2    6.69    1.28
   0 -14   2    6.81    1.01
   0 -14   2    6.31    1.62
   0 -14   2    6.85    1.12
   0  14  -2   10.02    1.57
   0  14   2    8.84    1.23
   0  14   2    7.42    1.18
   0  14  -2    5.07    0.89
   0  14   2    5.63    0.83
   0  14   2    4.64    1.04
   0  14  -2    8.63    1.19
   0  14   2    6.75    1.05
   1 -14   2    4.62    1.39
   1 -14   2    4.88    1.02
  -1 -14  -2    3.46    1.05
   1 -14   2    3.78    0.76
   1 -14   2    4.72    0.92
   1 -14   2    4.48    0.96
  -1 -14  -2    2.00    0.69
  -1  14  -2    4.00    1.04
  -1  14  -2    3.78    0.89
   1  14   2    3.15    0.79
   1  14   2    2.87    0.74
   1  14   2    3.85    0.99
   1  14   2    4.79    0.84
   1  14   2    6.37    0.99
   2 -14   2    3.78    0.94
   2 -14   2    3.09    0.75
  -2 -14  -2    2.55    0.96
   2 -14   2    2.98    0.74
   2 -14   2    1.30    1.13
  -2 -14  -2    1.59    0.77
   2  14   2    3.32    0.77
  -2  14  -2    3.72    0.96
   2  14   2    2.47    0.63
   2  14   2    3.15    1.02
   2  14   2    3.58    0.83
  -2  14  -2    4.48    1.29
   2  14   2    4.41    0.96
  -3 -14  -2    1.18    0.69
   3 -14   2    2.58    1.26
   3 -14   2    1.64    0.70
   3  14   2    2.01    0.82
  -3  14  -2    3.23    1.07
   3  14   2    2.32    0.51
   3  14   2    3.57    0.89
   3  14   2    3.16    0.91
   3  14   2    1.95    0.45
   4 -14   2    1.37    0.74
   4 -14   2    1.04    1.07
   4  14   2    2.34    0.93
   4  14   2   -0.38    0.62
   4  14   2    2.34    0.78
   5 -14   2    3.25    0.94
   5 -14   2    2.56    1.36
   5  14   2    1.70    0.68
   5  14   2    1.66    0.82
   6 -14   2    2.33    0.93
   6 -14   2   -0.33    1.37
   6  14   2    0.55    0.72
   6  14   2    0.54    0.69
   6 -15  -2    0.36    0.71
   6 -15  -2    0.32    0.49
  -6 -15   2   -0.54    0.87
   6  15  -2    0.34    0.98
   5 -15  -2    0.42    0.62
  -5 -15   2    0.86    0.85
   5 -15  -2    0.48    0.57
   5  15  -2    0.60    0.62
   5  15  -2    0.51    0.84
   5  15  -2   -0.36    0.45
   4 -15  -2    0.10    0.48
   4 -15  -2   -0.54    0.41
  -4 -15   2   -0.05    0.63
   4 -15  -2    0.82    0.66
   4  15  -2    0.53    0.53
   4  15  -2    0.08    0.67
   4  15  -2   -0.18    0.52
   3 -15  -2   -0.51    0.40
  -3 -15   2   -0.25    0.57
  -3 -15   2   -0.41    0.71
   3 -15  -2   -0.20    0.57
   3 -15  -2    0.40    0.54
   3  15  -2   -0.73    0.47
   3  15  -2    0.02    0.59
   3  15  -2   -0.72    0.58
  -2 -15   2    0.39    0.60
  -2 -15   2    0.32    0.65
   2 -15  -2   -0.33    0.47
  -2 -15   2    0.19    0.86
   2 -15  -2   -0.01    0.33
   2 -15  -2   -0.06    0.45
   2 -15  -2    0.32    0.59
   2  15  -2    0.54    0.71
   2  15  -2   -0.28    0.25
   2  15  -2    0.07    0.46
   2  15  -2    0.53    0.34
   2  15  -2    0.11    0.52
   2  15  -2   -0.09    0.92
  -2  15   2   -0.11    0.27
  -1 -15   2    0.97    0.59
   1 -15  -2    0.38    0.42
   1 -15  -2    0.71    0.59
  -1 -15   2    0.42    0.52
   1 -15  -2    0.59    0.65
  -1 -15   2   -1.00    0.91
   1 -15  -2    0.28    0.44
  -1  15   2    0.75    0.66
   1  15  -2    0.45    0.51
  -1  15   2    0.81    0.50
  -1  15   2   -0.16    0.44
  -1  15   2    0.59    0.32
   1  15  -2   -0.41    0.50
   1  15  -2    0.27    0.61
   1  15  -2    0.40    0.41
   0 -15  -2    0.51    0.53
   0 -15   2   -0.94    0.84
   0 -15  -2    1.24    0.72
   0 -15   2    0.03    0.49
   0 -15   2   -0.21    0.33
   0 -15   2    0.20    0.44
   0  15  -2    0.64    0.73
   0  15   2   -0.22    0.42
   0  15  -2    0.81    0.51
   0  15   2    0.01    0.40
   0  15   2   -0.17    0.36
   0  15  -2    0.18    0.49
   0  15   2    0.50    0.69
   0  15   2   -0.38    0.38
   1 -15   2    0.65    0.57
   1 -15   2   -0.73    0.77
   1 -15   2   -0.29    0.42
  -1 -15  -2   -0.37    0.52
  -1 -15  -2    0.49    0.56
   1 -15   2    0.63    0.50
   1  15   2    0.37    0.57
  -1  15  -2    0.61    0.58
   1  15   2   -0.25    0.39
  -1  15  -2    0.36    0.72
   1  15   2    0.23    0.45
   1  15   2    0.01    0.47
   1  15   2   -0.12    0.41
   2 -15   2   -0.50    0.72
   2 -15   2   -0.08    0.43
   2 -15   2   -0.42    0.41
  -2 -15  -2    0.58    0.67
   2  15   2   -0.11    0.61
   2  15   2   -0.05    0.55
  -2  15  -2    0.46    0.63
   2  15   2   -0.59    0.32
   2  15   2    0.03    0.53
   2  15   2   -0.01    0.58
  -3 -15  -2    0.49    0.80
   3 -15   2    1.46    0.77
   3 -15   2    0.82    1.00
   3  15   2    0.46    0.63
  -3  15  -2    1.08    0.91
   3  15   2    0.36    0.40
   3  15   2    0.76    0.63
   3  15   2    0.72    0.35
   3  15   2    0.99    0.59
   4 -15   2   -0.76    1.07
   4 -15   2    0.31    0.61
   4  15   2   -0.29    0.48
   4  15   2   -0.49    0.69
   4  15   2    0.56    0.72
   5 -15   2    0.61    0.72
   5 -15   2   -0.11    1.19
   5  15   2   -0.14    0.47
   5  15   2   -0.21    0.88
   5  15   2    0.43    0.76
   6 -15   2   -0.94    0.51
   6 -15   2   -0.34    1.43
   6  15   2   -0.02    0.58
   6  15   2   -0.66    0.62
   6 -16  -2   -0.55    0.63
   6 -16  -2   -0.15    0.50
   5 -16  -2    0.07    0.58
  -5 -16   2    0.01    0.77
   5 -16  -2    0.35    0.75
   5  16  -2   -0.59    0.61
   5  16  -2   -0.35    0.51
   4 -16  -2    0.06    0.58
   4 -16  -2    0.12    0.49
  -4 -16   2    0.60    0.69
   4  16  -2    0.65    0.71
   4  16  -2   -0.17    0.67
   4  16  -2    0.26    0.53
   3 -16  -2    1.15    0.76
  -3 -16   2    1.11    0.68
   3 -16  -2    1.19    0.70
   3  16  -2   -0.69    0.62
   3  16  -2    0.87    0.77
   3  16  -2    0.53    0.66
  -2 -16   2    0.19    0.84
   2 -16  -2    0.19    0.39
  -2 -16   2    1.47    0.75
   2 -16  -2    0.95    0.63
   2 -16  -2    0.67    0.62
   2  16  -2    0.81    0.49
  -2  16   2    0.77    0.36
   2  16  -2    0.60    0.40
   2  16  -2    1.08    0.63
   2  16  -2    0.62    0.89
   2  16  -2    0.63    0.65
   1 -16  -2   -0.39    0.58
   1 -16  -2   -0.74    0.39
   1 -16  -2   -0.08    0.44
  -1 -16   2   -0.29    0.55
  -1 -16   2   -0.95    0.83
  -1 -16   2    0.53    0.59
   1  16  -2    0.15    0.41
   1  16  -2    0.16    0.45
  -1  16   2    0.36    0.56
   1  16  -2   -0.26    0.50
   1  16  -2    0.20    0.78
  -1  16   2   -0.17    0.52
  -1  16   2    0.01    0.29
   0 -16   2    0.58    0.50
   0 -16   2    0.63    0.54
   0 -16  -2    0.04    0.49
   0 -16  -2    1.15    0.75
   0 -16   2    0.42    0.56
   0 -16   2    0.34    0.90
   0  16   2    0.65    0.52
   0  16  -2    0.57    0.54
   0  16   2    0.23    0.49
   0  16  -2   -0.26    0.60
   0  16   2    0.48    0.41
   0  16   2    0.15    0.65
   0  16   2    1.10    0.61
  -1 -16  -2    3.39    1.01
   1 -16   2    1.85    0.83
   1 -16   2   -1.31    0.85
   1 -16   2    2.55    0.78
   1 -16   2    1.46    0.73
   1  16   2    3.13    1.03
   1  16   2    1.62    0.69
   1  16   2    1.54    0.65
  -1  16  -2    1.28    0.73
  -1  16  -2    1.24    0.96
   1  16   2    2.16    0.76
   1  16   2    2.04    0.77
  -2 -16  -2    0.85    0.71
   2 -16   2   -0.55    0.45
   2 -16   2    1.14    1.17
   2 -16   2    0.61    0.48
   2  16   2    0.73    0.49
   2  16   2   -0.28    0.43
   2  16   2    0.17    0.64
   2  16   2    0.18    0.43
   2  16   2   -0.31    0.36
  -2  16  -2    0.18    0.77
  -3 -16  -2    0.48    0.78
   3 -16   2    0.35    0.62
   3 -16   2    0.07    0.54
   3 -16   2    0.15    0.97
  -3  16  -2    1.29    1.11
   3  16   2    0.29    0.44
   3  16   2    0.15    0.55
   3  16   2   -0.31    0.50
   3  16   2   -0.17    0.34
   3  16   2    1.09    0.69
   4 -16   2    0.08    0.69
   4 -16   2   -0.76    0.99
   4  16   2   -0.14    0.54
   4  16   2    0.12    0.47
   4  16   2    0.17    0.77
   5 -16   2   -0.89    0.58
   5 -16   2    0.96    1.39
   5  16   2    0.55    0.62
   5  16   2   -0.29    0.72
   5  16   2    0.44    0.97
   6 -16   2   -0.71    0.63
   6  16   2    0.29    0.68
   6 -17  -2    0.02    0.66
   6 -17  -2    0.54    0.81
   6  17  -2    0.19    0.54
  -5 -17   2    0.21    0.88
   5 -17  -2   -0.16    0.55
   5 -17  -2    0.84    0.91
   5  17  -2    0.22    0.81
   5  17  -2    0.32    0.66
  -4 -17   2   -0.95    0.50
   4 -17  -2    1.07    0.66
   4 -17  -2    0.04    0.69
   4  17  -2   -0.58    0.74
  -3 -17   2    1.30    0.87
   3 -17  -2    0.66    0.68
   3 -17  -2    1.54    0.78
   3  17  -2    1.36    0.98
   3  17  -2    0.21    0.80
  -2 -17   2    1.78    0.95
   2 -17  -2    4.08    0.72
   2 -17  -2    2.24    0.90
  -2 -17   2    3.49    1.08
   2 -17  -2    4.17    1.01
   2  17  -2    3.94    1.12
   2  17  -2    3.38    0.64
   2  17  -2    2.37    0.89
  -2  17   2    3.00    0.58
   2  17  -2    3.12    0.72
  -1 -17   2   -0.41    1.00
   1 -17  -2    1.21    0.65
   1 -17  -2    1.51    0.75
  -1 -17   2    1.25    0.67
   1 -17  -2    0.97    0.68
   1  17  -2    0.37    0.88
   1  17  -2    0.74    0.75
   1  17  -2    0.29    0.77
   1  17  -2    2.26    0.92
  -1  17   2    2.25    0.53
   0 -17  -2    9.10    1.48
   0 -17   2    6.12    1.59
   0 -17   2    2.33    0.85
   0 -17   2    5.13    1.09
   0 -17  -2    4.18    1.06
   0  17  -2    5.15    1.28
   0  17   2    4.50    1.11
   0  17   2    6.94    1.32
   0  17   2    4.09    0.76
   0  17   2    5.35    1.12
   0  17  -2    5.50    1.14
   1 -17   2   -0.12    0.52
  -1 -17  -2    0.11    0.65
   1 -17   2    0.75    0.50
   1 -17   2    0.32    0.64
   1 -17   2    2.66    1.36
   1  17   2    1.15    0.70
   1  17   2    0.47    0.53
  -1  17  -2    0.20    0.73
   1  17   2    0.14    0.66
   1  17   2    1.40    0.62
   1  17   2    1.08    0.67
   2 -17   2    1.99    0.86
  -2 -17  -2    1.09    0.86
   2 -17   2    1.90    1.42
   2 -17   2    2.46    0.77
   2  17   2    1.41    0.66
   2  17   2    1.84    0.76
   2  17   2    2.53    0.84
   2  17   2    1.78    0.65
   2  17   2    2.67    0.69
  -2  17  -2    1.67    0.93
  -3 -17  -2   -0.53    0.79
   3 -17   2   -0.83    1.05
   3 -17   2   -0.81    0.57
   3 -17   2    0.54    0.50
   3  17   2    0.19    0.34
  -3  17  -2    2.29    1.13
   3  17   2    0.02    0.34
   3  17   2    0.09    0.59
   3  17   2   -0.30    0.46
   3  17   2   -0.19    0.65
   4 -17   2    0.38    1.19
   4 -17   2   -0.32    0.60
   4  17   2   -0.08    0.61
   4  17   2    0.85    0.86
   4  17   2   -0.04    0.45
   5 -17   2    0.50    0.85
   5 -17   2   -1.21    1.18
   5  17   2   -0.04    0.74
   5  17   2    0.37    0.60
   5  17   2   -0.89    0.56
   6 -17   2    0.74    0.82
   6  17   2   -0.35    0.60
   6 -18  -2    0.82    0.90
   6 -18  -2    0.29    0.73
   6  18  -2    0.02    0.61
   5 -18  -2    0.43    0.65
  -5 -18   2    0.25    1.10
   5 -18  -2    1.33    0.88
   5  18  -2    1.11    1.00
   5  18  -2    1.26    0.74
   4 -18  -2    1.67    0.83
   4 -18  -2    0.71    0.71
  -4 -18   2    2.91    1.08
   4  18  -2    1.38    1.13
   3 -18  -2    0.57    0.71
   3 -18  -2   -0.26    0.50
  -3 -18   2    0.18    0.61
   3  18  -2    1.28    0.83
   3  18  -2   -1.00    0.69
   2 -18  -2    0.91    0.61
   2 -18  -2    0.75    0.46
  -2 -18   2    0.41    0.77
   2 -18  -2   -0.14    0.61
  -2 -18   2   -0.65    1.01
   2  18  -2   -0.29    0.68
   2  18  -2   -0.25    0.77
   2  18  -2    0.52    0.40
   2  18  -2   -0.14    0.38
  -2  18   2   -0.32    0.30
  -1 -18   2    6.20    1.86
  -1 -18   2    3.28    0.89
   1 -18  -2    3.54    1.08
   1 -18  -2    5.12    1.17
   1 -18  -2    2.75    0.85
  -1  18   2    4.06    0.67
   1  18  -2    4.50    1.32
   1  18  -2    4.08    0.92
   1  18  -2    4.23    0.91
   1  18  -2    3.42    1.01
   0 -18  -2    1.85    0.81
   0 -18   2    2.89    1.41
   0 -18   2    1.90    0.76
   0 -18  -2    1.20    0.86
   0  18   2    0.96    0.77
   0  18  -2    3.02    0.86
   0  18   2    1.33    0.80
   0  18  -2    1.42    0.90
   0  18   2    1.46    0.55
   1 -18   2    0.46    0.52
   1 -18   2    1.16    0.83
   1 -18   2   -0.54    1.10
  -1 -18  -2    0.34    0.76
  -1  18  -2    1.03    1.02
   1  18   2    1.51    0.68
   1  18   2    0.09    0.42
   1  18   2    0.82    0.80
   1  18   2    0.55    0.53
  -2 -18  -2    1.38    0.83
   2 -18   2    1.03    0.70
   2 -18   2    1.78    1.44
   2  18   2    2.00    0.77
  -2  18  -2    2.18    1.10
   2  18   2    1.76    0.70
   2  18   2    1.66    0.69
   2  18   2    1.90    0.76
   2  18   2    0.88    0.87
   3 -18   2    2.82    0.82
   3 -18   2    2.00    0.98
   3 -18   2    0.44    1.19
  -3  18  -2    2.43    1.33
   3  18   2    1.50    0.49
   3  18   2    2.41    0.88
   3  18   2    3.89    1.28
   3  18   2    3.67    0.70
   3  18   2    3.93    1.13
   4 -18   2    2.30    1.45
   4 -18   2    0.83    0.81
   4  18   2    1.29    0.86
   4  18   2    1.94    1.12
   4  18   2    1.50    0.73
   5 -18   2    0.31    1.46
   5 -18   2   -1.00    0.65
   5  18   2   -0.56    0.59
   5  18   2    0.41    0.73
   5  18   2    0.35    0.89
   6 -19  -2   -0.16    0.76
   6  19  -2    0.41    0.87
   5 -19  -2   -0.64    0.53
   5 -19  -2    0.61    0.91
   5  19  -2    1.01    1.07
   5  19  -2   -0.08    0.63
   4 -19  -2   -0.30    0.72
   4 -19  -2    0.40    0.69
  -4 -19   2   -0.56    0.73
   4  19  -2    0.23    0.93
   3 -19  -2    0.59    0.68
  -3 -19   2   -0.29    0.63
   3 -19  -2    0.47    0.80
   3  19  -2   -1.00    0.77
   3  19  -2   -0.75    0.62
   2 -19  -2    0.54    0.72
  -2 -19   2    0.19    0.61
  -2 -19   2   -0.86    0.83
   2 -19  -2    0.23    0.39
   2 -19  -2    0.24    0.76
   2  19  -2    0.41    1.03
   2  19  -2    0.32    0.47
   2  19  -2   -0.34    0.60
   2  19  -2    0.79    0.50
  -1 -19   2    0.81    0.72
   1 -19  -2    0.12    0.81
  -1 -19   2    0.38    1.36
   1 -19  -2   -0.15    0.53
   1  19  -2    0.31    0.90
   1  19  -2   -0.36    0.55
   1  19  -2   -0.21    0.42
  -1  19   2    0.07    0.33
   1  19  -2    0.63    0.68
   0 -19  -2   -0.64    0.60
   0 -19  -2    0.77    0.77
   0 -19   2   -0.03    0.63
   0 -19   2    0.52    1.14
   0  19  -2   -0.03    0.81
   0  19   2    0.10    0.46
   0  19   2    1.30    0.89
   0  19  -2    0.44    0.58
   1 -19   2    0.19    0.58
   1 -19   2   -0.86    1.13
   1 -19   2    1.08    0.73
  -1 -19  -2   -0.57    0.63
  -1 -19  -2    0.74    0.84
   1  19   2   -0.27    0.60
   1  19   2   -0.10    0.55
  -1  19  -2   -0.41    0.72
   1  19   2   -0.19    0.47
   1  19   2    0.30    0.51
  -2 -19  -2    0.54    0.75
   2 -19   2   -0.01    1.19
   2 -19   2   -0.48    0.50
  -2  19  -2    0.04    0.84
   2  19   2    0.79    0.66
   2  19   2   -0.41    0.62
   2  19   2   -0.29    0.39
   2  19   2    0.31    0.50
   3 -19   2   -1.06    1.11
   3  19   2   -0.20    0.36
   3  19   2    0.24    0.55
  -3  19  -2    0.90    1.03
   3  19   2   -1.17    0.63
   3  19   2    0.88    0.86
   3  19   2   -0.42    0.47
   4 -19   2    0.57    1.28
   4  19   2   -0.28    0.46
   4  19   2   -0.30    0.55
   4  19   2   -0.36    0.79
   5  19   2    0.71    0.94
   5  19   2    0.66    1.06
   5  19   2   -0.11    0.50
   5 -20  -2   -0.18    0.67
   5 -20  -2    1.87    1.11
   5  20  -2   -0.46    0.68
  -4 -20   2   -0.24    0.80
   4 -20  -2   -0.09    0.62
   4 -20  -2    0.01    0.70
   4  20  -2    0.34    0.88
  -3 -20   2    0.86    0.82
   3 -20  -2    0.24    0.71
   3 -20  -2    0.04    0.70
   3  20  -2    2.07    1.08
   3  20  -2   -0.44    0.84
  -2 -20   2   -0.10    0.65
  -2 -20   2   -0.70    1.09
   2 -20  -2   -0.24    0.67
   2  20  -2    2.10    1.14
   2  20  -2    0.19    0.86
   2  20  -2   -0.07    0.40
   2  20  -2   -0.20    0.40
  -1 -20   2    2.27    1.03
  -1 -20   2    1.01    1.21
   1 -20  -2   -0.23    0.68
   1 -20  -2    0.04    0.57
  -1  20   2    0.48    0.46
   1  20  -2    0.29    1.03
   1  20  -2    0.74    0.69
   1  20  -2    1.00    0.75
   1  20  -2    1.07    0.83
   0 -20   2    0.60    1.20
   0 -20   2    1.10    0.74
   0 -20  -2    0.73    0.84
   0 -20  -2    2.09    0.91
   0  20  -2    0.26    1.05
   0  20   2   -0.20    0.81
   0  20   2    0.40    0.63
   0  20  -2    1.88    0.82
   1 -20   2    0.28    0.53
   1 -20   2   -2.12    1.06
  -1 -20  -2   -0.26    0.68
  -1 -20  -2    0.03    0.69
   1  20   2    0.14    0.52
   1  20   2    0.16    0.78
   1  20   2    0.56    0.56
  -1  20  -2    0.41    0.91
   1  20   2    0.65    0.63
  -2 -20  -2   -0.02    0.71
  -2 -20  -2    0.51    0.92
   2 -20   2   -1.79    0.90
   2 -20   2    0.23    0.67
   2  20   2    0.68    0.55
   2  20   2    0.30    0.60
   2  20   2    1.04    0.88
   2  20   2    0.08    0.54
  -2  20  -2   -0.54    0.76
   3 -20   2   -0.42    1.31
   3  20   2   -1.26    0.75
   3  20   2    0.19    0.47
   3  20   2    0.05    0.37
   3  20   2    0.87    0.84
   4 -20   2   -1.11    1.33
   4  20   2    0.64    0.88
   4  20   2    1.34    1.06
   5 -21  -2    0.25    0.75
   5  21  -2    1.02    0.98
   4 -21  -2    0.89    1.01
   4 -21  -2    0.20    0.85
   4  21  -2   -0.32    0.83
  -3 -21   2    1.05    0.90
   3 -21  -2    0.07    0.76
   3  21  -2    0.27    0.86
   3  21  -2    0.27    0.78
  -2 -21   2    0.17    0.99
  -2 -21   2   -0.81    0.64
   2 -21  -2   -0.40    0.66
   2  21  -2   -0.62    0.89
   2  21  -2   -0.75    0.74
   2  21  -2    0.12    0.43
   2  21  -2   -0.04    0.43
   1 -21  -2   -0.04    0.76
  -1 -21   2   -0.21    0.89
  -1 -21   2    0.26    0.72
   1 -21  -2    0.12    0.51
   1  21  -2    0.25    0.59
   1  21  -2    0.61    0.92
  -1  21   2   -0.04    0.76
   1  21  -2    0.91    0.72
   1  21  -2    0.33    0.59
   0 -21  -2    1.39    0.79
   0 -21  -2   -0.27    0.81
   0 -21   2    0.46    0.72
   0 -21   2    1.29    1.39
   0  21  -2    0.22    1.01
   0  21  -2   -0.61    0.54
   0  21   2   -0.55    0.70
   0  21   2    0.17    0.55
  -1 -21  -2    0.81    0.85
   1 -21   2   -0.09    1.27
  -1 -21  -2   -0.37    0.62
   1 -21   2   -0.19    0.51
  -1  21  -2    0.18    1.02
   1  21   2   -0.02    0.48
   1  21   2    1.22    0.94
   1  21   2    0.12    0.67
  -2 -21  -2   -0.98    0.61
  -2 -21  -2    0.13    0.75
   2 -21   2    0.68    0.75
   2 -21   2   -0.44    1.30
   2  21   2    0.51    0.89
  -2  21  -2    0.90    1.01
   2  21   2   -0.23    0.57
   2  21   2    0.58    0.68
   2  21   2   -0.13    0.54
   3 -21   2    1.55    1.78
  -3 -21  -2    1.71    1.20
   3  21   2    0.79    0.57
   3  21   2    0.22    0.41
   3  21   2    0.33    0.91
   3  21   2    0.05    0.74
   4 -21   2    0.50    1.51
   4  21   2    0.15    0.73
   4  21   2   -0.11    1.04
   4 -22  -2    1.46    1.01
   4  22  -2    0.68    1.02
  -3 -22   2    1.55    1.15
   3 -22  -2    3.18    1.15
   3  22  -2    3.77    1.38
   3  22  -2    2.90    1.18
  -2 -22   2    2.58    1.28
   2 -22  -2    1.90    1.08
   2  22  -2    1.80    0.68
   2  22  -2    2.92    1.46
   2  22  -2    1.15    0.79
   2  22  -2    2.48    0.72
   1 -22  -2    0.97    0.96
  -1 -22   2    0.58    1.25
   1 -22  -2    2.50    0.94
  -1 -22   2    0.55    0.80
   1  22  -2    1.50    0.76
   1  22  -2    0.56    0.82
  -1  22   2    0.34    0.99
   1  22  -2    1.69    1.32
   1  22  -2    2.02    0.81
   0 -22  -2    1.83    1.18
   0 -22  -2    2.16    1.04
   0 -22   2    1.95    0.89
   0 -22   2    1.51    1.22
   0  22  -2    0.32    1.11
   0  22  -2    2.72    1.10
   0  22   2    1.84    0.67
   0  22   2    0.75    0.89
  -1 -22  -2    2.33    0.96
   1 -22   2    0.24    1.33
   1 -22   2    2.70    0.89
  -1 -22  -2    2.63    1.15
   1  22   2    2.22    1.03
   1  22   2    2.41    0.85
  -1  22  -2    2.28    1.38
  -2 -22  -2    1.55    1.02
  -2 -22  -2    3.04    1.25
   2 -22   2    3.23    1.02
   2 -22   2    1.44    1.63
   2  22   2    5.51    1.31
   2  22   2    2.47    0.90
   2  22   2    2.77    1.18
   2  22   2    2.71    0.86
  -2  22  -2    0.28    1.15
  -3 -22  -2    1.23    1.01
   3 -22   2    1.82    1.86
   3  22   2    0.52    0.53
   3  22   2   -0.09    0.67
   3  22   2   -0.53    0.75
   3  22   2   -0.05    0.49
   4  22   2    0.05    0.84
   3 -23  -2    0.09    0.98
   3  23  -2    0.56    0.83
   3  23  -2    0.41    1.02
   2 -23  -2   -0.83    0.73
  -2 -23   2   -0.29    0.73
   2  23  -2   -0.56    0.44
   2  23  -2    0.00    1.02
   2  23  -2    0.54    0.57
   2  23  -2   -0.59    0.61
  -2  23   2    0.40    0.83
   1 -23  -2   -0.34    0.66
  -1 -23   2    0.55    1.14
  -1 -23   2    1.80    1.01
   1 -23  -2   -0.06    0.76
   1  23  -2    1.12    0.77
   1  23  -2    0.73    1.14
  -1  23   2   -0.81    0.74
   1  23  -2   -0.54    0.55
   1  23  -2    0.04    0.69
   0 -23   2    0.92    0.88
   0 -23   2    0.65    1.18
   0 -23  -2   -0.27    0.95
   0 -23  -2    0.18    0.80
   0  23   2   -0.63    0.86
   0  23  -2    0.03    0.65
   0  23  -2    0.59    1.20
  -1 -23  -2    0.09    1.04
   1 -23   2   -0.12    0.90
  -1 -23  -2    1.35    0.93
   1 -23   2    0.11    1.44
   1  23   2    0.71    1.00
  -1  23  -2    0.44    1.11
   1  23   2    0.59    0.67
   2 -23   2    1.91    1.68
  -2 -23  -2   -0.58    0.89
  -2 -23  -2    0.85    1.04
   2  23   2    0.42    0.84
  -2  23  -2    1.18    1.23
   2  23   2    0.08    0.59
   2  23   2    0.19    0.68
   2  23   2   -0.79    0.48
   3 -23   2   -0.53    1.38
   3  23   2    0.78    0.54
   3  23   2    0.63    0.48
   3  23   2   -0.53    0.69
   3  23   2    0.00    0.88
   4  23   2    0.41    0.77
   3 -24  -2    0.58    0.91
   3  24  -2    2.97    1.53
   3  24  -2    0.17    0.87
  -2 -24   2    0.83    0.91
   2 -24  -2   -0.49    0.82
   2  24  -2    0.79    0.66
   2  24  -2    0.94    1.10
   2  24  -2    0.10    0.50
   2  24  -2    0.56    0.83
  -1 -24   2    2.16    1.41
  -1 -24   2    3.49    1.18
   1 -24  -2    3.56    1.44
   1  24  -2    2.36    1.04
  -1  24   2    2.87    1.28
   1  24  -2    0.76    0.77
   1  24  -2   10.66    2.40
   0 -24  -2    1.09    1.07
   0 -24   2    0.63    1.46
   0 -24  -2    2.49    1.46
   0 -24   2    1.47    0.93
   0  24  -2    0.81    1.30
   0  24   2   -1.14    0.94
   0  24  -2    1.71    1.09
  -1 -24  -2   -0.26    0.95
   1 -24   2    1.67    1.43
   1 -24   2    0.50    0.78
  -1 -24  -2    1.68    1.14
  -1  24  -2    1.45    1.43
  -1  24  -2   -0.70    0.48
   1  24   2   -0.43    0.80
   1  24   2    0.41    0.72
  -2 -24  -2    0.96    1.13
   2 -24   2    1.06    1.47
  -2  24  -2    0.11    1.38
   2  24   2    0.90    0.72
   2  24   2    1.99    0.90
   2  24   2    1.44    1.14
   2  24   2    1.37    0.77
   3 -24   2   -1.67    0.95
   3  24   2    0.87    1.03
   3  24   2    0.01    0.54
   3  24   2    0.58    1.07
   3  24   2   -0.29    0.44
   3  25  -2   -0.45    0.97
   2 -25  -2    0.25    1.05
   2  25  -2    1.50    1.53
   2  25  -2   -0.06    0.68
   2  25  -2   -0.02    0.57
   2  25  -2   -0.11    0.49
  -1 -25   2   -1.09    0.72
   1 -25  -2    0.40    0.99
  -1 -25   2    0.47    1.53
   1  25  -2    0.53    0.79
   1  25  -2   -0.46    1.34
  -1  25   2   -0.84    0.94
   0 -25   2    0.06    1.45
   0 -25  -2    1.31    1.07
   0 -25  -2    3.32    1.45
   0 -25   2    0.88    0.94
   0  25  -2   -0.57    1.47
   0  25   2   -1.64    0.86
   0  25  -2    0.83    0.84
  -1 -25  -2    0.96    1.14
   1 -25   2   -0.30    1.52
   1 -25   2    1.49    0.96
  -1 -25  -2   -0.10    0.93
   1  25   2    1.22    1.01
  -1  25  -2   -1.35    1.28
  -1  25  -2    0.21    0.62
   2 -25   2   -0.19    1.36
   2  25   2   -0.10    0.61
   2  25   2   -0.76    0.97
   2  25   2   -0.65    0.62
   2  25   2   -0.04    0.70
  -2  25  -2    1.72    1.56
   3  25   2   -0.30    0.49
   3  25   2    0.90    1.00
   2 -26  -2   -0.17    0.98
   2  26  -2   -0.04    0.67
   2  26  -2   -0.44    1.37
   2  26  -2   -0.02    0.72
   2  26  -2    0.44    0.53
  -1 -26   2   -0.74    1.38
   1 -26  -2   -0.07    1.01
   1  26  -2    0.10    0.95
   1  26  -2   -0.28    1.16
  -1  26   2   -1.44    1.16
   0 -26   2    0.03    1.09
   0 -26  -2    0.05    0.99
   0 -26  -2   -0.20    0.98
   0 -26   2    0.28    1.23
   0  26  -2    0.11    0.77
   0  26   2   -1.28    1.07
   0  26  -2    0.52    1.33
   1 -26   2    1.07    1.61
  -1 -26  -2    0.54    1.06
  -1 -26  -2    0.94    1.49
   1 -26   2    1.53    0.96
  -1  26  -2   -0.34    0.76
  -1  26  -2   -2.06    1.00
   1  26   2    0.65    1.02
   2 -26   2    0.96    1.83
   2  26   2   -0.11    0.78
   2  26   2    0.21    1.05
   3  26   2   -0.11    0.91
   2  27  -2   -0.40    0.77
   2  27  -2    0.25    0.64
   2  27  -2   -0.28    0.68
   1 -27  -2   -0.34    1.31
   1  27  -2   -0.54    0.91
  -1  27   2   -0.52    1.22
   1  27  -2    0.13    1.42
   0 -27   2   -0.32    1.66
   0 -27  -2   -1.15    1.01
   0  27  -2   -0.78    0.68
   0  27   2   -0.41    0.97
   0  27  -2   -0.56    1.73
  -1 -27  -2    0.15    1.28
   1 -27   2    1.30    1.53
  -1  27  -2   -0.27    0.78
  -1  27  -2    2.05    1.81
   1  27   2   -0.82    0.96
   2  27   2   -0.53    0.74
  -1  28   2    0.21    1.31
   1  28  -2   -1.18    0.79
   0 -28   2    1.76    1.78
   0 -28  -2    1.54    1.38
   0  28  -2   -0.03    0.87
   0  28  -2   -1.93    1.19
   0  28   2   -0.22    1.15
  -1 -28  -2    2.87    1.61
   1 -28   2    0.49    1.78
  -1  28  -2   -2.48    1.61
  -1  28  -2    1.08    1.08
   0 -29   2   -0.73    2.18
   0  29  -2    1.49    1.07
  -5   0   3    0.46    0.37
   5   0  -3   -0.05    0.15
   5   0  -3    1.80    0.82
  -4   0   3   -0.04    0.24
   4   0  -3    0.36    0.50
   4   0  -3   -0.05    0.16
   3   0  -3   -0.28    0.26
  -3   0   3   -0.14    0.22
  -3   0   3   -0.24    0.39
   3   0  -3    0.00    0.19
  -3   0   3   -0.04    0.23
   3   0  -3   -0.10    0.23
   3   0  -3    0.59    0.40
   3   0  -3   -0.15    0.20
   2   0  -3   -0.27    0.27
   2   0  -3   -0.06    0.26
  -2   0   3   -0.29    0.23
   2   0  -3   -0.07    0.21
   2   0  -3   -0.76    0.27
  -2   0   3    0.57    0.35
   2   0  -3    0.27    0.24
  -1   0   3   -0.65    0.27
   1   0  -3    0.17    0.47
  -1   0   3   -0.34    0.20
   1   0  -3    0.29    0.35
   1   0  -3    0.26    0.25
   1   0  -3   -0.36    0.24
  -1   0   3    0.28    0.39
   1   0  -3   -0.29    0.29
  -1   0   3   -0.06    0.35
   0   0   3    0.40    0.30
   0   0   3   -0.12    0.24
   0   0  -3    0.00    0.23
   0   0  -3   -0.62    0.26
   0   0  -3   -0.71    0.48
   0   0  -3    0.10    0.29
   0   0   3   -0.18    0.52
   0   0   3   -0.51    0.39
   1   0   3    0.00    0.24
   1   0   3   -0.14    0.28
   1   0   3   -0.23    0.35
   1   0   3    0.24    0.53
  -1   0  -3   -0.13    0.27
  -1   0  -3   -0.13    0.45
  -1   0  -3   -0.27    0.31
   2   0   3   -0.10    0.24
  -2   0  -3   -0.77    0.36
   2   0   3    0.41    0.47
   2   0   3   -0.06    0.29
  -2   0  -3   -0.43    0.31
   2   0   3    0.13    0.48
   3   0   3    0.04    0.18
  -3   0  -3   -0.37    0.33
   3   0   3    0.39    0.35
   3   0   3    0.15    0.51
   3   0   3    0.76    0.54
  -4   0  -3   -0.21    0.38
   4   0   3   -0.42    0.31
   4   0   3   -0.17    0.51
   5   0   3   -0.23    0.39
   5   0   3    1.11    0.68
   6   0   3    0.15    0.59
   6   0   3    0.13    0.64
   7   0   3   -0.10    0.50
   5  -1  -3    1.12    0.28
  -5  -1   3    1.19    0.46
   5  -1  -3    1.55    0.75
  -5   1   3    0.77    0.40
   5   1  -3    1.29    0.71
   5   1  -3    0.84    0.21
   4  -1  -3    0.69    0.51
  -4  -1   3    0.62    0.36
   4  -1  -3    0.32    0.18
  -4   1   3    0.19    0.27
   4   1  -3    0.11    0.20
   4   1  -3    0.39    0.43
   3  -1  -3    1.28    0.32
   3  -1  -3    1.10    0.45
   3  -1  -3    0.76    0.27
   3  -1  -3    1.52    0.34
   3  -1  -3    1.71    0.45
  -3  -1   3    1.18    0.39
  -3  -1   3    0.97    0.35
   3   1  -3    1.68    0.56
   3   1  -3    1.81    0.53
   3   1  -3    1.96    0.44
  -3   1   3    1.43    0.40
  -3   1   3    0.96    0.36
   3   1  -3    0.94    0.29
   3   1  -3    0.82    0.30
  -3   1   3    0.87    0.44
   2  -1  -3    1.11    0.35
  -2  -1   3    2.44    0.52
   2  -1  -3    0.80    0.34
   2  -1  -3    1.23    0.36
   2  -1  -3    0.48    0.32
   2  -1  -3    1.18    0.36
  -2  -1   3    2.46    0.53
  -2   1   3    1.88    0.45
  -2   1   3    1.84    0.41
   2   1  -3    1.13    0.34
   2   1  -3    1.70    0.41
   2   1  -3   -0.10    0.21
  -2   1   3    1.46    0.46
   2   1  -3    1.03    0.46
   2   1  -3    1.54    0.47
   1  -1  -3    0.19    0.33
   1  -1  -3    0.03    0.35
  -1  -1   3    0.29    0.41
   1  -1  -3   -0.05    0.31
   1  -1  -3    0.06    0.42
   1  -1  -3    0.16    0.22
  -1  -1   3   -0.08    0.22
  -1  -1   3    0.03    0.35
  -1  -1   3   -0.30    0.39
   1   1  -3   -0.02    0.31
   1   1  -3   -0.05    0.29
  -1   1   3    0.37    0.46
   1   1  -3   -0.22    0.28
   1   1  -3    0.28    0.44
   1   1  -3    0.29    0.23
  -1   1   3    0.71    0.44
  -1   1   3   -0.08    0.24
   0  -1   3    3.16    0.57
   0  -1  -3    4.05    0.66
   0  -1  -3    3.97    0.86
   0  -1   3    3.53    0.74
   0  -1   3    2.66    0.64
   0  -1   3    3.02    0.48
   0  -1  -3    3.52    0.66
   0  -1  -3    2.41    0.49
   0   1  -3    3.20    0.66
   0   1   3    3.27    0.71
   0   1  -3    3.59    0.63
   0   1  -3    3.22    0.70
   0   1   3    2.75    0.52
   0   1  -3    2.86    0.50
   0   1   3    3.18    0.55
   0   1   3    3.25    0.74
  -1  -1  -3    7.30    0.87
   1  -1   3    6.44    0.94
  -1  -1  -3    5.43    0.93
  -1  -1  -3    7.04    0.96
   1  -1   3    5.98    0.73
   1  -1   3    5.87    0.77
   1  -1   3    5.35    0.88
  -1   1  -3    7.58    0.98
   1   1   3    6.34    0.92
  -1   1  -3    6.21    0.82
   1   1   3    8.85    1.09
  -1   1  -3    7.23    0.83
   1   1   3    5.60    0.75
  -1   1  -3    7.32    0.98
   1   1   3    5.28    0.73
   2  -1   3    2.23    0.56
  -2  -1  -3    2.37    0.69
   2  -1   3    2.72    0.68
   2  -1   3    2.36    0.52
  -2  -1  -3    2.59    0.55
   2  -1   3    1.82    0.67
   2   1   3    1.74    0.49
  -2   1  -3    1.84    0.52
   2   1   3    1.58    0.63
  -2   1  -3    2.85    0.75
   2   1   3    1.76    0.44
   2   1   3    3.03    0.73
   3  -1   3    1.75    0.32
   3  -1   3    2.04    0.70
  -3  -1  -3    2.87    0.74
   3  -1   3    1.30    0.65
   3  -1   3    2.74    0.63
   3   1   3    3.48    0.85
   3   1   3    1.36    0.49
  -3   1  -3    1.63    0.62
  -3   1  -3    1.84    0.70
   3   1   3    2.55    0.71
   3   1   3    2.05    0.29
   4  -1   3   -0.28    0.33
   4  -1   3   -0.74    0.34
  -4  -1  -3    0.24    0.52
   4   1   3    0.67    0.50
  -4   1  -3    0.65    0.56
   4   1   3    0.07    0.52
   5  -1   3    1.03    0.69
   5  -1   3   -0.15    0.40
   5   1   3    0.18    0.54
   5   1   3    0.22    0.58
   6  -1   3    0.20    0.67
   6  -1   3    0.72    0.60
   6   1   3   -0.52    0.49
   6   1   3    2.12    0.84
   7  -1   3    0.48    0.64
   7   1   3   -0.31    0.51
   6  -2  -3    1.03    0.23
   6  -2  -3    0.58    0.16
   6   2  -3    1.68    1.07
   5  -2  -3    1.52    0.27
  -5  -2   3    0.94    0.51
   5   2  -3    0.80    0.23
   5   2  -3    1.44    0.82
  -4  -2   3    8.74    0.98
   4  -2  -3    8.93    1.02
   4  -2  -3    8.84    0.59
  -4   2   3    9.26    0.63
   4   2  -3   10.79    1.32
   4   2  -3    8.76    0.53
  -3  -2   3    0.93    0.36
   3  -2  -3    0.15    0.34
   3  -2  -3    0.54    0.34
   3  -2  -3    0.43    0.24
   3  -2  -3    0.39    0.26
  -3  -2   3    0.25    0.36
   3   2  -3    0.10    0.24
   3   2  -3    0.70    0.42
   3   2  -3    0.21    0.25
   3   2  -3    1.35    0.48
  -3   2   3    0.71    0.27
  -3   2   3    0.62    0.42
  -3   2   3    0.65    0.34
   3   2  -3    0.52    0.27
   2  -2  -3    3.37    0.48
  -2  -2   3    5.25    0.67
   2  -2  -3    4.21    0.54
   2  -2  -3    2.99    0.45
   2  -2  -3    3.02    0.49
   2  -2  -3    2.76    0.56
  -2  -2   3    3.70    0.62
   2   2  -3    2.16    0.44
  -2   2   3    4.12    0.61
   2   2  -3    2.18    0.52
  -2   2   3    3.53    0.50
  -2   2   3    3.19    0.49
   2   2  -3    3.63    0.55
   2   2  -3    1.46    0.45
   2   2  -3    3.78    0.63
   1  -2  -3    1.54    0.46
   1  -2  -3    1.42    0.38
   1  -2  -3    0.87    0.36
  -1  -2   3    3.08    0.63
  -1  -2   3    1.95    0.50
  -1  -2   3    2.47    0.46
   1  -2  -3    1.24    0.47
   1  -2  -3    1.28    0.51
  -1   2   3    0.70    0.34
   1   2  -3    2.73    0.56
  -1   2   3    1.35    0.47
   1   2  -3    1.92    0.63
   1   2  -3    3.91    0.58
  -1   2   3    1.96    0.54
   0  -2   3    2.72    0.69
   0  -2   3    2.89    0.52
   0  -2  -3    3.89    0.64
   0  -2   3    5.13    0.84
   0  -2  -3    2.80    0.66
   0  -2   3    1.55    0.57
   0  -2  -3    3.00    0.77
   0  -2   3    2.95    0.56
   0   2   3    2.44    0.65
   0   2  -3    2.83    0.47
   0   2  -3    2.60    0.74
   0   2  -3    2.58    0.61
   0   2   3    2.21    0.74
   0   2   3    2.70    0.52
   0   2   3    2.15    0.47
   0   2  -3    3.39    0.60
   1  -2   3    1.60    0.60
  -1  -2  -3    1.44    0.58
   1  -2   3    1.67    0.47
   1  -2   3    1.33    0.44
  -1  -2  -3    3.00    0.69
  -1  -2  -3    1.74    0.49
   1  -2   3    2.37    0.70
  -1   2  -3    2.57    0.63
   1   2   3    1.37    0.60
   1   2   3    2.28    0.54
  -1   2  -3    2.22    0.50
   1   2   3    0.89    0.44
  -1   2  -3    1.30    0.50
   1   2   3    1.64    0.53
  -1   2  -3    1.24    0.63
   2  -2   3   27.86    1.46
   2  -2   3   28.83    1.66
   2  -2   3   28.84    1.42
   2  -2   3   30.46    1.37
  -2  -2  -3   30.37    1.50
  -2  -2  -3   26.45    1.46
  -2   2  -3   27.77    1.54
  -2   2  -3   27.91    1.42
   2   2   3   28.88    1.61
   2   2   3   28.26    1.56
   2   2   3   28.98    1.29
  -2   2  -3   29.28    1.46
   3  -2   3    3.21    0.83
   3  -2   3    4.07    0.81
   3  -2   3    4.56    0.50
  -3  -2  -3    6.54    1.10
   3  -2   3    4.14    0.86
   3   2   3    4.20    0.83
   3   2   3    4.60    0.96
  -3   2  -3    1.94    0.61
  -3   2  -3    3.86    0.84
   3   2   3    3.80    0.40
   3   2   3    3.72    0.44
   3   2   3    4.83    0.91
   4  -2   3    5.91    0.97
   4  -2   3    5.81    1.15
  -4  -2  -3    5.09    1.02
  -4   2  -3    4.61    0.94
   4   2   3    5.71    1.08
   4   2   3    4.98    0.98
   5  -2   3    1.10    0.71
   5  -2   3    2.51    0.75
   5   2   3    2.17    0.69
   5   2   3    0.95    0.54
   6  -2   3    3.19    0.97
   6  -2   3    1.71    0.64
   6   2   3    1.13    0.62
   6   2   3    1.80    0.81
   7  -2   3    0.33    0.62
   7   2   3   -0.10    0.54
   6  -3  -3   -0.08    0.19
   6  -3  -3    0.02    0.17
   6   3  -3    0.56    0.88
  -5  -3   3   -0.37    0.36
   5  -3  -3    0.40    0.18
   5   3  -3   -0.48    0.55
   5   3  -3   -0.10    0.17
   4  -3  -3   -0.18    0.18
   4  -3  -3    0.04    0.15
   4  -3  -3   -0.10    0.24
   4  -3  -3    0.21    0.44
  -4  -3   3   -0.23    0.35
  -4   3   3    0.23    0.29
   4   3  -3    0.94    0.65
   4   3  -3    0.05    0.19
  -4   3   3    0.33    0.24
   3  -3  -3    0.27    0.24
   3  -3  -3    0.67    0.30
  -3  -3   3   -0.23    0.29
   3  -3  -3   -0.52    0.28
  -3  -3   3    0.31    0.44
   3  -3  -3    0.05    0.18
   3  -3  -3    0.13    0.33
   3   3  -3    0.18    0.36
   3   3  -3    0.38    0.40
  -3   3   3    0.88    0.40
   3   3  -3    0.58    0.23
  -3   3   3    0.17    0.28
   3   3  -3    0.02    0.32
   3   3  -3    0.77    0.34
   2  -3  -3    0.26    0.24
  -2  -3   3    0.41    0.37
   2  -3  -3   -0.04    0.25
   2  -3  -3    0.11    0.26
   2  -3  -3    0.23    0.33
   2  -3  -3   -0.24    0.24
  -2  -3   3    0.36    0.34
   2   3  -3    0.29    0.32
  -2   3   3   -0.18    0.27
   2   3  -3    0.14    0.37
   2   3  -3   -0.18    0.19
  -2   3   3    0.53    0.27
   2   3  -3   -0.61    0.22
   2   3  -3   -0.08    0.26
   1  -3  -3    0.80    0.41
  -1  -3   3    0.00    0.34
   1  -3  -3    0.37    0.26
   1  -3  -3    0.09    0.30
   1  -3  -3   -0.39    0.41
  -1  -3   3   -0.30    0.41
  -1  -3   3   -0.07    0.24
   1  -3  -3   -0.09    0.23
  -1  -3   3    0.44    0.45
   1   3  -3   -0.33    0.34
   1   3  -3   -0.66    0.38
   1   3  -3    0.39    0.31
  -1   3   3    0.27    0.37
  -1   3   3    0.01    0.28
   1   3  -3    0.14    0.31
   1   3  -3   -0.08    0.18
  -1   3   3    0.54    0.40
   0  -3   3    1.01    0.51
   0  -3  -3    1.67    0.65
   0  -3   3    1.15    0.43
   0  -3   3    0.81    0.49
   0  -3  -3    0.81    0.46
   0  -3  -3    1.48    0.39
   0  -3   3    1.16    0.55
   0  -3   3    0.93    0.37
   0  -3  -3    1.32    0.39
   0   3  -3    0.61    0.44
   0   3  -3    0.62    0.33
   0   3   3    0.64    0.36
   0   3   3    0.97    0.48
   0   3  -3    0.43    0.40
   0   3   3    0.53    0.56
   0   3  -3    0.86    0.57
   0   3   3    1.06    0.40
   1  -3   3   -0.06    0.43
  -1  -3  -3    0.05    0.36
  -1  -3  -3    0.10    0.37
   1  -3   3    0.04    0.40
   1  -3   3    0.27    0.33
   1  -3   3    1.34    0.61
   1   3   3    0.49    0.36
  -1   3  -3    0.11    0.33
  -1   3  -3    1.27    0.51
   1   3   3    0.66    0.48
  -1   3  -3    0.69    0.47
   1   3   3    0.68    0.52
   1   3   3   -0.58    0.39
   2  -3   3    1.27    0.55
   2  -3   3    0.66    0.38
  -2  -3  -3    0.79    0.44
  -2  -3  -3    1.22    0.52
   2  -3   3    1.16    0.41
   2  -3   3    0.85    0.53
   2   3   3    1.67    0.64
  -2   3  -3    0.87    0.48
   2   3   3    0.61    0.42
  -2   3  -3    0.38    0.41
   2   3   3    0.98    0.38
  -2   3  -3    0.46    0.38
   2   3   3    0.73    0.49
   3  -3   3    0.56    0.26
   3  -3   3   -0.31    0.47
   3  -3   3    0.54    0.50
  -3  -3  -3    0.40    0.43
   3  -3   3    0.23    0.42
   3   3   3    0.23    0.22
  -3   3  -3    0.68    0.40
   3   3   3    0.00    0.20
  -3   3  -3    0.10    0.38
   3   3   3    1.06    0.68
   3   3   3    0.22    0.41
   3   3   3    0.25    0.38
   4  -3   3    1.92    0.79
  -4  -3  -3    0.95    0.65
   4  -3   3    1.38    0.59
  -4   3  -3    0.74    0.60
   4   3   3    1.36    0.59
   4   3   3    2.51    0.73
   5  -3   3    0.61    0.48
   5  -3   3    0.48    0.73
   5   3   3   -0.07    0.58
   5   3   3   -0.37    0.41
   6  -3   3   -0.25    0.36
   6  -3   3    0.66    0.85
   6   3   3    0.30    0.47
   6   3   3   -0.29    0.55
   7  -3   3    1.28    1.13
   7  -3   3   -0.53    0.72
   7   3   3    0.02    0.69
   6  -4  -3    3.31    0.48
   6  -4  -3    2.86    0.41
   6   4  -3    5.30    1.44
  -5  -4   3    0.06    0.44
   5  -4  -3    0.39    0.23
   5   4  -3   -0.66    0.50
   5   4  -3    0.00    0.19
  -4  -4   3    0.49    0.30
   4  -4  -3    0.00    0.18
   4  -4  -3    0.46    0.36
   4  -4  -3    0.16    0.22
  -4  -4   3    0.33    0.40
   4   4  -3    0.34    0.23
   4   4  -3   -0.10    0.15
  -4   4   3    0.56    0.34
   4   4  -3    0.40    0.26
   4   4  -3    0.18    0.56
   3  -4  -3    1.05    0.44
   3  -4  -3    1.17    0.37
  -3  -4   3    0.84    0.48
   3  -4  -3    1.00    0.30
   3  -4  -3    0.53    0.28
   3  -4  -3    0.17    0.32
  -3  -4   3    0.88    0.47
   3   4  -3    1.42    0.39
   3   4  -3    0.54    0.49
  -3   4   3    1.92    0.52
  -3   4   3    1.02    0.41
   3   4  -3    1.17    0.40
   3   4  -3    1.20    0.34
   3   4  -3    0.64    0.46
   2  -4  -3    2.43    0.55
  -2  -4   3    2.00    0.53
   2  -4  -3    2.07    0.30
   2  -4  -3    2.12    0.38
   2  -4  -3    1.67    0.48
  -2  -4   3    2.72    0.67
   2  -4  -3    1.68    0.41
   2   4  -3    1.70    0.46
   2   4  -3    1.32    0.45
   2   4  -3    2.39    0.48
   2   4  -3    0.69    0.48
  -2   4   3    1.62    0.44
  -2   4   3    2.00    0.50
   2   4  -3    2.44    0.60
  -1  -4   3    0.80    0.35
   1  -4  -3    0.90    0.36
  -1  -4   3    0.53    0.48
   1  -4  -3    0.74    0.44
   1  -4  -3    1.57    0.41
  -1  -4   3    0.71    0.47
   1  -4  -3    1.77    0.61
   1   4  -3    0.89    0.43
   1   4  -3    0.14    0.43
   1   4  -3    0.57    0.27
  -1   4   3    0.37    0.42
  -1   4   3    0.79    0.39
   1   4  -3    0.55    0.41
   1   4  -3    0.20    0.36
   0  -4  -3    4.26    0.72
   0  -4   3    3.75    0.72
   0  -4  -3    3.82    0.65
   0  -4  -3    3.99    0.77
   0  -4   3    2.40    0.53
   0  -4   3    4.60    0.66
   0  -4  -3    3.97    0.67
   0  -4   3    3.74    0.68
   0  -4   3    4.55    0.86
   0   4  -3    3.38    0.63
   0   4  -3    3.50    0.62
   0   4   3    3.25    0.59
   0   4  -3    3.04    0.57
   0   4   3    2.63    0.56
   0   4  -3    4.21    0.82
   0   4   3    4.16    0.81
   0   4   3    4.14    0.81
  -1  -4  -3    4.11    0.78
  -1  -4  -3    3.89    0.66
   1  -4   3    5.90    0.91
   1  -4   3    5.40    0.80
   1  -4   3    5.34    0.84
   1  -4   3    3.82    0.83
  -1  -4  -3    4.24    0.75
  -1   4  -3    5.24    0.83
   1   4   3    5.31    0.79
   1   4   3    3.88    0.68
  -1   4  -3    5.24    0.85
   1   4   3    5.21    0.92
   1   4   3    5.22    0.92
  -1   4  -3    5.44    0.76
  -2  -4  -3   -0.22    0.42
   2  -4   3    0.00    0.34
   2  -4   3    0.40    0.49
   2  -4   3    0.15    0.43
   2  -4   3   -0.15    0.28
  -2  -4  -3   -0.11    0.30
  -2   4  -3    0.04    0.40
  -2   4  -3    0.12    0.25
   2   4   3   -0.35    0.26
  -2   4  -3    0.95    0.49
   2   4   3    0.26    0.27
   2   4   3    0.34    0.52
   2   4   3    0.39    0.44
   3  -4   3    1.01    0.33
   3  -4   3    0.85    0.55
   3  -4   3    1.77    0.58
   3  -4   3    0.96    0.57
  -3  -4  -3    1.54    0.64
   3   4   3    0.64    0.24
  -3   4  -3    1.40    0.64
   3   4   3    0.26    0.54
   3   4   3    0.51    0.56
   3   4   3    1.32    0.30
   3   4   3    1.80    0.58
  -3   4  -3    0.61    0.41
   4  -4   3    9.04    1.40
  -4  -4  -3    9.55    1.26
   4  -4   3    9.77    1.22
   4   4   3    8.37    1.22
  -4   4  -3    8.38    1.24
   5  -4   3    1.21    0.77
   5  -4   3    1.49    0.65
   5   4   3    3.73    0.97
   5   4   3    0.99    0.62
   6  -4   3    1.40    0.94
   6  -4   3   -0.06    0.55
   6   4   3    1.10    0.69
   6   4   3    0.31    0.65
   7  -4   3   -0.04    0.63
   7  -4   3    1.19    1.18
   7   4   3    0.32    0.69
   7  -5  -3    0.11    0.20
   7  -5  -3    0.03    0.25
   7   5  -3    1.03    1.08
   6  -5  -3   -0.05    0.22
   6  -5  -3    0.28    0.30
   6   5  -3    0.16    0.16
   6   5  -3    1.16    0.88
   5  -5  -3    0.42    0.29
  -5  -5   3    0.23    0.49
   5  -5  -3   -0.04    0.23
   5   5  -3   -0.68    0.53
   5   5  -3    0.19    0.24
  -4  -5   3    0.67    0.43
  -4  -5   3    2.94    0.74
   4  -5  -3    1.18    0.38
   4  -5  -3    1.46    0.50
   4  -5  -3    0.97    0.33
   4   5  -3    2.04    0.38
   4   5  -3    2.50    0.83
  -4   5   3    1.25    0.40
   4   5  -3    1.29    0.35
   4   5  -3    0.52    0.28
  -3  -5   3    0.12    0.47
   3  -5  -3   -0.25    0.20
  -3  -5   3   -0.36    0.34
   3  -5  -3   -0.60    0.32
   3  -5  -3    0.09    0.26
   3  -5  -3   -0.03    0.18
   3   5  -3   -0.09    0.26
   3   5  -3   -0.17    0.30
  -3   5   3    0.02    0.30
  -3   5   3    0.49    0.34
   3   5  -3    0.04    0.24
   3   5  -3    0.11    0.49
   2  -5  -3    2.39    0.38
  -2  -5   3    2.45    0.60
   2  -5  -3    1.13    0.43
   2  -5  -3    2.22    0.52
  -2  -5   3    2.28    0.62
   2   5  -3    2.23    0.60
   2   5  -3    2.61    0.66
  -2   5   3    2.16    0.54
   2   5  -3    2.34    0.63
  -2   5   3    2.54    0.57
   2   5  -3    2.60    0.48
   2   5  -3    1.29    0.48
   1  -5  -3   -0.16    0.41
  -1  -5   3   -0.37    0.32
   1  -5  -3    0.36    0.38
   1  -5  -3    0.07    0.30
  -1  -5   3    0.49    0.42
  -1  -5   3    0.31    0.41
   1   5  -3   -0.14    0.28
  -1   5   3   -0.07    0.39
   1   5  -3   -0.11    0.37
   1   5  -3    0.68    0.54
   1   5  -3   -0.25    0.31
   1   5  -3   -0.24    0.37
  -1   5   3    0.68    0.41
   0  -5   3    1.48    0.44
   0  -5   3    4.09    0.74
   0  -5  -3    3.36    0.71
   0  -5   3    2.93    0.73
   0  -5  -3    3.60    0.63
   0  -5  -3    4.76    0.54
   0  -5  -3    4.16    0.85
   0  -5   3    4.41    0.73
   0  -5  -3    2.47    0.64
   0  -5   3    3.95    0.75
   0   5   3    4.48    0.78
   0   5  -3    3.77    0.66
   0   5  -3    2.65    0.58
   0   5  -3    3.22    0.69
   0   5  -3    3.64    0.83
   0   5  -3    3.60    0.68
   0   5   3    2.92    0.64
   0   5   3    2.98    0.58
   0   5   3    4.42    0.82
   1  -5   3    0.43    0.58
  -1  -5  -3    0.03    0.37
  -1  -5  -3    0.38    0.38
   1  -5   3    0.16    0.40
   1  -5   3    0.72    0.49
   1  -5   3    0.24    0.32
   1  -5   3    0.62    0.44
  -1  -5  -3    0.04    0.30
  -1   5  -3   -0.20    0.28
   1   5   3    0.26    0.31
   1   5   3   -0.19    0.43
   1   5   3    0.14    0.42
   1   5   3   -0.03    0.43
  -1   5  -3    0.37    0.40
  -1   5  -3    0.40    0.43
   2  -5   3    1.20    0.44
  -2  -5  -3    2.44    0.69
  -2  -5  -3    1.89    0.57
   2  -5   3    2.33    0.53
   2  -5   3    0.69    0.51
   2  -5   3    2.64    0.76
  -2   5  -3    0.99    0.58
  -2   5  -3    1.19    0.45
  -2   5  -3    1.61    0.69
   2   5   3    1.13    0.61
   2   5   3    1.18    0.65
   2   5   3    0.83    0.40
   2   5   3    2.04    0.48
   3  -5   3    1.10    0.60
   3  -5   3    0.70    0.49
   3  -5   3    0.86    0.63
   3  -5   3    1.22    0.37
  -3  -5  -3    1.54    0.61
  -3   5  -3    0.66    0.51
   3   5   3    0.87    0.44
   3   5   3    0.94    0.31
   3   5   3    0.87    0.30
   3   5   3    1.28    0.64
  -3   5  -3    1.62    0.60
   3   5   3    0.55    0.50
   4  -5   3    0.94    0.76
  -4  -5  -3    0.39    0.56
   4  -5   3    0.20    0.43
   4   5   3    0.86    0.52
  -4   5  -3    0.67    0.69
   4   5   3    0.29    0.43
   5  -5   3   -0.71    0.33
   5  -5   3    1.01    0.74
   5   5   3    0.65    0.63
   5   5   3    0.23    0.57
   6  -5   3   -0.19    0.51
   6  -5   3    0.06    0.73
   6   5   3    0.49    0.60
   6   5   3    0.09    0.60
   7  -5   3    0.08    0.78
   7  -5   3    1.51    1.07
   7   5   3   -0.06    0.67
   7  -6  -3    0.60    0.31
   7  -6  -3    0.08    0.33
   7   6  -3    2.09    1.14
   6  -6  -3   -0.12    0.28
   6  -6  -3   -0.20    0.23
   6   6  -3    0.05    0.20
   6   6  -3    0.02    0.71
  -5  -6   3    2.69    0.75
   5  -6  -3    1.16    0.42
   5  -6  -3    1.68    0.45
   5   6  -3    0.77    0.66
   5   6  -3    2.22    0.42
   4  -6  -3    1.72    0.58
   4  -6  -3    1.34    0.40
  -4  -6   3    1.37    0.58
   4  -6  -3    1.51    0.44
  -4  -6   3    1.15    0.60
  -4   6   3    1.11    0.57
   4   6  -3    0.89    0.40
   4   6  -3    0.27    0.50
   4   6  -3    1.48    0.41
  -4   6   3    1.03    0.45
   4   6  -3    0.59    0.35
   3  -6  -3    0.43    0.18
   3  -6  -3    0.49    0.36
  -3  -6   3    0.39    0.50
   3  -6  -3    0.23    0.28
   3  -6  -3    0.36    0.34
  -3  -6   3    0.13    0.35
   3   6  -3    0.40    0.45
   3   6  -3    0.69    0.43
   3   6  -3    0.17    0.31
  -3   6   3    0.56    0.32
   3   6  -3    0.15    0.41
  -3   6   3    0.67    0.41
   2  -6  -3   14.15    0.95
  -2  -6   3   13.08    1.44
  -2  -6   3   12.11    1.18
   2  -6  -3   14.49    1.27
   2  -6  -3   14.52    0.70
   2  -6  -3   13.89    1.02
   2   6  -3   14.04    1.38
   2   6  -3   15.46    1.07
   2   6  -3   14.45    1.04
  -2   6   3   13.85    1.00
   2   6  -3   15.24    1.35
   2   6  -3   14.70    0.95
  -2   6   3   14.41    0.98
   1  -6  -3    1.11    0.44
  -1  -6   3    0.44    0.45
   1  -6  -3    1.25    0.52
  -1  -6   3    2.73    0.64
   1  -6  -3    2.15    0.60
  -1  -6   3    1.54    0.50
   1   6  -3    3.05    0.66
   1   6  -3    1.22    0.45
  -1   6   3    1.26    0.49
   1   6  -3    1.80    0.42
   1   6  -3    1.09    0.53
   1   6  -3    1.44    0.52
  -1   6   3    1.50    0.55
   0  -6  -3   20.65    1.29
   0  -6   3   19.30    1.17
   0  -6  -3   17.67    0.80
   0  -6   3   18.68    1.47
   0  -6  -3   18.14    1.34
   0  -6   3   15.30    1.46
   0  -6  -3   18.36    1.14
   0  -6   3   19.48    0.99
   0  -6  -3   19.27    1.31
   0   6  -3   19.72    1.22
   0   6   3   19.65    1.13
   0   6  -3   19.27    1.15
   0   6  -3   19.60    1.29
   0   6   3   19.81    1.25
   0   6  -3   19.70    1.18
   0   6   3   19.40    1.22
   0   6  -3   19.49    1.33
   1  -6   3    0.04    0.31
  -1  -6  -3   -0.31    0.28
  -1  -6  -3    0.41    0.40
   1  -6   3    0.10    0.33
   1  -6   3    0.50    0.43
   1  -6   3    0.07    0.44
  -1  -6  -3   -0.18    0.27
   1  -6   3    0.05    0.38
   1   6   3    0.48    0.51
   1   6   3    0.02    0.40
  -1   6  -3    0.06    0.42
  -1   6  -3   -0.35    0.16
   1   6   3   -0.06    0.29
  -1   6  -3   -0.31    0.28
   1   6   3   -0.03    0.31
   2  -6   3    4.11    0.77
  -2  -6  -3    3.99    0.86
   2  -6   3    2.89    0.65
   2  -6   3    1.88    0.76
   2  -6   3    1.81    0.70
  -2  -6  -3    3.07    0.68
  -2   6  -3    3.87    0.85
   2   6   3    2.32    0.68
   2   6   3    4.08    0.88
   2   6   3    4.54    0.91
   2   6   3    4.30    0.71
  -2   6  -3    2.82    0.64
  -3  -6  -3    0.74    0.53
   3  -6   3    1.20    0.46
   3  -6   3    2.39    0.89
   3  -6   3    2.13    0.45
   3  -6   3    1.22    0.67
   3   6   3    2.68    0.74
   3   6   3    1.12    0.33
  -3   6  -3    1.36    0.56
   3   6   3    1.24    0.31
  -3   6  -3    1.17    0.62
   3   6   3    1.98    0.73
   3   6   3    1.00    0.64
   4  -6   3   -0.12    0.41
   4  -6   3    0.62    0.68
  -4  -6  -3   -0.01    0.56
   4   6   3    0.33    0.56
   4   6   3   -0.38    0.43
  -4   6  -3   -0.66    0.50
   5  -6   3    3.41    1.22
   5  -6   3    3.59    0.89
   5   6   3    1.13    0.60
   5   6   3    1.74    0.76
   6  -6   3    0.22    0.53
   6  -6   3    0.64    0.91
   6   6   3    0.22    0.60
   6   6   3    0.89    0.68
   7  -6   3    1.08    1.15
   7  -6   3   -0.71    0.47
   7   6   3    0.15    0.59
   7  -7  -3   -0.14    0.30
   7  -7  -3   -0.41    0.36
   7   7  -3   -0.65    1.00
   6  -7  -3   -0.30    0.28
   6  -7  -3    0.48    0.37
  -6  -7   3   -0.14    0.60
   6   7  -3    0.39    0.82
   6   7  -3   -0.16    0.23
   5  -7  -3   -0.17    0.24
   5  -7  -3    0.03    0.21
  -5  -7   3    0.00    0.48
   5  -7  -3   -0.17    0.25
   5   7  -3   -0.39    0.26
   5   7  -3    0.24    0.67
   4  -7  -3    2.84    0.72
   4  -7  -3    3.67    0.64
   4  -7  -3    3.39    0.60
  -4  -7   3    4.30    0.85
   4   7  -3    2.92    0.58
   4   7  -3    3.19    0.57
   4   7  -3    3.79    0.59
   4   7  -3    6.30    1.18
   3  -7  -3    0.52    0.34
  -3  -7   3    0.38    0.47
   3  -7  -3   -0.06    0.50
   3  -7  -3    0.13    0.35
  -3  -7   3   -0.18    0.50
   3   7  -3   -0.09    0.31
   3   7  -3    0.26    0.37
  -3   7   3   -0.43    0.43
   3   7  -3    0.76    0.46
   3   7  -3    0.32    0.34
  -3   7   3   -0.33    0.23
  -2  -7   3    1.25    0.57
   2  -7  -3    2.21    0.59
   2  -7  -3    1.50    0.44
   2  -7  -3    1.40    0.33
   2  -7  -3    2.29    0.66
  -2  -7   3    2.14    0.68
  -2   7   3    1.21    0.48
  -2   7   3    2.71    0.57
   2   7  -3    1.38    0.46
   2   7  -3    0.85    0.47
   2   7  -3    1.46    0.65
   2   7  -3    1.94    0.61
   1  -7  -3    1.51    0.48
   1  -7  -3    0.53    0.44
  -1  -7   3    1.03    0.41
  -1  -7   3    0.90    0.46
  -1  -7   3    1.18    0.57
   1   7  -3    1.20    0.55
   1   7  -3    0.52    0.39
   1   7  -3    0.64    0.29
  -1   7   3    0.40    0.46
  -1   7   3    0.41    0.45
   1   7  -3    1.28    0.56
   1   7  -3    0.70    0.49
   0  -7  -3    0.19    0.46
   0  -7  -3    1.80    0.37
   0  -7   3    1.70    0.55
   0  -7   3    1.58    0.48
   0  -7  -3    0.91    0.43
   0  -7  -3    1.91    0.66
   0  -7  -3    1.63    0.50
   0  -7   3    1.10    0.44
   0  -7   3    0.62    0.53
   0   7   3    2.17    0.66
   0   7  -3    2.11    0.58
   0   7  -3    1.71    0.51
   0   7   3    0.74    0.43
   0   7  -3    2.06    0.54
   0   7  -3    1.02    0.56
   0   7  -3    1.81    0.63
   0   7   3    1.31    0.49
  -1  -7  -3    2.26    0.56
  -1  -7  -3    0.75    0.46
   1  -7   3    1.73    0.56
   1  -7   3    2.07    0.78
  -1  -7  -3    1.50    0.53
   1  -7   3    1.42    0.60
   1  -7   3    1.47    0.54
   1  -7   3    2.45    0.63
  -1   7  -3    0.16    0.23
   1   7   3    1.76    0.63
   1   7   3    1.65    0.47
  -1   7  -3    2.26    0.67
   1   7   3    1.13    0.61
  -1   7  -3    1.72    0.65
   1   7   3    2.13    0.61
   2  -7   3   12.83    1.63
  -2  -7  -3   18.51    1.69
   2  -7   3   17.69    1.67
  -2  -7  -3   15.31    1.41
   2  -7   3   14.76    1.05
   2  -7   3   16.36    1.44
   2   7   3   14.55    1.26
   2   7   3   16.07    1.64
  -2   7  -3   16.86    1.74
  -2   7  -3   16.76    1.45
   2   7   3   14.96    1.55
   2   7   3   16.70    1.21
   3  -7   3   -0.89    0.42
   3  -7   3    0.22    0.31
  -3  -7  -3   -0.02    0.50
   3  -7   3    0.30    0.40
   3  -7   3    0.08    0.58
   3   7   3   -0.15    0.25
  -3   7  -3   -0.14    0.36
   3   7   3    0.23    0.68
   3   7   3    0.05    0.41
   3   7   3    0.02    0.24
  -3   7  -3    0.58    0.56
   3   7   3    0.03    0.44
   4  -7   3    0.22    0.68
   4  -7   3   -0.16    0.36
  -4   7  -3    1.48    0.75
   4   7   3    0.45    0.57
   4   7   3    0.50    0.56
   5  -7   3    0.89    0.89
   5  -7   3    1.85    0.76
   5   7   3    0.11    0.54
   5   7   3    0.28    0.55
   6  -7   3   -0.24    0.98
   6  -7   3    0.46    0.63
   6   7   3   -0.05    0.70
   6   7   3    1.12    0.80
   7  -7   3    1.73    1.29
   7  -8  -3    0.46    0.36
   7  -8  -3   -0.04    0.41
   7   8  -3   -0.29    0.98
  -6  -8   3    0.36    0.62
   6  -8  -3    0.40    0.37
   6  -8  -3    0.68    0.39
   6   8  -3    1.32    1.16
   6   8  -3    0.29    0.31
   5  -8  -3    0.54    0.34
   5  -8  -3    0.18    0.33
   5  -8  -3   -0.10    0.30
  -5  -8   3    0.46    0.62
   5   8  -3    0.44    0.74
   5   8  -3    0.73    0.41
   4  -8  -3    4.04    0.73
   4  -8  -3    4.11    0.74
  -4  -8   3    3.13    0.75
   4   8  -3    4.19    0.72
   4   8  -3    3.73    1.02
   4   8  -3    4.45    0.75
   4   8  -3    2.67    0.54
  -3  -8   3    0.85    0.57
   3  -8  -3    0.10    0.47
   3  -8  -3    0.31    0.41
  -3  -8   3    1.44    0.78
   3  -8  -3    0.29    0.33
   3   8  -3    0.59    0.50
   3   8  -3   -0.06    0.27
  -3   8   3    0.96    0.31
   3   8  -3    0.80    0.39
  -3   8   3    0.80    0.46
   3   8  -3   -0.30    0.41
   2  -8  -3    6.38    1.04
  -2  -8   3    5.47    0.77
   2  -8  -3    5.46    0.81
   2  -8  -3    7.16    0.93
  -2  -8   3    5.63    1.07
  -2  -8   3    6.84    1.03
   2   8  -3    8.26    0.95
  -2   8   3    6.63    0.86
   2   8  -3    6.78    0.91
   2   8  -3    8.99    1.20
  -2   8   3    6.72    0.94
   2   8  -3    5.06    0.88
   1  -8  -3   16.82    1.19
  -1  -8   3   19.06    1.26
  -1  -8   3   14.85    1.83
   1  -8  -3   17.26    1.63
  -1  -8   3   18.42    1.64
   1  -8  -3   17.31    1.23
  -1   8   3   17.65    1.53
   1   8  -3   15.99    1.09
   1   8  -3   14.49    1.46
   1   8  -3   17.56    1.01
  -1   8   3   17.13    1.26
   1   8  -3   18.13    1.28
   0  -8  -3    8.85    0.68
   0  -8  -3    8.30    1.06
   0  -8   3    9.74    1.17
   0  -8  -3    7.61    1.06
   0  -8   3    8.46    1.08
   0  -8   3    8.19    0.91
   0  -8  -3    6.24    0.98
   0  -8  -3    8.33    1.01
   0  -8   3    8.34    1.18
   0   8  -3    7.93    0.99
   0   8  -3    9.12    1.06
   0   8  -3   10.50    1.28
   0   8   3    9.53    1.05
   0   8   3    9.60    1.06
   0   8  -3    8.12    1.18
   0   8   3    8.07    1.18
  -1  -8  -3    0.02    0.38
   1  -8   3   -0.40    0.37
   1  -8   3   -0.28    0.53
   1  -8   3    0.09    0.39
  -1  -8  -3   -0.03    0.31
  -1  -8  -3   -0.56    0.37
   1  -8   3    0.17    0.28
   1   8   3   -0.46    0.35
  -1   8  -3   -0.38    0.41
   1   8   3    0.19    0.32
  -1   8  -3    0.00    0.16
   1   8   3    0.06    0.38
   2  -8   3    6.57    0.89
   2  -8   3    6.46    1.08
   2  -8   3    5.07    1.18
   2  -8   3    6.18    0.90
  -2  -8  -3    5.48    0.95
  -2  -8  -3    5.50    0.96
   2   8   3    5.18    0.90
   2   8   3    6.64    1.09
  -2   8  -3    7.82    1.23
  -2   8  -3    6.15    0.96
   2   8   3    6.68    1.18
   2   8   3    5.65    0.82
   3  -8   3    0.84    0.43
   3  -8   3    1.19    0.76
  -3  -8  -3    1.63    0.72
   3  -8   3    0.75    0.53
   3  -8   3    0.11    0.64
  -3  -8  -3    1.09    0.66
   3   8   3    0.92    0.73
  -3   8  -3    1.02    0.72
   3   8   3    0.95    0.66
   3   8   3    1.65    0.75
   3   8   3    1.54    0.44
   3   8   3    1.87    0.40
  -3   8  -3    1.41    0.60
   4  -8   3    3.07    1.16
   4  -8   3    2.28    0.71
   4   8   3    1.18    0.66
   4   8   3    0.12    0.52
   5  -8   3    1.55    0.78
   5  -8   3   -0.04    0.81
   5   8   3    1.07    0.60
   5   8   3   -0.11    0.58
   6  -8   3    2.64    1.41
   6  -8   3    1.22    0.75
   6   8   3    1.80    0.93
   6   8   3    0.33    0.58
   7  -9  -3   -0.20    0.34
   7  -9  -3    0.48    0.52
   6  -9  -3    1.04    0.44
  -6  -9   3    2.23    0.88
   6  -9  -3    0.46    0.40
   6   9  -3    1.43    0.45
   6   9  -3    1.73    1.11
   5  -9  -3    1.21    0.42
  -5  -9   3    0.50    0.59
   5  -9  -3    0.60    0.38
   5  -9  -3    0.18    0.32
   5   9  -3    1.32    0.81
   5   9  -3    0.76    0.43
   5   9  -3    0.32    0.26
   4  -9  -3    0.30    0.34
   4  -9  -3   -0.24    0.29
  -4  -9   3   -0.15    0.51
   4  -9  -3   -0.04    0.37
   4   9  -3   -0.04    0.33
   4   9  -3   -0.16    0.41
   4   9  -3    0.38    0.63
   3  -9  -3    4.48    0.99
   3  -9  -3    3.07    0.62
  -3  -9   3    4.26    1.10
   3  -9  -3    3.56    0.70
  -3  -9   3    3.32    0.81
   3   9  -3    3.93    0.80
   3   9  -3    4.58    0.74
   3   9  -3    3.54    0.93
  -3   9   3    4.82    0.85
   3   9  -3    4.24    0.78
  -3   9   3    3.87    0.42
  -2  -9   3    2.87    0.67
   2  -9  -3    3.67    0.71
   2  -9  -3    2.64    0.73
  -2  -9   3    2.98    0.74
  -2  -9   3    4.13    1.10
   2  -9  -3    3.85    0.96
   2   9  -3    3.16    0.82
  -2   9   3    4.20    0.87
   2   9  -3    1.79    0.59
  -2   9   3    4.51    0.77
   2   9  -3    3.74    0.71
   2   9  -3    5.46    0.90
   1  -9  -3   -0.25    0.53
   1  -9  -3   -0.30    0.43
  -1  -9   3    0.04    0.62
  -1  -9   3   -0.15    0.32
   1  -9  -3    0.09    0.36
  -1  -9   3    0.60    0.51
   1   9  -3    0.84    0.54
   1   9  -3    0.09    0.40
  -1   9   3    0.64    0.56
   1   9  -3    0.72    0.47
   1   9  -3    0.19    0.31
  -1   9   3   -0.14    0.35
   0  -9   3    8.42    1.10
   0  -9  -3    8.69    0.72
   0  -9  -3    8.64    1.06
   0  -9   3    9.13    1.13
   0  -9  -3    7.79    1.14
   0  -9  -3    8.19    1.01
   0  -9   3    7.69    1.38
   0  -9   3   10.22    1.05
   0   9   3   13.25    1.35
   0   9   3   10.05    1.15
   0   9  -3    6.51    1.08
   0   9   3    6.92    1.08
   0   9  -3    8.57    0.98
   0   9  -3    8.24    1.01
   1  -9   3    8.92    1.45
   1  -9   3    9.86    1.11
   1  -9   3    7.78    1.01
  -1  -9  -3    9.70    1.33
  -1  -9  -3   12.90    1.16
  -1  -9  -3    9.62    1.14
   1  -9   3    8.67    1.07
   1   9   3    9.64    1.20
   1   9   3    9.19    1.32
   1   9   3   10.47    1.09
  -1   9  -3    9.36    1.20
   2  -9   3    0.55    0.48
   2  -9   3    0.25    0.36
  -2  -9  -3   -0.12    0.58
  -2  -9  -3   -0.14    0.46
   2  -9   3    0.72    0.74
   2   9   3   -0.17    0.32
   2   9   3    0.40    0.32
   2   9   3   -0.67    0.22
  -2   9  -3   -0.29    0.40
   2   9   3   -0.67    0.39
  -2   9  -3   -0.28    0.31
   2   9   3    0.58    0.64
  -3  -9  -3    3.26    0.87
   3  -9   3    4.41    0.74
   3  -9   3    4.55    1.26
   3  -9   3    4.45    0.85
   3   9   3    3.79    0.85
  -3   9  -3    4.12    1.05
   3   9   3    2.91    0.84
   3   9   3    3.81    0.57
   3   9   3    5.05    0.66
   4  -9   3    3.37    0.93
   4  -9   3    2.83    1.10
   4   9   3    1.76    0.69
   4   9   3    3.07    0.89
   5  -9   3    0.45    0.56
   5  -9   3    0.57    0.88
   5   9   3   -0.66    0.45
   5   9   3   -0.02    0.51
   6  -9   3    1.73    1.11
   6  -9   3    0.88    0.65
   6   9   3    0.87    0.67
   6   9   3    1.18    0.73
   7 -10  -3    0.03    0.40
   7 -10  -3    0.05    0.45
  -6 -10   3   -0.88    0.71
   6 -10  -3   -0.43    0.31
   6 -10  -3    0.14    0.41
   6  10  -3   -0.10    0.33
   6  10  -3    1.06    0.96
  -5 -10   3    4.58    1.18
   5 -10  -3    3.12    0.75
   5 -10  -3    4.15    0.75
   5 -10  -3    3.92    0.76
   5  10  -3    3.64    0.57
   5  10  -3    1.12    0.85
   5  10  -3    3.01    0.65
  -4 -10   3    0.71    0.68
   4 -10  -3    1.27    0.54
   4 -10  -3    0.64    0.46
   4 -10  -3    0.83    0.48
   4  10  -3    0.52    0.60
   4  10  -3   -0.14    0.47
   4  10  -3    0.72    0.42
  -3 -10   3    0.85    0.53
  -3 -10   3    0.46    0.68
   3 -10  -3    0.49    0.39
   3 -10  -3    0.36    0.52
   3 -10  -3    0.53    0.65
  -3  10   3    0.87    0.22
  -3  10   3    0.52    0.54
   3  10  -3    0.64    0.56
   3  10  -3    0.37    0.48
   3  10  -3    0.75    0.49
   3  10  -3    0.49    0.54
  -2 -10   3    2.79    0.78
  -2 -10   3    1.69    0.53
  -2 -10   3    2.65    0.91
   2 -10  -3    3.79    0.79
   2 -10  -3    1.48    0.59
   2 -10  -3    3.31    1.03
   2  10  -3    4.04    0.93
   2  10  -3    2.56    0.64
   2  10  -3    2.17    0.28
  -2  10   3    3.32    0.85
  -2  10   3    1.88    0.60
   2  10  -3    2.56    0.74
   2  10  -3    2.03    0.72
   2  10  -3    2.73    0.33
   1 -10  -3   22.97    1.36
  -1 -10   3   24.80    1.50
  -1 -10   3   24.66    1.58
   1 -10  -3   23.46    1.54
   1 -10  -3   23.61    1.62
  -1  10   3   25.00    1.60
   1  10  -3   24.60    1.34
   1  10  -3   21.24    1.52
   1  10  -3   22.78    1.54
  -1  10   3   21.11    1.44
   1  10  -3   25.91    1.47
   0 -10   3    4.73    1.17
   0 -10  -3    9.31    1.18
   0 -10   3    5.07    0.86
   0 -10  -3    5.80    1.00
   0 -10  -3    5.46    0.60
   0 -10   3    5.45    0.97
   0 -10   3    6.25    0.87
   0  10   3    4.23    0.95
   0  10   3    5.23    0.83
   0  10  -3    3.46    0.92
   0  10  -3    4.68    0.81
   0  10  -3    7.86    1.09
   0  10   3    4.96    0.81
  -1 -10  -3    2.47    0.64
   1 -10   3    1.16    0.90
  -1 -10  -3    1.12    0.63
   1 -10   3    1.26    0.49
  -1 -10  -3    1.04    0.53
   1 -10   3    0.91    0.49
   1 -10   3    0.94    0.52
   1  10   3    0.75    0.67
   1  10   3    1.15    0.51
   1  10   3    0.98    0.46
  -1  10  -3    0.64    0.70
  -1  10  -3    1.49    0.51
  -2 -10  -3    4.30    0.96
   2 -10   3    6.43    1.07
   2 -10   3    7.94    1.12
   2 -10   3    6.68    1.40
   2 -10   3    6.16    0.97
  -2 -10  -3    7.13    1.09
  -2  10  -3    7.48    1.12
  -2  10  -3   10.78    1.70
   2  10   3    7.89    1.29
   2  10   3    4.58    0.88
   2  10   3    6.85    1.03
   2  10   3    8.57    1.06
   3 -10   3   16.45    2.11
   3 -10   3   14.28    1.46
  -3 -10  -3   14.93    1.72
   3 -10   3   12.53    1.35
  -3  10  -3   13.44    1.78
   3  10   3   13.47    1.12
   3  10   3   13.28    1.53
   3  10   3   14.55    1.60
   3  10   3   15.58    1.02
   4 -10   3    2.13    1.07
   4 -10   3    0.43    0.61
   4  10   3    0.29    0.52
   4  10   3    0.48    0.63
   5 -10   3    3.02    0.86
   5 -10   3   -0.54    0.90
   5  10   3    0.35    0.65
   5  10   3    0.18    0.71
   6 -10   3    2.01    1.38
   6 -10   3    0.11    0.57
   6  10   3    0.53    0.81
   6  10   3    0.43    0.73
   7 -11  -3    0.13    0.53
   7 -11  -3   -0.62    0.48
  -6 -11   3    0.57    0.88
   6 -11  -3    2.10    0.72
   6 -11  -3    1.40    0.55
   6  11  -3    0.04    0.90
   6  11  -3    1.33    0.52
  -5 -11   3    3.66    1.10
   5 -11  -3    2.14    0.69
   5 -11  -3    3.58    0.82
   5 -11  -3    1.95    0.64
   5  11  -3    3.62    1.17
   5  11  -3    2.30    0.53
   5  11  -3    2.27    0.64
   4 -11  -3   -0.28    0.38
  -4 -11   3    0.03    0.50
   4 -11  -3    0.67    0.47
   4 -11  -3    0.20    0.51
   4  11  -3    0.05    0.62
   4  11  -3    0.30    0.43
   4  11  -3   -0.35    0.54
  -3 -11   3    3.24    1.21
   3 -11  -3    1.54    0.65
   3 -11  -3    2.98    0.76
   3 -11  -3    1.92    0.71
  -3 -11   3    2.33    0.74
   3  11  -3    2.31    0.63
   3  11  -3    0.91    0.60
  -3  11   3    3.36    0.82
   3  11  -3    2.04    0.83
   2 -11  -3    8.80    1.39
  -2 -11   3    6.97    1.09
  -2 -11   3    4.61    1.12
   2 -11  -3    8.33    1.15
  -2 -11   3    9.15    1.15
   2 -11  -3    7.35    1.02
   2  11  -3   10.40    1.20
  -2  11   3    8.30    1.16
  -2  11   3   11.20    1.31
   2  11  -3    9.04    1.35
   2  11  -3    8.09    0.54
   2  11  -3    7.70    1.16
   2  11  -3   10.20    1.39
   2  11  -3    6.69    0.59
  -1 -11   3    0.70    0.52
   1 -11  -3    0.06    0.47
   1 -11  -3    0.86    0.66
   1 -11  -3   -0.02    0.33
  -1 -11   3   -0.33    0.32
  -1 -11   3    0.29    0.70
   1  11  -3    0.00    0.35
   1  11  -3    0.06    0.50
  -1  11   3   -0.05    0.39
   1  11  -3    0.33    0.55
   1  11  -3    0.35    0.34
  -1  11   3    0.58    0.51
   0 -11  -3    9.61    0.80
   0 -11   3    8.61    1.21
   0 -11   3    8.80    1.52
   0 -11   3   10.16    1.18
   0 -11  -3    7.52    1.21
   0 -11   3    8.14    1.11
   0 -11  -3   11.77    1.26
   0  11   3   10.45    1.21
   0  11  -3    9.46    1.09
   0  11   3    8.68    1.31
   0  11  -3    8.26    1.21
   0  11  -3   10.45    1.16
   0  11   3   10.99    1.19
  -1 -11  -3    0.03    0.37
   1 -11   3    0.85    0.50
   1 -11   3    0.60    0.48
  -1 -11  -3    1.52    0.69
   1 -11   3    2.02    0.62
   1 -11   3    0.67    0.73
   1  11   3    1.63    0.51
  -1  11  -3    1.19    0.68
   1  11   3   -0.44    0.46
   1  11   3    1.84    0.64
  -1  11  -3    1.21    0.54
   1  11   3    2.11    0.65
   2 -11   3    0.07    0.45
  -2 -11  -3   -0.23    0.48
   2 -11   3    0.12    0.43
  -2 -11  -3   -0.15    0.51
   2 -11   3    0.44    0.83
   2 -11   3    0.38    0.48
   2  11   3   -0.19    0.30
  -2  11  -3   -0.14    0.50
   2  11   3   -0.13    0.38
  -2  11  -3    0.02    0.43
   2  11   3    0.90    0.62
   2  11   3   -0.28    0.41
   3 -11   3    4.65    0.76
   3 -11   3    7.05    1.17
  -3 -11  -3    5.94    1.11
   3 -11   3    5.27    1.39
   3  11   3    5.63    0.74
  -3  11  -3    5.49    1.18
   3  11   3    4.56    0.98
   3  11   3    6.59    1.18
   3  11   3    5.36    0.74
   4 -11   3    0.39    0.98
   4 -11   3    0.71    0.57
   4  11   3    1.51    0.72
   4  11   3    0.55    0.62
   5 -11   3   -0.22    0.47
   5 -11   3    0.56    0.95
   5  11   3   -0.10    0.58
   5  11   3   -0.17    0.57
   6 -11   3    1.42    1.31
   6 -11   3    0.87    0.89
   6  11   3    0.13    0.73
   6  11   3   -0.22    0.58
   7 -12  -3    0.96    0.60
   7 -12  -3    0.53    0.61
   6 -12  -3    0.78    0.60
  -6 -12   3    0.69    0.88
   6 -12  -3   -0.10    0.38
   6  12  -3   -0.14    0.42
   6  12  -3   -0.46    0.95
  -5 -12   3    4.63    1.28
   5 -12  -3    3.83    0.85
   5 -12  -3    3.66    0.83
   5 -12  -3    3.89    0.86
   5  12  -3    4.32    1.24
   5  12  -3    4.80    0.96
   5  12  -3    3.37    0.67
   4 -12  -3    8.07    1.23
  -4 -12   3   10.28    1.66
   4 -12  -3    8.98    1.20
   4 -12  -3    7.91    1.14
   4  12  -3    6.76    1.31
   4  12  -3    7.38    1.00
   4  12  -3    8.31    1.27
   3 -12  -3    4.48    0.92
   3 -12  -3    3.95    0.84
   3 -12  -3    3.27    0.80
  -3 -12   3    3.23    1.19
  -3 -12   3    1.91    0.73
   3  12  -3    4.04    0.82
   3  12  -3    2.32    0.82
   3  12  -3    3.28    0.91
  -3  12   3    4.05    0.91
  -2 -12   3   12.03    1.76
  -2 -12   3    9.26    1.30
   2 -12  -3   11.21    1.41
  -2 -12   3    8.96    1.21
   2 -12  -3   14.60    1.92
   2 -12  -3   11.21    1.30
   2  12  -3   11.03    1.25
   2  12  -3    9.92    0.69
  -2  12   3    9.20    1.30
   2  12  -3    9.78    0.68
   2  12  -3   11.69    1.41
  -2  12   3   14.07    1.56
   2  12  -3    7.76    1.24
   2  12  -3   11.36    1.35
  -1 -12   3   14.16    1.48
   1 -12  -3   11.14    1.41
  -1 -12   3   13.63    2.00
  -1 -12   3   12.63    1.41
   1 -12  -3   15.46    1.49
   1  12  -3   14.18    1.32
   1  12  -3   16.02    1.48
  -1  12   3   17.35    1.71
  -1  12   3   20.72    1.96
   1  12  -3   12.43    1.62
   1  12  -3   13.58    1.49
   0 -12  -3   13.27    1.57
   0 -12   3   14.04    1.50
   0 -12  -3   12.72    0.76
   0 -12   3   16.37    1.51
   0 -12  -3   13.68    1.47
   0 -12   3   11.65    1.34
   0 -12   3    9.93    1.63
   0  12  -3   15.08    1.53
   0  12   3   19.04    2.06
   0  12  -3   13.91    1.41
   0  12  -3   12.93    1.59
   0  12   3   14.51    1.49
   0  12   3   14.07    1.43
   0  12   3   13.74    0.78
   1 -12   3    9.34    1.19
   1 -12   3    9.77    1.17
  -1 -12  -3   10.05    1.40
   1 -12   3   10.80    1.76
   1 -12   3   10.83    1.25
   1  12   3   10.72    1.28
   1  12   3   11.95    1.54
   1  12   3   10.09    1.06
  -1  12  -3   10.33    1.51
   1  12   3   13.06    1.37
  -1  12  -3   11.57    1.36
   2 -12   3   24.45    1.62
  -2 -12  -3   26.11    1.91
   2 -12   3   30.66    1.70
  -2 -12  -3   26.56    1.89
   2 -12   3   27.41    2.73
   2 -12   3   25.58    1.72
  -2  12  -3   25.47    1.78
   2  12   3   27.96    1.64
   2  12   3   26.94    1.43
   2  12   3   26.41    1.63
  -2  12  -3   29.47    2.01
   2  12   3   26.18    1.82
   2  12   3   25.85    2.32
   3 -12   3   10.83    1.95
  -3 -12  -3    9.45    1.56
   3 -12   3    7.74    1.19
   3  12   3    7.82    0.86
  -3  12  -3    7.73    1.42
   3  12   3    7.53    0.86
   3  12   3    9.33    1.32
   3  12   3    7.10    1.32
   4 -12   3    4.14    0.97
   4 -12   3    3.46    1.42
   4  12   3    2.75    0.96
   4  12   3    2.99    0.86
   5 -12   3    3.02    1.11
   5 -12   3    0.91    1.02
   5  12   3    1.04    0.65
   5  12   3    2.11    1.07
   6 -12   3    4.22    1.61
   6 -12   3    3.03    1.11
   6  12   3    1.60    0.93
   6  12   3    1.88    1.02
  -6 -13   3    0.45    0.99
   6 -13  -3    0.45    0.50
   6 -13  -3    1.18    0.65
   6 -13  -3    0.55    0.57
   6  13  -3    0.98    1.15
   6  13  -3    0.76    0.60
   5 -13  -3    2.84    0.79
   5 -13  -3    3.00    0.77
   5 -13  -3    3.93    0.90
  -5 -13   3    2.97    1.13
   5  13  -3    2.62    0.77
   5  13  -3    0.88    0.72
   5  13  -3    2.19    0.68
  -4 -13   3   -0.52    0.62
   4 -13  -3    0.57    0.56
   4 -13  -3    0.61    0.50
   4 -13  -3    0.19    0.54
   4  13  -3   -0.20    0.54
   4  13  -3   -0.43    0.53
   4  13  -3   -0.14    0.41
   3 -13  -3    1.97    0.75
  -3 -13   3    0.10    0.98
  -3 -13   3    1.13    0.73
   3 -13  -3    1.86    0.79
   3 -13  -3    2.26    0.74
   3  13  -3    1.32    0.63
   3  13  -3    1.06    0.68
   3  13  -3    0.91    0.75
  -3  13   3    2.01    0.80
   2 -13  -3    0.48    0.51
  -2 -13   3    0.91    0.65
   2 -13  -3   -0.57    0.35
  -2 -13   3    1.30    0.77
   2 -13  -3    1.20    0.70
   2 -13  -3    0.83    0.81
  -2 -13   3    1.07    0.90
   2  13  -3    0.63    0.31
  -2  13   3    0.92    0.61
   2  13  -3    0.28    0.63
   2  13  -3    0.74    0.31
   2  13  -3   -0.10    0.61
   2  13  -3    1.73    0.76
   2  13  -3    2.11    0.69
  -2  13   3    1.90    0.71
  -1 -13   3    0.90    0.61
   1 -13  -3   -0.28    0.35
   1 -13  -3   -0.59    0.39
   1 -13  -3    0.95    0.73
  -1 -13   3    0.19    0.73
  -1 -13   3   -0.30    0.36
  -1  13   3    0.54    0.50
   1  13  -3    0.02    0.43
  -1  13   3    0.53    0.61
   1  13  -3   -0.17    0.33
   1  13  -3   -0.53    0.52
   0 -13   3    0.32    0.89
   0 -13   3   -0.28    0.32
   0 -13  -3    0.82    0.61
   0 -13  -3    1.28    0.66
   0 -13   3    0.91    0.59
   0 -13   3    0.96    0.47
   0  13  -3    1.08    0.58
   0  13   3    2.07    0.72
   0  13  -3    1.91    0.68
   0  13   3    1.02    0.32
   0  13  -3   -0.04    0.55
   0  13   3    1.60    0.60
   0  13   3    0.38    0.59
   1 -13   3    1.31    1.00
   1 -13   3    0.18    0.39
  -1 -13  -3    0.17    0.33
  -1 -13  -3    1.53    0.73
   1 -13   3    0.86    0.61
  -1 -13  -3    1.08    0.61
   1 -13   3    0.53    0.47
   1  13   3    0.44    0.48
   1  13   3    0.05    0.42
  -1  13  -3   -0.37    0.38
   1  13   3    0.43    0.64
   1  13   3    0.75    0.46
   1  13   3   -0.04    0.38
  -1  13  -3   -0.49    0.58
   2 -13   3   -0.26    0.43
   2 -13   3   -0.74    0.72
   2 -13   3   -0.62    0.41
  -2 -13  -3    0.35    0.68
   2 -13   3   -0.30    0.41
   2  13   3   -0.08    0.46
   2  13   3   -0.09    0.48
   2  13   3    0.04    0.45
   2  13   3   -0.79    0.56
  -2  13  -3    0.68    0.76
   2  13   3   -0.41    0.41
   3 -13   3    3.27    1.34
   3 -13   3    4.63    1.01
  -3 -13  -3    6.22    1.32
  -3  13  -3    3.16    1.15
   3  13   3    4.51    0.71
   3  13   3    2.39    0.54
   3  13   3    3.28    0.99
   3  13   3    4.61    0.98
   4 -13   3    0.22    0.49
   4 -13   3    0.22    1.01
   4  13   3    0.36    0.59
   4  13   3    0.07    0.73
   5 -13   3    0.33    0.67
   5 -13   3   -0.45    0.89
   5  13   3   -0.27    0.54
   5  13   3    1.43    0.82
   6 -13   3    0.09    0.68
   6  13   3   -0.62    0.70
   6  13   3    0.14    0.69
   6 -14  -3    0.19    0.59
  -6 -14   3    0.08    1.00
   6 -14  -3    0.30    0.50
   6  14  -3    0.15    0.72
   5 -14  -3    1.25    0.70
   5 -14  -3    1.11    0.62
  -5 -14   3    0.78    0.84
   5 -14  -3   -0.02    0.55
   5  14  -3    0.39    0.88
   5  14  -3    0.77    0.64
   4 -14  -3    0.79    0.58
   4 -14  -3    0.28    0.53
   4 -14  -3   -0.03    0.44
  -4 -14   3    0.60    0.76
   4  14  -3    1.23    0.88
   4  14  -3    0.49    0.65
   4  14  -3    0.27    0.50
   3 -14  -3    3.20    0.97
  -3 -14   3    4.41    1.55
   3 -14  -3    3.25    0.91
   3 -14  -3    1.44    0.67
  -3 -14   3    2.67    0.88
  -3  14   3    4.01    1.03
   3  14  -3    4.38    0.97
   3  14  -3    1.11    0.73
   3  14  -3    2.87    0.96
  -2 -14   3    1.44    0.70
   2 -14  -3    0.98    0.61
  -2 -14   3   -2.10    0.87
   2 -14  -3    0.30    0.58
   2 -14  -3    0.84    0.50
  -2 -14   3    0.15    0.56
   2  14  -3    0.33    0.52
   2  14  -3    0.02    0.43
   2  14  -3    0.35    0.33
  -2  14   3    1.42    0.77
   2  14  -3    0.25    0.33
  -2  14   3    1.32    0.86
   2  14  -3    2.48    0.86
   1 -14  -3   -0.38    0.42
   1 -14  -3   -0.12    0.57
  -1 -14   3    0.46    0.85
  -1 -14   3   -0.03    0.46
  -1 -14   3    2.48    0.83
   1 -14  -3    0.52    0.47
   1  14  -3   -0.12    0.45
   1  14  -3    0.58    0.62
   1  14  -3    0.94    0.58
  -1  14   3    0.40    0.59
  -1  14   3    1.25    0.83
  -1  14   3    0.72    0.22
   1  14  -3   -0.83    0.31
   0 -14  -3    0.64    0.58
   0 -14   3    0.76    0.54
   0 -14   3    1.43    0.58
   0 -14   3    3.44    1.42
   0 -14   3    1.12    0.62
   0 -14  -3    0.14    0.58
   0  14   3    0.49    0.58
   0  14   3    2.02    0.45
   0  14  -3    0.14    0.46
   0  14   3    1.35    0.66
   0  14  -3    1.65    1.03
   0  14   3    1.25    0.58
   0  14  -3    0.75    0.62
   1 -14   3    5.41    1.04
  -1 -14  -3    4.25    1.23
   1 -14   3    6.21    1.22
  -1 -14  -3    8.68    1.29
   1 -14   3    7.63    1.19
   1 -14   3    7.32    1.74
   1  14   3    5.64    1.09
  -1  14  -3    6.29    1.11
   1  14   3    7.41    1.21
   1  14   3    5.55    1.26
   1  14   3    6.81    1.00
   1  14   3    6.19    0.84
  -1  14  -3    6.98    1.32
  -2 -14  -3    1.69    0.87
   2 -14   3    1.00    0.69
   2 -14   3    1.14    0.55
   2 -14   3    1.02    1.14
   2 -14   3    2.74    0.73
   2  14   3    1.27    0.70
   2  14   3    1.66    0.63
   2  14   3    1.54    0.69
   2  14   3    1.73    0.90
   2  14   3    1.98    0.73
  -2  14  -3    1.75    0.91
   3 -14   3    2.64    1.43
  -3 -14  -3    2.87    1.00
   3 -14   3    4.77    1.13
  -3  14  -3    0.97    0.88
   3  14   3    3.20    1.07
   3  14   3    2.54    0.86
   3  14   3    2.40    0.55
   3  14   3    3.44    1.01
   3  14   3    2.72    0.63
   4 -14   3   -1.00    0.53
   4 -14   3    0.95    1.25
   4  14   3   -0.11    0.51
   4  14   3    0.58    0.70
   5 -14   3   -0.52    0.65
   5 -14   3   -0.58    1.07
   5  14   3   -0.02    0.63
   5  14   3    0.69    0.76
   6 -14   3   -0.08    0.65
   6  14   3   -1.03    0.70
   6 -15  -3    0.12    0.63
   6 -15  -3    0.81    0.63
   5 -15  -3    0.11    0.67
   5 -15  -3    0.68    0.65
  -5 -15   3   -0.30    0.85
   5  15  -3   -0.28    0.52
   5  15  -3   -0.13    0.67
   4 -15  -3    2.24    0.87
  -4 -15   3    0.13    0.80
   4 -15  -3    2.85    0.89
   4  15  -3    2.82    0.98
   4  15  -3    1.17    0.74
   4  15  -3    1.01    0.70
   3 -15  -3    2.39    0.91
  -3 -15   3    0.88    0.66
   3 -15  -3    1.57    0.74
   3  15  -3    0.74    0.72
   3  15  -3    2.06    0.89
  -3  15   3    2.58    0.98
   3  15  -3    0.37    0.60
   2 -15  -3   -0.15    0.53
   2 -15  -3   -0.28    0.40
  -2 -15   3   -1.23    0.87
   2 -15  -3    0.37    0.76
  -2 -15   3    0.58    0.72
   2  15  -3    0.28    0.61
   2  15  -3    0.03    0.60
  -2  15   3    0.60    0.73
   2  15  -3   -0.04    0.31
   2  15  -3   -0.11    0.29
   2  15  -3    0.21    0.64
   1 -15  -3   -1.25    0.58
  -1 -15   3   -0.16    0.41
  -1 -15   3    0.19    0.48
  -1 -15   3    0.40    0.89
   1 -15  -3    0.24    0.54
  -1  15   3    0.35    0.26
   1  15  -3   -0.14    0.43
   1  15  -3    0.40    0.67
   1  15  -3    0.19    0.52
   1  15  -3   -0.20    0.35
  -1  15   3   -0.18    0.52
  -1  15   3   -0.02    0.72
   0 -15  -3    1.97    0.72
   0 -15  -3    1.07    0.76
   0 -15   3    1.46    1.09
   0 -15   3    4.60    1.05
   0 -15   3    3.33    0.90
   0  15   3    2.81    0.59
   0  15   3    2.35    0.74
   0  15  -3    3.62    0.90
   0  15   3    2.61    0.90
   0  15   3    3.27    0.91
   0  15  -3    6.35    1.46
  -1 -15  -3    3.82    1.09
   1 -15   3    3.31    0.95
   1 -15   3    3.51    0.99
   1 -15   3    2.11    1.22
   1 -15   3    2.88    0.84
   1  15   3    1.82    0.67
  -1  15  -3    2.69    0.91
   1  15   3    2.99    0.94
   1  15   3    3.31    0.89
  -1  15  -3    2.64    1.07
   1  15   3    3.96    0.83
   1  15   3    2.33    0.99
   2 -15   3    3.36    0.91
   2 -15   3    4.80    1.02
   2 -15   3    1.90    1.27
   2 -15   3    3.83    0.95
  -2 -15  -3    2.21    0.91
  -2  15  -3    3.28    1.17
   2  15   3    3.07    0.97
   2  15   3    3.56    0.88
   2  15   3    2.86    0.86
   2  15   3    2.75    0.78
   2  15   3    2.77    0.72
  -3 -15  -3    0.87    0.89
   3 -15   3    0.35    0.61
   3 -15   3    0.71    1.09
   3  15   3   -0.55    0.36
   3  15   3    1.15    0.50
   3  15   3   -0.35    0.47
   3  15   3    0.14    0.63
   3  15   3    0.52    0.57
  -3  15  -3    2.65    1.08
   4 -15   3   -0.09    0.57
   4 -15   3    0.02    1.06
   4  15   3   -0.90    0.49
   4  15   3   -0.38    0.47
   5 -15   3   -1.34    1.07
   5 -15   3    0.20    0.77
   5  15   3   -0.30    0.60
   5  15   3   -0.02    0.66
   6 -15   3    0.66    0.79
   6  15   3   -0.08    0.68
   6 -16  -3    0.34    0.69
   6 -16  -3   -0.20    0.56
   5 -16  -3    0.34    0.73
  -5 -16   3   -0.13    0.83
   5 -16  -3    0.29    0.57
   5  16  -3    0.24    0.80
   4 -16  -3    3.36    0.98
   4 -16  -3    3.02    1.00
  -4 -16   3    3.52    1.16
   4  16  -3    3.06    1.02
   4  16  -3    3.45    1.17
   3 -16  -3    6.87    1.34
  -3 -16   3    8.84    1.47
   3 -16  -3    8.41    1.44
   3  16  -3    8.45    1.72
   3  16  -3    9.32    1.65
   2 -16  -3    5.88    1.24
   2 -16  -3    6.77    1.25
  -2 -16   3    5.38    1.69
   2 -16  -3    6.23    0.94
  -2 -16   3    7.09    1.35
  -2  16   3    4.37    1.11
   2  16  -3    7.82    0.93
   2  16  -3    6.62    1.31
   2  16  -3    6.20    0.82
   2  16  -3    5.01    1.23
  -1 -16   3    7.43    1.29
   1 -16  -3    7.24    1.32
   1 -16  -3    6.78    1.32
  -1 -16   3    3.99    1.54
  -1  16   3    9.94    1.60
   1  16  -3    7.57    1.26
   1  16  -3    6.62    1.43
  -1  16   3    7.19    0.67
   1  16  -3    7.45    1.05
   0 -16  -3    9.12    1.50
   0 -16   3    7.02    1.80
   0 -16  -3    7.98    1.35
   0 -16   3    7.41    1.37
   0 -16   3    7.27    1.41
   0  16  -3    5.37    1.27
   0  16   3    8.02    0.96
   0  16  -3    9.80    1.46
   0  16   3    8.73    1.41
   0  16   3    6.59    1.29
   0  16   3    7.88    1.30
   1 -16   3   10.07    1.44
   1 -16   3   11.15    1.49
   1 -16   3   14.97    2.50
  -1 -16  -3   12.59    1.79
   1  16   3   11.32    1.49
  -1  16  -3   12.53    2.12
   1  16   3   11.55    1.43
   1  16   3    9.79    1.66
   1  16   3   10.86    1.22
   1  16   3    9.16    1.35
  -2 -16  -3    3.98    1.09
   2 -16   3    5.68    1.24
   2 -16   3    7.39    1.22
   2 -16   3    6.34    1.28
   2 -16   3    1.56    1.28
   2  16   3    7.04    1.14
   2  16   3    3.38    1.06
   2  16   3    6.33    1.18
   2  16   3    5.94    1.14
  -2  16  -3    4.38    1.30
   2  16   3    5.77    0.97
   3 -16   3    1.80    1.43
  -3 -16  -3    1.09    1.02
   3 -16   3    0.77    0.74
   3  16   3    1.62    0.50
   3  16   3    0.52    0.72
   3  16   3    0.73    0.63
   3  16   3    1.35    0.56
   3  16   3    1.23    0.77
  -3  16  -3    1.69    1.13
   4 -16   3    0.57    1.10
   4 -16   3    0.82    0.72
   4  16   3    0.36    0.61
   4  16   3   -0.05    0.76
   5 -16   3    3.06    1.58
   5  16   3    0.52    0.69
   5  16   3    1.29    0.96
   6 -17  -3   -0.69    0.49
   6 -17  -3   -0.06    0.71
   5 -17  -3    0.74    0.74
   5 -17  -3   -0.73    0.52
  -5 -17   3   -0.97    0.78
   5  17  -3    0.02    0.79
  -4 -17   3    0.11    0.91
   4 -17  -3    0.74    0.76
   4 -17  -3   -0.65    0.48
   4  17  -3    1.21    1.03
   4  17  -3   -0.30    0.72
   3 -17  -3    1.57    0.92
   3 -17  -3    1.56    0.83
  -3 -17   3    2.04    0.88
   3  17  -3    1.04    0.83
   3  17  -3    0.64    0.87
   2 -17  -3    1.04    0.57
   2 -17  -3    1.18    0.86
   2 -17  -3    1.69    0.79
  -2 -17   3   -0.99    1.12
  -2 -17   3    0.11    0.69
   2  17  -3    1.13    0.47
   2  17  -3    0.78    0.75
  -2  17   3    1.20    0.85
   2  17  -3    0.13    0.60
   2  17  -3    0.68    0.46
   1 -17  -3    0.13    0.54
  -1 -17   3   -0.44    0.86
   1 -17  -3    0.39    0.75
  -1 -17   3    0.29    0.58
  -1  17   3    1.10    0.93
   1  17  -3    2.08    0.86
   1  17  -3    0.61    0.83
  -1  17   3    0.25    0.29
   1  17  -3    0.12    0.48
   0 -17   3    2.42    0.92
   0 -17   3    2.34    1.36
   0 -17  -3    2.54    0.97
   0  17   3    1.35    0.49
   0  17  -3    2.64    0.78
   0  17  -3    0.59    0.84
   0  17   3    1.88    0.96
   0  17   3    1.21    0.72
  -1 -17  -3   -0.07    0.73
   1 -17   3    0.88    0.73
   1 -17   3    0.14    0.94
   1 -17   3    0.48    0.65
   1  17   3   -0.26    0.52
   1  17   3    1.03    0.97
  -1  17  -3   -0.02    0.84
   1  17   3    0.29    0.55
   1  17   3   -0.09    0.38
  -2 -17  -3    0.40    0.75
   2 -17   3   -0.21    1.08
   2 -17   3    0.04    0.59
   2 -17   3    0.46    0.76
   2  17   3    0.34    0.66
   2  17   3   -0.16    0.46
  -2  17  -3   -0.28    0.75
   2  17   3    0.93    0.79
   2  17   3   -0.03    0.50
   3 -17   3   -1.05    0.87
   3  17   3    0.16    0.69
   3  17   3   -0.54    0.61
   3  17   3    0.23    0.59
   3  17   3    0.56    0.47
  -3  17  -3   -0.79    0.82
   3  17   3   -0.05    0.44
   4 -17   3    0.13    1.13
   4  17   3    0.35    0.62
   4  17   3    0.34    0.72
   5  17   3    0.55    0.75
   5  17   3    3.01    1.14
   6 -18  -3   -0.18    0.60
   5 -18  -3   -0.12    0.62
   5 -18  -3    0.14    0.82
   5  18  -3   -1.02    0.72
   4 -18  -3    0.03    0.66
   4 -18  -3   -0.03    0.69
  -4 -18   3    0.00    0.68
   4  18  -3    0.11    0.74
   4  18  -3   -0.80    0.71
   3 -18  -3    1.86    0.80
   3 -18  -3   -0.37    0.66
  -3 -18   3    3.71    1.21
   3  18  -3    1.30    0.99
   3  18  -3    1.21    0.82
   2 -18  -3    6.36    1.22
  -2 -18   3    4.45    1.19
  -2 -18   3    2.50    1.44
   2 -18  -3    5.77    0.99
   2 -18  -3    4.72    1.34
   2  18  -3    3.65    1.33
  -2  18   3    3.35    1.13
   2  18  -3    4.36    1.24
   2  18  -3    5.68    0.91
   2  18  -3    5.97    0.98
  -1 -18   3    2.55    0.89
   1 -18  -3    1.72    0.99
  -1 -18   3    0.98    1.15
   1  18  -3    2.19    0.99
   1  18  -3    2.50    1.16
   1  18  -3    1.53    0.71
  -1  18   3    0.85    0.80
   0 -18  -3    9.21    1.65
   0 -18   3    8.65    1.58
   0 -18   3    6.23    1.82
   0  18  -3   10.19    1.42
   0  18   3    8.60    1.01
   0  18   3    9.67    1.69
   0  18  -3    8.77    1.78
  -1 -18  -3    0.90    0.87
   1 -18   3    1.75    0.82
   1 -18   3    0.65    1.19
   1 -18   3   -0.30    0.63
   1  18   3    0.77    0.62
   1  18   3    0.78    0.70
   1  18   3    2.68    0.75
   1  18   3    2.06    1.16
  -1  18  -3    0.43    0.84
   2 -18   3    0.42    1.04
   2 -18   3   -0.92    0.49
   2 -18   3   -0.08    0.56
  -2 -18  -3    0.72    0.89
   2  18   3    0.46    0.79
  -2  18  -3    0.29    0.78
   2  18   3    0.23    0.56
   2  18   3   -0.14    0.40
   2  18   3    0.24    0.53
   3 -18   3   -0.20    0.68
   3 -18   3    1.06    1.43
   3  18   3    0.36    0.50
   3  18   3   -0.85    0.57
   3  18   3   -0.66    0.60
   3  18   3    0.00    0.64
  -3  18  -3   -0.43    0.97
   4 -18   3   -0.13    1.15
   4  18   3    0.42    0.81
   5 -19  -3    0.16    0.82
   5 -19  -3   -0.26    0.58
   4 -19  -3    0.41    0.69
   4 -19  -3    0.67    0.72
  -4 -19   3   -0.35    0.80
   4  19  -3   -0.81    0.80
   4  19  -3    0.05    0.84
   3 -19  -3    1.14    0.80
  -3 -19   3    0.35    0.71
   3 -19  -3    0.40    0.75
   3  19  -3    0.14    0.96
   3  19  -3   -0.48    0.69
  -2 -19   3    3.88    1.80
  -2 -19   3    1.32    0.87
   2 -19  -3    1.42    1.00
   2 -19  -3    2.43    1.19
   2  19  -3    2.00    0.66
   2  19  -3    3.95    1.32
  -2  19   3    1.56    0.95
   2  19  -3    1.86    0.66
   2  19  -3    2.59    0.98
  -1 -19   3    0.34    1.15
  -1 -19   3    0.69    0.77
   1 -19  -3    0.62    0.64
   1 -19  -3    0.98    0.99
   1  19  -3    1.06    0.81
   1  19  -3   -0.25    0.78
  -1  19   3    0.56    0.75
   1  19  -3    0.01    0.56
   0 -19   3    3.52    1.62
   0 -19   3    1.87    0.95
   0 -19  -3    1.69    1.07
   0  19   3    2.04    1.03
   0  19  -3    0.24    0.94
   0  19   3    1.84    0.60
   1 -19   3    1.87    0.87
  -1 -19  -3   -0.31    0.75
   1 -19   3    0.52    1.37
  -1  19  -3   -0.83    0.71
   1  19   3    1.17    0.62
   1  19   3    0.95    0.66
   1  19   3    1.00    0.81
   2 -19   3   -0.13    0.56
   2 -19   3   -0.44    1.04
  -2 -19  -3   -0.44    0.72
   2 -19   3   -0.04    1.21
   2  19   3    0.75    0.92
   2  19   3   -0.53    0.45
   2  19   3    0.89    0.60
  -2  19  -3   -0.92    0.93
   2  19   3    0.18    0.46
   3 -19   3    0.72    1.48
   3  19   3    0.51    0.95
   3  19   3    0.81    0.54
   3  19   3    0.12    0.68
   3  19   3   -0.45    0.39
   4 -19   3    0.58    1.50
   4  19   3   -0.18    0.86
   5 -20  -3    1.43    0.86
   5  20  -3    0.36    0.75
   4 -20  -3    0.13    0.88
   4 -20  -3    0.31    0.76
   4  20  -3    1.43    1.07
   4  20  -3    0.02    0.85
  -3 -20   3    0.43    0.89
   3 -20  -3    0.41    0.85
   3  20  -3   -0.65    0.84
   3  20  -3    0.18    0.74
   2 -20  -3    2.07    1.09
  -2 -20   3   -0.04    1.35
  -2 -20   3    0.82    0.94
   2  20  -3    0.98    0.59
   2  20  -3    1.38    0.59
  -2  20   3    0.71    1.12
   2  20  -3    1.75    0.93
   2  20  -3    0.77    1.05
  -1 -20   3    1.64    0.86
   1 -20  -3    3.69    1.01
  -1 -20   3    1.34    1.42
   1 -20  -3    2.27    1.09
  -1  20   3    2.66    1.02
   1  20  -3    2.47    0.79
   1  20  -3    1.33    1.15
   1  20  -3    2.17    0.92
   1  20  -3    2.45    0.80
   0 -20   3    1.48    0.93
   0 -20  -3    0.34    0.91
   0 -20   3   -0.29    1.48
   0  20  -3    2.53    1.36
   0  20   3    2.25    1.10
   1 -20   3    1.72    0.85
  -1 -20  -3   -0.16    0.75
   1 -20   3    0.37    1.39
  -1  20  -3    0.89    1.01
   1  20   3    0.65    0.58
   1  20   3    0.71    0.83
   2 -20   3    2.45    1.76
  -2 -20  -3    0.22    0.99
   2 -20   3    1.68    0.93
   2  20   3    0.48    1.08
   2  20   3   -0.22    0.61
   2  20   3    2.16    0.96
   2  20   3    0.80    0.68
  -2  20  -3   -0.77    0.89
   3 -20   3    3.20    1.78
   3  20   3    2.23    0.94
   3  20   3    3.20    1.50
   3  20   3    4.74    0.89
   3  20   3    3.81    0.89
   4 -20   3   -1.49    1.29
   4  20   3    0.34    0.90
   5 -21  -3    0.29    0.72
   4 -21  -3   -0.33    0.81
   4  21  -3    0.91    0.88
   4  21  -3    0.42    1.10
  -3 -21   3    0.17    0.86
   3 -21  -3    0.43    0.87
   3  21  -3    0.45    0.75
   3  21  -3   -0.53    0.97
  -2 -21   3    0.21    0.80
   2 -21  -3    0.37    1.05
   2  21  -3    0.16    0.71
   2  21  -3   -0.07    0.99
   2  21  -3   -0.23    0.46
   2  21  -3   -0.24    0.50
  -2  21   3    1.26    0.95
  -1 -21   3    0.20    0.78
   1 -21  -3    0.92    0.78
  -1 -21   3    0.65    1.68
   1 -21  -3    0.81    0.92
   1  21  -3    0.78    1.10
   1  21  -3   -0.66    0.53
   1  21  -3    0.39    0.75
  -1  21   3    0.54    0.84
   1  21  -3    0.13    0.56
   0 -21   3   -0.87    1.34
   0 -21   3    0.83    0.76
   0 -21  -3   -0.26    0.89
   0 -21  -3   -0.53    0.83
   0  21   3    0.20    0.88
   0  21  -3    0.12    0.83
  -1 -21  -3    0.51    0.77
   1 -21   3   -0.94    1.17
   1 -21   3    0.22    0.63
   1  21   3    0.69    0.81
  -1  21  -3   -0.86    0.94
   1  21   3    0.94    0.60
  -2 -21  -3    0.57    0.99
   2 -21   3    0.29    0.77
   2 -21   3   -0.65    1.40
   2  21   3    0.51    0.61
   2  21   3    0.34    0.63
   2  21   3   -0.66    0.89
   2  21   3    0.13    0.60
  -2  21  -3   -1.48    0.95
   3 -21   3    2.39    1.83
   3  21   3    0.33    0.58
   3  21   3   -0.61    0.64
   3  21   3    0.36    0.50
   3  21   3    0.83    1.12
   4  21   3    0.28    0.96
   4  22  -3   -1.09    1.04
   3 -22  -3    0.07    0.91
   3  22  -3    1.02    1.04
   3  22  -3   -0.49    0.67
   2 -22  -3   -0.21    0.96
  -2 -22   3    0.01    0.92
   2  22  -3   -0.22    0.74
  -2  22   3   -0.11    0.94
   2  22  -3    0.03    0.46
   2  22  -3    0.71    0.57
   2  22  -3   -0.62    0.96
   1 -22  -3    0.19    0.92
  -1 -22   3    1.72    1.57
  -1 -22   3    1.05    0.80
   1 -22  -3   -0.57    0.84
  -1  22   3    1.02    0.97
   1  22  -3    0.23    0.79
   1  22  -3   -0.91    0.80
   1  22  -3   -0.14    1.14
   1  22  -3    0.91    0.73
   0 -22   3    0.55    0.86
   0 -22  -3   -0.52    0.97
   0 -22  -3   -0.87    0.63
   0 -22   3    0.66    1.56
   0  22   3    1.47    0.99
   0  22  -3   -0.25    0.64
   0  22  -3    0.59    1.12
   1 -22   3   -0.41    1.36
  -1 -22  -3    0.70    1.01
  -1 -22  -3   -0.04    1.03
   1 -22   3    0.80    0.85
   1  22   3    1.44    0.93
  -1  22  -3   -0.18    0.94
   2 -22   3    0.19    0.73
  -2 -22  -3   -0.20    0.99
   2 -22   3    1.69    1.73
  -2  22  -3   -0.02    1.06
   2  22   3    0.67    0.68
   2  22   3   -0.60    0.92
   2  22   3    1.20    0.75
   2  22   3   -0.08    0.64
   3 -22   3    0.17    1.53
   3  22   3    0.26    0.82
   3  22   3   -0.37    0.52
   3  22   3   -0.68    1.05
   3  22   3    1.07    0.58
   4  22   3    0.47    1.04
   3 -23  -3    0.54    1.06
   3  23  -3   -0.43    1.00
   3  23  -3    0.43    0.81
   2 -23  -3    0.47    1.01
  -2 -23   3   -0.22    0.82
   2  23  -3    0.23    0.82
   2  23  -3    0.03    0.49
   2  23  -3   -0.18    0.52
   2  23  -3    0.74    1.26
  -1 -23   3   -0.69    1.44
  -1 -23   3    0.58    0.95
   1 -23  -3   -0.51    1.05
  -1  23   3    0.93    1.06
   1  23  -3    0.56    0.66
   1  23  -3   -0.28    0.80
   1  23  -3    0.51    1.12
   1  23  -3    0.41    0.74
   0 -23   3    0.27    0.85
   0 -23  -3    1.38    0.94
   0 -23  -3   -0.31    1.15
   0 -23   3   -0.40    1.39
   0  23  -3    0.24    0.80
   0  23   3    0.28    1.06
   0  23  -3    0.94    1.29
  -1 -23  -3   -0.28    1.05
   1 -23   3    0.40    1.75
   1 -23   3    0.27    0.85
  -1 -23  -3    0.98    1.15
  -1  23  -3    1.75    1.41
   1  23   3    1.18    0.94
  -2 -23  -3   -0.75    0.91
   2 -23   3   -0.42    0.85
  -2 -23  -3   -0.74    1.02
   2 -23   3    1.00    1.72
   2  23   3   -0.95    0.85
  -2  23  -3    0.19    1.08
   2  23   3   -0.70    0.54
   2  23   3   -0.22    0.56
   3 -23   3    0.19    1.89
   3  23   3    1.13    1.24
   3  23   3    0.13    0.52
   3  23   3   -0.03    0.70
   3  23   3   -0.63    0.62
   4  23   3    1.89    1.15
   3  24  -3   -0.34    0.99
   2 -24  -3    0.07    1.06
   2  24  -3    0.40    1.25
   2  24  -3    1.56    1.15
   2  24  -3   -0.02    0.49
   2  24  -3    1.06    0.66
  -1 -24   3    3.72    1.96
   1 -24  -3    0.68    1.06
  -1 -24   3    0.51    0.94
   1  24  -3    1.64    0.94
   1  24  -3   -0.01    1.24
  -1  24   3    0.28    1.21
   1  24  -3    0.92    0.90
   0 -24   3   -0.11    0.76
   0 -24  -3    1.26    0.98
   0 -24  -3   -0.68    0.74
   0 -24   3    0.55    1.81
   0  24  -3    1.02    0.94
   0  24   3    0.81    1.03
   0  24  -3   -0.50    1.00
  -1 -24  -3   -0.10    0.99
   1 -24   3    0.12    1.48
  -1 -24  -3   -1.34    0.93
   1 -24   3   -0.98    0.84
   1  24   3    0.72    0.95
  -1  24  -3    2.08    1.34
   2 -24   3   -0.80    1.70
  -2  24  -3    0.10    1.29
   2  24   3   -0.24    1.00
   2  24   3    0.74    0.73
   3  24   3    0.87    0.60
   3  24   3    1.06    0.99
   3  24   3    0.46    0.71
   2 -25  -3   -0.11    1.12
   2  25  -3    1.25    1.15
   2  25  -3   -0.86    1.30
   2  25  -3    0.52    0.59
   2  25  -3    0.50    0.68
   1 -25  -3    0.72    1.16
  -1 -25   3    0.28    1.40
  -1  25   3    1.17    1.21
   1  25  -3   -1.32    1.16
   1  25  -3    0.68    1.04
   0 -25   3    1.35    0.90
   0 -25   3    1.29    1.84
   0 -25  -3    1.45    1.10
   0 -25  -3    0.07    1.16
   0  25  -3    1.08    1.52
   0  25  -3   -0.11    0.81
   0  25   3   -0.24    0.94
   1 -25   3    0.06    1.04
  -1 -25  -3   -0.09    1.14
  -1 -25  -3    1.16    1.20
   1 -25   3    2.03    2.14
  -1  25  -3    1.07    1.50
   1  25   3    0.06    0.98
   2 -25   3   -2.90    1.46
  -2  25  -3    1.14    1.46
   2  25   3    0.58    1.22
   2  26  -3   -0.64    0.64
   2  26  -3    0.00    0.57
   1 -26  -3    0.51    1.41
   1  26  -3    0.81    1.02
   1  26  -3    0.55    1.44
  -1  26   3    0.45    1.37
   0 -26  -3    0.96    1.21
   0 -26   3    1.06    1.60
   0  26  -3   -0.65    1.44
   0  26  -3   -1.08    0.74
   0  26   3    1.21    1.25
   1 -26   3   -0.26    1.86
   1 -26   3    0.44    1.07
  -1 -26  -3    2.44    1.42
  -1  26  -3    2.08    1.84
   1  26   3    1.62    1.22
  -1  26  -3    0.11    0.99
  -1  27   3    0.31    1.26
   1  27  -3    0.55    0.94
   0 -27   3   -0.58    1.59
   0 -27  -3    1.53    1.38
   0  27   3   -0.03    0.85
   0  27  -3   -0.29    0.85
   0  27  -3   -0.98    1.33
   1 -27   3    1.71    1.76
  -1 -27  -3   -0.09    1.37
  -1  27  -3   -1.37    0.74
  -1  27  -3   -1.46    1.55
   0 -28  -3    0.51    1.27
   0 -28   3   -0.56    1.67
   0  28   3   -0.12    1.17
  -1 -28  -3    0.76    1.37
   6   0  -4    2.30    0.88
   6   0  -4    1.63    0.28
   5   0  -4    5.38    0.60
   5   0  -4    5.00    1.06
   4   0  -4   14.89    0.76
  -4   0   4   14.79    1.02
   4   0  -4   14.47    1.44
   4   0  -4   15.72    0.87
   3   0  -4    0.70    0.34
  -3   0   4    1.14    0.48
   3   0  -4    0.45    0.40
   3   0  -4   -0.05    0.37
   3   0  -4    0.42    0.37
  -3   0   4    0.94    0.43
   3   0  -4    0.32    0.28
  -2   0   4   93.88    2.38
   2   0  -4   92.53    2.32
   2   0  -4   94.03    2.49
   2   0  -4   92.17    2.44
   2   0  -4   95.68    2.30
   2   0  -4   91.44    2.23
  -2   0   4   96.30    2.58
   1   0  -4  236.69    3.99
  -1   0   4  240.60    4.47
   1   0  -4  246.17    4.40
  -1   0   4  232.73    3.97
   1   0  -4  238.80    3.74
   1   0  -4  234.85    4.31
   1   0  -4  250.04    3.93
   0   0  -4    0.62    0.41
   0   0   4    0.59    0.51
   0   0   4   -0.42    0.24
   0   0   4    0.55    0.54
   0   0  -4    0.39    0.32
   0   0  -4   -0.08    0.45
   0   0  -4    0.80    0.50
   0   0  -4    0.38    0.35
  -1   0  -4   35.41    1.82
   1   0   4   38.26    1.79
   1   0   4   33.08    1.63
   1   0   4   36.82    1.96
  -2   0  -4   28.11    1.74
   2   0   4   27.29    1.76
   2   0   4   29.04    1.79
  -2   0  -4   28.86    1.66
   2   0   4   28.86    1.56
   2   0   4   27.91    1.60
   3   0   4   16.62    1.64
   3   0   4   18.90    1.15
  -3   0  -4   20.61    1.53
   3   0   4   21.24    2.07
  -3   0  -4   20.66    1.81
   3   0   4   22.28    2.15
   4   0   4    0.08    0.48
  -4   0  -4   -0.19    0.54
   4   0   4    0.25    0.54
   5   0   4    1.17    0.81
   5   0   4    1.73    0.89
   6   0   4    3.52    1.14
   6   0   4    2.43    0.88
   6  -1  -4    2.11    0.40
   6   1  -4    1.17    0.27
   6   1  -4    1.18    0.93
  -5  -1   4    0.70    0.45
   5  -1  -4    0.09    0.25
   5  -1  -4    0.07    0.60
   5   1  -4    0.17    0.65
   5   1  -4   -0.02    0.20
   4  -1  -4   -0.21    0.21
  -4  -1   4    0.25    0.33
   4  -1  -4    0.35    0.38
   4  -1  -4   -0.39    0.42
   4  -1  -4    0.20    0.25
   4   1  -4   -0.03    0.53
   4   1  -4   -0.07    0.25
   4   1  -4   -0.35    0.22
  -4   1   4   -0.09    0.30
   4   1  -4   -0.22    0.26
   3  -1  -4    0.67    0.35
  -3  -1   4    0.66    0.40
   3  -1  -4   -0.17    0.39
   3  -1  -4    0.19    0.26
  -3  -1   4    0.15    0.34
   3  -1  -4    0.02    0.30
   3  -1  -4   -0.28    0.33
   3   1  -4    0.21    0.26
   3   1  -4    0.32    0.38
   3   1  -4    0.57    0.44
  -3   1   4    0.44    0.45
   3   1  -4    0.12    0.25
   3   1  -4    0.52    0.43
  -3   1   4    0.34    0.35
   2  -1  -4   46.47    1.66
   2  -1  -4   44.82    1.63
  -2  -1   4   46.05    1.72
   2  -1  -4   46.16    1.77
   2  -1  -4   45.13    1.71
   2  -1  -4   45.67    1.52
  -2  -1   4   46.88    1.88
   2   1  -4   45.99    1.70
  -2   1   4   47.00    1.65
   2   1  -4   48.27    1.86
   2   1  -4   46.72    1.62
   2   1  -4   44.12    1.64
  -2   1   4   49.06    1.87
   2   1  -4   46.07    1.70
  -1  -1   4   17.87    1.31
   1  -1  -4   15.00    1.07
   1  -1  -4   17.42    1.06
   1  -1  -4   17.41    1.15
   1  -1  -4   17.28    1.03
  -1  -1   4   18.66    1.20
  -1  -1   4   16.64    1.14
   1  -1  -4   17.59    1.22
  -1   1   4   16.43    1.10
   1   1  -4   15.94    0.93
   1   1  -4   17.14    1.12
   1   1  -4   16.84    1.23
  -1   1   4   17.50    1.28
   1   1  -4   16.84    1.47
   1   1  -4   17.56    1.05
   0  -1  -4    0.29    0.53
   0  -1  -4    1.32    0.48
   0  -1   4    0.20    0.46
   0  -1  -4   -0.42    0.30
   0  -1  -4    0.46    0.36
   0  -1  -4    0.78    0.45
   0  -1   4    0.62    0.39
   0  -1   4    0.97    0.45
   0   1   4   -0.06    0.31
   0   1  -4    0.38    0.36
   0   1   4    0.19    0.48
   0   1  -4    0.16    0.45
   0   1   4    0.13    0.29
   0   1  -4    0.26    0.44
   0   1  -4   -0.31    0.30
   0   1  -4    0.01    0.25
  -1  -1  -4   10.76    1.28
   1  -1   4    7.88    0.86
   1  -1   4    6.02    0.83
   1  -1   4    8.86    1.27
   1   1   4    6.30    0.88
   1   1   4    7.66    1.04
  -1   1  -4   12.14    1.44
   1   1   4    7.45    1.07
  -2  -1  -4    0.29    0.34
   2  -1   4    0.78    0.62
   2  -1   4   -0.19    0.28
   2  -1   4    0.81    0.61
  -2  -1  -4    0.04    0.53
   2  -1   4   -0.03    0.37
   2   1   4    0.33    0.60
  -2   1  -4    0.29    0.47
  -2   1  -4   -0.16    0.32
   2   1   4   -0.12    0.41
   2   1   4   -0.06    0.38
   2   1   4   -0.57    0.32
  -3  -1  -4    1.54    0.71
   3  -1   4    1.93    0.56
   3  -1   4    1.85    0.59
   3  -1   4    1.21    0.84
  -3  -1  -4    3.58    0.97
   3  -1   4    2.40    0.92
  -3   1  -4    0.95    0.63
   3   1   4    2.04    0.69
   3   1   4    3.24    1.13
   3   1   4    1.64    0.50
  -3   1  -4    3.96    0.89
   3   1   4    1.45    0.75
   4  -1   4    2.21    0.71
   4  -1   4    2.53    0.93
   4   1   4    6.04    1.27
   4   1   4    3.09    0.92
  -4   1  -4    3.05    0.81
   5  -1   4   -0.45    0.70
   5  -1   4   -0.67    0.49
   5   1   4    0.30    0.55
   5   1   4   -0.70    0.61
   6  -1   4    0.73    0.82
   6  -1   4    2.04    1.01
   6   1   4    0.62    0.67
   6   1   4    2.26    1.02
   6  -2  -4    0.06    0.21
   6   2  -4    0.31    0.79
   6   2  -4   -0.19    0.18
   5  -2  -4    0.97    0.66
   5  -2  -4    0.73    0.32
  -5  -2   4    1.44    0.58
   5   2  -4    1.04    0.36
   5   2  -4    1.14    0.82
   4  -2  -4    0.10    0.53
   4  -2  -4    1.19    0.44
  -4  -2   4    1.26    0.51
   4  -2  -4    1.18    0.34
   4  -2  -4    0.97    0.45
   4   2  -4    0.30    0.29
   4   2  -4    1.16    0.39
   4   2  -4    0.59    0.39
  -4   2   4    2.20    0.51
   4   2  -4    1.98    0.69
   3  -2  -4    2.97    0.67
   3  -2  -4    1.58    0.50
   3  -2  -4    2.18    0.55
  -3  -2   4    1.89    0.56
   3  -2  -4    1.60    0.48
   3  -2  -4    1.20    0.47
  -3  -2   4    2.54    0.60
   3   2  -4    2.09    0.62
   3   2  -4    1.18    0.39
   3   2  -4    3.39    0.72
  -3   2   4    2.35    0.53
   3   2  -4    1.34    0.48
   3   2  -4    1.80    0.48
  -3   2   4    2.25    0.56
   2  -2  -4   13.79    1.02
   2  -2  -4   11.70    1.18
   2  -2  -4   11.38    1.01
   2  -2  -4   12.47    0.78
   2  -2  -4   11.51    1.17
  -2  -2   4   11.50    1.22
  -2  -2   4    9.79    1.07
  -2   2   4   12.94    1.26
   2   2  -4   11.17    0.99
   2   2  -4   13.59    1.24
   2   2  -4   10.77    1.07
   2   2  -4   11.93    1.23
   2   2  -4   10.34    1.07
   1  -2  -4   11.32    1.08
  -1  -2   4   10.65    1.01
   1  -2  -4   15.41    1.46
   1  -2  -4   13.63    1.00
   1  -2  -4   12.11    1.21
   1  -2  -4   12.78    1.12
  -1  -2   4   11.23    1.30
  -1  -2   4    9.82    1.07
   1   2  -4   12.14    1.13
  -1   2   4   13.95    1.18
  -1   2   4   10.83    1.25
   1   2  -4   12.73    0.86
   1   2  -4   11.88    1.20
   1   2  -4   12.88    1.42
   1   2  -4   13.86    1.26
   0  -2  -4    4.67    0.76
   0  -2   4    2.88    0.79
   0  -2  -4    4.54    0.77
   0  -2   4    2.71    0.50
   0  -2  -4    3.65    0.77
   0  -2  -4    7.06    1.09
   0  -2   4    3.28    0.67
   0  -2  -4    5.29    0.79
   0   2   4    4.99    0.97
   0   2   4    3.46    0.65
   0   2  -4    4.78    0.83
   0   2  -4    4.79    0.70
   0   2  -4    5.25    0.90
   0   2   4    4.13    0.72
   0   2  -4    5.81    0.78
   0   2  -4    4.13    0.81
   1  -2   4    3.90    0.75
   1  -2   4    3.68    0.70
  -1  -2  -4    4.44    0.90
   1  -2   4    5.49    1.03
   1   2   4    4.42    0.83
  -1   2  -4    4.14    0.90
   1   2   4    3.80    0.85
   1   2   4    5.10    0.86
   2  -2   4    2.96    0.85
   2  -2   4    4.37    0.77
   2  -2   4    3.38    0.91
   2  -2   4    1.88    0.60
  -2  -2  -4    4.01    0.92
  -2  -2  -4    3.78    0.78
   2   2   4    3.08    0.93
   2   2   4    3.04    0.70
   2   2   4    4.04    0.88
  -2   2  -4    3.94    0.81
   2   2   4    3.22    0.86
  -2   2  -4    2.54    0.79
   3  -2   4    1.36    0.59
  -3  -2  -4    0.70    0.56
  -3  -2  -4    0.65    0.56
   3  -2   4   -0.41    0.64
   3  -2   4    0.42    0.54
   3  -2   4    0.78    0.42
   3   2   4   -0.07    0.67
   3   2   4    0.74    0.66
   3   2   4    0.73    0.40
   3   2   4    0.42    0.55
  -3   2  -4    0.82    0.62
  -3   2  -4    0.91    0.57
   4  -2   4    2.42    0.79
   4  -2   4    1.34    0.78
   4   2   4   -0.21    0.54
   4   2   4    1.68    0.66
   5  -2   4   -0.64    0.57
   5  -2   4    0.50    0.70
   5   2   4   -0.13    0.59
   5   2   4    0.50    0.82
   6  -2   4   -0.30    0.56
   6  -2   4    0.48    0.77
   6   2   4   -0.29    0.56
   6   2   4    1.03    0.83
   6  -3  -4    0.34    0.27
   6   3  -4    0.18    0.24
   6   3  -4    1.44    0.88
   5  -3  -4    0.13    0.26
  -5  -3   4    0.21    0.50
   5   3  -4   -0.09    0.23
   5   3  -4    1.07    0.69
   4  -3  -4    1.84    0.45
   4  -3  -4    2.23    0.57
   4  -3  -4    2.19    0.63
   4  -3  -4    1.64    0.41
  -4  -3   4    1.01    0.52
   4   3  -4    2.01    0.47
   4   3  -4    0.48    0.33
   4   3  -4    0.62    0.33
   4   3  -4    1.39    0.65
   3  -3  -4   -0.19    0.24
   3  -3  -4    0.26    0.35
   3  -3  -4    0.22    0.36
  -3  -3   4    0.43    0.43
   3  -3  -4    0.61    0.41
  -3  -3   4   -0.06    0.37
   3  -3  -4   -0.16    0.26
   3   3  -4    0.10    0.26
  -3   3   4   -0.14    0.33
   3   3  -4    0.47    0.42
   3   3  -4    0.83    0.49
   3   3  -4    0.19    0.31
   2  -3  -4    2.97    0.73
   2  -3  -4    3.06    0.50
   2  -3  -4    3.44    0.62
  -2  -3   4    3.02    0.66
  -2  -3   4    2.96    0.76
   2  -3  -4    2.60    0.61
   2  -3  -4    2.48    0.53
  -2   3   4    2.22    0.58
   2   3  -4    3.07    0.68
   2   3  -4    2.23    0.63
   2   3  -4    2.23    0.55
   2   3  -4    3.29    0.63
   2   3  -4    2.62    0.63
  -1  -3   4    3.78    0.82
  -1  -3   4    2.08    0.62
   1  -3  -4    2.71    0.57
   1  -3  -4    2.42    0.59
   1  -3  -4    2.06    0.53
  -1  -3   4    1.37    0.51
   1  -3  -4    2.23    0.62
   1  -3  -4    2.30    0.65
   1   3  -4    1.94    0.51
  -1   3   4    2.68    0.57
   1   3  -4    2.00    0.74
   1   3  -4    2.42    0.66
   1   3  -4    1.85    0.47
   1   3  -4    2.72    0.64
  -1   3   4    2.26    0.73
   0  -3   4    0.12    0.42
   0  -3   4    0.09    0.45
   0  -3  -4    0.35    0.42
   0  -3   4   -0.04    0.31
   0  -3  -4   -0.31    0.40
   0  -3  -4   -0.08    0.22
   0  -3  -4   -0.06    0.30
   0  -3   4   -0.24    0.32
   0   3   4    0.16    0.35
   0   3   4   -0.21    0.44
   0   3  -4   -0.36    0.27
   0   3  -4   -0.48    0.41
   0   3  -4   -0.25    0.27
   0   3   4   -0.17    0.30
   0   3  -4    0.87    0.52
  -1  -3  -4    1.96    0.64
   1  -3   4    1.54    0.54
   1  -3   4    1.14    0.56
   1  -3   4    1.19    0.50
  -1   3  -4    1.31    0.60
  -1   3  -4    1.06    0.45
   1   3   4    0.88    0.45
   1   3   4    0.29    0.39
   1   3   4    0.98    0.56
   2  -3   4    0.60    0.47
  -2  -3  -4    0.67    0.54
  -2  -3  -4    0.39    0.58
   2  -3   4    0.61    0.58
   2  -3   4    0.86    0.57
  -2   3  -4    0.95    0.49
   2   3   4    1.25    0.57
   2   3   4    0.64    0.68
   2   3   4    1.10    0.53
   2   3   4    1.27    0.63
  -2   3  -4    1.31    0.62
   3  -3   4    4.02    0.88
   3  -3   4    4.87    0.77
   3  -3   4    3.49    0.92
  -3  -3  -4    3.66    0.97
   3  -3   4    2.81    0.89
  -3  -3  -4    5.53    1.11
   3   3   4    2.46    0.71
  -3   3  -4    3.54    1.00
   3   3   4    3.43    0.94
   3   3   4    5.57    1.22
   3   3   4    3.34    0.64
  -3   3  -4    2.34    0.77
   4  -3   4    0.61    0.70
   4  -3   4    0.00    0.46
   4   3   4    0.66    0.66
   4   3   4    0.29    0.56
   5  -3   4   -0.35    0.66
   5  -3   4   -0.75    0.37
   5   3   4   -0.37    0.52
   5   3   4   -0.35    0.69
   6  -3   4   -0.29    0.55
   6  -3   4   -0.63    0.93
   6   3   4    0.45    0.62
   6   3   4    1.40    0.88
   7  -4  -4    0.78    0.26
   7  -4  -4    0.31    0.28
   7   4  -4    3.19    1.28
   6  -4  -4    2.37    0.49
   6  -4  -4    1.91    0.47
   6   4  -4    1.15    0.33
   6   4  -4    2.64    1.09
  -5  -4   4    0.78    0.62
   5  -4  -4    0.16    0.22
   5   4  -4   -0.02    0.27
   5   4  -4    0.37    0.67
   4  -4  -4    5.07    0.67
   4  -4  -4    4.80    0.68
  -4  -4   4    5.87    0.90
   4  -4  -4    5.87    0.81
   4  -4  -4    5.87    0.90
   4   4  -4    4.33    1.04
   4   4  -4    5.37    0.69
   4   4  -4    4.78    0.63
   4   4  -4    3.58    0.58
  -3  -4   4    4.71    0.83
   3  -4  -4    5.39    0.68
   3  -4  -4    5.83    0.77
  -3  -4   4    5.10    0.82
   3  -4  -4    6.38    0.72
   3  -4  -4    5.66    0.77
   3   4  -4    6.77    0.88
   3   4  -4    4.81    0.94
  -3   4   4    5.57    0.78
   3   4  -4    4.06    0.63
   3   4  -4    3.57    0.63
  -2  -4   4    1.22    0.61
  -2  -4   4    2.68    0.67
   2  -4  -4    2.82    0.42
   2  -4  -4    1.84    0.52
   2  -4  -4    2.53    0.66
   2  -4  -4    2.56    0.63
   2  -4  -4    1.30    0.44
  -2   4   4    3.06    0.73
   2   4  -4    2.03    0.58
  -2   4   4    2.91    0.73
   2   4  -4    2.05    0.55
   2   4  -4    2.46    0.66
   2   4  -4    2.58    0.70
   1  -4  -4    4.69    0.86
   1  -4  -4    4.81    0.88
   1  -4  -4    5.01    0.78
  -1  -4   4    4.41    0.79
   1  -4  -4    4.93    0.71
  -1  -4   4    5.18    0.75
   1  -4  -4    3.37    0.68
  -1  -4   4    6.11    1.11
   1   4  -4    2.42    0.62
   1   4  -4    4.82    0.91
   1   4  -4    4.28    0.73
  -1   4   4    5.91    0.82
  -1   4   4    5.53    0.91
   1   4  -4    4.91    0.63
   0  -4  -4    7.98    0.93
   0  -4  -4    8.64    1.12
   0  -4   4    6.38    0.87
   0  -4  -4   11.37    1.41
   0  -4   4    7.83    0.99
   0  -4   4    9.78    1.14
   0  -4   4    7.81    1.16
   0  -4  -4   10.69    1.16
   0   4  -4    8.37    0.95
   0   4  -4    9.23    0.96
   0   4  -4    9.88    1.19
   0   4   4    7.14    1.15
   0   4  -4    8.05    1.23
   0   4   4    5.65    0.83
   0   4   4   10.83    1.09
   1  -4   4   37.77    1.77
  -1  -4  -4   39.23    1.96
   1  -4   4   35.34    1.99
   1  -4   4   39.05    1.87
   1   4   4   40.82    1.84
  -1   4  -4   38.24    1.90
   1   4   4   34.91    1.99
  -1   4  -4   40.03    2.16
  -2  -4  -4    2.10    0.64
   2  -4   4    4.48    1.03
  -2  -4  -4    2.25    0.69
   2  -4   4    1.71    0.60
   2  -4   4    3.31    0.74
   2   4   4    2.79    0.73
  -2   4  -4    2.41    0.79
  -2   4  -4    1.74    0.70
   2   4   4    3.43    0.76
   2   4   4    1.89    0.70
   3  -4   4   11.84    1.44
  -3  -4  -4   12.61    1.60
   3  -4   4    8.13    0.90
   3  -4   4    6.71    1.15
   3   4   4    5.84    0.94
   3   4   4    6.60    0.78
  -3   4  -4    9.59    1.37
   3   4   4    9.19    1.39
   4  -4   4   10.40    1.52
   4  -4   4   10.98    1.51
   4   4   4    9.32    1.46
   5  -4   4    7.34    1.54
   5  -4   4    6.25    1.19
   5   4   4    3.74    1.04
   5   4   4    6.64    1.36
   6  -4   4    2.64    1.30
   6  -4   4    0.04    0.65
   6   4   4    0.51    0.77
   6   4   4   -0.20    0.61
   7  -5  -4   -0.10    0.25
   7  -5  -4   -0.18    0.23
   7   5  -4    1.10    1.11
   6  -5  -4    0.49    0.37
   6  -5  -4    0.05    0.23
   6   5  -4   -0.12    0.78
   6   5  -4    0.72    0.29
   5  -5  -4    0.41    0.32
  -5  -5   4   -0.01    0.48
   5   5  -4    0.27    0.34
   5   5  -4    2.05    0.86
   4  -5  -4    2.69    0.55
   4  -5  -4    2.41    0.55
  -4  -5   4    2.65    0.80
   4   5  -4    1.89    0.46
   4   5  -4    0.68    0.68
   4   5  -4    2.83    0.58
   4   5  -4    3.46    0.56
   3  -5  -4   -0.08    0.25
   3  -5  -4    0.56    0.32
  -3  -5   4   -0.04    0.50
   3  -5  -4    0.48    0.46
  -3  -5   4   -0.12    0.34
   3  -5  -4   -0.28    0.32
   3  -5  -4   -0.09    0.23
   3   5  -4   -0.30    0.25
  -3   5   4    0.34    0.41
   3   5  -4    0.07    0.32
   3   5  -4   -0.36    0.36
   3   5  -4    0.00    0.37
  -2  -5   4   -0.34    0.41
   2  -5  -4    0.81    0.47
   2  -5  -4    0.43    0.35
  -2  -5   4    0.26    0.42
   2  -5  -4    0.04    0.32
   2  -5  -4    0.57    0.44
   2  -5  -4    0.30    0.19
   2   5  -4   -0.07    0.39
   2   5  -4    0.79    0.52
   2   5  -4    0.12    0.37
  -2   5   4    0.05    0.31
   2   5  -4   -0.36    0.28
  -2   5   4    0.04    0.41
  -1  -5   4    0.01    0.50
  -1  -5   4    1.00    0.55
   1  -5  -4    0.36    0.54
  -1  -5   4    0.08    0.34
   1  -5  -4   -0.46    0.30
   1  -5  -4    0.00    0.36
   1  -5  -4   -0.23    0.29
   1  -5  -4    0.71    0.39
  -1   5   4    0.75    0.41
   1   5  -4    0.35    0.42
   1   5  -4   -0.21    0.30
   1   5  -4    0.10    0.25
   1   5  -4    0.60    0.48
  -1   5   4   -0.82    0.38
   0  -5  -4    4.02    0.83
   0  -5   4    3.75    0.74
   0  -5   4    2.82    0.71
   0  -5  -4    6.70    0.99
   0  -5   4    3.97    0.69
   0  -5   4    5.90    1.00
   0  -5  -4    3.53    0.69
   0   5  -4    3.42    0.65
   0   5  -4    4.00    0.72
   0   5   4    4.99    0.95
   0   5   4    3.24    0.67
   0   5   4    2.93    0.63
   0   5  -4    3.97    0.84
   1  -5   4    2.43    0.61
   1  -5   4    2.98    0.66
  -1  -5  -4    4.09    0.96
   1  -5   4    3.55    0.88
   1   5   4    1.98    0.63
   1   5   4    3.39    0.67
   1   5   4    3.22    0.92
  -1   5  -4    2.64    0.77
  -1   5  -4    4.22    0.79
   2  -5   4    0.97    0.64
  -2  -5  -4    1.16    0.49
   2  -5   4    1.42    0.54
  -2  -5  -4    1.33    0.59
   2  -5   4    1.05    0.52
  -2   5  -4    1.87    0.68
   2   5   4    0.95    0.53
  -2   5  -4    1.53    0.60
   2   5   4    1.80    0.57
   2   5   4    1.75    0.63
   3  -5   4    0.38    0.43
  -3  -5  -4   -0.65    0.43
   3  -5   4    1.07    0.60
   3  -5   4    0.07    0.52
   3   5   4   -0.65    0.34
   3   5   4   -0.20    0.36
  -3   5  -4    0.27    0.62
   3   5   4   -0.14    0.48
   4  -5   4    0.14    0.49
   4  -5   4    1.02    0.84
   4   5   4    0.90    0.61
   4   5   4    0.34    0.51
   5  -5   4    0.22    0.52
   5  -5   4    0.72    0.78
   5   5   4    0.40    0.77
   5   5   4    0.63    0.79
   6  -5   4   -0.69    0.99
   6  -5   4    0.26    0.59
   6   5   4   -0.12    0.69
   6   5   4   -0.45    0.64
   7  -6  -4    0.30    0.36
   7  -6  -4   -0.02    0.33
   7   6  -4   -0.72    0.92
   6  -6  -4   -0.10    0.27
   6  -6  -4    0.56    0.33
   6   6  -4    0.01    0.88
   6   6  -4   -0.07    0.27
   5  -6  -4    0.38    0.28
  -5  -6   4    1.05    0.64
   5  -6  -4    0.66    0.42
   5   6  -4   -0.15    0.62
   5   6  -4    0.07    0.30
  -4  -6   4    0.84    0.62
   4  -6  -4    1.87    0.48
   4  -6  -4    1.04    0.46
   4   6  -4    0.97    0.64
   4   6  -4    1.66    0.49
   4   6  -4    1.28    0.46
  -3  -6   4    2.57    0.76
   3  -6  -4    0.70    0.45
   3  -6  -4    1.30    0.53
   3  -6  -4    1.79    0.40
   3  -6  -4    1.67    0.66
  -3  -6   4    1.24    0.59
  -3   6   4    1.66    0.58
   3   6  -4    1.10    0.41
   3   6  -4    1.04    0.67
   3   6  -4    0.86    0.49
   3   6  -4    0.05    0.34
  -2  -6   4    0.07    0.41
   2  -6  -4   -0.07    0.31
  -2  -6   4   -0.27    0.40
   2  -6  -4    0.64    0.45
   2  -6  -4    0.19    0.29
   2  -6  -4    0.02    0.44
   2   6  -4    0.52    0.42
  -2   6   4    0.15    0.37
   2   6  -4   -0.84    0.33
   2   6  -4    0.16    0.37
   2   6  -4   -0.20    0.43
  -2   6   4    0.26    0.43
   1  -6  -4    0.25    0.39
  -1  -6   4    0.11    0.37
  -1  -6   4    0.11    0.51
   1  -6  -4    0.58    0.54
  -1  -6   4   -0.10    0.43
   1  -6  -4    0.02    0.28
   1   6  -4   -0.82    0.30
   1   6  -4    0.38    0.49
   1   6  -4    0.24    0.29
  -1   6   4    0.22    0.34
   1   6  -4   -0.71    0.44
  -1   6   4   -0.03    0.41
   0  -6   4    2.20    0.59
   0  -6   4    4.39    0.99
   0  -6  -4    3.22    0.76
   0  -6  -4    3.76    0.59
   0  -6  -4    2.96    0.75
   0  -6   4    3.83    0.79
   0  -6   4    3.87    0.73
   0  -6  -4    5.10    0.85
   0   6   4    2.33    0.68
   0   6  -4    4.56    0.79
   0   6  -4    1.93    0.56
   0   6   4    3.82    0.72
   0   6   4    3.78    0.93
   0   6  -4    3.37    0.83
  -1  -6  -4    6.10    1.09
   1  -6   4    6.00    0.93
   1  -6   4    5.71    1.16
   1  -6   4    4.67    0.81
   1   6   4    5.82    1.09
  -1   6  -4    5.79    0.93
   1   6   4    6.79    0.98
   1   6   4    4.73    0.94
  -1   6  -4    5.18    1.02
  -2  -6  -4    6.47    1.11
  -2  -6  -4    5.97    1.02
   2  -6   4    4.66    0.86
   2  -6   4    5.56    0.97
   2  -6   4    3.83    1.08
  -2   6  -4    5.04    0.98
   2   6   4    5.92    0.90
  -2   6  -4    4.67    1.09
   2   6   4    4.03    1.00
   2   6   4    4.71    1.02
   3  -6   4    3.75    0.86
   3  -6   4    2.11    0.91
   3  -6   4    3.66    0.87
  -3  -6  -4    4.92    1.04
   3   6   4    2.73    0.86
  -3   6  -4    4.49    1.00
   3   6   4    1.92    0.75
   3   6   4    5.20    0.84
   4  -6   4    1.42    0.93
   4  -6   4    0.46    0.60
   4   6   4   -0.02    0.54
   4   6   4    0.45    0.51
   5  -6   4    2.73    0.89
   5  -6   4    3.34    1.08
   5   6   4    1.03    0.74
   5   6   4    1.71    0.88
   6  -6   4    2.65    1.30
   6  -6   4    0.21    0.69
   6   6   4   -0.81    0.53
   6   6   4   -0.13    0.71
   7  -7  -4   -0.15    0.30
   7  -7  -4    0.18    0.39
   7   7  -4    1.21    1.04
   6  -7  -4   -0.11    0.34
   6  -7  -4    0.36    0.40
   6   7  -4    0.17    0.86
   6   7  -4   -0.25    0.28
  -5  -7   4   -0.06    0.52
   5  -7  -4    0.16    0.31
   5  -7  -4    0.01    0.33
   5   7  -4   -0.54    0.67
   5   7  -4    0.37    0.33
   4  -7  -4    0.64    0.44
  -4  -7   4    0.82    0.59
   4  -7  -4    0.57    0.41
   4   7  -4    1.33    0.54
   4   7  -4    0.41    0.39
   4   7  -4    0.97    0.68
  -3  -7   4    0.14    0.61
  -3  -7   4    0.17    0.49
   3  -7  -4   -0.09    0.34
   3  -7  -4   -0.78    0.51
   3  -7  -4    0.07    0.31
   3  -7  -4    0.00    0.24
  -3   7   4   -0.15    0.37
   3   7  -4    0.46    0.42
   3   7  -4    0.06    0.39
   3   7  -4   -0.56    0.34
   3   7  -4   -0.62    0.44
  -2  -7   4    0.66    0.55
   2  -7  -4    0.44    0.39
   2  -7  -4    1.65    0.45
  -2  -7   4    0.66    0.52
   2  -7  -4    0.34    0.41
   2   7  -4    0.71    0.51
   2   7  -4    1.11    0.53
  -2   7   4    1.28    0.65
   2   7  -4    0.65    0.49
   2   7  -4    1.48    0.64
  -2   7   4    0.29    0.42
  -1  -7   4    1.68    0.72
   1  -7  -4    1.31    0.54
  -1  -7   4    2.82    0.73
   1  -7  -4    2.13    0.23
  -1  -7   4    1.16    0.57
   1  -7  -4    1.88    0.69
   1  -7  -4    2.87    0.68
   1   7  -4    1.70    0.74
   1   7  -4    1.73    0.47
   1   7  -4    1.50    0.55
  -1   7   4    0.97    0.43
  -1   7   4    1.34    0.61
   1   7  -4    1.89    0.72
   0  -7  -4    0.51    0.49
   0  -7  -4   -0.22    0.43
   0  -7  -4   -0.11    0.29
   0  -7   4    0.32    0.40
   0  -7   4    0.21    0.38
   0  -7   4    0.46    0.41
   0  -7  -4   -0.18    0.39
   0  -7   4    0.52    0.63
   0   7   4   -0.11    0.46
   0   7   4    0.00    0.35
   0   7  -4    0.38    0.40
   0   7  -4   -0.24    0.34
   0   7  -4    0.19    0.50
   0   7   4   -0.21    0.31
   1  -7   4    1.48    0.64
   1  -7   4    2.14    0.71
   1  -7   4    1.61    0.75
  -1  -7  -4    2.10    0.70
   1  -7   4    2.77    0.77
  -1  -7  -4    0.49    0.42
  -1   7  -4    3.30    0.80
   1   7   4    2.25    0.70
   1   7   4    1.95    0.57
  -1   7  -4    2.69    0.76
   1   7   4    3.32    0.92
   2  -7   4    0.50    0.59
   2  -7   4    1.47    0.84
  -2  -7  -4    0.25    0.56
   2  -7   4    0.03    0.51
  -2  -7  -4    0.19    0.48
  -2   7  -4   -0.64    0.45
  -2   7  -4    0.47    0.50
   2   7   4   -0.07    0.37
   2   7   4    1.23    0.63
   2   7   4    0.76    0.61
   3  -7   4    0.81    0.64
   3  -7   4    0.03    0.57
  -3  -7  -4    0.62    0.56
   3  -7   4    0.83    0.49
   3   7   4   -0.54    0.48
   3   7   4   -0.18    0.33
   3   7   4   -0.09    0.34
  -3   7  -4   -0.40    0.56
   3   7   4   -0.01    0.50
   4  -7   4   -0.45    0.39
   4  -7   4    0.48    0.64
   4   7   4    0.65    0.72
   4   7   4   -0.29    0.51
   5  -7   4    1.50    1.06
   5  -7   4   -0.01    0.59
   5   7   4    0.35    0.70
   5   7   4    0.38    0.72
   6  -7   4    1.02    0.72
   6  -7   4    0.24    0.98
   6   7   4    0.70    0.90
   6   7   4   -0.67    0.76
   7  -8  -4   -0.04    0.40
   7  -8  -4    0.66    0.36
   7   8  -4    0.94    1.18
   6  -8  -4   -0.04    0.29
   6  -8  -4    0.09    0.38
   6   8  -4    0.80    0.43
   6   8  -4    0.83    1.03
   5  -8  -4    2.46    0.64
   5  -8  -4    3.75    0.61
  -5  -8   4    2.27    0.81
   5   8  -4    4.38    1.17
   5   8  -4    3.11    0.65
   4  -8  -4    0.29    0.43
   4  -8  -4    0.29    0.45
  -4  -8   4    0.95    0.63
   4   8  -4    0.76    0.55
   4   8  -4    1.46    0.83
   4   8  -4   -0.20    0.38
  -3  -8   4    2.51    0.86
   3  -8  -4    2.39    0.67
  -3  -8   4    4.29    0.92
   3  -8  -4    5.18    1.09
   3  -8  -4    4.76    0.51
   3  -8  -4    3.68    0.75
   3   8  -4    2.68    0.66
   3   8  -4    2.28    0.63
   3   8  -4    1.92    0.80
  -3   8   4    2.81    0.78
   3   8  -4    4.20    0.76
   2  -8  -4    6.38    0.76
  -2  -8   4    4.18    1.11
   2  -8  -4    4.57    0.77
   2  -8  -4    3.54    0.78
   2  -8  -4    4.60    1.02
  -2  -8   4    3.44    0.86
  -2   8   4    6.00    1.04
   2   8  -4    4.95    0.84
   2   8  -4    5.02    1.01
  -2   8   4    5.51    0.99
   2   8  -4    5.46    1.02
   2   8  -4    8.07    1.21
   1  -8  -4    4.68    0.88
  -1  -8   4    5.32    1.02
   1  -8  -4    5.19    0.84
   1  -8  -4    3.70    0.86
  -1  -8   4    5.32    1.07
  -1  -8   4    5.68    0.93
   1   8  -4    3.36    0.75
   1   8  -4    5.08    0.76
   1   8  -4    5.15    1.06
  -1   8   4    4.21    0.93
   1   8  -4    4.70    0.86
  -1   8   4    5.41    0.88
   0  -8  -4    7.52    1.22
   0  -8   4    5.68    0.87
   0  -8  -4    7.25    0.75
   0  -8  -4    9.42    1.13
   0  -8   4    5.67    0.92
   0  -8  -4    6.38    0.98
   0  -8   4    7.66    1.14
   0  -8   4    5.34    1.23
   0   8   4    4.96    0.89
   0   8  -4    6.06    0.94
   0   8  -4    5.88    0.90
   0   8  -4    6.09    1.14
   0   8   4    6.56    1.20
   0   8   4    9.55    1.15
  -1  -8  -4    0.70    0.58
  -1  -8  -4   -0.45    0.33
   1  -8   4    0.19    0.53
   1  -8   4   -0.14    0.37
   1  -8   4   -0.20    0.43
   1  -8   4   -0.11    0.60
  -1   8  -4    1.03    0.62
  -1   8  -4    0.46    0.54
   1   8   4    1.27    0.58
   1   8   4    0.82    0.50
   1   8   4   -0.14    0.46
   2  -8   4   17.36    1.63
  -2  -8  -4   13.41    1.55
  -2  -8  -4   13.27    1.60
   2  -8   4   14.66    1.43
   2  -8   4   10.43    1.56
   2   8   4   17.54    1.54
   2   8   4   15.25    1.82
  -2   8  -4   15.18    1.54
  -2   8  -4   12.83    1.74
   2   8   4   12.53    1.63
  -3  -8  -4    2.63    0.89
   3  -8   4    2.97    0.72
   3  -8   4    4.70    1.19
   3  -8   4    3.58    1.00
   3   8   4    2.69    0.60
   3   8   4    3.45    0.84
  -3   8  -4    2.52    0.94
   3   8   4    0.68    0.59
   3   8   4    1.64    0.53
   4  -8   4   -0.15    0.56
   4  -8   4    0.10    0.73
   4   8   4    0.03    0.58
   4   8   4   -1.03    0.61
   5  -8   4    1.92    0.85
   5  -8   4    5.00    1.69
   5   8   4    4.29    1.06
   5   8   4    1.64    0.96
   6  -8   4    1.68    0.86
   6  -8   4    1.61    1.28
   6   8   4    2.35    1.18
   6   8   4   -0.07    0.73
   7  -9  -4    0.70    0.50
   7  -9  -4    0.25    0.44
   6  -9  -4    0.59    0.44
   6  -9  -4    0.94    0.49
   6   9  -4    0.05    0.38
   6   9  -4   -0.13    0.85
  -5  -9   4    0.41    0.60
   5  -9  -4   -0.43    0.39
   5  -9  -4    0.80    0.44
   5  -9  -4   -0.19    0.36
   5   9  -4   -0.19    0.63
   5   9  -4   -0.08    0.39
   4  -9  -4   -0.28    0.36
   4  -9  -4    0.15    0.42
  -4  -9   4    0.35    0.49
   4   9  -4    0.08    0.66
   4   9  -4    0.54    0.50
   4   9  -4    0.15    0.47
  -3  -9   4   -0.22    0.45
   3  -9  -4    0.55    0.45
  -3  -9   4   -0.68    0.77
   3  -9  -4    0.47    0.27
   3  -9  -4    0.37    0.45
  -3   9   4    0.68    0.52
   3   9  -4   -0.26    0.41
   3   9  -4   -0.10    0.45
   3   9  -4   -0.38    0.57
   2  -9  -4    0.35    0.37
  -2  -9   4    0.26    0.55
   2  -9  -4    0.19    0.35
  -2  -9   4    1.17    0.69
   2  -9  -4   -0.22    0.55
   2  -9  -4    1.65    0.67
   2   9  -4   -0.19    0.38
   2   9  -4   -0.06    0.39
   2   9  -4    0.18    0.16
  -2   9   4    0.22    0.42
   2   9  -4    1.04    0.63
   2   9  -4    0.34    0.61
   2   9  -4    0.17    0.14
  -2   9   4   -0.08    0.46
  -1  -9   4    2.27    0.71
   1  -9  -4    2.81    0.84
  -1  -9   4    2.31    0.89
   1  -9  -4    2.42    0.65
  -1  -9   4    1.11    0.57
  -1   9   4    1.08    0.64
  -1   9   4    1.89    0.59
   1   9  -4    2.70    0.71
   1   9  -4    0.14    0.44
   1   9  -4    0.79    0.72
   1   9  -4    0.77    0.51
   0  -9   4   -0.27    0.39
   0  -9  -4    0.28    0.40
   0  -9   4    0.34    0.39
   0  -9   4   -0.57    0.40
   0  -9  -4    0.98    0.63
   0  -9   4    1.31    0.79
   0  -9  -4   -0.67    0.31
   0  -9  -4    0.07    0.31
   0   9  -4    1.02    0.51
   0   9   4   -0.07    0.46
   0   9   4    0.01    0.33
   0   9  -4   -0.18    0.43
   0   9   4    0.33    0.44
   0   9  -4    0.19    0.60
   1  -9   4    2.98    0.66
  -1  -9  -4    3.73    0.92
   1  -9   4    3.93    0.84
   1  -9   4    3.23    0.77
   1  -9   4    2.93    0.99
  -1  -9  -4    3.57    0.88
   1   9   4    2.88    0.87
   1   9   4    2.52    0.62
  -1   9  -4    2.69    0.85
  -1   9  -4    2.75    0.75
   1   9   4    3.18    0.85
  -2  -9  -4    4.13    0.91
   2  -9   4    3.41    0.74
  -2  -9  -4    4.38    1.07
   2  -9   4    4.18    0.82
   2  -9   4    6.30    1.33
  -2   9  -4    3.59    1.00
   2   9   4    3.77    0.81
  -2   9  -4    2.67    0.77
   2   9   4    3.56    1.02
   2   9   4    2.76    0.74
   3  -9   4    1.98    0.61
  -3  -9  -4    4.21    1.11
   3  -9   4    3.61    1.30
   3  -9   4    2.43    0.74
   3   9   4    3.46    0.71
   3   9   4    1.79    0.59
  -3   9  -4    3.03    1.01
   3   9   4    3.53    1.02
   3   9   4    2.47    0.85
   4  -9   4    0.52    0.92
   4  -9   4    1.61    0.79
   4   9   4    0.80    0.75
   4   9   4    1.04    0.71
   5  -9   4    0.03    0.55
   5  -9   4    0.28    0.97
   5   9   4    0.89    0.69
   5   9   4   -0.32    0.46
   6  -9   4   -0.42    0.63
   6  -9   4   -1.29    1.19
   6   9   4   -0.13    0.59
   6   9   4    1.27    1.03
   7 -10  -4    0.07    0.44
   7 -10  -4   -0.41    0.38
   6 -10  -4    0.18    0.44
   6 -10  -4    0.19    0.52
  -6 -10   4   -0.03    0.80
   6  10  -4    0.39    0.80
   6  10  -4    0.80    0.47
  -5 -10   4    0.81    0.75
   5 -10  -4    0.56    0.52
   5 -10  -4    1.08    0.54
   5 -10  -4   -0.24    0.44
   5  10  -4    0.98    0.88
   5  10  -4    0.87    0.48
   5  10  -4    0.65    0.47
   4 -10  -4   -0.10    0.33
   4 -10  -4    0.02    0.46
  -4 -10   4    0.71    0.61
   4  10  -4    0.18    0.35
   4  10  -4   -0.48    0.54
   4  10  -4   -0.82    0.42
   3 -10  -4    2.54    0.77
  -3 -10   4    2.12    0.96
  -3 -10   4    2.98    0.85
   3 -10  -4    2.03    0.65
   3  10  -4    2.29    0.90
   3  10  -4    1.74    0.77
  -3  10   4    2.43    0.67
   3  10  -4    2.92    0.78
  -2 -10   4    2.86    0.85
   2 -10  -4    2.51    0.71
  -2 -10   4    2.24    0.89
   2 -10  -4    2.76    0.80
   2 -10  -4    1.19    0.74
   2  10  -4    1.64    0.33
   2  10  -4    2.39    0.37
  -2  10   4    1.23    0.66
   2  10  -4    1.01    0.60
   2  10  -4    1.29    0.68
   2  10  -4    1.87    0.74
   2  10  -4    1.62    0.73
  -2  10   4    1.26    0.71
  -1 -10   4    1.81    1.03
  -1 -10   4    3.23    0.77
   1 -10  -4    3.37    0.83
  -1 -10   4    2.26    0.75
   1 -10  -4    4.08    0.97
  -1  10   4    2.23    0.72
   1  10  -4    3.91    0.86
  -1  10   4    2.98    0.81
   1  10  -4    2.70    0.62
   1  10  -4    3.46    1.02
   1  10  -4    3.10    0.81
   0 -10   4    2.48    0.65
   0 -10   4    3.76    0.83
   0 -10  -4    4.36    0.58
   0 -10   4    2.83    1.05
   0 -10   4    3.53    0.82
   0 -10  -4    4.30    0.87
   0 -10  -4    3.66    0.84
   0 -10  -4    4.29    1.02
   0  10   4    5.31    0.92
   0  10  -4    4.65    1.00
   0  10  -4    4.69    0.97
   0  10   4    3.69    0.87
   0  10  -4    3.45    0.78
   0  10   4    4.30    0.99
  -1 -10  -4    0.75    0.67
   1 -10   4    2.33    0.87
   1 -10   4    2.36    0.75
  -1 -10  -4    1.53    0.72
   1 -10   4    0.96    0.56
   1 -10   4    0.05    0.39
  -1  10  -4    2.18    0.91
  -1  10  -4    0.83    0.53
   1  10   4    1.35    0.66
   1  10   4    2.58    0.70
   1  10   4    0.59    0.71
   2 -10   4    3.80    0.89
   2 -10   4    2.32    1.06
   2 -10   4    1.25    0.63
  -2 -10  -4    3.57    1.01
   2  10   4    2.51    0.67
   2  10   4    1.97    0.69
  -2  10  -4    1.36    0.87
   2  10   4    1.81    0.88
   3 -10   4    2.90    0.77
   3 -10   4    2.05    1.25
   3 -10   4    1.10    0.59
  -3 -10  -4    1.13    0.83
   3  10   4    1.90    0.73
   3  10   4    0.94    0.63
   3  10   4    1.12    0.50
  -3  10  -4    0.66    0.71
   3  10   4    2.11    0.66
   4 -10   4    0.83    1.05
   4 -10   4    0.82    0.64
   4  10   4    0.98    0.86
   4  10   4    0.99    0.61
   5 -10   4    0.98    0.83
   5 -10   4    1.67    1.09
   5  10   4    1.47    0.91
   5  10   4    1.08    0.71
   6 -10   4    0.60    0.74
   6  10   4   -0.10    0.76
   6 -11  -4   -0.04    0.42
  -6 -11   4   -0.78    0.84
   6 -11  -4    0.35    0.52
   6  11  -4   -0.06    0.43
   6  11  -4   -0.70    0.71
   5 -11  -4    1.46    0.64
  -5 -11   4   -0.96    0.62
   5 -11  -4   -0.29    0.38
   5 -11  -4    0.91    0.53
   5  11  -4    1.19    0.60
   5  11  -4    0.04    0.84
   5  11  -4    0.86    0.56
   4 -11  -4    1.03    0.59
   4 -11  -4    0.01    0.37
  -4 -11   4    0.40    0.74
   4  11  -4    0.72    0.71
   4  11  -4    0.08    0.66
   4  11  -4    0.15    0.47
  -3 -11   4   -1.63    0.66
   3 -11  -4    0.09    0.41
   3 -11  -4   -0.04    0.53
  -3 -11   4   -0.72    0.34
   3  11  -4   -0.17    0.47
  -3  11   4   -0.22    0.58
   3  11  -4   -0.34    0.57
   3  11  -4   -0.18    0.52
   2 -11  -4    0.80    0.65
   2 -11  -4    0.27    0.67
   2 -11  -4    0.09    0.50
  -2 -11   4    0.00    0.48
  -2 -11   4    0.35    0.81
  -2  11   4   -0.62    0.50
   2  11  -4    0.25    0.27
   2  11  -4   -0.10    0.52
   2  11  -4    0.12    0.43
   2  11  -4    0.44    0.53
   2  11  -4   -0.51    0.33
   2  11  -4    0.08    0.24
  -2  11   4    0.06    0.53
  -1 -11   4    0.94    0.70
  -1 -11   4    0.93    0.63
  -1 -11   4    0.10    0.50
   1 -11  -4    0.33    0.57
   1 -11  -4    1.03    0.56
  -1  11   4    0.41    0.70
   1  11  -4   -0.41    0.43
   1  11  -4   -0.39    0.31
  -1  11   4   -0.03    0.46
   1  11  -4   -0.19    0.48
   0 -11  -4    0.96    0.57
   0 -11   4   -0.13    0.83
   0 -11   4    1.00    0.66
   0 -11   4    0.50    0.49
   0 -11  -4    0.45    0.47
   0 -11  -4    0.13    0.58
   0 -11  -4    0.39    0.39
   0 -11   4    0.58    0.50
   0  11   4    0.38    0.45
   0  11  -4    0.73    0.78
   0  11   4    1.80    0.59
   0  11  -4    1.47    0.60
   0  11   4    0.92    0.67
   0  11  -4    0.96    0.49
   1 -11   4    0.94    0.91
  -1 -11  -4    0.51    0.62
   1 -11   4    0.65    0.50
  -1 -11  -4    1.65    0.71
   1 -11   4    1.43    0.65
   1 -11   4    0.12    0.48
  -1  11  -4    0.38    0.75
   1  11   4    1.80    0.70
  -1  11  -4    1.72    0.66
   1  11   4    1.58    0.72
   1  11   4    1.61    0.64
   2 -11   4    0.09    0.75
   2 -11   4   -0.84    0.67
   2 -11   4   -0.38    0.47
  -2 -11  -4    0.71    0.61
   2  11   4    0.14    0.60
   2  11   4   -0.27    0.54
   2  11   4   -0.09    0.50
  -2  11  -4    0.03    0.68
   3 -11   4    1.26    0.70
   3 -11   4    1.02    0.62
   3 -11   4    0.61    1.22
  -3 -11  -4    1.50    0.91
   3  11   4    1.72    0.90
   3  11   4    1.13    0.55
   3  11   4    0.60    0.65
  -3  11  -4    0.47    0.96
   3  11   4    1.66    0.63
   4 -11   4    0.44    0.55
   4 -11   4    0.68    1.09
   4  11   4    0.50    0.67
   4  11   4    0.04    0.63
   5 -11   4    0.17    0.76
   5 -11   4    0.34    1.14
   5  11   4   -0.36    0.72
   5  11   4    0.37    0.79
   6 -11   4   -0.11    0.80
   6  11   4    0.07    0.83
  -6 -12   4   -0.46    0.83
   6 -12  -4    0.13    0.45
   6 -12  -4    0.16    0.46
   6  12  -4   -0.60    0.45
   6  12  -4   -0.22    0.78
   5 -12  -4    1.67    0.63
   5 -12  -4    1.91    0.68
  -5 -12   4    2.81    0.95
   5 -12  -4    1.72    0.61
   5  12  -4    2.29    0.99
   5  12  -4    1.27    0.64
   5  12  -4    1.35    0.65
  -4 -12   4    0.37    0.65
   4 -12  -4    0.30    0.43
   4 -12  -4    0.25    0.49
   4 -12  -4    0.35    0.60
   4  12  -4    0.81    0.76
   4  12  -4    0.17    0.49
   4  12  -4    0.79    0.68
   3 -12  -4    1.18    0.58
  -3 -12   4    1.18    0.71
   3 -12  -4    0.57    0.60
   3  12  -4    0.50    0.48
  -3  12   4   -0.09    0.63
   3  12  -4    0.83    0.58
   3  12  -4    0.02    0.68
   2 -12  -4    1.64    0.71
   2 -12  -4    1.13    0.63
  -2 -12   4    0.61    0.67
  -2 -12   4    1.14    0.99
  -2 -12   4    0.66    0.67
   2  12  -4   -0.31    0.50
   2  12  -4    0.41    0.58
   2  12  -4    1.06    0.36
  -2  12   4    1.05    0.73
   2  12  -4    1.36    0.40
   2  12  -4    0.34    0.53
  -2  12   4    0.34    0.62
   1 -12  -4    0.21    0.49
  -1 -12   4    1.03    0.63
   1 -12  -4   -0.69    0.51
  -1 -12   4   -0.87    0.63
  -1 -12   4    0.44    0.55
   1  12  -4   -0.26    0.49
  -1  12   4   -0.25    0.46
   1  12  -4    1.59    0.85
  -1  12   4   -0.36    0.58
   1  12  -4   -0.15    0.35
   0 -12   4    4.36    1.02
   0 -12  -4    2.28    0.49
   0 -12   4    2.95    0.76
   0 -12   4    2.14    0.79
   0 -12  -4    3.57    1.05
   0 -12   4    1.36    1.07
   0  12   4    3.35    1.12
   0  12  -4    2.01    0.76
   0  12  -4    2.77    0.91
   0  12  -4    2.98    0.98
   0  12   4    2.23    0.73
   0  12   4    2.62    0.79
   1 -12   4    0.25    0.55
   1 -12   4    0.32    0.52
   1 -12   4   -1.47    0.60
  -1 -12  -4   -0.51    0.55
  -1 -12  -4    0.39    0.54
   1 -12   4    0.17    0.50
  -1  12  -4    0.13    0.63
  -1  12  -4    0.28    0.49
   1  12   4   -0.49    0.53
   1  12   4    0.35    0.43
   1  12   4   -0.21    0.45
   2 -12   4    5.39    1.39
   2 -12   4    7.55    1.26
   2 -12   4    3.86    0.90
  -2 -12  -4    5.57    1.30
   2 -12   4    8.26    1.29
   2  12   4    6.81    1.40
   2  12   4    4.91    0.94
   2  12   4    3.66    0.98
  -2  12  -4    3.15    1.12
   2  12   4    6.95    1.12
  -3 -12  -4   -0.31    0.64
   3 -12   4    0.57    0.63
   3 -12   4   -1.19    0.77
   3 -12   4    0.28    0.60
   3  12   4    0.84    0.57
  -3  12  -4    0.39    0.83
   3  12   4    0.36    0.53
   3  12   4   -0.25    0.58
   3  12   4    0.40    0.70
   4 -12   4    0.65    0.62
   4 -12   4   -0.02    0.89
   4  12   4    0.15    0.73
   4  12   4    0.79    0.72
   5 -12   4    2.25    1.49
   5 -12   4    0.36    0.83
   5  12   4    0.78    0.78
   5  12   4    0.79    0.83
   6 -12   4    0.69    0.88
   6  12   4    0.16    0.72
   6 -13  -4    0.55    0.60
  -6 -13   4    0.12    0.97
   6 -13  -4    0.21    0.52
   6  13  -4   -0.41    0.94
   6  13  -4    0.58    0.62
   5 -13  -4    0.29    0.50
   5 -13  -4   -0.19    0.54
  -5 -13   4    1.04    0.81
   5 -13  -4    0.28    0.55
   5  13  -4   -0.40    0.49
   5  13  -4    0.37    0.83
   5  13  -4    0.60    0.66
   4 -13  -4    0.25    0.62
  -4 -13   4   -0.40    0.65
   4 -13  -4    0.45    0.54
   4 -13  -4   -0.18    0.42
   4  13  -4    0.40    0.84
   4  13  -4    0.09    0.67
   4  13  -4    0.47    0.55
   3 -13  -4   -0.82    0.44
   3 -13  -4    1.06    0.62
  -3 -13   4    0.40    0.57
   3  13  -4    0.36    0.73
   3  13  -4    0.56    0.57
   3  13  -4    0.65    0.78
  -2 -13   4    0.58    0.64
  -2 -13   4   -0.13    0.79
   2 -13  -4    0.30    0.54
   2 -13  -4   -0.16    0.43
   2  13  -4   -0.49    0.55
   2  13  -4   -0.26    0.26
   2  13  -4    1.32    0.60
   2  13  -4    0.19    0.60
   2  13  -4    0.05    0.24
  -2  13   4    1.08    0.71
   1 -13  -4   -0.01    0.52
  -1 -13   4    0.72    0.58
  -1 -13   4   -1.39    0.63
  -1 -13   4    0.16    0.49
   1  13  -4    0.41    0.49
  -1  13   4    1.39    0.80
   1  13  -4    0.48    0.45
  -1  13   4    0.33    0.56
   1  13  -4   -0.73    0.60
   0 -13   4    0.11    0.50
   0 -13  -4    0.34    0.59
   0 -13   4    0.36    0.55
   0 -13   4   -0.17    0.85
   0  13  -4   -0.67    0.43
   0  13  -4    0.29    0.77
   0  13   4    0.74    0.87
   0  13   4    0.35    0.59
  -1 -13  -4    1.94    0.87
   1 -13   4    0.93    0.64
   1 -13   4    0.07    0.49
   1 -13   4    1.56    1.01
   1 -13   4    1.28    0.70
   1  13   4    0.45    0.63
   1  13   4    0.78    0.62
  -1  13  -4    0.42    0.67
  -1  13  -4    0.57    0.73
   1  13   4    0.57    0.60
   2 -13   4    0.78    0.55
   2 -13   4    0.85    1.17
  -2 -13  -4    0.21    0.74
   2 -13   4   -0.27    0.48
   2 -13   4    0.85    0.73
   2  13   4    0.68    0.65
   2  13   4    0.33    0.66
   2  13   4    0.25    0.51
   2  13   4   -0.01    0.64
  -2  13  -4    0.02    0.72
   3 -13   4   -0.19    0.55
   3 -13   4   -0.14    0.95
  -3 -13  -4    0.11    0.78
   3 -13   4   -0.09    0.48
  -3  13  -4   -0.23    0.80
   3  13   4   -0.36    0.63
   3  13   4   -0.01    0.39
   3  13   4    0.02    0.37
   3  13   4   -0.49    0.49
   4 -13   4    2.17    0.91
   4 -13   4    1.05    1.31
   4  13   4    2.27    0.99
   4  13   4    0.04    0.71
   5 -13   4    0.94    1.26
   5  13   4   -0.29    0.72
   5  13   4    0.47    0.72
   6 -14  -4    0.62    0.64
   6 -14  -4    0.36    0.59
   6  14  -4    0.04    0.57
   5 -14  -4    0.74    0.68
   5 -14  -4    0.96    0.66
  -5 -14   4    1.96    0.98
   5  14  -4    0.42    0.58
   5  14  -4   -0.39    0.64
   5  14  -4    1.21    0.79
   4 -14  -4    0.97    0.65
  -4 -14   4    0.52    0.77
   4 -14  -4    0.90    0.73
   4  14  -4    0.95    0.83
   4  14  -4    0.56    0.59
   4  14  -4   -0.84    0.67
   3 -14  -4   -0.27    0.54
   3 -14  -4    0.59    0.69
  -3 -14   4    1.02    0.76
   3  14  -4    1.14    0.78
   3  14  -4    1.15    0.87
   3  14  -4    2.89    0.92
  -2 -14   4    1.50    1.07
   2 -14  -4    0.77    0.68
  -2 -14   4    4.16    1.11
   2  14  -4    2.76    0.94
   2  14  -4    2.00    0.47
  -2  14   4    2.96    1.01
   2  14  -4    2.51    1.02
   2  14  -4    5.05    1.09
   2  14  -4    2.17    0.48
   1 -14  -4    2.91    1.00
  -1 -14   4    4.17    1.05
  -1 -14   4    2.28    1.21
  -1  14   4    3.89    1.10
   1  14  -4    1.64    0.84
   1  14  -4    3.77    0.95
   0 -14  -4    2.61    0.96
   0 -14   4    2.08    1.20
   0 -14   4    2.43    1.00
   0 -14   4    2.86    0.99
   0  14   4    3.59    1.00
   0  14  -4    1.81    0.96
   0  14  -4    2.78    1.09
   0  14   4    2.50    0.97
  -1 -14  -4    1.49    0.89
   1 -14   4    2.15    0.75
   1 -14   4    0.26    0.59
   1 -14   4    0.68    1.04
   1  14   4    1.97    0.69
  -1  14  -4    0.71    0.87
   1  14   4    2.19    0.91
  -2 -14  -4    0.81    0.84
   2 -14   4    1.09    0.67
   2 -14   4    0.07    0.97
   2 -14   4    1.98    0.86
   2  14   4    3.22    0.98
   2  14   4    0.74    0.77
   2  14   4    2.96    0.93
   2  14   4    1.53    0.63
  -2  14  -4    2.20    1.03
   3 -14   4    1.73    0.69
   3 -14   4    1.22    1.36
  -3 -14  -4    2.86    1.06
   3  14   4    0.35    0.73
   3  14   4    2.28    0.81
   3  14   4    1.95    0.99
   3  14   4    1.28    0.56
  -3  14  -4    1.21    0.95
   4 -14   4    1.80    1.48
   4  14   4    1.99    0.89
   4  14   4    2.56    1.07
   5 -14   4    1.36    1.40
   5  14   4    1.38    0.85
   5  14   4    1.35    0.86
   6 -15  -4   -0.48    0.48
   6 -15  -4   -0.54    0.54
   5 -15  -4    0.46    0.69
   5 -15  -4   -0.08    0.56
  -5 -15   4    1.48    1.09
   5  15  -4    0.10    0.73
   5  15  -4    0.64    0.96
   4 -15  -4    0.25    0.55
  -4 -15   4    0.20    0.74
   4 -15  -4    0.78    0.70
   4  15  -4   -0.37    0.69
   4  15  -4    0.70    0.83
   3 -15  -4   -0.27    0.45
   3 -15  -4    0.20    0.67
  -3 -15   4   -0.65    0.55
   3  15  -4    0.00    0.82
   3  15  -4    0.53    0.89
   2 -15  -4    0.37    0.63
   2 -15  -4   -0.05    0.66
  -2 -15   4   -0.60    0.56
  -2 -15   4    1.80    1.15
   2  15  -4    0.44    0.37
   2  15  -4   -0.02    0.69
   2  15  -4   -0.91    0.55
   2  15  -4   -0.06    0.29
  -2  15   4    0.56    0.89
   1 -15  -4    0.69    0.73
  -1 -15   4    0.24    0.86
  -1 -15   4    0.57    0.60
  -1  15   4    0.28    0.72
   1  15  -4   -0.54    0.39
   1  15  -4    0.93    0.87
   0 -15  -4    0.74    0.84
   0 -15   4    0.71    0.69
   0 -15   4    0.99    1.24
   0  15  -4   -0.13    0.65
   0  15  -4    0.05    0.46
   0  15   4   -0.18    0.69
   1 -15   4    0.17    0.65
  -1 -15  -4    0.15    0.69
   1 -15   4   -0.69    0.55
   1 -15   4   -0.22    1.08
   1  15   4    0.47    0.58
  -1  15  -4    0.85    0.94
   1  15   4   -0.53    0.79
   2 -15   4    0.66    0.66
   2 -15   4    1.17    0.90
   2 -15   4   -0.55    1.03
  -2 -15  -4   -0.11    0.75
  -2  15  -4    0.78    0.97
   2  15   4    0.16    0.47
   2  15   4    0.34    0.68
   2  15   4    1.96    1.09
   3 -15   4   -0.61    1.06
  -3 -15  -4    0.38    0.71
   3 -15   4   -0.70    0.54
  -3  15  -4   -0.22    0.91
   3  15   4   -0.31    0.41
   3  15   4   -0.07    0.39
   3  15   4    0.24    0.73
   4 -15   4    0.65    1.31
   4  15   4   -0.93    0.69
   6 -16  -4   -0.82    0.57
   6 -16  -4    0.18    0.58
   5 -16  -4   -0.36    0.57
  -5 -16   4   -0.36    0.95
   5 -16  -4    0.22    0.71
   5  16  -4    0.30    0.94
   5  16  -4   -0.40    0.77
   4 -16  -4   -0.11    0.49
  -4 -16   4    0.29    0.74
   4 -16  -4    0.42    0.66
   4  16  -4    0.03    0.90
   4  16  -4   -0.13    0.80
   3 -16  -4    0.13    0.75
   3 -16  -4    0.05    0.53
  -3 -16   4    1.67    0.87
   3  16  -4   -0.45    0.75
   3  16  -4    1.26    0.88
  -2 -16   4   -0.03    0.61
   2 -16  -4   -0.74    0.54
   2 -16  -4   -0.45    0.53
  -2 -16   4    1.06    1.36
   2  16  -4   -0.02    0.38
   2  16  -4   -0.49    0.70
   2  16  -4    0.23    0.91
   2  16  -4   -0.43    0.32
  -2  16   4   -0.01    0.85
   1 -16  -4    0.59    0.80
  -1 -16   4   -0.29    0.92
  -1 -16   4    0.89    0.58
   1 -16  -4   -0.29    0.62
   1  16  -4    1.42    1.09
   1  16  -4   -0.34    0.54
  -1  16   4    0.01    0.79
   0 -16  -4    0.92    0.87
   0 -16   4    1.28    0.76
   0 -16   4    1.35    1.05
   0  16  -4   -0.11    0.78
   0  16  -4   -0.45    0.50
   0  16   4   -0.09    0.67
  -1 -16  -4   -0.48    0.66
   1 -16   4    0.39    1.20
   1 -16   4   -0.79    0.44
   1  16   4   -0.07    0.54
   1  16   4    0.16    0.79
   1  16   4    0.08    0.65
  -1  16  -4   -0.66    0.59
  -2 -16  -4    1.99    1.09
   2 -16   4   -0.11    0.54
   2 -16   4    0.54    0.69
   2 -16   4   -0.52    1.33
   2  16   4    0.67    0.74
  -2  16  -4    0.09    0.69
   2  16   4    0.83    0.57
   2  16   4    0.46    0.63
   3 -16   4    0.25    0.67
   3 -16   4   -0.72    1.34
   3  16   4    0.01    0.64
  -3  16  -4    0.55    0.96
   3  16   4   -0.91    0.47
   3  16   4   -0.38    0.57
   4 -16   4    1.18    1.26
   4  16   4   -0.28    0.81
   6 -17  -4   -0.23    0.62
   5 -17  -4    0.78    0.84
   5 -17  -4    0.21    0.54
   5  17  -4   -0.45    0.88
   5  17  -4   -1.00    0.72
   4 -17  -4    2.66    1.01
   4 -17  -4    1.83    0.86
  -4 -17   4    1.19    0.91
   4  17  -4   -0.23    0.88
   4  17  -4    1.44    1.08
   3 -17  -4    0.68    0.83
   3 -17  -4    0.58    0.67
  -3 -17   4   -0.52    0.66
   3  17  -4    0.70    0.89
   3  17  -4   -0.15    0.72
   2 -17  -4    2.22    1.04
   2 -17  -4    3.08    1.01
  -2 -17   4    1.56    0.90
  -2 -17   4    1.82    1.53
   2  17  -4    1.32    0.99
   2  17  -4    1.56    0.91
   2  17  -4    2.17    0.61
   2  17  -4    1.48    0.52
  -2  17   4    0.36    0.97
  -1 -17   4    1.82    1.31
   1 -17  -4   -0.80    0.58
  -1 -17   4    1.40    0.81
   1  17  -4    2.60    0.78
  -1  17   4    2.96    1.25
   1  17  -4    1.42    0.74
   1  17  -4   -0.37    0.64
   0 -17  -4    1.44    0.84
   0 -17   4    1.74    1.26
   0 -17   4    4.55    1.15
   0  17   4    0.21    0.76
   0  17  -4    0.05    0.75
   0  17  -4    2.10    0.80
   1 -17   4    1.40    0.76
   1 -17   4    2.53    1.51
  -1 -17  -4    1.84    1.05
   1  17   4    0.91    0.96
   1  17   4    1.91    0.89
  -1  17  -4    2.11    1.30
   2 -17   4    0.19    0.67
  -2 -17  -4   -0.18    0.68
   2 -17   4    0.85    1.35
   2 -17   4   -0.87    0.51
   2  17   4    0.19    0.54
   2  17   4   -0.18    0.66
   2  17   4   -0.14    0.61
  -2  17  -4   -0.46    0.89
   3 -17   4    1.94    1.53
   3  17   4   -0.91    0.84
  -3  17  -4   -0.82    1.07
   3  17   4    0.18    0.48
   3  17   4   -0.13    0.41
   4 -17   4   -0.23    1.34
   4  17   4   -0.30    0.88
   5 -18  -4    0.54    0.86
   5 -18  -4    0.64    0.71
   5  18  -4    0.03    0.74
   4 -18  -4   -0.43    0.74
   4 -18  -4    0.24    0.74
  -4 -18   4    0.91    1.02
   4  18  -4    0.61    1.06
   4  18  -4    0.20    0.86
   3 -18  -4   -1.13    0.52
   3 -18  -4   -0.05    0.77
  -3 -18   4    0.80    0.87
   3  18  -4    0.22    0.91
   3  18  -4    0.02    0.84
  -2 -18   4   -0.23    1.10
   2 -18  -4    0.15    0.95
   2 -18  -4   -0.86    0.69
  -2 -18   4    1.27    0.95
   2  18  -4   -0.13    0.40
   2  18  -4   -0.12    0.71
  -2  18   4    0.55    0.94
   2  18  -4   -0.09    0.91
   2  18  -4    0.99    0.46
  -1 -18   4    2.08    1.07
  -1 -18   4    2.85    1.57
   1 -18  -4    1.12    0.98
   1  18  -4    3.02    0.86
   1  18  -4    1.38    0.83
  -1  18   4    2.72    1.21
   1  18  -4    1.53    1.15
   0 -18   4   -0.72    1.20
   0 -18  -4    0.29    0.81
   0 -18   4   -0.08    0.58
   0  18  -4    1.33    1.04
   0  18   4   -0.26    0.72
   1 -18   4   -0.44    0.60
  -1 -18  -4    0.46    0.95
   1 -18   4    2.67    1.53
  -1  18  -4    0.36    0.93
   1  18   4    0.71    0.94
   2 -18   4    1.36    1.38
  -2 -18  -4    1.80    1.04
   2 -18   4    2.37    1.00
   2 -18   4    2.11    0.99
   2  18   4    2.44    0.91
   2  18   4    3.39    0.98
  -2  18  -4    2.85    1.17
   2  18   4    2.14    1.04
   3 -18   4   -0.09    1.37
   3  18   4    1.32    1.12
   3  18   4    2.59    0.74
   3  18   4    0.68    0.56
   4 -18   4   -0.43    1.29
   4  18   4   -0.59    0.75
   5 -19  -4    0.27    0.76
   5  19  -4   -1.15    0.73
   4 -19  -4    0.39    0.77
   4 -19  -4    0.27    0.77
   4  19  -4   -0.06    0.82
   4  19  -4   -0.86    0.88
   3 -19  -4   -0.23    0.82
   3 -19  -4    0.21    0.75
  -3 -19   4    0.65    0.96
   3  19  -4   -0.18    0.95
   3  19  -4   -0.37    0.83
  -2 -19   4    0.48    0.88
   2 -19  -4   -0.58    0.68
   2  19  -4   -0.96    0.83
   2  19  -4    0.69    0.75
  -2  19   4   -1.33    0.95
   2  19  -4   -0.08    0.38
   2  19  -4   -0.10    0.44
  -1 -19   4    0.17    1.41
   1 -19  -4    0.00    0.87
  -1 -19   4   -0.01    0.75
   1  19  -4   -0.28    0.47
  -1  19   4   -0.39    0.89
   1  19  -4    0.72    0.97
   1  19  -4   -0.41    0.70
   0 -19   4   -1.33    0.98
   0 -19   4   -0.28    0.56
   0 -19  -4   -0.40    0.74
   0  19  -4   -2.61    0.56
   0  19   4    0.97    1.02
  -1 -19  -4    0.33    0.88
   1 -19   4   -2.43    1.01
   1 -19   4    1.17    0.78
   1  19   4   -0.14    0.71
  -1  19  -4   -1.04    0.82
   2 -19   4   -0.25    0.75
   2 -19   4    2.73    1.86
  -2 -19  -4    1.55    1.18
   2  19   4   -0.33    0.53
   2  19   4    1.32    1.01
   2  19   4   -0.10    0.61
  -2  19  -4    0.98    1.23
   3 -19   4   -0.58    1.56
   3  19   4   -0.61    0.54
   3  19   4   -0.18    0.46
   3  19   4    0.55    0.96
   5 -20  -4   -0.72    0.70
   4 -20  -4    0.44    0.89
   4 -20  -4    1.57    1.11
   4  20  -4    0.01    1.09
   4  20  -4   -0.09    0.87
   3 -20  -4    0.95    0.99
  -3 -20   4    0.08    0.75
   3  20  -4   -0.23    0.98
   3  20  -4   -0.38    0.90
  -2 -20   4    0.69    0.88
   2 -20  -4   -0.45    0.81
   2  20  -4    1.20    0.58
   2  20  -4   -0.16    0.41
  -2  20   4    0.86    1.24
   2  20  -4    0.27    0.81
   2  20  -4   -0.07    1.07
  -1 -20   4    0.38    1.39
  -1 -20   4    1.21    1.04
   1 -20  -4    2.41    1.15
  -1  20   4   -0.69    0.84
   1  20  -4    3.03    1.40
   1  20  -4    0.19    0.70
   1  20  -4    1.44    0.99
   0 -20  -4   -0.68    0.76
   0 -20   4    2.53    1.58
   0 -20   4    0.03    0.62
   0  20   4   -0.51    0.92
   0  20  -4   -0.55    1.00
   1 -20   4   -0.29    0.68
   1 -20   4    0.71    1.55
  -1 -20  -4    0.49    0.96
  -1  20  -4    0.91    1.04
   1  20   4    0.37    0.97
   2 -20   4   -0.51    1.26
   2 -20   4    1.30    0.80
  -2 -20  -4    2.03    1.32
   2  20   4    0.04    0.85
   2  20   4    0.12    0.74
  -2  20  -4   -0.73    1.04
   2  20   4   -0.28    0.55
   3 -20   4    2.83    2.17
   3  20   4    0.47    0.79
   3  20   4    0.54    0.63
   3  20   4    0.76    0.65
   4  21  -4   -0.79    0.80
   3 -21  -4   -0.68    0.76
   3  21  -4    0.72    1.01
   3  21  -4    0.20    1.18
   2 -21  -4    0.25    0.91
  -2 -21   4   -1.13    0.73
   2  21  -4   -0.77    0.43
   2  21  -4   -0.06    0.74
   2  21  -4    0.17    0.49
   2  21  -4   -0.04    1.02
   1 -21  -4    0.01    0.87
  -1 -21   4   -0.10    0.93
  -1 -21   4   -1.41    1.25
   1 -21  -4    0.12    0.86
   1  21  -4    0.84    0.83
   1  21  -4   -1.05    1.18
  -1  21   4   -0.92    0.89
   1  21  -4    0.11    0.62
   0 -21   4   -0.10    0.72
   0 -21  -4    0.11    0.98
   0 -21   4    0.33    1.73
   0  21  -4    0.88    1.12
   0  21   4   -0.46    0.94
   1 -21   4   -0.10    0.78
  -1 -21  -4    0.80    1.04
   1 -21   4    0.41    1.46
  -1  21  -4    0.74    1.34
   1  21   4    1.49    1.07
   2 -21   4   -0.85    0.71
  -2 -21  -4    0.93    1.15
   2 -21   4    1.83    1.66
   2  21   4    0.02    1.19
  -2  21  -4   -0.84    1.19
   2  21   4   -0.06    0.66
   3 -21   4    0.80    1.84
   3  21   4    1.79    1.13
   3  21   4   -0.01    0.52
   3  21   4   -0.84    0.49
   3 -22  -4    1.52    1.10
   3  22  -4   -1.38    0.98
   3  22  -4    1.91    1.02
   2 -22  -4    0.30    1.02
  -2 -22   4   -0.30    1.19
   2  22  -4    1.76    1.25
   2  22  -4    1.75    0.72
   2  22  -4    1.79    0.71
   2  22  -4    0.43    0.86
  -1 -22   4    1.39    0.89
  -1 -22   4    1.05    1.67
   1 -22  -4    0.49    0.99
  -1  22   4   -0.58    0.92
   1  22  -4    0.14    0.65
   1  22  -4    0.94    0.73
   1  22  -4   -0.36    0.76
   1  22  -4    0.72    1.19
   0 -22   4    1.62    0.95
   0 -22  -4    2.03    1.16
   0 -22   4   -0.52    1.29
   0  22  -4    1.28    1.34
   0  22   4    0.40    1.12
   1 -22   4    0.42    0.83
  -1 -22  -4    1.70    1.13
   1 -22   4   -1.16    1.65
   1  22   4    1.65    1.18
  -1  22  -4    2.18    1.46
   2 -22   4    1.13    1.05
  -2 -22  -4   -0.17    1.06
   2 -22   4   -2.05    1.67
  -2  22  -4    1.11    1.39
   2  22   4   -1.48    0.98
   3  22   4    0.88    0.86
   3  22   4    0.23    0.62
   2 -23  -4    0.84    1.17
   2  23  -4   -0.20    0.49
   2  23  -4    1.89    1.40
   2  23  -4   -0.67    0.72
   2  23  -4   -0.34    0.53
   1 -23  -4    0.42    0.98
  -1 -23   4    0.74    1.96
  -1 -23   4    0.64    0.88
   1  23  -4    0.81    1.28
   1  23  -4    0.19    0.94
  -1  23   4   -1.24    0.87
   1  23  -4    0.57    0.79
   1  23  -4    0.12    0.74
   0 -23   4    1.05    1.59
   0 -23  -4   -1.08    0.81
   0 -23  -4   -0.74    0.97
   0 -23   4   -0.27    0.69
   0  23  -4   -1.10    1.08
   0  23  -4   -0.85    0.70
   0  23   4   -0.44    0.96
   1 -23   4    1.73    1.70
   1 -23   4   -0.79    0.71
  -1 -23  -4    0.35    1.12
  -1  23  -4   -0.44    1.24
   1  23   4    0.69    0.91
   2 -23   4    1.16    1.74
   2 -23   4   -0.48    0.90
  -2  23  -4    0.19    1.28
   2  23   4   -0.60    1.15
   3  23   4    0.72    0.69
   3  23   4   -0.06    0.55
   2 -24  -4    1.21    1.26
   2  24  -4    1.97    0.79
   2  24  -4   -0.17    1.50
   2  24  -4    0.47    0.83
   2  24  -4    0.91    0.55
   1 -24  -4    0.56    1.02
  -1  24   4    0.54    1.31
   1  24  -4    1.81    1.12
   1  24  -4    1.63    1.11
   1  24  -4    2.06    1.44
   0 -24  -4    0.60    1.12
   0 -24   4    0.30    0.81
   0 -24  -4   -0.41    0.94
   0 -24   4   -0.31    1.85
   0  24   4    0.10    1.10
   0  24  -4   -0.29    0.81
   0  24  -4    0.35    1.19
  -1 -24  -4    0.63    1.29
   1 -24   4    0.37    1.95
   1 -24   4    1.84    1.18
  -1  24  -4    0.92    1.47
   1  24   4    0.87    1.25
   2 -24   4    0.96    1.97
  -2  24  -4    0.69    1.57
   2  24   4   -0.73    1.41
   2  25  -4    0.84    0.56
   2  25  -4    0.87    0.68
   1 -25  -4   -1.57    0.95
   1  25  -4    0.80    1.28
  -1  25   4   -0.86    1.14
   1  25  -4   -0.36    1.02
   0 -25   4   -1.11    1.94
   0 -25  -4   -0.94    1.08
   0  25  -4    1.02    1.40
   0  25  -4    0.42    1.04
   0  25   4    0.75    1.48
   1 -25   4    0.19    2.04
  -1 -25  -4    0.67    1.45
   1  25   4    0.64    1.23
  -1  25  -4   -0.98    1.10
  -2  25  -4   -1.35    1.54
   0 -26   4    2.31    2.09
   0 -26  -4   -0.81    1.12
   0  26   4   -0.08    1.37
   0  26  -4    1.25    1.54
  -1 -26  -4    1.30    1.51
   1 -26   4    2.48    2.32
  -1  26  -4    1.63    1.58
   0 -27   4    2.58    2.59
   0  27   4   -1.47    1.31
  -1 -27  -4    0.26    1.14
   7   0  -5   -0.25    0.19
   6   0  -5    0.00    0.29
   5   0  -5    0.07    0.27
   5   0  -5    0.49    0.71
   4   0  -5    0.49    0.55
   4   0  -5    0.12    0.35
  -4   0   5    0.06    0.44
   4   0  -5    0.32    0.36
   3   0  -5   -0.30    0.50
  -3   0   5   -0.04    0.42
   3   0  -5   -0.39    0.37
   3   0  -5   -0.27    0.31
  -3   0   5    0.45    0.53
   3   0  -5    0.43    0.44
   2   0  -5    0.29    0.43
  -2   0   5    0.60    0.56
   2   0  -5   -0.43    0.28
   2   0  -5   -0.40    0.41
   2   0  -5   -0.14    0.36
   1   0  -5   -0.37    0.50
   1   0  -5    0.03    0.37
   1   0  -5   -0.16    0.50
  -1   0   5    0.44    0.43
  -1   0   5   -0.73    0.41
   1   0  -5    0.03    0.33
   0   0  -5    0.11    0.39
   0   0   5   -0.40    0.34
   0   0  -5    0.16    0.47
   0   0   5    0.20    0.40
   0   0   5    0.34    0.61
   0   0  -5    0.07    0.33
  -1   0  -5    0.32    0.50
   1   0   5   -0.64    0.34
  -1   0  -5   -0.74    0.28
   1   0   5    0.25    0.55
   1   0   5   -0.43    0.48
   2   0   5   -0.28    0.42
  -2   0  -5   -0.21    0.49
   2   0   5   -0.38    0.59
   2   0   5   -0.20    0.39
  -2   0  -5   -0.22    0.60
  -3   0  -5    0.46    0.73
   3   0   5    0.46    0.68
   3   0   5   -0.17    0.40
   3   0   5   -0.24    0.49
   4   0   5   -0.21    0.73
   4   0   5   -0.09    0.64
   5   0   5    0.98    0.71
   5   0   5   -0.61    0.58
   6   0   5   -0.10    0.82
   7  -1  -5    0.12    0.22
   7  -1  -5   -0.04    0.24
   7   1  -5   -0.18    0.18
   6  -1  -5    0.15    0.35
   6   1  -5   -1.19    0.59
   6   1  -5   -0.03    0.26
   5  -1  -5    0.41    0.35
   5  -1  -5    0.04    0.60
   5   1  -5    0.16    0.62
   5   1  -5    0.58    0.33
   4  -1  -5    0.35    0.36
  -4  -1   5    0.28    0.44
   4  -1  -5    0.68    0.57
   4  -1  -5    0.36    0.37
  -4   1   5    0.22    0.43
   4   1  -5    0.11    0.35
   4   1  -5    0.84    0.41
   4   1  -5    0.99    0.54
   3  -1  -5   -0.48    0.41
   3  -1  -5   -0.33    0.31
  -3  -1   5    0.97    0.56
   3  -1  -5    0.35    0.40
  -3  -1   5    0.36    0.45
   3  -1  -5    0.06    0.44
   3   1  -5   -0.48    0.35
   3   1  -5    0.83    0.41
   3   1  -5    0.01    0.39
   3   1  -5    0.33    0.49
  -3   1   5    0.54    0.53
  -2  -1   5    0.39    0.48
   2  -1  -5    0.09    0.52
   2  -1  -5    0.10    0.42
  -2  -1   5    0.18    0.37
   2  -1  -5   -0.60    0.30
   2  -1  -5   -0.15    0.35
   2   1  -5   -0.48    0.41
   2   1  -5   -0.40    0.49
   2   1  -5    0.00    0.37
  -2   1   5    0.24    0.50
   2   1  -5   -0.40    0.40
  -1  -1   5    1.00    0.60
   1  -1  -5    0.57    0.42
   1  -1  -5    0.14    0.44
   1  -1  -5    1.09    0.69
   1  -1  -5    0.26    0.41
  -1  -1   5    0.18    0.39
   1   1  -5    0.15    0.47
  -1   1   5    0.42    0.50
   1   1  -5    0.47    0.37
   1   1  -5   -0.35    0.46
  -1   1   5   -0.18    0.26
   1   1  -5    0.33    0.38
   0  -1   5    1.18    0.73
   0  -1  -5    0.01    0.37
   0  -1   5   -0.56    0.48
   0  -1  -5    0.53    0.40
   0  -1  -5   -0.06    0.39
   0  -1   5   -0.09    0.37
   0   1  -5    0.25    0.40
   0   1   5   -0.25    0.43
   0   1  -5   -0.08    0.48
   0   1   5    0.13    0.40
   0   1  -5    0.43    0.51
   0   1   5    0.18    0.43
  -1  -1  -5    3.26    0.91
   1  -1   5    2.96    0.82
   1  -1   5    3.50    0.78
  -1  -1  -5    2.91    0.72
   1  -1   5    1.53    0.77
   1   1   5    3.06    0.96
  -1   1  -5    1.17    0.53
   1   1   5    2.80    0.73
  -1   1  -5    2.75    0.83
   1   1   5    1.47    0.63
  -2  -1  -5    0.92    0.58
   2  -1   5    0.36    0.48
   2  -1   5    0.85    0.75
   2  -1   5    0.31    0.49
  -2  -1  -5   -0.81    0.47
  -2   1  -5    0.48    0.54
   2   1   5    0.82    0.79
   2   1   5    0.11    0.48
  -2   1  -5    0.75    0.54
   2   1   5    0.35    0.62
   3  -1   5    0.04    0.41
   3  -1   5   -1.13    0.52
   3  -1   5   -0.84    0.36
  -3  -1  -5    0.69    0.79
   3   1   5    0.34    0.54
  -3   1  -5   -0.14    0.59
   3   1   5   -0.28    0.60
   3   1   5   -0.26    0.61
   4  -1   5    0.04    0.13
   4  -1   5    0.37    0.76
   4  -1   5   -0.60    0.56
   4   1   5    0.14    0.56
   4   1   5    0.58    0.83
   5  -1   5    0.08    0.83
   5  -1   5    0.38    0.70
   5   1   5    0.20    0.73
   5   1   5    0.21    0.73
   6  -1   5    1.39    0.91
   6   1   5    0.63    0.80
   7  -2  -5    0.30    0.23
   7  -2  -5    0.26    0.29
   7   2  -5    0.24    0.18
   6  -2  -5    0.43    0.35
   6   2  -5    0.08    0.30
   6   2  -5   -0.07    0.74
   5  -2  -5    1.97    0.33
   5  -2  -5    2.41    0.77
   5  -2  -5    1.53    0.48
   5   2  -5    2.09    0.54
   5   2  -5    2.57    0.86
  -4  -2   5    0.51    0.54
   4  -2  -5    0.20    0.40
   4  -2  -5    0.57    0.39
   4  -2  -5    0.56    0.31
   4   2  -5    1.03    0.46
   4   2  -5    0.27    0.40
   4   2  -5   -0.15    0.59
  -3  -2   5    0.98    0.56
   3  -2  -5    0.04    0.39
   3  -2  -5    1.12    0.48
   3  -2  -5   -0.12    0.34
   3  -2  -5    0.89    0.47
  -3  -2   5    1.42    0.65
   3   2  -5    0.85    0.61
   3   2  -5    0.99    0.45
  -3   2   5    1.40    0.66
   3   2  -5    0.97    0.50
   2  -2  -5    1.46    0.55
  -2  -2   5    1.16    0.53
   2  -2  -5    0.94    0.49
   2  -2  -5    1.46    0.79
   2  -2  -5    0.69    0.32
  -2  -2   5    1.39    0.57
  -2   2   5    0.59    0.50
   2   2  -5    1.11    0.51
   2   2  -5    1.28    0.58
   2   2  -5    2.26    0.78
   2   2  -5    0.98    0.57
   1  -2  -5    1.93    0.79
   1  -2  -5    1.38    0.56
   1  -2  -5    0.73    0.46
  -1  -2   5    0.76    0.59
   1  -2  -5    1.06    0.52
  -1  -2   5    0.48    0.49
  -1   2   5    1.31    0.67
   1   2  -5    0.85    0.54
   1   2  -5    2.61    0.62
   1   2  -5    1.37    0.74
  -1   2   5    0.84    0.47
   1   2  -5    1.29    0.63
   0  -2  -5    0.53    0.47
   0  -2  -5    0.25    0.47
   0  -2   5    0.42    0.62
   0  -2   5    0.68    0.46
   0  -2  -5    1.69    0.57
   0  -2   5    0.37    0.50
   0   2   5    0.53    0.42
   0   2   5    0.26    0.51
   0   2   5    1.38    0.69
   0   2  -5    0.79    0.56
   0   2  -5    0.09    0.34
   0   2  -5    0.87    0.49
   1  -2   5    6.38    1.10
   1  -2   5   10.57    1.60
  -1  -2  -5    9.35    1.34
  -1  -2  -5    9.86    1.25
   1  -2   5   10.26    1.21
   1   2   5   10.19    1.47
   1   2   5    7.09    1.05
   1   2   5    9.97    1.27
  -1   2  -5    8.59    1.30
  -1   2  -5   11.07    1.38
  -2  -2  -5    6.41    1.14
   2  -2   5    7.13    1.11
   2  -2   5    6.06    0.93
  -2  -2  -5    7.12    1.31
   2  -2   5    5.51    1.24
   2   2   5    4.02    0.94
   2   2   5    5.19    1.21
   2   2   5    4.74    0.88
  -2   2  -5    7.61    1.36
  -2   2  -5    3.90    0.89
   3  -2   5    1.27    0.66
   3  -2   5    2.32    0.69
  -3  -2  -5    1.55    0.86
   3  -2   5    1.03    0.79
   3   2   5    3.03    0.79
   3   2   5    1.09    0.68
   3   2   5    0.35    0.63
  -3   2  -5    1.19    0.76
   4  -2   5    3.84    1.21
   4  -2   5    1.70    0.73
   4  -2   5    2.04    0.28
   4   2   5    0.76    0.82
   4   2   5    1.47    0.82
   5  -2   5    1.21    0.95
   5  -2   5    0.01    0.66
   5   2   5    1.89    0.92
   5   2   5    2.42    1.01
   6  -2   5    2.02    1.34
   6   2   5    0.66    0.88
   7  -3  -5    0.11    0.30
   7  -3  -5    0.08    0.22
   7   3  -5   -0.01    0.18
   6  -3  -5    0.21    0.32
   6   3  -5   -0.06    0.31
   6   3  -5   -0.32    0.82
   5  -3  -5    0.20    0.27
  -5  -3   5   -0.34    0.57
   5  -3  -5    0.09    0.37
   5   3  -5    0.13    0.37
   5   3  -5    0.17    0.73
   4  -3  -5    0.09    0.37
   4  -3  -5   -0.22    0.48
  -4  -3   5    0.62    0.52
   4  -3  -5    0.34    0.37
   4   3  -5   -0.17    0.51
   4   3  -5    0.04    0.36
   4   3  -5   -0.13    0.32
   3  -3  -5    0.83    0.47
   3  -3  -5    0.10    0.36
  -3  -3   5    0.45    0.49
   3  -3  -5    0.49    0.38
   3  -3  -5    0.33    0.44
  -3  -3   5   -0.12    0.50
   3   3  -5    0.19    0.40
  -3   3   5   -0.55    0.42
   3   3  -5    0.40    0.53
   3   3  -5    0.03    0.32
   2  -3  -5    0.01    0.49
   2  -3  -5    0.20    0.33
   2  -3  -5    1.12    0.47
   2  -3  -5    0.18    0.41
  -2  -3   5    0.19    0.50
  -2  -3   5    0.59    0.45
   2   3  -5    0.10    0.44
   2   3  -5   -0.04    0.37
   2   3  -5   -0.17    0.42
  -2   3   5    0.31    0.49
   2   3  -5    0.01    0.55
  -1  -3   5    0.44    0.45
   1  -3  -5    0.37    0.51
   1  -3  -5    0.07    0.46
  -1  -3   5    0.41    0.47
   1  -3  -5    0.61    0.37
   1  -3  -5    0.25    0.43
  -1  -3   5    0.74    0.68
  -1   3   5    0.48    0.53
   1   3  -5    0.45    0.48
  -1   3   5    0.25    0.48
   1   3  -5    0.23    0.34
   1   3  -5   -0.37    0.33
   1   3  -5    0.05    0.62
   0  -3  -5    0.58    0.53
   0  -3  -5   -0.24    0.35
   0  -3  -5   -0.03    0.33
   0  -3   5   -0.43    0.41
   0  -3   5    0.35    0.55
   0  -3   5    0.39    0.48
   0   3  -5    0.19    0.50
   0   3   5    0.17    0.38
   0   3  -5    0.96    0.57
   0   3   5    0.49    0.59
   0   3   5    0.07    0.43
   0   3  -5    0.30    0.43
   1  -3   5   -0.50    0.42
  -1  -3  -5   -0.11    0.48
  -1  -3  -5    0.31    0.44
   1  -3   5   -0.18    0.37
   1  -3   5   -0.23    0.36
   1   3   5    0.13    0.39
   1   3   5    0.36    0.43
   1   3   5    0.07    0.46
  -1   3  -5   -0.04    0.39
  -1   3  -5    1.21    0.66
  -2  -3  -5    0.02    0.49
  -2  -3  -5    0.26    0.60
   2  -3   5    0.74    0.73
   2  -3   5   -0.22    0.37
   2  -3   5    0.30    0.46
   2   3   5   -0.09    0.42
   2   3   5    0.63    0.57
  -2   3  -5   -0.57    0.37
   2   3   5    0.31    0.64
  -2   3  -5    0.53    0.59
   3  -3   5    2.28    0.91
   3  -3   5    3.01    0.91
   3  -3   5    2.31    0.83
  -3  -3  -5    1.67    0.83
   3   3   5    1.11    0.81
   3   3   5    2.16    0.72
   3   3   5    1.03    0.64
  -3   3  -5    2.28    1.03
   4  -3   5    1.53    0.57
   4  -3   5   -0.15    0.18
   4  -3   5   -0.28    0.62
   4   3   5   -0.08    0.53
   4   3   5   -0.14    0.70
   5  -3   5    0.08    0.70
   5  -3   5   -0.44    0.63
   5   3   5   -0.58    0.64
   5   3   5    0.25    0.73
   6  -3   5   -1.07    0.87
   6   3   5    1.15    0.83
   7  -4  -5    0.68    0.34
   7  -4  -5    0.53    0.37
   7   4  -5    0.57    0.25
   6  -4  -5    0.43    0.27
   6   4  -5   -0.03    0.89
   6   4  -5    0.12    0.39
   5  -4  -5    0.67    0.37
   5  -4  -5    0.46    0.29
  -5  -4   5   -0.14    0.52
   5   4  -5    0.36    0.25
   5   4  -5   -0.33    0.32
   5   4  -5   -1.06    0.60
   4  -4  -5    0.01    0.50
   4  -4  -5    0.13    0.43
  -4  -4   5    0.75    0.55
   4  -4  -5    0.64    0.40
   4   4  -5   -0.24    0.42
   4   4  -5    1.69    0.74
   4   4  -5    0.05    0.30
   3  -4  -5   -0.24    0.37
   3  -4  -5    0.13    0.38
  -3  -4   5    0.25    0.44
   3  -4  -5    0.81    0.59
   3  -4  -5    0.25    0.39
  -3  -4   5   -0.02    0.54
  -3   4   5    1.03    0.58
   3   4  -5    0.40    0.45
   3   4  -5    0.43    0.42
   3   4  -5   -0.19    0.54
   2  -4  -5    1.17    0.48
  -2  -4   5    1.68    0.62
   2  -4  -5    0.39    0.47
   2  -4  -5    0.52    0.45
  -2  -4   5    1.75    0.78
   2  -4  -5    0.84    0.36
   2  -4  -5    0.16    0.56
   2   4  -5   -0.15    0.57
   2   4  -5   -0.10    0.38
   2   4  -5    0.91    0.52
  -2   4   5    0.97    0.56
   2   4  -5    0.39    0.42
   1  -4  -5   -0.05    0.39
   1  -4  -5    0.40    0.47
  -1  -4   5    2.08    0.69
   1  -4  -5    0.81    0.43
  -1  -4   5    0.27    0.48
  -1  -4   5    0.89    0.56
   1  -4  -5    1.52    0.69
  -1   4   5   -0.03    0.42
   1   4  -5    0.43    0.52
   1   4  -5    0.92    0.62
   1   4  -5    0.27    0.47
  -1   4   5    0.82    0.51
   1   4  -5   -0.46    0.26
   0  -4  -5    1.73    0.60
   0  -4   5    1.89    0.79
   0  -4   5    0.97    0.60
   0  -4   5    2.05    0.60
   0  -4  -5    2.64    0.72
   0  -4  -5    1.94    0.68
   0   4   5    2.27    0.70
   0   4  -5    0.83    0.56
   0   4  -5    1.11    0.53
   0   4  -5    0.81    0.51
   0   4   5    3.26    0.80
   0   4   5    1.39    0.63
  -1  -4  -5    1.32    0.64
   1  -4   5    0.42    0.48
   1  -4   5    0.65    0.65
   1  -4   5    0.34    0.49
  -1  -4  -5    0.97    0.66
   1   4   5    0.57    0.42
  -1   4  -5    0.41    0.47
   1   4   5    0.58    0.66
  -1   4  -5    1.06    0.63
   1   4   5    1.39    0.59
   2  -4   5    0.84    0.67
   2  -4   5    0.06    0.53
   2  -4   5   -0.03    0.43
  -2  -4  -5   -0.83    0.55
   2   4   5   -0.59    0.54
   2   4   5   -0.38    0.51
   2   4   5    0.02    0.41
  -2   4  -5    1.33    0.82
   3  -4   5    5.09    1.10
  -3  -4  -5    6.20    1.36
   3  -4   5    3.44    1.01
   3  -4   5    6.03    1.01
  -3   4  -5    6.83    1.43
   3   4   5    3.35    0.93
   3   4   5    3.50    1.05
   3   4   5    5.35    0.96
   4  -4   5    2.30    0.89
   4  -4   5    2.90    1.16
   4  -4   5    1.76    0.35
   4   4   5    0.13    0.60
   4   4   5    2.75    0.97
   5  -4   5    0.27    0.97
   5  -4   5    1.17    0.67
   5   4   5    0.58    0.71
   5   4   5   -0.05    0.58
   6  -4   5    0.27    0.89
   6   4   5   -0.48    0.78
   7  -5  -5   -0.31    0.33
   7  -5  -5    0.18    0.32
   7   5  -5    0.11    0.25
   6  -5  -5   -0.11    0.35
   6   5  -5   -0.76    0.75
   6   5  -5    0.13    0.35
   5  -5  -5    0.34    0.36
   5  -5  -5    0.29    0.35
  -5  -5   5    0.42    0.67
   5   5  -5   -0.19    0.64
   5   5  -5    0.73    0.46
   5   5  -5   -0.03    0.29
   4  -5  -5    0.02    0.39
   4  -5  -5   -0.11    0.34
  -4  -5   5   -0.32    0.55
   4   5  -5    0.60    0.41
   4   5  -5    0.35    0.65
   4   5  -5    0.24    0.44
  -3  -5   5    0.39    0.55
   3  -5  -5   -0.19    0.29
   3  -5  -5   -0.63    0.34
   3  -5  -5    0.25    0.36
   3  -5  -5   -0.40    0.29
  -3  -5   5    0.21    0.52
   3   5  -5   -0.48    0.51
   3   5  -5   -0.21    0.48
  -3   5   5   -0.63    0.32
   3   5  -5   -0.27    0.31
   2  -5  -5    1.02    0.59
  -2  -5   5   -0.61    0.39
   2  -5  -5    0.28    0.26
   2  -5  -5   -0.05    0.37
   2  -5  -5    0.01    0.42
   2  -5  -5   -0.01    0.37
  -2  -5   5    0.79    0.61
   2   5  -5   -0.22    0.56
   2   5  -5    0.48    0.40
   2   5  -5    0.08    0.50
  -2   5   5    0.68    0.62
   2   5  -5    0.59    0.54
   1  -5  -5    0.27    0.51
  -1  -5   5    0.99    0.59
  -1  -5   5    1.49    0.64
  -1  -5   5    0.60    0.53
   1  -5  -5    1.04    0.55
   1  -5  -5    1.11    0.52
   1  -5  -5    0.37    0.64
   1   5  -5    0.93    0.73
   1   5  -5    0.52    0.50
  -1   5   5    0.91    0.62
   1   5  -5    0.61    0.46
  -1   5   5    1.71    0.64
   1   5  -5    0.67    0.37
   0  -5   5    0.29    0.45
   0  -5   5   -0.26    0.35
   0  -5   5   -0.39    0.56
   0  -5  -5    0.24    0.45
   0  -5  -5   -0.54    0.47
   0  -5   5   -0.23    0.38
   0  -5  -5    0.34    0.44
   0   5  -5    0.00    0.39
   0   5   5    0.48    0.42
   0   5  -5   -0.04    0.40
   0   5  -5   -0.04    0.49
   0   5   5    0.33    0.41
   0   5   5    0.28    0.56
  -1  -5  -5    2.16    0.77
   1  -5   5    1.83    0.63
  -1  -5  -5    0.41    0.52
   1  -5   5    2.43    1.02
   1  -5   5    1.28    0.57
   1   5   5    1.16    0.65
   1   5   5    1.27    0.78
   1   5   5    1.62    0.64
  -1   5  -5    0.99    0.50
  -1   5  -5    1.79    0.73
   2  -5   5   -0.08    0.43
  -2  -5  -5    0.44    0.65
   2  -5   5    0.49    0.52
   2  -5   5    0.51    0.64
   2   5   5   -0.34    0.41
   2   5   5    0.00    0.42
  -2   5  -5    1.29    0.67
   2   5   5   -0.03    0.66
   3  -5   5    0.96    0.83
  -3  -5  -5    0.01    0.60
   3  -5   5   -0.01    0.44
   3  -5   5    0.34    0.52
   3   5   5    0.53    0.61
  -3   5  -5    0.17    0.62
   3   5   5    0.09    0.42
   3   5   5   -0.04    0.46
   4  -5   5   -0.06    0.53
   4  -5   5   -0.12    0.71
   4  -5   5    0.40    0.31
   4   5   5    0.83    0.79
   4   5   5    0.56    0.65
   5  -5   5   -0.81    0.54
   5  -5   5   -0.27    0.82
   5   5   5    0.58    0.93
   5   5   5   -1.08    0.62
   6  -5   5    0.42    0.75
   6   5   5   -0.38    0.75
   7  -6  -5   -0.07    0.29
   7  -6  -5    0.03    0.34
   7   6  -5    0.23    0.31
   7   6  -5   -0.47    0.92
   6  -6  -5   -0.40    0.42
   6   6  -5   -0.08    0.30
   6   6  -5    1.96    1.22
  -5  -6   5    0.87    0.72
   5  -6  -5    0.78    0.44
   5  -6  -5    1.58    0.55
   5   6  -5    0.80    0.46
   5   6  -5    1.40    0.83
   5   6  -5    0.14    0.36
   4  -6  -5    0.20    0.41
   4  -6  -5    0.28    0.40
  -4  -6   5   -0.28    0.49
   4   6  -5   -0.25    0.41
   4   6  -5    0.13    0.39
   4   6  -5    2.38    0.95
  -3  -6   5    3.27    0.91
  -3  -6   5    3.76    0.89
   3  -6  -5    4.03    0.66
   3  -6  -5    1.78    0.62
   3  -6  -5    2.55    0.66
   3   6  -5    1.43    0.71
   3   6  -5    3.31    0.74
  -3   6   5    4.03    0.91
   3   6  -5    2.78    0.77
   2  -6  -5    1.94    0.56
   2  -6  -5    2.16    0.30
   2  -6  -5    1.16    0.72
   2  -6  -5    1.71    0.57
  -2  -6   5    2.86    0.77
  -2  -6   5    0.91    0.65
   2  -6  -5    2.34    0.71
   2   6  -5    1.27    0.65
   2   6  -5    1.58    0.68
   2   6  -5    1.44    0.25
   2   6  -5    1.35    0.72
   2   6  -5    1.59    0.58
  -2   6   5    2.16    0.84
   1  -6  -5    4.92    0.99
   1  -6  -5   10.61    1.48
  -1  -6   5    3.55    1.00
  -1  -6   5    4.96    0.89
  -1  -6   5    4.00    0.84
   1  -6  -5    4.46    0.76
   1   6  -5    5.91    0.89
   1   6  -5    3.97    0.90
   1   6  -5    5.56    1.11
  -1   6   5    6.93    1.09
   1   6  -5    7.38    0.94
  -1   6   5    4.11    0.96
   0  -6  -5    0.96    0.63
   0  -6   5    1.17    0.71
   0  -6   5    1.38    0.57
   0  -6  -5    1.04    0.65
   0  -6  -5    1.18    0.48
   0  -6   5    0.24    0.43
   0  -6   5    2.05    0.65
   0   6  -5    1.75    0.74
   0   6  -5    0.68    0.55
   0   6   5    1.35    0.79
   0   6   5    0.63    0.45
   0   6  -5    0.65    0.46
   0   6   5    0.68    0.58
   1  -6   5    0.78    0.77
   1  -6   5    0.41    0.49
  -1  -6  -5   -0.70    0.42
   1  -6   5    0.93    0.49
  -1  -6  -5    0.13    0.48
  -1   6  -5    0.78    0.56
   1   6   5    1.12    0.61
   1   6   5   -0.03    0.42
   1   6   5    0.90    0.76
  -1   6  -5    0.82    0.66
  -2  -6  -5    2.61    0.88
   2  -6   5    5.18    1.16
   2  -6   5    4.37    1.16
   2  -6   5    4.37    1.03
  -2   6  -5    4.65    1.21
   2   6   5    4.94    1.02
   2   6   5    1.84    0.87
   2   6   5    3.41    0.90
   3  -6   5    0.91    0.70
   3  -6   5    0.06    0.86
   3  -6   5    0.85    0.50
  -3  -6  -5   -0.24    0.56
   3   6   5   -0.28    0.37
   3   6   5   -0.55    0.55
   3   6   5    0.12    0.57
  -3   6  -5    0.28    0.69
   4  -6   5    0.91    0.34
   4  -6   5    1.69    1.11
   4  -6   5    1.84    0.88
   4   6   5    1.14    0.88
   4   6   5   -0.61    0.59
   5  -6   5    0.55    0.81
   5  -6   5    2.49    1.01
   5   6   5    0.32    0.97
   5   6   5    0.51    0.92
   6   6   5    0.19    0.95
   7  -7  -5   -0.38    0.33
   7  -7  -5    0.42    0.38
   7   7  -5   -0.26    0.28
   7   7  -5    0.62    1.09
   6  -7  -5   -0.39    0.34
   6   7  -5   -0.29    0.36
   6   7  -5    0.07    0.82
  -5  -7   5    0.05    0.61
   5  -7  -5   -0.01    0.43
   5  -7  -5    0.68    0.43
   5   7  -5    0.65    0.82
   5   7  -5    0.56    0.42
   5   7  -5    0.11    0.49
   4  -7  -5    0.48    0.44
  -4  -7   5   -0.62    0.46
   4  -7  -5   -0.29    0.40
   4   7  -5    0.31    0.47
   4   7  -5    0.43    0.51
   4   7  -5    0.05    0.74
  -3  -7   5    0.27    0.61
  -3  -7   5    1.17    0.96
   3  -7  -5    1.14    0.57
   3  -7  -5    0.31    0.38
   3  -7  -5    1.02    0.48
   3   7  -5    1.74    0.76
  -3   7   5    0.85    0.60
   3   7  -5    0.89    0.50
   3   7  -5    1.04    0.63
  -2  -7   5    0.72    0.58
   2  -7  -5    0.34    0.47
   2  -7  -5    0.59    0.54
   2  -7  -5   -0.61    0.49
   2  -7  -5    0.44    0.43
  -2  -7   5    0.45    0.63
  -2   7   5   -0.43    0.47
  -2   7   5    1.02    0.68
   2   7  -5    0.21    0.21
   2   7  -5    0.03    0.55
   2   7  -5    0.37    0.44
   2   7  -5    1.41    0.68
   2   7  -5   -0.16    0.41
   1  -7  -5    0.22    0.23
  -1  -7   5    0.04    0.39
  -1  -7   5    1.35    0.71
   1  -7  -5    0.03    0.49
  -1  -7   5   -0.40    0.39
   1  -7  -5    0.05    0.42
   1   7  -5    0.30    0.36
   1   7  -5    0.19    0.49
  -1   7   5   -0.14    0.38
  -1   7   5   -0.23    0.47
   1   7  -5    0.02    0.55
   0  -7   5    0.12    0.44
   0  -7  -5   -0.23    0.39
   0  -7   5   -0.25    0.52
   0  -7   5    0.16    0.44
   0  -7   5   -0.25    0.44
   0  -7  -5    0.33    0.36
   0  -7  -5   -0.52    0.42
   0  -7  -5    0.48    0.50
   0   7  -5   -0.22    0.42
   0   7   5   -0.04    0.42
   0   7  -5   -0.24    0.37
   0   7   5   -0.18    0.42
   0   7   5   -0.16    0.36
   0   7  -5   -0.70    0.58
  -1  -7  -5   10.84    1.58
   1  -7   5    7.27    1.20
   1  -7   5    7.40    1.13
  -1  -7  -5   10.23    1.43
   1  -7   5    6.31    1.28
   1   7   5    3.62    0.92
   1   7   5    9.99    1.31
  -1   7  -5    9.34    1.44
   1   7   5    9.09    1.57
  -1   7  -5    9.27    1.29
   2  -7   5    0.17    0.56
  -2  -7  -5    0.08    0.59
   2  -7   5    1.74    0.82
   2  -7   5    0.09    0.51
  -2   7  -5   -0.45    0.65
   2   7   5    0.02    0.51
   2   7   5    0.50    0.66
   2   7   5    0.34    0.58
  -3  -7  -5    0.18    0.66
   3  -7   5    0.33    0.92
   3  -7   5   -0.15    0.47
   3  -7   5    0.22    0.55
   3   7   5    0.74    0.69
   3   7   5    0.64    0.80
   3   7   5   -0.57    0.42
  -3   7  -5    0.80    0.77
   4  -7   5    1.15    1.09
   4  -7   5    0.56    0.71
   4  -7   5    0.48    0.43
   4   7   5    1.23    0.87
   4   7   5    0.77    0.79
   5  -7   5    0.25    0.65
   5  -7   5   -0.25    0.81
   5   7   5   -0.11    0.67
   5   7   5    0.73    0.75
   6   7   5    0.22    1.01
   6  -8  -5    0.17    0.41
   6  -8  -5    0.03    0.41
   6   8  -5    0.04    0.76
   6   8  -5    0.00    0.40
   5  -8  -5    0.70    0.48
  -5  -8   5    1.28    0.81
   5  -8  -5    0.78    0.47
   5   8  -5   -0.28    0.69
   5   8  -5    1.07    0.55
   5   8  -5    1.57    0.60
   4  -8  -5    0.96    0.48
   4  -8  -5    0.78    0.51
  -4  -8   5    0.68    0.62
   4   8  -5    0.52    0.48
   4   8  -5    1.05    0.85
   4   8  -5    0.47    0.48
   3  -8  -5    0.18    0.50
   3  -8  -5    1.79    0.62
  -3  -8   5    0.94    0.61
  -3   8   5    1.31    0.76
   3   8  -5    2.12    0.81
   3   8  -5    0.49    0.59
   3   8  -5    3.93    0.95
  -2  -8   5    5.19    1.02
   2  -8  -5    4.72    0.76
   2  -8  -5    3.33    0.89
  -2  -8   5    3.73    1.03
   2  -8  -5    4.09    0.84
  -2   8   5    3.32    0.79
   2   8  -5    4.25    0.93
   2   8  -5    3.97    0.98
   2   8  -5    4.51    1.01
   2   8  -5    3.21    0.41
  -2   8   5    2.65    0.84
   1  -8  -5    5.19    0.45
   1  -8  -5    4.28    0.88
  -1  -8   5    6.15    1.05
   1  -8  -5    3.51    0.88
  -1  -8   5    2.45    0.91
  -1  -8   5    4.88    1.06
   1   8  -5    5.99    1.00
  -1   8   5    4.78    0.90
   1   8  -5    4.07    1.02
   1   8  -5    5.17    0.83
  -1   8   5    3.85    1.02
   0  -8   5   -0.27    0.42
   0  -8   5   -0.37    0.34
   0  -8  -5    0.09    0.57
   0  -8  -5    0.02    0.41
   0  -8  -5    0.57    0.56
   0  -8   5    0.17    0.47
   0  -8  -5   -0.59    0.56
   0  -8   5   -0.32    0.60
   0   8  -5   -0.24    0.34
   0   8   5    0.38    0.65
   0   8   5    0.27    0.58
   0   8  -5   -0.77    0.47
   0   8   5   -0.47    0.35
   0   8  -5    0.02    0.58
  -1  -8  -5    1.50    0.72
   1  -8   5    0.32    0.79
   1  -8   5    2.09    0.68
   1  -8   5    2.11    0.84
  -1  -8  -5    1.94    0.77
   1   8   5    1.19    0.75
  -1   8  -5    1.78    0.73
  -1   8  -5    2.06    0.89
   1   8   5    1.63    0.66
   1   8   5    1.46    0.69
   2  -8   5    0.77    0.54
   2  -8   5    2.07    1.04
   2  -8   5    1.17    0.73
  -2  -8  -5    1.29    0.81
  -2   8  -5    0.83    0.85
   2   8   5    1.24    0.68
   2   8   5    1.74    0.90
   2   8   5    1.04    0.71
   3  -8   5    0.34    0.68
   3  -8   5    0.85    0.67
  -3  -8  -5    0.16    0.61
   3  -8   5    0.52    1.05
   3   8   5    0.26    0.54
  -3   8  -5   -0.13    0.73
   3   8   5   -0.02    0.49
   3   8   5    0.85    0.66
   4  -8   5    1.53    1.08
   4  -8   5    0.76    0.66
   4  -8   5    0.67    0.46
   4   8   5    2.74    1.18
   4   8   5    0.34    0.71
   5  -8   5    1.71    0.94
   5  -8   5    0.53    1.05
   5   8   5    1.39    0.93
   5   8   5    0.32    0.87
   6  -9  -5    1.01    0.62
   6  -9  -5    0.33    0.46
   6   9  -5    0.68    1.09
   6   9  -5    0.63    0.51
  -5  -9   5    0.91    0.79
   5  -9  -5   -0.16    0.42
   5  -9  -5    0.66    0.49
   5   9  -5   -0.20    0.44
   5   9  -5    0.43    0.52
   5   9  -5   -0.13    0.77
   4  -9  -5    1.17    0.63
  -4  -9   5    0.80    0.72
   4  -9  -5    0.19    0.49
   4   9  -5    0.20    0.70
   4   9  -5    0.05    0.55
   4   9  -5   -0.54    0.43
   3  -9  -5    0.56    0.57
  -3  -9   5    1.41    0.73
   3  -9  -5    1.15    0.58
   3   9  -5    0.47    0.56
   3   9  -5    0.45    0.68
   3   9  -5    0.91    0.59
   2  -9  -5   -0.18    0.40
   2  -9  -5   -0.42    0.37
  -2  -9   5   -0.39    0.49
  -2  -9   5   -1.20    0.64
   2  -9  -5    0.17    0.45
  -2   9   5   -0.18    0.51
   2   9  -5    0.34    0.56
   2   9  -5    0.29    0.55
   2   9  -5    0.41    0.32
   2   9  -5    0.70    0.68
   1  -9  -5    1.16    0.73
   1  -9  -5    1.19    0.63
  -1  -9   5    1.89    0.78
  -1  -9   5    2.19    0.73
  -1  -9   5    1.30    0.86
   1   9  -5    2.30    0.68
   1   9  -5    1.69    0.76
   1   9  -5    2.72    0.79
  -1   9   5    1.67    0.72
  -1   9   5    1.77    0.86
   0  -9  -5    3.07    0.62
   0  -9   5    6.03    1.08
   0  -9   5    4.24    0.87
   0  -9   5    3.99    1.14
   0  -9  -5    6.34    1.15
   0  -9   5    4.76    1.02
   0  -9  -5    4.06    0.98
   0   9   5    7.46    1.16
   0   9  -5    3.55    0.96
   0   9  -5    3.41    0.83
   0   9   5    3.63    0.91
   0   9   5    4.47    1.15
   1  -9   5    0.16    0.49
   1  -9   5    0.08    0.68
  -1  -9  -5   -0.55    0.52
   1  -9   5   -0.79    0.40
   1  -9   5   -0.07    0.51
  -1  -9  -5    0.39    0.67
   1   9   5   -0.04    0.41
   1   9   5    0.14    0.52
   1   9   5    0.30    0.69
  -1   9  -5    0.07    0.59
  -1   9  -5    0.24    0.73
   2  -9   5    0.15    0.55
   2  -9   5    0.12    0.51
  -2  -9  -5    1.71    0.95
   2  -9   5    0.56    0.86
   2   9   5    1.36    0.65
  -2   9  -5    0.30    0.86
   2   9   5    0.35    0.65
   2   9   5    2.29    0.98
   3  -9   5    3.98    0.87
   3  -9   5    4.03    1.07
   3  -9   5    1.78    1.18
  -3  -9  -5    2.54    1.00
   3   9   5    3.08    1.03
   3   9   5    3.93    1.10
   3   9   5    3.74    0.82
  -3   9  -5    3.93    1.30
   4  -9   5    0.59    0.88
   4  -9   5   -0.77    0.60
   4   9   5   -0.19    0.75
   4   9   5   -0.17    0.76
   5  -9   5   -1.01    0.98
   5   9   5    1.37    0.96
   6 -10  -5    0.83    0.52
   6 -10  -5    0.94    0.56
   6  10  -5    0.68    1.09
   6  10  -5    0.64    0.54
   5 -10  -5   -0.22    0.44
  -5 -10   5    1.91    1.11
   5 -10  -5    0.24    0.52
   5  10  -5    0.45    0.55
   5  10  -5    0.16    0.50
   5  10  -5    0.35    0.84
   4 -10  -5    0.27    0.54
   4 -10  -5   -0.02    0.52
  -4 -10   5    0.29    0.60
   4  10  -5    1.03    0.65
   4  10  -5   -0.29    0.43
   4  10  -5    0.05    0.71
   3 -10  -5    0.24    0.50
   3 -10  -5    0.04    0.50
  -3 -10   5    0.13    0.55
   3  10  -5    0.26    0.68
   3  10  -5   -0.40    0.48
   3  10  -5   -0.74    0.58
  -2 -10   5    6.68    1.30
   2 -10  -5    5.18    0.95
   2 -10  -5    6.17    1.02
  -2 -10   5    3.74    1.21
   2 -10  -5    6.90    1.08
   2  10  -5    4.03    1.04
  -2  10   5    6.01    1.16
   2  10  -5    5.64    1.05
   2  10  -5    5.88    0.62
   2  10  -5    4.31    1.07
  -1 -10   5    4.66    1.14
  -1 -10   5    4.63    1.00
   1 -10  -5    3.96    0.87
  -1 -10   5    5.97    1.15
  -1  10   5    6.40    1.21
   1  10  -5    4.79    1.15
   1  10  -5    5.46    1.10
   1  10  -5    5.02    0.81
  -1  10   5    8.29    1.31
   0 -10   5    0.46    0.57
   0 -10   5   -0.28    0.68
   0 -10  -5    0.31    0.64
   0 -10   5   -0.45    0.52
   0 -10  -5   -0.47    0.49
   0  10   5    0.32    0.55
   0  10   5    0.19    0.51
   0  10  -5   -0.30    0.58
   0  10  -5   -0.17    0.42
  -1 -10  -5    2.25    0.82
   1 -10   5    1.53    0.80
   1 -10   5    0.45    0.77
   1 -10   5   -0.21    0.76
   1  10   5    0.50    0.74
   1  10   5    0.25    0.60
  -1  10  -5    1.29    0.78
  -1  10  -5    0.99    0.83
   2 -10   5   12.01    1.98
  -2 -10  -5   13.58    1.84
   2 -10   5   12.01    1.58
  -2  10  -5   14.11    1.97
   2  10   5   12.84    1.56
   2  10   5   14.95    1.90
   3 -10   5    2.01    1.31
   3 -10   5    1.13    0.64
  -3 -10  -5    1.03    0.97
   3  10   5    0.55    0.60
   3  10   5   -0.33    0.68
  -3  10  -5    0.67    0.83
   3  10   5    0.55    0.48
   3  10   5   -0.34    0.56
   4 -10   5   -0.23    1.10
   4  10   5   -0.19    0.82
   4  10   5   -0.09    0.69
   5 -10   5    1.36    1.40
   5  10   5    0.70    0.92
   6 -11  -5    0.99    0.66
   6 -11  -5    0.27    0.51
   6  11  -5    1.53    0.71
   6  11  -5    0.75    1.18
   5 -11  -5    0.07    0.51
   5 -11  -5    0.94    0.58
  -5 -11   5    1.02    0.90
   5  11  -5    0.36    0.53
   5  11  -5    0.12    0.64
   5  11  -5   -0.87    0.99
   4 -11  -5   -0.35    0.41
  -4 -11   5    0.31    0.78
   4 -11  -5    0.40    0.51
   4  11  -5    1.01    0.75
   4  11  -5    0.38    0.59
   4  11  -5    0.84    0.76
   3 -11  -5    1.88    0.61
  -3 -11   5    3.78    0.98
   3 -11  -5    4.01    1.00
   3  11  -5    3.31    0.87
   3  11  -5    2.13    0.84
   3  11  -5    1.47    0.90
   2 -11  -5   -0.43    0.46
  -2 -11   5    1.47    0.97
  -2 -11   5    0.81    0.59
   2  11  -5    0.85    0.77
  -2  11   5    0.39    0.73
   2  11  -5    0.48    0.60
   2  11  -5    0.26    0.64
   2  11  -5    1.05    0.38
  -1 -11   5    0.97    1.00
   1 -11  -5    1.61    0.80
  -1 -11   5    2.06    0.86
   1  11  -5    1.39    0.92
   1  11  -5    1.70    0.73
  -1  11   5    2.21    0.87
   0 -11   5    0.75    0.80
   0 -11   5    0.64    0.60
   0 -11   5    1.21    0.84
   0 -11  -5    2.03    1.03
   0 -11  -5    0.52    0.54
   0  11  -5    2.23    1.06
   0  11   5    1.00    0.77
   0  11  -5    1.21    0.92
   0  11   5    1.04    0.74
  -1 -11  -5   -0.13    0.59
   1 -11   5    0.31    0.77
   1 -11   5    0.07    0.52
   1 -11   5   -0.27    0.53
  -1  11  -5   -0.37    0.65
   1  11   5    0.00    0.75
   1  11   5    0.28    0.51
   2 -11   5    2.40    1.14
   2 -11   5    1.67    0.69
  -2 -11  -5    1.85    0.97
   2  11   5    2.21    0.75
  -2  11  -5    3.08    1.16
   2  11   5    1.74    0.96
   3 -11   5    2.15    0.82
   3 -11   5    1.16    1.15
  -3 -11  -5    0.49    0.81
   3  11   5    2.28    1.08
  -3  11  -5    2.40    1.00
   3  11   5    1.91    0.71
   3  11   5    1.44    0.76
   4 -11   5   -1.10    1.22
   4  11   5   -0.86    0.61
   5 -11   5    0.06    1.06
   5  11   5    0.10    0.84
   6 -12  -5    0.90    0.69
   6  12  -5    2.20    1.30
   6  12  -5    0.05    0.63
   5 -12  -5    2.32    0.82
   5 -12  -5    1.47    0.69
  -5 -12   5    4.78    1.30
   5  12  -5    1.40    0.76
   5  12  -5    2.39    1.41
   5  12  -5    3.56    0.91
   4 -12  -5    0.45    0.56
  -4 -12   5    0.53    0.76
   4  12  -5    1.56    0.91
   4  12  -5    1.10    0.65
   4  12  -5    1.38    0.82
  -3 -12   5    4.18    1.08
   3 -12  -5    3.63    1.03
   3  12  -5    2.74    0.81
   3  12  -5    2.18    0.89
   3  12  -5    0.54    0.75
  -2 -12   5    5.61    1.22
   2 -12  -5    5.40    1.06
  -2 -12   5    3.62    1.29
   2  12  -5    4.44    0.62
  -2  12   5    5.59    1.22
   2  12  -5    4.74    1.12
   2  12  -5    4.04    1.00
  -1 -12   5    4.57    1.37
  -1 -12   5    5.26    1.17
   1 -12  -5    7.78    1.29
  -1  12   5    6.96    1.34
   1  12  -5    7.21    1.54
   1  12  -5    6.04    0.95
   0 -12   5    2.97    1.26
   0 -12   5    3.57    0.99
   0 -12  -5    3.98    1.15
   0  12  -5    4.80    1.03
   0  12  -5    5.21    1.41
   0  12   5    3.70    1.17
  -1 -12  -5   16.97    2.03
   1 -12   5   13.96    1.75
   1 -12   5   15.21    1.94
   1 -12   5   13.01    2.18
   1  12   5   12.15    1.74
   1  12   5   18.13    1.89
  -1  12  -5   14.11    1.86
   2 -12   5    9.10    1.47
  -2 -12  -5   10.33    1.69
   2 -12   5    8.77    2.04
  -2  12  -5   10.07    1.77
   2  12   5   11.55    1.89
   2  12   5   12.78    1.54
  -3 -12  -5    3.05    1.26
   3 -12   5    4.27    1.71
   3 -12   5    3.33    0.89
   3  12   5    3.26    1.16
  -3  12  -5    3.78    1.52
   3  12   5    2.68    0.81
   3  12   5    2.90    0.82
   4 -12   5    1.82    1.29
   4  12   5    0.55    0.79
   6 -13  -5    0.65    0.69
   6  13  -5    0.86    0.64
   5 -13  -5   -0.34    0.60
  -5 -13   5   -0.28    0.76
   5 -13  -5    1.08    0.70
   5  13  -5    0.36    0.95
   5  13  -5   -0.32    0.68
   5  13  -5    0.35    0.59
  -4 -13   5   -0.30    0.63
   4 -13  -5   -0.20    0.45
   4  13  -5   -0.91    0.61
   4  13  -5    0.55    0.76
  -3 -13   5    2.40    0.99
   3 -13  -5    0.09    0.60
   3  13  -5    0.88    0.77
   3  13  -5    0.71    0.88
   2 -13  -5   -1.01    0.51
  -2 -13   5   -1.09    0.90
  -2 -13   5   -0.93    0.44
   2  13  -5   -0.13    0.28
  -2  13   5   -0.52    0.67
   2  13  -5    0.51    0.73
   2  13  -5    0.28    0.31
   2  13  -5    0.14    0.66
  -1 -13   5    0.15    0.60
   1 -13  -5   -0.66    0.51
  -1 -13   5    0.98    0.95
  -1  13   5    0.34    0.69
   1  13  -5   -0.07    0.43
   1  13  -5    0.02    0.77
   0 -13   5   -0.36    0.54
   0 -13   5    2.69    1.27
   0 -13  -5    0.02    0.69
   0  13  -5    0.17    0.78
   0  13   5    0.52    0.74
   0  13  -5    1.42    0.73
   1 -13   5    0.95    1.21
  -1 -13  -5    1.14    0.85
   1 -13   5    1.43    0.82
  -1  13  -5   -0.50    0.93
   1  13   5    0.83    0.59
   1  13   5    1.85    0.90
   2 -13   5    3.11    1.61
   2 -13   5    1.94    0.77
  -2 -13  -5    2.14    0.95
   2  13   5    2.74    1.16
  -2  13  -5    1.02    1.17
   2  13   5    1.90    0.71
  -3 -13  -5    0.06    0.79
   3 -13   5   -0.59    0.63
   3 -13   5    0.05    1.16
   3  13   5    1.18    0.71
   3  13   5    0.20    0.80
  -3  13  -5    0.43    0.92
   3  13   5    0.65    0.65
   4 -13   5    0.75    1.21
   4  13   5    0.58    1.01
   6 -14  -5   -0.36    0.54
   5 -14  -5    1.24    0.77
   5 -14  -5    0.58    0.63
  -5 -14   5   -0.26    0.89
   5  14  -5   -0.68    0.77
   5  14  -5    0.06    0.76
   4 -14  -5    2.13    0.81
  -4 -14   5    0.88    1.07
   4 -14  -5    1.86    0.90
   4  14  -5    1.86    1.07
   4  14  -5    1.23    0.88
  -3 -14   5    0.03    0.57
   3 -14  -5    0.46    0.69
   3  14  -5    0.40    0.69
   3  14  -5   -0.49    0.68
  -2 -14   5   -0.54    0.61
  -2 -14   5   -0.07    0.95
   2 -14  -5    0.06    0.67
  -2  14   5   -0.57    0.64
   2  14  -5    0.19    0.39
   2  14  -5    0.16    0.79
   2  14  -5    0.07    0.46
   2  14  -5    0.85    0.84
  -1 -14   5    0.52    0.66
   1 -14  -5    0.93    0.79
  -1 -14   5    0.20    0.91
  -1  14   5    0.50    0.78
   1  14  -5    0.30    0.85
   1  14  -5    0.53    0.51
   0 -14   5    0.57    0.66
   0 -14   5    1.29    1.07
   0 -14  -5    0.42    0.80
   0  14  -5    0.47    0.74
   0  14  -5    0.24    0.63
   0  14   5    0.64    0.74
   1 -14   5   -0.02    0.56
   1 -14   5   -0.15    0.89
  -1 -14  -5   -0.09    0.85
   1  14   5   -0.02    0.75
   1  14   5    0.79    0.66
  -1  14  -5    0.23    0.94
   2 -14   5    3.97    1.04
   2 -14   5    1.58    1.19
  -2 -14  -5    5.35    1.33
  -2  14  -5    1.94    1.23
   2  14   5    4.40    0.98
   2  14   5    5.42    1.18
   2  14   5    4.58    1.43
   3 -14   5   -0.23    0.57
   3 -14   5   -0.51    0.98
   3  14   5   -0.23    0.77
  -3  14  -5   -0.11    0.82
   3  14   5   -0.06    0.41
   3  14   5   -0.16    0.53
   4 -14   5    0.13    1.23
   4  14   5    0.70    0.82
   6 -15  -5   -0.53    0.63
  -5 -15   5    0.41    0.97
   5 -15  -5   -0.19    0.63
   5 -15  -5   -0.41    0.52
   5  15  -5    0.33    0.93
   5  15  -5    0.75    0.94
   4 -15  -5   -0.66    0.56
   4 -15  -5   -0.27    0.59
  -4 -15   5   -0.02    0.72
   4  15  -5    0.39    0.84
   4  15  -5   -0.18    0.81
  -3 -15   5   -0.01    0.79
   3 -15  -5    0.02    0.76
   3  15  -5   -0.45    0.74
   3  15  -5    1.92    1.08
  -2 -15   5   -0.53    1.15
  -2 -15   5   -0.30    0.58
   2 -15  -5    0.31    0.79
   2  15  -5   -0.46    0.72
   2  15  -5    0.48    0.41
  -2  15   5   -1.06    0.56
   2  15  -5    0.38    0.37
   2  15  -5   -0.09    0.64
  -1 -15   5   -0.05    0.62
  -1 -15   5    0.65    1.15
   1 -15  -5    1.24    0.88
   1  15  -5    0.62    0.72
  -1  15   5    1.32    0.80
   1  15  -5   -0.66    0.62
   0 -15   5    2.75    0.96
   0 -15   5    3.57    1.37
   0 -15  -5    1.90    0.92
   0  15   5    3.45    1.24
   0  15  -5    3.18    1.04
   0  15  -5    2.87    1.17
   1 -15   5   -1.46    0.87
   1 -15   5    1.76    0.83
  -1 -15  -5    0.52    0.95
  -1  15  -5   -0.11    0.91
   1  15   5    1.27    0.92
   2 -15   5    0.59    0.71
   2 -15   5    0.93    1.21
   2 -15   5    0.04    0.69
  -2 -15  -5    0.04    0.77
   2  15   5   -0.11    0.74
  -2  15  -5   -0.70    1.12
   2  15   5    0.83    0.83
   2  15   5    0.48    0.60
   3 -15   5    1.54    1.47
   3 -15   5    1.01    0.73
   3  15   5    0.11    0.53
   3  15   5    0.41    0.89
  -3  15  -5    0.94    1.00
   3  15   5    1.07    0.65
   4 -15   5   -0.48    1.27
   4  15   5    1.63    1.08
   5 -16  -5    0.60    0.68
   5 -16  -5    0.23    0.76
   5  16  -5    0.69    1.10
   5  16  -5   -0.34    0.74
  -4 -16   5    3.77    1.22
   4 -16  -5    3.80    1.12
   4 -16  -5    2.76    1.06
   4  16  -5    1.60    1.05
   4  16  -5    2.82    1.15
  -3 -16   5    1.91    1.11
   3 -16  -5    3.19    1.15
   3 -16  -5    2.85    1.12
   3  16  -5    2.20    1.04
   3  16  -5    1.37    0.90
  -2 -16   5    2.40    1.03
   2 -16  -5    3.27    1.14
   2  16  -5    2.99    1.04
   2  16  -5    2.21    0.53
   2  16  -5    3.06    1.39
   2  16  -5    2.57    0.62
  -2  16   5    3.00    1.09
  -1 -16   5    3.50    1.77
  -1 -16   5    5.92    1.38
   1 -16  -5    3.16    1.16
   1  16  -5    3.16    0.89
  -1  16   5    3.30    1.15
   1  16  -5    3.71    1.29
   0 -16   5    4.01    1.66
   0 -16   5    4.40    1.14
   0 -16  -5    5.45    1.35
   0  16  -5    8.46    1.61
   0  16  -5    4.87    1.50
   0  16   5    5.85    1.42
  -1 -16  -5    4.51    1.22
   1 -16   5    2.46    1.53
   1 -16   5    3.23    1.09
   1  16   5    5.28    1.40
  -1  16  -5    4.83    1.46
   2 -16   5    2.64    1.48
  -2 -16  -5    0.18    0.67
   2 -16   5    1.64    0.95
   2  16   5    0.87    0.89
   2  16   5   -0.24    0.58
  -2  16  -5    1.15    1.21
   2  16   5    2.42    1.08
   3 -16   5    0.85    0.73
   3 -16   5    2.13    1.60
   3  16   5    2.06    1.14
   3  16   5    1.62    0.74
   3  16   5    0.45    0.58
   4 -16   5    3.45    1.92
   4  16   5    2.92    1.22
   5 -17  -5   -0.19    0.62
   5 -17  -5    0.08    0.82
   5  17  -5   -0.54    0.75
   4 -17  -5   -0.50    0.67
   4 -17  -5    1.17    0.82
  -4 -17   5    0.50    0.91
   4  17  -5    0.79    1.07
   4  17  -5    0.81    0.94
  -3 -17   5    2.08    1.08
   3 -17  -5    0.63    0.71
   3 -17  -5    0.25    0.83
   3  17  -5    1.18    1.03
   3  17  -5    1.06    0.96
  -2 -17   5    0.35    0.73
   2 -17  -5    0.81    0.93
  -2  17   5    0.11    1.06
   2  17  -5    0.27    0.88
   2  17  -5    0.00    0.77
   2  17  -5   -0.27    0.36
   2  17  -5   -0.03    0.34
   1 -17  -5    2.00    1.02
  -1 -17   5    2.87    1.11
  -1 -17   5    0.73    1.26
   1  17  -5    2.67    1.19
   1  17  -5    3.29    0.90
  -1  17   5    1.41    0.88
   0 -17   5    0.86    1.21
   0 -17  -5   -0.38    0.78
   0 -17   5   -1.23    0.60
   0  17  -5    0.76    0.91
   0  17   5    0.29    0.72
   1 -17   5   -0.05    0.61
  -1 -17  -5    0.01    0.76
   1 -17   5    0.65    1.33
   1  17   5    0.42    0.78
  -1  17  -5    0.65    1.01
   2 -17   5   -1.31    1.21
  -2 -17  -5   -0.56    0.82
   2 -17   5    0.60    0.75
  -2  17  -5    0.53    0.99
   2  17   5   -0.72    0.67
   2  17   5    0.56    0.66
   3 -17   5    0.68    1.56
   3 -17   5   -1.24    0.55
   3  17   5   -0.01    0.63
   3  17   5    0.29    0.97
   3  17   5    0.26    0.65
   5 -18  -5    0.00    0.70
   5  18  -5   -0.71    1.01
   4 -18  -5   -0.17    0.75
   4 -18  -5   -0.96    0.75
   4  18  -5   -0.08    1.05
   4  18  -5    0.16    0.83
   3 -18  -5    5.18    1.39
  -3 -18   5    4.36    1.38
   3  18  -5    2.26    1.06
   3  18  -5    3.08    1.22
  -2 -18   5    0.41    0.76
   2 -18  -5    0.61    0.89
   2  18  -5    0.06    0.96
   2  18  -5    0.15    0.87
   2  18  -5    0.23    0.40
   2  18  -5   -0.11    0.45
   1 -18  -5    3.41    1.31
  -1 -18   5    2.01    1.42
  -1 -18   5    1.01    0.89
   1  18  -5    0.98    1.34
   1  18  -5    3.20    1.02
  -1  18   5    0.61    1.13
   0 -18  -5    3.29    1.36
   0 -18   5    1.77    0.88
   0 -18   5    4.74    1.89
   0  18  -5    1.60    1.26
   0  18   5    1.84    1.06
  -1 -18  -5    0.04    0.87
   1 -18   5   -0.59    0.68
   1 -18   5    0.01    1.39
   1  18   5   -0.15    0.94
  -1  18  -5    0.21    0.94
  -2 -18  -5    0.10    0.99
   2 -18   5    0.29    1.65
   2 -18   5   -0.04    0.74
   2  18   5    0.60    1.03
  -2  18  -5    1.07    1.18
   2  18   5   -0.13    0.61
   3 -18   5    3.17    1.95
   3 -18   5    0.01    0.84
   3  18   5   -0.56    0.55
   3  18   5    0.11    0.59
   3  18   5    0.60    1.13
   5 -19  -5    0.07    0.75
   4 -19  -5   -0.38    0.86
   4  19  -5    1.03    0.99
   4  19  -5   -0.01    1.01
   3 -19  -5    0.34    0.82
   3  19  -5   -1.07    0.80
   3  19  -5   -0.24    0.98
   2 -19  -5    0.97    0.93
  -2 -19   5    0.53    0.86
   2  19  -5    0.09    0.95
   2  19  -5    0.30    0.45
   2  19  -5   -1.17    1.04
   2  19  -5    0.62    0.48
   1 -19  -5    2.32    1.11
  -1 -19   5    1.70    1.80
  -1 -19   5    0.95    1.04
   1  19  -5    1.78    1.00
   1  19  -5    0.44    0.93
   1  19  -5    1.90    0.81
  -1  19   5    2.34    1.44
   0 -19   5    0.47    1.51
   0 -19  -5    1.00    1.09
   0 -19   5    1.58    0.90
   0  19  -5    0.23    1.07
   0  19   5    1.27    0.99
   1 -19   5    0.53    1.38
   1 -19   5    0.05    0.71
  -1 -19  -5   -0.34    0.89
   1  19   5    0.09    0.90
  -1  19  -5    1.49    1.27
   2 -19   5    0.12    1.37
  -2 -19  -5    0.86    1.11
   2 -19   5    0.40    0.85
   2  19   5   -1.01    0.84
  -2  19  -5    0.55    1.25
   3 -19   5    1.42    0.82
   3 -19   5    2.15    1.77
   3  19   5    0.23    0.67
   3  19   5    0.54    0.72
   3  19   5   -0.50    0.83
   3 -20  -5    1.50    1.04
   3  20  -5    0.41    0.99
   3  20  -5   -0.25    0.99
  -2 -20   5    2.40    1.12
   2 -20  -5    0.59    1.11
   2  20  -5    1.42    0.61
   2  20  -5    1.21    1.05
   2  20  -5    1.54    0.51
   2  20  -5    2.52    1.36
  -1 -20   5    0.91    1.50
  -1 -20   5    1.28    1.01
   1 -20  -5    0.36    0.96
   1  20  -5   -0.01    0.68
  -1  20   5   -0.20    1.08
   1  20  -5    2.37    1.23
   1  20  -5    0.14    0.75
   0 -20   5    1.40    0.96
   0 -20   5   -1.33    1.24
   0 -20  -5    0.74    1.04
   0  20  -5    0.47    1.12
   0  20   5    0.71    0.98
   1 -20   5    1.32    1.78
   1 -20   5   -1.05    0.74
  -1 -20  -5    0.68    1.33
   1  20   5    1.32    1.11
  -1  20  -5    0.28    1.32
  -2 -20  -5    1.43    1.11
   2 -20   5    1.33    1.04
   2 -20   5    2.53    1.76
   2  20   5    2.17    1.33
  -2  20  -5    2.48    1.55
   3  20   5    0.45    0.80
   3  20   5    0.98    0.77
   3 -21  -5    0.59    0.97
   3  21  -5   -0.60    0.97
   3  21  -5    3.04    1.44
   2 -21  -5    0.54    0.93
   2  21  -5   -0.57    1.07
   2  21  -5    0.15    0.40
   2  21  -5   -0.51    0.85
   2  21  -5    0.34    0.49
  -1 -21   5   -0.04    1.67
  -1 -21   5    0.03    1.04
   1 -21  -5    0.29    1.19
   1  21  -5    0.43    0.90
   1  21  -5    1.36    1.32
  -1  21   5   -0.06    1.26
   1  21  -5    1.46    0.87
   0 -21   5    0.96    1.76
   0 -21   5    0.08    0.88
   0 -21  -5   -0.21    0.99
   0  21  -5    0.37    1.08
   0  21   5    0.98    1.29
   1 -21   5   -0.80    0.69
  -1 -21  -5    0.22    1.15
   1 -21   5   -2.21    1.52
   1  21   5    0.72    0.96
  -1  21  -5    0.69    1.34
   2 -21   5   -1.65    1.62
   2 -21   5    0.46    1.06
  -2 -21  -5    0.85    1.05
  -2  21  -5    0.07    1.28
   2  21   5   -0.81    0.94
   3  21   5    0.20    0.64
   3  21   5    0.02    0.59
   2 -22  -5    0.24    1.00
   2  22  -5   -0.67    0.76
   2  22  -5    0.33    0.48
   2  22  -5    0.52    0.45
   2  22  -5    0.14    1.18
   1 -22  -5    0.70    1.18
  -1  22   5   -0.75    1.01
   1  22  -5    1.79    1.00
   1  22  -5    1.06    1.23
   1  22  -5   -0.31    0.90
   0 -22   5   -0.14    0.94
   0 -22  -5    0.00    1.06
   0 -22   5    4.39    2.10
   0  22   5    0.51    1.38
   0  22  -5   -0.33    1.36
   1 -22   5   -0.15    1.76
   1 -22   5    0.29    1.02
  -1 -22  -5    1.01    1.45
   1  22   5    0.66    1.13
  -1  22  -5    0.71    1.59
   2 -22   5   -1.20    1.61
   2 -22   5   -0.35    1.11
   2  22   5    0.05    1.20
  -2  22  -5   -0.31    1.23
   3  22   5    1.30    0.92
   2  23  -5   -0.68    0.57
   2  23  -5    0.23    0.57
   1 -23  -5   -1.63    0.90
   1  23  -5    0.53    1.33
   1  23  -5    1.07    0.87
   1  23  -5   -0.69    0.84
  -1  23   5    1.12    1.35
   0 -23  -5    0.89    1.12
   0 -23   5   -0.32    1.91
   0  23  -5    3.10    1.66
   0  23   5   -1.07    1.36
  -1 -23  -5   -0.05    1.25
   1 -23   5   -0.55    1.53
  -1  23  -5    0.55    1.40
   1  23   5   -0.44    1.07
  -2  23  -5    0.50    1.68
   1 -24  -5    0.60    1.28
   1  24  -5    0.22    0.71
   0 -24   5    0.91    1.95
   0 -24  -5   -1.03    1.17
   0  24   5    0.03    1.56
   0  24  -5    0.75    1.68
   1 -24   5   -0.04    2.05
  -1 -24  -5    1.78    1.49
   1  24   5   -0.69    1.09
  -1  24  -5    0.80    1.46
  -2  24  -5    2.63    1.98
   1  25  -5    1.06    1.14
   0 -25  -5   -0.90    1.34
   0 -25   5   -0.93    1.93
   0  25   5    1.12    1.74
   1 -25   5   -2.11    2.01
  -1 -25  -5   -0.15    1.28
   0  26   5   -3.15    1.30
   6   0  -6    0.47    0.53
   5   0  -6    3.16    0.63
   5   0  -6    4.97    0.92
   4   0  -6    0.33    0.44
   4   0  -6    1.41    0.68
   4   0  -6    1.38    0.57
   3   0  -6    3.99    0.81
   3   0  -6    5.90    1.07
   3   0  -6    6.32    1.07
   2   0  -6   72.91    2.34
   2   0  -6   69.50    2.67
  -2   0   6   69.35    2.91
   2   0  -6   72.64    2.53
  -1   0   6    2.66    0.75
   1   0  -6    2.64    0.69
   1   0  -6    2.10    0.84
   1   0  -6    2.89    0.75
  -1   0   6    2.19    0.94
   0   0   6   10.88    1.42
   0   0  -6   11.09    1.60
   0   0  -6    9.32    1.23
   0   0   6    9.01    1.56
  -1   0  -6   15.07    1.93
   1   0   6   14.00    1.62
  -1   0  -6   17.26    1.85
   1   0   6   16.92    2.16
   2   0   6   14.02    2.07
  -2   0  -6   13.50    1.82
   2   0   6   11.88    1.52
   3   0   6    1.47    1.00
  -3   0  -6    0.60    0.86
   3   0   6    1.28    0.71
   4   0   6    0.21    0.38
   4   0   6    0.41    0.72
   5   0   6    6.57    1.73
   6  -1  -6   -0.42    0.33
   6   1  -6   -0.39    0.36
   5  -1  -6    0.15    0.46
   5  -1  -6   -0.45    0.35
   5   1  -6   -0.02    0.42
   5   1  -6   -0.39    0.32
   4  -1  -6   -0.08    0.43
   4  -1  -6    0.73    0.53
  -4  -1   6   -0.18    0.50
   4  -1  -6   -0.55    0.48
   4   1  -6    0.68    0.68
   4   1  -6   -0.25    0.42
   4   1  -6   -0.18    0.45
   3  -1  -6   12.19    1.41
   3  -1  -6   11.32    1.25
  -3  -1   6   12.65    1.48
   3  -1  -6   11.63    1.32
   3   1  -6   13.17    1.43
   3   1  -6   11.84    1.27
   3   1  -6   10.73    1.42
   2  -1  -6    0.48    0.50
   2  -1  -6    0.74    0.63
   2  -1  -6    1.60    0.62
  -2  -1   6    0.44    0.61
   2   1  -6    2.27    0.74
  -2   1   6    0.80    0.51
   2   1  -6    0.47    0.49
   2   1  -6    0.79    0.52
  -1  -1   6    2.23    0.79
   1  -1  -6    1.01    0.60
   1  -1  -6    2.30    0.79
   1  -1  -6    1.91    0.75
  -1  -1   6    2.02    0.92
   1   1  -6    1.10    0.53
   1   1  -6    1.24    0.65
  -1   1   6    1.55    0.60
   1   1  -6    1.76    0.70
  -1   1   6    1.10    0.80
   0  -1  -6    5.40    0.97
   0  -1  -6    4.41    1.06
   0  -1   6    5.70    1.09
   0  -1   6    5.13    1.30
   0   1   6    3.25    0.79
   0   1   6    6.14    1.32
   0   1  -6    3.12    0.76
   0   1  -6    5.49    1.13
   1  -1   6    0.17    0.62
  -1  -1  -6   -0.30    0.66
   1  -1   6    1.60    0.77
  -1  -1  -6   -0.40    0.60
   1   1   6    0.30    0.57
   1   1   6    0.90    0.71
  -1   1  -6    1.54    0.81
  -1   1  -6    0.26    0.48
   2  -1   6    1.29    0.74
  -2  -1  -6    0.64    0.74
   2  -1   6    0.49    0.69
   2   1   6    1.32    0.84
   2   1   6   -0.98    0.43
  -2   1  -6    1.00    0.72
   3  -1   6    1.71    1.02
   3  -1   6    3.07    0.86
  -3  -1  -6    4.76    1.23
   3   1   6    2.16    1.07
   3   1   6    4.50    1.01
  -3   1  -6    4.57    1.26
   4  -1   6    0.15    0.79
   4  -1   6   -0.07    0.36
   4   1   6    0.04    0.59
   4   1   6   -0.09    0.31
   5  -1   6    1.58    1.06
   5   1   6   -0.21    0.68
   6  -2  -6    0.02    0.42
   6   2  -6   -0.17    0.42
   5  -2  -6   -0.06    0.40
   5  -2  -6    1.23    0.58
   5   2  -6   -0.48    0.64
   5   2  -6   -0.08    0.41
   5   2  -6   -0.20    0.40
   4  -2  -6    0.52    0.49
  -4  -2   6   -0.01    0.54
   4  -2  -6   -0.32    0.43
   4   2  -6    0.38    0.45
   4   2  -6   -0.05    0.44
   4   2  -6    0.68    0.63
  -3  -2   6    2.34    0.78
   3  -2  -6    1.03    0.63
   3  -2  -6    1.96    0.64
   3  -2  -6    2.22    0.63
   3   2  -6    0.58    0.69
   3   2  -6    0.68    0.52
   3   2  -6    1.89    0.76
  -2  -2   6    7.85    1.35
   2  -2  -6    9.07    1.19
   2  -2  -6    6.59    1.00
   2  -2  -6    5.80    1.09
   2   2  -6    6.89    1.03
  -2   2   6    7.21    1.21
   2   2  -6    5.01    0.97
   2   2  -6    5.94    1.11
   1  -2  -6    2.38    0.71
  -1  -2   6    0.12    0.50
   1  -2  -6    0.14    0.47
  -1  -2   6    1.10    0.85
   1  -2  -6    1.15    0.63
  -1   2   6    0.60    0.67
  -1   2   6    0.69    0.54
   1   2  -6    1.56    0.73
   1   2  -6    0.73    0.45
   1   2  -6    0.81    0.54
   0  -2  -6   -0.07    0.45
   0  -2   6    1.83    0.95
   0  -2   6    0.41    0.52
   0  -2  -6    1.13    0.71
   0   2   6    0.44    0.57
   0   2  -6    0.53    0.71
   0   2  -6    1.12    0.58
   0   2   6    2.49    0.90
  -1  -2  -6    0.37    0.71
   1  -2   6    2.15    0.97
  -1  -2  -6    1.49    0.87
   1  -2   6    1.65    0.83
  -1   2  -6    0.49    0.78
   1   2   6    3.49    0.95
   1   2   6    1.73    0.85
  -1   2  -6    0.49    0.65
  -2  -2  -6   -0.25    0.66
   2  -2   6    0.97    0.74
   2  -2   6    0.73    0.64
   2   2   6    1.37    0.89
  -2   2  -6    0.73    0.68
   2   2   6    1.72    0.76
  -3  -2  -6    1.17    0.93
   3  -2   6    0.48    0.58
   3  -2   6   -0.47    0.64
   3   2   6   -0.05    0.44
  -3   2  -6    0.47    0.82
   3   2   6    0.47    0.93
   4  -2   6    0.96    0.95
   4  -2   6   -0.05    0.41
   4   2   6    0.54    0.89
   4   2   6   -0.08    0.39
   5  -2   6    2.83    1.24
   5   2   6    0.08    0.87
   6  -3  -6    0.25    0.39
   6   3  -6   -0.33    0.42
   5  -3  -6    0.34    0.50
   5  -3  -6    0.68    0.42
   5   3  -6    0.52    0.86
   5   3  -6    0.12    0.41
   5   3  -6    0.46    0.48
   4  -3  -6    0.06    0.41
   4  -3  -6   -0.11    0.44
  -4  -3   6    0.03    0.53
   4   3  -6   -0.04    0.46
   4   3  -6    0.41    0.57
   4   3  -6    0.69    0.69
   3  -3  -6    0.63    0.57
   3  -3  -6    0.34    0.40
   3  -3  -6    0.37    0.42
  -3  -3   6    0.41    0.59
   3   3  -6   -0.42    0.40
   3   3  -6    0.05    0.39
   3   3  -6    0.38    0.58
   2  -3  -6    0.29    0.41
  -2  -3   6   -0.28    0.52
   2  -3  -6    0.32    0.49
   2  -3  -6   -0.25    0.40
  -2  -3   6    0.42    0.66
  -2   3   6   -0.70    0.51
   2   3  -6    0.73    0.56
   2   3  -6    0.15    0.40
  -1  -3   6    0.00    0.66
   1  -3  -6    0.84    0.52
   1  -3  -6    0.35    0.54
   1  -3  -6   -0.01    0.47
  -1  -3   6   -0.10    0.45
  -1   3   6    0.19    0.48
  -1   3   6   -0.58    0.30
   1   3  -6    0.28    0.54
   1   3  -6    0.26    0.43
   1   3  -6    0.14    0.53
   0  -3  -6   -0.31    0.49
   0  -3   6   -0.03    0.52
   0  -3   6   -0.25    0.37
   0  -3  -6   -0.10    0.44
   0   3  -6   -0.52    0.47
   0   3   6    0.54    0.56
   0   3  -6   -0.13    0.41
   0   3   6   -0.43    0.38
  -1  -3  -6    0.79    0.77
   1  -3   6    1.67    0.81
  -1  -3  -6    1.71    0.80
   1  -3   6    0.72    0.72
  -1   3  -6    0.67    0.69
  -1   3  -6    1.24    0.71
   1   3   6    1.06    0.79
   1   3   6    1.01    0.60
   2  -3   6    2.27    0.76
   2  -3   6    0.79    0.69
  -2  -3  -6    0.85    0.86
   2   3   6    2.79    0.85
   2   3   6    1.78    0.92
  -2   3  -6    0.85    0.72
  -3  -3  -6    1.06    0.82
   3  -3   6    0.32    0.51
   3  -3   6    0.03    0.70
   3   3   6    2.57    0.81
  -3   3  -6    1.99    0.96
   3   3   6    0.41    0.72
   4  -3   6   -0.24    0.69
   4  -3   6    0.48    0.43
   4   3   6    2.12    1.06
   4   3   6    0.59    0.42
   5  -3   6    0.46    0.74
   5   3   6    0.74    0.89
   6  -4  -6    0.29    0.47
   6   4  -6    0.11    0.50
   5  -4  -6    1.25    0.53
   5  -4  -6    0.16    0.39
   5   4  -6   -0.32    0.45
   5   4  -6    0.70    0.88
   5   4  -6    0.42    0.50
   4  -4  -6    1.00    0.67
   4  -4  -6    2.17    0.63
  -4  -4   6    2.12    0.78
   4   4  -6    1.79    0.68
   4   4  -6    1.79    0.88
   4   4  -6    2.11    0.65
  -3  -4   6    1.90    0.74
   3  -4  -6    0.58    0.50
   3  -4  -6    0.16    0.47
   3   4  -6    0.51    0.58
   3   4  -6    0.53    0.53
   3   4  -6    0.05    0.47
   2  -4  -6    0.96    0.62
   2  -4  -6    2.99    0.68
  -2  -4   6    2.96    0.89
  -2  -4   6    3.23    0.86
   2  -4  -6    3.06    0.66
  -2   4   6    4.53    1.10
   2   4  -6    3.18    0.90
   2   4  -6    2.90    0.84
   2   4  -6    3.20    0.48
   1  -4  -6    1.40    0.67
  -1  -4   6    1.33    0.78
   1  -4  -6    1.56    0.66
   1  -4  -6    0.88    0.62
  -1   4   6    1.38    0.85
   1   4  -6    2.12    0.91
   1   4  -6    0.65    0.59
   1   4  -6    1.88    0.67
   0  -4   6   13.89    1.63
   0  -4   6   10.55    1.67
   0  -4  -6   12.12    1.51
   0  -4  -6   11.92    1.63
   0   4  -6   10.03    1.25
   0   4   6   12.15    1.34
   0   4   6   15.18    1.93
   0   4  -6   13.49    1.80
   1  -4   6    4.15    0.95
  -1  -4  -6    2.71    0.89
   1  -4   6    1.19    0.97
  -1  -4  -6    4.63    1.09
  -1   4  -6    4.83    1.10
  -1   4  -6    3.67    1.12
   1   4   6    3.05    0.91
   1   4   6    3.13    1.08
   2  -4   6    2.24    0.87
   2  -4   6    1.38    0.87
  -2  -4  -6    3.04    1.04
   2   4   6    2.56    0.81
   2   4   6    3.86    1.25
  -2   4  -6    3.97    1.17
  -3  -4  -6    6.68    1.44
   3  -4   6    6.21    1.14
   3  -4   6    5.31    1.37
   3   4   6    7.21    1.58
  -3   4  -6    6.68    1.54
   3   4   6    5.42    1.06
   4  -4   6    4.92    1.39
   4  -4   6    4.32    0.79
   4   4   6    6.58    1.67
   4   4   6    5.15    0.75
   4   4   6    3.88    0.71
   5  -4   6    1.48    1.15
   5   4   6    1.35    1.21
   6  -5  -6    0.21    0.48
   6   5  -6   -0.18    0.39
   6   5  -6    0.45    0.90
  -5  -5   6    0.33    0.72
   5  -5  -6    0.47    0.56
   5  -5  -6    2.75    0.65
   5   5  -6    0.73    0.84
   5   5  -6    1.05    0.61
   5   5  -6    0.72    0.52
   4  -5  -6   -0.20    0.47
   4  -5  -6    0.35    0.42
  -4  -5   6    0.34    0.63
   4   5  -6   -0.45    0.46
   4   5  -6    0.23    0.46
   4   5  -6   -0.46    0.71
   3  -5  -6   -0.11    0.40
  -3  -5   6    1.24    0.60
   3  -5  -6    0.42    0.52
   3   5  -6   -0.20    0.55
   3   5  -6   -0.15    0.44
   3   5  -6   -0.11    0.51
   2  -5  -6    0.32    0.34
   2  -5  -6   -0.03    0.49
  -2  -5   6   -0.41    0.50
  -2  -5   6    0.69    0.74
   2  -5  -6   -0.39    0.41
   2   5  -6   -0.25    0.58
   2   5  -6   -0.47    0.46
   2   5  -6    0.16    0.23
  -2   5   6    0.15    0.72
  -1  -5   6    0.25    0.66
  -1  -5   6    1.04    0.68
   1  -5  -6    0.36    0.58
   1  -5  -6    0.20    0.78
   1   5  -6    0.60    0.63
   1   5  -6    2.16    0.83
  -1   5   6    2.17    0.94
   0  -5  -6    0.50    0.60
   0  -5  -6    0.12    0.68
   0  -5   6   -0.02    0.50
   0  -5   6   -0.07    0.71
   0   5  -6    0.26    0.57
   0   5   6    0.58    0.74
   0   5  -6    0.83    0.70
   0   5   6    0.60    0.58
  -1  -5  -6    0.89    0.72
   1  -5   6    1.57    0.95
   1  -5   6   -0.04    0.51
   1   5   6    1.19    0.66
  -1   5  -6    0.71    0.70
   1   5   6    2.48    1.04
  -1   5  -6    0.52    0.57
   2  -5   6    0.94    0.76
  -2  -5  -6   -0.26    0.55
   2  -5   6    0.08    0.67
   2   5   6   -0.94    0.49
   2   5   6    0.91    0.83
  -2   5  -6    0.16    0.69
   3  -5   6   -0.01    0.54
  -3  -5  -6   -0.35    0.66
   3  -5   6   -0.51    0.63
  -3   5  -6    0.58    0.84
   3   5   6    0.36    0.72
   3   5   6   -0.26    0.45
   4  -5   6    1.10    0.50
   4  -5   6    1.72    0.89
   4   5   6    0.61    0.45
   4   5   6    1.02    0.51
   4   5   6    2.10    0.96
   6  -6  -6    0.40    0.40
   6   6  -6    0.59    0.92
   6   6  -6   -0.32    0.48
   5  -6  -6   -0.10    0.43
   5  -6  -6    0.34    0.44
  -5  -6   6   -0.37    0.66
   5   6  -6    0.16    0.75
   5   6  -6    0.25    0.47
   5   6  -6   -0.24    0.51
   4  -6  -6    0.28    0.51
  -4  -6   6   -0.04    0.58
   4  -6  -6    0.40    0.52
   4   6  -6    0.03    0.58
   4   6  -6    0.86    0.93
   4   6  -6    0.02    0.42
  -3  -6   6    0.33    0.56
   3  -6  -6   -0.06    0.54
   3  -6  -6   -0.58    0.46
   3   6  -6   -0.76    0.41
   3   6  -6   -0.51    0.51
   3   6  -6    0.63    0.64
   2  -6  -6    0.31    0.48
  -2  -6   6   -0.09    0.47
  -2  -6   6   -0.12    0.53
   2  -6  -6    0.32    0.52
   2   6  -6    0.57    0.55
   2   6  -6   -0.29    0.51
   2   6  -6    0.31    0.29
   2   6  -6   -0.11    0.53
  -2   6   6   -0.68    0.49
   1  -6  -6    0.01    0.66
   1  -6  -6    0.26    0.51
  -1  -6   6    0.47    0.63
  -1  -6   6   -0.03    0.63
   1   6  -6    1.45    0.65
   1   6  -6    0.04    0.64
  -1   6   6    0.20    0.48
   0  -6  -6    4.75    1.20
   0  -6  -6    4.14    1.02
   0  -6   6    4.66    1.28
   0   6   6    1.38    0.75
   0   6  -6    4.49    1.06
   0   6  -6    3.59    0.90
   1  -6   6    2.62    0.87
   1  -6   6    1.54    0.90
  -1  -6  -6    2.30    0.88
   1   6   6    1.27    0.73
   1   6   6    0.83    0.91
  -1   6  -6    1.12    0.81
   2  -6   6    2.59    1.08
  -2  -6  -6    4.82    1.21
   2  -6   6    3.22    1.01
  -2   6  -6    1.78    0.97
   2   6   6    3.39    1.01
   2   6   6    3.90    1.21
   3  -6   6    0.95    0.72
  -3  -6  -6    0.25    0.75
   3  -6   6    1.22    0.90
   3   6   6    0.37    0.84
   3   6   6    0.83    0.60
  -3   6  -6   -1.45    0.77
   4  -6   6    0.78    1.15
   4  -6   6    0.87    0.54
   4   6   6    0.67    0.45
   4   6   6   -0.84    0.64
   4   6   6    0.76    0.45
   6  -7  -6   -0.01    0.49
   6   7  -6    0.04    0.53
   6   7  -6    0.84    1.08
   5  -7  -6    1.41    0.71
   5  -7  -6   -0.44    0.50
  -5  -7   6   -0.41    0.63
   5   7  -6    1.48    1.05
   5   7  -6    0.34    0.53
   5   7  -6    0.76    0.64
   4  -7  -6    0.40    0.57
  -4  -7   6   -0.85    0.51
   4  -7  -6   -0.44    0.45
   4   7  -6    1.17    0.89
   4   7  -6   -0.01    0.55
   4   7  -6    0.35    0.60
  -3  -7   6    0.07    0.55
   3  -7  -6   -0.27    0.43
   3  -7  -6   -0.17    0.55
   3   7  -6   -0.39    0.56
   3   7  -6    1.24    0.75
   3   7  -6    0.12    0.54
  -2  -7   6    0.47    0.56
   2  -7  -6    0.31    0.50
  -2  -7   6    1.42    0.86
  -2   7   6    0.33    0.73
   2   7  -6    0.09    0.60
   2   7  -6   -0.06    0.54
   2   7  -6    0.29    0.34
   2   7  -6   -0.09    0.54
  -1  -7   6    0.56    0.65
   1  -7  -6   -0.22    0.42
  -1  -7   6    0.34    0.55
   1  -7  -6   -0.03    0.60
  -1   7   6   -0.04    0.62
   1   7  -6   -0.10    0.64
   1   7  -6    0.28    0.48
   0  -7  -6    0.93    0.72
   0  -7  -6    0.36    0.63
   0  -7   6    1.19    0.86
   0  -7   6    0.59    0.60
   0   7  -6    1.34    0.64
   0   7   6    0.88    0.80
   0   7  -6    0.25    0.76
   1  -7   6   -0.70    0.46
   1  -7   6    1.66    1.01
  -1  -7  -6    0.98    0.68
   1   7   6    0.84    0.67
   1   7   6    0.16    0.67
  -1   7  -6   -0.10    0.72
   2  -7   6    1.76    1.08
   2  -7   6    0.29    0.83
  -2  -7  -6    0.51    0.66
   2   7   6   -0.63    0.83
   2   7   6   -0.06    0.58
  -2   7  -6    0.73    0.79
  -3  -7  -6    0.12    0.59
   3  -7   6    0.63    1.06
   3  -7   6    1.60    0.81
  -3   7  -6   -0.16    0.70
   3   7   6   -0.04    0.71
   3   7   6    0.55    0.64
   4  -7   6    0.45    0.56
   4  -7   6   -0.78    0.87
   4   7   6    0.40    0.89
   4   7   6   -0.48    0.31
   4   7   6    0.16    0.40
   6  -8  -6    0.63    0.58
   6   8  -6   -0.65    1.03
   6   8  -6    0.37    0.49
   5  -8  -6    0.41    0.50
   5  -8  -6    0.59    0.62
  -5  -8   6   -0.36    0.68
   5   8  -6    0.43    0.59
   5   8  -6   -0.14    0.57
   5   8  -6    0.95    1.17
   4  -8  -6    0.72    0.57
   4  -8  -6    0.24    0.45
  -4  -8   6    0.59    0.69
   4   8  -6    0.18    0.66
   4   8  -6    0.14    0.65
   4   8  -6    0.90    0.68
   3  -8  -6    1.56    0.72
  -3  -8   6    1.98    0.81
   3   8  -6    1.74    0.84
   3   8  -6    0.60    0.68
   3   8  -6    2.46    1.03
   2  -8  -6    0.06    0.52
  -2  -8   6   -0.26    0.63
  -2  -8   6    0.07    0.59
  -2   8   6    1.37    0.73
   2   8  -6    0.55    0.70
   2   8  -6    0.80    0.73
   2   8  -6    0.15    0.26
  -1  -8   6    4.34    1.06
  -1  -8   6    0.89    0.95
   1  -8  -6    2.63    0.91
   1   8  -6    3.58    1.06
   1   8  -6    4.65    0.90
  -1   8   6    5.89    1.38
   0  -8  -6   -0.80    0.52
   0  -8  -6    0.22    0.59
   0  -8   6   -0.22    0.65
   0  -8   6    1.42    0.91
   0   8   6   -0.28    0.72
   0   8  -6    0.65    0.54
   0   8  -6    0.27    0.82
  -1  -8  -6    3.16    1.03
   1  -8   6    3.45    1.10
   1   8   6    3.93    1.34
  -1   8  -6    3.48    1.03
   1   8   6    3.79    0.98
   2  -8   6    3.33    1.03
  -2  -8  -6    3.33    1.06
   2  -8   6    3.38    1.27
  -2   8  -6    2.36    1.02
   2   8   6    3.52    0.97
   2   8   6    3.34    1.09
  -3  -8  -6    0.92    0.96
   3  -8   6    0.16    0.59
   3  -8   6    0.96    1.05
  -3   8  -6   -0.64    0.79
   3   8   6   -0.39    0.72
   3   8   6   -0.57    0.58
   4  -8   6    1.72    1.13
   4  -8   6    1.36    0.60
   4   8   6    2.31    1.12
   4   8   6    1.98    0.57
   4   8   6    2.07    0.56
   6  -9  -6    0.82    0.69
   6   9  -6    2.18    1.33
   6   9  -6    0.03    0.57
   5  -9  -6    0.23    0.54
  -5  -9   6    0.87    0.89
   5  -9  -6   -0.08    0.54
   5   9  -6    0.62    0.62
   5   9  -6    0.44    1.05
   5   9  -6   -0.18    0.52
  -4  -9   6    0.12    0.65
   4  -9  -6   -0.36    0.48
   4   9  -6    0.24    0.59
   4   9  -6   -1.12    0.62
   4   9  -6    0.38    0.58
   3  -9  -6    0.00    0.56
  -3  -9   6    0.05    0.67
   3   9  -6    0.20    0.79
   3   9  -6   -0.85    0.60
  -2  -9   6    0.51    0.65
   2  -9  -6   -0.35    0.62
  -2  -9   6    0.52    0.93
  -2   9   6   -0.61    0.67
   2   9  -6    0.43    0.70
   2   9  -6    0.49    0.30
   2   9  -6    0.76    0.64
  -1  -9   6   -0.17    0.74
   1  -9  -6   -0.05    0.55
  -1  -9   6   -0.44    0.54
   1   9  -6    0.38    0.49
   1   9  -6   -0.12    0.60
  -1   9   6    1.62    0.82
   0  -9  -6   -0.60    0.61
   0  -9   6   -0.03    0.53
   0  -9  -6    1.29    0.75
   0  -9   6    0.12    0.74
   0   9  -6    0.13    0.58
   0   9   6    1.22    0.80
   0   9  -6   -0.58    0.49
   1  -9   6    2.81    1.26
  -1  -9  -6    2.72    1.07
  -1   9  -6    4.04    1.24
   1   9   6    3.12    1.10
   2  -9   6    1.25    0.74
   2  -9   6    0.51    0.98
  -2  -9  -6    0.67    0.67
   2   9   6   -0.22    0.51
   2   9   6    0.57    0.80
  -2   9  -6    0.25    0.73
   3  -9   6   -0.21    0.88
  -3  -9  -6   -0.35    0.77
   3  -9   6    0.55    0.75
   3   9   6   -0.74    0.82
   3   9   6   -0.51    0.59
  -3   9  -6   -1.29    0.82
   4  -9   6    1.04    0.58
   4  -9   6    1.45    1.43
   4   9   6    0.20    0.38
   4   9   6    1.67    1.09
   4   9   6    0.54    0.43
   6 -10  -6    0.32    0.56
   6  10  -6    0.37    0.61
   6  10  -6    0.18    1.15
  -5 -10   6    1.18    0.99
   5 -10  -6   -0.22    0.51
   5  10  -6   -0.19    0.62
   5  10  -6    0.33    0.61
   5  10  -6   -0.66    0.90
   4 -10  -6   -0.29    0.57
  -4 -10   6   -0.42    0.66
   4  10  -6    1.05    0.91
   4  10  -6    1.64    0.94
  -3 -10   6    0.69    0.72
   3 -10  -6   -0.37    0.57
   3  10  -6    0.10    0.61
   3  10  -6    0.76    0.85
   2 -10  -6    0.24    0.63
  -2 -10   6    0.63    0.63
  -2 -10   6    0.48    1.02
   2  10  -6    0.79    0.71
   2  10  -6    1.55    0.88
   2  10  -6    0.43    0.31
  -2  10   6   -0.19    0.60
  -1 -10   6    1.42    0.96
   1 -10  -6   -0.25    0.60
  -1 -10   6    1.30    0.69
  -1  10   6    1.25    0.81
   1  10  -6    0.37    0.53
   1  10  -6    0.25    0.81
   0 -10   6    1.16    0.86
   0 -10  -6    0.89    0.77
   0 -10   6    0.84    0.74
   0 -10  -6    0.38    0.66
   0  10  -6    0.83    0.90
   0  10  -6    0.78    0.63
   0  10   6    2.29    0.89
  -1 -10  -6   -0.60    0.75
   1 -10   6   -0.19    0.85
   1  10   6    1.93    0.97
  -1  10  -6    1.89    0.97
  -2 -10  -6    3.13    1.17
   2 -10   6    1.87    0.87
   2 -10   6    2.50    1.13
   2  10   6    2.16    1.17
  -2  10  -6    0.92    0.99
   2  10   6    2.04    0.82
   3 -10   6    0.89    0.74
  -3 -10  -6    0.46    0.95
   3 -10   6    1.00    1.18
   3  10   6    0.89    0.71
  -3  10  -6   -0.73    0.93
   3  10   6   -0.11    0.78
   4 -10   6    1.23    0.64
   4 -10   6    0.80    1.08
   4  10   6    1.97    1.25
   4  10   6    1.01    0.50
   4  10   6    1.00    0.45
   6 -11  -6   -0.18    0.48
   6  11  -6    0.37    0.65
  -5 -11   6   -0.20    0.84
   5 -11  -6   -0.58    0.52
   5  11  -6    0.48    0.89
   5  11  -6   -0.13    0.70
   4 -11  -6   -0.01    0.52
  -4 -11   6    0.78    0.91
   4  11  -6    0.12    0.76
   4  11  -6    0.67    0.99
   3 -11  -6   -0.25    0.54
  -3 -11   6   -0.23    0.59
   3  11  -6    0.30    0.69
   3  11  -6   -0.31    0.70
  -2 -11   6    0.64    1.33
   2 -11  -6   -0.17    0.65
  -2 -11   6    0.73    0.71
   2  11  -6   -0.14    0.29
  -2  11   6   -0.24    0.64
   2  11  -6    0.30    0.63
   2  11  -6   -0.71    0.73
  -1 -11   6   -0.61    0.49
  -1 -11   6   -0.50    0.66
   1 -11  -6   -0.30    0.61
   1  11  -6    1.18    0.92
  -1  11   6    0.50    0.71
   1  11  -6    0.10    0.48
   0 -11   6    0.19    0.63
   0 -11  -6    0.08    0.67
   0 -11  -6    0.56    0.69
   0 -11   6    0.05    0.95
   0  11   6   -0.49    0.64
   0  11  -6    0.94    0.82
   0  11  -6   -0.16    0.49
  -1 -11  -6   -0.66    0.54
   1 -11   6    0.38    0.95
  -1  11  -6    0.55    0.80
   1  11   6   -1.16    0.50
   2 -11   6    0.94    1.12
   2 -11   6    1.28    0.84
  -2 -11  -6    0.85    0.85
   2  11   6    1.64    0.99
  -2  11  -6    0.04    0.92
   2  11   6    1.50    0.75
  -3 -11  -6   -0.41    0.75
   3 -11   6   -0.23    0.89
   3 -11   6    0.05    0.55
   3  11   6    0.25    0.49
  -3  11  -6    0.44    0.95
   3  11   6   -0.48    0.68
   3  11   6    0.50    0.68
   4 -11   6    0.41    1.40
   4 -11   6   -0.05    0.48
   4  11   6   -0.16    0.42
   4  11   6    0.10    0.83
   4  11   6    0.30    0.39
   6 -12  -6   -0.26    0.51
  -5 -12   6    0.35    0.90
   5 -12  -6   -0.10    0.58
   5  12  -6    0.44    0.74
   5  12  -6    1.94    1.26
   4 -12  -6   -0.24    0.56
  -4 -12   6    0.75    0.78
   4  12  -6   -0.10    0.76
   4  12  -6    1.70    1.01
  -3 -12   6    1.35    0.90
   3 -12  -6    0.98    0.79
   3  12  -6    0.35    0.81
   3  12  -6    0.86    0.79
  -2 -12   6    1.26    0.78
   2 -12  -6    1.24    0.71
  -2  12   6   -0.12    0.74
   2  12  -6   -0.18    0.25
   2  12  -6    0.83    0.86
   2  12  -6    0.36    0.68
  -1 -12   6    1.27    1.14
  -1 -12   6    1.32    0.79
   1 -12  -6    1.53    0.85
   1  12  -6    1.43    0.67
   1  12  -6   -0.47    0.93
  -1  12   6   -0.12    0.75
   0 -12   6    0.06    0.59
   0 -12  -6   -0.32    0.67
   0 -12   6    2.63    1.26
   0  12  -6    0.52    0.79
   0  12  -6   -0.24    0.57
   0  12   6   -0.29    0.90
   1 -12   6    0.82    0.96
   1 -12   6    0.82    0.72
  -1 -12  -6    2.15    1.02
   1  12   6    3.15    1.19
  -1  12  -6    2.23    1.12
   2 -12   6   -0.17    0.90
  -2 -12  -6    1.49    1.08
  -2  12  -6   -0.15    0.83
   2  12   6    0.99    0.99
   2  12   6    0.71    0.76
   3 -12   6    0.65    1.26
   3 -12   6    0.20    0.74
   3  12   6   -0.63    0.55
   3  12   6   -0.32    0.70
  -3  12  -6    0.98    1.07
   3  12   6    0.38    0.60
   4 -12   6    2.05    1.81
   4 -12   6    0.57    0.60
   4  12   6    0.28    0.42
   4  12   6    0.69    0.45
   4  12   6    1.17    1.19
   5 -13  -6    0.28    0.70
  -5 -13   6   -0.64    0.89
   5  13  -6    0.95    0.90
   5  13  -6   -0.23    0.86
   4 -13  -6   -1.10    0.52
  -4 -13   6    2.15    0.88
   4  13  -6   -0.17    0.77
   4  13  -6    1.39    0.97
   3 -13  -6    0.84    0.71
  -3 -13   6    0.09    0.74
   3  13  -6    0.44    0.73
   3  13  -6    0.70    0.75
   2 -13  -6   -0.03    0.66
  -2 -13   6    0.53    0.76
   2  13  -6    0.67    0.81
  -2  13   6   -0.29    0.80
   2  13  -6   -1.09    0.67
   2  13  -6    0.02    0.28
   1 -13  -6    0.27    0.78
  -1 -13   6    0.45    0.69
  -1 -13   6    0.37    1.11
   1  13  -6   -0.16    0.49
  -1  13   6    0.26    0.78
   1  13  -6   -0.53    0.69
   0 -13   6   -0.62    0.52
   0 -13  -6   -1.11    0.51
   0 -13   6    0.40    1.21
   0  13   6   -0.09    0.78
   0  13  -6    0.40    0.56
   0  13  -6    0.54    1.16
   1 -13   6    0.22    1.10
   1 -13   6    0.37    0.83
  -1 -13  -6   -0.80    0.74
   1  13   6    0.86    1.01
  -1  13  -6    0.28    0.86
  -2 -13  -6    0.24    0.89
   2 -13   6    2.45    1.58
  -2  13  -6    0.25    1.14
   2  13   6    0.36    0.73
   2  13   6    0.00    0.78
   3 -13   6    0.50    0.75
   3 -13   6    1.14    1.69
   3  13   6    0.01    0.63
  -3  13  -6   -0.38    1.21
   3  13   6    0.11    0.81
   3  13   6   -0.26    0.68
   4 -13   6    0.08    1.33
   4  13   6    0.37    0.48
   4  13   6   -0.29    0.43
   5 -14  -6   -0.46    0.62
   5 -14  -6    0.97    0.81
   5  14  -6    0.04    0.97
   5  14  -6    0.66    1.17
   4 -14  -6   -0.39    0.68
  -4 -14   6    0.43    0.87
   4  14  -6    0.64    0.74
   4  14  -6    0.01    0.80
  -3 -14   6    1.13    1.03
   3 -14  -6    0.64    0.77
   3  14  -6    1.34    0.97
   3  14  -6    0.57    0.86
   2 -14  -6    1.83    0.90
  -2 -14   6    1.85    0.90
   2  14  -6    1.88    0.96
   2  14  -6    1.06    0.43
   2  14  -6    0.67    1.05
   1 -14  -6    1.04    0.82
  -1 -14   6    2.36    1.13
  -1 -14   6    0.83    0.75
   1  14  -6   -0.01    0.47
   1  14  -6    1.57    0.93
  -1  14   6    0.84    0.81
   0 -14   6    0.22    0.74
   0 -14   6    1.52    1.21
   0 -14  -6    1.93    1.11
   0  14  -6    0.14    0.94
   0  14   6    0.11    0.87
   1 -14   6    1.08    0.81
   1 -14   6    1.16    1.44
  -1 -14  -6    0.73    0.77
  -1  14  -6    1.27    1.41
   1  14   6    0.63    0.92
  -2 -14  -6    1.71    1.25
   2 -14   6   -0.59    1.33
   2  14   6    0.76    0.89
  -2  14  -6    0.51    1.38
   3 -14   6    0.40    0.71
   3 -14   6    0.66    1.23
   3  14   6    0.70    0.70
   3  14   6    1.76    1.11
   3  14   6    1.35    0.87
   5 -15  -6   -0.32    0.71
   5 -15  -6   -0.55    0.64
   5  15  -6    0.94    1.02
   4 -15  -6   -0.09    0.65
  -4 -15   6   -0.98    0.86
   4  15  -6    1.66    0.98
   4  15  -6   -0.45    0.86
   3 -15  -6   -0.21    0.66
  -3 -15   6    0.23    0.74
   3  15  -6   -0.47    0.85
   3  15  -6    0.69    0.82
  -2 -15   6   -0.54    0.68
   2 -15  -6    1.27    0.78
   2  15  -6    0.07    0.41
   2  15  -6    0.71    0.44
   2  15  -6   -0.44    0.60
   2  15  -6   -0.53    0.71
  -1 -15   6    0.04    0.71
  -1 -15   6   -0.19    1.12
   1 -15  -6   -0.32    0.55
   1  15  -6    0.12    0.50
   1  15  -6   -1.40    0.74
  -1  15   6    0.37    0.98
   0 -15  -6   -0.57    0.66
   0 -15   6    1.08    1.28
   0 -15   6    0.28    0.71
   0  15   6   -0.54    0.72
   0  15  -6    0.69    0.92
  -1 -15  -6    0.37    0.78
   1 -15   6    0.28    0.82
   1 -15   6    0.47    1.39
   1  15   6   -0.62    0.90
  -1  15  -6   -1.67    0.92
  -2 -15  -6   -0.63    0.88
   2 -15   6    2.87    1.62
   2  15   6   -0.88    0.93
  -2  15  -6   -1.22    0.98
   3 -15   6   -0.36    0.81
   3 -15   6   -0.31    1.15
   3  15   6    0.47    1.00
   3  15   6   -0.30    0.58
   3  15   6    0.49    0.74
   5 -16  -6   -0.78    0.68
   4 -16  -6    1.20    0.92
   4 -16  -6   -0.33    0.74
   4  16  -6    0.17    1.00
   4  16  -6    0.86    0.94
   3 -16  -6    0.59    0.63
  -3 -16   6    0.13    0.78
   3  16  -6    0.34    0.78
   3  16  -6   -0.07    0.90
   2 -16  -6   -0.44    0.90
  -2 -16   6   -0.33    0.75
   2  16  -6   -0.17    0.36
   2  16  -6    0.12    0.89
   2  16  -6    0.17    0.47
   2  16  -6   -0.43    0.98
  -1 -16   6    0.59    0.82
   1 -16  -6   -1.10    0.80
  -1 -16   6   -0.64    1.12
   1  16  -6   -0.14    0.72
   1  16  -6   -0.72    0.93
  -1  16   6    0.07    1.04
   0 -16  -6    1.77    0.90
   0 -16   6   -0.37    1.09
   0 -16   6    0.01    0.79
   0  16  -6    0.04    0.94
   0  16   6    0.28    0.88
  -1 -16  -6    0.97    1.08
   1 -16   6   -0.95    0.75
   1 -16   6   -0.20    1.16
   1  16   6    0.86    1.02
  -1  16  -6    0.66    1.00
  -2 -16  -6   -0.31    0.99
   2 -16   6   -1.09    1.19
  -2  16  -6    0.09    1.00
   2  16   6   -0.71    0.91
   3 -16   6    0.22    0.83
   3 -16   6    0.52    1.57
   3  16   6    0.43    0.59
   3  16   6   -0.58    0.85
   3  16   6   -0.60    0.72
   5 -17  -6   -0.06    0.73
   4 -17  -6    1.01    0.92
   4 -17  -6   -1.32    0.57
   4  17  -6    0.14    1.00
   4  17  -6   -0.55    0.93
   3 -17  -6    0.51    0.89
   3  17  -6    3.18    1.27
   3  17  -6    2.25    1.04
  -2 -17   6    0.34    0.97
   2 -17  -6   -0.79    0.88
   2  17  -6    0.73    0.83
   2  17  -6   -0.03    0.44
   2  17  -6    0.73    0.98
   2  17  -6    0.29    0.40
  -1 -17   6    1.99    1.65
  -1 -17   6    0.69    0.93
   1 -17  -6   -1.71    0.80
   1  17  -6    0.44    0.69
   1  17  -6    1.55    1.09
  -1  17   6    1.40    1.30
   0 -17   6    0.00    1.30
   0 -17  -6    0.16    0.81
   0 -17   6   -0.32    0.72
   0  17  -6   -0.27    1.06
   0  17   6   -0.36    0.85
   1 -17   6    0.90    1.56
  -1 -17  -6    2.43    1.38
   1 -17   6    0.08    0.80
  -1  17  -6    0.68    1.22
   1  17   6   -0.05    0.96
  -2 -17  -6   -1.62    0.71
   2 -17   6   -0.85    1.47
   2  17   6   -1.48    0.86
  -2  17  -6   -0.26    1.19
   3 -17   6    0.67    1.75
   3 -17   6    2.69    1.15
   3  17   6   -0.15    1.02
   3  17   6    0.28    0.84
   3  17   6   -0.43    0.66
   3 -18  -6   -0.68    0.89
   3  18  -6    0.89    0.89
   3  18  -6    0.13    1.10
  -2 -18   6    0.84    0.99
   2 -18  -6    0.81    1.08
   2  18  -6    0.40    0.46
   2  18  -6    0.53    0.49
   2  18  -6    0.38    0.83
   2  18  -6    1.72    1.41
  -1 -18   6   -0.44    1.37
  -1 -18   6    0.14    0.91
   1 -18  -6   -0.15    0.93
  -1  18   6   -1.07    1.05
   1  18  -6   -0.21    0.57
   1  18  -6   -0.30    1.13
   0 -18   6   -0.21    0.64
   0 -18  -6   -0.12    1.01
   0 -18   6    0.01    1.33
   0  18   6   -1.51    0.85
   0  18  -6   -0.65    0.91
   1 -18   6   -2.34    1.09
  -1 -18  -6    0.74    1.00
   1 -18   6    1.71    1.04
  -1  18  -6    0.88    1.23
   1  18   6    1.21    0.99
  -2 -18  -6    0.95    1.10
   2 -18   6    0.28    1.47
  -2  18  -6   -0.81    1.04
   2  18   6    1.26    1.33
   3  18   6    0.22    0.74
   3  18   6   -0.19    0.67
   3 -19  -6   -0.36    0.85
   3  19  -6    0.19    1.14
   3  19  -6    0.18    0.85
   2 -19  -6    0.06    0.92
   2  19  -6   -1.22    0.93
   2  19  -6    1.51    1.09
   2  19  -6    0.92    0.49
   2  19  -6    0.52    0.44
   1 -19  -6   -0.16    0.77
  -1 -19   6   -0.69    0.75
  -1  19   6    0.41    1.06
   1  19  -6    2.11    1.13
   1  19  -6   -0.57    0.72
   1  19  -6    0.46    0.83
   0 -19   6    0.51    1.00
   0 -19  -6   -1.08    1.00
   0 -19   6   -2.54    1.50
   0  19  -6   -0.65    1.33
   0  19   6   -0.85    0.95
  -1 -19  -6    1.00    0.92
   1 -19   6   -0.29    0.93
   1 -19   6   -0.69    1.55
  -1  19  -6    2.03    1.24
   1  19   6    0.14    0.93
   2 -19   6    1.59    1.83
  -2 -19  -6    0.47    1.21
  -2  19  -6    0.42    1.20
   2  19   6    0.11    1.41
   3  19   6    0.85    0.82
   3  19   6   -0.59    0.67
   2 -20  -6    0.43    1.06
   2  20  -6    0.07    0.47
   2  20  -6    0.46    0.92
   2  20  -6   -0.83    1.43
   2  20  -6   -0.68    0.31
   1 -20  -6    0.91    1.13
  -1  20   6    0.71    1.13
   1  20  -6    0.38    0.90
   1  20  -6   -0.43    1.30
   1  20  -6   -0.69    0.69
   0 -20  -6   -0.43    1.09
   0 -20   6    0.88    1.68
   0  20  -6    0.95    1.16
   0  20   6   -1.57    1.03
   1 -20   6    2.49    2.32
  -1 -20  -6   -1.00    0.93
   1  20   6   -1.33    0.85
  -1  20  -6    0.76    1.59
   2 -20   6    4.31    2.37
   2  20   6    1.10    1.44
  -2  20  -6    1.40    1.54
   3  20   6    0.38    0.71
   3  20   6    0.09    0.67
   2  21  -6    0.05    0.58
   2  21  -6   -0.57    0.45
   1 -21  -6    0.23    1.12
   1  21  -6   -0.46    1.34
   1  21  -6    0.87    0.78
   1  21  -6    0.50    0.96
   0 -21   6   -1.45    1.49
   0 -21  -6   -0.81    0.92
   0  21   6   -0.03    1.05
   0  21  -6   -0.69    1.58
   1 -21   6    1.37    2.24
  -1 -21  -6   -0.77    1.30
   1  21   6   -0.79    1.35
  -1  21  -6    2.39    1.79
  -2  21  -6    3.98    1.83
   1 -22  -6    3.02    1.53
   1  22  -6    0.07    0.81
   0 -22   6    1.42    2.00
   0 -22  -6   -1.19    1.11
   0  22   6   -0.18    1.27
   0  22  -6   -0.51    1.31
  -1 -22  -6   -2.03    1.18
   1 -22   6   -1.29    1.83
   1  22   6   -1.66    1.14
  -1  22  -6   -0.08    1.48
  -2  22  -6   -0.95    1.81
   0 -23   6    0.44    2.19
   0  23   6   -0.15    1.19
   1 -23   6    3.06    2.21
  -1 -23  -6   -1.84    1.41
   1  24  -6    1.02    0.76
   0  24   6   -0.45    1.15
   6   0  -7   -0.18    0.54
   5   0  -7   -0.32    0.51
   5   0  -7    0.30    0.58
   4   0  -7   -0.16    0.57
   4   0  -7    0.25    0.55
   3   0  -7    0.37    0.67
   3   0  -7    0.19    0.56
   2   0  -7    0.58    0.67
   2   0  -7   -0.05    0.59
  -2   0   7    1.24    0.96
   1   0  -7   -0.60    0.45
  -1   0   7    0.17    0.79
   1   0  -7   -0.37    0.51
   0   0  -7   -0.12    0.52
   0   0  -7   -0.37    0.49
   0   0   7    1.02    0.86
   1   0   7   -0.08    0.92
  -1   0  -7   -0.48    0.55
  -2   0  -7   -0.63    0.72
   2   0   7   -0.25    0.60
   2   0   7    1.17    0.84
  -3   0  -7    0.23    0.96
   3   0   7    0.12    0.67
   3   0   7    0.46    0.83
   4   0   7   -0.08    0.83
   4   0   7    0.19    0.59
   6  -1  -7    0.24    0.50
   6   1  -7    0.62    0.63
   5  -1  -7   -0.32    0.61
   5  -1  -7    0.62    0.57
   5   1  -7    0.07    0.56
   5   1  -7   -1.04    0.47
   4  -1  -7    1.22    0.69
   4  -1  -7    0.09    0.55
   4   1  -7    0.05    0.53
   4   1  -7    0.01    0.59
   3  -1  -7   -0.16    0.54
   3   1  -7    0.60    0.68
   3   1  -7   -0.49    0.50
   2  -1  -7   -0.07    0.54
   2  -1  -7    0.62    0.64
  -2  -1   7   -0.02    0.76
  -2   1   7   -0.05    0.82
   2   1  -7    0.21    0.58
   1  -1  -7    0.37    0.70
  -1  -1   7    0.62    0.80
   1  -1  -7    1.01    0.70
  -1   1   7    0.33    0.73
   1   1  -7    0.38    0.73
   1   1  -7    0.00    0.47
   0  -1   7    0.74    0.92
   0  -1  -7    0.58    0.78
   0  -1  -7    0.53    0.59
   0   1  -7    0.43    0.80
   0   1  -7    1.68    0.81
   0   1   7    2.00    0.96
  -1  -1  -7   -0.88    0.50
   1  -1   7   -1.07    0.56
  -1   1  -7    0.66    0.74
   1   1   7    0.24    0.88
   2  -1   7   -0.03    0.65
  -2  -1  -7    0.53    0.82
   2  -1   7    0.12    0.87
   2   1   7   -0.02    0.86
  -2   1  -7   -0.61    0.71
   2   1   7   -0.40    0.56
   3  -1   7   -0.52    0.85
  -3  -1  -7   -0.58    0.79
   3  -1   7    0.21    0.68
   3   1   7   -0.11    0.85
  -3   1  -7   -0.76    0.78
   3   1   7   -0.83    0.50
   4  -1   7   -0.17    0.44
   4  -1   7    0.08    0.96
   4   1   7    0.17    0.52
   4   1   7    0.43    0.92
   6  -2  -7   -0.29    0.48
   6   2  -7    0.09    0.54
   5  -2  -7    0.09    0.51
   5  -2  -7    0.45    0.59
   5   2  -7   -0.29    0.55
   5   2  -7   -0.46    0.60
   4  -2  -7    0.75    0.60
   4   2  -7    0.39    0.60
   4   2  -7    0.82    0.61
   3  -2  -7    1.07    0.67
   3   2  -7    0.41    0.71
   3   2  -7    0.38    0.63
   2  -2  -7    0.63    0.71
  -2  -2   7    0.36    0.66
   2  -2  -7   -0.23    0.56
  -2   2   7   -0.33    0.62
   2   2  -7    1.04    0.72
  -1  -2   7   -0.18    0.70
   1  -2  -7    2.47    0.85
   1  -2  -7   -0.73    0.56
   1   2  -7    0.39    0.50
  -1   2   7    0.16    0.69
   1   2  -7    1.24    0.84
   0  -2  -7    0.72    0.75
   0  -2  -7    2.08    0.77
   0  -2   7    3.65    1.32
   0   2   7    1.32    0.86
   0   2  -7    0.84    0.86
   0   2  -7    1.82    0.73
   1  -2   7    3.33    1.13
  -1  -2  -7    3.28    1.05
  -1   2  -7    3.34    1.18
   1   2   7    1.51    0.97
  -2  -2  -7    0.80    1.01
   2  -2   7    0.56    0.82
   2  -2   7    1.59    1.01
   2   2   7    0.11    0.73
   2   2   7    1.64    1.16
  -2   2  -7    1.62    0.89
   3  -2   7    2.62    1.21
   3  -2   7    0.84    0.81
  -3  -2  -7    1.81    0.99
   3   2   7    2.16    1.14
  -3   2  -7    1.86    1.20
   3   2   7    1.55    0.73
   4  -2   7    0.40    0.53
   4  -2   7   -1.29    0.67
   4   2   7    1.75    1.13
   4   2   7   -0.05    0.46
   6  -3  -7    0.13    0.53
   6   3  -7    1.11    0.65
   5  -3  -7   -0.41    0.47
   5  -3  -7    0.05    0.51
   5   3  -7    0.11    0.60
   5   3  -7   -0.10    0.58
   4  -3  -7    0.19    0.56
  -4  -3   7   -0.21    0.59
   4   3  -7    0.69    0.82
   4   3  -7   -0.24    0.51
   3  -3  -7    0.19    0.56
   3   3  -7    0.47    0.66
   3   3  -7   -0.02    0.60
   2  -3  -7   -0.71    0.46
  -2  -3   7    1.51    0.90
   2   3  -7    0.41    0.37
   2   3  -7   -0.01    0.56
  -2   3   7   -0.18    0.72
  -1  -3   7   -0.26    0.74
   1  -3  -7   -1.01    0.54
   1  -3  -7   -0.36    0.50
   1   3  -7   -0.36    0.66
  -1   3   7   -0.50    0.67
   1   3  -7   -0.01    0.42
   0  -3  -7   -0.50    0.54
   0  -3   7   -0.55    0.85
   0  -3  -7    0.83    0.65
   0   3  -7   -0.29    0.71
   0   3   7   -0.35    0.66
   0   3  -7   -1.07    0.39
  -1  -3  -7    0.21    0.75
   1  -3   7    0.56    0.69
  -1   3  -7    0.36    0.69
   1   3   7   -0.14    0.69
  -2  -3  -7    0.49    0.89
   2  -3   7    0.36    1.03
   2   3   7    1.57    0.95
   2   3   7    1.66    0.84
  -2   3  -7    1.62    0.92
   3  -3   7   -0.30    0.68
   3  -3   7    0.89    1.00
  -3  -3  -7   -1.02    0.85
   3   3   7   -0.42    0.54
   3   3   7    0.16    0.77
  -3   3  -7    0.43    0.80
   4  -3   7    1.29    1.17
   4  -3   7   -0.27    0.46
   4   3   7    0.77    1.05
   4   3   7    0.69    0.65
   6  -4  -7   -0.04    0.63
   6   4  -7   -0.50    0.56
   5  -4  -7    0.46    0.63
   5   4  -7   -0.03    0.50
   5   4  -7    1.40    0.61
  -4  -4   7   -0.68    0.64
   4  -4  -7   -0.30    0.43
   4   4  -7    0.15    0.56
   4   4  -7   -0.22    0.80
   3  -4  -7   -0.26    0.60
  -3  -4   7   -0.55    0.62
   3   4  -7    0.18    0.65
   3   4  -7    0.09    0.69
   2  -4  -7    0.26    0.62
   2   4  -7   -0.43    0.29
   2   4  -7   -0.04    0.55
  -2   4   7    0.74    0.69
   1  -4  -7    0.40    0.78
   1  -4  -7    0.60    0.62
  -1  -4   7    1.24    1.02
   1   4  -7    0.30    0.66
  -1   4   7    0.65    0.84
   1   4  -7    0.92    0.67
   0  -4  -7   -0.01    0.67
   0  -4   7    0.31    0.88
   0  -4  -7   -0.02    0.62
   0   4  -7    0.49    0.93
   0   4  -7    1.99    0.79
   0   4   7    0.28    0.79
   1  -4   7   -0.95    0.50
  -1  -4  -7    0.15    0.69
  -1   4  -7    0.81    0.89
   1   4   7    0.73    0.83
   2  -4   7    0.89    0.92
  -2  -4  -7    0.09    0.91
  -2   4  -7    0.70    0.84
   2   4   7    1.06    0.76
   2   4   7    2.23    1.25
  -3  -4  -7    0.31    0.89
   3  -4   7    0.74    0.83
   3  -4   7    1.22    0.77
  -3   4  -7    4.11    1.40
   3   4   7    0.37    0.70
   3   4   7    2.42    1.20
   4  -4   7   -0.61    1.03
   4  -4   7    0.61    0.64
   4   4   7    0.47    0.97
   4   4   7    0.00    0.50
   6  -5  -7    0.46    0.59
   6   5  -7    0.55    0.63
   5  -5  -7    0.44    0.63
   5   5  -7   -0.27    0.59
   5   5  -7   -0.05    0.52
  -4  -5   7   -0.56    0.67
   4  -5  -7    0.53    0.68
   4   5  -7    0.95    0.75
   4   5  -7   -0.64    0.69
   3  -5  -7   -0.08    0.55
  -3  -5   7    0.29    0.72
   3   5  -7    0.12    0.67
   3   5  -7    0.54    0.76
   2  -5  -7    0.42    0.65
  -2  -5   7   -0.24    0.57
   2   5  -7    0.06    0.30
   2   5  -7   -0.35    0.66
  -2   5   7   -0.07    0.56
   1  -5  -7   -0.62    0.60
  -1  -5   7    0.99    0.78
   1  -5  -7   -0.49    0.49
   1   5  -7    0.10    0.58
  -1   5   7    0.56    0.78
   1   5  -7    1.04    0.76
   0  -5  -7    1.16    0.79
   0  -5  -7    0.92    0.81
   0  -5   7   -0.33    0.85
   0   5   7    1.73    1.02
   0   5  -7    0.83    0.68
   0   5  -7    0.16    0.70
  -1  -5  -7   -0.26    0.51
   1  -5   7    0.69    0.98
  -1   5  -7    0.21    0.72
   1   5   7    0.20    0.79
   2  -5   7    0.69    0.83
  -2  -5  -7    1.95    0.97
   2   5   7    1.67    1.07
  -2   5  -7    0.93    0.81
   3  -5   7    0.32    1.11
  -3  -5  -7    0.14    0.99
   3  -5   7   -0.39    0.69
  -3   5  -7   -0.72    0.76
   3   5   7    1.11    0.72
   3   5   7    1.22    1.06
   4  -5   7    0.47    0.59
   4  -5   7    1.41    1.02
   4   5   7    0.43    0.53
   4   5   7   -0.17    0.85
   6   6  -7   -0.09    0.64
   5  -6  -7   -0.07    0.61
   5   6  -7    0.31    1.11
   5   6  -7   -0.06    0.59
   4  -6  -7   -0.04    0.56
  -4  -6   7    0.65    0.64
   4   6  -7   -0.71    0.70
   4   6  -7   -0.05    0.68
   3  -6  -7    0.17    0.53
  -3  -6   7    0.34    0.75
   3   6  -7    0.14    0.81
   3   6  -7    0.38    0.77
  -2  -6   7    1.43    0.70
   2  -6  -7    0.40    0.66
  -2   6   7    0.79    0.84
   2   6  -7    0.59    0.86
   2   6  -7    0.49    0.36
   1  -6  -7   -0.28    0.67
   1  -6  -7    0.44    0.79
  -1  -6   7    1.94    1.02
  -1   6   7    1.24    0.98
   1   6  -7    1.03    0.83
   1   6  -7    0.03    0.66
   0  -6  -7    0.54    0.75
   0  -6   7    1.44    0.95
   0  -6  -7   -0.06    0.65
   0   6  -7    0.03    0.54
   0   6   7    0.31    0.79
   0   6  -7   -0.67    0.56
   1  -6   7    3.70    1.30
  -1  -6  -7    0.63    0.80
  -1   6  -7    0.48    0.81
   1   6   7    2.06    1.13
   2  -6   7   -1.33    0.73
  -2  -6  -7   -0.59    0.63
  -2   6  -7    1.19    0.99
   2   6   7   -0.15    0.85
  -3  -6  -7   -0.06    0.85
   3  -6   7    0.56    1.11
   3  -6   7    0.35    0.67
  -3   6  -7   -0.58    1.04
   3   6   7    0.33    0.84
   3   6   7    0.12    0.60
   4  -6   7    0.83    0.70
   4  -6   7    0.69    1.25
   4   6   7    1.32    0.65
   4   6   7   -0.06    0.54
   4   6   7    1.39    1.00
   6   7  -7   -0.31    0.70
   5  -7  -7    0.37    0.56
   5   7  -7    1.22    0.73
   5   7  -7    0.46    1.02
   4  -7  -7    0.49    0.67
  -4  -7   7    0.13    0.65
   4   7  -7   -0.38    0.65
   4   7  -7    0.55    0.84
   3  -7  -7    0.19    0.52
  -3  -7   7   -0.40    0.66
   3   7  -7    0.36    0.88
   3   7  -7   -0.80    0.62
   2  -7  -7   -0.15    0.50
  -2  -7   7    0.88    0.64
   2   7  -7   -0.19    0.29
   2   7  -7    0.66    0.85
  -1  -7   7    0.58    0.71
   1  -7  -7    0.03    0.50
  -1  -7   7   -0.58    0.55
   1  -7  -7   -0.48    0.53
  -1   7   7    0.13    0.85
   1   7  -7   -0.95    0.67
   1   7  -7    0.55    0.58
   0  -7   7    2.48    1.15
   0  -7  -7    3.49    1.11
   0  -7  -7    1.16    0.87
   0   7  -7    0.39    0.61
   0   7   7    1.00    1.09
   0   7  -7    2.86    1.24
   1  -7   7    0.27    0.79
  -1  -7  -7    1.03    0.88
  -1   7  -7    1.05    1.10
   1   7   7    1.28    1.07
   2  -7   7    1.81    1.13
  -2  -7  -7   -0.40    0.63
   2   7   7    0.44    0.93
  -2   7  -7    0.21    0.94
   3  -7   7    0.37    1.11
   3  -7   7    0.68    0.71
   3   7   7    1.14    0.74
  -3   7  -7    0.51    0.99
   3   7   7    1.07    0.89
   4  -7   7    0.94    0.66
   4  -7   7    0.18    1.07
   4   7   7   -0.55    0.55
   4   7   7    0.22    0.57
   5  -8  -7   -0.11    0.66
   5   8  -7   -0.49    0.97
   5   8  -7    0.14    0.81
   4  -8  -7   -0.09    0.51
  -4  -8   7   -0.54    0.77
   4   8  -7    0.91    0.92
   4   8  -7    0.94    0.73
   3  -8  -7   -0.46    0.53
  -3  -8   7    1.78    0.88
   3   8  -7    0.13    0.77
   3   8  -7    5.69    1.35
   2  -8  -7    2.01    0.88
  -2  -8   7    2.39    0.98
   2   8  -7    0.39    0.91
   2   8  -7    0.11    0.33
   2   8  -7    0.98    0.79
  -1  -8   7   -0.75    0.52
   1  -8  -7    0.00    0.60
  -1  -8   7   -0.46    0.83
  -1   8   7    0.36    0.68
   1   8  -7    0.20    0.49
   1   8  -7    1.34    0.95
   0  -8   7   -0.03    0.77
   0  -8  -7    0.33    0.68
   0   8  -7    0.66    0.67
   0   8  -7    0.52    0.79
   0   8   7    0.01    0.79
   1  -8   7    1.57    1.04
  -1  -8  -7    0.42    0.79
   1   8   7   -0.11    0.86
  -1   8  -7    0.41    0.82
   2  -8   7   -0.84    0.81
  -2  -8  -7    0.25    0.89
  -2   8  -7    0.02    0.96
   2   8   7    0.17    1.01
   3  -8   7   -0.04    1.18
   3  -8   7    0.31    0.81
  -3   8  -7    1.03    1.26
   3   8   7    0.24    0.71
   3   8   7    1.26    1.03
   4  -8   7   -0.93    0.56
   4   8   7    0.20    0.64
   4   8   7    0.71    0.69
  -5  -9   7   -0.41    0.86
   5  -9  -7    0.65    0.70
   5   9  -7   -0.14    1.00
   5   9  -7   -0.35    0.64
  -4  -9   7    0.16    0.80
   4  -9  -7    0.32    0.66
   4   9  -7    0.75    0.81
   4   9  -7    0.57    0.99
  -3  -9   7    0.01    0.54
   3  -9  -7    0.54    0.68
   3   9  -7    1.50    0.88
   3   9  -7    0.89    0.86
  -2  -9   7   -0.01    0.60
   2  -9  -7    0.32    0.59
   2   9  -7    0.30    0.35
   2   9  -7    1.59    0.97
   2   9  -7    0.89    0.87
  -1  -9   7    1.61    1.11
  -1  -9   7   -0.25    0.71
   1  -9  -7    0.61    0.64
  -1   9   7   -0.23    0.71
   1   9  -7   -0.26    0.86
   1   9  -7    0.81    0.59
   0  -9   7    0.56    1.00
   0  -9  -7    0.30    0.63
   0   9   7    0.30    0.70
   0   9  -7   -0.02    0.58
   0   9  -7    0.59    0.92
   1  -9   7    1.24    1.27
  -1  -9  -7    0.80    0.79
   1   9   7   -0.26    0.73
  -1   9  -7   -0.69    0.91
   2  -9   7    1.05    1.34
  -2  -9  -7    1.38    1.04
  -2   9  -7    1.21    1.16
   2   9   7    1.10    1.18
   3  -9   7   -1.32    1.13
   3  -9   7    0.50    0.68
   3   9   7   -0.26    0.67
   3   9   7    0.99    0.92
  -3   9  -7   -0.86    1.06
   4  -9   7    0.21    0.69
   4   9   7    0.61    0.61
  -5 -10   7   -0.21    0.92
   5 -10  -7    0.01    0.54
   5  10  -7    0.85    0.95
   5  10  -7   -0.84    1.00
   4 -10  -7   -0.40    0.61
  -4 -10   7   -0.09    0.86
   4  10  -7   -0.22    0.72
   4  10  -7    0.23    0.91
   3 -10  -7    0.03    0.60
  -3 -10   7    1.54    0.84
   3  10  -7    0.92    0.90
   3  10  -7   -0.53    0.83
   2 -10  -7    2.39    0.98
  -2 -10   7    1.39    0.91
   2  10  -7    0.40    0.77
   2  10  -7    1.38    0.44
   2  10  -7    2.77    1.19
  -1 -10   7    0.96    1.16
   1 -10  -7    0.58    0.83
  -1 -10   7    0.73    0.83
   1  10  -7    0.62    0.61
  -1  10   7    1.32    0.97
   1  10  -7    0.22    0.79
   0 -10   7   -0.99    0.72
   0 -10  -7    1.88    1.06
   0  10   7   -0.02    0.99
   0  10  -7   -0.33    0.74
   1 -10   7    5.34    1.78
  -1 -10  -7    5.49    1.37
   1  10   7    4.20    1.35
  -1  10  -7    6.43    1.78
  -2 -10  -7    3.22    1.24
   2 -10   7    1.92    1.37
  -2  10  -7   -0.16    0.79
   2  10   7    0.95    1.14
   3 -10   7    0.07    1.06
   3 -10   7    0.18    0.74
   3  10   7   -0.71    0.86
   3  10   7    0.22    0.72
   4 -10   7    1.44    0.79
   5 -11  -7    0.55    0.73
   5  11  -7    0.90    0.89
   5  11  -7    0.13    1.07
  -4 -11   7    0.53    0.91
   4 -11  -7    0.44    0.62
   4  11  -7    0.51    0.82
   4  11  -7    0.27    0.81
  -3 -11   7    2.39    1.23
   3 -11  -7    0.53    0.71
   3  11  -7    0.78    0.82
   3  11  -7    1.20    1.01
   2 -11  -7    0.35    0.73
  -2 -11   7   -0.22    0.65
   2  11  -7    0.91    0.90
   2  11  -7   -0.71    0.31
   2  11  -7    1.60    0.89
   1 -11  -7    0.56    0.69
  -1 -11   7    1.21    1.36
  -1 -11   7    0.24    0.67
   1  11  -7   -0.54    0.83
   1  11  -7    0.96    0.63
  -1  11   7    1.52    0.97
   0 -11   7   -0.32    0.76
   0 -11   7    0.33    1.15
   0 -11  -7    0.28    0.74
   0  11   7   -0.13    0.76
   0  11  -7    0.66    0.99
   1 -11   7   -0.26    0.97
  -1 -11  -7    1.19    0.88
  -1  11  -7   -0.88    0.86
   1  11   7    0.33    1.11
  -2 -11  -7    2.97    1.08
   2 -11   7    8.09    2.12
  -2  11  -7    1.23    1.14
   2  11   7    0.73    0.99
   3 -11   7   -1.86    1.00
   3 -11   7   -0.18    0.80
   3  11   7   -0.38    0.61
   3  11   7   -0.94    0.93
   5 -12  -7    0.33    0.76
   5  12  -7    1.01    0.93
   5  12  -7    1.13    1.24
   4 -12  -7    0.65    0.64
  -4 -12   7   -0.06    0.89
   4  12  -7   -1.14    0.83
   4  12  -7    1.05    0.99
  -3 -12   7    0.80    1.01
   3 -12  -7    2.22    0.93
   3  12  -7    2.32    1.20
   3  12  -7   -0.01    0.82
   2 -12  -7    0.86    0.94
  -2 -12   7    2.36    0.99
   2  12  -7    2.61    0.54
   2  12  -7    2.69    1.03
   2  12  -7    2.22    1.34
   1 -12  -7    2.26    1.13
  -1 -12   7    1.38    1.00
  -1 -12   7    1.27    1.27
   1  12  -7    1.35    1.12
   1  12  -7    0.43    0.66
  -1  12   7    0.34    0.85
   0 -12   7    4.30    1.30
   0 -12   7    1.14    1.07
   0 -12  -7    3.74    1.22
   0  12  -7    5.03    1.68
   0  12   7    2.67    1.34
   1 -12   7    9.26    2.13
  -1 -12  -7    6.02    1.52
   1  12   7    9.52    1.89
  -1  12  -7    6.48    1.85
  -2 -12  -7    2.31    1.00
   2 -12   7    2.32    1.28
   2  12   7    2.48    1.19
  -2  12  -7    0.39    1.11
   3 -12   7    2.76    1.04
   3 -12   7    4.44    1.93
   3  12   7    0.60    0.73
   3  12   7    1.36    1.45
   5  13  -7    0.55    0.93
   4 -13  -7    0.35    0.72
   4  13  -7   -0.15    0.98
   4  13  -7    0.14    1.05
  -3 -13   7   -0.17    0.88
   3 -13  -7    1.36    0.80
   3  13  -7   -0.59    0.73
   3  13  -7    0.24    0.84
   2 -13  -7   -0.02    0.68
  -2 -13   7   -0.08    0.78
   2  13  -7    1.03    1.01
   2  13  -7    0.83    0.84
   2  13  -7    0.26    0.31
   1 -13  -7    0.36    0.91
  -1 -13   7    0.72    0.87
  -1 -13   7    1.04    1.62
  -1  13   7    0.71    0.99
   1  13  -7    0.18    0.59
   1  13  -7   -1.08    0.96
   0 -13   7   -0.18    1.21
   0 -13  -7    1.26    1.02
   0 -13   7    0.57    0.76
   0  13   7    1.29    1.15
   0  13  -7    0.91    1.05
  -1 -13  -7    0.08    0.90
   1 -13   7    0.57    1.24
  -1  13  -7    0.15    1.04
   1  13   7    1.46    1.00
  -2 -13  -7    0.53    0.97
   2 -13   7   -0.61    1.54
  -2  13  -7    1.46    1.05
   2  13   7    0.98    1.20
   3 -13   7   -0.04    1.43
   3  13   7   -0.57    0.68
   3  13   7   -0.92    0.88
   3  13   7   -0.67    0.79
   4 -14  -7    0.95    0.81
   4  14  -7   -0.82    0.86
   4  14  -7    0.42    1.07
   3 -14  -7    0.26    0.75
  -3 -14   7   -0.53    0.82
   3  14  -7    0.84    0.94
   3  14  -7   -0.94    0.76
  -2 -14   7   -0.52    0.69
   2 -14  -7   -0.16    0.83
   2  14  -7   -0.07    0.36
   2  14  -7   -0.67    0.90
   2  14  -7    0.27    0.86
   1 -14  -7    0.01    0.80
  -1 -14   7    1.23    1.52
  -1 -14   7    0.83    0.92
  -1  14   7    0.02    0.91
   1  14  -7    0.28    0.63
   1  14  -7    0.37    1.00
   0 -14   7   -0.30    0.71
   0 -14  -7    2.48    1.17
   0 -14   7    0.81    1.63
   0  14   7    0.91    0.96
   0  14  -7    0.98    1.52
  -1 -14  -7    0.43    1.12
   1 -14   7    0.90    1.79
   1  14   7    1.81    1.27
  -1  14  -7    0.12    1.37
  -2 -14  -7    0.40    1.25
   2 -14   7    0.73    1.83
   2  14   7   -0.01    0.98
  -2  14  -7    0.57    1.32
   3  14   7    0.18    0.76
   3  14   7   -0.91    0.56
   4  15  -7    0.96    1.07
   3 -15  -7    0.89    0.97
   3  15  -7    0.14    0.94
   3  15  -7   -0.90    0.95
   2 -15  -7   -1.36    0.66
  -2 -15   7   -0.05    0.84
   2  15  -7    0.14    0.42
   2  15  -7    0.07    0.35
   2  15  -7    0.20    0.96
   2  15  -7    1.27    1.13
   1 -15  -7    2.77    1.19
  -1 -15   7    0.77    0.96
  -1  15   7    1.02    1.25
   1  15  -7    3.17    1.21
   1  15  -7    0.62    0.70
   0 -15   7    0.40    1.28
   0 -15  -7   -1.25    0.75
   0 -15   7    1.03    1.02
   0  15  -7   -0.45    0.98
   0  15   7   -0.32    1.00
  -1 -15  -7    0.86    0.97
   1 -15   7    0.13    1.27
   1  15   7    0.31    0.97
  -1  15  -7   -1.93    0.83
   2 -15   7    1.32    1.57
  -2 -15  -7    3.42    1.34
   2  15   7   -0.14    1.08
  -2  15  -7   -0.77    1.14
   3  15   7    0.61    0.73
   3  15   7   -0.10    0.91
   3 -16  -7   -0.46    0.73
   3  16  -7    1.16    0.99
   3  16  -7    1.48    1.16
   2 -16  -7    0.66    1.01
   2  16  -7    0.48    0.43
   2  16  -7    0.80    1.05
   2  16  -7    0.07    0.83
   2  16  -7    0.29    0.44
   1 -16  -7    0.63    1.13
   1  16  -7    0.55    1.13
   1  16  -7    0.65    0.72
  -1  16   7    3.73    1.67
   0 -16  -7   -0.14    0.94
   0 -16   7    1.60    1.54
   0 -16   7    0.93    0.97
   0  16  -7    2.18    1.37
   0  16   7    2.35    1.30
  -1 -16  -7    0.63    1.09
   1 -16   7    1.87    1.65
   1  16   7    1.43    1.11
  -1  16  -7   -0.36    1.13
  -2 -16  -7    0.70    1.24
   2 -16   7   -0.89    1.49
  -2  16  -7    0.76    1.39
   2  16   7    0.68    1.23
   3  16   7    0.74    0.89
   3  17  -7    0.91    1.11
   2 -17  -7   -0.05    0.89
   2  17  -7    0.43    0.42
   2  17  -7    0.11    0.93
   2  17  -7    1.22    0.48
   2  17  -7    0.56    1.04
   1 -17  -7    0.38    1.01
   1  17  -7   -0.23    0.60
   1  17  -7   -1.09    1.03
   0 -17   7    0.94    1.62
   0 -17  -7   -1.40    0.79
   0  17  -7   -0.45    1.14
   0  17   7   -0.91    0.92
  -1 -17  -7   -1.59    0.87
   1 -17   7   -0.68    1.75
   1  17   7    0.03    1.20
  -1  17  -7   -0.74    1.31
   2 -17   7   -1.02    1.25
  -2 -17  -7   -0.81    1.21
  -2  17  -7    0.87    1.46
   2  17   7   -0.20    1.14
   3  17   7   -0.78    0.70
   2  18  -7   -0.60    0.40
   2  18  -7    0.40    0.96
   2  18  -7    0.13    0.44
   1 -18  -7    2.98    1.38
   1  18  -7    1.47    1.30
   1  18  -7    3.07    0.95
   0 -18  -7    0.69    1.06
   0 -18   7   -0.13    1.63
   0  18  -7    0.31    1.44
   0  18   7   -0.28    1.09
   1 -18   7    0.33    1.87
  -1 -18  -7    0.04    1.06
   1  18   7    0.28    1.19
  -1  18  -7   -0.77    1.21
  -2 -18  -7    0.36    1.29
  -2  18  -7    2.56    1.70
   1 -19  -7    0.87    1.05
   1  19  -7    1.18    0.92
   0 -19   7    0.68    1.92
   0 -19  -7    0.56    0.97
   0  19   7    1.83    1.40
   0  19  -7   -0.61    1.35
   1 -19   7   -2.27    1.78
  -1 -19  -7   -1.04    1.20
   1  19   7   -1.21    1.11
  -1  19  -7   -0.55    1.21
  -2  19  -7    0.68    1.61
   1  20  -7    0.55    0.83
   0 -20  -7    0.32    1.09
   0  20   7    0.95    1.34
   1 -20   7    3.35    2.69
  -1 -20  -7    1.98    1.52
  -1  20  -7    1.74    1.78
   1  20   7    0.91    1.53
   1  21  -7   -0.05    0.77
   0  21   7   -0.53    1.58
   1  22  -7   -0.11    0.85
   0  22   7    0.81    1.34
   5   0  -8    1.26    0.83
   4   0  -8    0.73    0.70
   3   0  -8   15.20    1.94
   2   0  -8    5.07    1.30
   1   0  -8   -1.30    0.61
   1   0  -8    0.24    0.65
  -1   0   8    1.11    0.92
   0   0   8    7.67    1.75
   0   0  -8    4.71    1.44
   1   0   8    4.98    1.54
  -1   0  -8    4.34    1.37
   2   0   8    0.96    1.12
  -2   0  -8    2.97    1.33
   3   0   8    0.18    1.00
   3   0   8   -0.03    0.80
   5  -1  -8   -0.33    0.70
   5   1  -8    0.23    0.75
   4  -1  -8    3.59    1.01
   4   1  -8    0.95    0.82
   3  -1  -8    2.70    0.95
   3   1  -8    3.76    1.09
   2  -1  -8    0.61    0.81
   2   1  -8    1.13    0.89
   2   1  -8    0.43    0.81
   1  -1  -8    0.14    0.81
  -1  -1   8   -0.17    0.67
   1  -1  -8    2.68    1.02
   1   1  -8    0.68    0.82
  -1   1   8    1.49    1.09
   1   1  -8    0.05    0.82
   0  -1   8    0.18    0.92
   0  -1  -8    0.63    0.78
   0   1   8    1.31    1.06
   0   1  -8   -0.06    0.75
   1  -1   8    1.44    0.97
  -1  -1  -8   -0.73    0.58
   1   1   8    0.62    0.99
  -1   1  -8    0.82    0.89
  -2  -1  -8    3.28    1.31
   2  -1   8    1.34    1.29
  -2   1  -8    1.85    1.11
   2   1   8    1.83    1.25
   3  -1   8    0.23    1.07
   3  -1   8   -1.00    0.65
   3   1   8   -0.98    0.73
   3   1   8    0.69    0.85
   5  -2  -8   -0.86    0.64
   5   2  -8   -0.62    0.65
   4  -2  -8    0.62    0.71
   4   2  -8   -0.29    0.65
   3  -2  -8    0.72    0.75
   3   2  -8    1.38    0.89
   2  -2  -8   -0.28    0.50
   2   2  -8    2.29    1.05
   1  -2  -8   -0.12    0.71
  -1  -2   8    1.35    1.07
   1  -2  -8    0.11    0.65
   1   2  -8   -0.71    0.83
   1   2  -8    0.09    0.56
  -1   2   8    0.01    0.91
   0  -2   8   -0.20    0.78
   0  -2  -8   -0.21    0.74
   0   2  -8    0.12    0.82
   0   2   8   -0.58    0.83
  -1  -2  -8    0.72    0.98
   1  -2   8    1.72    1.20
   1   2   8   -0.60    0.78
  -1   2  -8   -0.30    0.81
  -2  -2  -8   -0.66    0.81
   2  -2   8   -0.27    0.92
   2   2   8    0.71    0.99
  -2   2  -8    0.94    0.89
   3  -2   8   -0.26    0.82
   3  -2   8   -0.67    1.00
   3   2   8    0.22    1.03
   3   2   8   -0.39    0.69
   5  -3  -8    0.27    0.68
   5   3  -8   -0.57    0.79
   4  -3  -8    0.98    0.79
   4   3  -8    0.92    0.84
   3  -3  -8    1.09    0.69
   3   3  -8    1.04    0.82
   2  -3  -8    1.11    0.90
   2   3  -8   -0.30    0.58
   1  -3  -8    0.42    0.82
   1  -3  -8   -0.35    0.59
  -1  -3   8   -0.77    0.88
   1   3  -8   -1.02    0.83
   1   3  -8    0.03    0.63
  -1   3   8    0.86    0.94
   0  -3   8    0.24    0.86
   0  -3  -8    0.28    0.81
   0   3  -8    0.02    0.77
   0   3   8    0.67    0.98
  -1  -3  -8   -0.27    0.75
   1  -3   8   -0.79    0.85
   1   3   8    0.79    1.06
  -1   3  -8    0.53    0.86
  -2  -3  -8    1.01    1.14
   2  -3   8    0.80    1.07
   2   3   8    1.17    1.12
  -2   3  -8    0.65    0.96
   3  -3   8    1.93    1.35
   3   3   8   -0.42    0.95
   3   3   8    0.15    0.73
   5  -4  -8    0.97    0.71
   5   4  -8    0.92    0.93
   4  -4  -8    1.75    0.90
   4   4  -8    0.01    0.73
   3  -4  -8    1.45    0.83
   3   4  -8    1.74    1.01
   3   4  -8    1.11    0.94
   2  -4  -8   -0.04    0.73
   2   4  -8    0.66    0.72
   1  -4  -8    0.85    0.75
   1  -4  -8    0.87    0.85
  -1  -4   8    4.02    1.58
   1   4  -8    0.55    0.88
  -1   4   8   -0.15    0.81
   1   4  -8    4.21    1.10
   0  -4   8    1.07    1.14
   0  -4  -8    3.67    1.25
   0   4   8    4.53    1.48
   0   4  -8    2.73    1.05
  -1  -4  -8    1.66    1.15
   1  -4   8    0.03    1.04
   1   4   8    0.87    1.10
  -1   4  -8    0.91    0.93
   2  -4   8    2.54    1.34
  -2  -4  -8    3.75    1.40
  -2   4  -8    1.53    1.14
   2   4   8    2.79    1.41
   3  -4   8    1.70    1.30
   3   4   8    4.83    1.78
   3   4   8    0.80    0.88
   5  -5  -8    1.72    0.85
   5   5  -8    0.57    0.77
   4  -5  -8   -0.12    0.67
   4   5  -8   -0.03    0.85
   3  -5  -8   -0.49    0.63
   3   5  -8   -0.06    0.67
   3   5  -8   -0.33    0.81
   2  -5  -8   -0.10    0.64
   2   5  -8    0.51    0.43
   2   5  -8    1.05    0.90
  -1  -5   8    1.26    1.12
   1  -5  -8    0.60    0.95
   1  -5  -8    0.15    0.67
   1   5  -8    0.41    0.86
   1   5  -8    0.13    0.54
  -1   5   8   -0.29    0.69
   0  -5  -8    0.40    0.86
   0  -5   8   -0.41    0.93
   0   5   8    1.13    0.99
   0   5  -8    1.76    1.01
  -1  -5  -8    0.47    0.96
   1  -5   8    1.08    0.98
   1   5   8   -0.12    0.87
  -1   5  -8   -0.49    0.71
  -2  -5  -8   -0.75    0.83
   2  -5   8    0.29    1.04
  -2   5  -8    1.11    1.04
   2   5   8   -0.80    1.02
   3  -5   8    2.34    1.56
   3   5   8    0.47    0.84
   3   5   8    1.27    1.36
   5  -6  -8    0.41    0.74
   5   6  -8    0.55    0.82
  -4  -6   8    0.21    0.81
   4  -6  -8    0.53    0.78
   4   6  -8   -0.18    0.73
  -3  -6   8    0.02    0.74
   3  -6  -8   -0.54    0.64
   3   6  -8   -0.91    0.80
   3   6  -8    0.06    0.81
   2  -6  -8   -0.05    0.59
   2   6  -8   -0.77    0.69
   2   6  -8    0.08    0.36
  -1  -6   8    1.05    1.12
   1  -6  -8    1.00    0.90
   1  -6  -8    1.08    0.72
  -1   6   8    1.51    1.21
   1   6  -8    0.86    0.66
   1   6  -8   -0.10    1.17
   0  -6  -8    1.16    0.94
   0  -6   8    1.30    1.18
   0   6  -8    0.57    0.86
   0   6   8   -0.75    0.76
   1  -6   8    4.80    1.56
  -1  -6  -8    0.36    0.84
  -1   6  -8   -0.10    0.97
   1   6   8    2.68    1.22
  -2  -6  -8   -0.24    1.03
   2  -6   8    1.85    1.46
  -2   6  -8    0.27    0.96
   2   6   8   -0.55    0.97
   3  -6   8    0.01    0.95
   3   6   8    1.04    1.11
   3   6   8   -0.85    0.79
   5   7  -8   -0.47    0.71
  -4  -7   8    0.34    0.89
   4  -7  -8   -1.55    0.56
   4   7  -8    0.13    1.00
   4   7  -8    0.31    1.03
  -3  -7   8   -1.02    0.68
   3  -7  -8   -0.29    0.59
   3   7  -8   -0.91    0.79
   3   7  -8    0.58    0.99
   2  -7  -8   -0.15    0.64
   2   7  -8    0.04    0.31
   2   7  -8   -1.04    0.76
   2   7  -8   -0.21    0.76
   1  -7  -8   -0.85    0.61
  -1  -7   8    1.16    0.94
   1   7  -8   -0.13    1.03
  -1   7   8    0.78    0.93
   1   7  -8   -0.20    0.54
   0  -7  -8    0.09    0.69
   0  -7   8   -0.33    1.02
   0   7   8    1.21    0.87
   0   7  -8    0.66    1.00
  -1  -7  -8    0.24    0.76
   1  -7   8    1.16    1.18
   1   7   8    1.54    1.18
  -1   7  -8    0.22    1.05
   2  -7   8    0.41    0.92
  -2  -7  -8    0.42    1.11
   2   7   8   -1.02    0.81
  -2   7  -8    0.15    1.26
   3  -7   8    0.86    1.28
   3   7   8   -0.53    0.88
   3   7   8   -0.26    1.10
  -4  -8   8    0.46    1.02
   4  -8  -8   -0.45    0.70
   4   8  -8    1.49    1.19
   4   8  -8    0.41    0.86
   3  -8  -8   -0.09    0.54
  -3  -8   8    0.55    1.01
   3   8  -8    0.94    1.00
   3   8  -8    0.24    0.90
  -2  -8   8    0.62    0.92
   2  -8  -8    1.48    0.89
   2   8  -8    0.58    0.36
   2   8  -8    0.35    1.08
   2   8  -8    1.13    0.96
   1  -8  -8   -0.66    0.76
   1   8  -8    0.10    0.91
   1   8  -8   -0.76    0.47
  -1   8   8    0.22    0.98
   0  -8  -8    0.44    0.84
   0  -8   8    0.09    1.07
   0   8  -8   -0.55    1.05
   0   8   8    0.47    1.00
  -1  -8  -8    0.61    0.91
   1  -8   8    1.66    1.18
  -1   8  -8    0.36    0.96
   1   8   8    1.68    1.16
   2  -8   8   -0.29    1.00
  -2  -8  -8   -0.55    0.92
  -2   8  -8    0.58    1.21
   2   8   8    0.59    1.14
  -4  -9   8    0.39    0.96
   4  -9  -8   -0.46    0.64
   4   9  -8    2.03    1.02
   4   9  -8    0.80    1.12
   3  -9  -8    0.18    0.65
  -3  -9   8    0.11    0.86
   3   9  -8    0.34    0.85
   3   9  -8    0.71    1.04
   2  -9  -8   -0.57    0.71
  -2  -9   8   -1.04    0.68
   2   9  -8    0.19    0.84
   2   9  -8    0.36    0.41
   2   9  -8   -0.37    0.82
   1  -9  -8   -0.60    0.79
   1   9  -8   -0.10    0.58
  -1   9   8   -0.53    1.02
   1   9  -8    1.22    1.10
   0  -9  -8    1.09    0.92
   0  -9   8    0.65    1.26
   0   9   8    0.95    1.07
   0   9  -8    2.05    1.24
  -1  -9  -8   -0.07    0.99
   1  -9   8   -0.89    0.99
  -1   9  -8   -0.83    0.85
   1   9   8   -1.41    0.88
   2  -9   8   -1.09    1.25
  -2  -9  -8   -0.15    1.02
   2   9   8    0.00    0.83
  -2   9  -8   -0.69    1.17
   4  10  -8    1.88    1.08
   4  10  -8   -0.25    1.00
  -3 -10   8    0.22    0.97
   3 -10  -8   -0.33    0.67
   3  10  -8   -0.71    0.76
   3  10  -8   -2.29    0.77
  -2 -10   8   -0.50    0.67
   2 -10  -8    0.38    0.80
   2  10  -8   -0.24    0.80
   2  10  -8   -0.11    0.80
   2  10  -8    0.02    0.35
   1 -10  -8    0.23    0.87
   1  10  -8    0.29    0.55
   1  10  -8   -0.33    0.99
  -1  10   8    0.02    1.14
   0 -10  -8    0.92    0.97
   0 -10   8   -0.05    1.30
   0  10   8   -0.73    1.02
   0  10  -8   -0.96    1.05
   1 -10   8    1.92    1.41
  -1 -10  -8    1.48    1.02
   1  10   8   -1.32    0.93
  -1  10  -8    0.60    1.29
  -2 -10  -8    0.78    1.20
   2 -10   8   -0.73    1.09
  -2  10  -8   -0.22    1.11
   2  10   8   -0.43    1.00
   4  11  -8    0.58    1.23
   3 -11  -8   -0.50    0.68
   3  11  -8   -0.08    1.00
   3  11  -8    0.92    0.99
  -2 -11   8    0.73    1.11
   2 -11  -8    0.10    0.79
   2  11  -8    0.28    0.38
   2  11  -8    0.72    0.99
   2  11  -8   -0.56    0.81
   1 -11  -8   -0.43    0.61
  -1 -11   8    0.25    1.00
   1  11  -8   -0.13    0.93
   1  11  -8   -0.51    0.58
   0 -11  -8   -0.18    0.85
   0 -11   8    0.31    1.14
   0  11   8    0.47    1.15
   0  11  -8    0.02    1.05
  -1 -11  -8    0.25    0.98
   1 -11   8   -0.56    1.19
  -1  11  -8   -0.59    1.24
   1  11   8   -0.86    1.18
  -2 -11  -8    0.60    1.13
   2 -11   8   -0.28    1.25
  -2  11  -8   -0.73    1.23
   2  11   8   -0.60    1.07
   4  12  -8    0.82    1.10
   3 -12  -8   -0.63    0.48
   3  12  -8    1.26    1.08
   3  12  -8    0.18    1.02
   2 -12  -8    1.12    0.84
   2  12  -8    0.35    0.38
   2  12  -8    0.19    1.19
   2  12  -8   -0.84    0.91
   1 -12  -8   -0.73    0.73
   1  12  -8   -0.27    0.63
   1  12  -8   -0.69    0.96
   0 -12   8    1.95    1.43
   0 -12  -8   -0.61    0.73
   0  12  -8   -0.41    1.08
   0  12   8   -0.20    0.93
  -1 -12  -8    1.69    1.06
   1 -12   8   -0.60    1.32
   1  12   8   -1.01    0.86
  -1  12  -8   -0.49    1.12
  -2 -12  -8   -0.67    1.12
   2 -12   8   -0.56    1.04
   2  12   8    0.89    1.25
  -2  12  -8    0.34    1.53
   3  13  -8    0.50    1.12
   2 -13  -8    1.02    0.92
   2  13  -8    0.46    1.04
   2  13  -8    0.36    0.37
   2  13  -8   -0.80    1.17
   1 -13  -8    0.27    0.82
   1  13  -8    0.23    0.66
   1  13  -8   -0.40    1.12
   0 -13   8    0.98    1.50
   0 -13  -8    0.05    0.89
   0  13  -8    1.18    1.26
   0  13   8   -0.95    0.92
  -1 -13  -8    0.10    1.01
   1 -13   8    0.10    1.52
   1  13   8   -0.44    1.09
  -1  13  -8   -0.33    1.21
   2 -13   8    0.77    1.54
  -2 -13  -8   -0.12    1.10
  -2  13  -8    0.56    1.30
   2  13   8   -0.38    1.27
   3  14  -8   -0.11    1.00
   2 -14  -8    1.19    1.05
   2  14  -8    0.71    1.01
   2  14  -8    0.07    0.31
   2  14  -8    2.02    1.24
   1 -14  -8    1.92    1.19
   1  14  -8   -1.48    1.14
   1  14  -8   -0.38    0.55
   0 -14  -8    0.42    1.05
   0 -14   8    1.03    1.72
   0  14  -8   -0.65    1.43
   0  14   8    1.19    1.34
  -1 -14  -8    1.14    1.02
   1 -14   8   -1.58    1.41
   1  14   8    0.15    0.95
  -1  14  -8    2.60    1.71
   2 -14   8   -0.75    1.78
  -2 -14  -8   -0.08    0.96
  -2  14  -8   -0.90    1.38
   2  15  -8    0.21    1.18
   1 -15  -8   -0.19    0.84
   1  15  -8    0.42    0.77
   1  15  -8   -0.81    0.87
   0 -15  -8   -0.50    0.86
   0 -15   8   -0.78    1.26
   0  15  -8    0.95    1.44
   0  15   8    0.43    1.16
   1 -15   8    1.38    2.06
  -1 -15  -8    0.39    1.09
  -1  15  -8   -2.38    1.50
   1  15   8    0.07    1.45
  -2 -15  -8    1.20    1.50
  -2  15  -8   -1.26    2.05
   1  16  -8    0.61    0.76
   0 -16  -8    0.50    1.00
   0  16  -8   -1.31    1.06
   0  16   8    1.14    1.27
  -1 -16  -8    0.12    1.21
   1 -16   8    0.15    1.86
   1  16   8   -0.14    1.10
  -1  16  -8   -1.09    1.31
  -2  16  -8    1.25    1.77
   1  17  -8    0.31    0.78
   0  17   8   -1.44    1.07
  -1 -17  -8    0.83    1.31
   1 -17   8    1.78    2.04
   1  17   8    1.73    1.43
   1  18  -8   -0.10    0.69
   0  18   8    0.39    1.36
   3   0  -9    1.44    0.98
   2   0  -9    0.74    0.96
   1   0  -9    0.64    1.05
   1   0  -9   -0.57    0.68
   0   0  -9    0.62    0.97
   0   0   9    0.36    0.97
  -1   0  -9   -1.06    0.91
   1   0   9    0.87    1.16
   2   0   9   -0.81    1.03
  -2   0  -9   -0.42    0.96
   3  -1  -9    0.46    0.87
   3   1  -9   -0.23    0.77
   2  -1  -9    0.77    0.83
   2   1  -9    1.65    0.98
   1  -1  -9   -0.53    0.76
   1  -1  -9    0.40    0.97
   1   1  -9    0.75    0.97
   1   1  -9   -0.14    0.71
   0  -1  -9    0.64    1.11
   0  -1   9   -0.24    1.03
   0   1   9    0.52    1.27
   0   1  -9   -0.37    0.88
   1  -1   9   -1.17    0.88
  -1  -1  -9    0.28    1.07
  -1   1  -9    0.48    1.17
   1   1   9    0.75    1.27
  -2  -1  -9    1.04    1.18
   2  -1   9    0.90    1.23
  -2   1  -9    0.47    0.99
   2   1   9   -1.17    0.80
   3  -2  -9    0.21    0.82
   3   2  -9    0.89    0.90
   2  -2  -9    0.84    0.95
   2   2  -9    0.47    0.88
   1  -2  -9    1.98    0.93
   1  -2  -9   -0.73    0.79
   1   2  -9   -0.34    0.67
   1   2  -9    0.77    0.99
   0  -2  -9    2.02    1.13
   0  -2   9    0.15    1.12
   0   2  -9    1.73    1.04
   0   2   9   -0.09    1.17
  -1  -2  -9   -0.74    0.92
   1  -2   9   -1.17    1.01
   1   2   9    1.33    1.34
  -1   2  -9    0.62    1.10
   2  -2   9    1.39    1.34
  -2  -2  -9   -0.11    1.12
  -2   2  -9    2.53    1.40
   2   2   9    0.69    1.27
   3  -3  -9   -0.89    0.81
   3   3  -9   -0.73    0.87
   2  -3  -9    0.24    0.87
   2   3  -9    0.48    0.85
   1  -3  -9    0.00    0.85
   1  -3  -9    0.58    0.81
   1   3  -9   -0.13    0.90
   1   3  -9   -0.09    0.73
   0  -3   9   -1.48    1.17
   0  -3  -9   -0.94    0.72
   0   3  -9    0.46    1.00
   0   3   9   -0.44    1.11
  -1  -3  -9    0.73    0.99
   1  -3   9   -0.33    1.19
   1   3   9    0.60    1.32
  -1   3  -9    0.55    1.02
  -2  -3  -9   -0.48    1.10
   2  -3   9    2.85    1.80
   2   3   9    0.54    1.13
  -2   3  -9    0.41    1.12
   3  -4  -9   -0.02    0.87
   3   4  -9    1.68    1.07
   2  -4  -9    0.52    0.83
   2   4  -9    0.73    1.07
   1  -4  -9    0.66    1.06
   1  -4  -9   -0.51    0.72
   1   4  -9   -0.55    0.52
   1   4  -9    0.21    0.98
   0  -4  -9    0.45    1.04
   0  -4   9    2.76    1.48
   0   4  -9    0.35    0.98
   0   4   9    1.77    1.30
  -1  -4  -9   -0.25    1.02
   1  -4   9    1.77    1.42
  -1   4  -9    0.06    1.10
   1   4   9   -0.44    1.28
  -2  -4  -9    1.39    1.21
   2  -4   9    3.11    1.64
  -2   4  -9    3.37    1.58
   2   4   9    2.42    1.50
   2  -5  -9    0.26    0.91
   2   5  -9   -1.02    0.82
   2   5  -9    0.01    0.84
   1  -5  -9    0.44    0.99
   1  -5  -9   -0.17    0.64
   1   5  -9   -1.49    0.95
   1   5  -9   -0.21    0.62
   0  -5  -9   -0.94    0.76
   0  -5   9    2.60    1.60
   0   5  -9   -0.14    0.99
   0   5   9    0.43    1.02
   1  -5   9    0.43    1.41
  -1  -5  -9   -0.11    1.03
   1   5   9    0.63    1.06
  -1   5  -9    0.91    1.17
   2  -5   9    1.31    1.44
  -2  -5  -9   -1.84    1.04
   2   5   9    0.52    1.53
  -2   5  -9   -1.59    1.21
   2  -6  -9    0.30    0.96
   2   6  -9    0.41    0.93
   2   6  -9   -0.08    0.96
   1  -6  -9   -0.75    0.67
   1   6  -9    0.49    0.74
   1   6  -9   -0.74    0.96
   0  -6   9    0.76    1.16
   0  -6  -9    0.69    0.94
   0   6  -9    0.76    1.27
   0   6   9   -0.80    1.09
   1  -6   9    0.08    1.10
  -1  -6  -9   -1.73    0.99
  -1   6  -9    1.57    1.39
   1   6   9   -0.41    1.25
  -2  -6  -9    0.38    1.39
   2  -6   9    0.28    1.32
  -2   6  -9   -0.84    1.15
   2   6   9   -1.25    0.93
   2  -7  -9   -0.06    0.86
   2   7  -9   -0.76    0.95
   2   7  -9   -0.86    0.91
   1  -7  -9    0.11    0.87
   1   7  -9   -0.58    0.69
   1   7  -9   -0.76    1.03
   0  -7   9    0.76    1.11
   0  -7  -9   -0.52    1.07
   0   7   9    0.64    1.20
   0   7  -9    1.30    1.33
  -1  -7  -9   -0.59    0.97
   1  -7   9    0.40    1.12
  -1   7  -9    1.61    1.44
   1   7   9   -0.94    1.22
  -2  -7  -9    0.63    1.20
   2  -7   9    0.32    1.33
  -2   7  -9    0.16    1.17
   3   8  -9    1.23    1.24
   2  -8  -9   -0.68    0.74
   2   8  -9    1.11    1.07
   1  -8  -9    0.07    0.92
   1   8  -9   -0.93    0.53
   1   8  -9   -0.04    0.99
   0  -8  -9   -0.06    0.74
   0  -8   9   -1.00    1.45
   0   8   9    0.76    1.07
   0   8  -9   -0.16    1.33
  -1  -8  -9    0.39    1.14
   1  -8   9    2.23    1.62
   1   8   9   -0.19    1.16
  -1   8  -9   -0.02    1.18
  -2  -8  -9    0.32    1.17
  -2   8  -9   -2.08    1.14
   3   9  -9   -0.41    0.95
   2   9  -9    2.25    1.35
   1  -9  -9    0.02    0.68
   1   9  -9    0.21    1.29
   1   9  -9    1.04    0.80
   0  -9   9   -1.20    1.19
   0  -9  -9    0.15    0.83
   0   9  -9   -0.19    1.20
   0   9   9   -0.46    1.13
   1  -9   9   -1.27    1.49
  -1  -9  -9    1.56    1.31
   1   9   9   -1.28    1.20
  -1   9  -9   -0.10    1.50
  -2  -9  -9    0.43    1.33
  -2   9  -9   -0.17    1.24
   3  10  -9   -0.54    1.02
   2  10  -9    1.58    1.21
   1 -10  -9    0.60    0.92
   1  10  -9    1.34    1.01
   0 -10  -9    2.04    1.30
   0  10   9    0.55    1.19
   0  10  -9    1.71    1.39
   1 -10   9    0.83    1.56
  -1 -10  -9    0.48    1.11
  -1  10  -9    1.82    1.51
   1  10   9    0.33    1.33
  -2 -10  -9   -0.13    1.07
  -2  10  -9   -0.49    1.58
   3  11  -9   -1.08    1.02
   2  11  -9    0.14    1.15
   1  11  -9    1.01    0.80
   0 -11  -9    1.43    1.26
   0  11   9   -0.09    1.28
   1 -11   9    1.19    1.61
  -1 -11  -9    0.91    1.29
   1  11   9   -1.00    1.14
   2  12  -9    2.43    1.58
   1  12  -9    1.07    0.77
   1 -12   9    5.38    2.39
   1  12   9    0.46    1.49
   1  13  -9   -0.43    0.75
   1 -13   9    1.67    1.86
   1  14  -9   -0.37    0.82
   1   0 -10    0.94    0.90
   1   0  10   -0.21    1.20
   1  -1 -10    1.20    0.97
   1   1 -10    0.20    0.76
   1  -1  10    0.14    1.43
   1   1  10    0.96    1.44
   1  -2 -10    0.11    0.98
   1   2 -10    0.23    0.85
   1  -2  10    0.94    1.74
   1   2  10   -1.53    0.84
   1  -3 -10    0.33    0.76
   1   3 -10    0.15    0.90
   1  -3  10    1.62    1.64
   1   3  10    1.93    1.73
   1   4 -10    0.14    0.83
   1   5 -10   -0.04    0.74
   0   0   0    0.00    0.00
;
_shelx_hkl_checksum              102
_shelx_res_file
;
TITL RED IN P2(1)/C
CELL  0.71073  5.65140 21.22000  7.38100 90.00000 96.47300 90.00000
ZERR 4  0.00160  0.00720  0.00230  0.00000  0.01700  0.00000
LATT 1
SYMM -X, Y+ 0.50000, -Z+ 0.50000
SFAC C H N O S
UNIT 40 24 8 4 4
TEMP 23
PLAN 10
FMAP 2
L.S. 9
BOND $H
HTAB
EQIV $1 -X+1, -Y+1, -Z+1
HTAB C1 O1_$1
EQIV $2 X+1, -Y+1/2, Z+1/2
HTAB C3 N1_$2
HTAB C5 S1_$2
EQIV $3 -X, Y-1/2, -Z+1/2
HTAB C8 O1_$3
CONF
ACTA
WGHT    0.059300
FVAR       0.13284
S1    5    0.003458    0.358678    0.245384    11.00000    0.04045    0.04602 =
         0.04804    0.00158   -0.00499    0.00166
O1    4    0.273158    0.478790    0.338804    11.00000    0.07992    0.04086 =
         0.08741    0.00412   -0.01400    0.00590
N1    3   -0.090591    0.228839    0.206587    11.00000    0.03806    0.04185 =
         0.04036   -0.00234   -0.00144   -0.00383
N2    3    0.265474    0.262991    0.344478    11.00000    0.02963    0.04011 =
         0.03259   -0.00163   -0.00026   -0.00337
C1    1    0.385097    0.431915    0.386430    11.00000    0.04941    0.04952 =
         0.05545   -0.00655   -0.00694   -0.00677
AFIX  43
H1    2    0.537765    0.436688    0.446482    11.00000   -1.20000
AFIX   0
C2    1    0.293322    0.368977    0.354617    11.00000    0.03720    0.04206 =
         0.03542    0.00091   -0.00115   -0.00442
C3    1    0.405982    0.314079    0.398669    11.00000    0.03560    0.04532 =
         0.03670   -0.00204    0.00115   -0.00529
AFIX  43
H3    2    0.559582    0.311136    0.458280    11.00000   -1.20000
AFIX   0
C4    1    0.279803    0.197645    0.347739    11.00000    0.03401    0.03999 =
         0.03161   -0.00392    0.00066   -0.00242
C5    1    0.460904    0.156686    0.411388    11.00000    0.03569    0.04871 =
         0.04602    0.00427    0.00130    0.00089
AFIX  43
H5    2    0.608282    0.171066    0.464047    11.00000   -1.20000
AFIX   0
C6    1    0.410082    0.093230    0.392174    11.00000    0.05540    0.04244 =
         0.05667    0.00305    0.00871    0.00800
AFIX  43
H6    2    0.526010    0.063937    0.433885    11.00000   -1.20000
AFIX   0
C7    1    0.189840    0.071984    0.311994    11.00000    0.05746    0.04357 =
         0.05536   -0.00578    0.00904   -0.00535
H7    2    0.147403    0.026792    0.293817    11.00000    0.06568
C8    1    0.012273    0.113208    0.245378    11.00000    0.04420    0.05259 =
         0.04389   -0.00559    0.00656   -0.01088
AFIX  43
H8    2   -0.133539    0.098396    0.190881    11.00000   -1.20000
AFIX   0
C9    1    0.057187    0.177602    0.261913    11.00000    0.03590    0.04612 =
         0.02867   -0.00195    0.00251   -0.00553
C10   1    0.041435    0.277842    0.258915    11.00000    0.03207    0.04992 =
         0.03729    0.00023   -0.00126   -0.00264
HKLF 4
REM  RED IN P2(1)/C
REM R1 =  0.0581 for     935 Fo > 4sig(Fo)  and  0.1921 for all    2357 data
REM    131 parameters refined using      0 restraints
END
WGHT      0.0595      0.0000
REM Instructions for potential hydrogen bonds
HTAB C1 O1_$1
HTAB C3 N1_$2
HTAB C5 S1_$2
HTAB C8 O1_$3
REM Highest difference peak  0.229,  deepest hole -0.352,  1-sigma level  0.064
Q1    1   0.2028 -0.0617  0.2245  11.00000  0.05    0.23
Q2    1  -0.0336 -0.0494  0.3813  11.00000  0.05    0.22
Q3    1  -0.0696  0.1731  0.4380  11.00000  0.05    0.21
Q4    1   0.0689  0.0091  0.4004  11.00000  0.05    0.20
Q5    1   0.6418  0.3364  0.3889  11.00000  0.05    0.20
Q6    1  -0.3190  0.1217  0.2384  11.00000  0.05    0.19
Q7    1   0.3824  0.0722  0.5911  11.00000  0.05    0.19
Q8    1   0.7330  0.1593  0.4370  11.00000  0.05    0.19
Q9    1   0.3849  0.2087  0.2121  11.00000  0.05    0.18
Q10   1   0.7614  0.1039  0.4117  11.00000  0.05    0.18
;
_shelx_res_checksum              98321
_shelxl_version_number           2014/6
loop_
_space_group_symop_operation_xyz
'x, y, z'
'-x, y+1/2, -z+1/2'
'-x, -y, -z'
'x, -y-1/2, z-1/2'
loop_
_atom_site_type_symbol
_atom_site_label
_atom_site_fract_x
_atom_site_fract_y
_atom_site_fract_z
_atom_site_U_iso_or_equiv
_atom_site_adp_type
_atom_site_calc_flag
_atom_site_occupancy
S S1 0.00346(15) 0.35868(4) 0.24538(14) 0.0456(3) Uani d 1
O O1 0.2732(5) 0.47879(12) 0.3388(4) 0.0712(9) Uani d 1
N N1 -0.0906(5) 0.22884(13) 0.2066(4) 0.0405(7) Uani d 1
N N2 0.2655(4) 0.26299(12) 0.3445(4) 0.0344(7) Uani d 1
C C1 0.3851(6) 0.43192(18) 0.3864(5) 0.0524(10) Uani d 1
H H1 0.5378 0.4367 0.4465 0.063 Uiso calc 1
C C2 0.2933(6) 0.36898(16) 0.3546(5) 0.0386(8) Uani d 1
C C3 0.4060(6) 0.31408(16) 0.3987(5) 0.0394(9) Uani d 1
H H3 0.5596 0.3111 0.4583 0.047 Uiso calc 1
C C4 0.2798(5) 0.19764(15) 0.3477(5) 0.0354(8) Uani d 1
C C5 0.4609(6) 0.15669(16) 0.4114(5) 0.0437(9) Uani d 1
H H5 0.6083 0.1711 0.4640 0.052 Uiso calc 1
C C6 0.4101(6) 0.09323(17) 0.3922(5) 0.0513(10) Uani d 1
H H6 0.5260 0.0639 0.4339 0.062 Uiso calc 1
C C7 0.1898(7) 0.0720(2) 0.3120(5) 0.0519(10) Uani d 1
H H7 0.147(6) 0.0268(17) 0.294(5) 0.066(12) Uiso d 1
C C8 0.0123(6) 0.11321(17) 0.2454(5) 0.0468(9) Uani d 1
H H8 -0.1335 0.0984 0.1909 0.056 Uiso calc 1
C C9 0.0572(5) 0.17760(16) 0.2619(4) 0.0370(8) Uani d 1
C C10 0.0414(5) 0.27784(16) 0.2589(5) 0.0402(9) Uani d 1
loop_
_atom_site_aniso_label
_atom_site_aniso_U_11
_atom_site_aniso_U_22
_atom_site_aniso_U_33
_atom_site_aniso_U_12
_atom_site_aniso_U_13
_atom_site_aniso_U_23
S1 0.0405(5) 0.0460(6) 0.0480(6) 0.0017(4) -0.0050(4) 0.0016(5)
O1 0.080(2) 0.0409(17) 0.087(2) 0.0059(14) -0.0140(16) 0.0041(15)
N1 0.0381(15) 0.0419(19) 0.0404(18) -0.0038(14) -0.0014(13) -0.0023(14)
N2 0.0296(14) 0.0401(18) 0.0326(17) -0.0034(13) -0.0003(12) -0.0016(14)
C1 0.049(2) 0.050(3) 0.055(3) -0.007(2) -0.0069(19) -0.007(2)
C2 0.0372(18) 0.042(2) 0.035(2) -0.0044(16) -0.0012(15) 0.0009(17)
C3 0.0356(18) 0.045(2) 0.037(2) -0.0053(17) 0.0011(15) -0.0020(17)
C4 0.0340(18) 0.040(2) 0.032(2) -0.0024(16) 0.0007(14) -0.0039(17)
C5 0.0357(18) 0.049(2) 0.046(2) 0.0009(16) 0.0013(16) 0.0043(18)
C6 0.055(2) 0.042(2) 0.057(3) 0.0080(18) 0.0087(19) 0.0030(19)
C7 0.057(3) 0.044(3) 0.055(3) -0.005(2) 0.009(2) -0.006(2)
C8 0.044(2) 0.053(2) 0.044(2) -0.011(2) 0.0066(16) -0.006(2)
C9 0.0359(19) 0.046(2) 0.029(2) -0.0055(16) 0.0025(16) -0.0020(17)
C10 0.0321(19) 0.050(2) 0.037(2) -0.0026(16) -0.0013(16) 0.0002(18)
loop_
_atom_type_symbol
_atom_type_description
_atom_type_scat_dispersion_real
_atom_type_scat_dispersion_imag
_atom_type_scat_source
C C 0.0033 0.0016 'International Tables Vol C Tables 4.2.6.8 and 6.1.1.4'
H H 0.0000 0.0000 'International Tables Vol C Tables 4.2.6.8 and 6.1.1.4'
N N 0.0061 0.0033 'International Tables Vol C Tables 4.2.6.8 and 6.1.1.4'
O O 0.0106 0.0060 'International Tables Vol C Tables 4.2.6.8 and 6.1.1.4'
S S 0.1246 0.1234 'International Tables Vol C Tables 4.2.6.8 and 6.1.1.4'
loop_
_geom_angle_atom_site_label_1
_geom_angle_atom_site_label_2
_geom_angle_atom_site_label_3
_geom_angle
C10 S1 C2 89.64(16)
C10 N1 C9 103.2(3)
C3 N2 C10 114.9(3)
C3 N2 C4 138.6(3)
C10 N2 C4 106.5(2)
O1 C1 C2 123.2(3)
O1 C1 H1 118.4
C2 C1 H1 118.4
C3 C2 C1 127.5(3)
C3 C2 S1 113.2(3)
C1 C2 S1 119.3(3)
C2 C3 N2 111.6(3)
C2 C3 H3 124.2
N2 C3 H3 124.2
C5 C4 N2 132.2(3)
C5 C4 C9 123.5(3)
N2 C4 C9 104.3(3)
C6 C5 C4 116.1(3)
C6 C5 H5 121.9
C4 C5 H5 121.9
C5 C6 C7 121.7(3)
C5 C6 H6 119.2
C7 C6 H6 119.2
C8 C7 C6 121.7(4)
C8 C7 H7 114(2)
C6 C7 H7 124(2)
C7 C8 C9 118.2(3)
C7 C8 H8 120.9
C9 C8 H8 120.9
C8 C9 N1 129.6(3)
C8 C9 C4 118.7(3)
N1 C9 C4 111.6(3)
N1 C10 N2 114.4(3)
N1 C10 S1 134.9(3)
N2 C10 S1 110.7(2)
loop_
_geom_bond_atom_site_label_1
_geom_bond_atom_site_label_2
_geom_bond_distance
S1 C10 1.730(3)
S1 C2 1.756(3)
O1 C1 1.210(4)
N1 C10 1.312(4)
N1 C9 1.403(4)
N2 C3 1.376(4)
N2 C10 1.386(4)
N2 C4 1.389(4)
C1 C2 1.442(5)
C1 H1 0.9300
C2 C3 1.350(4)
C3 H3 0.9300
C4 C5 1.384(4)
C4 C9 1.409(4)
C5 C6 1.381(5)
C5 H5 0.9300
C6 C7 1.392(5)
C6 H6 0.9300
C7 C8 1.379(5)
C7 H7 0.99(3)
C8 C9 1.393(4)
C8 H8 0.9300
loop_
_geom_hbond_atom_site_label_D
_geom_hbond_atom_site_label_H
_geom_hbond_atom_site_label_A
_geom_hbond_site_symmetry_A
_geom_hbond_distance_DH
_geom_hbond_distance_HA
_geom_hbond_distance_DA
_geom_hbond_angle_DHA
C1 H1 O1 3_666 0.93 2.55 3.248(4) 132
loop_
_geom_torsion_atom_site_label_1
_geom_torsion_atom_site_label_2
_geom_torsion_atom_site_label_3
_geom_torsion_atom_site_label_4
_geom_torsion
O1 C1 C2 C3 178.4(4)
O1 C1 C2 S1 -1.2(5)
C10 S1 C2 C3 -0.7(3)
C10 S1 C2 C1 179.0(3)
C1 C2 C3 N2 -178.8(3)
S1 C2 C3 N2 0.8(4)
C10 N2 C3 C2 -0.5(4)
C4 N2 C3 C2 178.8(3)
C3 N2 C4 C5 -1.1(6)
C10 N2 C4 C5 178.3(3)
C3 N2 C4 C9 -179.4(3)
C10 N2 C4 C9 -0.1(3)
N2 C4 C5 C6 179.7(3)
C9 C4 C5 C6 -2.1(5)
C4 C5 C6 C7 0.5(5)
C5 C6 C7 C8 0.9(5)
C6 C7 C8 C9 -0.7(5)
C7 C8 C9 N1 -179.9(3)
C7 C8 C9 C4 -0.8(5)
C10 N1 C9 C8 179.0(3)
C10 N1 C9 C4 -0.1(3)
C5 C4 C9 C8 2.4(5)
N2 C4 C9 C8 -179.1(3)
C5 C4 C9 N1 -178.4(3)
N2 C4 C9 N1 0.2(3)
C9 N1 C10 N2 0.1(4)
C9 N1 C10 S1 179.6(3)
C3 N2 C10 N1 179.5(3)
C4 N2 C10 N1 0.0(4)
C3 N2 C10 S1 -0.1(3)
C4 N2 C10 S1 -179.6(2)
C2 S1 C10 N1 -179.1(4)
C2 S1 C10 N2 0.4(2)

_cod_database_fobs_code 1543333
