#------------------------------------------------------------------------------
#$Date: 2016-11-06 04:07:41 +0200 (Sun, 06 Nov 2016) $
#$Revision: 187984 $
#$URL: file:///home/coder/svn-repositories/cod/cif/1/54/31/1543141.cif $
#------------------------------------------------------------------------------
#
# This file is available in the Crystallography Open Database (COD),
# http://www.crystallography.net/
#
# All data on this site have been placed in the public domain by the
# contributors.
#
data_1543141
loop_
_publ_author_name
'Nishikawa, Yasuhiro'
'Nakano, Saki'
'Tahira, Yuu'
'Terazawa, Kanako'
'Yamazaki, Ken'
'Kitamura, Chitoshi'
'Hara, Osamu'
_publ_section_title
;
 Chiral Pyridinium Phosphoramide as a Dual Br\/onsted Acid Catalyst for
 Enantioselective Diels-Alder Reaction.
;
_journal_issue                   9
_journal_name_full               'Organic letters'
_journal_page_first              2004
_journal_page_last               2007
_journal_paper_doi               10.1021/acs.orglett.6b00608
_journal_volume                  18
_journal_year                    2016
_chemical_formula_moiety
'(C50 H36 N2 O4 P1 +), (C1 F3 O3 S1 -), (C1 H2 Cl2)'
_chemical_formula_sum            'C52 H38 Cl2 F3 N2 O7 P S'
_chemical_formula_weight         993.77
_chemical_name_systematic
;
      ?
;
_space_group_IT_number           2
_symmetry_cell_setting           triclinic
_symmetry_Int_Tables_number      2
_symmetry_space_group_name_Hall  '-P 1'
_symmetry_space_group_name_H-M   'P -1'
_atom_sites_solution_hydrogens   mixed
_atom_sites_solution_primary     direct
_atom_sites_solution_secondary   direct
_cell_angle_alpha                71.074(5)
_cell_angle_beta                 67.743(5)
_cell_angle_gamma                66.374(5)
_cell_formula_units_Z            2
_cell_length_a                   13.4369(10)
_cell_length_b                   13.7007(9)
_cell_length_c                   15.4740(11)
_cell_measurement_reflns_used    15005
_cell_measurement_temperature    200
_cell_measurement_theta_max      27.47
_cell_measurement_theta_min      3.01
_cell_measurement_wavelength     0.71073
_cell_volume                     2364.9(3)
_computing_cell_refinement       'PROCESS-AUTO (Rigaku, 1998)'
_computing_data_collection       'PROCESS-AUTO (Rigaku, 1998)'
_computing_data_reduction        'PROCESS-AUTO (Rigaku, 1998)'
_computing_molecular_graphics    'ORTEP-3 for Windows (Farrugia, 2012)'
_computing_publication_material  'WinGX (Farrugia, 2012)'
_computing_structure_refinement  'SHELXL-2014/7 (Sheldrick, 2014)'
_computing_structure_solution    'SIR-2004 (Burla et al., 2005)'
_diffrn_ambient_temperature      200
_diffrn_detector_area_resol_mean 10
_diffrn_measured_fraction_theta_full 0.986
_diffrn_measured_fraction_theta_max 0.979
_diffrn_measurement_device_type  'RIGAKU RAPID'
_diffrn_measurement_method       \w
_diffrn_radiation_monochromator  graphite
_diffrn_radiation_probe          x-ray
_diffrn_radiation_type           MoK\a
_diffrn_radiation_wavelength     0.71073
_diffrn_reflns_av_R_equivalents  0.0563
_diffrn_reflns_av_unetI/netI     0.1015
_diffrn_reflns_Laue_measured_fraction_full 0.986
_diffrn_reflns_Laue_measured_fraction_max 0.979
_diffrn_reflns_limit_h_max       17
_diffrn_reflns_limit_h_min       -17
_diffrn_reflns_limit_k_max       17
_diffrn_reflns_limit_k_min       -17
_diffrn_reflns_limit_l_max       20
_diffrn_reflns_limit_l_min       -20
_diffrn_reflns_number            22633
_diffrn_reflns_point_group_measured_fraction_full 0.986
_diffrn_reflns_point_group_measured_fraction_max 0.979
_diffrn_reflns_theta_full        25.242
_diffrn_reflns_theta_max         27.474
_diffrn_reflns_theta_min         3.008
_diffrn_source                   'fine-focus sealed x-ray tube'
_diffrn_standards_number         0
_exptl_absorpt_coefficient_mu    0.283
_exptl_absorpt_correction_T_max  0.956
_exptl_absorpt_correction_T_min  0.915
_exptl_absorpt_correction_type   numerical
_exptl_crystal_colour            colorless
_exptl_crystal_density_diffrn    1.396
_exptl_crystal_density_method    'not measured'
_exptl_crystal_description       prism
_exptl_crystal_F_000             1024
_exptl_crystal_size_max          0.55
_exptl_crystal_size_mid          0.3
_exptl_crystal_size_min          0.25
_refine_diff_density_max         0.423
_refine_diff_density_min         -0.815
_refine_diff_density_rms         0.07
_refine_ls_extinction_method     none
_refine_ls_goodness_of_fit_ref   1.008
_refine_ls_hydrogen_treatment    mixed
_refine_ls_matrix_type           full
_refine_ls_number_constraints    0
_refine_ls_number_parameters     627
_refine_ls_number_reflns         10597
_refine_ls_number_restraints     0
_refine_ls_restrained_S_all      1.008
_refine_ls_R_factor_all          0.1179
_refine_ls_R_factor_gt           0.0713
_refine_ls_shift/su_max          0
_refine_ls_shift/su_mean         0
_refine_ls_structure_factor_coef Fsqd
_refine_ls_weighting_details
'w=1/[\s^2^(Fo^2^)+(0.1142P)^2^+1.1390P] where P=(Fo^2^+2Fc^2^)/3'
_refine_ls_weighting_scheme      calc
_refine_ls_wR_factor_gt          0.1896
_refine_ls_wR_factor_ref         0.2196
_reflns_Friedel_coverage         0
_reflns_number_gt                6615
_reflns_number_total             10597
_reflns_threshold_expression     'I > 2\s(I)'
_cod_data_source_file            ol6b00608_si_002.cif
_cod_data_source_block           PPA
_cod_depositor_comments          'Adding full bibliography for 1543141.cif.'
_cod_database_code               1543141
_shelx_estimated_absorpt_t_min   0.86
_shelx_estimated_absorpt_t_max   0.933
_shelx_res_file
;
 
    shelx.res created by SHELXL-2014/7
 
TITL SIR2004 run in space group P -1
CELL  0.71073  13.4369  13.7007  15.4740   71.074   67.743   66.374
ZERR     2.00   0.0010   0.0009   0.0011    0.005    0.005    0.005
LATT   1
SFAC  C    H    N    O    F    P    S    CL
UNIT  104 76 4 14 6 2 2 4
MERG   2
OMIT     3   1   2
OMIT     4   5   2
OMIT     2   0   1
HTAB C46 O3
EQIV $1 -x+1, -y, -z+1
HTAB C50B O101_$1
EQIV $2 x, y, z-1
HTAB N1 O101_$2
HTAB N1 S101_$2
HTAB N2 O101_$2
HTAB N2 O103_$2
HTAB N2 S101_$2
HTAB C201 O102
HTAB C46 O3
HTAB C50B O101_$1
HTAB N1 O101_$2
HTAB N1 S101_$2
HTAB N2 O101_$2
HTAB N2 O103_$2
HTAB N2 S101_$2
HTAB C201 O102
SIZE     0.250   0.300   0.550
ACTA
BOND   $H
CONF
L.S.  15
TEMP   -73.00
WGHT    0.114200    1.139000
FVAR       1.73878   0.66555
MOLE    1
C1    1    0.553368    0.150242    0.475581    11.00000    0.04685    0.07678 =
         0.03884   -0.00637   -0.01398   -0.00845
AFIX  43
H1    2    0.509407    0.144061    0.540580    11.00000   -1.20000
AFIX   0
C2    1    0.614806    0.058253    0.437152    11.00000    0.06667    0.06061 =
         0.05007    0.00168   -0.01391   -0.02070
AFIX  43
H2    2    0.613028   -0.011246    0.475754    11.00000   -1.20000
AFIX   0
C3    1    0.678945    0.066977    0.342612    11.00000    0.05960    0.04775 =
         0.05185   -0.01026   -0.01693   -0.00950
AFIX  43
H3    2    0.721780    0.003291    0.316733    11.00000   -1.20000
AFIX   0
C4    1    0.681144    0.168442    0.285142    11.00000    0.03419    0.04932 =
         0.04608   -0.00930   -0.01882   -0.00935
C5    1    0.620100    0.260285    0.325271    11.00000    0.04023    0.04874 =
         0.05231   -0.01380   -0.01643   -0.00754
AFIX  43
H5    2    0.622572    0.329966    0.287544    11.00000   -1.20000
AFIX   0
C6    1    0.555818    0.250632    0.419847    11.00000    0.04437    0.06472 =
         0.05412   -0.02211   -0.01785   -0.00277
AFIX  43
H6    2    0.513119    0.313898    0.446355    11.00000   -1.20000
AFIX   0
C7    1    0.746749    0.177475    0.183029    11.00000    0.03780    0.04172 =
         0.04873   -0.01301   -0.01676   -0.01072
C8    1    0.700530    0.256280    0.113377    11.00000    0.03126    0.04422 =
         0.05040   -0.01014   -0.01215   -0.00447
AFIX  43
H8    2    0.627081    0.306915    0.131692    11.00000   -1.20000
AFIX   0
C9    1    0.759996    0.262171    0.017472    11.00000    0.03504    0.04509 =
         0.04878   -0.00475   -0.01545   -0.00807
AFIX  43
H9    2    0.726192    0.315454   -0.029248    11.00000   -1.20000
AFIX   0
C10   1    0.868775    0.190616   -0.010787    11.00000    0.03336    0.04123 =
         0.04689   -0.01257   -0.01253   -0.01404
C11   1    0.916372    0.114294    0.058351    11.00000    0.03961    0.04889 =
         0.05310   -0.01586   -0.01867    0.00131
AFIX  43
H11   2    0.991502    0.066400    0.040170    11.00000   -1.20000
AFIX   0
C12   1    0.855951    0.106758    0.153752    11.00000    0.04955    0.04900 =
         0.04883   -0.01084   -0.02293    0.00258
AFIX  43
H12   2    0.889492    0.052404    0.200154    11.00000   -1.20000
AFIX   0
C13   1    0.936196    0.198710   -0.113400    11.00000    0.03129    0.03479 =
         0.04875   -0.01157   -0.01251   -0.01044
C14   1    0.897631    0.189166   -0.182588    11.00000    0.02455    0.03240 =
         0.04622   -0.00500   -0.01103   -0.01328
C15   1    0.953284    0.200414   -0.278151    11.00000    0.02971    0.03101 =
         0.04711   -0.00404   -0.01398   -0.01277
C16   1    1.062172    0.217016   -0.309977    11.00000    0.02928    0.03168 =
         0.05058   -0.00811   -0.01229   -0.01165
C17   1    1.131638    0.219968   -0.405511    11.00000    0.03378    0.04220 =
         0.05194   -0.00778   -0.01018   -0.01744
AFIX  43
H17   2    1.108043    0.208650   -0.451118    11.00000   -1.20000
AFIX   0
C18   1    1.233202    0.239186   -0.432435    11.00000    0.03486    0.05033 =
         0.05637   -0.00994   -0.00413   -0.02045
AFIX  43
H18   2    1.279072    0.241418   -0.496772    11.00000   -1.20000
AFIX   0
C19   1    1.269656    0.255403   -0.366674    11.00000    0.02958    0.05828 =
         0.07748   -0.02206   -0.00620   -0.02255
AFIX  43
H19   2    1.338445    0.271734   -0.387217    11.00000   -1.20000
AFIX   0
C20   1    1.207974    0.248147   -0.273390    11.00000    0.03188    0.05501 =
         0.06967   -0.02286   -0.01124   -0.01817
AFIX  43
H20   2    1.235275    0.256896   -0.228918    11.00000   -1.20000
AFIX   0
C21   1    1.102501    0.227479   -0.241828    11.00000    0.03018    0.03981 =
         0.05878   -0.01391   -0.01180   -0.01391
C22   1    1.038113    0.217895   -0.144918    11.00000    0.03424    0.04877 =
         0.05303   -0.01560   -0.01576   -0.01570
AFIX  43
H22   2    1.066256    0.224954   -0.100186    11.00000   -1.20000
AFIX   0
C23   1    0.903391    0.192082   -0.345858    11.00000    0.02828    0.03530 =
         0.04319   -0.00710   -0.00942   -0.01589
C24   1    0.873475    0.100066   -0.328512    11.00000    0.02807    0.03550 =
         0.03927   -0.00320   -0.00962   -0.01298
C25   1    0.831410    0.080969   -0.389762    11.00000    0.03255    0.03641 =
         0.04389   -0.00662   -0.00946   -0.01651
C26   1    0.813905    0.159480   -0.468348    11.00000    0.03442    0.04872 =
         0.04962   -0.00856   -0.01347   -0.01912
AFIX  43
H26   2    0.786078    0.147566   -0.510800    11.00000   -1.20000
AFIX   0
C27   1    0.836271    0.258837   -0.488382    11.00000    0.02864    0.04510 =
         0.04565   -0.00044   -0.01103   -0.01556
C28   1    0.814218    0.341238   -0.567892    11.00000    0.03814    0.05607 =
         0.05209    0.00289   -0.01822   -0.01826
AFIX  43
H28   2    0.784997    0.329911   -0.609675    11.00000   -1.20000
AFIX   0
C29   1    0.834183    0.437281   -0.585922    11.00000    0.04791    0.04852 =
         0.06168    0.01361   -0.02180   -0.01803
AFIX  43
H29   2    0.819683    0.491841   -0.640219    11.00000   -1.20000
AFIX   0
C30   1    0.876085    0.454857   -0.524019    11.00000    0.04525    0.03927 =
         0.07232    0.00654   -0.01984   -0.01767
AFIX  43
H30   2    0.888455    0.522310   -0.536405    11.00000   -1.20000
AFIX   0
C31   1    0.899568    0.377565   -0.446417    11.00000    0.03921    0.04114 =
         0.06029   -0.00027   -0.01717   -0.01749
AFIX  43
H31   2    0.927912    0.391521   -0.405483    11.00000   -1.20000
AFIX   0
C32   1    0.881528    0.275158   -0.426481    11.00000    0.02917    0.03800 =
         0.04701   -0.00504   -0.01095   -0.01420
C33   1    0.808588   -0.023987   -0.367935    11.00000    0.03731    0.04180 =
         0.04070   -0.00768   -0.00948   -0.02097
C34   1    0.895704   -0.121805   -0.358647    11.00000    0.02919    0.04595 =
         0.10417   -0.02040   -0.01515   -0.01547
AFIX  43
H34   2    0.969558   -0.121382   -0.367799    11.00000   -1.20000
AFIX   0
C35   1    0.875551   -0.219532   -0.336212    11.00000    0.03372    0.03931 =
         0.10451   -0.02027   -0.02215   -0.00810
AFIX  43
H35   2    0.936954   -0.285281   -0.332336    11.00000   -1.20000
AFIX   0
C36   1    0.767943   -0.225031   -0.319015    11.00000    0.03601    0.04068 =
         0.04310   -0.00859   -0.01226   -0.01787
C37   1    0.683137   -0.127038   -0.331200    11.00000    0.03708    0.04441 =
         0.05359   -0.00289   -0.02261   -0.01980
AFIX  43
H37   2    0.609600   -0.127231   -0.323401    11.00000   -1.20000
AFIX   0
C38   1    0.702762   -0.028429   -0.354534    11.00000    0.03940    0.03820 =
         0.05200   -0.00048   -0.02505   -0.01466
AFIX  43
H38   2    0.642181    0.037407   -0.361441    11.00000   -1.20000
AFIX   0
C39   1    0.748221   -0.331374   -0.287287    11.00000    0.03847    0.03909 =
         0.04375   -0.00896   -0.01265   -0.01680
C40   1    0.827961   -0.424605   -0.257744    11.00000    0.05531    0.04164 =
         0.14132    0.00589   -0.05311   -0.02075
AFIX  43
H40   2    0.898255   -0.420794   -0.260671    11.00000   -1.20000
AFIX   0
C41   1    0.808535   -0.524317   -0.223699    11.00000    0.06307    0.04192 =
         0.15414    0.00855   -0.05455   -0.01942
AFIX  43
H41   2    0.864910   -0.587030   -0.202584    11.00000   -1.20000
AFIX   0
C42   1    0.709441   -0.533461   -0.220154    11.00000    0.05816    0.04044 =
         0.06861   -0.00678   -0.02145   -0.02390
AFIX  43
H42   2    0.696074   -0.601671   -0.196824    11.00000   -1.20000
AFIX   0
C43   1    0.630738   -0.442580   -0.250825    11.00000    0.05043    0.05130 =
         0.10711   -0.00795   -0.03314   -0.02666
AFIX  43
H43   2    0.561245   -0.447328   -0.248815    11.00000   -1.20000
AFIX   0
C44   1    0.649746   -0.342488   -0.285190    11.00000    0.04976    0.04425 =
         0.10450   -0.00111   -0.03927   -0.02272
AFIX  43
H44   2    0.593759   -0.280520   -0.307673    11.00000   -1.20000
AFIX   0
C45   1    0.605642    0.014335   -0.131141    11.00000    0.04229    0.06183 =
         0.04033   -0.01085   -0.00612   -0.03381
C46   1    0.646244   -0.096577   -0.100554    11.00000    0.06086    0.05951 =
         0.04669   -0.00642   -0.01069   -0.03658
AFIX  43
H46   2    0.720589   -0.130390   -0.093579    11.00000   -1.20000
AFIX   0
C47   1    0.575337   -0.158826   -0.079835    11.00000    0.08319    0.06929 =
         0.04645   -0.01168   -0.00867   -0.04699
C48   1    0.464911   -0.104903   -0.090049    11.00000    0.06491    0.09126 =
         0.07190   -0.02142   -0.00528   -0.05513
AFIX  43
H48   2    0.415901   -0.145567   -0.076611    11.00000   -1.20000
AFIX   0
C49   1    0.429774    0.001723   -0.118189    11.00000    0.04888    0.08899 =
         0.08624   -0.02709   -0.01050   -0.04272
AFIX  43
H49   2    0.354917    0.037471   -0.123761    11.00000   -1.20000
AFIX   0
PART    1
C50A  1    0.717128   -0.322114   -0.045736    21.00000    0.11203    0.06170 =
         0.07475    0.00361   -0.03207   -0.04154
AFIX  33
H50A  2    0.725080   -0.399763   -0.023912    21.00000   -1.50000
H50B  2    0.771763   -0.310315   -0.108445    21.00000   -1.50000
H50C  2    0.731669   -0.297605   -0.000105    21.00000   -1.50000
AFIX   0
PART    2
C50B  1    0.563955   -0.343311   -0.032606   -21.00000    0.13618    0.08832 =
         0.07825   -0.00435   -0.02443   -0.07654
AFIX  33
H50D  2    0.616973   -0.414603   -0.013903   -21.00000   -1.50000
H50E  2    0.493605   -0.329940    0.019725   -21.00000   -1.50000
H50F  2    0.547144   -0.342094   -0.089363   -21.00000   -1.50000
AFIX   0
PART    0
N1    3    0.666306    0.084385   -0.153976    11.00000    0.03444    0.04567 =
         0.04698   -0.00211   -0.01253   -0.02166
N2    3    0.499222    0.061234   -0.139348    11.00000    0.04174    0.07472 =
         0.06327   -0.01902   -0.00935   -0.03321
AFIX  43
H2N   2    0.474136    0.132206   -0.158911    11.00000   -1.50000
AFIX   0
O1    4    0.793290    0.167850   -0.149415    11.00000    0.02881    0.04302 =
         0.04789   -0.00959   -0.00819   -0.01856
O2    4    0.885605    0.021482   -0.244669    11.00000    0.03749    0.03222 =
         0.04298   -0.00198   -0.01371   -0.01495
O3    4    0.822028   -0.036928   -0.067177    11.00000    0.04990    0.04984 =
         0.04802    0.00399   -0.01969   -0.02571
O4    4    0.610974   -0.265216   -0.052267    11.00000    0.11521    0.07234 =
         0.07591   -0.00071   -0.02177   -0.06271
P1    6    0.796467    0.050035   -0.146424    11.00000    0.03395    0.03948 =
         0.04048   -0.00056   -0.01313   -0.01969
H1N   2    0.632207    0.158709   -0.172067    11.00000    0.04964
MOLE    2
C101  1    0.500311    0.384920    0.651904    11.00000    0.05558    0.07266 =
         0.08561   -0.02537   -0.02870   -0.01386
O101  4    0.558292    0.306435    0.806155    11.00000    0.05610    0.05851 =
         0.09527   -0.00912   -0.04180   -0.02295
O102  4    0.387708    0.460882    0.804962    11.00000    0.05490    0.06339 =
         0.09758   -0.03307   -0.00833   -0.01502
O103  4    0.391941    0.281950    0.804837    11.00000    0.04951    0.06597 =
         0.11812   -0.01793   -0.03180   -0.02715
F101  5    0.556924    0.292106    0.620935    11.00000    0.10386    0.11398 =
         0.11391   -0.06940   -0.02549   -0.01428
F102  5    0.567488    0.446055    0.617360    11.00000    0.09058    0.11778 =
         0.08034   -0.01482   -0.01445   -0.05422
F103  5    0.414483    0.434160    0.615610    11.00000    0.10238    0.12252 =
         0.11359   -0.00687   -0.07315   -0.02662
S101  7    0.453796    0.357281    0.781165    11.00000    0.03739    0.05247 =
         0.07738   -0.01972   -0.01917   -0.01477
MOLE    3
C201  1    0.109837    0.582420    0.874903    11.00000    0.07246    0.18147 =
         0.14435   -0.05261   -0.03100   -0.02761
AFIX  23
H20A  2    0.117865    0.568096    0.939279    11.00000   -1.20000
H20B  2    0.184777    0.581089    0.828111    11.00000   -1.20000
AFIX   0
CL1   8    0.069546    0.476314    0.867856    11.00000    0.21264    0.11571 =
         0.13377   -0.03855   -0.03226   -0.05356
CL2   8    0.020419    0.701658    0.854607    11.00000    0.16205    0.11420 =
         0.30310   -0.03099   -0.08958   -0.04695
HKLF    4
 
REM  SIR2004 run in space group P -1
REM R1 =  0.0713 for    6615 Fo > 4sig(Fo)  and  0.1179 for all   10597 data
REM    627 parameters refined using      0 restraints
 
END
 
WGHT      0.1145      1.0223
 
REM Highest difference peak  0.423,  deepest hole -0.815,  1-sigma level  0.070
Q1    1   0.3619 -0.0504 -0.0989  11.00000  0.05    0.42
Q2    1   0.5210 -0.4647  0.0117  11.00000  0.05    0.35
Q3    1  -0.0043  0.5327  0.9884  11.00000  0.05    0.34
Q4    1  -0.0815  0.6647  0.9126  11.00000  0.05    0.32
Q5    1   0.9473  0.1561 -0.2159  11.00000  0.05    0.29
Q6    1   0.6194 -0.0410 -0.0831  11.00000  0.05    0.28
Q7    1   0.8663  0.0650 -0.2762  11.00000  0.05    0.28
Q8    1   0.6217 -0.3315 -0.2293  11.00000  0.05    0.28
Q9    1   0.8486  0.0294 -0.1979  11.00000  0.05    0.27
Q10   1   0.9024  0.2351 -0.2373  11.00000  0.05    0.27
Q11   1   0.9005  0.2199 -0.1513  11.00000  0.05    0.27
Q12   1   0.8014  0.1072 -0.1038  11.00000  0.05    0.26
Q13   1   0.8161  0.0295 -0.3726  11.00000  0.05    0.26
Q14   1   0.8981  0.2088 -0.0666  11.00000  0.05    0.26
Q15   1   0.8053  0.1350 -0.4185  11.00000  0.05    0.25
Q16   1   0.8058  0.0065 -0.0861  11.00000  0.05    0.25
Q17   1   0.0176  0.5962  0.9861  11.00000  0.05    0.25
Q18   1   0.0930  0.5669  1.0109  11.00000  0.05    0.25
Q19   1   0.4426  0.4161  0.7021  11.00000  0.05    0.25
Q20   1   0.8674  0.1506 -0.3251  11.00000  0.05    0.25
;
_shelx_res_checksum              64750
_shelx_hkl_file
;
   0   0   3 8990.81 396.775   1
   0   0  -3 8993.25 405.883   1
   0   0   447838.30 6253.36   1
   0   0  -443982.30 6014.73   1
   0   0   5 439.585 37.7539   1
   0   0  -5 339.055 39.5538   1
   0   0   6 2007.39 108.978   1
   0   0  -6 1595.19 111.923   1
   0   0   7 492.236  40.266   1
   0   0  -7 597.387 42.2937   1
   0   0  -8 1205.22  57.659   1
   0   0  -9 137.154 66.3147   1
   0   0 -10 1431.96 76.4929   1
   0   0 -11 937.621 107.549   1
   0   0 -12-21.0789 42.4788   1
   0   0 -13  114.12 42.4458   1
   0   0 -14 705.787 97.2475   1
   0   0 -15 56.3918 41.7416   1
   0   0 -16-34.4309 22.2359   1
   0   0 -16-30.9149  41.675   1
   0   0 -17 60.3665 69.3571   1
   0   0 -18-34.3909 42.6728   1
   0   1 -17 91.9827 84.2625   1
   0   1 -16 137.969 48.7832   1
   0   1 -15-9.25599 75.7084   1
   0   1 -14 24.0553 44.6473   1
   0   1 -13 691.352  61.979   1
   0   1 -12 1495.34 148.207   1
   0   1 -11 87.8973 46.8079   1
   0   1 -10 2975.68 142.673   1
   0   1  -9 1828.01 92.0199   1
   0   1  -8-3.65017 35.7228   1
   0   1  -7 2561.58 170.517   1
   0  -1   7 2632.40 106.733   1
   0   1  -6 374.288 38.7885   1
   0  -1   6 331.867 39.0258   1
   0   1  -5 5145.16  210.78   1
   0  -1   5 5834.17 322.493   1
   0   1  -4 5871.46 360.449   1
   0  -1   4 5560.07 223.767   1
   0   1  -3 6877.76  267.67   1
   0  -1   3 7038.83 255.374   1
   0   1  -2 8964.01 393.085   1
   0  -1   2 9142.92 315.143   1
   0   1   2 283.634 6.05727   1
   0  -1  -2  258.95 6.74599   1
   0   1   3 2551.12 51.3142   1
   0  -1  -3 2584.74  53.475   1
   0   1   4135131.053140.40   1
   0  -1  -4134632.050398.90   1
   0   1   537518.40 4217.85   1
   0  -1  -533183.20 4161.87   1
   0   1   617123.20 1197.22   1
   0  -1  -616297.80 987.709   1
   0   1   7 183.794 29.0053   1
   0  -1  -7  304.32 52.4807   1
   0  -1  -8 110.096 31.3688   1
   0  -1  -9  577.58  42.294   1
   0  -1 -10 3614.10 218.031   1
   0  -1 -11 64.2989 37.0676   1
   0  -1 -12  239.64 43.3638   1
   0  -1 -13 71.2442 62.9958   1
   0  -1 -14 198.931 40.0304   1
   0  -1 -15 190.992 28.0245   1
   0  -1 -15 219.495 40.6934   1
   0  -1 -16 41.8326 41.5578   1
   0  -1 -16 99.3104 60.5793   1
   0  -1 -17 19.2353 24.8471   1
   0  -1 -17 24.0558 35.6845   1
   0  -1 -18 88.9522  64.751   1
   0   2 -17 159.516 56.7494   1
   0   2 -16 39.3329 50.9875   1
   0   2 -15 15.5071 84.7069   1
   0   2 -14 162.094 53.2535   1
   0   2 -13 146.861 88.1619   1
   0   2 -12  16.067 46.2195   1
   0   2 -11-7.47028 48.4042   1
   0   2 -10 3289.45 262.581   1
   0   2  -9 2015.42 108.207   1
   0   2  -8 764.157 60.0788   1
   0   2  -7 579.859 82.9383   1
   0   2  -6 8168.14 395.107   1
   0  -2   6 8546.66 396.032   1
   0   2  -5 672.874 83.9685   1
   0  -2   5 795.204  49.929   1
   0   2  -4 4678.55 197.816   1
   0  -2   4 4721.37 195.487   1
   0   2  -3 2402.64 101.252   1
   0  -2   3 2611.47 163.434   1
   0   2  -2 7965.86 422.208   1
   0  -2   2 8109.04 430.666   1
   0   2  -1 5524.60 207.164   1
   0  -2   1 6984.84 241.767   1
   0   2   013404.00 540.961   1
   0   2   015492.90 623.941   1
   0  -2   013202.10 538.644   1
   0   2   1  987.45 23.4433   1
   0  -2  -1 1008.07 23.4941   1
   0   2   313525.20 554.843   1
   0  -2  -314738.50 749.427   1
   0  -2  -314530.40  614.05   1
   0   2   411513.10 577.368   1
   0  -2  -411827.30 650.228   1
   0   2   5 325.974 21.3843   1
   0  -2  -5  276.70 41.4029   1
   0   2   632113.80 3324.49   1
   0  -2  -632267.60 3369.36   1
   0   2   7 791.991 33.3877   1
   0  -2  -7 890.921 58.0014   1
   0  -2  -836062.30 4476.64   1
   0  -2  -9 2288.60 81.9345   1
   0  -2 -10  908.18 48.1556   1
   0  -2 -11  814.59 80.4143   1
   0  -2 -12 637.271 47.6586   1
   0  -2 -13 929.374 50.6864   1
   0  -2 -13 964.843 54.9878   1
   0  -2 -14 21.4181 29.0024   1
   0  -2 -14 67.4412 54.2856   1
   0  -2 -15 140.658 52.0852   1
   0  -2 -15 186.159 33.3322   1
   0  -2 -16 29.5086 28.7865   1
   0  -2 -16-2.43747 31.6564   1
   0  -2 -17 21.7558 28.0739   1
   0  -2 -17 51.4162  54.673   1
   0  -2 -18 98.8971 34.1837   1
   0   3 -17-38.4723 59.3459   1
   0   3 -16 195.437 60.1797   1
   0   3 -15  96.669 56.1053   1
   0   3 -14 131.275 54.9012   1
   0   3 -13-60.3785 91.4012   1
   0   3 -12 104.057 52.9355   1
   0   3 -11 507.064 65.5113   1
   0   3 -10 2678.38 247.241   1
   0   3  -9 278.846 53.8167   1
   0   3  -8 467.257  57.897   1
   0   3  -7 230.617 44.1669   1
   0   3  -6 2434.26 105.792   1
   0   3  -516638.50 1374.18   1
   0  -3   517293.10 1122.13   1
   0   3  -4 568.869  45.396   1
   0  -3   4  576.48 45.3186   1
   0   3  -3 195.803 38.3996   1
   0  -3   3 150.372 37.3085   1
   0   3  -2 5970.04 201.298   1
   0   3  -2 5652.39 330.311   1
   0  -3   2 5340.11 220.535   1
   0   3  -1 1428.21 53.7326   1
   0  -3   1 928.939 36.7573   1
   0   3   0 652.713 27.0256   1
   0   3   0  833.68 31.6218   1
   0  -3   0  782.77 47.7028   1
   0   3   1 72.3196 38.8419   1
   0   3   1 80.2589 23.5156   1
   0  -3  -1 37.8087 20.0886   1
   0   3   2 2860.99 129.759   1
   0   3   2 2548.33 45.0115   1
   0  -3  -2 2500.69  76.929   1
   0  -3  -3 27.4492 50.6698   1
   0  -3  -4 1008.57 48.4931   1
   0  -3  -4 992.956 25.8171   1
   0   3   5 2352.81 55.3819   1
   0  -3  -5 2359.32 83.3661   1
   0  -3  -5 2434.74 56.4634   1
   0   3   6 2215.06 45.2202   1
   0  -3  -6 1944.68 75.2228   1
   0  -3  -6 2159.42 62.8265   1
   0  -3  -7 185.091 30.3337   1
   0  -3  -7 199.849 30.6587   1
   0  -3  -8 1272.52 39.7688   1
   0  -3  -9 1308.35 44.1605   1
   0  -3 -10  522.84  43.108   1
   0  -3 -10 602.497 33.2564   1
   0  -3 -11 58.1927  32.601   1
   0  -3 -11  -27.99 45.7159   1
   0  -3 -12 2958.18 125.271   1
   0  -3 -12 3044.09  156.02   1
   0  -3 -13 82.6106  36.058   1
   0  -3 -13 105.946 27.9857   1
   0  -3 -14 573.148 71.5294   1
   0  -3 -14 572.019 36.5349   1
   0  -3 -15 226.514 36.9069   1
   0  -3 -15  278.94  50.509   1
   0  -3 -16 573.826 45.4569   1
   0  -3 -16 511.931 39.0969   1
   0  -3 -17 133.307 57.1278   1
   0  -3 -17 88.8303 30.0657   1
   0  -3 -18 21.6151 31.2909   1
   0  -3 -18 105.136 48.2217   1
   0   4 -16 186.113 110.409   1
   0   4 -15-27.2558 58.2724   1
   0   4 -14 104.253  58.634   1
   0   4 -13 418.266 114.705   1
   0   4 -12 625.691 72.7288   1
   0   4 -11 46.4379  53.029   1
   0   4 -10 2.97367 94.7685   1
   0   4  -9  46.849 53.0842   1
   0   4  -8 755.578  71.203   1
   0   4  -7 424.295 95.3527   1
   0   4  -6  58.256 40.2319   1
   0   4  -5 168.561 38.3791   1
   0   4  -4 1074.16 100.382   1
   0   4  -3 6238.62 204.703   1
   0   4  -3 5819.58 242.962   1
   0   4  -2 1277.95 53.7159   1
   0   4  -2 1195.17  58.183   1
   0   4  -1 3375.35 91.6739   1
   0   4  -1 3295.74 190.076   1
   0  -4   1 3431.18 132.681   1
   0   4   024769.70 2027.89   1
   0   4   023839.00 1846.37   1
   0  -4   021900.30 1586.35   1
   0   4   1 2730.22 131.436   1
   0   4   1 2401.36   64.40   1
   0  -4  -1 2569.81 127.305   1
   0   4   2 76.4009 30.0855   1
   0   4   2  23.398 16.2596   1
   0   4   2  15.173 11.8938   1
   0  -4  -2-20.2345 27.5286   1
   0   4   3 8855.15 377.013   1
   0   4   3 8801.07 256.778   1
   0  -4  -3 8493.76 362.283   1
   0  -4  -4 9692.79  422.25   1
   0  -4  -5 241.692 31.1516   1
   0  -4  -5 248.193 6.03916   1
   0  -4  -6 15.1601 28.8946   1
   0  -4  -6 43.1652 12.3623   1
   0  -4  -7 626.958 72.3001   1
   0  -4  -7 698.729 26.7509   1
   0  -4  -8 2738.93 166.635   1
   0  -4  -8 2948.23 85.3736   1
   0  -4  -9  130.02  59.755   1
   0  -4  -9   86.09 16.5149   1
   0  -4 -10 77.0161 61.5038   1
   0  -4 -10 46.8754 31.4464   1
   0  -4 -11 749.745  87.244   1
   0  -4 -11 762.611 50.8356   1
   0  -4 -12 962.638 100.991   1
   0  -4 -12 955.008  37.624   1
   0  -4 -13 193.833 37.1219   1
   0  -4 -13 131.598 22.9912   1
   0  -4 -14-7.68809 34.6555   1
   0  -4 -14  26.798 20.9202   1
   0  -4 -15 11.7863 35.1206   1
   0  -4 -15 29.0656 37.3368   1
   0  -4 -16 867.435 94.5013   1
   0  -4 -16 831.705 62.9779   1
   0  -4 -17 7.71739 37.1485   1
   0  -4 -17 23.9626 21.6666   1
   0  -4 -17 39.2963 25.1818   1
   0  -4 -18 265.829 40.3548   1
   0  -4 -18 224.441 45.9794   1
   0   5 -16-30.2248 111.241   1
   0   5 -15 1.28007 64.1402   1
   0   5 -14 123.876 64.1684   1
   0   5 -13 149.228 106.806   1
   0   5 -12 365.101 67.0566   1
   0   5 -11 12.8541 55.8839   1
   0   5 -10 92.0724 97.8856   1
   0   5  -9 46.8954 56.0743   1
   0   5  -8 1012.40 85.9876   1
   0   5  -7 1661.71 168.545   1
   0   5  -6 227.504  49.435   1
   0   5  -5 898.382 25.6142   1
   0   5  -5  810.07 59.6158   1
   0   5  -4 4691.62 116.527   1
   0   5  -4 4312.07  274.12   1
   0   5  -3 1153.16 47.3561   1
   0   5  -3 1014.72 57.7863   1
   0   5  -2 2207.71 52.3533   1
   0   5  -2 2011.27 83.5755   1
   0   5  -116135.20 958.697   1
   0   5  -115468.30  929.02   1
   0  -5   117148.30 1022.11   1
   0   5   0 245.721  25.231   1
   0   5   0 272.249  27.018   1
   0  -5   0 306.985 24.4986   1
   0   5   1 2307.98 111.335   1
   0   5   1 2309.53 91.9651   1
   0  -5  -1 2206.92 106.749   1
   0   5   2 78.9612 26.4397   1
   0   5   2 58.1977 10.4035   1
   0   5   2 71.5933 23.5886   1
   0  -5  -2 67.9088 24.0817   1
   0   5   3 2276.65 78.8168   1
   0   5   3 2247.51 45.4986   1
   0  -5  -3 1984.12 72.9091   1
   0  -5  -4  8.3749 28.1627   1
   0  -5  -5 4344.85  154.33   1
   0  -5  -6 2400.26 87.8323   1
   0  -5  -7 378.319  69.213   1
   0  -5  -7 496.197 14.3298   1
   0  -5  -8 6800.29 308.927   1
   0  -5  -8 7259.74 206.261   1
   0  -5  -9 1119.10 66.1574   1
   0  -5  -9 1205.22  24.974   1
   0  -5 -10 1318.48 73.1321   1
   0  -5 -10 1328.76 30.9243   1
   0  -5 -11 175.133 41.9061   1
   0  -5 -11 181.408 28.6113   1
   0  -5 -12 177.478 42.0023   1
   0  -5 -13 217.104 42.3519   1
   0  -5 -13 248.474  31.456   1
   0  -5 -14 37.4324 62.9798   1
   0  -5 -14 9.97216 28.2597   1
   0  -5 -15 108.415 37.2872   1
   0  -5 -15 8.85561 15.6788   1
   0  -5 -15-1.91494 29.8403   1
   0  -5 -16  53.874  40.197   1
   0  -5 -16 34.7964 28.5465   1
   0  -5 -16 146.413  19.239   1
   0  -5 -17 349.648 46.3268   1
   0  -5 -17 229.945 33.3778   1
   0  -5 -17 278.707 23.5067   1
   0  -5 -18 59.6684 66.9902   1
   0   6 -15  6.0263  69.743   1
   0   6 -14-30.3566 66.7875   1
   0   6 -13 31.9282 105.556   1
   0   6 -12 2.48188 58.5446   1
   0   6 -11 640.218 79.7117   1
   0   6 -10 302.437  113.26   1
   0   6  -9 850.898 83.1358   1
   0   6  -8 537.966  70.579   1
   0   6  -7 63.7165 16.7022   1
   0   6  -7 31.7652 52.5453   1
   0   6  -6 3368.73 83.5329   1
   0   6  -6 3459.69 267.567   1
   0   6  -5 57.2285 17.3541   1
   0   6  -5 67.6796 43.8554   1
   0   6  -4 2025.22 51.1854   1
   0   6  -4 1981.75 96.4582   1
   0   6  -3 2940.44 73.1014   1
   0   6  -3 2761.57 179.009   1
   0   6  -210438.90 424.948   1
   0   6  -210300.40 673.591   1
   0   6  -1  367.32 38.3668   1
   0   6  -1  285.95 32.1512   1
   0  -6   1 386.649 40.2437   1
   0   6   0 1610.53 75.4182   1
   0  -6   0 1275.45  45.495   1
   0   6   113560.80 754.848   1
   0   6   110828.10  590.01   1
   0  -6  -112434.70 588.162   1
   0   6   2 1334.26  81.608   1
   0   6   2 1134.16 25.9453   1
   0   6   2 1195.19 49.0579   1
   0  -6  -2 1215.61 46.9716   1
   0   6   3 2506.39 130.868   1
   0   6   3 2118.15  46.965   1
   0   6   3 2268.51 42.3151   1
   0  -6  -3 2084.34 72.3744   1
   0   6   4 5478.34 117.577   1
   0  -6  -4 5371.84 198.057   1
   0  -6  -5 141.498 32.8003   1
   0  -6  -6 4306.11 163.114   1
   0  -6  -7 283.001 39.7673   1
   0  -6  -8 348.795 43.9065   1
   0  -6  -9 1936.34 92.8555   1
   0  -6  -9 1863.04 28.4199   1
   0  -6 -10 1203.32 71.2292   1
   0  -6 -10 1105.90 23.9123   1
   0  -6 -10 1144.46 25.6065   1
   0  -6 -11 44.6909 41.2076   1
   0  -6 -11 21.0433 13.8675   1
   0  -6 -11-0.02401 9.31268   1
   0  -6 -12 2375.98 104.875   1
   0  -6 -12 2086.05 52.7153   1
   0  -6 -12 2141.31 43.7911   1
   0  -6 -13-22.8926 39.2164   1
   0  -6 -13 43.8589 17.2966   1
   0  -6 -13 31.1918 19.3049   1
   0  -6 -14 63.0619 40.9148   1
   0  -6 -14 89.6614 19.6598   1
   0  -6 -14 87.9938 22.2999   1
   0  -6 -15 395.561 47.8063   1
   0  -6 -15 312.788 25.8757   1
   0  -6 -16 50.5486 40.7857   1
   0  -6 -16 5.88782 20.5245   1
   0  -6 -16 5.61438 22.3159   1
   0  -6 -17 221.364 78.5573   1
   0  -6 -18  41.336 43.3506   1
   0   7 -14 139.334 74.9093   1
   0   7 -13 295.012 76.8504   1
   0   7 -12 102.658 14.0916   1
   0   7 -12  232.45 109.915   1
   0   7 -11 101.775 23.5679   1
   0   7 -11 114.362  62.503   1
   0   7 -10 316.857 27.1216   1
   0   7 -10 308.532 68.7293   1
   0   7  -9 948.831 27.7015   1
   0   7  -9 1058.81 151.396   1
   0   7  -8 9.72708 24.9634   1
   0   7  -8 67.3657 54.1373   1
   0   7  -7 467.664 22.4057   1
   0   7  -7 479.827 65.9379   1
   0   7  -6 134.845  29.983   1
   0   7  -6 43.0654 53.1187   1
   0   7  -5 2499.92 91.9077   1
   0   7  -5 2290.85 203.876   1
   0   7  -4 450.979 39.3535   1
   0   7  -4  420.93  50.879   1
   0   7  -3  52.891 19.9007   1
   0   7  -3  21.156 38.6641   1
   0   7  -2 2464.18  66.851   1
   0   7  -2 2492.48 97.8602   1
   0   7  -1 3275.63 94.3881   1
   0   7  -1 3035.18 110.079   1
   0  -7   1 3162.14 91.2694   1
   0   7   0  71.425 25.1454   1
   0   7   0 53.4838 44.3078   1
   0  -7   0 114.599 25.3957   1
   0   7   1 1465.02  52.296   1
   0   7   1 1255.46 42.8042   1
   0  -7  -1 1373.73 50.3971   1
   0   7   221087.80 1454.53   1
   0   7   218421.30 1124.45   1
   0   7   218044.00 1217.82   1
   0  -7  -221154.30 1650.24   1
   0   7   3  191.36 58.6804   1
   0   7   3 153.289 19.5606   1
   0   7   3 155.375  24.402   1
   0  -7  -3  185.14 55.1592   1
   0   7   4  316.76  38.125   1
   0   7   4 287.287 12.3296   1
   0   7   4 303.497  16.547   1
   0  -7  -4 250.659 33.8772   1
   0  -7  -5 1987.21 82.3097   1
   0  -7  -6-2.26545 60.8707   1
   0  -7  -7 1683.54 82.6922   1
   0  -7  -8 465.625 51.2091   1
   0  -7  -9 86.9724  76.462   1
   0  -7 -10 1883.03 165.725   1
   0  -7 -11 963.308 114.475   1
   0  -7 -12 459.883 82.5405   1
   0  -7 -12 304.014 9.53611   1
   0  -7 -13-27.2419 69.3639   1
   0  -7 -13 3.44687 8.93196   1
   0  -7 -13 1.05159 9.79419   1
   0  -7 -14  213.80  77.331   1
   0  -7 -14  173.96 8.28308   1
   0  -7 -14 185.334 13.9921   1
   0  -7 -15-41.0306 75.0493   1
   0  -7 -16 582.335 60.9215   1
   0  -7 -17 73.5758 47.3926   1
   0  -7 -18 40.8807 46.4731   1
   0   8 -13-6.32099 71.7928   1
   0   8 -12 40.5672 114.152   1
   0   8 -11-13.6325 20.9031   1
   0   8 -11-53.6455 61.5651   1
   0   8 -10 37.0982 22.8792   1
   0   8 -10 86.1251 58.4003   1
   0   8  -9 254.996 27.0276   1
   0   8  -9 476.407 65.9416   1
   0   8  -8 196.006 16.7807   1
   0   8  -8 253.271  102.02   1
   0   8  -7 1393.03 56.2912   1
   0   8  -7 1581.27 102.304   1
   0   8  -6 196.862 19.2192   1
   0   8  -6 191.598 56.3932   1
   0   8  -5  101.26 19.6213   1
   0   8  -5 76.6505 49.8557   1
   0   8  -4 1086.07 58.7465   1
   0   8  -4  826.28 122.006   1
   0   8  -3 455.555 25.5971   1
   0   8  -3 482.112 84.7027   1
   0   8  -2 835.326 36.2379   1
   0   8  -2 884.274 53.8249   1
   0   8  -1  141.86  44.649   1
   0   8  -1 150.978 32.8097   1
   0  -8   1 122.109 25.0868   1
   0   8   0 819.002 66.0889   1
   0   8   0  742.93  40.067   1
   0  -8   0 759.745 60.5609   1
   0   8   1 3680.14 126.053   1
   0   8   1 3425.62 111.787   1
   0  -8  -1 3909.48 130.084   1
   0   8   2 26.7328 30.8479   1
   0   8   2 7.16996 26.3941   1
   0   8   2 32.0081 33.2847   1
   0  -8  -2 5.71847 29.2158   1
   0   8   3 1896.66 123.526   1
   0   8   3 1664.33  35.158   1
   0   8   3 1783.65 42.0147   1
   0  -8  -3 1862.33 74.9766   1
   0   8   4 421.727 47.1252   1
   0   8   4 436.939 12.1765   1
   0   8   4 429.392 24.7954   1
   0  -8  -4 437.073  69.545   1
   0   8   5 984.721 15.9628   1
   0  -8  -5 1119.66 57.3917   1
   0  -8  -6 3032.40 131.497   1
   0  -8  -7 715.898 57.1957   1
   0  -8  -8 232.434 81.7031   1
   0  -8  -9 2541.07 130.825   1
   0  -8 -10 341.018 53.7774   1
   0  -8 -11 956.891 72.6551   1
   0  -8 -12 6.12064 43.1777   1
   0  -8 -13-48.2548   44.99   1
   0  -8 -14 19.9636 45.7956   1
   0  -8 -15 65.2717 47.0608   1
   0  -8 -16-3.70887 47.4609   1
   0  -8 -17-13.7608 82.5314   1
   0   9 -13 28.0731 75.8603   1
   0   9 -12 179.506  77.485   1
   0   9 -10 40.0446  19.571   1
   0   9 -10 11.0486 60.2978   1
   0   9  -9-32.0263 21.4863   1
   0   9  -9 43.9735 57.9786   1
   0   9  -8 19.6727 24.0086   1
   0   9  -8  115.15 55.3688   1
   0   9  -7 95.1432 16.3348   1
   0   9  -7 201.651  94.754   1
   0   9  -6  263.04  33.001   1
   0   9  -6  297.14 56.5451   1
   0   9  -5 775.311 29.2953   1
   0   9  -5 837.672 70.6446   1
   0   9  -4 2962.69 125.016   1
   0   9  -4 2677.74 149.394   1
   0   9  -3 5655.26 208.858   1
   0   9  -3 5523.04 281.242   1
   0   9  -2 3684.44 166.438   1
   0   9  -2 3172.83  227.46   1
   0   9  -1 1414.09 53.1814   1
   0   9  -1 1284.23 104.784   1
   0   9   0 107.787 29.2941   1
   0   9   0 160.223 51.6386   1
   0  -9   0 121.456 26.9641   1
   0   9   1 25.5416 53.3926   1
   0   9   1 87.2405 25.7664   1
   0  -9  -1 75.9724 30.1452   1
   0   9   2 154.411 34.8876   1
   0   9   2 139.777 31.5244   1
   0   9   2 158.696 21.9904   1
   0  -9  -2 124.561 32.2587   1
   0   9   3-55.8433 34.6829   1
   0   9   3 8.26063 22.5041   1
   0   9   3-14.8082 27.8533   1
   0  -9  -3-3.22715 32.0085   1
   0   9   4  764.40 26.8407   1
   0   9   4 856.016 33.6234   1
   0  -9  -4 914.203 53.1812   1
   0   9   5 173.799 12.3075   1
   0  -9  -5 8.57706 70.4685   1
   0  -9  -6 2045.26 94.9163   1
   0  -9  -7 1163.37 115.431   1
   0  -9  -8 244.692 50.0159   1
   0  -9  -9 516.582 59.3765   1
   0  -9 -10 1467.68 91.8723   1
   0  -9 -11 126.013  86.818   1
   0  -9 -15 165.301 85.8963   1
   0  -9 -16-96.8902 87.4599   1
   0  -9 -17 30.5822 51.3206   1
   0  10 -12 66.5057 75.5206   1
   0  10 -11 166.649 73.5993   1
   0  10 -10-27.9459 105.972   1
   0  10  -9 40.5087  11.931   1
   0  10  -9 159.058 58.1039   1
   0  10  -8 27.5582 13.3725   1
   0  10  -8 56.4549 54.3674   1
   0  10  -7 24.8514 23.5159   1
   0  10  -7-22.1922 51.4934   1
   0  10  -6 255.591  32.485   1
   0  10  -6 389.281 93.8728   1
   0  10  -5 186.694 20.2209   1
   0  10  -5 102.851 83.8613   1
   0  10  -4 564.578 44.8256   1
   0  10  -4 494.989 54.7426   1
   0  10  -3 899.998 37.6645   1
   0  10  -3 797.579 62.3537   1
   0  10  -2 209.861 48.9132   1
   0  10  -2 177.321  41.806   1
   0  10  -1 3700.86 131.418   1
   0  10  -1 3349.22  147.33   1
   0  10   0 1301.03 94.2839   1
   0  10   0 1229.22 59.6949   1
   0 -10   0 1328.17 91.4994   1
   0  10   1 725.347 48.6942   1
   0  10   1 609.149 34.1214   1
   0  10   1 746.601 64.4184   1
   0 -10  -1 775.002 77.2957   1
   0  10   2 248.565 63.0815   1
   0  10   2 76.8302 19.7604   1
   0  10   2 25.8242 39.3097   1
   0 -10  -2 248.212 58.3889   1
   0  10   3 115.602 36.5878   1
   0  10   3 21.3011 25.1895   1
   0  10   3 60.1361 30.8698   1
   0 -10  -3 6.40802 58.9417   1
   0  10   4 300.501  22.156   1
   0  10   4 325.317 27.7643   1
   0 -10  -4 357.689 41.3673   1
   0  10   5 154.317 11.9956   1
   0  10   5 151.881 14.7105   1
   0 -10  -5 163.486 40.8612   1
   0 -10  -6-12.9746 39.4642   1
   0 -10  -7 159.181 42.7194   1
   0 -10  -8 236.015 45.6688   1
   0 -10  -9 155.079 78.4851   1
   0 -10 -11 296.853 56.6491   1
   0 -10 -12 118.732 51.4945   1
   0 -10 -13 133.813  52.109   1
   0 -10 -14 460.426 64.2171   1
   0 -10 -15 45.0293 53.1061   1
   0 -10 -16  38.914 54.0527   1
   0  11 -10 77.4268 67.1352   1
   0  11  -9 435.547  125.55   1
   0  11  -8  -7.288 21.2723   1
   0  11  -8 128.197 54.9557   1
   0  11  -7-1.92638 25.1475   1
   0  11  -7 75.9882 51.2836   1
   0  11  -6 50.4866 28.6302   1
   0  11  -6 47.6942 48.8553   1
   0  11  -5 47.7027 18.9366   1
   0  11  -5 169.971 45.4958   1
   0  11  -4 148.036 35.9808   1
   0  11  -4 86.4727 42.6885   1
   0  11  -3-5.70605 36.1621   1
   0  11  -3 95.3614 63.2331   1
   0  11  -2 65.8285 24.2869   1
   0  11  -2 78.2552 60.8275   1
   0  11  -1 557.258  60.096   1
   0  11  -1 476.179  70.367   1
   0  11   0 523.014 40.4199   1
   0  11   0 517.008 33.8024   1
   0  11   0  439.37 63.2204   1
   0 -11   0  558.02 37.5997   1
   0  11   1  792.52 49.2143   1
   0  11   1 696.987 56.8039   1
   0  11   1 729.224 39.4688   1
   0 -11  -1 836.945 44.5983   1
   0  11   2 27.8335 34.1566   1
   0  11   2 44.4148 31.3279   1
   0  11   2 5.01986 21.3294   1
   0 -11  -2 42.7558 33.1371   1
   0  11   3 866.572 56.1772   1
   0  11   3 776.921  25.712   1
   0  11   3 823.838 30.0622   1
   0 -11  -3 908.485 52.8332   1
   0  11   4 321.236 23.9134   1
   0  11   4 329.938 28.1236   1
   0 -11  -4 449.376 71.6008   1
   0  11   5 2149.60 51.0916   1
   0 -11  -5 2567.83 105.585   1
   0 -11  -6  312.22 46.1053   1
   0 -11  -7 557.863 55.1218   1
   0 -11  -8-27.6609 70.4879   1
   0 -11  -9 -39.896 43.2464   1
   0 -11 -10 1433.92 90.8828   1
   0 -11 -11 400.061 58.2816   1
   0 -11 -12 136.925 51.2409   1
   0  12  -9 -45.598 62.7856   1
   0  12  -8 296.007 66.0391   1
   0  12  -7 74.8141 91.5387   1
   0  12  -6 66.9142 27.7146   1
   0  12  -6 15.6527 49.7229   1
   0  12  -5 38.5104 18.8548   1
   0  12  -5   25.18 45.6726   1
   0  12  -4 37.7148 20.5141   1
   0  12  -4 54.1916 41.8755   1
   0  12  -3 303.593 44.3351   1
   0  12  -3 307.474 44.2826   1
   0  12  -2 416.772 51.3654   1
   0  12  -2 387.943 38.3708   1
   0  12  -2 387.244 42.8188   1
   0  12  -1 7.36464 26.6375   1
   0  12  -1-4.35567  27.424   1
   0  12  -1-40.0016 30.3503   1
   0  12   0 299.297 55.9303   1
   0  12   0 239.743 47.6315   1
   0  12   0 252.833 31.3617   1
   0  12   1 133.422 33.4174   1
   0  12   1 97.4834 22.9829   1
   0  12   1 168.953 43.0034   1
   0 -12  -1 112.103 49.6736   1
   0  12   2 25.7872 33.9211   1
   0  12   2 64.1475 18.4123   1
   0  12   2 27.5238 21.1551   1
   0 -12  -2 15.9409 51.7451   1
   0  12   3 94.0017 15.9014   1
   0  12   3 68.4348 30.3985   1
   0 -12  -3 136.685  35.919   1
   0  12   4 235.561 22.4739   1
   0  12   4 237.172 25.8396   1
   0 -12  -4 271.557 40.3924   1
   0  12   5 36.2131 13.1629   1
   0  12   5 29.5383 8.85237   1
   0 -12  -5 43.8052  61.855   1
   0 -12  -6-52.0645 38.8265   1
   0 -12  -7 460.369 87.1415   1
   0 -12  -8 392.172 53.5608   1
   0 -12  -9 392.925 56.7582   1
   0 -12 -12 76.5341 52.0072   1
   0 -12 -13-33.6736 55.0781   1
   0 -12 -14 12.0257 55.7621   1
   0 -12 -15 34.5196 55.5636   1
   0  13  -7 31.0416 47.9203   1
   0  13  -7-9.65962 55.3226   1
   0  13  -6 -88.313 44.5945   1
   0  13  -6 28.3705 51.5327   1
   0  13  -5-30.3871 18.6566   1
   0  13  -5-16.2502 40.3896   1
   0  13  -5-22.0993 78.3817   1
   0  13  -4 21.4433 20.1942   1
   0  13  -4 53.4583 37.1361   1
   0  13  -4-76.5066 70.1667   1
   0  13  -3 23.0993 22.3612   1
   0  13  -3 24.2397  33.499   1
   0  13  -3-8.50646 64.2585   1
   0  13  -2 126.803 26.7625   1
   0  13  -2 86.6727 54.9304   1
   0  13  -2 165.712 61.9969   1
   0  13  -1 94.1401 46.1157   1
   0  13  -1 26.8524 47.4503   1
   0  13  -1-67.1957 53.4128   1
   0  13   0 269.886 35.4043   1
   0  13   0 257.571   29.74   1
   0  13   0 273.246 32.8233   1
   0  13   1  491.06 42.0349   1
   0  13   1 464.815 47.2501   1
   0  13   1 425.346 32.8419   1
   0 -13  -1 481.473 39.4118   1
   0  13   2 83.0056 32.2184   1
   0  13   2 87.5947 36.4369   1
   0 -13  -2 100.233 32.3118   1
   0  13   3 272.769  30.169   1
   0  13   3 276.321 20.6389   1
   0 -13  -3 309.324 67.7079   1
   0  13   4  1.5527 11.9232   1
   0  13   4 12.6699 12.6578   1
   0 -13  -4 13.5699 36.3898   1
   0  13   5-4.22337 13.6295   1
   0  13   5 12.7813 14.5049   1
   0 -13  -5-20.0368 36.8899   1
   0 -13  -6 83.1533 69.4796   1
   0 -13  -7-47.3653 41.7614   1
   0 -13  -8 88.0624 46.1275   1
   0 -13 -10-53.5859 50.1282   1
   0 -13 -11 344.753 61.9076   1
   0 -13 -12 44.1343 56.5097   1
   0 -13 -13 442.863 75.2381   1
   0  14  -6 136.018 54.5109   1
   0  14  -5 15.0823 43.2006   1
   0  14  -5  53.823 47.7732   1
   0  14  -4-12.9188 33.5129   1
   0  14  -4-59.6744 62.1557   1
   0  14  -4 6.00925 42.4842   1
   0  14  -3 50.2638 22.7965   1
   0  14  -3-16.7369 57.6521   1
   0  14  -3-41.4968 39.1248   1
   0  14  -2 50.5174 25.4631   1
   0  14  -2 43.7666 30.9332   1
   0  14  -2 36.2537 34.7369   1
   0  14  -1 66.3226 28.0489   1
   0  14  -1  55.632 28.3055   1
   0  14  -1 66.8178 31.3298   1
   0  14   0  98.723 42.8915   1
   0  14   0 107.553 28.4351   1
   0  14   1 71.9774 22.5649   1
   0  14   1  86.525 40.7412   1
   0  14   2 353.216 23.6859   1
   0  14   2 344.635 25.1669   1
   0 -14  -2 436.342 39.0349   1
   0  14   3-5.99825 15.3161   1
   0  14   3 51.8865 26.2116   1
   0 -14  -3  28.782 32.3727   1
   0  14   4 46.7264 20.0796   1
   0  14   4  15.175 21.3885   1
   0 -14  -4 0.79119 37.3184   1
   0  14   5 245.424 11.6038   1
   0 -14  -5 408.199 46.0497   1
   0 -14  -6-21.0957  40.385   1
   0 -14  -7-29.7002 42.6322   1
   0 -14  -8 13.6975 44.0932   1
   0 -14  -9 65.3383 48.4658   1
   0 -14 -10 98.3096 54.3159   1
   0  15  -3-50.6593 35.4957   1
   0  15  -3 37.5675 66.2475   1
   0  15  -2-54.0737 53.4486   1
   0  15  -2 121.768 57.3575   1
   0  15  -1-15.9818 27.8467   1
   0  15  -1 13.2719 50.3615   1
   0  15   0 48.3071  24.505   1
   0  15   0-28.3068 26.5154   1
   0  15   1 28.0738 21.9988   1
   0  15   1 57.9888 24.0806   1
   0  15   2 66.7458 31.5973   1
   0  15   2 36.6605  32.319   1
   0 -15  -2 1.67559 32.9846   1
   0  15   3 13.4309 25.9064   1
   0  15   3 37.4983 15.9417   1
   0 -15  -3 53.3361 58.3915   1
   0 -15  -4-44.3487 35.7857   1
   0 -15  -5 28.3191   41.89   1
   0 -15  -6 191.947 48.6998   1
   0 -15  -7 -28.164 44.4186   1
   0 -15  -8 93.0939 47.6644   1
   0 -15  -9-104.576 87.4263   1
   0 -15 -10 230.876 58.7411   1
   0  16   1-4.68632   35.34   1
   0  16   1 2.50848 22.2112   1
   0  16   2  8.9214 18.8563   1
   0  16   2 5.02403  19.275   1
   0 -16  -3 29.4786 36.1477   1
   0 -16  -4 27.8638 61.1435   1
   0 -16  -5 17.8412 39.8976   1
   0 -16  -6 83.9593 77.2364   1
   0 -16  -7-94.9766 48.7196   1
   1 -15  -8  169.65  96.017   1
   1 -15  -7 83.9484 51.2852   1
   1 -15  -6-3.85812 80.6772   1
   1 -15  -5 100.229  44.682   1
   1 -15  -4  53.638  67.688   1
   1 -15  -3 124.567 41.3201   1
  -1  15   2 54.2971 28.3224   1
  -1  15   2-6.44098 28.8284   1
  -1  15   1-16.9072 32.9726   1
  -1  15   1 22.2025 20.0516   1
  -1  15   0 199.761 38.2499   1
  -1  15   0  167.26 25.8837   1
  -1  15   0  153.63 43.5092   1
  -1  15  -1 30.3545 32.2906   1
  -1  15  -1 82.5546 44.7222   1
  -1  15  -1 44.2918 27.8277   1
  -1  15  -2-34.6531 29.2079   1
  -1  15  -2-48.2742 29.9379   1
  -1  15  -2 20.1429 30.7705   1
   1 -14 -11-47.8186 57.7498   1
   1 -14 -10 122.291 96.3101   1
   1 -14  -9 92.8554  54.039   1
   1 -14  -8 81.3775 49.0377   1
   1 -14  -7 15.5377 77.2772   1
   1 -14  -6-33.3605 45.6907   1
   1 -14  -5 119.369 45.6519   1
   1 -14  -4 128.484 39.9528   1
   1 -14  -3 -6.7027 59.6461   1
  -1  14   3 21.6606 13.6398   1
  -1  14   3 39.0141 23.4132   1
   1 -14  -2 16.8873 34.7559   1
  -1  14   2 -0.7449 27.6102   1
  -1  14   2-5.22358  16.976   1
  -1  14   1 116.901 38.5413   1
  -1  14   1 115.612 21.1856   1
  -1  14   1 106.664 22.0931   1
  -1  14   0 19.8186 34.1006   1
  -1  14   0 3.24796 23.8103   1
  -1  14   0 41.0709 24.2903   1
  -1  14  -1 123.689 55.2518   1
  -1  14  -1 102.914 28.1885   1
  -1  14  -1 84.0719  50.876   1
  -1  14  -2 87.2464 29.7945   1
  -1  14  -2 26.5392 51.5337   1
  -1  14  -2  85.875 33.4109   1
  -1  14  -3 95.2048 28.0348   1
  -1  14  -3 106.587 34.9614   1
  -1  14  -3 82.3456 38.2908   1
  -1  14  -4 84.5547 26.1925   1
  -1  14  -4 91.1154 38.0363   1
  -1  14  -4  130.64 41.7855   1
  -1  14  -5 51.8373 23.0303   1
  -1  14  -5 120.158 40.0569   1
  -1  14  -5-3.15814 45.2044   1
   1 -13 -11 62.3504 56.9951   1
   1 -13 -10 77.9615 53.0291   1
   1 -13  -9 23.5796  49.751   1
   1 -13  -8 96.1895 82.8139   1
   1 -13  -7    0.77 43.5484   1
   1 -13  -6 50.7106  42.566   1
   1 -13  -5 51.4069 42.1141   1
  -1  13   5-3.63172 5.16393   1
  -1  13   5-0.79707 9.04278   1
   1 -13  -4 143.365  42.643   1
  -1  13   4 127.406 11.0682   1
  -1  13   4 122.737  18.983   1
   1 -13  -3 70.9546 35.7424   1
  -1  13   3 1.43229 39.2947   1
  -1  13   3 39.0355 13.5539   1
  -1  13   3 8.13411 23.1155   1
   1 -13  -2 192.323 62.6643   1
  -1  13   2 132.354 40.7933   1
  -1  13   2 129.802 18.2302   1
  -1  13   2 134.329 31.4809   1
  -1  13   1 2.31128 61.4909   1
  -1  13   1 5.90857 20.9643   1
  -1  13   1 50.4219 35.0229   1
  -1  13   0 207.846  38.002   1
  -1  13   0 197.129 44.0299   1
  -1  13   0 196.814 28.2564   1
  -1  13  -1 90.7253 32.4632   1
  -1  13  -1 105.934 27.7034   1
  -1  13  -1  132.04 30.3996   1
  -1  13  -2 95.4694 48.5227   1
  -1  13  -2 18.0339 29.8629   1
  -1  13  -2 65.6443 32.5276   1
  -1  13  -3-3.90411 43.5163   1
  -1  13  -3 50.9316  59.036   1
  -1  13  -4 16.9799 24.3419   1
  -1  13  -4 79.5688 66.1382   1
  -1  13  -5 55.3533 22.8686   1
  -1  13  -5 76.0262 74.9829   1
  -1  13  -6  205.08 23.7291   1
  -1  13  -6 201.924 90.1277   1
  -1  13  -7 77.6364 55.0171   1
   1 -12 -14  16.748  60.508   1
   1 -12 -13 405.922 71.5361   1
   1 -12 -12-12.2443  57.791   1
   1 -12 -11 164.803 58.3397   1
   1 -12  -9 107.161 87.1503   1
   1 -12  -8 213.329 51.4275   1
   1 -12  -7 397.698 53.9738   1
   1 -12  -6 97.5745 43.7904   1
   1 -12  -5 647.482 51.4623   1
  -1  12   5 406.806 13.0797   1
   1 -12  -4 372.821  46.393   1
  -1  12   4 276.361 20.1411   1
  -1  12   4  285.54 21.0333   1
   1 -12  -3 229.963 69.7299   1
  -1  12   3 198.156 44.2277   1
  -1  12   3 224.904 24.7489   1
  -1  12   3 202.686 16.1969   1
   1 -12  -2 150.186 34.4487   1
  -1  12   2 155.696 65.9033   1
  -1  12   2 139.399 29.0926   1
  -1  12   2 73.0684 18.7427   1
   1 -12  -1 399.937 40.3592   1
  -1  12   1 372.536 42.8302   1
  -1  12   1 397.434 41.5046   1
  -1  12   1 328.413 27.8675   1
  -1  12   0  832.21 53.1504   1
  -1  12   0 788.382 37.7925   1
  -1  12   0 784.588 41.9014   1
  -1  12  -1 118.609 31.4585   1
  -1  12  -1 64.6155 51.4185   1
  -1  12  -2 40.2527 29.2421   1
  -1  12  -2 65.7212 57.6852   1
  -1  12  -3 4.14897   42.56   1
  -1  12  -3-52.0757  37.009   1
  -1  12  -4-8.51738 40.7377   1
  -1  12  -4-17.0907  39.843   1
  -1  12  -5 87.1267 23.2187   1
  -1  12  -5 33.1495 45.2398   1
  -1  12  -6 12.3993 20.8931   1
  -1  12  -6  114.90 47.3719   1
  -1  12  -7  347.18 24.9649   1
  -1  12  -7 443.576 106.286   1
  -1  12  -8 82.6406 100.735   1
  -1  12  -9 76.2777  103.87   1
   1 -11 -10 186.091 55.3276   1
   1 -11  -9 54.2064  48.998   1
   1 -11  -8-53.8296 45.8616   1
   1 -11  -7 182.831 46.9476   1
   1 -11  -6 347.168 49.4734   1
   1 -11  -5 194.162 69.6624   1
  -1  11   5 98.0379  8.4149   1
   1 -11  -4 1358.16 74.2879   1
  -1  11   4 1306.47 77.9045   1
   1 -11  -3 33.1307 37.0445   1
  -1  11   3 59.9237 63.9475   1
  -1  11   3-5.32406 12.7844   1
  -1  11   3 2.39387 23.1977   1
   1 -11  -2 986.292  88.416   1
  -1  11   2 964.379 60.3827   1
  -1  11   2 832.502 46.0057   1
  -1  11   2 856.009 51.9518   1
   1 -11  -1 1227.05 93.2356   1
  -1  11   1 1276.50 102.945   1
  -1  11   1  996.13 43.2538   1
  -1  11   0 45.0489 33.3718   1
  -1  11   0 9.73259 46.8022   1
  -1  11  -1 169.186 32.5755   1
  -1  11  -1 141.648 32.9173   1
  -1  11  -2 2514.76 94.0481   1
  -1  11  -2 2349.96 104.002   1
  -1  11  -3 73.7971 26.4896   1
  -1  11  -3 23.8719 37.3368   1
  -1  11  -4 204.333 44.2057   1
  -1  11  -4 184.248 44.2362   1
  -1  11  -5 263.975 25.9831   1
  -1  11  -5 241.311  50.234   1
  -1  11  -6 431.178 28.4847   1
  -1  11  -6 515.503 61.7154   1
  -1  11  -7 451.667 41.0812   1
  -1  11  -7 494.417 65.9474   1
  -1  11  -8-32.1942 28.1556   1
  -1  11  -8-6.68632 55.0289   1
  -1  11  -9 117.187  62.032   1
  -1  11 -10 168.789 115.233   1
   1 -10 -15 13.8802 50.2655   1
   1 -10 -14 66.7255 50.9993   1
   1 -10 -13-42.1742 49.1574   1
   1 -10 -12 381.971 56.8875   1
   1 -10 -11  25.972 46.8011   1
   1 -10 -10 233.281 49.8329   1
   1 -10  -8 756.352 64.1621   1
   1 -10  -7 35.4061 44.9544   1
   1 -10  -6 1348.50 130.566   1
   1 -10  -5 363.141 47.3793   1
  -1  10   5 289.599 7.95863   1
   1 -10  -4 124.882 67.9884   1
  -1  10   4 32.1333 41.5249   1
  -1  10   4 86.6022 15.4761   1
  -1  10   4 69.6526 10.3802   1
   1 -10  -3 20.3287 35.8083   1
  -1  10   3 2.27635 39.4614   1
  -1  10   3 -19.278 20.8498   1
  -1  10   3 16.8121 14.2173   1
   1 -10  -2 3342.18 136.683   1
  -1  10   2 3286.82 138.145   1
  -1  10   2 2826.21 84.1727   1
   1 -10  -1 43.0342 33.5077   1
  -1  10   1 62.1898 36.2521   1
  -1  10   1 24.5071 42.1325   1
   1 -10   012090.80 700.939   1
  -1  10   012956.50 941.532   1
  -1  10   011350.70 663.806   1
  -1  10  -1 601.639 46.9449   1
  -1  10  -1  603.77 47.5103   1
  -1  10  -2 170.794  54.711   1
  -1  10  -2-14.3099 65.4025   1
  -1  10  -3 2614.01 93.5531   1
  -1  10  -3 2179.54 183.581   1
  -1  10  -4-2.75866 40.4427   1
  -1  10  -4-64.1642 68.7224   1
  -1  10  -5 124.357 36.5883   1
  -1  10  -5 53.0662  77.877   1
  -1  10  -6 -5.8905 19.5329   1
  -1  10  -6 21.4306 81.3099   1
  -1  10  -7 42.6841 30.6054   1
  -1  10  -7 84.0485 53.5246   1
  -1  10  -8 99.2863 31.0238   1
  -1  10  -8 114.665 55.7049   1
  -1  10  -9 134.109 18.0718   1
  -1  10  -9 120.064 61.1793   1
  -1  10 -10 208.741 68.0748   1
  -1  10 -11 63.3769 116.931   1
   1  -9 -10 224.907 47.9477   1
   1  -9  -9 263.951 47.8609   1
   1  -9  -8 194.718 46.3735   1
   1  -9  -7  441.68 92.6355   1
   1  -9  -6-28.0954  42.458   1
   1  -9  -5 28.8361 69.1523   1
  -1   9   5 36.4272 41.9514   1
   1  -9  -4 48.6025 36.2978   1
  -1   9   4 8.59041 39.4872   1
  -1   9   4 12.1618 12.7016   1
  -1   9   4 10.7307 14.7393   1
   1  -9  -3 380.591 44.0492   1
  -1   9   3 506.191 45.9936   1
  -1   9   3 371.525 15.6905   1
  -1   9   3 402.837 17.3008   1
   1  -9  -2 1769.16 121.878   1
  -1   9   2 1660.89 121.825   1
  -1   9   2 1467.85 44.4949   1
   1  -9  -1 135.279 56.6259   1
  -1   9   1 152.582 34.5582   1
  -1   9   1 77.9788 24.6313   1
   1  -9   0 2076.01 127.912   1
  -1   9   0 2052.05 82.9319   1
  -1   9   0 1912.90 114.031   1
  -1   9  -1 229.683 55.7668   1
  -1   9  -1  183.30 58.9177   1
  -1   9  -2 37.6183 27.7044   1
  -1   9  -2 9.58185 35.1804   1
  -1   9  -3 4810.81 221.789   1
  -1   9  -3 4016.71  198.06   1
  -1   9  -4 3124.03 102.747   1
  -1   9  -4 3076.79 154.104   1
  -1   9  -5  21.657 22.2416   1
  -1   9  -5-76.1759 44.3519   1
  -1   9  -6 329.737  24.827   1
  -1   9  -6 313.354 54.2807   1
  -1   9  -7 162.676 35.3083   1
  -1   9  -7 206.462 92.6805   1
  -1   9  -8 71.3624  18.663   1
  -1   9  -8 140.739 95.6251   1
  -1   9  -9 1.99269 16.5756   1
  -1   9  -9 16.9103 56.0794   1
  -1   9 -10 24.3686 26.1081   1
  -1   9 -10 93.4242 60.4576   1
  -1   9 -11-13.6838 63.7157   1
  -1   9 -12 50.7738 121.603   1
  -1   9 -13 187.784 79.2244   1
   1  -8 -17 52.7183 48.9481   1
   1  -8 -16-19.8782 47.3871   1
   1  -8 -15-18.1706 46.0469   1
   1  -8 -14 98.5224 46.9653   1
   1  -8 -13  92.669 46.6975   1
   1  -8 -12-22.4748 43.9353   1
   1  -8 -11 8.55245 44.1185   1
   1  -8 -10 196.323 49.0838   1
   1  -8  -9 2026.00 110.401   1
   1  -8  -8 1970.39 166.863   1
   1  -8  -7 114.684 41.9403   1
   1  -8  -6 45.6364 39.4816   1
   1  -8  -5 5050.88 222.952   1
  -1   8   5 4951.33  232.45   1
   1  -8  -4 645.401  85.185   1
  -1   8   4 633.933 91.9444   1
   1  -8  -3 92.8196 34.9855   1
  -1   8   3 78.6253  36.798   1
  -1   8   3 74.6222 18.5705   1
  -1   8   3 51.2871 12.5606   1
   1  -8  -2 484.242 42.2656   1
  -1   8   2 516.538 43.6674   1
  -1   8   2  458.86 39.2204   1
   1  -8  -1 5068.74 199.935   1
  -1   8   1 5377.87 289.997   1
  -1   8   1 4595.49 156.031   1
   1  -8   0 2407.69 88.8211   1
  -1   8   0 2763.26 145.847   1
  -1   8   0 2293.20 124.543   1
  -1   8  -1 585.449 38.9899   1
  -1   8  -1 503.501 41.0442   1
  -1   8  -2 3617.99 118.008   1
  -1   8  -2 3565.27 147.305   1
  -1   8  -3 1369.22 75.0651   1
  -1   8  -3 1014.76 65.9401   1
  -1   8  -4 313.834 28.1802   1
  -1   8  -4 338.304 48.2731   1
  -1   8  -5 3.03561 22.2245   1
  -1   8  -5-8.96658 46.0756   1
  -1   8  -6 1142.62 63.7532   1
  -1   8  -6 1147.10 82.3841   1
  -1   8  -7 2809.14 82.4542   1
  -1   8  -7 2752.55 157.377   1
  -1   8  -8 629.375 44.6336   1
  -1   8  -8 720.266 73.1243   1
  -1   8  -9 2.96613 30.5365   1
  -1   8  -9 167.561 99.3259   1
  -1   8 -10 48.2804 18.0511   1
  -1   8 -10 176.431 61.7432   1
  -1   8 -11 199.498 19.8212   1
  -1   8 -11 446.765 69.6439   1
  -1   8 -12 11.0582 25.2522   1
  -1   8 -12 87.0411 65.4209   1
  -1   8 -13 237.167 129.957   1
  -1   8 -14 80.0304 75.6412   1
   1  -7 -17 35.5733  45.318   1
   1  -7 -16 116.401 46.0551   1
   1  -7 -15-36.6312  75.404   1
   1  -7 -12 69.8055 72.3758   1
   1  -7 -11 800.606 104.277   1
   1  -7 -10  24.982 75.4751   1
   1  -7  -9 2054.94 108.196   1
   1  -7  -8 657.995 57.5594   1
   1  -7  -7 1718.63 88.0099   1
   1  -7  -6 268.683 41.3772   1
   1  -7  -5  74.559 34.4031   1
  -1   7   5 47.9659  39.324   1
   1  -7  -4 1433.15 70.5134   1
  -1   7   4 1510.95 123.706   1
  -1   7   4 1464.42 23.1437   1
   1  -7  -3 371.411 66.9707   1
  -1   7   3 407.485 71.0403   1
  -1   7   3 350.706 22.2247   1
   1  -7  -2 468.906   68.18   1
  -1   7   2 582.954 41.1913   1
  -1   7   2 473.998  35.077   1
   1  -7  -1 417.128 64.9398   1
  -1   7   1 515.954 38.3352   1
  -1   7   1 416.508 44.8769   1
   1  -7   0 7480.56 308.347   1
  -1   7   0 7961.10 329.454   1
  -1   7   0 7536.83 312.889   1
   1  -7   1 548.025 36.2846   1
  -1   7  -1 490.446 34.9517   1
  -1   7  -1 340.181 39.9864   1
  -1   7  -2 1335.48 76.9203   1
  -1   7  -2 1074.45 98.9919   1
  -1   7  -3 1228.04 110.463   1
  -1   7  -4 428.627   47.67   1
  -1   7  -4 359.192  86.925   1
  -1   7  -5 369.905 26.6895   1
  -1   7  -5 274.316 53.1879   1
  -1   7  -6 424.366 27.8424   1
  -1   7  -6 393.522 60.1162   1
  -1   7  -7 222.932 39.7957   1
  -1   7  -7 200.705 57.1827   1
  -1   7  -8   28.98 18.7167   1
  -1   7  -8 78.9286 54.6676   1
  -1   7  -9 284.706 34.8332   1
  -1   7  -9 276.701 108.115   1
  -1   7 -10 22.9362 30.0468   1
  -1   7 -10 47.9272 101.423   1
  -1   7 -11 287.848  20.729   1
  -1   7 -11 436.337 71.0936   1
  -1   7 -12 85.1808 16.2676   1
  -1   7 -12 119.799  65.204   1
  -1   7 -13-6.35031 7.11104   1
  -1   7 -13-63.8419 110.513   1
  -1   7 -14-10.3133 69.5854   1
   1  -6 -17 173.068 74.9655   1
   1  -6 -16 5.81549 70.0217   1
   1  -6 -15 14.0839 41.4726   1
   1  -6 -14-11.4698 40.1661   1
   1  -6 -14 6.29486 15.2416   1
   1  -6 -14-15.0214 12.0076   1
   1  -6 -13-39.0707 39.8214   1
   1  -6 -13-4.92868 13.5097   1
   1  -6 -13-2.16919 14.9666   1
   1  -6 -12 752.341 56.6264   1
   1  -6 -12 602.957 18.9506   1
   1  -6 -12 668.161 21.1964   1
   1  -6 -11 27.3841 41.0798   1
   1  -6 -11  7.7663 9.47561   1
   1  -6 -11 21.0854 10.6133   1
   1  -6 -10 395.144 49.6553   1
   1  -6 -10 319.745 8.44618   1
   1  -6  -9  327.85 49.2279   1
   1  -6  -8 923.756 104.164   1
   1  -6  -7 471.485 46.4779   1
   1  -6  -6 86.4407 35.8429   1
   1  -6  -5 107.364 53.7428   1
  -1   6   5 75.0203 35.9879   1
   1  -6  -4 2668.37 97.7334   1
  -1   6   4 3099.20 167.352   1
   1  -6  -3 4648.19  174.90   1
  -1   6   3 5112.51  263.08   1
  -1   6   3 4640.35 110.084   1
   1  -6  -2 175.314  30.579   1
  -1   6   2 237.381 54.9289   1
  -1   6   2 128.485 25.0099   1
   1  -6  -1 5256.00 189.615   1
  -1   6   1 5797.44 276.645   1
  -1   6   1 5159.83 207.038   1
   1  -6   0 170.194 46.4415   1
  -1   6   0 179.294 48.4339   1
  -1   6   0 127.604 24.6178   1
   1  -6   113651.10 750.073   1
   1  -6   113982.50  780.46   1
  -1   6  -116453.10 1003.04   1
  -1   6  -113630.80 953.215   1
   1  -6   2 3739.20 155.691   1
  -1   6  -2 4429.28  197.18   1
  -1   6  -2 3429.20 231.376   1
   1  -6   3 130.535 35.8368   1
  -1   6  -3 105.509 39.9167   1
  -1   6  -3 114.391  36.539   1
   1  -6   4 52.1001 39.7264   1
  -1   6  -4 73.9986 39.1968   1
  -1   6  -4  83.506 70.7834   1
   1  -6   5 64.6896 45.9114   1
  -1   6  -5 236.924 39.8118   1
  -1   6  -5 112.247 82.1291   1
  -1   6  -6 548.421 45.8985   1
  -1   6  -6 416.207 106.296   1
  -1   6  -7 422.117 26.1976   1
  -1   6  -7 382.432 61.5037   1
  -1   6  -8 798.117 78.5508   1
  -1   6  -9 98.6962 56.7879   1
  -1   6 -10 413.743 117.209   1
  -1   6 -11 0.74576 58.9382   1
  -1   6 -12 160.308 66.3247   1
  -1   6 -13-0.54256 61.6989   1
  -1   6 -14-7.44079 109.701   1
  -1   6 -15  132.20 73.2215   1
   1  -5 -17 63.0455 41.4661   1
   1  -5 -16 49.5056 39.7244   1
   1  -5 -16 58.8187 24.8837   1
   1  -5 -16 49.6707  27.486   1
   1  -5 -15-27.1887 37.7449   1
   1  -5 -15 13.1627 14.0566   1
   1  -5 -15-1.14397 15.5065   1
   1  -5 -14 118.848  68.163   1
   1  -5 -14 155.356 14.3797   1
   1  -5 -14 163.511 16.7844   1
   1  -5 -13 240.371 68.0413   1
   1  -5 -13 212.005 23.1374   1
   1  -5 -13 193.183 27.0891   1
   1  -5 -12 29.7906  61.586   1
   1  -5 -12 4.72431 18.9652   1
   1  -5 -12 7.87727 23.1794   1
   1  -5 -11 191.845 70.4659   1
   1  -5 -11 191.189 12.3654   1
   1  -5 -11 208.875 24.6022   1
   1  -5 -10 2052.61 154.901   1
   1  -5 -10 2033.62 50.9492   1
   1  -5 -10 2076.26 41.7916   1
   1  -5  -9 59.9697 67.5233   1
   1  -5  -9 54.3957 12.7392   1
   1  -5  -9 45.5777 15.8924   1
   1  -5  -8 2387.34 104.976   1
   1  -5  -8 2441.24 39.7284   1
   1  -5  -8 2483.33 43.5276   1
   1  -5  -7 366.819   41.42   1
   1  -5  -6 236.634 62.1613   1
   1  -5  -5 996.822 51.5238   1
   1  -5  -4 608.835 66.2432   1
  -1   5   4 701.091 74.5309   1
   1  -5  -3-35.4022 47.8377   1
  -1   5   3 2.09736 53.3278   1
   1  -5  -2-3.98177 53.6458   1
  -1   5   2 350.179 56.2124   1
  -1   5   2 96.7294 21.7895   1
   1  -5  -1  560.72  36.768   1
   1  -5  -1 573.742  24.383   1
  -1   5   1 701.083  38.238   1
  -1   5   1 643.187 41.3811   1
   1  -5   0 7983.49 290.037   1
   1  -5   0 7832.38 344.049   1
  -1   5   0 7172.36 267.766   1
  -1   5   0 6574.37 267.788   1
   1  -5   1 1828.64 59.2428   1
   1  -5   1 1790.36 103.991   1
  -1   5  -1 2285.35   96.17   1
  -1   5  -1 1710.05  105.82   1
   1  -5   2 3413.03 186.456   1
  -1   5  -2 3872.27 146.459   1
  -1   5  -2 3295.48 124.796   1
   1  -5   3 2579.47 162.249   1
  -1   5  -3 2803.93 75.7256   1
  -1   5  -3 2336.37 101.784   1
   1  -5   4 1341.89 114.391   1
  -1   5  -4 1422.81 40.6871   1
  -1   5  -4 1328.17 69.1981   1
   1  -5   5 107.524 39.3887   1
  -1   5  -5 21.4488 19.8008   1
  -1   5  -5  23.381 40.2765   1
   1  -5   6 451.031 55.4989   1
  -1   5  -6 555.539 99.2381   1
   1  -5   7 276.629 53.5399   1
  -1   5  -7 207.118 54.4411   1
  -1   5  -8 467.936 64.8238   1
  -1   5  -9 1036.47 88.9178   1
  -1   5 -10 674.123 131.202   1
  -1   5 -11 3647.86 342.549   1
  -1   5 -12-65.3146 59.8386   1
  -1   5 -13-27.6523 60.0918   1
  -1   5 -14 252.139 113.965   1
  -1   5 -15-97.4252 65.3381   1
  -1   5 -16 181.288 72.7886   1
   1  -4 -18 66.3521  36.657   1
   1  -4 -17 303.453 42.5282   1
   1  -4 -17 299.122 37.4764   1
   1  -4 -17 268.185 42.8143   1
   1  -4 -16 285.443 67.7423   1
   1  -4 -16 226.818 34.8382   1
   1  -4 -16 203.862 24.2847   1
   1  -4 -15  161.61 59.5332   1
   1  -4 -15 76.3811   18.78   1
   1  -4 -15 74.3769 20.9532   1
   1  -4 -14 68.1613 35.2643   1
   1  -4 -14 91.4064 29.1441   1
   1  -4 -14 87.3666   33.15   1
   1  -4 -13  43.804 32.7112   1
   1  -4 -13-0.24268  26.192   1
   1  -4 -13-19.9126 18.1813   1
   1  -4 -12 546.932 45.5073   1
   1  -4 -12 526.528 35.0686   1
   1  -4 -12 544.725 25.8092   1
   1  -4 -11-11.3608 34.4206   1
   1  -4 -11 25.2261 24.8555   1
   1  -4 -11 23.7263 30.4743   1
   1  -4 -10 500.659 45.2905   1
   1  -4 -10 497.586 30.5206   1
   1  -4 -10 547.463 39.5873   1
   1  -4  -9-3.29837 33.5186   1
   1  -4  -9 9.73111 19.7331   1
   1  -4  -9-50.3034 26.2261   1
   1  -4  -8 33.3915  33.001   1
   1  -4  -8 15.5541 9.68291   1
   1  -4  -8-2.21574 22.3974   1
   1  -4  -7 2156.08 88.4816   1
   1  -4  -7 2300.80 45.5392   1
   1  -4  -7 2379.60 53.3956   1
   1  -4  -6 1484.07 106.438   1
   1  -4  -6 1623.33 28.1789   1
   1  -4  -6 1710.29 33.9908   1
   1  -4  -5 21.5944 28.6188   1
   1  -4  -412292.70 644.121   1
  -1   4   413731.90  702.98   1
   1  -4  -3 653.475 37.3154   1
  -1   4   3 655.527 72.5152   1
   1  -4  -213643.20 743.726   1
   1  -4  -213624.90 606.639   1
  -1   4   213820.00 753.399   1
  -1   4   214540.70 633.985   1
   1  -4  -1 6419.15 237.421   1
   1  -4  -1 6066.96 180.109   1
  -1   4   1 6702.42 243.048   1
  -1   4   1 7174.44 259.386   1
   1  -4   0 3432.71 113.539   1
   1  -4   0 3585.86 154.361   1
  -1   4   0 3324.96 109.021   1
  -1   4   0 3747.30 107.974   1
   1  -4   124379.40 1988.27   1
   1  -4   127315.80 2597.01   1
  -1   4  -127642.50 2193.33   1
  -1   4  -125715.10 2474.04   1
   1  -4   2 3435.14 221.197   1
  -1   4  -2 4470.88 125.015   1
  -1   4  -2 4146.91 150.799   1
   1  -4   3 138.217 34.6349   1
  -1   4  -3 269.346 35.6182   1
  -1   4  -3 156.852 33.8654   1
   1  -4   4 3675.57 146.938   1
  -1   4  -4 3574.64 144.899   1
   1  -4   5 4997.92 213.732   1
  -1   4  -5 4897.95 214.724   1
   1  -4   6 4103.54 274.751   1
  -1   4  -6 4207.43 284.633   1
   1  -4   7 662.942  62.622   1
  -1   4  -7 668.259 108.515   1
   1  -4   8 272.237 53.9514   1
  -1   4  -8 337.019 56.0391   1
   1  -4   9 63.7047 51.7092   1
  -1   4  -9 35.7139 53.7129   1
  -1   4 -10 1191.44  93.753   1
  -1   4 -11 1258.53 166.832   1
  -1   4 -12-47.8091 56.3099   1
  -1   4 -13 87.2895 58.6304   1
  -1   4 -14-54.4307 99.2557   1
  -1   4 -15-82.6048 61.5418   1
  -1   4 -16 23.1211 61.0871   1
   1  -3 -18-32.0658 31.0245   1
   1  -3 -18  45.528 25.6649   1
   1  -3 -17 95.5771 54.4737   1
   1  -3 -17 76.3764 23.5444   1
   1  -3 -17 84.6094 27.2081   1
   1  -3 -16 128.633 33.4126   1
   1  -3 -16 81.5933 38.7265   1
   1  -3 -16 31.8681 45.3159   1
   1  -3 -15 208.945 34.6056   1
   1  -3 -15 157.491 23.6398   1
   1  -3 -15 147.512 27.1266   1
   1  -3 -14 28.9827 31.3808   1
   1  -3 -14  45.601 20.5743   1
   1  -3 -14 50.0067 41.9441   1
   1  -3 -13 289.587 60.3399   1
   1  -3 -13 288.217 28.8784   1
   1  -3 -12 539.791  73.691   1
   1  -3 -12 559.957 55.5277   1
   1  -3 -11 1564.01 74.5892   1
   1  -3 -11 1926.24 93.9891   1
   1  -3 -10 16.2664 30.7796   1
   1  -3 -10 0.62747 22.2076   1
   1  -3  -9-16.8036 31.0954   1
   1  -3  -9 46.5791 35.4397   1
   1  -3  -8 128.603 52.6032   1
   1  -3  -8 70.9333 31.9758   1
   1  -3  -7 2092.47 129.078   1
   1  -3  -7 2440.68 53.9091   1
   1  -3  -6 4909.57 183.259   1
   1  -3  -6 5038.45 130.648   1
   1  -3  -6 5375.81 155.079   1
   1  -3  -5 531.905  36.994   1
   1  -3  -5 591.877 16.0204   1
   1  -3  -5 634.416 21.6525   1
   1  -3  -4 7604.90 288.072   1
   1  -3  -4 6651.01 149.311   1
   1  -3  -4 7212.31 169.851   1
  -1   3   4 7599.61  281.07   1
   1  -3  -3 524.654 38.6103   1
  -1   3   3 510.096 41.0328   1
   1  -3  -212737.00 610.955   1
   1  -3  -211797.10 440.207   1
  -1   3   211736.20 658.691   1
  -1   3   212060.80 434.727   1
   1  -3  -1 1383.24 57.2531   1
   1  -3  -1 1655.09 56.5302   1
  -1   3   1 1654.63 100.715   1
  -1   3   1 1659.61 34.3468   1
   1  -3   058708.7010662.50   1
   1  -3   068540.6011926.80   1
  -1   3   070725.8013422.00   1
  -1   3   062804.3011081.30   1
   1  -3   1 4782.01 170.211   1
  -1   3  -1 5235.56 230.072   1
  -1   3  -1 4580.70 165.948   1
   1  -3   2 3459.65 228.142   1
  -1   3  -2 4021.05 167.088   1
  -1   3  -2 3535.64 221.668   1
   1  -3   3 4058.96 165.486   1
  -1   3  -3 3899.93 154.985   1
   1  -3   4 1718.47 74.4984   1
  -1   3  -4 1672.88 74.8391   1
   1  -3   5 834.363 93.3344   1
  -1   3  -5 822.806 55.1982   1
   1  -3   6  715.83 52.4158   1
  -1   3  -6 607.365 92.9916   1
   1  -3   7 1165.52 68.4826   1
  -1   3  -7 1127.06 71.1882   1
   1  -3   8 102.374 78.3498   1
  -1   3  -8 11.0219  46.404   1
   1  -3   9 244.634 50.7596   1
  -1   3  -9 140.422 52.8465   1
   1  -3  10 3024.92 161.563   1
  -1   3 -10 2936.98 269.382   1
  -1   3 -11 1673.15 115.153   1
  -1   3 -12 126.643 55.4559   1
  -1   3 -13 8.01907 53.2331   1
  -1   3 -14  191.78 98.1021   1
  -1   3 -15 29.6164 54.9139   1
  -1   3 -16   43.56 57.6644   1
  -1   3 -17 3.66308 95.3459   1
   1  -2 -18-18.1918 27.4113   1
   1  -2 -18 8.84095 50.2181   1
   1  -2 -17 77.3197   44.17   1
   1  -2 -17-23.0622 39.8368   1
   1  -2 -17 0.65869 29.6812   1
   1  -2 -16 262.601 31.7737   1
   1  -2 -16 216.712 28.4829   1
   1  -2 -16 259.678 56.5356   1
   1  -2 -15-31.7822 46.6669   1
   1  -2 -15 92.4248 24.2762   1
   1  -2 -15 108.342  31.376   1
   1  -2 -14 97.8482 46.5529   1
   1  -2 -14 22.3829 29.4096   1
   1  -2 -13 3.35599 28.1814   1
   1  -2 -13 33.9749 50.3792   1
   1  -2 -12 12.8066 29.6261   1
   1  -2 -12-5.21924 30.6933   1
   1  -2 -11 36.4057 29.8725   1
   1  -2 -11 19.8642 50.7557   1
   1  -2 -10 87.3464 52.5982   1
   1  -2 -10 169.292 29.3589   1
   1  -2  -9  849.72 73.0076   1
   1  -2  -9 934.311 66.0265   1
   1  -2  -8 3507.18 195.695   1
   1  -2  -8 3976.32 121.547   1
   1  -2  -720502.80 1565.51   1
   1  -2  -722310.20 1744.03   1
   1  -2  -6 454.449 35.1672   1
   1  -2  -6  481.68 25.1124   1
   1  -2  -5 161.141 27.3127   1
   1  -2  -5 173.368 16.4562   1
   1  -2  -4 1435.10 58.8768   1
   1  -2  -4 1451.53 39.6528   1
   1  -2  -4 1518.46 32.7289   1
   1  -2  -3 1484.27 68.1658   1
  -1   2   3 1639.88 114.721   1
   1  -2  -2 8916.30 316.276   1
  -1   2   2 9311.56 324.306   1
  -1   2   2 7660.06 194.179   1
   1  -2  -159249.70 9976.87   1
   1  -2  -163699.30 9915.47   1
  -1   2   172837.1012539.10   1
  -1   2   159178.10 9244.75   1
   1  -2   033885.00 3359.45   1
   1  -2   038353.70 3809.39   1
  -1   2   034322.70 3358.37   1
  -1   2   036954.90 3684.86   1
   1  -2   1129314.048408.60   1
  -1   2  -1129536.042708.40   1
  -1   2  -1121278.045973.40   1
   1  -2   211394.60 550.975   1
  -1   2  -212079.10 581.881   1
   1  -2   3 6631.63 285.649   1
  -1   2  -3 6136.69 391.973   1
   1  -2   4 8069.92 522.698   1
  -1   2  -4 7494.82 506.865   1
   1  -2   5 917.821 56.2193   1
  -1   2  -5 841.546 91.5492   1
   1  -2   619505.80 1696.52   1
  -1   2  -618548.40 1670.52   1
   1  -2   7 37.7499 37.5034   1
  -1   2  -7 66.8229 38.7823   1
   1  -2   8 65.7306 39.8782   1
  -1   2  -8 9.45026 41.3532   1
   1  -2   9 203.307 85.4317   1
  -1   2  -9 275.896 51.1212   1
   1  -2  10 32.8938 46.2726   1
  -1   2 -10 140.536 85.7055   1
  -1   2 -11 54.3183 53.2428   1
  -1   2 -12 150.718 53.6206   1
  -1   2 -13 156.827 90.3349   1
  -1   2 -14  382.14 60.5414   1
  -1   2 -15 183.597 56.2749   1
  -1   2 -16-67.9388 91.0696   1
  -1   2 -17 115.617 54.3885   1
   1  -1 -17 13.1846 24.2951   1
   1  -1 -17 51.4015 27.5272   1
   1  -1 -17  48.396 58.7526   1
   1  -1 -16 46.7709 24.5874   1
   1  -1 -16  89.853 27.5884   1
   1  -1 -16 24.2687 36.2355   1
   1  -1 -15 33.5136 40.5735   1
   1  -1 -15 5.13316 57.8952   1
   1  -1 -14 81.1423 25.0035   1
   1  -1 -14 52.4938  35.223   1
   1  -1 -13 464.475 33.1389   1
   1  -1 -13 562.833 44.8884   1
   1  -1 -12 669.763  61.662   1
   1  -1 -12 699.786 82.4199   1
   1  -1 -11 748.976  40.562   1
   1  -1 -11 894.733 51.5235   1
   1  -1 -10 221.092  29.357   1
   1  -1 -10 280.032  62.874   1
   1  -1  -9 45.5655 24.1838   1
   1  -1  -9-39.6895 29.7029   1
   1  -1  -8   55.94 25.2048   1
   1  -1  -8 53.8094 48.9779   1
   1  -1  -711158.50 534.384   1
   1  -1  -711679.40 544.316   1
   1  -1  -627306.10 2454.81   1
   1  -1  -629686.60 2621.77   1
   1  -1  -5 4272.70 141.619   1
   1  -1  -5 4676.24 137.686   1
   1  -1  -425904.10 2098.31   1
   1  -1  -425503.30 1999.61   1
   1  -1  -3155956.067507.40   1
   1  -1  -3158953.065379.90   1
   1  -1  -240018.80 4617.42   1
   1  -1  -242982.70 4704.08   1
  -1   1   244161.40 5593.56   1
   1  -1  -1 2799.28 56.8961   1
   1  -1  -1 2770.55 41.2678   1
   1  -1   136313.00 3455.96   1
  -1   1  -135494.00 3576.48   1
   1  -1   245033.40 6145.00   1
  -1   1  -241659.40 5473.42   1
   1  -1   3 5015.23 172.515   1
  -1   1  -3 4636.12 169.734   1
   1  -1   4 320.401 77.4406   1
  -1   1  -4 199.752 42.3644   1
   1  -1   513705.90 791.477   1
  -1   1  -513068.50 787.823   1
   1  -1   6 1871.59 82.7093   1
  -1   1  -6 1659.16 78.4384   1
   1  -1   717651.50 1489.35   1
  -1   1  -717176.10 1204.69   1
   1  -1   8 1411.60 70.2826   1
  -1   1  -8 1412.14 71.8223   1
   1  -1   9 3518.47 154.236   1
  -1   1  -9 3662.50 254.268   1
   1  -1  10-70.2376 42.7319   1
  -1   1 -10 10.4761  45.849   1
   1  -1  11 627.495 58.0531   1
  -1   1 -11 511.458 63.2529   1
  -1   1 -12 117.985   50.60   1
  -1   1 -13  67.101 78.3958   1
  -1   1 -14  46.376 46.4388   1
  -1   1 -15 289.261 53.6042   1
  -1   1 -16 32.5746 76.4562   1
  -1   1 -17 79.3756 48.9826   1
  -1   1 -18 41.8828 49.6195   1
   1   0 -17-12.2517  20.947   1
   1   0 -17 58.5192 30.3623   1
   1   0 -17 40.5835 40.4986   1
   1   0 -16 206.384 40.4188   1
   1   0 -16 339.417 45.6123   1
   1   0 -15 60.8958 21.8967   1
   1   0 -15 138.106 41.1394   1
   1   0 -14 16.0984 35.7184   1
   1   0 -14 28.6632 38.4222   1
   1   0 -13-16.2554 35.8449   1
   1   0 -13 25.8603 63.4691   1
   1   0 -12 142.733 23.9656   1
   1   0 -12 160.109 40.0514   1
   1   0 -11 1006.64 107.205   1
   1   0 -10 2358.50 106.671   1
   1   0  -9 1652.95 121.548   1
   1   0  -8 217.326 33.5891   1
   1   0  -7 8888.19 411.866   1
   1   0  -6 1326.21 92.5434   1
   1   0  -5 9853.02 504.523   1
   1   0  -411325.80 567.389   1
   1   0  -3 1255.33 34.6247   1
   1   0  -2 4462.58 99.2283   1
   1   0  -2 4617.00 100.805   1
   1   0   3 856.691 35.7603   1
  -1   0  -3 652.241 62.0349   1
   1   0   410481.70 627.234   1
  -1   0  -4 9700.42  459.74   1
   1   0   5 2262.47 142.375   1
  -1   0  -5 1495.37 148.438   1
   1   0   6 333.708 36.9234   1
  -1   0  -6 183.443 64.3409   1
   1   0   7 6904.63 299.793   1
  -1   0  -7 6840.34 412.434   1
   1   0   8 444.246 73.6805   1
  -1   0  -8  543.99 44.9316   1
   1   0   9 3391.49 140.652   1
  -1   0  -9 3480.85 149.904   1
   1   0  10 399.399 81.9842   1
  -1   0 -10 476.377  51.925   1
   1   0  11 168.265 43.5044   1
  -1   0 -11 231.073 48.0637   1
  -1   0 -12 3156.49 243.662   1
  -1   0 -13 82.1797 44.0558   1
  -1   0 -14 120.895 44.4211   1
  -1   0 -15 47.8102 74.5194   1
  -1   0 -16-12.4458 41.0434   1
  -1   0 -17   80.15 43.6883   1
  -1   0 -18-6.43989 72.9755   1
   1   1 -17 27.8434 18.9446   1
   1   1 -17-31.8193 33.9238   1
   1   1 -17 -1.6497 45.5413   1
   1   1 -16 87.4932 32.3084   1
   1   1 -16 86.9472   79.86   1
   1   1 -15 12.3556 18.9288   1
   1   1 -15  80.912 43.5723   1
   1   1 -14 87.0575 31.9983   1
   1   1 -14 33.2047 74.7455   1
   1   1 -13 14.6029 18.8904   1
   1   1 -13-7.94226  40.638   1
   1   1 -12 259.357 80.5718   1
   1   1 -11 12.7195  42.564   1
   1   1 -10 60.5139 42.7645   1
   1   1  -9 154.183 41.5568   1
   1   1  -8 23.4032 34.2411   1
   1   1  -7 922.092 53.9822   1
   1   1  -620939.20 1882.15   1
   1   1  -5  820.97  46.718   1
   1   1  -4 5740.28 242.498   1
   1   1  -3 3431.68 121.044   1
   1   1   311906.40 469.315   1
  -1  -1  -311646.40 457.826   1
   1   1   414512.20 795.797   1
  -1  -1  -417903.50 1091.11   1
   1   1   5145159.057860.60   1
  -1  -1  -5129634.048708.10   1
   1   1   6 1900.72 111.146   1
  -1  -1  -6 1641.69 110.219   1
   1   1   7 331.613  56.857   1
  -1  -1  -7 265.209 58.6301   1
   1   1   8 1144.04 54.7745   1
  -1  -1  -8 1171.89 92.4311   1
   1   1   9 5193.98 204.643   1
  -1  -1  -9 5521.78 313.486   1
   1   1  10 73.4557 58.4974   1
  -1  -1 -10 14.1482 64.7604   1
   1   1  11 80.8386 36.0738   1
  -1  -1 -11 59.2991 38.5948   1
  -1  -1 -12 1491.52  82.431   1
  -1  -1 -13 1078.10 68.0821   1
  -1  -1 -14 50.1633 63.0484   1
  -1  -1 -15-11.1505 36.7889   1
  -1  -1 -16 205.925 41.9107   1
  -1  -1 -17-8.93096 63.3484   1
  -1  -1 -18 88.1428  41.263   1
   1   2 -17 11.0938 39.8059   1
   1   2 -17-7.71583 51.1177   1
   1   2 -16  41.976 18.0894   1
   1   2 -16  18.858  50.812   1
   1   2 -15 21.9737 28.3875   1
   1   2 -15 5.43024 48.4484   1
   1   2 -14  174.82 19.3786   1
   1   2 -14  332.37 85.3945   1
   1   2 -13 72.1309 46.0577   1
   1   2 -12 188.738 83.3348   1
   1   2 -11 1636.14 99.3839   1
   1   2 -10 460.472 98.4946   1
   1   2  -9 89.7756 43.5156   1
   1   2  -8 2220.31  163.11   1
   1   2  -7 1072.28 61.2694   1
   1   2  -6 602.616  82.075   1
   1   2  -5 723.551 46.5504   1
   1   2  -4 5920.60 246.589   1
   1   2  -3 8655.79 398.379   1
   1   2  -1 561.962 7.35245   1
   1   2   0 4622.62 119.001   1
  -1  -2   0 4989.77 109.217   1
  -1  -2   0 5587.28 123.131   1
   1   2   132139.40 2508.68   1
  -1  -2  -127758.50 2136.20   1
   1   2   2 9467.95 304.889   1
  -1  -2  -212216.20 402.901   1
   1   2   3 70.9978   20.95   1
  -1  -2  -3 65.9319 19.9848   1
   1   2   4 9924.26 459.862   1
  -1  -2  -4 9546.43 447.441   1
   1   2   5  245.62 49.9304   1
   1   2   6 1424.36 52.4804   1
  -1  -2  -6 1443.28 48.8114   1
   1   2   7 2130.14 70.5897   1
  -1  -2  -7 1972.78 97.9004   1
   1   2   8 5943.18 218.077   1
  -1  -2  -8 5793.32 288.673   1
   1   2   9 9548.61 579.961   1
  -1  -2  -910054.40 604.969   1
   1   2  10 1070.33 52.6609   1
  -1  -2 -10 1223.66 93.4787   1
   1   2  11 550.816 40.7854   1
  -1  -2 -11 599.113 75.5179   1
  -1  -2 -12 10.4252 57.4495   1
  -1  -2 -13 1782.34 81.6741   1
  -1  -2 -14 114.997 34.2221   1
  -1  -2 -15 257.053 62.8582   1
  -1  -2 -16 217.171 37.5686   1
  -1  -2 -17 181.165  30.402   1
  -1  -2 -17 65.4212 36.6381   1
  -1  -2 -18-43.0891 59.6202   1
   1   3 -16 192.492 60.7302   1
   1   3 -15 106.025 55.2466   1
   1   3 -14 47.3417 15.8561   1
   1   3 -14 95.9673  50.377   1
   1   3 -13 61.9426 50.2063   1
   1   3 -12-5.82367  83.836   1
   1   3 -11 39.4588 49.9419   1
   1   3 -10 2690.67 239.087   1
   1   3  -9 406.359 56.9046   1
   1   3  -8 1369.00 138.428   1
   1   3  -7 244.586 45.3365   1
   1   3  -6 400.507 76.8115   1
   1   3  -5 1311.18 67.2141   1
   1   3  -4-78.7462 58.5906   1
   1   3  -3 1106.98 59.8385   1
   1   3  -2 708.542 20.9006   1
   1   3  -2 697.718 47.4193   1
   1   3  -1 687.233 22.5405   1
  -1  -3   1 767.005 24.3411   1
   1   3   0 3166.79 65.1901   1
   1   3   0 3624.33 89.4494   1
  -1  -3   0 3550.80 90.7176   1
   1   3   146645.10 5846.31   1
  -1  -3  -144631.40 5361.27   1
  -1  -3  -142895.10 5084.33   1
   1   3   2 2251.11 53.3163   1
  -1  -3  -2 1978.24 54.4364   1
   1   3   310390.00 372.941   1
  -1  -3  -310298.20  326.66   1
   1   3   4 346.077 26.8366   1
  -1  -3  -4 370.494 25.2269   1
   1   3   5 300.584 18.6836   1
  -1  -3  -5 319.945 29.9626   1
   1   3   6 3628.87 125.509   1
  -1  -3  -6 3577.48 119.444   1
   1   3   7 2024.14 84.4867   1
  -1  -3  -7 2127.46 79.9234   1
   1   3   816458.40 1070.99   1
  -1  -3  -815670.70 862.588   1
   1   3   9 4335.28 196.589   1
  -1  -3  -9 4437.06 194.564   1
   1   3  10 323.705 29.2937   1
  -1  -3 -10 383.614 51.5941   1
   1   3  11 119.979  27.509   1
  -1  -3 -11 98.3302 49.0985   1
  -1  -3 -12 2265.97 129.603   1
  -1  -3 -13 3481.31 193.511   1
  -1  -3 -14 124.387 30.4527   1
  -1  -3 -15 68.7187 29.7937   1
  -1  -3 -16 61.9528 34.4109   1
  -1  -3 -16 51.6393 51.0867   1
  -1  -3 -17 526.091 44.7954   1
  -1  -3 -17 510.949 68.4307   1
  -1  -3 -18  62.396 32.4799   1
   1   4 -16-58.0006 62.0003   1
   1   4 -15 38.9094 59.0258   1
   1   4 -14 4.18911 54.0554   1
   1   4 -13 3.68335 52.5521   1
   1   4 -12-53.7665 92.9931   1
   1   4 -11 1148.47  90.847   1
   1   4 -10 603.175 120.222   1
   1   4  -9 772.027 73.4778   1
   1   4  -8 676.001 66.8578   1
   1   4  -7 1318.63 82.4424   1
   1   4  -6 36.3416   41.00   1
   1   4  -5 527.046 46.8446   1
   1   4  -4 1161.41  61.546   1
   1   4  -3 6414.09 174.131   1
   1   4  -3 6191.33 256.166   1
   1   4  -2 5122.61 137.559   1
   1   4  -2 5425.99 294.891   1
   1   4  -1 1747.99 36.3651   1
   1   4  -1 1767.29 69.8069   1
  -1  -4   1 1764.67 35.9821   1
   1   4   0 5551.71  153.90   1
  -1  -4   0 5942.31 159.634   1
   1   4   1 6184.23 194.697   1
   1   4   1 5784.34 175.696   1
  -1  -4  -1 6554.44 267.067   1
   1   4   259652.50 9409.16   1
  -1  -4  -256301.60 9997.62   1
   1   4   3 10.6902 17.1103   1
  -1  -4  -3 6.42037 50.4072   1
  -1  -4  -3 46.6505 17.4247   1
   1   4   4 317.237 17.5705   1
  -1  -4  -4 305.446 34.2123   1
  -1  -4  -4 319.628 16.4765   1
   1   4   5 202.894 17.5468   1
  -1  -4  -5  236.12 16.2175   1
   1   4   6 1496.50 43.7492   1
  -1  -4  -6 1485.26  38.316   1
   1   4   7  344.22 28.4078   1
  -1  -4  -7 444.896 27.7783   1
   1   4   8 1607.13 61.9432   1
  -1  -4  -8 1692.04 39.8463   1
   1   4   9 133.376 32.6961   1
  -1  -4  -9 178.429 33.4232   1
   1   4  10 205.363 38.5843   1
  -1  -4 -10 227.621 23.5602   1
   1   4  11 1188.20 42.9833   1
  -1  -4 -11 1249.58   44.56   1
  -1  -4 -12 2553.64 123.737   1
  -1  -4 -13 2205.67 75.1183   1
  -1  -4 -14 214.556 39.4235   1
  -1  -4 -14 187.516 26.8787   1
  -1  -4 -15 119.446  36.788   1
  -1  -4 -15 40.3406  25.516   1
  -1  -4 -16-21.1112 61.3668   1
  -1  -4 -16-28.5683 25.6742   1
  -1  -4 -17 716.241 55.3621   1
  -1  -4 -17 635.903 64.6152   1
  -1  -4 -18 107.358 39.3687   1
  -1  -4 -18 138.411 28.3962   1
   1   5 -15 57.9866 63.7313   1
   1   5 -14 5.40336 57.9111   1
   1   5 -13 87.5625 58.2106   1
   1   5 -12 338.513 111.202   1
   1   5 -11-85.5855 57.0889   1
   1   5 -10  620.62 74.0102   1
   1   5  -9 1179.15 94.2806   1
   1   5  -8-5.50613 50.5575   1
   1   5  -7 1085.73 139.098   1
   1   5  -6 23.5027 44.7254   1
   1   5  -5 858.139 19.1113   1
   1   5  -5  788.31 102.877   1
   1   5  -4 1565.39 41.5236   1
   1   5  -4 1410.85 72.9659   1
   1   5  -3 758.056 27.5208   1
   1   5  -3 753.115 82.9332   1
   1   5  -2 701.428 28.8336   1
   1   5  -2 533.433 43.4521   1
   1   5  -1 229.336 28.3578   1
   1   5  -1 216.684 55.9136   1
   1   5   0 4264.79 116.372   1
   1   5   0 4447.20 146.135   1
  -1  -5   0 4623.30 118.586   1
   1   5   1 1780.50 88.6943   1
   1   5   1 1791.26 77.3089   1
   1   5   2 3058.50 70.0202   1
  -1  -5  -2 3291.48 103.141   1
   1   5   3 1605.77 42.2683   1
  -1  -5  -3 1603.05 56.9634   1
   1   5   4  43.563 12.3067   1
  -1  -5  -4 11.4425 26.5285   1
  -1  -5  -4 42.2734 12.4178   1
   1   5   5 3977.97 77.3257   1
  -1  -5  -5 3749.76 192.225   1
  -1  -5  -5 3871.39 73.2236   1
   1   5   6 100.628  13.155   1
  -1  -5  -6 59.4344 30.0132   1
  -1  -5  -6  63.684 10.7525   1
   1   5   7 540.486 21.4556   1
  -1  -5  -7 548.979 40.8595   1
  -1  -5  -7 594.264 19.7259   1
   1   5   8 387.827 24.2314   1
  -1  -5  -8 357.934 39.0325   1
  -1  -5  -8 395.402 21.6612   1
   1   5   9 90.0088 14.1769   1
  -1  -5  -9 116.088 37.4632   1
  -1  -5  -9 83.3626 13.8384   1
   1   5  10 4855.76 177.848   1
  -1  -5 -10 4953.34 218.003   1
  -1  -5 -10 5240.12 142.674   1
  -1  -5 -11 345.554 46.4257   1
  -1  -5 -11  382.98  37.698   1
  -1  -5 -12-13.2663 39.2185   1
  -1  -5 -12-5.59457 31.4007   1
  -1  -5 -13-1.82601 38.8619   1
  -1  -5 -13 64.3309 19.3818   1
  -1  -5 -14 12.4747 37.8049   1
  -1  -5 -14 19.8334 18.8944   1
  -1  -5 -15-27.9533 64.7714   1
  -1  -5 -15 43.8409 19.8712   1
  -1  -5 -16 383.998 47.2012   1
  -1  -5 -16 314.861 41.1172   1
  -1  -5 -17 320.723 47.7215   1
  -1  -5 -17 257.508 42.3049   1
  -1  -5 -18 8.89744  70.077   1
  -1  -5 -18  87.942 38.2704   1
   1   6 -15 1.09462 67.9323   1
   1   6 -14-9.35912 108.854   1
   1   6 -13-17.0062 60.6979   1
   1   6 -12 49.0758 100.728   1
   1   6 -11 142.575 61.1269   1
   1   6 -10 170.188  61.657   1
   1   6  -9 50.8796 94.7066   1
   1   6  -8 67.7615  55.169   1
   1   6  -7 915.587 34.8151   1
   1   6  -7 891.622  78.375   1
   1   6  -6 629.903 27.9282   1
   1   6  -6 542.758 65.3856   1
   1   6  -5 740.911 29.7773   1
   1   6  -5 639.927 63.2879   1
   1   6  -4 18.5341 11.4416   1
   1   6  -4 91.9023 68.1318   1
   1   6  -3 414.642 26.1304   1
   1   6  -3 418.616 42.6829   1
   1   6  -2 36.4135 22.7952   1
   1   6  -2-13.2562 54.9284   1
   1   6  -1 637.526 23.0229   1
   1   6  -1 635.932 38.4282   1
  -1  -6   1 605.339 21.4301   1
   1   6   0-2.42688 17.2849   1
   1   6   0 10.0523 41.0462   1
  -1  -6   0 -11.585 17.2301   1
   1   6   1 6992.02 246.081   1
   1   6   1 7665.01 321.663   1
   1   6   1 7224.74 266.671   1
  -1  -6  -1 7253.58 244.973   1
   1   6   2 541.874 21.9989   1
  -1  -6  -2 574.984 32.0151   1
   1   6   3 978.031 35.3517   1
  -1  -6  -3 923.201 44.5072   1
   1   6   417369.00 854.576   1
  -1  -6  -417556.90 1097.36   1
   1   6   5 715.373 16.1087   1
  -1  -6  -5 702.315 41.4838   1
  -1  -6  -6 1981.00 80.3619   1
  -1  -6  -6 2096.07 30.5599   1
  -1  -6  -7 3304.90 123.597   1
  -1  -6  -7 3210.15  52.986   1
   1   6   8 3309.50 72.0676   1
  -1  -6  -8 3562.11  140.76   1
  -1  -6  -8 3612.99 69.5885   1
   1   6   9 87.1803 16.5171   1
  -1  -6  -9 110.325 68.8586   1
  -1  -6  -9 109.817  15.004   1
  -1  -6 -10 4150.98 278.177   1
  -1  -6 -10 4085.86 110.004   1
  -1  -6 -11 976.867 112.081   1
  -1  -6 -11 923.423 35.8984   1
  -1  -6 -12 37.1383 71.3421   1
  -1  -6 -12 40.8581 22.8785   1
  -1  -6 -13 31.8436 40.3525   1
  -1  -6 -13 41.7926  14.254   1
  -1  -6 -14-51.6369 39.4979   1
  -1  -6 -14  1.9144 14.6088   1
  -1  -6 -15 179.688 42.9705   1
  -1  -6 -15 117.756 16.5691   1
  -1  -6 -16 32.4072 41.2613   1
  -1  -6 -16 13.7566 15.9367   1
  -1  -6 -17 55.7871 70.6543   1
  -1  -6 -17 44.7469 16.6446   1
  -1  -6 -18 72.7174 43.5379   1
   1   7 -14 146.649 128.179   1
   1   7 -13 42.8646 64.8462   1
   1   7 -12 45.1482 63.0774   1
   1   7 -11 64.0264 16.1979   1
   1   7 -11 59.8997 105.273   1
   1   7 -10 10.2291 10.1822   1
   1   7 -10  118.76  58.673   1
   1   7  -9 6.11754 17.2451   1
   1   7  -9 40.4197 57.1176   1
   1   7  -8  397.11 16.1515   1
   1   7  -8 414.224 64.8984   1
   1   7  -7 18.3983 19.5555   1
   1   7  -7 9.36383  52.566   1
   1   7  -6 253.845 23.1282   1
   1   7  -6 162.728 94.6813   1
   1   7  -5 4113.34 123.548   1
   1   7  -5 3922.78 206.132   1
   1   7  -4 161.674 25.2335   1
   1   7  -4 171.479 47.5553   1
   1   7  -3 831.749 38.0118   1
   1   7  -3 852.025  100.96   1
   1   7  -2 5974.18 210.612   1
   1   7  -2 5539.47  241.39   1
   1   7  -1  53.679 29.9026   1
   1   7  -1 40.4155 29.3342   1
  -1  -7   1 28.2714 28.3075   1
   1   7   0 61.6823 33.3262   1
   1   7   0 37.6376 44.3584   1
  -1  -7   0 38.0006 32.3856   1
   1   7   1  42.402 22.0265   1
   1   7   1 44.1227 32.7184   1
   1   7   1 53.9197 21.7569   1
  -1  -7  -1 80.9471 35.9647   1
   1   7   2 75.6187 26.2964   1
   1   7   2 63.9461 16.3589   1
   1   7   2 106.941 33.0062   1
  -1  -7  -2  72.505 22.6872   1
   1   7   3 8154.53 267.583   1
   1   7   3 8754.86 366.845   1
  -1  -7  -3 8522.72 362.346   1
   1   7   4 6226.59 150.941   1
   1   7   4 6086.20 158.778   1
  -1  -7  -4 6486.77 328.761   1
   1   7   5 210.343  12.336   1
  -1  -7  -5 198.526 33.1315   1
  -1  -7  -6 1487.84 67.3122   1
  -1  -7  -7 978.319 57.6863   1
  -1  -7  -8 1087.65 106.541   1
  -1  -7  -9 2563.27 164.739   1
  -1  -7  -9 1979.94 25.7863   1
  -1  -7 -10 1085.77 70.6714   1
  -1  -7 -10 933.423 18.2455   1
  -1  -7 -11 5.31125  46.304   1
  -1  -7 -11 33.1294 12.5107   1
  -1  -7 -12 34.2256 43.4432   1
  -1  -7 -12 50.3155 8.57491   1
  -1  -7 -13-103.024 70.7139   1
  -1  -7 -13 9.24684 9.19256   1
  -1  -7 -14 378.234  80.766   1
  -1  -7 -14 227.288 19.5996   1
  -1  -7 -15  16.912 72.6692   1
  -1  -7 -15 11.2591 10.6382   1
  -1  -7 -16  112.92 45.3459   1
  -1  -7 -17 42.0098 45.1374   1
  -1  -7 -18 8.77867 46.3606   1
   1   8 -13 161.803 74.7461   1
   1   8 -12 65.3043 67.7308   1
   1   8 -11-131.719 110.934   1
   1   8 -10 3.20815 14.2977   1
   1   8 -10 16.8264 60.2491   1
   1   8  -9 366.703 21.1887   1
   1   8  -9  505.68 72.3582   1
   1   8  -8 81.5231  10.969   1
   1   8  -8  169.51 97.5694   1
   1   8  -7 669.325 29.5985   1
   1   8  -7 786.813 73.6097   1
   1   8  -6  20.838 21.4622   1
   1   8  -6 51.6156 51.0526   1
   1   8  -5 265.839 15.4137   1
   1   8  -5 200.824 94.3701   1
   1   8  -4 948.877  42.918   1
   1   8  -4 832.353 73.4704   1
   1   8  -3 173.332 30.4582   1
   1   8  -3 194.472 45.4912   1
   1   8  -2 1987.88 54.3825   1
   1   8  -2 2010.57 93.7151   1
   1   8  -1 1619.78  48.394   1
   1   8  -1 1632.36 118.523   1
  -1  -8   1 1595.26 46.9824   1
   1   8   0 422.305 46.1342   1
   1   8   0 368.072 29.6232   1
   1   8   0 371.396 34.9293   1
  -1  -8   0  374.51 27.3294   1
   1   8   1 88.7807 42.7001   1
   1   8   1 52.1439 36.9067   1
   1   8   1 111.057 25.1562   1
  -1  -8  -1 66.0269 39.6137   1
   1   8   2 262.019 30.5469   1
   1   8   2 230.194 19.8733   1
   1   8   2 273.666 40.0988   1
  -1  -8  -2 188.576 28.3532   1
   1   8   3 1465.66 53.8762   1
   1   8   3 1537.39  64.362   1
  -1  -8  -3 1448.33 58.3997   1
   1   8   4 128.484 12.3049   1
   1   8   4 102.794 25.6914   1
  -1  -8  -4 89.4365 32.8339   1
   1   8   5 977.944 16.6152   1
   1   8   5 986.865 30.1672   1
  -1  -8  -5 1038.76 89.6628   1
   1   8   6 274.265 15.0923   1
  -1  -8  -6 261.157 41.0814   1
  -1  -8  -7 2983.31 129.088   1
  -1  -8  -8 377.872 81.4861   1
  -1  -8  -9   24.62 42.1639   1
  -1  -8 -10 59.4908  45.504   1
  -1  -8 -11 244.727   51.48   1
  -1  -8 -12 537.563 58.2159   1
  -1  -8 -13  39.183  42.155   1
  -1  -8 -13 2.73027 5.39178   1
  -1  -8 -14  68.642 43.8866   1
  -1  -8 -14 22.3072 4.77802   1
  -1  -8 -14 16.6408 8.04375   1
  -1  -8 -15 398.383 55.2262   1
  -1  -8 -16  140.01 48.5898   1
  -1  -8 -17 58.2215 81.7031   1
  -1  -8 -18 292.195 96.5671   1
   1   9 -12 508.291 91.6108   1
   1   9 -11 20.0143  64.414   1
   1   9 -10 18.9212 104.908   1
   1   9  -9 40.3271 13.8853   1
   1   9  -9 44.5451 60.7897   1
   1   9  -8  395.08 14.0233   1
   1   9  -8 588.199 70.9489   1
   1   9  -7  0.5949 17.2621   1
   1   9  -7 10.0344 90.6365   1
   1   9  -6 236.675 23.8904   1
   1   9  -6 212.857  54.869   1
   1   9  -5  324.75 17.4928   1
   1   9  -5 234.179 55.9872   1
   1   9  -4 5861.45 237.581   1
   1   9  -4 5887.09 310.974   1
   1   9  -3 2842.02 110.213   1
   1   9  -3 2584.14 221.576   1
   1   9  -2 874.336 32.7008   1
   1   9  -2 821.852 60.1464   1
   1   9  -1 21.4224 37.2339   1
   1   9  -1  27.911 35.1154   1
  -1  -9   1 89.8332 21.0219   1
   1   9   0 242.364 26.9295   1
   1   9   0  255.71 28.7654   1
   1   9   0 221.368 34.7432   1
  -1  -9   0 184.744 42.0191   1
   1   9   1 237.235 53.1869   1
   1   9   1 264.872 26.0977   1
   1   9   1 313.635 52.7577   1
  -1  -9  -1 271.531 28.8587   1
   1   9   2 2284.07 84.0413   1
   1   9   2 2204.91 63.1642   1
   1   9   2 2200.15 108.551   1
  -1  -9  -2 2389.28 80.3525   1
   1   9   3 4033.21 144.604   1
   1   9   3 4209.27 169.202   1
  -1  -9  -3 4447.53 157.489   1
   1   9   4 748.318 32.6992   1
   1   9   4 755.504 25.5013   1
  -1  -9  -4 841.832 45.8495   1
   1   9   5 904.538 26.3392   1
   1   9   5 903.537 33.0719   1
  -1  -9  -5 901.625 91.1014   1
   1   9   6 2048.50 33.8685   1
   1   9   6 1961.52 38.9493   1
  -1  -9  -6 2043.57 91.8635   1
  -1  -9  -7 1.31834 68.0526   1
  -1  -9  -8 2072.43 105.105   1
  -1  -9  -9 1245.57 81.5478   1
  -1  -9 -10 196.321 49.8739   1
  -1  -9 -11 2774.37 235.605   1
  -1  -9 -12  630.38 110.329   1
  -1  -9 -13-116.337 83.9485   1
  -1  -9 -14 -11.632 81.6587   1
  -1  -9 -15 11.1985 48.7728   1
  -1  -9 -16 29.7634 50.6561   1
  -1  -9 -17 245.398 57.4575   1
   1  10 -11 42.1356 70.5031   1
   1  10 -10 95.0708 65.3282   1
   1  10  -9  112.06 105.943   1
   1  10  -8 64.3412 16.1945   1
   1  10  -8  158.00 58.4776   1
   1  10  -7  30.536 18.7197   1
   1  10  -7 102.259 54.3248   1
   1  10  -6 104.129  13.614   1
   1  10  -6 132.791 91.1854   1
   1  10  -5 203.138  26.948   1
   1  10  -5 152.926 85.3261   1
   1  10  -4  79.208 27.5338   1
   1  10  -4 58.8373 44.8078   1
   1  10  -3 650.747  27.915   1
   1  10  -3 602.977 59.5762   1
   1  10  -2 2051.59 90.9854   1
   1  10  -2 1809.61 95.8142   1
   1  10  -1 716.995 36.4955   1
   1  10  -1 752.717 46.0806   1
   1  10  -1 832.568 86.4064   1
   1  10   0 350.192 55.9647   1
   1  10   0 407.297 56.8309   1
   1  10   0 491.526 68.6249   1
  -1 -10   0 455.778 30.0471   1
   1  10   1 306.768 33.5765   1
   1  10   1 301.303 28.7958   1
   1  10   1 235.617 57.3116   1
  -1 -10  -1 405.513  33.173   1
   1  10   2 674.675 31.6857   1
   1  10   2 744.352 60.5249   1
  -1 -10  -2 798.445 42.5628   1
   1  10   3 3021.64  111.56   1
   1  10   3 3051.70 124.956   1
  -1 -10  -3 3360.10 117.455   1
   1  10   4-7.88005 12.7711   1
   1  10   4 23.3452 15.7427   1
  -1 -10  -4 4.62001 32.7241   1
   1  10   5 59.4656 16.5465   1
   1  10   5 10.7554 20.9466   1
  -1 -10  -5 31.2741 34.0735   1
   1  10   6 479.258 10.0167   1
   1  10   6 460.075 18.0073   1
  -1 -10  -6  490.10 45.5741   1
  -1 -10  -7-71.9984 40.2597   1
  -1 -10  -8 119.769 44.4548   1
  -1 -10  -9  404.16 92.5331   1
  -1 -10 -10-54.1508 80.1464   1
  -1 -10 -11 549.604 64.8821   1
  -1 -10 -12 1843.08 114.899   1
  -1 -10 -13 81.5631 50.5131   1
  -1 -10 -14 226.382 55.8536   1
  -1 -10 -15 246.246 57.2217   1
  -1 -10 -16 63.3745 54.5791   1
  -1 -10 -17 -17.816 91.5981   1
   1  11 -10  23.184 56.3593   1
   1  11 -10-35.4309  65.057   1
   1  11  -9 33.5174 61.3919   1
   1  11  -8 5.18241 95.3217   1
   1  11  -7 2.43159 10.5702   1
   1  11  -7 44.7127 52.4331   1
   1  11  -6 6.98358 12.2579   1
   1  11  -6-18.7978 47.9452   1
   1  11  -5 93.8561 14.8176   1
   1  11  -5 8.48205 48.3574   1
   1  11  -4 567.381 38.1109   1
   1  11  -4 660.578 96.9773   1
   1  11  -3 353.298 37.2114   1
   1  11  -3 360.737 42.7671   1
   1  11  -3 357.076 78.3274   1
   1  11  -2 80.6705 21.9342   1
   1  11  -2 77.1801 34.3891   1
   1  11  -2 145.071  38.112   1
   1  11  -1 568.109 55.0678   1
   1  11  -1 625.025  67.831   1
   1  11  -1 514.783 46.3389   1
   1  11   0 1023.00 47.9699   1
   1  11   0 1100.91 49.3564   1
   1  11   0 970.836 53.8577   1
  -1 -11   0 1081.27 70.5311   1
   1  11   1 130.846 30.8846   1
   1  11   1 55.0026 43.3069   1
   1  11   1 93.6527 29.0769   1
  -1 -11  -1 105.867 49.7644   1
   1  11   2 431.315 43.2801   1
   1  11   2 383.666 29.6969   1
  -1 -11  -2 410.405 59.9428   1
   1  11   3  63.834 30.1243   1
   1  11   3 39.2113 35.1614   1
  -1 -11  -3 70.1917 53.3361   1
   1  11   4 1569.66  38.974   1
   1  11   4 1624.45  65.605   1
  -1 -11  -4 1836.17 74.3548   1
   1  11   5 188.831 19.6245   1
   1  11   5 198.056 24.5652   1
  -1 -11  -5 213.204 39.5262   1
   1  11   6 633.258 12.3964   1
   1  11   6 663.773 22.0432   1
  -1 -11  -6 600.897 82.3079   1
  -1 -11  -7 146.818 39.3092   1
  -1 -11  -8 263.526 78.1956   1
  -1 -11  -9 37.0275 45.5521   1
  -1 -11 -10 317.405 55.0512   1
  -1 -11 -11  677.33 69.4884   1
  -1 -11 -12-1.18883 50.5534   1
  -1 -11 -13 199.587  55.417   1
  -1 -11 -14 42.3415 53.0848   1
  -1 -11 -15-45.1399 54.3456   1
  -1 -11 -16 137.077 59.2736   1
   1  12  -9  104.32  55.539   1
   1  12  -9 41.5059 63.8834   1
   1  12  -8  11.763 51.9403   1
   1  12  -8 126.417 59.2094   1
   1  12  -7  -41.67 48.2638   1
   1  12  -7 117.192 53.4623   1
   1  12  -6 0.82239 12.6337   1
   1  12  -6-44.3765 43.9587   1
   1  12  -6 110.946 85.3736   1
   1  12  -5 542.926 56.1752   1
   1  12  -5  554.96 62.1228   1
   1  12  -4 0.37923 16.7531   1
   1  12  -4 70.1354 38.3265   1
   1  12  -4-19.7337 43.3745   1
   1  12  -3 45.0547 31.2415   1
   1  12  -3 1.27297 35.8474   1
   1  12  -3 9.20491 39.5303   1
   1  12  -2 69.3265 36.0646   1
   1  12  -2 35.8149 56.3603   1
   1  12  -2 131.493 37.8309   1
   1  12  -1 349.991  29.154   1
   1  12  -1 392.232 36.5234   1
   1  12  -1  383.04 40.7867   1
   1  12   0 228.535 29.5353   1
   1  12   0 234.641 31.0047   1
   1  12   0 257.194 56.8334   1
  -1 -12   0 274.892 27.8766   1
   1  12   1 14.9665 22.8854   1
   1  12   1 27.8502 44.7975   1
  -1 -12  -1 9.51213 25.1105   1
   1  12   2 62.4831 36.1531   1
   1  12   2 147.776 24.6941   1
  -1 -12  -2 161.927 31.0104   1
   1  12   3 116.614 18.7099   1
   1  12   3 124.518  21.341   1
  -1 -12  -3 187.892 32.5789   1
   1  12   4 1376.04 51.8227   1
   1  12   4 1395.11 57.7777   1
  -1 -12  -4 1727.84  105.76   1
   1  12   5 7.13001 17.4986   1
   1  12   5 6.89695 20.8504   1
  -1 -12  -5-24.7514 33.7568   1
   1  12   6 -0.1865 11.3982   1
   1  12   6 7.36314 13.7077   1
  -1 -12  -6-5.50447 35.6252   1
  -1 -12  -7 73.1235 38.3731   1
  -1 -12  -8 153.533 41.4009   1
  -1 -12  -9 67.9318 43.0348   1
  -1 -12 -10  280.32 51.5176   1
  -1 -12 -13-41.0056 54.8167   1
  -1 -12 -14 324.899 66.5379   1
  -1 -12 -15 41.2178  57.461   1
   1  13  -8-114.607 55.0814   1
   1  13  -8-81.5366 61.7369   1
   1  13  -7 96.6256 50.5968   1
   1  13  -7 6.03979 57.2106   1
   1  13  -6 41.9633 45.7266   1
   1  13  -6 31.6976 50.9731   1
   1  13  -5-5.52144 14.4254   1
   1  13  -5 121.309 69.5562   1
   1  13  -5-55.2357 47.1417   1
   1  13  -4 107.939 18.1531   1
   1  13  -4 50.1604  69.091   1
   1  13  -4 238.944 75.0061   1
   1  13  -3 47.0535 19.1102   1
   1  13  -3 94.2259 61.3184   1
   1  13  -3-11.2242 68.3962   1
   1  13  -2 209.416  24.622   1
   1  13  -2 204.802 37.0989   1
   1  13  -2 273.198 68.5194   1
   1  13  -1  513.06 41.0833   1
   1  13  -1 556.437 44.7035   1
   1  13   0-12.6185 26.5937   1
   1  13   0-35.2242 29.9792   1
   1  13   1  260.15  45.698   1
   1  13   1 304.679 51.5924   1
  -1 -13  -1  309.82 51.6553   1
   1  13   2 186.985 22.9191   1
   1  13   2 161.917 42.0829   1
  -1 -13  -2 229.923 50.9456   1
   1  13   3 34.0526 17.8834   1
   1  13   3 61.2765 19.9812   1
  -1 -13  -3 83.3036  32.507   1
   1  13   4 507.145 32.5935   1
   1  13   4 464.679 36.8887   1
  -1 -13  -4 642.364 44.3435   1
   1  13   5 21.8588 18.4709   1
   1  13   5  11.281 12.9944   1
  -1 -13  -5-5.82022 58.3165   1
   1  13   6 24.0944 12.1023   1
   1  13   6 11.7068 13.6277   1
  -1 -13  -6 65.7909 36.8322   1
  -1 -13  -7  175.64 72.3577   1
  -1 -13  -8 183.588 45.9944   1
  -1 -13  -9 380.089 55.7166   1
  -1 -13 -11 467.938 61.3206   1
  -1 -13 -12 57.6274 53.8116   1
  -1 -13 -13 81.1625 54.8313   1
  -1 -13 -14 422.143 70.2636   1
   1  14  -6 351.842 54.8795   1
   1  14  -6 266.689 62.6217   1
   1  14  -5 167.263 48.6347   1
   1  14  -5 277.838 52.6975   1
   1  14  -4 17.2958 39.1071   1
   1  14  -4 25.7522 43.3778   1
   1  14  -3 116.832 39.0516   1
   1  14  -3 143.089 41.5845   1
   1  14  -2-66.1884 54.5368   1
   1  14  -2 2.65391 35.0841   1
   1  14  -1 5.63134 29.6325   1
   1  14  -1 35.6212 32.5414   1
   1  14   0 237.541 30.4142   1
   1  14   0 201.764 32.3659   1
   1  14   1 195.309 25.6808   1
   1  14   1 157.758 28.8112   1
  -1 -14  -1  201.76 28.9237   1
   1  14   2 28.3377 34.1833   1
   1  14   2 0.14527 22.5132   1
  -1 -14  -2 38.8033 27.3046   1
   1  14   3 38.2668 29.4259   1
   1  14   3 38.3096 33.1833   1
  -1 -14  -3 16.1997 53.4503   1
   1  14   4 31.9747 23.7648   1
   1  14   4 12.2568 16.3893   1
  -1 -14  -4-28.2113 34.2875   1
   1  14   5 1.41712 18.3896   1
   1  14   5 6.96822 12.4991   1
  -1 -14  -5 15.8861 34.7323   1
   1  14   6 43.5525 12.3602   1
   1  14   6 35.6423 13.4263   1
  -1 -14  -6 114.168  63.528   1
  -1 -14  -7 17.9902 39.0253   1
  -1 -14  -8 326.961 83.3513   1
  -1 -14  -9  170.50 48.5481   1
  -1 -14 -10 81.2136 49.6176   1
  -1 -14 -11 49.0632   52.31   1
   1  15  -4 25.5378  67.325   1
   1  15  -4 10.2249 75.9864   1
   1  15  -3 43.2608 62.4353   1
   1  15  -3 50.9832 69.1116   1
   1  15  -2 32.5811 33.4285   1
   1  15  -2-25.2958 61.1149   1
   1  15  -1 6.57217 29.1912   1
   1  15  -1 47.1282 54.1347   1
   1  15   0 319.884 51.1562   1
   1  15   0 211.127 56.1616   1
   1  15   1 62.7084  24.033   1
   1  15   1 112.788  44.488   1
   1  15   2 18.8861 20.5929   1
   1  15   2 17.9299 22.8963   1
  -1 -15  -2 17.9879 28.5412   1
   1  15   3 192.456  20.553   1
   1  15   3 193.651 37.1581   1
  -1 -15  -3 274.748 34.2367   1
   1  15   4 342.312 19.4593   1
   1  15   4  341.95 20.7784   1
  -1 -15  -4 487.546 69.1156   1
  -1 -15  -5 18.4756 37.5441   1
  -1 -15  -6 506.502 49.8466   1
  -1 -15  -7 47.1021 41.8561   1
  -1 -15  -8-3.18772 41.9018   1
  -1 -15  -9 35.3319 45.6909   1
  -1 -15 -10 59.4703 83.4239   1
   1  16  -1 255.202 39.4675   1
   1  16   0 8.36438 26.8081   1
   1  16   0-21.0928  30.145   1
   1  16   1 150.088 25.9907   1
   1  16   1 86.6832 47.3145   1
   1  16   2 1.03802  34.091   1
   1  16   2  26.573 37.1921   1
   1  16   3  0.2458 28.8718   1
   1  16   3 4.66554 19.3753   1
  -1 -16  -3-79.5878 31.9704   1
  -1 -16  -4  331.66 41.2613   1
  -1 -16  -5 193.508 70.1136   1
  -1 -16  -6 60.3251 41.9499   1
  -1 -16  -7 211.476 78.0585   1
  -1 -16  -8 28.2875 45.9672   1
  -1 -16  -9  54.451 81.0387   1
   2 -15  -6 281.069 56.6896   1
   2 -15  -5  264.29 87.1431   1
   2 -15  -4 216.078 51.6748   1
  -2  15   1 130.281 43.8921   1
  -2  15   1 115.235 20.2536   1
  -2  15   1 185.689 32.8558   1
  -2  15   0 94.7701 39.3882   1
  -2  15   0 71.6505 37.0278   1
  -2  15   0 37.5453 22.9665   1
   2 -14  -9 41.9085 92.2966   1
   2 -14  -8 22.6568 92.4448   1
   2 -14  -7 55.4746 53.8848   1
   2 -14  -6 353.539 97.7144   1
   2 -14  -5 8.14364 43.3172   1
   2 -14  -4-2.79419 69.2735   1
   2 -14  -3 207.449 46.5385   1
  -2  14   3 230.315 48.7655   1
  -2  14   2 163.183 45.1848   1
  -2  14   2 87.5192  27.363   1
  -2  14   2 136.614 16.5982   1
  -2  14   1 208.737 72.0913   1
  -2  14   1 146.629 33.6647   1
  -2  14   1 131.468 21.7545   1
  -2  14   0 914.629 58.9899   1
  -2  14   0 732.519 36.7915   1
  -2  14   0 684.698 56.2156   1
  -2  14  -1 253.155 39.7845   1
  -2  14  -1 183.812 28.5475   1
  -2  14  -1 172.122 29.0892   1
  -2  14  -2 170.147 35.8072   1
  -2  14  -2  178.46 30.7808   1
  -2  14  -2 76.9539 52.3456   1
  -2  14  -3 65.3777 51.4472   1
  -2  14  -3 16.0745 32.8787   1
  -2  14  -4 13.6983  46.296   1
  -2  14  -4-40.7755 36.1317   1
   2 -13 -10 99.4733 97.9884   1
   2 -13  -9 11.0491 53.6458   1
   2 -13  -8 264.186 58.1982   1
   2 -13  -7 453.971 101.779   1
   2 -13  -6-44.8626 48.1692   1
   2 -13  -5 59.9114  76.706   1
   2 -13  -4 33.8019 39.5975   1
  -2  13   4 48.1681 44.2384   1
  -2  13   4-2.24728  12.522   1
  -2  13   4-27.9992 12.4087   1
   2 -13  -3-2.78707 66.2135   1
  -2  13   3 74.3068 43.3438   1
  -2  13   3  70.336 19.7806   1
  -2  13   3  32.219 20.5219   1
   2 -13  -2-25.2376 37.6967   1
  -2  13   2 27.3328 69.3536   1
  -2  13   2 37.6016 25.4728   1
  -2  13   2 16.9005 26.2113   1
  -2  13   1 59.5212 40.8934   1
  -2  13   1 73.3446 32.2417   1
  -2  13   1 76.2633 32.6832   1
  -2  13   0-16.0095  37.241   1
  -2  13   0 16.4054 22.0745   1
  -2  13   0-0.58159 22.2223   1
  -2  13  -1 769.323 81.5958   1
  -2  13  -1 556.114 59.5423   1
  -2  13  -2-17.6545 32.8077   1
  -2  13  -2-27.9626 29.3774   1
  -2  13  -3 421.442 37.7711   1
  -2  13  -3 301.299 39.3276   1
  -2  13  -4 210.217  51.598   1
  -2  13  -4 190.971 39.7582   1
  -2  13  -5-23.3516 43.6978   1
  -2  13  -5 17.9359 67.4532   1
  -2  13  -6 27.8808 25.0623   1
  -2  13  -6 86.9667 73.6228   1
  -2  13  -7 60.5302 23.6319   1
  -2  13  -7 241.771 82.8081   1
   2 -12 -13 102.313 63.7831   1
   2 -12 -12 154.512  62.726   1
   2 -12 -11   6.338 56.1254   1
   2 -12 -10-47.0545 53.6781   1
   2 -12  -9  100.17 52.8712   1
   2 -12  -8-206.105 89.5529   1
   2 -12  -7 119.322 50.1551   1
   2 -12  -6 39.7786 76.4141   1
   2 -12  -5-18.8047 44.4182   1
   2 -12  -4 473.786 91.5672   1
  -2  12   4  479.03 55.5581   1
   2 -12  -3-96.8206 37.1309   1
  -2  12   3 21.0548 70.6035   1
  -2  12   3-0.31915 11.9578   1
  -2  12   3-1.12658 19.5316   1
   2 -12  -2 141.176 65.6666   1
  -2  12   2 138.778 41.3579   1
  -2  12   2 35.6558  26.352   1
  -2  12   2 73.1283 16.5975   1
  -2  12   1 382.186 79.6035   1
  -2  12   1 384.732 23.9125   1
  -2  12   1 354.936 24.7112   1
  -2  12   0 4339.38 191.333   1
  -2  12   0 3562.32 181.607   1
  -2  12  -1 97.7881 36.3962   1
  -2  12  -1 32.2384 27.3761   1
  -2  12  -2  464.95 68.6386   1
  -2  12  -2 348.539 37.2528   1
  -2  12  -3 74.0855 31.1516   1
  -2  12  -3 18.6415 60.0057   1
  -2  12  -4 2.19302 27.7776   1
  -2  12  -4-0.25131 63.4854   1
  -2  12  -5 111.588 46.7079   1
  -2  12  -5 123.794 42.9498   1
  -2  12  -6 22.6586 40.6286   1
  -2  12  -6 4.31376 45.3954   1
  -2  12  -7-4.09171 22.5635   1
  -2  12  -7-77.3695 49.6464   1
  -2  12  -8 50.2867 21.6678   1
  -2  12  -8-73.1894 92.9217   1
   2 -11 -10-79.8586  89.207   1
   2 -11  -9 73.2246 51.5679   1
   2 -11  -8 59.8891 48.4987   1
   2 -11  -7 40.6203 79.2121   1
   2 -11  -6-4.97197 44.5386   1
   2 -11  -5 30.4981 42.6736   1
  -2  11   5 88.9391 44.8127   1
   2 -11  -4 582.736 56.1309   1
  -2  11   4 458.424 96.1424   1
   2 -11  -3-20.9546 67.5268   1
  -2  11   3 47.9188 40.5989   1
  -2  11   3 2.06654 18.8573   1
  -2  11   3 3.11199 11.7815   1
   2 -11  -2 257.982 40.7404   1
  -2  11   2 363.199 75.0244   1
  -2  11   2 217.377 17.7667   1
  -2  11   2 238.353 30.0244   1
   2 -11  -1 525.064 46.4428   1
  -2  11   1 484.115 48.4387   1
  -2  11   1 366.044 25.9547   1
  -2  11   0-2.51844 62.5227   1
  -2  11   0 56.8065  23.776   1
  -2  11  -1 508.622   45.38   1
  -2  11  -1 461.188 57.0056   1
  -2  11  -2 430.075 40.2554   1
  -2  11  -2 381.028 64.5029   1
  -2  11  -3 59.9939 51.1875   1
  -2  11  -3 80.4811 34.9994   1
  -2  11  -4  78.213 28.3053   1
  -2  11  -4  76.351 38.4757   1
  -2  11  -5 133.753 45.6311   1
  -2  11  -5 139.098 43.5183   1
  -2  11  -6 62.2837 38.7927   1
  -2  11  -6-38.8973 44.8519   1
  -2  11  -7 32.0887 22.0634   1
  -2  11  -7 109.338 49.3913   1
  -2  11  -8 55.0681 20.8023   1
  -2  11  -8 99.1365 53.3712   1
  -2  11  -9 33.9704 19.4148   1
  -2  11  -9 42.1915 58.3013   1
  -2  11 -10 -50.168 62.1721   1
   2 -10 -15 116.656  55.992   1
   2 -10 -14 50.6493 55.4676   1
   2 -10 -13-40.6248 52.7141   1
   2 -10 -12  9.6693 50.2099   1
   2 -10 -11 83.9529 52.3038   1
   2 -10 -10  51.316 49.2203   1
   2 -10  -9 141.733 85.2691   1
   2 -10  -8-69.9916  81.643   1
   2 -10  -7 108.835 46.7505   1
   2 -10  -6 95.5671 77.5825   1
   2 -10  -5 21.6863  42.041   1
  -2  10   5-37.2578 43.3459   1
   2 -10  -4 48.7765 69.9816   1
  -2  10   4 30.0881 42.6692   1
  -2  10   4 55.9038 11.6789   1
  -2  10   4 64.6293 12.2384   1
   2 -10  -3  394.67  47.776   1
  -2  10   3 331.211 48.6668   1
  -2  10   3 315.093 23.0177   1
  -2  10   3 318.195 14.7932   1
   2 -10  -2 876.563 55.3143   1
  -2  10   2 802.531 58.0876   1
  -2  10   2 765.839 42.2616   1
   2 -10  -1 142.546 64.3589   1
  -2  10   1 77.0548 37.9657   1
  -2  10   1 3.74562 34.4122   1
  -2  10   0 4508.74 191.102   1
  -2  10   0 3819.17 138.442   1
  -2  10  -1   78.98 63.8421   1
  -2  10  -1 80.0729 53.0629   1
  -2  10  -2 1019.18 56.0792   1
  -2  10  -2 910.466 55.9422   1
  -2  10  -3 44.2205 51.4665   1
  -2  10  -3-27.7424 35.6383   1
  -2  10  -4 1141.46 49.6165   1
  -2  10  -4 1010.01 66.6356   1
  -2  10  -5 107.569 25.8319   1
  -2  10  -5 72.5256 73.6298   1
  -2  10  -6  70.765   42.18   1
  -2  10  -6 186.293 78.3296   1
  -2  10  -7 213.209 26.2356   1
  -2  10  -7 277.142 54.3962   1
  -2  10  -8-19.6401 21.5833   1
  -2  10  -8-29.8194 52.0672   1
  -2  10  -9 50.0061 33.6319   1
  -2  10  -9-2.19602 55.3106   1
  -2  10 -10 26.9429 30.9377   1
  -2  10 -10 -9.4146 59.1064   1
  -2  10 -11 38.3012 64.5636   1
   2  -9 -10 72.1223 47.5275   1
   2  -9  -9-19.9572 46.4158   1
   2  -9  -8 42.1295  46.905   1
   2  -9  -7 207.312  83.116   1
   2  -9  -6 2324.22 116.078   1
  -2   9   6 2084.70 118.928   1
   2  -9  -5 752.083 60.7756   1
  -2   9   5 652.241 64.8926   1
   2  -9  -4 14.5207 41.9554   1
  -2   9   4 131.874 44.9124   1
  -2   9   4  97.229 10.7613   1
  -2   9   4 108.032   11.14   1
   2  -9  -3 427.746 82.7531   1
  -2   9   3 477.106 81.2991   1
  -2   9   3 343.586 23.6208   1
   2  -9  -2 338.031 44.9637   1
  -2   9   2 373.024 45.1905   1
  -2   9   2 299.281 32.6497   1
   2  -9  -1 60.8126 34.7552   1
  -2   9   1 8.20464 37.4434   1
  -2   9   1 4.85961 34.0162   1
   2  -9   0 398.945 42.3164   1
  -2   9   0 401.971  73.778   1
  -2   9   0 318.486 49.0111   1
  -2   9  -1 4459.20 180.124   1
  -2   9  -1 4018.16 161.135   1
  -2   9  -2 76.8671 52.9348   1
  -2   9  -2-3.22697 34.2288   1
  -2   9  -3 147.021 31.9698   1
  -2   9  -3 121.475 69.7098   1
  -2   9  -4 5094.44 262.698   1
  -2   9  -4 3993.17 326.743   1
  -2   9  -5 146.202 28.3098   1
  -2   9  -5  60.736 80.1288   1
  -2   9  -6 163.856  44.935   1
  -2   9  -6  183.50 87.7027   1
  -2   9  -7 435.722 30.2941   1
  -2   9  -7 441.839 106.715   1
  -2   9  -8 1049.15 65.4722   1
  -2   9  -8 1243.36 145.627   1
  -2   9  -9 25.3512 35.2621   1
  -2   9  -9 22.3487 93.0738   1
  -2   9 -10  30.827 19.3274   1
  -2   9 -10 20.1082  57.702   1
  -2   9 -11 0.56821 18.5789   1
  -2   9 -11-14.5856  61.567   1
  -2   9 -12 91.9245 69.1854   1
   2  -8 -16 108.824 49.4764   1
   2  -8 -15 43.9839 45.1789   1
   2  -8 -14 6.85431 44.0837   1
   2  -8 -13 141.907  46.173   1
   2  -8 -12 33.3596 41.8702   1
   2  -8 -11 5.02093 41.4495   1
   2  -8 -10 12.6586 42.5592   1
   2  -8  -9 193.052 79.4864   1
   2  -8  -8 1772.17 162.806   1
   2  -8  -7 1249.72 80.3486   1
   2  -8  -6 1339.78  79.729   1
  -2   8   6 1248.23 83.3511   1
   2  -8  -5 968.589 66.3855   1
  -2   8   5  947.96 116.131   1
   2  -8  -4 164.714 70.3159   1
  -2   8   4 67.2529 42.4253   1
  -2   8   4  117.88 7.88714   1
  -2   8   4 92.7701 8.91095   1
   2  -8  -3-8.89606 37.4097   1
  -2   8   3-17.8145 38.4352   1
  -2   8   3 6.90238 18.1431   1
   2  -8  -2 3334.88 136.629   1
  -2   8   2 3622.77 214.558   1
  -2   8   2 2973.14 105.011   1
   2  -8  -1 685.689 48.6393   1
  -2   8   1 758.836 51.7753   1
  -2   8   1 634.324 47.9133   1
   2  -8   0 15.4329 33.8508   1
  -2   8   0 8.51843 34.3754   1
  -2   8   0 31.7423 41.0808   1
  -2   8  -1 2175.14 122.147   1
  -2   8  -1 1806.71 71.8168   1
  -2   8  -2 1451.66 92.1762   1
  -2   8  -2 1210.57 102.902   1
  -2   8  -3 4.40839  28.324   1
  -2   8  -3-78.6957 64.7505   1
  -2   8  -4 535.964 60.6875   1
  -2   8  -4 461.765 53.9135   1
  -2   8  -5 927.583 44.0885   1
  -2   8  -5 874.092 70.3097   1
  -2   8  -6 1927.39 102.794   1
  -2   8  -6 1837.98 110.466   1
  -2   8  -7  95.369 24.1994   1
  -2   8  -7-0.80865 51.3309   1
  -2   8  -8 170.213 43.4901   1
  -2   8  -8 213.001 57.6826   1
  -2   8  -9 63.8015  22.918   1
  -2   8  -9 116.857 100.608   1
  -2   8 -10  34.362 21.2031   1
  -2   8 -10-73.9938 98.2502   1
  -2   8 -11 56.2714 33.4432   1
  -2   8 -11 24.6926  62.874   1
  -2   8 -12 229.268 30.5308   1
  -2   8 -12 409.053  73.122   1
  -2   8 -13 84.0831 72.4408   1
   2  -7 -16 132.816 44.6027   1
   2  -7 -11-24.2588 68.3934   1
   2  -7 -10 536.383 53.9945   1
   2  -7  -9 1709.14 91.6918   1
   2  -7  -8-30.7614 41.2661   1
   2  -7  -7 589.414 89.6455   1
   2  -7  -6 101.585 42.4558   1
  -2   7   6 97.4608 44.7699   1
   2  -7  -5 231.665 45.3415   1
  -2   7   5 413.687 81.6857   1
   2  -7  -4 1936.92  94.307   1
  -2   7   4 2118.13 100.324   1
   2  -7  -3 133.643 66.2145   1
  -2   7   3  155.06 39.5749   1
  -2   7   3 124.713 17.3288   1
   2  -7  -2 403.277 68.9058   1
  -2   7   2 322.306 42.4119   1
   2  -7  -1 254.157 63.3732   1
  -2   7   1 152.446 36.8159   1
  -2   7   1 156.237 34.1371   1
   2  -7   0 785.088 76.3248   1
   2  -7   0  717.76 36.8479   1
  -2   7   0 809.115 76.2441   1
  -2   7   0 730.009 59.7838   1
   2  -7   1 534.327 39.7473   1
  -2   7  -1 673.281 40.6396   1
  -2   7  -1 580.283 39.5231   1
   2  -7   2 6343.44 287.826   1
  -2   7  -2 7263.77 293.341   1
  -2   7  -2 6626.09 410.286   1
   2  -7   3 99.6684 38.2239   1
  -2   7  -3 110.371 29.1881   1
  -2   7  -3-13.0531 38.8458   1
   2  -7   4 1392.61 80.1013   1
  -2   7  -4 1693.06 91.5435   1
  -2   7  -4 1387.45  82.569   1
   2  -7   5 1155.07 75.7382   1
  -2   7  -5 1222.36 77.1885   1
  -2   7  -5 1083.26 78.3784   1
   2  -7   6 5.49736 46.9164   1
  -2   7  -6 2.76459 25.9567   1
  -2   7  -6 29.0347 48.1064   1
   2  -7   7 178.387 53.0317   1
  -2   7  -7 126.456 45.8039   1
  -2   7  -7 238.136 56.0645   1
  -2   7  -8 1019.28 40.4116   1
  -2   7  -8 1075.24 87.9183   1
  -2   7  -9 25.7591 35.6152   1
  -2   7  -9-30.3752 55.8373   1
  -2   7 -10 640.174 49.9596   1
  -2   7 -10 477.774 135.613   1
  -2   7 -11 96.6709 21.2727   1
  -2   7 -11  77.314 106.942   1
  -2   7 -12 218.184 22.8658   1
  -2   7 -12 257.538 68.5224   1
  -2   7 -13 88.0973 66.1788   1
  -2   7 -14 58.5165 71.2588   1
   2  -6 -17  107.51 70.9193   1
   2  -6 -16-2.78708 70.6935   1
   2  -6 -15 35.8215 41.6739   1
   2  -6 -14 14.3881 40.2317   1
   2  -6 -13 116.824 40.5392   1
   2  -6 -13 51.6998 11.1386   1
   2  -6 -12 156.505 40.4665   1
   2  -6 -12 92.8344 9.26464   1
   2  -6 -12 92.0692 9.96236   1
   2  -6 -11 81.5386 40.6349   1
   2  -6 -11 75.3034 5.78684   1
   2  -6 -11 78.1179  6.4406   1
   2  -6 -10-4.97194 41.1064   1
   2  -6  -9 386.586 88.5515   1
   2  -6  -8 2231.39 167.047   1
   2  -6  -7 216.063 41.6122   1
   2  -6  -6 65.7606  36.324   1
  -2   6   6 16.7522 40.1263   1
   2  -6  -5 891.083 56.7259   1
  -2   6   5 1096.33 101.681   1
   2  -6  -4 383.298 71.3221   1
  -2   6   4 411.536   74.57   1
   2  -6  -3 2985.57  115.99   1
  -2   6   3 3118.39 117.978   1
  -2   6   3 2922.03 59.5252   1
   2  -6  -2 4294.75 157.166   1
   2  -6  -2 4077.20 122.403   1
  -2   6   2 4642.67 161.797   1
  -2   6   2 3977.34 90.0409   1
   2  -6  -1 3606.24 125.127   1
   2  -6  -1 3254.63 83.0593   1
  -2   6   1 3755.66  125.10   1
  -2   6   1 3097.68 80.5487   1
   2  -6   0 2190.89 77.6228   1
   2  -6   0 2074.97 64.4137   1
  -2   6   0 2230.35 79.0237   1
  -2   6   0 1830.11 92.5322   1
   2  -6   1 3155.71 109.678   1
  -2   6  -1 3682.75 122.228   1
  -2   6  -1 3052.03 112.106   1
   2  -6   2 570.074 42.9059   1
  -2   6  -2 696.297 39.3504   1
  -2   6  -2 672.158 73.8846   1
   2  -6   3 1526.36 70.2941   1
  -2   6  -3 1546.67  56.852   1
  -2   6  -3 1461.55 73.3725   1
   2  -6   4 262.347 42.5548   1
  -2   6  -4 209.688 30.3171   1
  -2   6  -4 167.468 44.3495   1
   2  -6   5 2136.95 111.093   1
  -2   6  -5 2492.31 114.951   1
  -2   6  -5 2138.90 114.688   1
   2  -6   6 534.683 99.8859   1
  -2   6  -6 489.813 30.3094   1
  -2   6  -6 359.004 60.3809   1
   2  -6   7 198.772 53.9241   1
  -2   6  -7 263.116 27.5374   1
  -2   6  -7 278.555 57.1369   1
   2  -6   8 176.419 57.4819   1
  -2   6  -8 338.176 61.9201   1
   2  -6   9-41.3957 52.3768   1
  -2   6  -9  50.812 55.0145   1
  -2   6 -10 285.434 65.3269   1
  -2   6 -11 472.991 123.698   1
  -2   6 -12 182.655 65.6858   1
  -2   6 -13 103.513 63.6039   1
  -2   6 -14 102.017 66.9557   1
  -2   6 -15 37.4487  120.80   1
   2  -5 -17 48.2052  39.491   1
   2  -5 -16 63.7468 38.3036   1
   2  -5 -15 140.803 38.5945   1
   2  -5 -15 62.5677 20.9833   1
   2  -5 -15 40.5056 14.0659   1
   2  -5 -14 14.9724  37.164   1
   2  -5 -14 38.5204 19.3652   1
   2  -5 -14  10.159 21.5707   1
   2  -5 -13  161.09 39.7234   1
   2  -5 -13 125.614 19.6014   1
   2  -5 -13 157.291 13.6347   1
   2  -5 -12 -99.296 61.1532   1
   2  -5 -12-1.00899 16.7332   1
   2  -5 -12 18.3931 11.4828   1
   2  -5 -11 97.1345 63.3202   1
   2  -5 -11 31.8679 9.24345   1
   2  -5 -11 49.6055  18.479   1
   2  -5 -10 678.058 53.1086   1
   2  -5 -10 601.587 14.0455   1
   2  -5 -10 573.555 24.7149   1
   2  -5  -9 5589.14 264.398   1
   2  -5  -9 5903.85 148.325   1
   2  -5  -9 5767.93 152.382   1
   2  -5  -8 76.2313 38.4896   1
   2  -5  -8 73.2249 6.61886   1
   2  -5  -8 78.7202 8.70582   1
   2  -5  -7  269.77 40.6967   1
   2  -5  -6 924.465 51.7579   1
   2  -5  -5 3543.75 134.275   1
  -2   5   5 4007.05 225.611   1
   2  -5  -4 2589.25 101.289   1
  -2   5   4 2768.26 161.247   1
   2  -5  -313483.50 782.923   1
   2  -5  -313635.60  583.16   1
  -2   5   315215.00 1057.69   1
  -2   5   314516.80 600.268   1
   2  -5  -2 1388.67 99.5493   1
   2  -5  -2 1362.87 43.8715   1
  -2   5   2 1481.93 102.748   1
  -2   5   2 1422.96 39.4452   1
   2  -5  -1 173.299 32.1423   1
   2  -5  -1 144.278 30.7822   1
  -2   5   1 215.663 52.3705   1
  -2   5   1 145.617 28.0762   1
   2  -5   0 1516.02 60.0501   1
   2  -5   0 1700.38 80.7365   1
  -2   5   0 1471.57 64.2722   1
   2  -5   1 529.901 60.8143   1
  -2   5  -1 644.758 37.0924   1
  -2   5  -1 419.335 33.2687   1
   2  -5   2 4566.55 170.579   1
  -2   5  -2 4851.27 156.339   1
  -2   5  -2 4568.24 241.064   1
   2  -5   3 11.5868 32.9946   1
  -2   5  -3-16.5975  26.005   1
  -2   5  -3-14.4256  32.759   1
   2  -5   4 3172.99 131.425   1
  -2   5  -4 3374.79 98.9436   1
  -2   5  -4 3173.64  134.40   1
   2  -5   5 67.4317   72.60   1
  -2   5  -5 125.626  25.042   1
  -2   5  -5 91.2279  42.713   1
   2  -5   6 131.873 46.7661   1
  -2   5  -6 144.123 49.2058   1
   2  -5   7  58.817 47.5744   1
  -2   5  -7 22.3209 49.4309   1
   2  -5   8 100.278 87.5592   1
  -2   5  -8-15.7927  52.827   1
   2  -5   9 27.4883 53.4671   1
  -2   5  -9 43.8123 56.4509   1
   2  -5  10 319.062 63.2312   1
  -2   5 -10 494.585 68.8564   1
  -2   5 -11 149.327 107.908   1
  -2   5 -12 32.2618 58.2073   1
  -2   5 -13 116.117 62.6608   1
  -2   5 -14 93.0244 63.2694   1
  -2   5 -15 68.7164 114.665   1
  -2   5 -16-5.52935 64.3015   1
   2  -4 -17 34.0247  36.199   1
   2  -4 -16 24.6475 35.3742   1
   2  -4 -16 28.6312 16.8081   1
   2  -4 -16 8.98285 18.9119   1
   2  -4 -15 106.732 61.5445   1
   2  -4 -15 102.853 17.1706   1
   2  -4 -15 84.4542 31.6092   1
   2  -4 -14 108.258 58.8156   1
   2  -4 -14 66.9868 26.3588   1
   2  -4 -14 57.5467  17.979   1
   2  -4 -13 88.9177 34.9766   1
   2  -4 -13 94.3868  24.855   1
   2  -4 -13 49.4773 30.6708   1
   2  -4 -12 235.523 39.1339   1
   2  -4 -12 272.755 26.8037   1
   2  -4 -12 262.878 20.4549   1
   2  -4 -11 55.1859  35.769   1
   2  -4 -11 83.6737 13.6677   1
   2  -4 -11 57.5206 29.4841   1
   2  -4 -10  26.635 35.8179   1
   2  -4 -10 22.9231 20.9506   1
   2  -4 -10 3.82036 16.8178   1
   2  -4  -9 1239.68 66.6765   1
   2  -4  -9 1286.72 26.7239   1
   2  -4  -9 1346.21 49.4797   1
   2  -4  -8 1569.49 118.906   1
   2  -4  -8 1671.08  29.734   1
   2  -4  -8 1661.31 50.6197   1
   2  -4  -7 2148.91 95.2846   1
   2  -4  -7 2415.01 48.9489   1
   2  -4  -7 2413.39 57.1242   1
   2  -4  -6 3140.26 121.686   1
   2  -4  -6 3171.28 62.6972   1
   2  -4  -6 3354.67  64.102   1
   2  -4  -5 956.947 47.8556   1
   2  -4  -5 1001.54  15.695   1
   2  -4  -5 1044.67 14.7443   1
  -2   4   5 1133.03 54.1485   1
   2  -4  -4 938.034 79.6312   1
  -2   4   4 1078.41 52.1376   1
   2  -4  -3 1993.84 74.4111   1
   2  -4  -3 1956.26 34.8258   1
  -2   4   3 1930.81 123.044   1
  -2   4   3 1952.65 35.9646   1
   2  -4  -2 1505.27 59.0694   1
   2  -4  -2 1506.52 40.7173   1
  -2   4   2 1460.27 60.0899   1
  -2   4   2 1509.20  34.743   1
   2  -4  -1 460.756 55.3503   1
   2  -4  -1 185.209 31.1001   1
  -2   4   1 246.244  30.909   1
   2  -4   0 485.011 35.1465   1
   2  -4   0 511.291 27.6032   1
  -2   4   0 659.814 61.9455   1
  -2   4   0 509.101 41.5527   1
   2  -4   1 1104.50 43.5695   1
  -2   4  -1 1155.76  45.959   1
  -2   4  -1 1075.32 70.6238   1
   2  -4   2 91.1484   30.24   1
  -2   4  -2 154.328 26.8232   1
  -2   4  -2  130.71 28.8263   1
   2  -4   3 513.945 44.2568   1
  -2   4  -3 676.265 53.0424   1
  -2   4  -3 544.747 42.0698   1
   2  -4   4 3102.10 193.768   1
  -2   4  -4 2966.85 119.242   1
   2  -4   5 2051.46 95.0172   1
  -2   4  -5 2161.17  97.721   1
   2  -4   6 21.8873 41.0849   1
  -2   4  -6 3.88303 42.2007   1
   2  -4   7  306.90 95.2359   1
  -2   4  -7  427.99 57.0988   1
   2  -4   8 493.101 60.2604   1
  -2   4  -8 472.376  65.205   1
   2  -4   9 168.443 55.9792   1
  -2   4  -9 180.574  57.645   1
   2  -4  10  71.324 55.2823   1
  -2   4 -10 83.7183 57.0731   1
   2  -4  11 950.317 84.6388   1
  -2   4 -11 964.823  150.86   1
  -2   4 -12-29.5212 55.8651   1
  -2   4 -13 177.942 61.6338   1
  -2   4 -14 38.9969 58.9537   1
  -2   4 -15 44.0993 103.559   1
  -2   4 -16  190.69 66.2875   1
   2  -3 -17 51.6347 30.4339   1
   2  -3 -17 47.8941 34.8795   1
   2  -3 -17 7.03132 39.8948   1
   2  -3 -16-41.0077 52.4577   1
   2  -3 -16 30.5818 20.4826   1
   2  -3 -16 -17.161 23.0808   1
   2  -3 -15 9.30654 32.5234   1
   2  -3 -15 26.5597 20.4067   1
   2  -3 -15 91.3377  39.734   1
   2  -3 -14 37.5837 30.9588   1
   2  -3 -14 58.2251  31.699   1
   2  -3 -14  6.2568  22.744   1
   2  -3 -13 358.518 38.0345   1
   2  -3 -13 413.027 37.1592   1
   2  -3 -13  374.75 46.3344   1
   2  -3 -12 283.039  36.206   1
   2  -3 -12 261.498 34.4887   1
   2  -3 -12  285.08  25.848   1
   2  -3 -11 122.524 34.4828   1
   2  -3 -11 154.647 31.8083   1
   2  -3 -11 165.336 40.8259   1
   2  -3 -10 415.498 40.4999   1
   2  -3 -10 434.151 35.0197   1
   2  -3 -10 459.055 44.4533   1
   2  -3  -9 39.1881 33.0836   1
   2  -3  -9 120.353 15.7237   1
   2  -3  -9 103.137 20.4656   1
   2  -3  -8 1186.48 58.5061   1
   2  -3  -8 1303.79 45.1391   1
   2  -3  -8 1335.73 56.5477   1
   2  -3  -7 6546.69 276.116   1
   2  -3  -7 6989.69 224.861   1
   2  -3  -7 6784.36 247.473   1
   2  -3  -6 1047.48 88.0791   1
   2  -3  -6 1212.80 33.5611   1
   2  -3  -6 1210.88 41.0542   1
   2  -3  -5 9573.92 448.164   1
   2  -3  -5 9945.04 337.301   1
   2  -3  -5 9833.84 355.774   1
  -2   3   510379.30  474.44   1
   2  -3  -4 340.774 33.8752   1
   2  -3  -4 387.932 13.9133   1
  -2   3   4 477.815  35.733   1
   2  -3  -3 822.779 43.1344   1
   2  -3  -3 894.354 20.0719   1
  -2   3   3 845.771 75.1821   1
  -2   3   3  844.10 17.8403   1
   2  -3  -2 2550.74 93.8981   1
   2  -3  -2 2773.14 66.3916   1
  -2   3   2 2661.81 94.4655   1
  -2   3   2 2688.96 57.0181   1
   2  -3  -1 4182.26 154.421   1
   2  -3  -1 4621.46 116.844   1
  -2   3   1 4501.92  229.49   1
  -2   3   1 4502.96 105.965   1
   2  -3   0 9834.57 476.679   1
   2  -3   011787.50 617.238   1
  -2   3   011280.80 517.162   1
  -2   3   010673.70 446.552   1
   2  -3   1 238.714 57.5821   1
  -2   3  -1 210.979 34.1382   1
  -2   3  -1 206.239 29.3142   1
   2  -3   2 1903.94 79.7136   1
  -2   3  -2 2578.95 114.732   1
  -2   3  -2 1697.75 78.6593   1
   2  -3   317813.20 1163.07   1
  -2   3  -317169.60 1368.17   1
   2  -3   4 8212.46 501.382   1
  -2   3  -4 7786.45 350.636   1
   2  -3   5-4.52436 38.1524   1
  -2   3  -5 -2.4687 37.2537   1
   2  -3   6 74.8815 69.8139   1
  -2   3  -6 58.6782 41.0246   1
   2  -3   7 511.207 53.9532   1
  -2   3  -7 482.977 55.6434   1
   2  -3   8 155.218 84.6513   1
  -2   3  -8 94.9857 50.3878   1
   2  -3   9 106.913 49.5154   1
  -2   3  -9 35.9428 53.6073   1
   2  -3  10 64.6691 51.3355   1
  -2   3 -10 80.7591 55.1856   1
   2  -3  11 1695.86 112.391   1
  -2   3 -11 1687.66 191.956   1
   2  -3  12-21.4164 51.6939   1
  -2   3 -12  125.12 55.0006   1
  -2   3 -13-78.6157 55.4895   1
  -2   3 -14-12.9992 54.0546   1
  -2   3 -15 105.691 95.2241   1
  -2   3 -16 89.3281 58.3115   1
  -2   3 -17 38.5098 57.6117   1
   2  -2 -17-45.4545 44.7684   1
   2  -2 -17 54.4972 23.6622   1
   2  -2 -17 66.1686 47.3404   1
   2  -2 -16  137.78 28.8964   1
   2  -2 -16 144.268 40.6644   1
   2  -2 -16 52.2785 30.8524   1
   2  -2 -15  611.47 40.9886   1
   2  -2 -15  715.15 36.5269   1
   2  -2 -15 693.669 68.5566   1
   2  -2 -14-38.1648 26.8487   1
   2  -2 -14 39.9208 21.9686   1
   2  -2 -14-3.22729  27.756   1
   2  -2 -13 110.976 48.4384   1
   2  -2 -13 120.939  22.562   1
   2  -2 -13 127.759 47.5488   1
   2  -2 -12 57.1251 46.6998   1
   2  -2 -12 55.6611  36.375   1
   2  -2 -12 35.9303 26.3252   1
   2  -2 -11 195.004 31.2447   1
   2  -2 -11 189.346 39.6443   1
   2  -2 -11 205.004 51.0418   1
   2  -2 -10 73.0277 29.9102   1
   2  -2 -10 149.949 36.0001   1
   2  -2 -10 131.101 27.1147   1
   2  -2  -9  2.9316 27.5498   1
   2  -2  -9 24.8693 31.2613   1
   2  -2  -9-10.0452 23.1365   1
   2  -2  -8 30.9988 47.0182   1
   2  -2  -8 64.1471 16.9936   1
   2  -2  -8 24.8665 38.6734   1
   2  -2  -7 382.394  56.688   1
   2  -2  -7 450.436 32.8461   1
   2  -2  -7 448.382 41.7256   1
   2  -2  -6 65.1143 27.9303   1
   2  -2  -6 81.7537 14.6924   1
   2  -2  -6  175.49 31.1345   1
   2  -2  -5 844.689 70.0271   1
   2  -2  -5 887.214 33.7347   1
   2  -2  -5 870.271 25.1106   1
   2  -2  -415696.60 1002.89   1
   2  -2  -417230.70  969.95   1
  -2   2   417577.40 1302.34   1
   2  -2  -3 3466.57 120.203   1
   2  -2  -3 3823.87 92.8045   1
  -2   2   3 3869.61 127.127   1
  -2   2   3 3828.88  91.451   1
   2  -2  -2 8057.05 402.616   1
   2  -2  -2 6512.15 167.293   1
  -2   2   2 7496.29 281.456   1
  -2   2   2 6844.73 208.021   1
   2  -2  -118977.80 1279.10   1
   2  -2  -121090.80 1340.08   1
  -2   2   120189.40 1338.20   1
  -2   2   120286.00 1263.85   1
   2  -2   0 165.075 29.4456   1
   2  -2   0 200.181 38.6289   1
  -2   2   0  240.48 30.8776   1
  -2   2   0 176.058 20.9713   1
   2  -2   1 1818.54 102.084   1
  -2   2  -1 1382.94 61.0176   1
  -2   2  -1 1467.23  92.051   1
   2  -2   2 3174.66 118.863   1
  -2   2  -2 2843.63 106.772   1
   2  -2   3 7030.87 313.032   1
  -2   2  -3 6686.56  289.73   1
   2  -2   4-2.91163 63.5128   1
  -2   2  -4 -4.5246 34.9275   1
   2  -2   5 562.146 45.5755   1
  -2   2  -5 504.087 79.7423   1
   2  -2   6 5547.05 244.283   1
  -2   2  -6 5370.21 236.209   1
   2  -2   7 2212.45 163.761   1
  -2   2  -7 2205.85 102.593   1
   2  -2   8 416.482 53.2395   1
  -2   2  -8 488.598 54.0427   1
   2  -2   9 575.345 104.382   1
  -2   2  -9 543.896 110.631   1
   2  -2  10 893.042 73.2327   1
  -2   2 -10  976.13 129.764   1
   2  -2  11 881.915 75.9324   1
  -2   2 -11 889.624 81.0826   1
   2  -2  12  495.53  60.954   1
  -2   2 -12 443.057  65.558   1
   2  -2  13 349.179 57.2419   1
  -2   2 -13 308.345 59.5687   1
  -2   2 -14 105.367 93.2305   1
  -2   2 -15  49.627 51.1918   1
  -2   2 -16 52.0043 52.9964   1
  -2   2 -17 34.7547 53.3116   1
  -2   2 -18 42.3802 95.1871   1
   2  -1 -17 48.0917 40.1502   1
   2  -1 -17 55.7152 44.2047   1
   2  -1 -17 54.9611 35.4226   1
   2  -1 -16 31.5579 23.7243   1
   2  -1 -16 24.3619 25.9172   1
   2  -1 -16 92.7677 56.4447   1
   2  -1 -15 35.8912 24.9241   1
   2  -1 -15 78.9173 26.2253   1
   2  -1 -15 55.4878 34.6058   1
   2  -1 -14 201.728 44.1071   1
   2  -1 -14 238.533 46.9542   1
   2  -1 -14 309.141 61.7588   1
   2  -1 -13 52.2149 24.0288   1
   2  -1 -13 47.3736 41.4264   1
   2  -1 -13 91.7325 31.7612   1
   2  -1 -12 23.3061 23.9376   1
   2  -1 -12 52.2914 24.0008   1
   2  -1 -12 67.9888 52.8058   1
   2  -1 -11 287.733 29.5361   1
   2  -1 -11 331.372 28.9348   1
   2  -1 -11  360.97  38.024   1
   2  -1 -10 1132.65 47.2299   1
   2  -1 -10 1197.02 44.6636   1
   2  -1 -10 1257.88 88.7238   1
   2  -1  -9 500.055 32.5759   1
   2  -1  -9 539.592  29.867   1
   2  -1  -9 543.959 61.9357   1
   2  -1  -8 65.6518 23.9708   1
   2  -1  -8 92.4713 21.0291   1
   2  -1  -8 63.4499 26.8691   1
   2  -1  -7 20.2206  22.842   1
   2  -1  -7 74.9331 19.1403   1
   2  -1  -7 36.8587 23.1317   1
   2  -1  -6 4545.25 159.918   1
   2  -1  -6 5101.34 191.774   1
   2  -1  -6 4946.79 155.129   1
   2  -1  -5 5928.58 202.885   1
   2  -1  -5 6300.48 228.022   1
   2  -1  -5 5799.21 186.009   1
   2  -1  -412274.40 764.558   1
   2  -1  -413346.20 664.459   1
  -2   1   413348.70 641.547   1
   2  -1  -3 4315.10 151.262   1
   2  -1  -3 5011.15 163.976   1
  -2   1   3 4926.70 231.449   1
   2  -1  -211134.50 533.595   1
   2  -1  -211957.00 465.618   1
  -2   1   213011.90  593.85   1
  -2   1   212660.40 563.545   1
   2  -1  -121940.90 1585.63   1
   2  -1  -127365.10 1859.19   1
  -2   1   122641.30 1629.95   1
  -2   1   123753.90 1549.17   1
   2  -1   065123.0012088.60   1
   2  -1   067842.8011900.60   1
  -2   1   067046.4012282.60   1
  -2   1   071819.5012960.40   1
   2  -1   179292.4017314.00   1
  -2   1  -180764.6017983.60   1
   2  -1   2 1832.39 107.179   1
  -2   1  -2 1222.08 98.8371   1
   2  -1   3 5852.95 234.277   1
  -2   1  -3 4730.47 207.778   1
   2  -1   4 160.937 43.3565   1
  -2   1  -4-62.7658 72.5425   1
   2  -1   5 2523.96 104.541   1
  -2   1  -5 2454.03  104.01   1
   2  -1   6 5207.26  218.19   1
  -2   1  -6 5015.46  202.45   1
   2  -1   7 764.475 55.1852   1
  -2   1  -7  717.60 92.9459   1
   2  -1   8 6.65855 39.0013   1
  -2   1  -8 35.8189  66.394   1
   2  -1   9 12.8204 42.3193   1
  -2   1  -9   50.11 42.2211   1
   2  -1  10  186.72  83.653   1
  -2   1 -10 194.786 50.5868   1
   2  -1  11 137.534 49.4811   1
  -2   1 -11 182.437 51.9433   1
   2  -1  12 67.6093 80.7449   1
  -2   1 -12-56.0571 49.9937   1
   2  -1  13 95.7168 46.7611   1
  -2   1 -13 31.7276 84.9006   1
  -2   1 -14 148.995 83.0354   1
  -2   1 -15 36.1202   46.87   1
  -2   1 -16 76.1628 48.3545   1
  -2   1 -17 37.8926 83.6575   1
  -2   1 -18 109.225 54.7242   1
   2   0 -17-0.43345 35.1148   1
   2   0 -17  55.322 29.6398   1
   2   0 -17 62.6563 40.0009   1
   2   0 -16 10.2568 21.1678   1
   2   0 -16 20.5708 28.8071   1
   2   0 -16 78.9967 39.3017   1
   2   0 -15 24.8356 34.7282   1
   2   0 -15  45.476  46.662   1
   2   0 -15-13.6092 38.2132   1
   2   0 -14  63.243 21.1451   1
   2   0 -14 75.8553 27.4967   1
   2   0 -14  64.325 36.8489   1
   2   0 -13 7.92315 19.9723   1
   2   0 -13 -31.306 26.4953   1
   2   0 -13 21.3932 34.7905   1
   2   0 -12-14.9649 34.4968   1
   2   0 -12-14.4208 26.9496   1
   2   0 -12 7.37716 35.3048   1
   2   0 -11  2.7884 38.2517   1
   2   0 -11 138.459 62.9489   1
   2   0 -10 605.609 53.1644   1
   2   0 -10 656.157 49.1398   1
   2   0  -9 458.545 28.2846   1
   2   0  -9 458.081 73.8558   1
   2   0  -8 1115.01 38.9549   1
   2   0  -8 1345.74 89.8886   1
   2   0  -7 49.4218 33.5607   1
   2   0  -7 31.8886 27.2944   1
   2   0  -6 491.954 42.2389   1
   2   0  -6 498.098 33.3686   1
   2   0  -5 76.4119 19.2087   1
   2   0  -5  100.47 21.2553   1
   2   0  -5 83.0328 25.1259   1
   2   0  -4 5929.51  195.99   1
   2   0  -4 6436.68 207.842   1
   2   0  -310806.50 477.302   1
   2   0  -311802.00 501.259   1
  -2   0   311799.50 605.981   1
   2   0  -210507.20 411.366   1
   2   0  -211272.40 420.808   1
  -2   0   210793.20  414.46   1
  -2   0   210761.40 408.683   1
   2   0  -124926.30 1683.75   1
   2   0  -124866.90 1790.91   1
  -2   0   123253.00 1592.90   1
  -2   0   122731.50 1571.16   1
   2   0   0 50.8661 11.3898   1
  -2   0   0 50.3708 13.8155   1
  -2   0   0 76.1578 11.6549   1
   2   0   1 2518.22 53.3413   1
  -2   0  -1 2772.69 55.6394   1
   2   0   217339.00 885.384   1
  -2   0  -215878.00 838.035   1
   2   0   3 958.145 41.9185   1
  -2   0  -3 827.019 41.7679   1
   2   0   4 447.798 46.7017   1
  -2   0  -4 451.468  74.291   1
   2   0   5 625.908 52.3003   1
  -2   0  -5 570.251   48.12   1
   2   0   6 3798.03 143.263   1
  -2   0  -6 3818.03 219.959   1
   2   0   7 5925.02 245.613   1
  -2   0  -7 5099.73 234.682   1
   2   0   8 6366.36 275.808   1
  -2   0  -8 5989.77  265.77   1
   2   0   9 608.388 93.7402   1
  -2   0  -9  751.00   54.85   1
   2   0  10 341.667  48.347   1
  -2   0 -10 355.696 50.3152   1
   2   0  11-102.713 73.7959   1
  -2   0 -11-26.6646 44.9721   1
   2   0  12 910.562 68.2688   1
  -2   0 -12 924.342 125.789   1
   2   0  13 108.775 43.6687   1
  -2   0 -13 61.7033 44.9286   1
   2   0  14 114.219 43.5204   1
  -2   0 -14 84.9793 43.1512   1
  -2   0 -15-15.5791 41.6696   1
  -2   0 -16 50.2002 74.8878   1
  -2   0 -17 14.9795 44.1158   1
  -2   0 -18 53.8644 46.9701   1
   2   1 -17 68.2088 32.2518   1
   2   1 -17  83.003 34.3841   1
   2   1 -17 154.617 79.5278   1
   2   1 -16 18.5216 19.2836   1
   2   1 -16 58.3881 53.4943   1
   2   1 -16 15.8523 44.2977   1
   2   1 -15 11.5723 29.5969   1
   2   1 -15 24.6036 30.7242   1
   2   1 -15 2.29445 69.9301   1
   2   1 -14 33.5424 17.7317   1
   2   1 -14 38.3217 30.6878   1
   2   1 -14 51.9993  40.884   1
   2   1 -13 155.984 31.8827   1
   2   1 -13 111.626 31.7239   1
   2   1 -13 160.179 71.9837   1
   2   1 -12 170.664 34.8208   1
   2   1 -12 279.593 44.1363   1
   2   1 -11 176.443 21.3314   1
   2   1 -11 169.486 74.4217   1
   2   1 -10-5.88602 19.6293   1
   2   1 -10 19.0624 38.6824   1
   2   1  -9 2962.51  119.55   1
   2   1  -9 3467.94  140.50   1
   2   1  -8 139.892 31.9783   1
   2   1  -8 105.486  65.218   1
   2   1  -7 367.224 33.6459   1
   2   1  -7 425.639 38.0915   1
   2   1  -6 5907.92 171.288   1
   2   1  -6 6492.72 252.724   1
   2   1  -5 55.0998 14.7046   1
   2   1  -5 31.5302 28.0654   1
   2   1  -4 9464.52 353.952   1
   2   1  -410357.40 445.812   1
   2   1  -3 5213.80 174.984   1
   2   1  -3 5375.66 179.225   1
   2   1  -2 4085.06 88.0823   1
   2   1  -2 4786.30 131.933   1
  -2  -1   2 4547.36 120.673   1
   2   1  -1 4307.73 98.8097   1
   2   1  -1 4217.55 102.506   1
  -2  -1   1 4117.99 139.172   1
   2   1   0 52.0307 21.9541   1
  -2  -1   0 58.4711 12.8524   1
   2   1   122989.80 1510.92   1
  -2  -1  -125057.20 1780.44   1
   2   1   216753.40 869.626   1
  -2  -1  -218291.20 932.354   1
   2   1   370295.8013139.70   1
  -2  -1  -364696.8011610.60   1
   2   1   437399.80 4187.15   1
  -2  -1  -439086.50 4808.64   1
   2   1   5 1876.50 81.2515   1
  -2  -1  -5 1593.82 73.0934   1
   2   1   6 258.658 34.8271   1
  -2  -1  -6 239.723 57.7384   1
   2   1   7 524.811 39.2279   1
  -2  -1  -7 487.735 37.6501   1
   2   1   8 2816.47 103.773   1
  -2  -1  -8 2758.67 97.8385   1
   2   1   9 2531.28 101.713   1
  -2  -1  -9 2386.53 93.6719   1
   2   1  10 1493.71  74.706   1
  -2  -1 -10 1470.19 72.3228   1
   2   1  11 1608.85 134.614   1
  -2  -1 -11 1680.28 82.6001   1
   2   1  12  607.33 57.4088   1
  -2  -1 -12 760.627 57.8406   1
   2   1  13 768.662 96.2225   1
  -2  -1 -13 621.075  57.973   1
   2   1  14 11.0204 38.1332   1
  -2  -1 -14-24.7854 38.2353   1
  -2  -1 -15  176.04 71.7878   1
  -2  -1 -16 26.5385 39.6445   1
  -2  -1 -17 4.91463 39.5812   1
  -2  -1 -18 74.1605 73.3645   1
   2   2 -16 81.1985 18.7279   1
   2   2 -16 194.007 65.8676   1
   2   2 -16 157.172 52.1138   1
   2   2 -15 77.3301 28.0896   1
   2   2 -15  17.402 37.2429   1
   2   2 -15 174.709 79.5466   1
   2   2 -14 24.0893 16.1704   1
   2   2 -14-45.8019 35.3725   1
   2   2 -14 45.0199 43.8162   1
   2   2 -13  166.32 30.3351   1
   2   2 -13 199.831 48.5013   1
   2   2 -12 406.243 22.0307   1
   2   2 -12 421.829 54.7476   1
   2   2 -11 47.6628 29.4342   1
   2   2 -11 110.619  43.993   1
   2   2 -10-20.2965 28.7845   1
   2   2 -10  24.089 42.5597   1
   2   2  -9-0.48889 16.3039   1
   2   2  -9 0.33328 42.6027   1
   2   2  -8 2175.30 52.0617   1
   2   2  -8 2620.94 169.756   1
   2   2  -7 9.31977 13.1251   1
   2   2  -7-46.3942 34.2366   1
   2   2  -6 8709.36 284.834   1
   2   2  -6 9441.10 429.792   1
   2   2  -5 931.293  20.548   1
   2   2  -5 994.246 50.2955   1
   2   2  -4 1714.59 42.2054   1
   2   2  -3 3918.30  89.298   1
   2   2  -3 4439.14 146.256   1
   2   2  -2 1542.91 24.5361   1
   2   2  -2 1870.48   60.08   1
   2   2  -117741.20 983.842   1
  -2  -2   117118.50 958.859   1
   2   2   0 7346.90 310.476   1
  -2  -2   0 7636.80 245.551   1
   2   2   1 163.129 14.7551   1
  -2  -2  -1  158.80  26.575   1
   2   2   212876.40 550.169   1
  -2  -2  -214544.60 687.786   1
   2   2   3 1553.69 62.9378   1
  -2  -2  -3 1430.69  37.678   1
   2   2   4 109.764 26.6719   1
  -2  -2  -4 192.532 24.8213   1
   2   2   536669.00 4066.66   1
  -2  -2  -538948.00 4509.48   1
   2   2   6 4055.26 131.874   1
  -2  -2  -6 3603.84  126.35   1
   2   2   7 7629.67 385.788   1
  -2  -2  -7 6983.57 362.433   1
   2   2   8 288.885 55.7609   1
  -2  -2  -8 310.868 31.0241   1
   2   2   9 84.2279 54.7636   1
  -2  -2  -9 78.1648 51.6894   1
   2   2  10 1726.90 120.699   1
  -2  -2 -10 1691.54 115.417   1
   2   2  11 524.019 45.5235   1
  -2  -2 -11 507.041   75.12   1
   2   2  12 1789.75 82.2919   1
  -2  -2 -12 1881.07 135.715   1
   2   2  13  205.30 69.3875   1
  -2  -2 -13 189.939 41.0749   1
   2   2  14 2292.24 104.673   1
  -2  -2 -14 2363.81 106.595   1
  -2  -2 -15 24.0999 34.5755   1
  -2  -2 -16 32.6431 35.0175   1
  -2  -2 -17-54.6156 62.7087   1
  -2  -2 -18 186.938 41.7605   1
  -2  -2 -19 19.0172 39.3556   1
   2   3 -16 139.021 70.7502   1
   2   3 -16 19.4191 55.5751   1
   2   3 -15 12.5419   23.10   1
   2   3 -15 33.0573 40.1317   1
   2   3 -15 -20.654 50.8661   1
   2   3 -14  23.559 14.2653   1
   2   3 -14 16.8021 39.1011   1
   2   3 -14 62.3514 49.1309   1
   2   3 -13 118.601 25.7931   1
   2   3 -13 168.929 51.3917   1
   2   3 -12 336.516 18.5838   1
   2   3 -12  566.79 57.3056   1
   2   3 -11 879.033 41.0354   1
   2   3 -11 1204.56 75.2891   1
   2   3 -10 571.529 21.7916   1
   2   3 -10 739.821 64.2533   1
   2   3  -9 1514.40 91.4493   1
   2   3  -8-15.4107 75.8676   1
   2   3  -7 185.073 44.3581   1
   2   3  -6 769.204 52.1569   1
   2   3  -5 4439.50 253.734   1
   2   3  -4 28.1216 31.6389   1
   2   3  -3 3710.99 56.2027   1
   2   3  -2  208.29 32.7817   1
   2   3  -1 1742.32 56.0376   1
  -2  -3   1 1388.02 17.7426   1
   2   3   017808.30 1027.27   1
  -2  -3   017930.80 1048.24   1
   2   3   1 1917.39 55.1384   1
  -2  -3  -1 2092.06  55.878   1
   2   3   2102480.026157.60   1
  -2  -3  -295238.3025056.70   1
   2   3   3 8580.20 274.861   1
  -2  -3  -3 8444.02  268.50   1
   2   3   4 29.4283 19.1811   1
  -2  -3  -4  2.1387 17.3768   1
   2   3   5 1279.99  66.949   1
  -2  -3  -5 1145.70 35.8528   1
   2   3   6 1148.25 39.7497   1
  -2  -3  -6 1080.93 58.6548   1
   2   3   7 481.937 50.8556   1
  -2  -3  -7 514.683 27.3101   1
   2   3   8-8.98818 23.4658   1
  -2  -3  -8 -13.555 38.5224   1
   2   3   9 2952.76 98.6668   1
  -2  -3  -9 3069.45 95.0489   1
   2   3  10  40.835 28.1995   1
  -2  -3 -10 0.14833 48.1268   1
   2   3  11  578.87 40.3356   1
  -2  -3 -11 596.099 67.5659   1
   2   3  12 2902.09  165.36   1
  -2  -3 -12 2917.38 168.669   1
   2   3  13 71.7469 55.4086   1
  -2  -3 -13 82.2345 57.3095   1
   2   3  14 2071.50 88.8884   1
  -2  -3 -14 2375.93 140.392   1
  -2  -3 -15 76.3356 32.3394   1
  -2  -3 -16  414.98 39.9994   1
  -2  -3 -17 73.7803 33.6293   1
  -2  -3 -18 103.006 59.0009   1
  -2  -3 -19 94.9934 58.7031   1
   2   4 -16 45.5542  78.058   1
   2   4 -16  64.887 59.6488   1
   2   4 -15 -50.581 45.0259   1
   2   4 -15 -26.288  56.347   1
   2   4 -14 27.0479 11.6403   1
   2   4 -14 6.14661  42.959   1
   2   4 -14 52.0573 53.3349   1
   2   4 -13 128.704 21.6632   1
   2   4 -13 131.826 56.2682   1
   2   4 -12 14.7749 20.1889   1
   2   4 -12 100.146 50.8136   1
   2   4 -11 1167.99 28.5056   1
   2   4 -11 1756.29 89.3633   1
   2   4 -10 26.2852 49.4544   1
   2   4  -9 862.806 77.6667   1
   2   4  -8 1582.40 98.8212   1
   2   4  -7 3319.12 160.629   1
   2   4  -6 1834.57 148.123   1
   2   4  -5 6421.60 279.244   1
   2   4  -4 151.389 36.1496   1
   2   4  -3 28.2743 5.69219   1
   2   4  -2 0.22567 27.8104   1
   2   4  -1 3369.69 160.267   1
  -2  -4   1 2978.67 58.6265   1
   2   4   0 5941.25 190.823   1
  -2  -4   0 5269.80 123.694   1
   2   4   1 2299.72 64.9612   1
  -2  -4  -1 2031.67 50.5268   1
  -2  -4  -1 2275.34 63.9097   1
   2   4   219118.00 1185.20   1
  -2  -4  -217070.40 948.643   1
   2   4   3 4826.42 119.968   1
  -2  -4  -3 4889.54 122.139   1
   2   4   4 2447.28 53.3346   1
  -2  -4  -4 2423.52   51.28   1
   2   4   5 1247.87 31.6032   1
  -2  -4  -5 1264.96 28.9897   1
   2   4   6 1732.01 61.8917   1
  -2  -4  -6 1600.41 54.2522   1
   2   4   712906.00 671.109   1
  -2  -4  -711995.90 600.989   1
   2   4   8 1672.80 76.1692   1
  -2  -4  -8 1785.21 70.7032   1
   2   4   9-1.16197 20.8948   1
  -2  -4  -9 51.0184 35.1342   1
   2   4  10  6.3326   23.88   1
  -2  -4 -10 66.9196 22.7924   1
   2   4  11 413.409 31.3949   1
  -2  -4 -11 375.823 30.1297   1
   2   4  12 97.7695 47.0243   1
  -2  -4 -12 104.107 47.3457   1
   2   4  13 214.316 51.5473   1
   2   4  14 91.0458 27.5029   1
  -2  -4 -14  129.79  46.712   1
  -2  -4 -15 25.5565 45.0173   1
  -2  -4 -16-1.21889 26.6019   1
  -2  -4 -17 97.5604 28.8415   1
  -2  -4 -18 57.8018 28.8759   1
  -2  -4 -19-37.7431 48.1491   1
   2   5 -15 50.0639 48.6427   1
   2   5 -15 0.06929 61.3845   1
   2   5 -14 59.1878 48.4539   1
   2   5 -14 90.4832  59.548   1
   2   5 -13 267.309 64.7478   1
   2   5 -12 7.45767 16.0466   1
   2   5 -12 28.3319 54.8983   1
   2   5 -11 118.182 11.0007   1
   2   5 -11 238.392 95.9167   1
   2   5 -10 -2.5111 51.4633   1
   2   5  -9 154.352  100.33   1
   2   5  -8 1634.65 110.532   1
   2   5  -7 115.744 88.9133   1
   2   5  -6-59.9968 45.7358   1
   2   5  -5  893.43 18.8319   1
   2   5  -5 932.691 61.5524   1
   2   5  -4 258.797  13.365   1
   2   5  -4 334.186 40.5029   1
   2   5  -3 2991.00 54.2191   1
   2   5  -3 3490.18 131.528   1
   2   5  -2 2041.97 37.9668   1
   2   5  -2 2258.16 75.5834   1
   2   5  -1 5457.26 187.769   1
  -2  -5   1 5763.22 127.901   1
   2   5   0 4693.45 142.583   1
  -2  -5   0 4416.97 98.3414   1
   2   5   114991.10 771.657   1
  -2  -5  -114819.60 826.554   1
   2   5   2 2438.26 62.2958   1
  -2  -5  -2 2306.51 65.8626   1
  -2  -5  -2 2603.93 93.6864   1
   2   5   3 3780.77 120.961   1
  -2  -5  -3 3559.69 112.205   1
  -2  -5  -3 4109.99 123.366   1
   2   5   415221.80  749.29   1
  -2  -5  -414224.90 638.535   1
   2   5   5 1311.25 39.6527   1
  -2  -5  -5 1286.02 36.1699   1
   2   5   6 16.3899 21.1857   1
  -2  -5  -6 31.7598   18.28   1
   2   5   7 832.336 37.5708   1
  -2  -5  -7 873.444 20.9783   1
   2   5   8 265.431 31.1578   1
  -2  -5  -8 307.603 25.4761   1
   2   5   9  748.16 45.9507   1
  -2  -5  -9 793.401 25.2457   1
   2   5  10 273.814  39.793   1
  -2  -5 -10 299.837 21.1582   1
   2   5  11 57.4579 21.6962   1
  -2  -5 -11 90.8326 35.2909   1
   2   5  12 207.442  40.594   1
  -2  -5 -12 130.041 23.5225   1
   2   5  13 183.196   41.33   1
  -2  -5 -13 195.309 24.7112   1
   2   5  14 135.475 23.4132   1
  -2  -5 -14 128.759 39.8726   1
  -2  -5 -15  303.73 44.2702   1
  -2  -5 -16-31.7124 39.0878   1
  -2  -5 -16 18.1234 22.6472   1
  -2  -5 -17 308.932  45.862   1
  -2  -5 -17 232.533  27.995   1
  -2  -5 -18-0.35024 66.7395   1
  -2  -5 -18-9.66776 24.2417   1
  -2  -5 -19 5.85535 40.5724   1
  -2  -5 -19 24.8643 40.5719   1
   2   6 -15  64.893 67.5152   1
   2   6 -14-24.1048 51.8883   1
   2   6 -14 151.966 63.6994   1
   2   6 -13 93.2494 51.1173   1
   2   6 -13 131.241  109.09   1
   2   6 -12  55.574 60.8193   1
   2   6 -11 3.35928  7.4272   1
   2   6 -11 79.1643 96.6927   1
   2   6 -10 74.1027 54.7446   1
   2   6  -9 1317.02 97.6658   1
   2   6  -8 6066.60 160.068   1
   2   6  -8 6720.63 383.986   1
   2   6  -7 0.42629 11.6763   1
   2   6  -7-66.9155 52.3575   1
   2   6  -6 178.035 12.6772   1
   2   6  -6 231.805 50.8169   1
   2   6  -5 206.171 12.5649   1
   2   6  -5 225.169 49.9604   1
   2   6  -4 1154.36 23.2221   1
   2   6  -4 1284.61 68.0006   1
   2   6  -3 1388.99 29.6898   1
   2   6  -3 1450.78 110.681   1
   2   6  -2 578.282  21.296   1
   2   6  -2 587.343  38.767   1
   2   6  -2 628.789 44.4035   1
   2   6  -1 190.088 12.7329   1
   2   6  -1 272.865 28.3379   1
  -2  -6   1 213.489 20.7798   1
   2   6   0 104.419 24.2646   1
  -2  -6   0  135.37  24.496   1
   2   6   1 6647.06 222.852   1
  -2  -6  -1 6748.97  205.20   1
   2   6   2 6830.90 222.532   1
  -2  -6  -2 7537.26 319.194   1
   2   6   3  777.61 24.3428   1
  -2  -6  -3 730.413 58.4337   1
  -2  -6  -3 730.152 23.6847   1
   2   6   4 1673.78 47.8466   1
  -2  -6  -4 1466.77 89.9936   1
  -2  -6  -4 1500.84 46.2801   1
   2   6   5 92.4221 19.4481   1
  -2  -6  -5 93.6981 28.3771   1
  -2  -6  -5 112.011 18.2058   1
   2   6   6 31.2657 17.3384   1
  -2  -6  -6 41.6756 28.4936   1
  -2  -6  -6 33.7939 8.82259   1
   2   6   7 696.494  17.371   1
  -2  -6  -7 721.413 23.2084   1
   2   6   8 656.369 19.9023   1
  -2  -6  -8 673.039 16.4743   1
   2   6   9 112.389 15.0174   1
  -2  -6  -9 119.293 12.5109   1
   2   6  10 659.106 39.4767   1
  -2  -6 -10 712.565 34.7521   1
   2   6  11-11.4804 17.1455   1
  -2  -6 -11 56.3313 25.4481   1
   2   6  12 152.335 18.8887   1
  -2  -6 -12  145.39 18.1702   1
   2   6  13-24.0828 17.7267   1
  -2  -6 -13 28.2885 28.0087   1
  -2  -6 -14 40.0253 40.7305   1
  -2  -6 -14  49.469 29.2882   1
  -2  -6 -15 10.1851 40.3417   1
  -2  -6 -15-3.47858  17.164   1
  -2  -6 -16 108.589 41.3271   1
  -2  -6 -16 31.2043 18.5438   1
  -2  -6 -17-4.56974 71.0896   1
  -2  -6 -17 2.98275 18.8613   1
  -2  -6 -18 41.7192 44.2597   1
  -2  -6 -18 52.7306 19.7808   1
  -2  -6 -19 17.1865  43.981   1
   2   7 -14 142.594 57.9961   1
   2   7 -14 97.0368 72.4862   1
   2   7 -13 324.103  63.191   1
   2   7 -13 294.553  128.82   1
   2   7 -12-35.7243 52.2627   1
   2   7 -12-45.6367 63.8326   1
   2   7 -11 8.66293  59.638   1
   2   7 -10 14.7661 10.1032   1
   2   7 -10-0.32664 58.0346   1
   2   7  -9 64.6767 10.2185   1
   2   7  -9-29.3089 56.6212   1
   2   7  -8 192.488 12.1442   1
   2   7  -8 104.138 106.803   1
   2   7  -7  284.48 13.9713   1
   2   7  -7 397.219 64.6001   1
   2   7  -6  361.49 14.5451   1
   2   7  -6  409.92 105.444   1
   2   7  -5 51.1212 12.8719   1
   2   7  -5  82.733 48.2282   1
   2   7  -4 1278.32 31.8021   1
   2   7  -4 1382.00 131.957   1
   2   7  -3 1677.51 30.3598   1
   2   7  -3 1729.64 85.0707   1
   2   7  -2  146.19 12.2738   1
   2   7  -2 103.629 31.7368   1
   2   7  -2 172.713   61.47   1
   2   7  -1 2136.67 65.7391   1
   2   7  -1 2273.89 75.4605   1
   2   7  -1 2369.78 87.6503   1
  -2  -7   1 2181.50 44.8338   1
   2   7   0 921.454 39.6377   1
  -2  -7   0 976.955 41.6756   1
   2   7   1 604.063 31.2228   1
  -2  -7  -1 618.075 40.7156   1
   2   7   2 7634.15 320.881   1
  -2  -7  -2 6932.56  243.64   1
   2   7   3 659.434  23.882   1
  -2  -7  -3 567.708 33.9188   1
   2   7   4 574.753 18.2279   1
  -2  -7  -4 628.528 34.1377   1
   2   7   5 1322.54 37.0066   1
  -2  -7  -5 1189.75 53.3469   1
  -2  -7  -5 1267.05 36.2734   1
   2   7   6 5246.28 136.737   1
  -2  -7  -6 5145.33  192.62   1
  -2  -7  -6 5144.39 111.794   1
   2   7   7 136.173 17.0762   1
  -2  -7  -7 79.5181 61.2973   1
  -2  -7  -7 149.269 14.4682   1
   2   7   8-11.0191 16.6591   1
  -2  -7  -8 27.9409  35.626   1
  -2  -7  -8 0.91217 12.9192   1
   2   7   9 1266.50 25.9047   1
  -2  -7  -9 1370.23 71.7204   1
  -2  -7  -9 1321.07 31.9772   1
   2   7  10 774.885 20.7982   1
  -2  -7 -10 773.913 61.9756   1
  -2  -7 -10 837.401 27.4563   1
   2   7  11 555.923 31.2317   1
  -2  -7 -11 551.826 59.8286   1
  -2  -7 -11 604.279 17.3821   1
   2   7  12 2319.74  78.188   1
  -2  -7 -12 2889.00 133.605   1
  -2  -7 -12 2626.29 75.3128   1
  -2  -7 -13 535.736  53.054   1
  -2  -7 -13  394.74 17.1158   1
  -2  -7 -14 682.936 95.9811   1
  -2  -7 -14 562.812 29.7031   1
  -2  -7 -15-17.6225 73.9715   1
  -2  -7 -15-20.0885 13.0078   1
  -2  -7 -16 61.7183 43.7998   1
  -2  -7 -16 -30.178 10.0978   1
  -2  -7 -17 70.3012  44.436   1
  -2  -7 -17-8.91254 12.7207   1
  -2  -7 -18 82.3643 47.9542   1
   2   8 -13 386.869 68.8562   1
   2   8 -13  284.42 82.2226   1
   2   8 -12 130.891 56.1206   1
   2   8 -12 47.2901  118.92   1
   2   8 -11 156.317 58.0022   1
   2   8 -11 235.408 68.6373   1
   2   8 -10 243.438 116.588   1
   2   8  -9 35.0225 6.84511   1
   2   8  -9 46.3376 58.5657   1
   2   8  -8 22.0439 8.49219   1
   2   8  -8  80.872 55.3149   1
   2   8  -7 266.725 8.15944   1
   2   8  -7 382.733 63.5377   1
   2   8  -6 484.328 18.2542   1
   2   8  -6 629.657 68.9933   1
   2   8  -5 187.233  16.822   1
   2   8  -5  184.79 95.8355   1
   2   8  -4 1404.71 27.8481   1
   2   8  -4 1584.38 90.6159   1
   2   8  -3 1758.35 52.7999   1
   2   8  -3 1789.02  96.623   1
   2   8  -2 62.0994  24.987   1
   2   8  -2 100.771  34.971   1
   2   8  -2 68.9737 39.4762   1
   2   8  -1 1285.16 34.1196   1
   2   8  -1 1299.09 92.2921   1
   2   8  -1 1350.66 64.4597   1
  -2  -8   1 1311.47 50.2801   1
   2   8   0 258.781 28.9658   1
   2   8   0  287.95  56.966   1
  -2  -8   0  258.73 19.0696   1
   2   8   1-8.53595 21.6962   1
   2   8   1 31.7299 25.0286   1
  -2  -8  -1 20.6137 32.1209   1
   2   8   2 76.5739  18.964   1
  -2  -8  -2 3.18947 19.9254   1
   2   8   3 838.029 44.6858   1
  -2  -8  -3 913.169 38.6201   1
   2   8   4 514.125 18.4323   1
  -2  -8  -4 502.933 35.5605   1
   2   8   5 10.7593 18.9295   1
  -2  -8  -5-29.3191 50.8682   1
   2   8   6 2755.51  65.237   1
  -2  -8  -6 2573.81 101.818   1
   2   8   7  882.74 16.3193   1
  -2  -8  -7 932.683 93.8383   1
   2   8   8 227.189 14.0423   1
  -2  -8  -8 194.976 42.8714   1
  -2  -8  -8 214.947 12.2157   1
   2   8   9 24.2286 11.8358   1
  -2  -8  -9-18.3682 40.6971   1
  -2  -8  -9 -2.7036 9.63594   1
   2   8  10 3669.88 85.2315   1
  -2  -8 -10 4283.13 187.674   1
  -2  -8 -10 3817.63 79.8637   1
   2   8  11 2258.42 53.0844   1
  -2  -8 -11 2793.25 131.911   1
  -2  -8 -11 2425.26 49.8826   1
  -2  -8 -12 2793.50 129.634   1
  -2  -8 -12 2220.84 50.0282   1
  -2  -8 -13 354.628  49.129   1
  -2  -8 -13 213.835 15.8729   1
  -2  -8 -14 148.525 47.3576   1
  -2  -8 -14 96.3907 15.5902   1
  -2  -8 -15-36.1908 46.2376   1
  -2  -8 -15 26.4572  15.867   1
  -2  -8 -16 65.5972 47.8919   1
  -2  -8 -17   48.49 80.2237   1
  -2  -8 -18-14.3668 48.3569   1
   2   9 -12 94.0035 62.1248   1
   2   9 -12 144.859 125.239   1
   2   9 -11 48.6462 55.4636   1
   2   9 -11 38.4852  66.518   1
   2   9 -10 634.789 73.7676   1
   2   9 -10 707.424 86.8603   1
   2   9  -9 185.842 54.7582   1
   2   9  -9 201.448 110.024   1
   2   9  -8-2.59542 4.06985   1
   2   9  -8-74.2033 55.9292   1
   2   9  -7 1.89197 5.68891   1
   2   9  -7 20.3118 52.3022   1
   2   9  -6 494.667  12.326   1
   2   9  -6 664.019  69.856   1
   2   9  -5 42.1096 15.9441   1
   2   9  -5  37.237 51.5381   1
   2   9  -4 1889.44 58.3189   1
   2   9  -4 2272.16 108.461   1
   2   9  -4 2209.69  194.85   1
   2   9  -3 4406.79 118.525   1
   2   9  -3 4836.14 209.776   1
   2   9  -3 4790.35 233.735   1
   2   9  -2 928.978 44.7727   1
   2   9  -2 1024.34 56.2351   1
   2   9  -2  911.31 64.9445   1
   2   9  -1 484.907 23.9079   1
   2   9  -1 535.689   68.55   1
   2   9  -1 461.448 77.5339   1
  -2  -9   1 512.403 23.4126   1
   2   9   0 552.422 37.7721   1
   2   9   0 487.602 42.0224   1
  -2  -9   0 561.881 27.6638   1
   2   9   1 2825.40 93.7454   1
   2   9   1 2801.54 100.441   1
  -2  -9  -1 2863.73 122.602   1
   2   9   2 133.506  23.977   1
   2   9   2 147.366 46.6193   1
  -2  -9  -2 117.353  26.468   1
   2   9   3 355.006 38.2739   1
   2   9   3 324.558 25.8803   1
  -2  -9  -3 369.757   30.10   1
   2   9   4-8.23272 14.7692   1
  -2  -9  -4-33.9185 29.0332   1
   2   9   5 475.776 27.5625   1
  -2  -9  -5 427.549 69.3529   1
   2   9   6  377.32  13.556   1
  -2  -9  -6 431.885   42.51   1
   2   9   7 178.261 14.4517   1
  -2  -9  -7 165.744 69.4004   1
   2   9   8 256.147  7.9526   1
  -2  -9  -8 267.928 45.7556   1
  -2  -9  -9 -12.327 41.8107   1
  -2  -9 -10 72.4744 44.5871   1
  -2  -9 -11 390.683 92.8644   1
  -2  -9 -12  505.74 101.074   1
  -2  -9 -13 334.588  91.352   1
  -2  -9 -14 261.985 85.8386   1
  -2  -9 -14 134.931 6.79888   1
  -2  -9 -15   4.261 46.1579   1
  -2  -9 -16 128.657 50.1814   1
  -2  -9 -17 78.4414 52.3137   1
  -2  -9 -18 125.513 54.3974   1
   2  10 -11 61.8546 62.0439   1
   2  10 -11 55.2504 124.281   1
   2  10 -10 107.031 56.8957   1
   2  10 -10 54.4678 67.9568   1
   2  10  -9-34.7026 52.0276   1
   2  10  -9 123.377 61.0588   1
   2  10  -8 9.17887 48.5729   1
   2  10  -8 82.4589 96.7582   1
   2  10  -7 501.881 62.3521   1
   2  10  -7 558.649 71.2907   1
   2  10  -6 302.191 50.2091   1
   2  10  -6  262.58 58.7019   1
   2  10  -5 68.3517 17.2499   1
   2  10  -5 91.2731 43.8332   1
   2  10  -5 66.9883 87.1477   1
   2  10  -4  119.52 21.1065   1
   2  10  -4 115.508 41.8645   1
   2  10  -4 86.6121 48.9305   1
   2  10  -3 103.567 26.2235   1
   2  10  -3 198.072 41.3356   1
   2  10  -3 140.755 48.7341   1
   2  10  -2 800.918 28.4266   1
   2  10  -2 886.453 91.2903   1
   2  10  -2 784.972 106.318   1
   2  10  -1  155.22 35.6087   1
   2  10  -1 190.024 40.8049   1
   2  10   0 264.548  59.157   1
   2  10   0 355.245 39.3311   1
  -2 -10   0 289.073 40.2331   1
   2  10   1 1702.35 65.6923   1
   2  10   1 1729.72 114.376   1
  -2 -10  -1 1863.88 58.4592   1
   2  10   2 91.7572 24.1844   1
   2  10   2 174.551 46.8181   1
  -2 -10  -2 138.126  27.034   1
   2  10   3 64.5517 19.9377   1
   2  10   3 47.6427  22.808   1
  -2 -10  -3 92.3165 27.9895   1
   2  10   4 2141.58 53.3781   1
   2  10   4 2044.28 58.0065   1
  -2 -10  -4 2179.95 78.5813   1
   2  10   5 4540.33 113.588   1
   2  10   5 4324.10 120.172   1
  -2 -10  -5 4768.60 182.849   1
   2  10   6 62.5954 10.8754   1
   2  10   6 45.5817 12.4225   1
  -2 -10  -6 58.4949 36.5881   1
   2  10   7 2952.74 62.6136   1
   2  10   7 2698.34 67.0821   1
  -2 -10  -7 3256.77  131.46   1
   2  10   8 936.304 17.0285   1
  -2 -10  -8 976.046  66.311   1
  -2 -10  -9-1.26699 43.7606   1
  -2 -10 -10 645.479  102.85   1
  -2 -10 -11 61.5234 45.5382   1
  -2 -10 -12 1739.68 105.097   1
  -2 -10 -13  348.93 57.9319   1
  -2 -10 -14 279.887 55.6193   1
  -2 -10 -15 105.366 51.5014   1
  -2 -10 -16-54.8517 87.0763   1
  -2 -10 -17 2.33309 89.1108   1
   2  11 -10-44.1087 56.7346   1
   2  11 -10 120.151 114.032   1
   2  11  -9 39.2144 54.4323   1
   2  11  -9-80.0014 62.7737   1
   2  11  -8 156.396 52.9928   1
   2  11  -8 101.107 63.1429   1
   2  11  -7 60.5443 47.6995   1
   2  11  -7 41.3248 93.6091   1
   2  11  -6 224.731 51.9522   1
   2  11  -6 293.119 56.8049   1
   2  11  -5 40.4309 10.5065   1
   2  11  -5 46.2087 43.9538   1
   2  11  -5 113.387 48.6943   1
   2  11  -4 24.2722 12.0979   1
   2  11  -4 95.2227 40.9174   1
   2  11  -4-12.7531 76.2607   1
   2  11  -3 406.461 75.8756   1
   2  11  -3 332.022 51.4931   1
   2  11  -2  753.14 52.1022   1
   2  11  -2 771.681 59.1261   1
   2  11  -1 61.4095 33.8744   1
   2  11  -1 115.946 38.6137   1
   2  11   0 400.224 63.3737   1
   2  11   0 444.929 72.6808   1
  -2 -11   0 478.335 44.0863   1
   2  11   1-27.7497 26.5123   1
   2  11   1-78.8118 52.4695   1
  -2 -11  -1-30.1297 24.7683   1
   2  11   2 318.816 28.4946   1
   2  11   2 311.375 33.0583   1
  -2 -11  -2 418.572 32.1226   1
   2  11   3 2068.03 62.9632   1
   2  11   3 2023.21 69.8674   1
  -2 -11  -3 2312.22 81.1592   1
   2  11   4 820.865 45.3923   1
   2  11   4 793.918 33.0199   1
  -2 -11  -4 946.663 49.3359   1
   2  11   5 785.825 36.3328   1
   2  11   5  731.12 27.4022   1
  -2 -11  -5  882.40  48.478   1
   2  11   6 851.223 30.0027   1
   2  11   6 822.161 35.5717   1
  -2 -11  -6 951.765 85.8621   1
   2  11   7-0.02231 12.5405   1
   2  11   7 23.3135 14.9017   1
  -2 -11  -7 43.3696 36.5021   1
   2  11   8 12.5903 6.13027   1
  -2 -11  -8 9.81871 37.6232   1
  -2 -11  -9 3641.23 263.663   1
  -2 -11 -10 1188.92 83.1283   1
  -2 -11 -11  338.46 56.4413   1
  -2 -11 -12-33.6016 50.3481   1
  -2 -11 -13 605.119  68.426   1
  -2 -11 -14-13.1344 51.4063   1
  -2 -11 -15 75.9083 54.9067   1
  -2 -11 -16 19.2362 54.7274   1
  -2 -11 -17 70.7393 58.6387   1
   2  12  -9 127.275 102.437   1
   2  12  -9 268.838 119.154   1
   2  12  -8 123.467 95.8093   1
   2  12  -8  224.16 65.2617   1
   2  12  -7  61.045  82.007   1
   2  12  -7 4.70471 55.6741   1
   2  12  -6-25.8352 77.6417   1
   2  12  -6  203.24 89.4794   1
   2  12  -5-23.8606 72.9116   1
   2  12  -5 12.2158 47.2154   1
   2  12  -4 387.501 49.8624   1
   2  12  -4 412.085 53.9445   1
   2  12  -3-21.9303 37.2368   1
   2  12  -3-28.2198 41.6646   1
   2  12  -2 590.246 47.7518   1
   2  12  -2 580.059 84.0967   1
   2  12  -1 510.301 66.5242   1
   2  12  -1 350.202 76.3496   1
   2  12   0  455.41 39.0654   1
   2  12   0 523.041 43.5423   1
  -2 -12   0 590.887 29.2382   1
   2  12   1 709.731 60.9839   1
   2  12   1 675.155 43.7613   1
  -2 -12  -1 733.753 54.3127   1
   2  12   2 463.768 48.3084   1
   2  12   2 465.149 33.2916   1
  -2 -12  -2 418.491 53.8151   1
   2  12   3-54.1021 32.8508   1
   2  12   3-5.56943 22.3399   1
  -2 -12  -3 36.2633  46.254   1
   2  12   4 223.802 31.3358   1
   2  12   4 216.083 21.9983   1
  -2 -12  -4 299.119 56.3584   1
   2  12   5 531.618 31.1106   1
   2  12   5 516.353  36.718   1
  -2 -12  -5 640.288 44.1074   1
   2  12   6 42.0023 17.2836   1
   2  12   6 23.9349 20.3637   1
  -2 -12  -6 45.2329  54.524   1
   2  12   7 244.529 9.62523   1
   2  12   7 227.087 17.1369   1
  -2 -12  -7 275.425 38.9376   1
  -2 -12  -8  121.98 69.4201   1
  -2 -12  -9 617.514 57.7421   1
  -2 -12 -10 77.9524 46.5612   1
  -2 -12 -11 583.799 64.5212   1
  -2 -12 -14 2.73475 93.2221   1
  -2 -12 -15-37.8567 99.3477   1
  -2 -12 -16-14.0573  96.746   1
   2  13  -8 69.8657  54.169   1
   2  13  -8 112.913 105.615   1
   2  13  -7-0.01894 51.2363   1
   2  13  -7 133.011 58.8463   1
   2  13  -6 74.2684 48.6408   1
   2  13  -6 80.1343 54.5371   1
   2  13  -5 95.6818 45.5856   1
   2  13  -5 160.347 50.9287   1
   2  13  -4-48.2742 41.0213   1
   2  13  -4-9.18998 76.3128   1
   2  13  -3 80.7848 38.6401   1
   2  13  -3 21.7598 71.1429   1
   2  13  -2 202.729 62.9825   1
   2  13  -2 169.032 40.6204   1
   2  13  -1 177.852 34.6116   1
   2  13  -1 170.748 37.5931   1
   2  13   0-18.1123 48.5809   1
   2  13   0 69.8777 31.1165   1
   2  13   1 99.8645 27.2582   1
   2  13   1 110.003 29.8087   1
  -2 -13  -1 160.172 23.5549   1
   2  13   2 909.695  62.042   1
   2  13   2 873.222 43.1561   1
  -2 -13  -2 1079.04 46.0524   1
   2  13   3 203.922  37.845   1
   2  13   3  238.57 25.3983   1
  -2 -13  -3 315.157 31.5805   1
   2  13   4  174.65 19.0243   1
   2  13   4  168.93 21.1437   1
  -2 -13  -4 232.759 54.2761   1
   2  13   5 451.913 30.2453   1
   2  13   5 457.164 33.6774   1
  -2 -13  -5 564.069 41.8531   1
   2  13   6 47.1237 18.2886   1
   2  13   6 63.0821 12.9679   1
  -2 -13  -6 26.8915 34.9694   1
   2  13   7 34.1036 12.2115   1
   2  13   7 29.7515 14.1995   1
  -2 -13  -7-10.3328  62.103   1
  -2 -13  -8 203.133 41.4784   1
  -2 -13  -9 70.3642 39.8369   1
  -2 -13 -12 462.146 63.8002   1
  -2 -13 -13-40.7265 54.6862   1
  -2 -13 -14  56.903 58.1203   1
  -2 -13 -15 7.95207 57.4566   1
   2  14  -6 132.574 52.6764   1
   2  14  -6 157.758  96.811   1
   2  14  -5 96.0866 79.9553   1
   2  14  -5 129.995  52.559   1
   2  14  -4-1.89502 69.5311   1
   2  14  -4 35.1984  46.201   1
   2  14  -3  136.11 66.6107   1
   2  14  -3 107.978 43.5178   1
   2  14  -2 13.1579 34.7303   1
   2  14  -2 58.1465 38.3383   1
   2  14  -1-12.4923 31.7815   1
   2  14  -1-2.28269 58.3883   1
   2  14   0 258.683 31.9619   1
   2  14   0 186.305 59.1487   1
   2  14   1-30.2858 25.3228   1
   2  14   1  20.467 47.4842   1
  -2 -14  -1-11.0445 23.1212   1
   2  14   2 109.251 24.1255   1
   2  14   2  137.39 44.7086   1
  -2 -14  -2 167.733 26.2171   1
   2  14   3 101.775 20.8077   1
   2  14   3  113.45 38.9828   1
  -2 -14  -3 176.857 31.1155   1
   2  14   4 37.0954 16.9726   1
   2  14   4 32.9037 18.8923   1
  -2 -14  -4 58.5202 30.0249   1
   2  14   5 162.679 25.6681   1
   2  14   5 170.441 29.0895   1
  -2 -14  -5 294.142 58.7587   1
   2  14   6 39.0831 17.4749   1
   2  14   6-10.5504 12.2018   1
  -2 -14  -6-34.7032  34.815   1
   2  14   7 29.2941 12.5256   1
   2  14   7 39.3094 14.0273   1
  -2 -14  -7 -66.607 63.2032   1
  -2 -14  -8 236.202  44.697   1
  -2 -14 -10-18.7004 42.7798   1
  -2 -14 -11 74.4339 46.4046   1
  -2 -14 -12 286.994 56.7471   1
  -2 -14 -13 101.632  54.233   1
   2  15  -4 105.058 43.7319   1
   2  15  -4-9.35696 80.5126   1
   2  15  -3 192.449  41.289   1
   2  15  -3 46.9848  78.882   1
   2  15  -2 34.0077 58.9414   1
   2  15  -2-24.2583 65.9483   1
   2  15  -1 133.362 33.4427   1
   2  15  -1 127.472 37.4741   1
   2  15   0 31.1342 28.8505   1
   2  15   0 53.6785 32.4754   1
   2  15   1 73.8303 42.8575   1
   2  15   1 12.2635  28.236   1
   2  15   2 48.1384 37.0165   1
   2  15   2-9.94352 40.9877   1
  -2 -15  -2-3.31343 42.3568   1
   2  15   3-18.8104 19.2556   1
   2  15   3 13.1534 34.7353   1
  -2 -15  -3 55.9071 43.2766   1
   2  15   4-17.8244 27.4841   1
   2  15   4  0.9774 18.0873   1
  -2 -15  -4-5.04635 30.9983   1
   2  15   5-5.59712 13.6512   1
   2  15   5-14.0966 24.8277   1
  -2 -15  -5 27.9678 32.4864   1
   2  15   6 363.337 17.0826   1
  -2 -15  -6 591.293 71.7115   1
  -2 -15  -7  22.743 37.4203   1
  -2 -15  -8  16.587 66.7226   1
  -2 -15  -9 78.4422 44.1419   1
  -2 -15 -10 165.604 49.3378   1
  -2 -15 -11 112.255 51.1417   1
   2  16  -1  120.06  35.357   1
   2  16  -1 216.612 38.5564   1
   2  16   0 98.0759 50.6647   1
   2  16   0 71.3577 33.3689   1
   2  16   1 97.7138 27.2232   1
   2  16   1 38.7088 29.7744   1
   2  16   2 -13.387 22.8794   1
   2  16   2 37.0571 24.7343   1
  -2 -16  -2 26.4799 26.2664   1
   2  16   3 103.041 33.6909   1
   2  16   3  101.64 37.2901   1
  -2 -16  -3 53.1204 47.5859   1
   2  16   4 82.2679 30.5532   1
   2  16   4 218.457 33.9579   1
  -2 -16  -4  248.90 53.4425   1
  -2 -16  -5-16.8586 35.0909   1
  -2 -16  -6 377.394  44.183   1
  -2 -16  -7-10.3784 37.9825   1
  -2 -16  -8 54.0411 41.6378   1
  -2 -16  -9 21.8611 43.6934   1
  -2 -16 -10 34.1489 79.3911   1
   3 -14  -7 97.8965 92.5006   1
   3 -14  -6 81.1536 51.3856   1
   3 -14  -5 369.365 96.9591   1
   3 -14  -4-10.6427 47.4586   1
  -3  14   4  14.443  49.778   1
  -3  14   3  116.05 51.6816   1
  -3  14   2-47.6963 77.7579   1
  -3  14   1 39.6683 43.5091   1
  -3  14   1 20.5096 17.2986   1
  -3  14   1-24.7337 28.8237   1
  -3  14   0 17.0105 41.6488   1
  -3  14   0 22.2828 33.4952   1
  -3  14   0 23.0691 20.4268   1
  -3  14  -1 47.6697 65.7514   1
  -3  14  -1 27.0083 24.1118   1
  -3  14  -1 5.76307  40.198   1
  -3  14  -2-79.5278 60.1149   1
  -3  14  -2-17.8462 27.9703   1
  -3  14  -3 81.8801 34.2022   1
  -3  14  -3  63.127 52.6391   1
   3 -13 -10 62.0275 60.8626   1
   3 -13  -9 100.764 103.609   1
   3 -13  -8-17.8156 55.6722   1
   3 -13  -7-137.593  56.007   1
   3 -13  -6 88.6097 85.4606   1
   3 -13  -5-19.9189 45.9524   1
   3 -13  -4  271.24 80.7203   1
  -3  13   4  169.27 52.5964   1
   3 -13  -3 46.9891  45.355   1
  -3  13   3 138.657 81.2053   1
  -3  13   2 491.559 55.0729   1
  -3  13   2 323.608 29.1579   1
  -3  13   1 105.563 43.0258   1
  -3  13   1 49.4903 17.8377   1
  -3  13   1 7.18116 28.7259   1
  -3  13   0 74.5061 68.8231   1
  -3  13   0 72.4997 35.4637   1
  -3  13  -1 352.405 44.2066   1
  -3  13  -1 240.881 29.5764   1
  -3  13  -2-7.99205  35.725   1
  -3  13  -2 95.2738 46.1255   1
  -3  13  -3 399.509 66.5563   1
  -3  13  -3 215.315 35.7163   1
  -3  13  -4 166.349 35.2176   1
  -3  13  -4 158.722 37.2202   1
  -3  13  -5 129.275 32.4999   1
  -3  13  -5 71.4755 39.6087   1
  -3  13  -6 52.3322 28.4617   1
  -3  13  -6-9.20787 70.2451   1
   3 -12 -11 4.00994 59.0085   1
   3 -12 -10-48.4445 57.2967   1
   3 -12  -9 18.6849 53.4692   1
   3 -12  -8 -12.875 51.8061   1
   3 -12  -7-9.95225 52.2213   1
   3 -12  -6-30.0243 49.8616   1
   3 -12  -5-83.3722 80.3048   1
  -3  12   5 20.4621 47.7542   1
   3 -12  -4-48.2165  41.546   1
  -3  12   4 91.8504 77.9155   1
  -3  12   4 9.48207 9.60377   1
  -3  12   4-2.05562 9.04191   1
   3 -12  -3 84.3411 73.1213   1
  -3  12   3 109.673 45.2474   1
  -3  12   3 51.3516 17.7037   1
  -3  12   3 48.9412 10.6257   1
   3 -12  -2 444.507 49.7774   1
  -3  12   2 340.164 53.2007   1
  -3  12   1 225.315  44.211   1
  -3  12   1 131.847 19.1514   1
  -3  12   0 256.364 43.9763   1
  -3  12   0 174.396 24.2381   1
  -3  12  -1-42.8341 65.5276   1
  -3  12  -1 23.0101 41.8093   1
  -3  12  -2 128.409   38.37   1
  -3  12  -2 63.1863 28.8612   1
  -3  12  -3 271.601 38.4703   1
  -3  12  -3 200.448 34.4893   1
  -3  12  -4 387.372 62.9605   1
  -3  12  -4 272.236 67.9696   1
  -3  12  -5 132.526 31.9736   1
  -3  12  -5 76.4365 67.4139   1
  -3  12  -6 11.7044 28.2051   1
  -3  12  -6 7.16965 41.5413   1
  -3  12  -7 40.3052 26.5263   1
  -3  12  -7 61.0384 46.6626   1
  -3  12  -8 213.506 46.2448   1
  -3  12  -8 196.803 55.8112   1
   3 -11 -13 97.5893 60.0222   1
   3 -11 -12 30.6184 55.9648   1
   3 -11 -11  8.1918 54.6334   1
   3 -11 -10 12.0819 86.7401   1
   3 -11  -9 109.818 92.0974   1
   3 -11  -8 211.873 56.4263   1
   3 -11  -7 291.287 56.8989   1
   3 -11  -6 648.109 117.124   1
  -3  11   6 696.816 70.6342   1
   3 -11  -5  483.88 60.4843   1
  -3  11   5 370.403 60.3059   1
   3 -11  -4  45.448 71.4169   1
  -3  11   4 74.3297 45.6783   1
  -3  11   4-1.20416 9.64651   1
  -3  11   4 13.7075 9.44405   1
   3 -11  -3 66.5899 41.1315   1
  -3  11   3 19.8244 44.4665   1
  -3  11   3   43.27 17.6286   1
  -3  11   3 64.8619 17.2017   1
   3 -11  -2-14.4033 40.2777   1
  -3  11   2 75.8181 40.6294   1
  -3  11   2 13.4537 14.0014   1
  -3  11   1 515.941 51.2287   1
  -3  11   1 405.193 23.2911   1
  -3  11   0 333.592 44.4554   1
  -3  11   0 217.298 25.1256   1
  -3  11  -1 752.966 53.8449   1
  -3  11  -1 532.925 36.1197   1
  -3  11  -2 224.202 64.9142   1
  -3  11  -2 115.315 30.4476   1
  -3  11  -3 194.043 36.4658   1
  -3  11  -3 134.442 57.7163   1
  -3  11  -4 288.598 64.0337   1
  -3  11  -4 360.532 41.9585   1
  -3  11  -5  -23.53 48.2325   1
  -3  11  -5-25.1411 37.9987   1
  -3  11  -6 170.832 30.6351   1
  -3  11  -6 230.658 46.0232   1
  -3  11  -7 35.1126 25.5691   1
  -3  11  -7 120.719 46.1372   1
  -3  11  -8 233.609 45.6326   1
  -3  11  -8 199.021  54.174   1
  -3  11  -9 171.026 45.0416   1
  -3  11  -9 309.398 59.8866   1
  -3  11 -10  73.598 37.8629   1
  -3  11 -10 35.9868 58.3489   1
   3 -10 -12 64.2833 53.9841   1
   3 -10 -11 10.7136 50.7672   1
   3 -10 -10-29.3052 50.3918   1
   3 -10  -9 45.3142 50.4842   1
   3 -10  -8 17.7972 83.0513   1
   3 -10  -7 661.828 67.0192   1
   3 -10  -6 45.5198 48.1025   1
  -3  10   6 126.096 49.5493   1
   3 -10  -5 355.945 96.3886   1
  -3  10   5 388.502 95.9562   1
   3 -10  -4 461.287 57.2945   1
  -3  10   4 479.559 56.1678   1
   3 -10  -3 212.982  43.392   1
  -3  10   3 224.227  79.169   1
  -3  10   3 160.985 11.0133   1
   3 -10  -2 253.786 44.0653   1
  -3  10   2 362.768 47.8029   1
  -3  10   2 266.362 17.1977   1
   3 -10  -1 691.348 55.5892   1
  -3  10   1 779.168 56.5458   1
  -3  10   1 546.925 42.5591   1
  -3  10   0 21.2127 40.1578   1
  -3  10   0-41.8408 37.9602   1
  -3  10  -1 3747.19 157.701   1
  -3  10  -1 3158.47 119.091   1
  -3  10  -2 451.284 45.5672   1
  -3  10  -2 445.491 60.6162   1
  -3  10  -3 716.508 45.5419   1
  -3  10  -3 627.528 45.5369   1
  -3  10  -4  41.238 29.8877   1
  -3  10  -4 37.4801 34.7377   1
  -3  10  -5-34.3808 49.5342   1
  -3  10  -5 22.7623 37.0249   1
  -3  10  -6-13.0197 27.6251   1
  -3  10  -6 54.7415 40.5277   1
  -3  10  -7 72.4444 27.6837   1
  -3  10  -7 31.7795 44.8078   1
  -3  10  -8 64.6394  43.603   1
  -3  10  -8 53.3127 49.3674   1
  -3  10  -9 80.2637 42.0761   1
  -3  10  -9 127.856 54.0484   1
  -3  10 -10 29.9655  23.498   1
  -3  10 -10 100.133  56.619   1
  -3  10 -11  67.173 21.9137   1
  -3  10 -11 81.4114 61.7908   1
   3  -9 -13 12.2111 50.0624   1
   3  -9 -12 94.0392 51.5093   1
   3  -9 -10 45.7102 83.0019   1
   3  -9  -9 181.689 51.5025   1
   3  -9  -8 424.495  58.003   1
   3  -9  -7 33.8293 46.5676   1
   3  -9  -6 469.096 59.3714   1
  -3   9   6 482.741 60.2818   1
   3  -9  -5 646.981 63.3164   1
  -3   9   5 743.586 65.1394   1
   3  -9  -4 200.553  47.752   1
  -3   9   4 108.194 46.7373   1
  -3   9   4 115.892 9.75949   1
  -3   9   4 120.313 9.39071   1
   3  -9  -3 168.431 45.1926   1
  -3   9   3 90.1749 44.2034   1
  -3   9   3 89.6879 17.1817   1
   3  -9  -2 168.009 43.0378   1
  -3   9   2 308.223 78.4462   1
  -3   9   2 172.474 16.0427   1
   3  -9  -1  808.17 61.7466   1
  -3   9   1 963.718 63.2817   1
  -3   9   1 677.123 47.6831   1
  -3   9   0 907.961 63.1635   1
  -3   9   0 817.775   62.30   1
  -3   9  -1 5447.15  307.19   1
  -3   9  -1 4110.75 158.024   1
  -3   9  -2 125.528 39.6722   1
  -3   9  -2 101.335  58.105   1
  -3   9  -3 3010.76 162.624   1
  -3   9  -3 2381.22 106.749   1
  -3   9  -4 15.2147 32.2784   1
  -3   9  -4  80.711 36.3442   1
  -3   9  -5 538.403 64.3858   1
  -3   9  -5  374.90 81.8223   1
  -3   9  -6 239.697 32.6056   1
  -3   9  -6 308.519 83.5627   1
  -3   9  -7-9.50261 26.3839   1
  -3   9  -7 8.06354 79.8472   1
  -3   9  -8 62.3995  44.312   1
  -3   9  -8 85.0207  88.575   1
  -3   9  -9 40.0985 25.2493   1
  -3   9  -9 120.217 87.0279   1
  -3   9 -10-10.1852 22.7886   1
  -3   9 -10 85.6965 91.1197   1
  -3   9 -11 35.1591 22.4815   1
  -3   9 -11-33.0136 57.7081   1
  -3   9 -12 36.3107 21.5366   1
  -3   9 -12 35.9402 65.0469   1
   3  -8 -15 17.9949  49.196   1
   3  -8 -14 -6.3425 48.0148   1
   3  -8 -13 7.00579 46.5586   1
   3  -8 -12 52.6029 46.4344   1
   3  -8 -11 43.5046 46.5533   1
   3  -8 -10-3.14643 44.7533   1
   3  -8  -9 365.014  53.656   1
   3  -8  -8 115.039 81.0109   1
   3  -8  -7 134.357 47.7897   1
   3  -8  -6 1347.26  84.328   1
  -3   8   6 1238.44  88.064   1
   3  -8  -5 115.747 46.3522   1
  -3   8   5 159.627   49.35   1
   3  -8  -4 365.368 51.0404   1
  -3   8   4 281.171 87.6853   1
   3  -8  -3 126.418 46.3774   1
  -3   8   3 219.828 44.5947   1
   3  -8  -2 148.362 72.9667   1
  -3   8   2 321.855 45.2953   1
  -3   8   2 184.709 26.5465   1
   3  -8  -1 34.2537 63.4192   1
   3  -8  -1  -26.59  20.288   1
  -3   8   1  35.432  66.557   1
  -3   8   1 -5.4114  17.527   1
   3  -8   0  693.98  51.622   1
   3  -8   0 621.201 35.7981   1
  -3   8   0 733.318 52.3681   1
  -3   8   0 572.551 52.8195   1
   3  -8   1 2887.55 155.726   1
  -3   8  -1 3029.36  118.32   1
  -3   8  -1 2594.43 95.0874   1
   3  -8   2 2584.96 168.131   1
  -3   8  -2 3343.11  180.46   1
  -3   8  -2 2443.58  100.82   1
   3  -8   3 130.091 66.8911   1
  -3   8  -3-25.2873 34.9967   1
  -3   8  -3 -36.562 35.3261   1
   3  -8   4 1341.08 79.9618   1
  -3   8  -4 1426.39 67.2013   1
  -3   8  -4 1162.68 121.217   1
   3  -8   5 1637.53 95.6051   1
  -3   8  -5 1931.94 115.227   1
  -3   8  -5 1541.60 156.288   1
   3  -8   6 112.879 48.3981   1
  -3   8  -6 100.698 31.0987   1
  -3   8  -6 49.0113  47.216   1
   3  -8   7 1608.65 101.998   1
  -3   8  -7 1581.01  64.848   1
  -3   8  -7 1660.94 100.394   1
  -3   8  -8 126.499 47.7142   1
  -3   8  -8 46.0995 52.7291   1
  -3   8  -9 433.951 33.8754   1
  -3   8  -9 380.086 113.922   1
  -3   8 -10 8.90805 24.7905   1
  -3   8 -10 58.0484 97.6039   1
  -3   8 -11 21.9117 39.6148   1
  -3   8 -11 131.093  97.603   1
  -3   8 -12  49.174 35.3661   1
  -3   8 -12 36.0408 62.7311   1
  -3   8 -13-40.6991 19.8642   1
  -3   8 -13 27.7265 65.0699   1
   3  -7 -11 205.318  80.817   1
   3  -7 -10 87.8199 43.7133   1
   3  -7  -9-23.9954 43.6546   1
   3  -7  -8 2022.34  111.21   1
   3  -7  -7 255.495 84.9318   1
   3  -7  -6 690.793 60.8975   1
  -3   7   6 687.925 64.8266   1
   3  -7  -5 2160.07 109.619   1
  -3   7   5 2248.95 115.198   1
   3  -7  -4 108.915 42.8203   1
  -3   7   4 93.3535 43.0052   1
  -3   7   4 102.857 7.62511   1
   3  -7  -3 905.385 99.0363   1
   3  -7  -3 814.508 19.6391   1
  -3   7   3  921.42 103.551   1
  -3   7   3 836.355 24.9517   1
   3  -7  -2 2329.63 105.465   1
   3  -7  -2 2138.26 73.9798   1
  -3   7   2 2511.02  103.84   1
  -3   7   2 2093.49 46.6002   1
   3  -7  -1 867.351 55.4838   1
   3  -7  -1 824.835 31.9877   1
  -3   7   1 1014.36 57.3949   1
  -3   7   1 796.697 29.1178   1
   3  -7   0 739.756 51.3923   1
   3  -7   0 754.668 58.7516   1
  -3   7   0 734.998 48.4799   1
  -3   7   0 662.382 32.5535   1
   3  -7   1 79.6611 49.3464   1
  -3   7  -1  64.208 60.9556   1
  -3   7  -1 17.0943 25.5297   1
   3  -7   2-4.83732 56.2196   1
  -3   7  -2 36.6694 58.1292   1
  -3   7  -2 24.3956 30.1683   1
   3  -7   3 702.792 51.5281   1
  -3   7  -3 773.646 45.9827   1
  -3   7  -3 614.527 47.9428   1
   3  -7   4 1571.91 84.4821   1
  -3   7  -4 1682.51 69.7057   1
  -3   7  -4 1466.99 135.525   1
   3  -7   5  263.09 48.6372   1
  -3   7  -5 256.911 57.2233   1
  -3   7  -5 196.487 48.1555   1
   3  -7   6 23.9694 47.2965   1
  -3   7  -6 49.6749 30.4676   1
  -3   7  -6-28.1352 46.0909   1
   3  -7   7 548.924 108.387   1
  -3   7  -7  625.43 65.7812   1
  -3   7  -7 461.775 63.9818   1
   3  -7   8-40.4668 50.8762   1
  -3   7  -8 43.1678 25.6252   1
  -3   7  -8-9.49894 51.4809   1
   3  -7   9 790.396 79.6593   1
  -3   7  -9 743.164 39.6034   1
  -3   7  -9 840.825 79.9688   1
  -3   7 -10 651.966 58.3397   1
  -3   7 -10 523.753 77.5537   1
  -3   7 -11 633.107 36.7676   1
  -3   7 -11 808.838 139.452   1
  -3   7 -12 121.264 25.4588   1
  -3   7 -12 112.658 107.665   1
  -3   7 -13 158.186  25.242   1
  -3   7 -13 190.911 67.1071   1
  -3   7 -14 60.5149 22.4322   1
  -3   7 -14 115.981 69.3242   1
   3  -6 -16-16.0513  66.589   1
   3  -6 -15 163.987 43.4793   1
   3  -6 -14 61.2699 39.1802   1
   3  -6 -13 613.435 52.8981   1
   3  -6 -12 24.4237 38.1821   1
   3  -6 -11 1130.41 67.5345   1
   3  -6 -10 26.3677 38.1446   1
   3  -6  -9 3722.10 255.477   1
   3  -6  -8 13.7195 42.0283   1
   3  -6  -7 578.708 54.9085   1
   3  -6  -6 156.653 72.5914   1
  -3   6   6 122.193 45.1629   1
   3  -6  -5 278.507 45.0421   1
  -3   6   5 371.683 47.8344   1
   3  -6  -4 578.786 85.6385   1
  -3   6   4 572.716 51.9096   1
   3  -6  -3 289.191 40.9613   1
   3  -6  -3 193.261 20.0639   1
  -3   6   3 167.659 41.2849   1
  -3   6   3  194.03 14.9968   1
   3  -6  -2  206.61 40.4439   1
   3  -6  -2 208.962  28.312   1
  -3   6   2 240.287 40.0984   1
  -3   6   2 202.627 13.6174   1
   3  -6  -1 1494.13 67.9706   1
   3  -6  -1 1551.26  43.542   1
  -3   6   1 1564.55 112.387   1
  -3   6   1 1495.64 60.0379   1
   3  -6   0 36.2117 32.9072   1
   3  -6   0 41.7511 22.9172   1
  -3   6   0 104.142 54.2034   1
  -3   6   0-1.94982  20.099   1
   3  -6   1 119.113 50.0253   1
  -3   6  -1 159.524 58.8668   1
  -3   6  -1 134.598 25.6137   1
   3  -6   2-7.71549 53.5187   1
  -3   6  -2-14.1754 30.4364   1
  -3   6  -2 7.38685  48.825   1
   3  -6   3 -2.3219 35.6037   1
  -3   6  -3-12.7871 30.4713   1
  -3   6  -3-43.8993 32.5784   1
   3  -6   4 1931.54 95.7089   1
  -3   6  -4 1990.83 80.3036   1
  -3   6  -4 1956.18 152.092   1
   3  -6   5  101.22 45.4526   1
  -3   6  -5 81.5032 51.1126   1
  -3   6  -5 107.442 44.3136   1
   3  -6   6 76.5805 81.4634   1
  -3   6  -6 70.6356   28.03   1
  -3   6  -6 61.2027 46.9562   1
   3  -6   7 474.386 62.2191   1
  -3   6  -7 495.945  36.777   1
  -3   6  -7 389.632 62.3175   1
   3  -6   8  30.123 50.3096   1
  -3   6  -8-17.2195 26.8929   1
  -3   6  -8 39.2883 51.6421   1
   3  -6   9-6.35459 93.8843   1
  -3   6  -9 90.1799 54.0795   1
   3  -6  10 220.441 60.6673   1
  -3   6 -10 212.164  61.707   1
   3  -6  11 236.902 67.2296   1
  -3   6 -11 383.249 113.317   1
  -3   6 -12 20.4739 100.006   1
  -3   6 -13-71.5383 62.4831   1
  -3   6 -14 224.481 69.6205   1
  -3   6 -15 591.206 92.8506   1
   3  -5 -16 31.0624 37.2595   1
   3  -5 -15 66.9941 37.3874   1
   3  -5 -14 48.0933 35.9442   1
   3  -5 -13 33.9833 35.4155   1
   3  -5 -13 26.4582 16.2356   1
   3  -5 -13 45.3714 18.1068   1
   3  -5 -12 2.30106 34.3215   1
   3  -5 -12 5.74633 15.0726   1
   3  -5 -12-9.63945  10.277   1
   3  -5 -11  43.326 34.5056   1
   3  -5 -11 7.25602 8.23908   1
   3  -5 -11 2.91767 15.6847   1
   3  -5 -10-23.1898 35.7883   1
   3  -5 -10 0.38513 12.4678   1
   3  -5 -10 5.98891 15.3003   1
   3  -5  -9 1404.83 78.6422   1
   3  -5  -9 1498.92 29.8085   1
   3  -5  -9 1513.15 35.3516   1
   3  -5  -8 69.6094 38.6592   1
   3  -5  -8 15.9019  7.8749   1
   3  -5  -8 15.2277  10.363   1
   3  -5  -7 2504.22 179.688   1
   3  -5  -6 420.501 45.7544   1
  -3   5   6 396.505 48.9359   1
   3  -5  -5 72.8032 62.5283   1
  -3   5   5 35.5187 37.7777   1
   3  -5  -4 11.7426 33.8812   1
   3  -5  -4 3.03342 10.1892   1
  -3   5   4-27.0295 35.0825   1
  -3   5   4 3.62248 7.50287   1
   3  -5  -3 3177.52 126.785   1
   3  -5  -3 3353.89 80.7327   1
  -3   5   3 3598.21 132.449   1
  -3   5   3 3044.84 63.5612   1
   3  -5  -2 4265.90 234.336   1
   3  -5  -2 3841.85 89.0765   1
  -3   5   2 4230.30 152.903   1
  -3   5   2 3734.10 99.5446   1
   3  -5  -1 6240.75 339.895   1
   3  -5  -1 5957.35 238.286   1
  -3   5   1 6359.50 242.925   1
  -3   5   1 5796.58 214.287   1
   3  -5   0 2042.24 83.3874   1
   3  -5   0 2291.21 100.681   1
  -3   5   0 2493.78 89.6979   1
  -3   5   0 2077.46 88.0636   1
   3  -5   1 40.5143 24.6712   1
  -3   5  -1 9.09241 29.5682   1
  -3   5  -1 13.8639 38.6889   1
   3  -5   2 2007.45 123.307   1
  -3   5  -2 2464.92 82.3694   1
  -3   5  -2 1949.03 115.532   1
   3  -5   3 615.359  47.084   1
  -3   5  -3 720.259 42.0695   1
  -3   5  -3 554.693 42.1014   1
   3  -5   4 42.2064 38.2573   1
  -3   5  -4 22.7555 27.6558   1
  -3   5  -4 38.0451 59.8312   1
   3  -5   5 2021.14 169.235   1
  -3   5  -5 2143.25 76.3734   1
  -3   5  -5 1906.21 99.9314   1
   3  -5   6 299.295 52.5843   1
  -3   5  -6 257.193 51.3491   1
   3  -5   7 32.4654 49.8418   1
  -3   5  -7 23.4905  47.945   1
   3  -5   8 340.889 98.3947   1
  -3   5  -8 215.993 58.2833   1
   3  -5   9 43.0058 54.1108   1
  -3   5  -9 47.7566 54.5753   1
   3  -5  10 255.426 61.0218   1
  -3   5 -10 311.923 62.9251   1
   3  -5  11 174.048 60.1209   1
  -3   5 -11 133.088 61.0497   1
   3  -5  12 553.659 74.6845   1
  -3   5 -12 495.396  129.60   1
  -3   5 -13 162.108 63.4059   1
  -3   5 -14 105.014 61.5676   1
  -3   5 -15  62.884 63.7912   1
  -3   5 -16 146.365 69.5758   1
   3  -4 -16 256.681 38.0088   1
   3  -4 -15 83.4278 34.1361   1
   3  -4 -15 61.4399 25.5001   1
   3  -4 -15 83.7285 16.8939   1
   3  -4 -14 37.5391 56.0068   1
   3  -4 -14 76.6865  24.111   1
   3  -4 -14 22.9119 27.9778   1
   3  -4 -13-4.07564 57.2908   1
   3  -4 -13 19.0808 23.0293   1
   3  -4 -13 23.4283 16.1306   1
   3  -4 -12-4.33452 56.7241   1
   3  -4 -12 11.5431 12.8814   1
   3  -4 -12 16.8704 15.8577   1
   3  -4 -11-16.5612  56.545   1
   3  -4 -11 0.62224 20.2224   1
   3  -4 -11  16.108 26.0507   1
   3  -4 -10 502.199  76.909   1
   3  -4 -10 619.599 18.6081   1
   3  -4 -10  631.64 22.6041   1
   3  -4  -9 1020.13  100.50   1
   3  -4  -9 1189.12 37.0453   1
   3  -4  -9 1144.04 29.5865   1
   3  -4  -8 197.992 39.2418   1
   3  -4  -8  288.02 12.3034   1
   3  -4  -8 284.556 14.5019   1
   3  -4  -7 130.983 35.3372   1
   3  -4  -7 181.664 15.0988   1
   3  -4  -7  149.96 19.5346   1
   3  -4  -6 4785.20 294.446   1
   3  -4  -6 5261.49 123.543   1
   3  -4  -6 4877.75 125.941   1
  -3   4   6 5313.81 218.519   1
   3  -4  -5 3957.25 161.004   1
   3  -4  -5 4157.03 88.5006   1
  -3   4   5 4243.75 170.083   1
   3  -4  -4 88.3781 31.9107   1
   3  -4  -4 55.6487 12.8404   1
  -3   4   4 123.896 32.2825   1
  -3   4   4 56.5969 10.4549   1
   3  -4  -3 1096.95 87.8368   1
   3  -4  -3 1141.30 20.9931   1
  -3   4   3 1197.76 55.3451   1
  -3   4   3 1098.82 25.2569   1
   3  -4  -2  964.47 82.6582   1
   3  -4  -2 867.668 37.4626   1
  -3   4   2 950.366 49.2061   1
  -3   4   2 798.696 29.2303   1
   3  -4  -1 2350.82  140.11   1
   3  -4  -1 2369.94 58.3124   1
  -3   4   1 2592.41  137.12   1
  -3   4   1 2182.82   50.13   1
   3  -4   0 1280.57 57.6723   1
   3  -4   0 1381.54 43.8341   1
  -3   4   0 1458.50 57.7985   1
  -3   4   0 1319.86 62.4777   1
   3  -4   112084.20 743.782   1
  -3   4  -112789.20 645.552   1
  -3   4  -111312.20  567.21   1
   3  -4   2 319.257 35.6133   1
  -3   4  -2 366.226 36.3957   1
  -3   4  -2 274.747 31.2541   1
   3  -4   3 247.603 63.8635   1
  -3   4  -3 367.711 31.0672   1
  -3   4  -3 215.437 33.6392   1
   3  -4   4 1167.48 64.8145   1
  -3   4  -4 1440.61 53.3322   1
  -3   4  -4 1128.97 59.9502   1
   3  -4   5 6021.26 392.976   1
  -3   4  -5 5599.39 372.827   1
   3  -4   6-40.1345   44.35   1
  -3   4  -6-36.4145 42.8997   1
   3  -4   7 115.508 82.7921   1
  -3   4  -7-37.8776 46.5541   1
   3  -4   8 46.8137 49.8825   1
  -3   4  -8-23.3347 50.7116   1
   3  -4   9  518.57 117.533   1
  -3   4  -9 535.238 69.2311   1
   3  -4  10 344.383 64.5392   1
  -3   4 -10 400.624 66.0024   1
   3  -4  11 -51.177 53.6934   1
  -3   4 -11-59.2232 97.6666   1
   3  -4  12 293.297 113.928   1
  -3   4 -12 350.021 109.419   1
   3  -4  13-8.45154 56.9974   1
  -3   4 -13 72.2191 56.7162   1
  -3   4 -14 23.1538 56.5531   1
  -3   4 -15 52.9991 60.2057   1
  -3   4 -16 35.7676 104.883   1
  -3   4 -17 125.223 113.651   1
   3  -3 -16 129.903 52.9815   1
   3  -3 -16 174.112  21.587   1
   3  -3 -16 65.3945 40.8982   1
   3  -3 -15 7.16845 51.1805   1
   3  -3 -15-43.2399 31.0411   1
   3  -3 -15 33.2249 21.5402   1
   3  -3 -14 20.4305 30.7419   1
   3  -3 -14 58.4544 29.4515   1
   3  -3 -14 42.2943 36.3885   1
   3  -3 -13 11.6982  30.585   1
   3  -3 -13 41.2182 28.7516   1
   3  -3 -13 61.6062  34.701   1
   3  -3 -12 70.2202 31.4789   1
   3  -3 -12 39.4468 27.8152   1
   3  -3 -12 42.2531 20.4995   1
   3  -3 -11 50.9973 31.0361   1
   3  -3 -11 70.4916 27.5849   1
   3  -3 -11 65.9953 34.8621   1
   3  -3 -10-0.79975 31.6206   1
   3  -3 -10-2.86858 15.0858   1
   3  -3 -10  7.4735 33.6109   1
   3  -3  -9-69.7749 31.6375   1
   3  -3  -9 5.54353 24.7246   1
   3  -3  -9 103.924  31.266   1
   3  -3  -8 526.235 73.8789   1
   3  -3  -8 634.268 20.3841   1
   3  -3  -8 612.306 41.0079   1
   3  -3  -7 138.573 31.4051   1
   3  -3  -7 180.376 22.3197   1
   3  -3  -7 157.437 27.3262   1
   3  -3  -6 203.394 30.7788   1
   3  -3  -6 183.151  20.042   1
  -3   3   6 209.148 34.5254   1
   3  -3  -5 4514.06 178.341   1
   3  -3  -5 4724.60  100.58   1
  -3   3   5 5074.66 191.244   1
   3  -3  -4 6490.12 365.826   1
   3  -3  -4 7133.59 205.327   1
  -3   3   4 6694.40 267.594   1
   3  -3  -3 991.697 48.8602   1
   3  -3  -3 1161.28 30.9942   1
  -3   3   3 1060.17  50.102   1
  -3   3   3 996.218 27.7814   1
   3  -3  -2 1384.22 55.1981   1
   3  -3  -2 1509.54 43.0358   1
  -3   3   2 1398.88 86.7784   1
  -3   3   2 1295.01 23.7534   1
   3  -3  -1 7091.27 374.219   1
   3  -3  -1 6791.33 253.507   1
  -3   3   1 6958.77 260.757   1
  -3   3   1 6476.33 183.449   1
   3  -3   0 383.957 36.1123   1
   3  -3   0 459.186 43.1582   1
  -3   3   0 411.377 62.1424   1
  -3   3   0 423.754 22.4173   1
   3  -3   1 773.284 67.3583   1
  -3   3  -1 912.172 44.8933   1
  -3   3  -1 701.685 33.6947   1
   3  -3   2 2851.74  156.15   1
  -3   3  -2 3224.47 96.3489   1
  -3   3  -2 2691.26 89.1631   1
   3  -3   3 3170.71 174.142   1
  -3   3  -3 2916.54 100.153   1
   3  -3   4 608.861 48.1233   1
  -3   3  -4 557.939 43.1192   1
   3  -3   5 3067.97 125.826   1
  -3   3  -5 2731.00 111.969   1
   3  -3   6 4400.16 193.676   1
  -3   3  -6 4557.18 293.903   1
   3  -3   7 801.246 64.7165   1
  -3   3  -7 750.835  63.039   1
   3  -3   8-24.7917 49.0293   1
  -3   3  -8 44.5857 47.7938   1
   3  -3   9 69.7326 50.4061   1
  -3   3  -9 47.8785 52.3564   1
   3  -3  10 318.658 61.4048   1
  -3   3 -10 263.235 61.5187   1
   3  -3  11 78.9407 53.4257   1
  -3   3 -11-75.7799 97.5319   1
   3  -3  12 633.215 73.6609   1
  -3   3 -12 649.279 121.184   1
   3  -3  13 315.217 63.0785   1
  -3   3 -13 289.765 61.6307   1
   3  -3  14 72.7113 54.0935   1
  -3   3 -14-83.3917 53.2985   1
  -3   3 -15 9.57019 56.5447   1
  -3   3 -16 35.8273 99.0934   1
  -3   3 -17 88.8283 62.2323   1
   3  -2 -16 59.0514 45.3617   1
   3  -2 -16 59.8185 23.3877   1
   3  -2 -16 87.5474 28.0515   1
   3  -2 -15 84.7977 28.6013   1
   3  -2 -15 132.126 23.4759   1
   3  -2 -15 183.686  29.159   1
   3  -2 -14 67.3855 26.9667   1
   3  -2 -14 59.4145 35.9548   1
   3  -2 -14 27.7414 44.1282   1
   3  -2 -13  22.465 26.5674   1
   3  -2 -13-25.9848 34.1651   1
   3  -2 -13-26.7747 24.2783   1
   3  -2 -12 167.267 30.0314   1
   3  -2 -12  230.43 37.1087   1
   3  -2 -12 218.651 45.6872   1
   3  -2 -11 164.172 30.1892   1
   3  -2 -11 224.786 36.0257   1
   3  -2 -11 152.249 43.9984   1
   3  -2 -10-12.0509   28.55   1
   3  -2 -10 34.9201 32.1708   1
   3  -2 -10 11.2707 23.6608   1
   3  -2  -9 403.857 35.1664   1
   3  -2  -9 417.049  23.272   1
   3  -2  -9  407.57 29.8206   1
   3  -2  -8  317.86 33.6905   1
   3  -2  -8 376.527  35.102   1
   3  -2  -8 378.005 26.3258   1
   3  -2  -7 81.0648 49.3359   1
   3  -2  -7 139.174 16.4627   1
   3  -2  -7 116.588 19.9106   1
   3  -2  -6 875.733 41.7148   1
   3  -2  -6 1050.14 26.9795   1
   3  -2  -5 2325.68 83.7464   1
   3  -2  -5 2825.68 76.8234   1
  -3   2   5 2783.48 136.684   1
   3  -2  -4  607.45   37.12   1
   3  -2  -4 710.761  30.019   1
  -3   2   4 678.942  38.087   1
  -3   2   4 606.506  17.697   1
   3  -2  -316009.20 963.627   1
   3  -2  -316056.20 787.078   1
  -3   2   316545.30 968.231   1
  -3   2   316494.00 882.107   1
   3  -2  -2 2496.29 91.1513   1
   3  -2  -2 2719.54 55.8077   1
  -3   2   2 2605.40 86.9172   1
  -3   2   2 2629.85 74.2734   1
   3  -2  -131270.10 3457.91   1
   3  -2  -130736.10 2695.19   1
  -3   2   131846.80 3441.23   1
  -3   2   130673.20 2860.11   1
   3  -2   0 3958.12 151.205   1
   3  -2   0 4312.85 184.513   1
  -3   2   0 4228.69 148.352   1
  -3   2   0 3999.96 112.109   1
   3  -2   1 1115.33 48.7383   1
  -3   2  -1 1102.70 52.7042   1
  -3   2  -1 1047.37 74.3087   1
   3  -2   2 2220.05 87.4675   1
  -3   2  -2 1945.25  72.313   1
   3  -2   316750.30 1109.93   1
  -3   2  -315432.00 1188.05   1
   3  -2   4 1545.92 69.8461   1
  -3   2  -4 1337.66 59.6578   1
   3  -2   5 39.1075 37.8968   1
  -3   2  -5  76.834 33.6163   1
   3  -2   6  410.18 85.0644   1
  -3   2  -6 435.229 44.9747   1
   3  -2   7 1807.49 89.6824   1
  -3   2  -7 1659.08 139.661   1
   3  -2   8-6.03483  45.174   1
  -3   2  -8-91.5542 74.4748   1
   3  -2   9 380.089  61.109   1
  -3   2  -9 371.191 95.7106   1
   3  -2  10  115.84 51.3804   1
  -3   2 -10-53.4547 85.5492   1
   3  -2  11  355.09   62.43   1
  -3   2 -11 315.957 103.312   1
   3  -2  12 1661.09 107.345   1
  -3   2 -12 1555.47 106.736   1
   3  -2  13 182.833  54.227   1
  -3   2 -13 104.993  54.017   1
   3  -2  14 16.3168 52.2148   1
  -3   2 -14 97.9079 52.1619   1
   3  -2  15-33.7573 52.5679   1
  -3   2 -15 0.42544  51.137   1
  -3   2 -16 88.0412 93.3267   1
  -3   2 -17 38.5069 56.2764   1
  -3   2 -18 137.222 60.2442   1
   3  -1 -16 140.635 41.3923   1
   3  -1 -16 144.198 44.2919   1
   3  -1 -16 175.469  34.476   1
   3  -1 -15 130.378 24.4059   1
   3  -1 -15  87.969  25.857   1
   3  -1 -15 94.6131 54.9694   1
   3  -1 -14 32.0619 23.4809   1
   3  -1 -14 13.3626 23.8901   1
   3  -1 -14-2.35046   29.83   1
   3  -1 -13 11.1475 38.6367   1
   3  -1 -13 15.1432 23.1741   1
   3  -1 -13-11.2585 48.8574   1
   3  -1 -12  62.007 39.9337   1
   3  -1 -12 69.6917 23.3906   1
   3  -1 -12 45.8888 29.6028   1
   3  -1 -11-38.5734 40.5213   1
   3  -1 -11-38.2345 37.6977   1
   3  -1 -11 9.29719 27.7382   1
   3  -1 -10 352.357 53.4744   1
   3  -1 -10 462.136 47.4941   1
   3  -1 -10 439.714  61.608   1
   3  -1  -9 34.1875 41.9863   1
   3  -1  -9-29.9467 21.1896   1
   3  -1  -9 15.6058 47.1234   1
   3  -1  -8 480.168 54.1296   1
   3  -1  -8 535.112 27.5566   1
   3  -1  -8 587.633 56.3464   1
   3  -1  -7 1166.65 45.4779   1
   3  -1  -7 1362.44 60.3541   1
   3  -1  -7 1290.84 71.3431   1
   3  -1  -6 42.9745  39.364   1
   3  -1  -6 63.8128 16.9372   1
   3  -1  -5 403.748 28.7225   1
   3  -1  -5 500.507  22.372   1
  -3   1   5 506.407 30.9006   1
   3  -1  -4 1567.64 54.7603   1
   3  -1  -4 1880.90  62.331   1
  -3   1   4 1808.13 54.1202   1
   3  -1  -3 5008.31 166.558   1
   3  -1  -3 5607.51 182.953   1
  -3   1   3 5272.90 168.741   1
  -3   1   3 4962.98 128.869   1
   3  -1  -2  429.28 35.1819   1
   3  -1  -2 393.715 21.2775   1
  -3   1   2 397.092 32.8677   1
  -3   1   2 362.816 20.6641   1
   3  -1  -1 666.574 41.4162   1
   3  -1  -1 707.503 28.5785   1
  -3   1   1 687.589 41.8739   1
  -3   1   1 710.078 26.7981   1
   3  -1   0 6676.45 223.096   1
  -3   1   0 6349.14 262.316   1
  -3   1   0 6334.81 277.522   1
   3  -1   1 3378.89 163.576   1
  -3   1  -1 3383.69 115.599   1
  -3   1  -1 3185.17 148.182   1
   3  -1   2 7591.53 577.904   1
  -3   1  -2 7636.34 395.017   1
   3  -1   3 6835.85 295.703   1
  -3   1  -3 6498.29 407.631   1
   3  -1   4 3363.18 226.138   1
  -3   1  -4 3208.17 202.744   1
   3  -1   5 1609.34  124.08   1
  -3   1  -5 1499.78 66.6696   1
   3  -1   6 1073.14 108.946   1
  -3   1  -6 1149.85 100.536   1
   3  -1   7 184.102 42.7365   1
  -3   1  -7 160.519  38.608   1
   3  -1   8 580.761 53.4398   1
  -3   1  -8 494.901 49.8895   1
   3  -1   9 3345.63 156.657   1
  -3   1  -9 3017.13 148.987   1
   3  -1  10 62.7448 50.0447   1
  -3   1 -10  68.965 46.2135   1
   3  -1  11 312.819 57.5186   1
  -3   1 -11 320.749 56.9288   1
   3  -1  12 62.6314 93.3735   1
  -3   1 -12 97.4967 53.5926   1
   3  -1  13 191.777 50.0233   1
  -3   1 -13  86.674 50.5182   1
   3  -1  14 66.0709 81.0936   1
  -3   1 -14 6.41708 47.8432   1
   3  -1  15 108.686 49.9335   1
  -3   1 -15  45.801 86.0818   1
  -3   1 -16 -15.094 49.7154   1
  -3   1 -17 -56.725 51.9766   1
  -3   1 -18 78.8394  54.816   1
   3   0 -16-9.44201 33.7459   1
   3   0 -16 36.3781 27.7484   1
   3   0 -16 19.0196 37.9264   1
   3   0 -15 216.607 23.5598   1
   3   0 -15 263.876 32.0423   1
   3   0 -15 261.607 40.0511   1
   3   0 -14 96.6713 22.0912   1
   3   0 -14 144.735 47.3981   1
   3   0 -14 165.638 35.9572   1
   3   0 -13 79.3672 34.4656   1
   3   0 -13 12.3445 45.0141   1
   3   0 -13 28.2281 34.5483   1
   3   0 -12 815.653 57.3023   1
   3   0 -12 1026.43 45.6553   1
   3   0 -12 1001.46 88.2005   1
   3   0 -11 93.1508 22.3235   1
   3   0 -11  117.45  27.615   1
   3   0 -11 114.845 33.8893   1
   3   0 -10 15.3705 21.9718   1
   3   0 -10 -6.3544  25.745   1
   3   0 -10-9.98013 34.0144   1
   3   0  -9 56.4309 21.9552   1
   3   0  -9 55.4213 25.6197   1
   3   0  -9  39.678 55.4241   1
   3   0  -8 236.111 41.0599   1
   3   0  -8 297.936 27.2581   1
   3   0  -8 368.138  58.644   1
   3   0  -7 146.094 36.2765   1
   3   0  -7 163.418 39.9273   1
   3   0  -7  105.17 47.7667   1
   3   0  -6 3141.09 88.1824   1
   3   0  -6 3239.06 93.5032   1
   3   0  -5 1515.30 68.8688   1
   3   0  -5 1855.05 76.3503   1
   3   0  -4 1857.48 82.6115   1
   3   0  -4 2038.55 82.0465   1
  -3   0   4 2027.25 81.9698   1
   3   0  -3 3028.22 88.2991   1
   3   0  -3 3341.80 89.1803   1
  -3   0   3 3209.28 125.742   1
  -3   0   3 3220.82 120.448   1
   3   0  -238715.20 4632.41   1
   3   0  -240439.60 4343.56   1
  -3   0   236560.60 3967.84   1
  -3   0   237976.90 4096.68   1
   3   0  -1 2491.01 119.709   1
   3   0  -1 2752.00 108.139   1
  -3   0   1 2677.77 124.018   1
  -3   0   1 2555.57 68.8307   1
   3   0   034091.80 3644.81   1
  -3   0   038633.20 4440.07   1
  -3   0   032843.20 3416.64   1
   3   0   131264.80 2744.59   1
  -3   0  -130827.30 2729.61   1
   3   0   2 3158.12 104.571   1
  -3   0  -2 2872.19  96.187   1
   3   0   3 2764.15 102.823   1
  -3   0  -3 2607.24 100.071   1
   3   0   4 8323.36 360.589   1
  -3   0  -4 7295.94 325.969   1
   3   0   515143.70 883.144   1
  -3   0  -514251.90 834.164   1
   3   0   6  395.36 73.5564   1
  -3   0  -6  358.54 38.6333   1
   3   0   7 1463.70 117.868   1
  -3   0  -7 1350.07 65.1357   1
   3   0   8 608.553 50.3631   1
  -3   0  -8 473.463 80.7761   1
   3   0   9 347.569 47.4807   1
  -3   0  -9 311.832 45.6559   1
   3   0  10 1905.36 100.521   1
  -3   0 -10 1795.59 95.9071   1
   3   0  11 768.218 111.694   1
  -3   0 -11  668.97 62.7723   1
   3   0  12 7241.97 431.264   1
  -3   0 -12 7122.82 606.641   1
   3   0  13 2299.23 191.563   1
  -3   0 -13 2083.04 191.135   1
   3   0  14 137.405 46.7274   1
  -3   0 -14 157.445 80.3023   1
   3   0  15 122.251 46.3178   1
  -3   0 -15 85.1219 47.1708   1
   3   0  16-26.2685 44.6918   1
  -3   0 -16 58.1344 45.3924   1
  -3   0 -17-80.2196 47.7739   1
  -3   0 -18-4.25942 82.1851   1
   3   1 -16 47.0241 30.0719   1
   3   1 -16  14.169 51.9577   1
   3   1 -16 25.1234 72.4503   1
   3   1 -15 33.7556 18.6343   1
   3   1 -15 170.875 51.8384   1
   3   1 -15 62.6887 41.1157   1
   3   1 -14 163.534 33.0319   1
   3   1 -14 234.937   33.57   1
   3   1 -14 198.298 73.8803   1
   3   1 -13 425.994 40.3518   1
   3   1 -13 520.836 40.4254   1
   3   1 -13 645.015 51.1645   1
   3   1 -12 23.7967 18.5811   1
   3   1 -12 60.2881 29.6762   1
   3   1 -12 18.6271 37.6526   1
   3   1 -11 1492.77 47.0181   1
   3   1 -11 1727.24 65.7527   1
   3   1 -11 1862.52 129.431   1
   3   1 -10 1025.53 36.5147   1
   3   1 -10 1242.00 85.2423   1
   3   1 -10 1200.75 66.5711   1
   3   1  -9  698.58 29.1689   1
   3   1  -9 805.439 69.8767   1
   3   1  -9 791.063 53.7466   1
   3   1  -8 2441.13 64.6903   1
   3   1  -8 2659.12 132.567   1
   3   1  -8 2672.71 158.826   1
   3   1  -7  16.374 16.6027   1
   3   1  -7  12.259 25.5011   1
   3   1  -7-13.5802 52.0828   1
   3   1  -6 5.36138 25.8688   1
   3   1  -6 -1.6763 23.2495   1
   3   1  -5 103.619  26.704   1
   3   1  -5 102.731 41.2961   1
   3   1  -4 42.9831 24.0016   1
   3   1  -4 69.1114 22.6671   1
   3   1  -3 251.479 17.7585   1
   3   1  -3 259.363 26.0802   1
  -3  -1   3 284.624 30.0696   1
   3   1  -2 5467.57  146.97   1
   3   1  -2 5719.73 251.203   1
  -3  -1   2 5020.56 176.003   1
  -3  -1   2 5435.69 238.894   1
  -3  -1   1-7.73942 21.1767   1
  -3  -1   1-63.7843 27.1181   1
   3   1   0 719.004 31.8762   1
  -3  -1   0 677.451 31.1179   1
   3   1   1170730.087124.00   1
  -3  -1  -1170271.082439.40   1
   3   1   2 1204.24 46.1802   1
  -3  -1  -2 1110.66  46.489   1
   3   1   343008.50 5143.20   1
  -3  -1  -340258.10 4858.83   1
   3   1   4 134.046 37.1223   1
  -3  -1  -4 140.571 62.7129   1
   3   1   5 248.112 41.8827   1
  -3  -1  -5 281.915 39.5559   1
   3   1   6 1133.96 57.4485   1
  -3  -1  -6 1194.12 55.1883   1
   3   1   7 413.388 70.5637   1
  -3  -1  -7 346.858 37.1178   1
   3   1   8 73.7167 60.1286   1
  -3  -1  -8 33.7431 31.9999   1
   3   1   9 734.432 88.9888   1
  -3  -1  -9 694.308 49.9439   1
   3   1  10 146.416 41.7213   1
  -3  -1 -10 124.732 40.7209   1
   3   1  11 81.4748 43.0108   1
  -3  -1 -11 0.77483 39.4607   1
   3   1  12 15.2245  45.803   1
  -3  -1 -12-13.2481 44.8013   1
   3   1  13 3112.94 162.261   1
  -3  -1 -13 3141.05 158.611   1
   3   1  14 136.807 43.0335   1
  -3  -1 -14 124.659 43.7626   1
   3   1  15 74.5233 73.0055   1
  -3  -1 -15 133.805 43.0774   1
   3   1  16-9.28729  40.585   1
  -3  -1 -16-7.62859 70.7622   1
  -3  -1 -17 300.146  83.676   1
  -3  -1 -18 3.53539 43.9089   1
  -3  -1 -19 43.8863 47.3763   1
   3   2 -16 33.0542 59.2829   1
   3   2 -16 21.3935 79.5487   1
   3   2 -15  70.297 16.5756   1
   3   2 -15 23.6216  35.403   1
   3   2 -15 57.0311 46.5283   1
   3   2 -14   30.13 26.1332   1
   3   2 -14-35.5418 34.1568   1
   3   2 -14 54.0132   43.48   1
   3   2 -13 51.5914 26.4195   1
   3   2 -13 4.25174 33.8219   1
   3   2 -13 6.70768 42.9275   1
   3   2 -12 69.8249 16.5892   1
   3   2 -12  73.728 57.0404   1
   3   2 -12 32.8257 42.3954   1
   3   2 -11 29.2948 16.4765   1
   3   2 -11-9.55709 56.3105   1
   3   2 -11 75.3184 69.7748   1
   3   2 -10 1053.21 49.9246   1
   3   2 -10 1158.70 59.5487   1
   3   2 -10 1235.24 74.8583   1
   3   2  -9 1347.57 56.3607   1
   3   2  -9 1466.73 66.5967   1
   3   2  -9 1511.26 81.0264   1
   3   2  -8 49.4683 26.5613   1
   3   2  -8  52.255 32.0296   1
   3   2  -8 59.7853 68.6335   1
   3   2  -7 1588.23  37.043   1
   3   2  -7 1681.50 104.225   1
   3   2  -7 1786.23 76.1553   1
   3   2  -6 1509.23 47.7626   1
   3   2  -6 1585.04 95.7805   1
   3   2  -6 1552.28 68.0677   1
   3   2  -5 2644.92 71.2025   1
   3   2  -5 3085.25 96.9036   1
   3   2  -4 7619.45 253.759   1
   3   2  -4 8044.81 400.784   1
   3   2  -3 1810.92 44.7715   1
   3   2  -3 1899.42 63.3339   1
   3   2  -2 6296.98 152.383   1
   3   2  -2 6683.35 233.621   1
  -3  -2   2 6330.19 175.414   1
  -3  -2   2 6422.77 225.996   1
   3   2  -116755.70 883.612   1
  -3  -2   114269.70 638.778   1
  -3  -2   116079.70 855.849   1
   3   2   0 515.329 31.9156   1
  -3  -2   0 514.172  54.603   1
   3   2   1 82.6167 29.5279   1
  -3  -2  -1 587.298 30.3688   1
   3   2   219421.00 1159.19   1
  -3  -2  -218425.20 1106.80   1
   3   2   313689.50 699.436   1
  -3  -2  -315087.40 749.745   1
   3   2   419436.40 1220.59   1
  -3  -2  -416595.50 1042.45   1
   3   2   5 3985.68 153.327   1
  -3  -2  -5 4206.69 152.456   1
   3   2   6 3596.82 125.262   1
  -3  -2  -6 3447.39 114.157   1
   3   2   7 3886.75 198.749   1
  -3  -2  -7 3598.69 118.902   1
   3   2   8 1436.55 62.8263   1
  -3  -2  -8 1271.30 92.4613   1
   3   2   9 7350.21  328.34   1
  -3  -2  -9 7035.73  299.11   1
   3   2  10 223.457 38.6375   1
  -3  -2 -10 198.545 36.8817   1
   3   2  11 293.397 76.4815   1
  -3  -2 -11 350.393 74.2192   1
   3   2  12 2312.35 171.142   1
  -3  -2 -12 2202.79 167.976   1
   3   2  13 3629.78 176.221   1
  -3  -2 -13 3704.48 265.755   1
   3   2  14 28.2706 38.8955   1
  -3  -2 -14 52.0275  67.627   1
   3   2  15 91.1737 65.4135   1
  -3  -2 -15 94.3729 39.5458   1
   3   2  16 86.3257 39.3176   1
  -3  -2 -16  81.063  39.834   1
  -3  -2 -17 15.6389 39.3299   1
  -3  -2 -18 2.15278 67.0935   1
  -3  -2 -19 146.004 73.3682   1
   3   3 -16 159.915  55.838   1
   3   3 -15 8.67583 39.5021   1
   3   3 -15 29.6131 49.8575   1
   3   3 -14 184.848 15.2644   1
   3   3 -14 184.924 43.3652   1
   3   3 -14 263.858 53.7494   1
   3   3 -13 12.8511 22.3314   1
   3   3 -13-2.26965 63.5711   1
   3   3 -13 37.4817 47.0084   1
   3   3 -12 138.745 15.0167   1
   3   3 -12 189.017 66.4279   1
   3   3 -12 179.128 48.7192   1
   3   3 -11 22.8316 13.1972   1
   3   3 -11 40.2257 36.0122   1
   3   3 -11-98.1419 76.2243   1
   3   3 -10 533.333 31.3465   1
   3   3 -10  641.48  49.878   1
   3   3 -10 794.336 62.7288   1
   3   3  -9 270.876 26.5122   1
   3   3  -9 281.233 42.0273   1
   3   3  -9 300.833  89.997   1
   3   3  -8 56.3779 21.3969   1
   3   3  -8 22.7582 35.6695   1
   3   3  -8 83.4346 44.0956   1
   3   3  -7  45.549 19.3029   1
   3   3  -7 86.7771 34.3059   1
   3   3  -7 80.2437 40.5203   1
   3   3  -6 32.4285 15.7613   1
   3   3  -6-28.1679 30.7489   1
   3   3  -6 9.19672 36.4064   1
   3   3  -5 2128.51 43.0014   1
   3   3  -5 2254.17 121.997   1
   3   3  -4 164.869 11.1616   1
   3   3  -4 122.604 30.4296   1
   3   3  -3 310.164 8.78791   1
   3   3  -3 235.968 53.2782   1
   3   3  -2 4394.35 147.089   1
   3   3  -1 644.869 68.0192   1
  -3  -3   1 515.245 37.4738   1
   3   3   0 1887.48 66.0494   1
  -3  -3   0 1555.45 106.613   1
   3   3   1 1732.01 58.8157   1
  -3  -3  -1 1784.95  58.141   1
   3   3   247527.10 5905.46   1
  -3  -3  -243185.80 5438.68   1
   3   3   3 402.193 51.3984   1
  -3  -3  -3 360.474 27.2281   1
   3   3   4 3141.47 150.636   1
  -3  -3  -4 2956.37 143.831   1
   3   3   5 865.331 41.3207   1
  -3  -3  -5  873.02  61.341   1
   3   3   6 5993.34 263.277   1
  -3  -3  -6 5444.23 171.734   1
   3   3   7 16.1725 42.0606   1
  -3  -3  -7-12.3561 39.6904   1
   3   3   8 17.1658 26.5771   1
  -3  -3  -8-39.7951 23.8435   1
   3   3   9 2545.03 88.7107   1
  -3  -3  -9 2405.78 82.5652   1
   3   3  10 2905.36  108.74   1
  -3  -3 -10 2829.20 101.238   1
   3   3  11 355.448 39.8477   1
  -3  -3 -11 433.018 66.2116   1
   3   3  12 2024.06 87.1916   1
  -3  -3 -12 1972.90 134.709   1
   3   3  13-9.15841 35.8847   1
  -3  -3 -13-6.30974 35.3478   1
   3   3  14 1344.73 107.082   1
  -3  -3 -14 1352.01 110.515   1
   3   3  15 140.376 35.8841   1
  -3  -3 -15  202.57  61.512   1
   3   3  16 220.042 37.8643   1
  -3  -3 -17 134.946 61.6871   1
  -3  -3 -18 51.6313 34.9785   1
  -3  -3 -19  47.333 36.6059   1
   3   4 -15 28.9469 44.0668   1
   3   4 -15 44.6478 55.4243   1
   3   4 -14 141.901 45.4884   1
   3   4 -14 95.9364 56.5178   1
   3   4 -13-3.09991 17.4209   1
   3   4 -13 73.1169 69.6696   1
   3   4 -13 1.07303 51.4773   1
   3   4 -12 130.053 19.8772   1
   3   4 -12  158.41 44.0818   1
   3   4 -12 181.728 53.3023   1
   3   4 -11 23.6076 10.6265   1
   3   4 -11 61.1951 40.4142   1
   3   4 -11 76.7711 82.8394   1
   3   4 -10 101.118 18.2655   1
   3   4 -10 139.896 39.7761   1
   3   4 -10  62.756 50.7243   1
   3   4  -9 819.455 29.0086   1
   3   4  -9 989.367  61.887   1
   3   4  -9 1021.80 126.458   1
   3   4  -8  108.66 17.0576   1
   3   4  -8 151.494 41.8399   1
   3   4  -8  163.35 50.0035   1
   3   4  -7  702.57 21.8629   1
   3   4  -7 858.393 54.4348   1
   3   4  -7 822.754 64.8088   1
   3   4  -6 30.6096 10.9037   1
   3   4  -6 25.4007 35.2635   1
   3   4  -6  81.753 70.8386   1
   3   4  -5 686.086 11.3695   1
   3   4  -5  718.65 45.8979   1
   3   4  -5 797.827 52.6139   1
   3   4  -4 548.595 67.1993   1
   3   4  -3 1645.68 64.0583   1
   3   4  -2 607.924 64.0585   1
   3   4  -1 9971.27 472.096   1
  -3  -4   1 7862.49 193.393   1
   3   4   012189.00 586.772   1
  -3  -4   011723.60 564.639   1
   3   4   1 4967.01  246.87   1
  -3  -4  -1 4902.55 161.369   1
   3   4   211271.10  488.96   1
  -3  -4  -211300.80 489.281   1
   3   4   3 5561.71 222.747   1
  -3  -4  -3 4821.01 149.509   1
   3   4   4 7996.88 360.109   1
  -3  -4  -4 7910.97 342.002   1
   3   4   5 290.831 40.7179   1
  -3  -4  -5 280.557 21.6192   1
   3   4   6 40.3118 19.3098   1
  -3  -4  -6-14.1082 30.5438   1
   3   4   7 148.743 22.3032   1
  -3  -4  -7 140.901 19.5416   1
   3   4   8  670.47 33.4757   1
  -3  -4  -8 643.651 49.1989   1
   3   4   9 519.612 59.2459   1
  -3  -4  -9 610.756 30.7434   1
   3   4  10 776.701 41.2671   1
  -3  -4 -10 765.425 38.7524   1
   3   4  11 424.454 35.4415   1
  -3  -4 -11 411.483 58.4799   1
   3   4  12  50.462 31.0533   1
  -3  -4 -12 91.9339 50.0641   1
   3   4  13 591.694 67.4705   1
  -3  -4 -13 474.718 39.2998   1
   3   4  14 37.5541 52.9558   1
  -3  -4 -14 110.226 30.6782   1
   3   4  15-2.35556 28.7573   1
  -3  -4 -15-8.56676  27.998   1
   3   4  16 53.1184 29.8549   1
  -3  -4 -16 91.3157 30.0391   1
  -3  -4 -17 -51.541 50.7076   1
  -3  -4 -18 13.7857 51.9115   1
  -3  -4 -19 25.5398 32.0101   1
   3   5 -15 30.6081 48.5369   1
   3   5 -15-4.07837 59.8788   1
   3   5 -14 61.9392 46.1335   1
   3   5 -14-15.4539 57.3839   1
   3   5 -13 -40.943 76.2776   1
   3   5 -13 77.1706 56.5415   1
   3   5 -12  138.04  45.552   1
   3   5 -12  120.81  56.992   1
   3   5 -11 7.05082 12.9148   1
   3   5 -11 34.5762 42.2272   1
   3   5 -11 20.7799 51.0967   1
   3   5 -10 101.981 12.9334   1
   3   5 -10 167.845 43.7666   1
   3   5 -10 144.357 53.2058   1
   3   5  -9 389.087 49.5273   1
   3   5  -9 354.845 62.2124   1
   3   5  -8 71.7938 11.1161   1
   3   5  -8 117.541 44.7572   1
   3   5  -8 104.062 53.8184   1
   3   5  -7 644.199 56.0903   1
   3   5  -7 618.645 115.341   1
   3   5  -6 3042.04  131.30   1
   3   5  -6 3059.65 148.486   1
   3   5  -5 51.9695 35.8621   1
   3   5  -5  52.202 41.7384   1
   3   5  -4 399.573  65.124   1
   3   5  -3 1572.15 64.6272   1
   3   5  -2 4539.23 162.074   1
   3   5  -113041.60 612.836   1
  -3  -5   111403.80 392.648   1
   3   5   0 4911.85 157.765   1
  -3  -5   0 4795.44 119.752   1
   3   5   120103.70 1483.77   1
  -3  -5  -119432.70 1260.11   1
   3   5   2 3262.20 95.2132   1
  -3  -5  -2 3606.98 140.764   1
   3   5   3  507.74 44.1134   1
  -3  -5  -3 384.996 42.8395   1
   3   5   4 761.654 45.5439   1
  -3  -5  -4 756.789 42.4562   1
   3   5   5 56.2056  29.087   1
  -3  -5  -5 10.1139 26.3429   1
   3   5   6 49.6306 17.3048   1
  -3  -5  -6 76.1141   15.30   1
   3   5   7-7.77329 17.6519   1
  -3  -5  -7 1.88684 26.0775   1
   3   5   8 1220.09 37.4999   1
  -3  -5  -8 1245.64 34.0454   1
   3   5   9 1353.95 45.3786   1
  -3  -5  -9 1295.56 59.2857   1
   3   5  10 199.691 26.3189   1
  -3  -5 -10 208.587 23.2958   1
   3   5  11 1691.70 92.7558   1
  -3  -5 -11 1754.99 55.7902   1
   3   5  12 526.634 58.3064   1
  -3  -5 -12 490.741 31.9226   1
   3   5  13 49.3841 45.5156   1
  -3  -5 -13 24.9493 43.0309   1
   3   5  14 515.177 57.4984   1
  -3  -5 -14 604.951 56.3155   1
   3   5  15 47.6468 26.1067   1
  -3  -5 -15 90.8948 25.7531   1
   3   5  16-14.3732 26.0354   1
  -3  -5 -16-15.0336 24.9977   1
  -3  -5 -17 124.192  45.756   1
  -3  -5 -18-59.9962 44.6973   1
  -3  -5 -19-35.4672 45.4627   1
   3   6 -14  45.354 50.5762   1
   3   6 -14-2.03363 109.485   1
   3   6 -13 130.444 84.5363   1
   3   6 -13 29.0808 61.0621   1
   3   6 -12 87.7049 81.6054   1
   3   6 -12 6.35699  101.20   1
   3   6 -11 40.8681 46.8549   1
   3   6 -11 133.179 57.0404   1
   3   6 -10 138.718 48.2151   1
   3   6 -10 145.363 101.224   1
   3   6  -9  5.7083  43.799   1
   3   6  -9 123.234 54.8399   1
   3   6  -8 284.784 53.6892   1
   3   6  -8 403.621 109.369   1
   3   6  -7 187.343 48.6359   1
   3   6  -7 275.548 59.1515   1
   3   6  -6 200.564 45.1152   1
   3   6  -6 154.899 51.1667   1
   3   6  -5 683.339 53.6778   1
   3   6  -5 748.893 62.0844   1
   3   6  -4 2260.98 95.2893   1
   3   6  -4 2230.20 108.185   1
   3   6  -3 121.688 58.4027   1
   3   6  -2  23.434 30.3141   1
   3   6  -1 -10.195 27.2507   1
  -3  -6   1-16.8041  12.518   1
   3   6   0 261.709 50.5743   1
  -3  -6   0 250.535 20.4747   1
   3   6   1 977.267 37.6757   1
  -3  -6  -1 851.508 23.5662   1
   3   6   2 2098.68 61.1716   1
  -3  -6  -2 1902.36 80.4415   1
  -3  -6  -2 2052.69 93.0621   1
   3   6   3 6504.84 199.425   1
  -3  -6  -3 5850.14 190.835   1
   3   6   410674.00 485.914   1
  -3  -6  -410474.20 406.483   1
   3   6   5 473.335 35.1063   1
  -3  -6  -5 444.044 32.6659   1
   3   6   6 2402.44 75.1674   1
  -3  -6  -6 2213.72 66.1945   1
   3   6   7 2052.77  68.959   1
  -3  -6  -7 1842.00 56.1098   1
   3   6   8 4.43964 15.8906   1
  -3  -6  -8 24.4155 23.5475   1
   3   6   9 58.6589 18.9751   1
  -3  -6  -9 90.3033 25.9439   1
   3   6  10 26.1632 19.8672   1
  -3  -6 -10 55.0317 17.1094   1
   3   6  11 1893.04 83.8457   1
  -3  -6 -11 1807.30 49.1017   1
   3   6  12 4.35663 37.0361   1
  -3  -6 -12 13.8275 32.8742   1
   3   6  13 2170.27 104.201   1
  -3  -6 -13 2277.35 67.2084   1
   3   6  14 7.67821  36.463   1
  -3  -6 -14 28.3013 19.9568   1
   3   6  15  42.861 36.6217   1
  -3  -6 -15 78.8031 34.7298   1
   3   6  16-9.33701 22.1255   1
  -3  -6 -16 73.2375 34.1445   1
  -3  -6 -17 9.36814 35.0961   1
  -3  -6 -18 43.4135 42.9248   1
  -3  -6 -18  15.178 36.2342   1
  -3  -6 -19-40.0436 37.2244   1
   3   7 -14 184.404 122.148   1
   3   7 -13 138.134  57.101   1
   3   7 -13 132.449 69.4483   1
   3   7 -12 718.896 122.869   1
   3   7 -12 805.703  151.19   1
   3   7 -11 28.5814  52.196   1
   3   7 -11 102.736  60.015   1
   3   7 -10 278.064 55.0372   1
   3   7 -10 229.269 65.0361   1
   3   7  -9  617.69 63.7361   1
   3   7  -9 630.024 76.2107   1
   3   7  -8 2251.09 119.353   1
   3   7  -8 2056.76 142.401   1
   3   7  -7 907.563 73.8673   1
   3   7  -7 974.009 87.6168   1
   3   7  -6 49.7738 42.9184   1
   3   7  -6 17.5712 53.2033   1
   3   7  -5-52.9404 40.7608   1
   3   7  -5 65.6039 46.4129   1
   3   7  -4 432.516 46.5463   1
   3   7  -4 388.615 92.7184   1
   3   7  -3  -35.41  61.101   1
   3   7  -3 54.3314 40.3987   1
   3   7  -2 889.276 50.6984   1
   3   7  -1 8588.08 484.424   1
  -3  -7   1 8530.02 286.107   1
   3   7   0 89.6319 26.9311   1
  -3  -7   0 50.0725 12.2481   1
   3   7   1 1869.04 60.1158   1
  -3  -7  -1 1916.20 43.4636   1
   3   7   2 4804.85 192.245   1
  -3  -7  -2 4091.37 118.492   1
   3   7   311586.00 504.908   1
  -3  -7  -311299.80 515.842   1
  -3  -7  -311354.40 491.579   1
   3   7   4 3311.63 106.843   1
  -3  -7  -4 2906.76 94.7603   1
  -3  -7  -4 3216.85 106.301   1
   3   7   5 3830.88 89.2576   1
  -3  -7  -5 3540.19 120.344   1
  -3  -7  -5 3753.43 86.5651   1
   3   7   6  13.169  14.082   1
  -3  -7  -6 19.2257 21.7678   1
   3   7   7 410.451 17.9999   1
  -3  -7  -7 390.062 26.1533   1
   3   7   8 1351.60 32.2665   1
  -3  -7  -8 1302.25 27.5969   1
   3   7   9 285.414 29.8579   1
  -3  -7  -9 279.258 23.9587   1
   3   7  10 8.95687 28.6263   1
  -3  -7 -10 0.98845 13.3435   1
   3   7  11 278.434 20.4097   1
  -3  -7 -11 232.499 28.8234   1
   3   7  12 710.348 43.8655   1
  -3  -7 -12 713.631  24.963   1
   3   7  13 97.3041 32.4965   1
  -3  -7 -13 132.405 17.3873   1
   3   7  14 1525.52 67.6744   1
  -3  -7 -14 1661.45 63.2517   1
   3   7  15 280.151 35.3759   1
  -3  -7 -15  282.66 30.7825   1
  -3  -7 -16 28.6987 45.9402   1
  -3  -7 -16 104.888 16.7698   1
  -3  -7 -17 21.6844 44.5194   1
  -3  -7 -17 -8.7769 15.6395   1
  -3  -7 -18 164.135 80.0503   1
  -3  -7 -18 73.9724 13.3044   1
   3   8 -13 24.2339 58.4199   1
   3   8 -13 59.4692  71.049   1
   3   8 -12-254.254 94.3265   1
   3   8 -12 95.9239 68.1047   1
   3   8 -11  818.31  128.29   1
   3   8 -11 742.851 153.078   1
   3   8 -10-3.28661 51.6123   1
   3   8 -10-93.8147 60.6746   1
   3   8  -9 1626.52 106.141   1
   3   8  -9 1761.52 206.626   1
   3   8  -8 1746.29 105.383   1
   3   8  -8 1732.63 123.284   1
   3   8  -7 524.427 61.1763   1
   3   8  -7 496.812 123.918   1
   3   8  -6 3263.09  165.32   1
   3   8  -6 3355.21 193.341   1
   3   8  -5 44.2502 43.2146   1
   3   8  -5 55.4301 88.8776   1
   3   8  -4 1948.16  150.65   1
   3   8  -4 1880.17 107.362   1
   3   8  -3 604.769  50.043   1
   3   8  -3 545.538 98.4502   1
   3   8  -2-2.55596 34.0119   1
   3   8  -2 47.2309 39.3359   1
   3   8  -1 71.5343 54.8409   1
  -3  -8   1 67.5723 11.5713   1
   3   8   0 771.721 42.2542   1
  -3  -8   0 845.575 36.2634   1
   3   8   1 136.562  25.391   1
  -3  -8  -1  132.81 16.2126   1
   3   8   2  921.52 36.1768   1
  -3  -8  -2 852.378 50.7635   1
   3   8   3 4743.55 181.316   1
  -3  -8  -3 4467.78 196.109   1
   3   8   4 208.031 32.5626   1
  -3  -8  -4 124.222 47.1117   1
   3   8   5 6349.06 189.552   1
  -3  -8  -5 6351.74 249.829   1
  -3  -8  -5 7239.60 250.868   1
   3   8   6 7291.16 261.694   1
  -3  -8  -6 6894.33  405.39   1
  -3  -8  -6 6966.08 248.188   1
   3   8   7 1773.51   53.60   1
  -3  -8  -7 1600.48 74.5893   1
  -3  -8  -7 1669.47 33.7337   1
   3   8   8 140.311 22.7715   1
  -3  -8  -8 148.152 39.1076   1
  -3  -8  -8 131.935 19.4269   1
   3   8   9 879.611 36.5142   1
  -3  -8  -9 974.167 62.0051   1
  -3  -8  -9 922.056 30.9281   1
   3   8  10 109.917 14.7856   1
  -3  -8 -10  118.31 45.2021   1
  -3  -8 -10 100.408 11.1946   1
   3   8  11 20.9735 13.6746   1
  -3  -8 -11 64.9172 45.0441   1
  -3  -8 -11 7.97332 18.8555   1
   3   8  12-10.6163 23.1843   1
  -3  -8 -12 29.6076 45.4167   1
  -3  -8 -12 14.1214 18.9228   1
   3   8  13 999.635 28.1735   1
  -3  -8 -13 1285.23  76.106   1
  -3  -8 -13 1039.21 37.6941   1
   3   8  14 173.822 16.2364   1
  -3  -8 -14 320.564 50.0935   1
  -3  -8 -14 190.859 14.3185   1
   3   8  15 26.8117 15.3053   1
  -3  -8 -15   99.37 46.7585   1
  -3  -8 -15 60.6277  21.177   1
  -3  -8 -16-49.5108 77.2507   1
  -3  -8 -16 15.9438 12.8486   1
  -3  -8 -17  147.13  84.511   1
  -3  -8 -18-33.0774 49.4002   1
  -3  -8 -19 112.614 53.1941   1
   3   9 -12-18.5962 58.9926   1
   3   9 -12 5.35351 70.3017   1
   3   9 -11 250.146 104.596   1
   3   9 -11 239.275 127.185   1
   3   9 -10 113.756 95.0256   1
   3   9 -10 121.052 63.8728   1
   3   9  -9 -25.543 85.4426   1
   3   9  -9 22.3308 59.8899   1
   3   9  -8 274.909 93.8029   1
   3   9  -8 140.421  113.59   1
   3   9  -7-60.1024 47.3826   1
   3   9  -7-50.5267 57.1086   1
   3   9  -6 123.704 87.8742   1
   3   9  -6 306.995 104.299   1
   3   9  -5 1296.08 130.422   1
   3   9  -5 1140.01 93.6931   1
   3   9  -4 716.086 100.911   1
   3   9  -4 393.133 117.015   1
   3   9  -3 1438.61 82.8263   1
   3   9  -3 1367.41 91.5411   1
   3   9  -2 706.387  52.081   1
   3   9  -2 699.643 58.7165   1
   3   9  -1  114.02 61.1498   1
   3   9  -1 147.069 40.6146   1
  -3  -9   1 155.361 24.9325   1
   3   9   0 993.806 50.7242   1
   3   9   0 981.693  56.535   1
  -3  -9   0 1020.56 44.9584   1
   3   9   1 1640.99 61.4712   1
  -3  -9  -1 1649.51 69.2877   1
   3   9   2 213.095 26.6071   1
  -3  -9  -2 163.232 21.9815   1
   3   9   3 2177.63 63.0445   1
  -3  -9  -3 2175.08  67.649   1
   3   9   4 257.829 21.2054   1
  -3  -9  -4  296.65 30.8164   1
   3   9   5 504.728 21.9795   1
  -3  -9  -5  501.24 38.2808   1
   3   9   6 2554.60 77.8696   1
  -3  -9  -6 2345.55 148.828   1
   3   9   7 1192.65 41.2659   1
  -3  -9  -7 1126.18  63.299   1
  -3  -9  -7 1172.20 37.8221   1
   3   9   8 101.777  21.177   1
  -3  -9  -8 109.796 40.5203   1
  -3  -9  -8 102.953   18.33   1
   3   9   9 3598.59 99.5589   1
  -3  -9  -9 4016.42 173.682   1
  -3  -9  -9 3644.19 91.4935   1
   3   9  10 2366.98 64.9799   1
  -3  -9 -10 2691.23 199.124   1
  -3  -9 -10 2388.92 42.8344   1
   3   9  11 422.618 22.8225   1
  -3  -9 -11 670.504 96.0234   1
  -3  -9 -11 460.087 18.6477   1
   3   9  12 327.759 20.9028   1
  -3  -9 -12  480.61 92.4979   1
  -3  -9 -12 337.063 16.8346   1
   3   9  13 245.912 19.4095   1
  -3  -9 -13 319.678 90.6361   1
  -3  -9 -13 252.482 10.3245   1
   3   9  14 48.4036 10.6201   1
  -3  -9 -14  111.98 48.3232   1
  -3  -9 -15 195.343 50.9477   1
  -3  -9 -15 100.149  15.229   1
  -3  -9 -16 29.6324  49.388   1
  -3  -9 -17  25.572 50.7576   1
  -3  -9 -18 31.5766 52.3941   1
   3  10 -11 233.344 66.3655   1
   3  10 -11 289.559 80.2422   1
   3  10 -10-36.9575 53.5233   1
   3  10 -10 4.66697 114.347   1
   3  10  -9 53.5692 91.6752   1
   3  10  -9 40.6689 61.4651   1
   3  10  -8 36.5433 85.5231   1
   3  10  -8 36.6359 59.3709   1
   3  10  -7 213.214 89.2907   1
   3  10  -7 167.845 62.7958   1
   3  10  -6 11.8936 79.3517   1
   3  10  -6-79.8074 54.6529   1
   3  10  -5 409.037 53.6544   1
   3  10  -5  328.48 104.991   1
   3  10  -4 371.514 52.9033   1
   3  10  -4 411.664 58.8187   1
   3  10  -3 6833.29 351.082   1
   3  10  -3 6597.54  367.25   1
   3  10  -2-141.939 72.5643   1
   3  10  -2-26.6041 46.3975   1
   3  10  -1 2963.64 122.673   1
   3  10  -1 2804.89 133.328   1
   3  10   0 4224.98 171.046   1
   3  10   0 4146.82 273.592   1
  -3 -10   0 4454.35 126.264   1
   3  10   1 1781.43 69.7233   1
   3  10   1 1667.84 78.1945   1
  -3 -10  -1 1869.23 79.9315   1
   3  10   2 536.289 35.0467   1
  -3 -10  -2 585.636 31.2901   1
   3  10   3 1246.23 44.1032   1
  -3 -10  -3 1231.44 45.9521   1
   3  10   4 1422.51 71.2257   1
  -3 -10  -4 1631.50 60.5585   1
   3  10   5-12.0428 27.6466   1
  -3 -10  -5 56.3586 30.2165   1
   3  10   6 49.9982 24.5445   1
  -3 -10  -6 108.916 33.1101   1
   3  10   7 23.0555 21.1433   1
  -3 -10  -7 120.329  35.967   1
   3  10   8 440.304 23.3988   1
  -3 -10  -8 408.067 48.4342   1
   3  10   9 49.6684 9.11413   1
  -3 -10  -9 111.077 74.3055   1
   3  10  10 346.662 16.6256   1
  -3 -10 -10 305.164 89.1816   1
  -3 -10 -10  315.43 8.63577   1
   3  10  11 746.581 17.7808   1
  -3 -10 -11 854.613 113.039   1
  -3 -10 -11  770.53 16.4486   1
  -3 -10 -12 386.949 51.2005   1
  -3 -10 -12 168.723 8.55434   1
  -3 -10 -13 17.6227  48.184   1
  -3 -10 -13 8.42774 6.47758   1
  -3 -10 -15 8.75745 84.7685   1
  -3 -10 -16 223.856 93.1091   1
  -3 -10 -17-24.2363 52.0922   1
  -3 -10 -18 59.6835 54.6673   1
   3  11 -10 -41.776 57.8096   1
   3  11 -10-17.0434 70.9144   1
   3  11  -9 182.195 57.9538   1
   3  11  -9 36.5564 114.119   1
   3  11  -8 363.313 60.4561   1
   3  11  -8 328.992 69.5441   1
   3  11  -7 83.7231 51.2718   1
   3  11  -7 131.581 58.1206   1
   3  11  -6 18.5024 45.6317   1
   3  11  -6-75.5999 92.9386   1
   3  11  -5 78.9162 45.7675   1
   3  11  -5 61.2836 52.3843   1
   3  11  -4 43.2101 41.1319   1
   3  11  -4 35.2934 80.3624   1
   3  11  -3-7.97471 38.4732   1
   3  11  -3-10.3776 43.9271   1
   3  11  -2 409.619 80.4914   1
   3  11  -2 534.001 53.9421   1
   3  11  -1 1649.56 80.7397   1
   3  11  -1 1687.31 139.616   1
   3  11   0 1278.97 107.286   1
   3  11   0 1275.57 73.0136   1
  -3 -11   0 1385.77 40.0245   1
   3  11   1 1289.54 61.0342   1
   3  11   1 1238.14 66.3501   1
  -3 -11  -1 1481.33 70.9188   1
   3  11   2  68.639  29.232   1
   3  11   2 80.6536 54.4523   1
  -3 -11  -2 129.254 25.9238   1
   3  11   3 1296.31 49.3029   1
   3  11   3 1210.01 53.0273   1
  -3 -11  -3 1420.46 54.1573   1
   3  11   4 553.084 28.4937   1
   3  11   4 528.777 31.0683   1
  -3 -11  -4 572.659 37.0731   1
   3  11   5 38.0311 16.9925   1
  -3 -11  -5 30.2106 30.2758   1
   3  11   6 29.1601 14.0982   1
  -3 -11  -6 81.3724 57.1449   1
   3  11   7 54.5721 20.2703   1
  -3 -11  -7 37.1345 36.5611   1
   3  11   8 280.703 19.3308   1
  -3 -11  -8 327.243 43.4734   1
   3  11   9 346.509  15.183   1
  -3 -11  -9 383.017 82.2194   1
  -3 -11 -10 648.566 60.2571   1
  -3 -11 -11 694.667 64.8589   1
  -3 -11 -12 76.4885 47.6722   1
  -3 -11 -13 176.092 52.1922   1
  -3 -11 -14  63.813 50.3634   1
  -3 -11 -15  240.26 57.2091   1
  -3 -11 -16 64.7304 53.0352   1
  -3 -11 -17 64.2603 57.2137   1
   3  12  -9 9.19053  57.533   1
   3  12  -9 49.8506 66.3683   1
   3  12  -8 18.0206 54.8947   1
   3  12  -8 122.529 105.525   1
   3  12  -7 91.7084 52.9265   1
   3  12  -7 107.426  60.316   1
   3  12  -6 188.263   53.79   1
   3  12  -6 294.444 58.3903   1
   3  12  -5 3.36287 45.0802   1
   3  12  -5-17.3744  86.957   1
   3  12  -4 451.991 83.3206   1
   3  12  -4 340.706  57.034   1
   3  12  -3 126.975 67.5305   1
   3  12  -3 89.8382 46.8306   1
   3  12  -2 72.8887 36.6831   1
   3  12  -2   6.033 69.6241   1
   3  12  -1 491.528 43.3986   1
   3  12  -1 420.824 47.8216   1
   3  12   0 534.232  41.065   1
   3  12   0 547.615 46.9016   1
  -3 -12   0 607.347 40.3233   1
   3  12   1 0.16359 27.6039   1
   3  12   1-19.0381 31.4422   1
  -3 -12  -1-23.7872 20.5315   1
   3  12   2 381.712 32.7531   1
   3  12   2 418.961 58.5602   1
  -3 -12  -2 491.563 29.2229   1
   3  12   3 849.157 37.3023   1
   3  12   3 819.383 40.5589   1
  -3 -12  -3 938.524 40.9808   1
   3  12   4 1476.98 46.4244   1
   3  12   4 1306.12 49.5915   1
  -3 -12  -4 1581.55 61.1368   1
   3  12   5 814.808 44.4912   1
   3  12   5 800.299 31.4615   1
  -3 -12  -5  894.45 46.6605   1
   3  12   6-15.9815 23.2736   1
   3  12   6 11.2014 15.0222   1
  -3 -12  -6 51.9733 52.1056   1
   3  12   7 41.3341 11.9196   1
   3  12   7 24.2181 12.7013   1
  -3 -12  -7 52.7758 34.7476   1
   3  12   8 1369.03 26.1383   1
  -3 -12  -8 1595.74 117.977   1
   3  12   9 53.6231 6.14308   1
   3  12   9 64.7174 6.78237   1
  -3 -12  -9 59.1617 42.6444   1
  -3 -12 -10 1587.12 93.6158   1
  -3 -12 -11 90.5245  48.665   1
  -3 -12 -12 293.483 56.3038   1
  -3 -12 -13 57.2111 53.1006   1
  -3 -12 -14 174.709 95.9459   1
  -3 -12 -15 -11.819 55.6682   1
  -3 -12 -16 114.422 59.8095   1
  -3 -12 -17 1.55187 57.1576   1
   3  13  -8-71.6776 95.1955   1
   3  13  -8 5.17928 62.8099   1
   3  13  -7 133.646 90.2853   1
   3  13  -7 14.1982 103.455   1
   3  13  -6 13.3531 81.8901   1
   3  13  -6 40.1722 52.3679   1
   3  13  -5 252.214 85.2881   1
   3  13  -5 260.524  56.681   1
   3  13  -4-14.9227 42.8693   1
   3  13  -4 18.0063 46.6742   1
   3  13  -3 69.5147 41.5271   1
   3  13  -3 167.881 78.0731   1
   3  13  -2 698.585 53.4497   1
   3  13  -2 688.514 59.9848   1
   3  13  -1-44.5091 56.6243   1
   3  13  -1 33.4543  37.764   1
   3  13   0 782.174 46.6482   1
   3  13   0 766.344 52.4603   1
   3  13   1 529.108 61.3296   1
   3  13   1 430.175  67.348   1
  -3 -13  -1 524.504 27.0469   1
   3  13   2 271.822 28.9556   1
   3  13   2  248.31 54.4886   1
  -3 -13  -2  281.33 45.4529   1
   3  13   3-0.15981  21.948   1
   3  13   3-14.4808 24.5267   1
  -3 -13  -3  -26.75 41.1906   1
   3  13   4 56.1462 19.5495   1
   3  13   4 79.9356  22.357   1
  -3 -13  -4 97.6395 27.7668   1
   3  13   5   31.09  26.785   1
   3  13   5  0.8141  18.349   1
  -3 -13  -5 -44.204 28.6309   1
   3  13   6 129.393 24.1927   1
   3  13   6 70.6059 26.6209   1
  -3 -13  -6 111.247 52.8125   1
   3  13   7 41.6078 19.0294   1
   3  13   7 18.8444 20.6846   1
  -3 -13  -7-34.8008 32.3441   1
   3  13   8 49.2236  13.846   1
   3  13   8  29.424 9.93081   1
  -3 -13  -8 28.1562 63.6054   1
   3  13   9 215.884 11.0579   1
  -3 -13  -9 456.472 45.8445   1
  -3 -13 -10  12.188 42.2217   1
  -3 -13 -12-10.0383 83.4935   1
  -3 -13 -13 129.227 54.0748   1
  -3 -13 -14 745.925  78.404   1
  -3 -13 -15-35.7824 57.6282   1
  -3 -13 -16-21.6276 58.7482   1
   3  14  -6 235.316 57.3657   1
   3  14  -6  375.76 64.9713   1
   3  14  -5 28.6203 47.0072   1
   3  14  -5-5.01677 86.7066   1
   3  14  -4 67.6253 41.6772   1
   3  14  -4 1.65642  46.982   1
   3  14  -3 102.791 40.6362   1
   3  14  -3 21.7958  44.287   1
   3  14  -2 36.9971 62.0464   1
   3  14  -2 32.2786 39.6172   1
   3  14  -1 21.7609 33.4359   1
   3  14  -1-40.8802 60.0141   1
   3  14   0 116.247  32.153   1
   3  14   0 106.187 61.0081   1
   3  14   1 304.864 33.8669   1
   3  14   1 331.979 37.5702   1
  -3 -14  -1  337.75 40.8456   1
   3  14   2 96.4168  44.147   1
   3  14   2 105.623 29.8327   1
  -3 -14  -2 137.418 41.2184   1
   3  14   3 236.909 41.9408   1
   3  14   3 222.475 28.4148   1
  -3 -14  -3 195.636  46.783   1
   3  14   4 261.254 36.8802   1
   3  14   4 236.228 25.4273   1
  -3 -14  -4 257.245 52.5807   1
   3  14   5 273.411 31.5825   1
   3  14   5 256.387 21.6209   1
  -3 -14  -5  235.38 34.3491   1
   3  14   6 520.708 32.9106   1
   3  14   6 518.283 36.3875   1
  -3 -14  -6 663.968 44.6319   1
   3  14   7 593.678 29.3419   1
  -3 -14  -7  875.89 50.4933   1
   3  14   8-1.65258 13.5395   1
   3  14   8  17.918 14.7007   1
  -3 -14  -8 42.5523 34.8924   1
  -3 -14  -9 117.367 39.7971   1
  -3 -14 -11-6.35614 45.2808   1
  -3 -14 -12 52.7529 49.9106   1
  -3 -14 -13 185.577 56.6907   1
  -3 -14 -14 87.1429 56.4029   1
  -3 -14 -15-52.0691  58.573   1
   3  15  -4 41.9745 75.6565   1
   3  15  -4 61.1931 49.9645   1
   3  15  -3 43.6888 69.8368   1
   3  15  -3 64.9299  77.211   1
   3  15  -2 249.083 43.4741   1
   3  15  -2 256.059 77.4351   1
   3  15  -1 26.8453 33.1659   1
   3  15  -1 12.6385   36.66   1
   3  15   0-62.8448 51.5314   1
   3  15   0-3.63008 33.0904   1
   3  15   1 73.9282 28.7144   1
   3  15   1 84.9567 30.4676   1
   3  15   2 4.16352 24.1121   1
   3  15   2-35.4861 26.0607   1
  -3 -15  -2 33.6071 21.7777   1
   3  15   3 26.9372 36.3909   1
   3  15   3-13.0708 23.8448   1
  -3 -15  -3  70.969 25.4568   1
   3  15   4 30.0576 31.9024   1
   3  15   4 37.6771 21.0475   1
  -3 -15  -4  52.453  45.757   1
   3  15   5 221.131 19.7096   1
   3  15   5 220.187 21.3359   1
  -3 -15  -5 213.505 55.2117   1
   3  15   6 254.046 27.9578   1
   3  15   6 300.916 30.1575   1
  -3 -15  -6 422.258  38.866   1
   3  15   7 103.095 20.1323   1
   3  15   7 109.685 13.3526   1
  -3 -15  -7 224.925 62.6292   1
  -3 -15  -8 142.597  40.311   1
  -3 -15 -10 158.053 43.0088   1
  -3 -15 -11 75.5476 45.1675   1
  -3 -15 -12 104.416 49.1974   1
  -3 -15 -13-72.7996  53.369   1
   3  16  -2 243.653 44.4277   1
   3  16  -2  355.03 49.5554   1
   3  16  -1 58.7432 58.8177   1
   3  16  -1-53.8912 39.4454   1
   3  16   0 368.687 38.9065   1
   3  16   0 306.931 42.9702   1
   3  16   1 171.355 34.0431   1
   3  16   2-14.1983 25.2442   1
   3  16   2 77.2917 27.4078   1
  -3 -16  -2 11.4915 23.4381   1
   3  16   3-0.18118 21.6284   1
   3  16   3-14.3061  23.701   1
  -3 -16  -3 0.92208 24.4086   1
   3  16   4 66.0393 19.6228   1
   3  16   4 46.6528 21.9047   1
  -3 -16  -4 91.7147 29.4448   1
   3  16   5 9.05771 16.6102   1
   3  16   5 71.4897 18.5232   1
  -3 -16  -5-0.20292 51.1637   1
  -3 -16  -6 239.014  37.734   1
  -3 -16  -7 53.7159 36.9866   1
  -3 -16  -8  293.17 44.9963   1
  -3 -16 -10 34.8172  44.672   1
  -3 -16 -11 94.5841 48.8108   1
   3  17   2 124.137 44.9588   1
   3  17   2 96.0608 48.7769   1
   3  17   3 33.6286 36.8825   1
   3  17   3-3.88591 40.3408   1
  -3 -17  -3 14.3921 26.8579   1
   3  17   4 89.9616 32.1229   1
   3  17   4 44.9733 21.9485   1
  -3 -17  -4 24.4031 28.6152   1
  -3 -17  -5 92.5391 34.0756   1
  -3 -17  -6 42.9415  57.648   1
  -3 -17  -7 83.8111 39.0385   1
  -3 -17  -8-14.0554 66.0463   1
  -4  14   4 47.7983 53.9779   1
  -4  14   3 12.9366 51.9783   1
  -4  14   2 158.249 89.1547   1
  -4  14   1-34.0413 47.0977   1
  -4  14   0 21.1574 43.9515   1
  -4  14   0-9.42864 18.7181   1
  -4  14   0 1.62308 30.0625   1
   4 -13  -8-46.5264 103.454   1
   4 -13  -7-2.93154 53.8922   1
   4 -13  -6  58.567 52.5464   1
   4 -13  -5 185.755 92.3408   1
  -4  13   5 77.3019 56.4861   1
   4 -13  -4  138.89 50.4798   1
  -4  13   4 -46.713 53.3328   1
  -4  13   3 172.565 54.3721   1
  -4  13   2 113.107 51.3938   1
  -4  13   1 559.786 97.0143   1
  -4  13   1 394.423 21.8602   1
  -4  13   0  54.535 43.5421   1
  -4  13   0 45.2602 19.4961   1
  -4  13  -1 406.923 51.3324   1
  -4  13  -1 286.446 44.9988   1
  -4  13  -2 102.855 68.6835   1
  -4  13  -2 30.8774 25.6353   1
  -4  13  -3  19.792 38.4345   1
  -4  13  -3 36.0024 48.7936   1
  -4  13  -4-11.0513  36.462   1
  -4  13  -4-13.3556 33.4089   1
  -4  13  -5 54.1814 33.8686   1
  -4  13  -5  32.745 36.5982   1
   4 -12 -10-25.0758 106.483   1
   4 -12  -9 98.6454 63.2298   1
   4 -12  -8 53.1047 59.1423   1
   4 -12  -7 86.1134 96.2871   1
   4 -12  -6 66.6997 50.3965   1
  -4  12   6 49.1307 54.3605   1
   4 -12  -5 121.747 50.6913   1
  -4  12   5 179.031 55.0294   1
   4 -12  -4 71.9105  83.525   1
  -4  12   4 155.395 88.5276   1
   4 -12  -3 250.497 50.2482   1
  -4  12   3 175.768 51.8591   1
  -4  12   3 124.689 15.3738   1
  -4  12   2 632.261 98.7877   1
  -4  12   2 427.402 28.4611   1
  -4  12   1 470.977 56.1875   1
  -4  12   1 366.474 21.1014   1
  -4  12   0 256.523 77.6144   1
  -4  12   0 162.512 22.1502   1
  -4  12  -1 34.9277 42.1345   1
  -4  12  -1 20.6363 22.6983   1
  -4  12  -2 70.7569 41.0715   1
  -4  12  -3 186.451 68.1705   1
  -4  12  -3 129.237 31.5736   1
  -4  12  -4 30.1149 35.0681   1
  -4  12  -4-11.8061 33.0218   1
  -4  12  -5-8.24568 33.4127   1
  -4  12  -5-29.2538 60.2998   1
  -4  12  -6-0.47588 52.9844   1
  -4  12  -6-7.71176 66.5138   1
  -4  12  -7 52.2083 48.7418   1
  -4  12  -7 57.4011 44.8545   1
   4 -11 -11 23.1118 57.9721   1
   4 -11 -10-40.2188 56.8565   1
   4 -11  -9 35.0412  93.853   1
   4 -11  -8 10.2635 95.7913   1
   4 -11  -7 67.6846 55.1654   1
   4 -11  -6-105.047 53.4902   1
  -4  11   6-89.4343 54.9759   1
   4 -11  -5 5.36434 48.3286   1
  -4  11   5-47.6922   85.77   1
   4 -11  -4 62.3764 44.7688   1
  -4  11   4-27.8213 48.3596   1
  -4  11   4 3.39666  4.2239   1
   4 -11  -3 32.3851 45.1881   1
  -4  11   3-109.715 77.6256   1
  -4  11   3 0.36212 14.2673   1
   4 -11  -2 44.6883 42.6447   1
  -4  11   2-2.84526 44.4526   1
  -4  11   2-32.1749 12.4851   1
  -4  11   1 277.238 81.5345   1
  -4  11   1 209.674 30.2573   1
  -4  11   0 536.803  54.924   1
  -4  11   0 388.654 41.8278   1
  -4  11  -1 11.5957 69.7867   1
  -4  11  -1 15.7615 22.8565   1
  -4  11  -2 1558.43 79.7155   1
  -4  11  -2 1226.53 57.6105   1
  -4  11  -3 292.822 43.4212   1
  -4  11  -3 175.454 34.1838   1
  -4  11  -4  33.668  58.334   1
  -4  11  -4 98.4789 56.9215   1
  -4  11  -5 105.086 33.1984   1
  -4  11  -5 85.3182 37.7238   1
  -4  11  -6 50.8332 30.9143   1
  -4  11  -6 123.325  40.878   1
  -4  11  -7 384.294 56.4027   1
  -4  11  -7 214.345 51.1722   1
  -4  11  -8 25.1211 48.9421   1
  -4  11  -8  78.576 47.8395   1
  -4  11  -9 119.548 29.0531   1
  -4  11  -9  32.455 53.8984   1
   4 -10 -11-12.8583 92.1975   1
   4 -10 -10 62.6915 54.4728   1
   4 -10  -9 266.629 59.1573   1
   4 -10  -8 18.7723 50.7886   1
   4 -10  -7 110.832 92.1395   1
   4 -10  -6 387.729 61.7924   1
  -4  10   6 362.229 61.6281   1
   4 -10  -5 1079.78 86.9994   1
  -4  10   5 1118.68  84.068   1
   4 -10  -4 85.7737 47.7987   1
  -4  10   4  101.78 49.2326   1
  -4  10   4  87.215  8.6537   1
  -4  10   4 71.6609 8.17137   1
   4 -10  -3 687.345 62.3041   1
  -4  10   3 697.463 63.3902   1
   4 -10  -2  234.44 46.2779   1
  -4  10   2 232.732 78.4791   1
  -4  10   2 138.085 22.2457   1
  -4  10   1 115.732 44.2247   1
  -4  10   1 82.8391 27.7502   1
  -4  10   0 47.0807 70.6701   1
  -4  10   0 21.5818 33.3935   1
  -4  10  -1 263.004  44.411   1
  -4  10  -1 181.988 44.6467   1
  -4  10  -2 1395.03 108.691   1
  -4  10  -2 975.189 48.0283   1
  -4  10  -3 442.823 45.4764   1
  -4  10  -3 513.114 65.1911   1
  -4  10  -4 30.3073 33.8432   1
  -4  10  -4 92.4828 33.6794   1
  -4  10  -5 321.459 63.3017   1
  -4  10  -5 213.925 41.2642   1
  -4  10  -6 208.148 35.7603   1
  -4  10  -6 158.902 43.2087   1
  -4  10  -7 67.4473 53.5316   1
  -4  10  -7  67.345 45.0232   1
  -4  10  -8 423.556 61.8178   1
  -4  10  -8 406.118 95.7866   1
  -4  10  -9 41.8933 28.4894   1
  -4  10  -9 145.114 87.4499   1
  -4  10 -10 137.426 29.0596   1
  -4  10 -10 137.215 59.2247   1
  -4  10 -11 74.3042 26.2085   1
  -4  10 -11 51.5564 60.8501   1
   4  -9 -13  233.08 58.6133   1
   4  -9 -12 -4.4069 51.4685   1
   4  -9 -11 40.2748   50.15   1
   4  -9 -10-69.2166 86.3911   1
   4  -9  -9 80.0892 85.0573   1
   4  -9  -8 135.672 52.6667   1
   4  -9  -7 669.569 67.6699   1
  -4   9   7 652.594 69.8816   1
   4  -9  -6 61.9385 85.9713   1
  -4   9   6 98.6068 87.3755   1
   4  -9  -5 1714.67 109.815   1
  -4   9   5 1822.65 108.262   1
   4  -9  -4 130.448 87.8939   1
  -4   9   4  145.90 82.7435   1
   4  -9  -3 430.577 55.1098   1
  -4   9   3 534.143 55.7647   1
   4  -9  -2 661.032 94.7159   1
  -4   9   2  542.37 57.6999   1
  -4   9   2 457.123 28.3202   1
   4  -9  -1 468.257 51.5015   1
  -4   9   1 546.182 89.7414   1
  -4   9   1 317.499 34.6849   1
   4  -9   0 274.578 28.8229   1
  -4   9   0 308.104 48.6052   1
  -4   9   0 306.228 41.0164   1
   4  -9   1 2890.01  105.64   1
  -4   9  -1 3516.26 204.881   1
  -4   9  -1 2637.65 136.954   1
   4  -9   2 34.7962 31.2248   1
  -4   9  -2 36.8128 36.3979   1
  -4   9  -2-13.2162 27.5469   1
   4  -9   3 106.365 36.0726   1
  -4   9  -3 77.0561 64.7455   1
  -4   9  -3 126.733 53.6591   1
   4  -9   4 144.946 39.1486   1
  -4   9  -4 126.748 35.5334   1
  -4   9  -4 53.3185 34.9235   1
   4  -9   5 12.4878 40.1582   1
  -4   9  -5 8.85383 56.3399   1
  -4   9  -5 70.8433  36.415   1
   4  -9   6  67.273   45.69   1
  -4   9  -6 100.571 32.7938   1
  -4   9  -6 179.367 69.9836   1
   4  -9   7 66.0698 46.8585   1
  -4   9  -7-0.69766 30.5317   1
  -4   9  -7 154.306  70.873   1
  -4   9  -8 234.831 54.9557   1
  -4   9  -8 238.944 87.5245   1
  -4   9  -9 31.6783 28.8254   1
  -4   9  -9 12.8222 84.6688   1
  -4   9 -10-8.46896 27.3551   1
  -4   9 -10-37.0762 91.1567   1
  -4   9 -11 151.036 29.0479   1
  -4   9 -11  98.468 105.573   1
  -4   9 -12 42.3655 41.7049   1
  -4   9 -12-20.0609 107.749   1
   4  -8 -14 45.5155  50.807   1
   4  -8 -13-100.476 50.0027   1
   4  -8 -12 226.282 53.7202   1
   4  -8 -11 25.8448 46.2748   1
   4  -8 -10 4.56198 46.9935   1
   4  -8  -9 124.675 48.8164   1
   4  -8  -8 251.582 88.9611   1
   4  -8  -7 100.028 47.7808   1
  -4   8   7 56.8091 50.6967   1
   4  -8  -6 109.545 50.5668   1
  -4   8   6 320.477 87.2792   1
   4  -8  -5 231.656 88.4398   1
  -4   8   5 110.671 49.9543   1
   4  -8  -4  254.97 55.4371   1
  -4   8   4 327.527 52.6385   1
   4  -8  -3 179.371 74.9144   1
  -4   8   3 52.1158 79.5647   1
  -4   8   3 41.3998 15.5412   1
   4  -8  -2-36.5347 41.6775   1
   4  -8  -2 66.9382 27.4293   1
  -4   8   2 32.4565 44.1704   1
  -4   8   2 24.5874 12.3329   1
   4  -8  -1-35.8188 41.7139   1
   4  -8  -1 36.3648  20.119   1
  -4   8   1 118.571 41.7189   1
  -4   8   1 6.53268 16.7316   1
   4  -8   0 26.7308 24.6061   1
  -4   8   0 10.3146 68.4987   1
  -4   8   0 29.3114 36.7271   1
   4  -8   1 1079.87 86.0893   1
  -4   8  -1 1299.04 69.5326   1
  -4   8  -1 978.009 75.5227   1
   4  -8   2 146.443 35.9077   1
  -4   8  -2 234.988 42.9406   1
  -4   8  -2 95.4031 32.2404   1
   4  -8   3-6.91803 37.7765   1
  -4   8  -3-41.1896 65.7313   1
  -4   8  -3-17.9485 56.5006   1
   4  -8   4 55.4065 41.4124   1
  -4   8  -4 129.255 37.2804   1
  -4   8  -4  86.308 37.0784   1
   4  -8   5 1767.79 96.0974   1
  -4   8  -5 2200.77 127.798   1
  -4   8  -5 1574.39 87.1444   1
   4  -8   6 286.798 52.1548   1
  -4   8  -6 333.557 38.2162   1
  -4   8  -6 319.205 80.4132   1
   4  -8   7  487.94 98.7085   1
  -4   8  -7 372.458 38.4137   1
  -4   8  -7 350.897 88.8747   1
   4  -8   8-15.5889 50.1765   1
  -4   8  -8 37.3521 51.3149   1
  -4   8  -8-16.2263 46.2106   1
   4  -8   9  141.80 56.8089   1
  -4   8  -9 161.995 32.2536   1
  -4   8  -9  85.469 52.8179   1
   4  -8  10-44.3931 56.5524   1
  -4   8 -10-4.81124 28.0305   1
  -4   8 -10-30.4736 52.9846   1
  -4   8 -11 246.667 52.5695   1
  -4   8 -11  99.113 106.306   1
  -4   8 -12  215.86 48.6389   1
  -4   8 -12 423.505 116.541   1
  -4   8 -13-29.4109 40.0639   1
  -4   8 -13  104.15 109.101   1
   4  -7 -11 151.796 80.4248   1
   4  -7 -10  60.124 45.1783   1
   4  -7  -9 21.2988 44.4313   1
   4  -7  -8 317.066 52.3765   1
   4  -7  -7 906.712 111.382   1
  -4   7   7  716.36 70.2355   1
   4  -7  -6 315.435 51.2363   1
  -4   7   6 187.841 51.4827   1
   4  -7  -5-15.1851 44.0221   1
  -4   7   5-7.41186 78.5059   1
   4  -7  -4 124.187 47.6861   1
   4  -7  -4 86.0687 12.8916   1
  -4   7   4  152.88 44.6012   1
  -4   7   4 94.6784 6.13212   1
   4  -7  -3  31.384  44.379   1
   4  -7  -3-14.7562 12.0677   1
  -4   7   3 61.9382 42.5383   1
  -4   7   3-11.0994 14.5071   1
   4  -7  -2 124.619 41.7504   1
   4  -7  -2 76.6081 30.2015   1
  -4   7   2  171.71 75.7511   1
  -4   7   2  155.25 22.0658   1
   4  -7  -1 844.418 60.4927   1
   4  -7  -1 811.799  53.778   1
  -4   7   1 911.167 102.736   1
  -4   7   1 738.066  43.152   1
   4  -7   0 9.24245 44.2523   1
  -4   7   0-49.8151 38.4532   1
  -4   7   0 36.1262 21.1077   1
   4  -7   1 1625.30 102.151   1
  -4   7  -1 1719.92 82.2331   1
  -4   7  -1 1442.85 55.8377   1
   4  -7   2 965.699 89.8987   1
  -4   7  -2 937.284 47.3961   1
   4  -7   3 1110.45 66.7229   1
  -4   7  -3 1316.09 67.0381   1
  -4   7  -3 1088.59 96.0801   1
   4  -7   4 532.131 52.9896   1
  -4   7  -4 574.276 46.3082   1
  -4   7  -4 405.086 47.4332   1
   4  -7   5 282.008 51.5021   1
  -4   7  -5 265.459 67.7524   1
  -4   7  -5 174.076 77.5756   1
   4  -7   6 1413.85 156.574   1
  -4   7  -6 1662.07  76.192   1
  -4   7  -6 1275.63 143.403   1
   4  -7   7 555.617 64.2356   1
  -4   7  -7 644.826 76.7984   1
  -4   7  -7 620.912 61.0341   1
   4  -7   8 128.831 54.1068   1
  -4   7  -8 144.302 31.6802   1
  -4   7  -8 161.431 50.3393   1
   4  -7   9   93.65 89.8214   1
  -4   7  -9 55.8394 28.1718   1
  -4   7  -9 2.43473 49.9775   1
   4  -7  10 703.116 80.4586   1
  -4   7 -10 719.852 65.4064   1
  -4   7 -10 617.537 76.1096   1
   4  -7  11 15.4699 59.2965   1
  -4   7 -11 45.2484 47.3611   1
  -4   7 -11 0.66563 55.9737   1
  -4   7 -12 306.737 33.1791   1
  -4   7 -12 383.778 117.045   1
  -4   7 -13-9.84042 26.7121   1
  -4   7 -13-57.8023 106.525   1
  -4   7 -14 36.6954   26.27   1
  -4   7 -14-26.6633 67.8289   1
   4  -6 -15 126.863 44.0648   1
   4  -6 -14 37.2149 42.2317   1
   4  -6 -13 107.237 42.7575   1
   4  -6 -12 92.8313 42.2635   1
   4  -6 -11 21.1867 41.3473   1
   4  -6 -10-13.7214 41.2778   1
   4  -6  -8 1264.75 80.3969   1
   4  -6  -7 582.226 57.4437   1
  -4   6   7 573.585 60.2821   1
   4  -6  -6 276.487 83.1771   1
  -4   6   6 316.793 51.7819   1
   4  -6  -5 435.843  52.006   1
  -4   6   5 431.969  90.349   1
   4  -6  -4 12.5488 72.6472   1
   4  -6  -4 51.2577 14.9972   1
  -4   6   4 109.833 42.3646   1
  -4   6   4 63.9034 10.8946   1
   4  -6  -3 1239.72 75.5277   1
   4  -6  -3 1113.68 41.7625   1
  -4   6   3 1370.87 73.4418   1
   4  -6  -2 7.99191 38.2426   1
   4  -6  -2 12.0016 27.9309   1
  -4   6   2-18.4682 39.5966   1
  -4   6   2 47.1234 20.7951   1
   4  -6  -1 784.188 91.6512   1
   4  -6  -1 673.981 48.3571   1
  -4   6   1 723.585 51.6505   1
  -4   6   1 651.707 24.6509   1
   4  -6   0 140.661 25.8722   1
  -4   6   0 184.868 40.1282   1
  -4   6   0 154.966 36.9378   1
   4  -6   1 46.4723 27.8974   1
  -4   6  -1 44.5908 63.5404   1
  -4   6  -1 38.0058 24.0678   1
   4  -6   2 347.105 65.9952   1
  -4   6  -2 352.133  41.883   1
  -4   6  -2 272.698 33.4776   1
   4  -6   3 247.112 41.7938   1
  -4   6  -3 222.751 39.6516   1
  -4   6  -3 256.107 62.0801   1
   4  -6   4 233.209  44.066   1
  -4   6  -4 135.582 38.4796   1
  -4   6  -4 143.303 39.2649   1
   4  -6   5 125.082 82.3003   1
  -4   6  -5 151.094 63.8963   1
  -4   6  -5 176.013 71.9411   1
   4  -6   6 152.961 50.2778   1
  -4   6  -6 171.988 34.1813   1
  -4   6  -6 121.168 80.4971   1
   4  -6   7 409.047 60.7114   1
  -4   6  -7 350.201 62.9604   1
  -4   6  -7 340.951 55.5268   1
   4  -6   8 96.3076  90.115   1
  -4   6  -8-78.7131 31.4537   1
  -4   6  -8  -11.53 47.9013   1
   4  -6   9 454.298 63.7411   1
  -4   6  -9  435.38 38.7438   1
  -4   6  -9 375.963 63.2219   1
   4  -6  10 575.631 73.7392   1
  -4   6 -10 581.419 69.7962   1
   4  -6  11 285.524 118.951   1
  -4   6 -11  402.92 66.3804   1
   4  -6  12 51.1554 58.7965   1
  -4   6 -12-1.59168 58.8828   1
   4  -6  13 420.754 77.8611   1
  -4   6 -13  441.27 129.465   1
  -4   6 -14 97.1635 112.839   1
  -4   6 -15-23.4306 68.3239   1
   4  -5 -15 82.9874 40.0454   1
   4  -5 -14 -1.3653 37.8924   1
   4  -5 -13 22.2739 37.6964   1
   4  -5 -12 52.8914 38.5787   1
   4  -5 -12 71.7886 13.8146   1
   4  -5 -12 66.6384 16.9921   1
   4  -5 -11 345.706 44.2389   1
   4  -5 -11  267.08 15.3411   1
   4  -5 -11 295.262 18.9004   1
   4  -5 -10 121.368 37.1034   1
   4  -5 -10  29.242 11.7084   1
   4  -5 -10 32.8847 14.6155   1
   4  -5  -9-3.69223 38.7184   1
   4  -5  -9 10.2725 10.6032   1
   4  -5  -9 12.5956 13.0953   1
   4  -5  -8  203.69 70.9602   1
   4  -5  -8 51.0286 6.32611   1
   4  -5  -7  35.396  40.449   1
   4  -5  -7 42.7051 10.2805   1
   4  -5  -7 40.6956 11.0209   1
  -4   5   7 6.45519 41.7788   1
   4  -5  -6 28.8941 39.1564   1
   4  -5  -6 41.7903 10.8807   1
  -4   5   6-27.8543 40.2502   1
   4  -5  -5 117.851 72.6462   1
   4  -5  -5 149.925 14.3577   1
  -4   5   5 140.429 73.1124   1
   4  -5  -4 1430.49 75.7425   1
   4  -5  -4 1490.49 38.0343   1
  -4   5   4 1562.70 124.478   1
  -4   5   4 1350.56 30.5466   1
   4  -5  -3 150.162 40.9237   1
   4  -5  -3 131.368 23.5887   1
  -4   5   3 98.1784 68.2739   1
  -4   5   3 118.193 17.0543   1
   4  -5  -2 1024.12 97.5317   1
   4  -5  -2 1046.95 30.6773   1
  -4   5   2 1156.40  100.94   1
  -4   5   2 965.554 35.7467   1
   4  -5  -1 51.9749  59.429   1
   4  -5  -1  34.137 33.0644   1
  -4   5   1   53.93 33.4376   1
  -4   5   1 24.9399 14.5341   1
   4  -5   0 163.899 36.5327   1
   4  -5   0 145.889 24.4134   1
  -4   5   0 186.755 36.7653   1
  -4   5   0 132.118 20.0401   1
   4  -5   1 190.664 28.9724   1
  -4   5  -1 168.197 36.3647   1
  -4   5  -1 146.445  42.678   1
   4  -5   2 282.661  35.805   1
  -4   5  -2 251.117 38.0196   1
   4  -5   3 2131.42 91.4557   1
  -4   5  -3 2551.81 94.8991   1
  -4   5  -3 2009.85 84.3919   1
   4  -5   4 279.457 45.3436   1
  -4   5  -4 329.879 38.1455   1
  -4   5  -4 330.738 41.3423   1
   4  -5   5 28.6321 78.9834   1
  -4   5  -5 99.7258 56.7259   1
  -4   5  -5 91.3087 40.6661   1
   4  -5   6 763.031 69.0068   1
  -4   5  -6  797.82 49.7131   1
  -4   5  -6 635.911  106.16   1
   4  -5   7 35.4263   87.51   1
  -4   5  -7-24.2507 45.3158   1
   4  -5   8 39.8528 51.8141   1
  -4   5  -8-31.1718  48.712   1
   4  -5   9 61.4249 54.4301   1
  -4   5  -9 10.4483 50.2838   1
   4  -5  10 53.0903 90.8332   1
  -4   5 -10-24.5751  50.928   1
   4  -5  11 503.327  69.118   1
  -4   5 -11 306.635 67.4762   1
   4  -5  12 22.5688 107.718   1
  -4   5 -12  197.82 60.0734   1
   4  -5  13 222.131 67.3083   1
  -4   5 -13 203.201 112.411   1
   4  -5  14 868.919 98.1413   1
  -4   5 -14 820.758 154.872   1
  -4   5 -15-22.9115  64.443   1
  -4   5 -16 91.6318 68.9439   1
   4  -4 -16-4.83567 35.4837   1
   4  -4 -15-6.21771 35.4349   1
   4  -4 -14-46.8839 58.6786   1
   4  -4 -14-1.47429  21.805   1
   4  -4 -14 19.8881  14.924   1
   4  -4 -13 -33.785 57.3114   1
   4  -4 -13 28.1669 21.0617   1
   4  -4 -13 7.59321 15.3744   1
   4  -4 -12 115.291 62.4695   1
   4  -4 -12 131.565 13.4168   1
   4  -4 -12  126.61 26.6747   1
   4  -4 -11 155.216 62.4557   1
   4  -4 -11 153.114 21.0677   1
   4  -4 -11 158.977 26.5331   1
   4  -4 -10 41.4286 34.6643   1
   4  -4 -10 14.1416 11.1754   1
   4  -4 -10-7.05208 23.4848   1
   4  -4  -9  800.27 58.1032   1
   4  -4  -9 943.537 22.0057   1
   4  -4  -9 885.115 37.3298   1
   4  -4  -8 506.877 48.5656   1
   4  -4  -8  464.56 23.3633   1
   4  -4  -8 497.732 29.0182   1
   4  -4  -7 2031.34  152.66   1
   4  -4  -7 2272.13 55.0297   1
   4  -4  -7 2049.63 59.2863   1
   4  -4  -6 460.979 47.7902   1
   4  -4  -6 558.319 22.6181   1
  -4   4   6 505.778  84.672   1
   4  -4  -5 16.3854 35.7492   1
   4  -4  -5 9.07648 16.7266   1
  -4   4   5 66.6541 63.4373   1
   4  -4  -4 2447.14 111.325   1
   4  -4  -4 2740.09 71.7715   1
  -4   4   4 2738.56 175.621   1
   4  -4  -3 865.484 91.8426   1
   4  -4  -3 1008.29 36.3718   1
  -4   4   3 975.988  89.217   1
  -4   4   3 864.649 28.2917   1
   4  -4  -2 298.732 66.0898   1
   4  -4  -2 188.669 16.3908   1
  -4   4   2 188.306  34.952   1
   4  -4  -1 3112.34 114.776   1
   4  -4  -1 3303.18 117.239   1
  -4   4   1 3357.35 121.341   1
  -4   4   1 2976.51 69.9987   1
   4  -4   0 164.315 34.6889   1
   4  -4   0 122.322 23.6384   1
  -4   4   0 230.472 34.1052   1
  -4   4   0  99.799 19.1816   1
   4  -4   1 2971.68 102.075   1
  -4   4  -1 3183.64  114.36   1
   4  -4   2 19.0091 28.4381   1
  -4   4  -2-24.1021 32.5114   1
  -4   4  -2 33.0485 24.3226   1
   4  -4   3 1083.85 98.0409   1
  -4   4  -3 1327.39 54.0462   1
  -4   4  -3 1079.47 53.1782   1
   4  -4   4 1826.23   86.45   1
  -4   4  -4 2036.53 77.4168   1
  -4   4  -4 1681.57 126.049   1
   4  -4   5  218.86 77.4788   1
  -4   4  -5 138.767  40.547   1
   4  -4   6 267.306 50.9486   1
  -4   4  -6 196.178 81.1435   1
   4  -4   7 1110.76 141.697   1
  -4   4  -7 1090.45 126.876   1
   4  -4   8 329.795 59.2203   1
  -4   4  -8 212.697   54.14   1
   4  -4   9-11.1776 97.9572   1
  -4   4  -9 86.9712 52.6191   1
   4  -4  10 162.349 60.6164   1
  -4   4 -10  179.97 55.7566   1
   4  -4  11 723.772 133.762   1
  -4   4 -11 833.939 77.9019   1
   4  -4  12 692.706 81.0181   1
  -4   4 -12 728.841 78.7787   1
   4  -4  13 22.6672 60.0864   1
  -4   4 -13 158.528 100.366   1
   4  -4  14 101.455 63.0302   1
  -4   4 -14 163.661 103.184   1
   4  -4  15-9.12536 61.0097   1
  -4   4 -15 67.1244 59.5269   1
  -4   4 -16 55.8779 64.1758   1
   4  -3 -16 140.003 34.4399   1
   4  -3 -15 245.162 57.8169   1
   4  -3 -15 195.863 20.1018   1
   4  -3 -15  177.69 38.5694   1
   4  -3 -14 82.7442 50.1111   1
   4  -3 -14 73.9371 17.7223   1
   4  -3 -14 78.7006 20.9076   1
   4  -3 -13 57.2825 49.8532   1
   4  -3 -13 30.5227 16.8343   1
   4  -3 -13  63.605 19.4584   1
   4  -3 -12 139.012 51.5398   1
   4  -3 -12 115.721 27.7084   1
   4  -3 -12 62.1316  33.141   1
   4  -3 -11 89.4304 52.1353   1
   4  -3 -11 82.6351 27.4228   1
   4  -3 -11 149.281 32.7796   1
   4  -3 -10  684.38 75.1929   1
   4  -3 -10 842.647 26.2468   1
   4  -3 -10 732.854 47.3688   1
   4  -3  -9 70.9246 56.7797   1
   4  -3  -9 17.3928 24.7897   1
   4  -3  -9 25.6802  31.327   1
   4  -3  -8 393.761 42.1851   1
   4  -3  -8 491.909 30.8218   1
   4  -3  -8 427.829 36.8217   1
   4  -3  -7 152.001 36.4015   1
   4  -3  -7 238.038 24.7702   1
   4  -3  -7 201.759 17.4282   1
   4  -3  -6 7.59762  11.541   1
  -4   3   6-17.5303 57.6583   1
   4  -3  -5 953.844 56.6974   1
   4  -3  -5 1135.58 37.7065   1
  -4   3   5 1030.20 95.6041   1
   4  -3  -4 9721.22 639.163   1
   4  -3  -410623.80 419.502   1
  -4   3   410116.90 651.924   1
  -4   3   4 9304.06 369.804   1
   4  -3  -3 125.107 52.6087   1
   4  -3  -3 18.6046 21.7897   1
  -4   3   3 27.2908 30.3244   1
  -4   3   3 38.5479 18.6005   1
   4  -3  -2 2510.85 94.6863   1
   4  -3  -2 2739.80 83.8755   1
  -4   3   2 2509.23 87.6943   1
  -4   3   2 2478.70  50.932   1
   4  -3  -1 5423.27 208.124   1
   4  -3  -1 6017.83 220.739   1
  -4   3   1 6056.75 221.471   1
  -4   3   1 5563.31 152.591   1
   4  -3   0 2863.88 80.7323   1
  -4   3   0 3226.42 159.071   1
  -4   3   0 2630.46 68.8142   1
   4  -3   1 963.757 41.5029   1
  -4   3  -1 1077.11 49.8255   1
  -4   3  -1 830.152   35.65   1
   4  -3   2 2892.26  103.06   1
  -4   3  -2 3056.76 99.3707   1
  -4   3  -2 2487.86 86.4489   1
   4  -3   3 772.003  51.531   1
  -4   3  -3 978.761 47.9328   1
  -4   3  -3 766.093 43.3188   1
   4  -3   4 423.173 43.0076   1
  -4   3  -4  356.68 38.5371   1
   4  -3   5 5209.23 331.951   1
  -4   3  -5 4874.58 201.956   1
   4  -3   6 4651.98 216.859   1
  -4   3  -6 4406.73 195.173   1
   4  -3   7 1583.17 91.7722   1
  -4   3  -7 1463.59 85.1059   1
   4  -3   8 442.456 102.163   1
  -4   3  -8 317.627 96.6202   1
   4  -3   9-141.811 57.4295   1
  -4   3  -9-171.044  93.194   1
   4  -3  10 837.274 139.008   1
  -4   3 -10 784.912 77.6456   1
   4  -3  11 26.1153 54.9647   1
  -4   3 -11-16.1431 89.8338   1
   4  -3  12 136.847 95.5055   1
  -4   3 -12-27.4525 94.4621   1
   4  -3  13-1.16041 55.6652   1
  -4   3 -13-77.1363 93.6196   1
   4  -3  14 133.165 60.7922   1
  -4   3 -14 113.914 58.2572   1
   4  -3  15 96.3856 58.6285   1
  -4   3 -15 65.2689 58.5484   1
   4  -3  16 66.4414 61.4905   1
  -4   3 -16 35.4726 59.9338   1
  -4   3 -17 183.779 66.8685   1
   4  -2 -16 210.633 49.8826   1
   4  -2 -16 195.382 39.5621   1
   4  -2 -16 187.853 47.8087   1
   4  -2 -15  44.775 42.0828   1
   4  -2 -15 21.7055 21.2114   1
   4  -2 -15 22.5899 25.6619   1
   4  -2 -14 89.1577 45.4743   1
   4  -2 -14 170.221 22.4997   1
   4  -2 -14 147.917 26.4011   1
   4  -2 -13 123.373 27.5859   1
   4  -2 -13 134.823 21.2049   1
   4  -2 -13 145.844 42.1419   1
   4  -2 -12 54.8505  25.834   1
   4  -2 -12 16.8187 18.9163   1
   4  -2 -12 83.9779 38.4728   1
   4  -2 -11 245.548 30.4381   1
   4  -2 -11 323.293 36.1873   1
   4  -2 -11 218.984 25.5437   1
   4  -2 -10 115.787 29.8087   1
   4  -2 -10 197.053 25.2021   1
   4  -2  -9 194.302 52.2137   1
   4  -2  -9 213.917 20.5685   1
   4  -2  -9 222.612 25.6036   1
   4  -2  -8 61.9764 51.0782   1
   4  -2  -8 85.1422 29.9381   1
   4  -2  -8  27.582 20.9153   1
   4  -2  -7 33.3542  29.147   1
   4  -2  -7 48.7701 16.5417   1
   4  -2  -6 120.454 31.2696   1
   4  -2  -6 220.656 16.9603   1
  -4   2   6 193.469 32.9563   1
   4  -2  -5-5.13568 27.1183   1
   4  -2  -5 34.7554 23.6306   1
  -4   2   5-28.7603 28.2046   1
   4  -2  -4 368.719 57.8887   1
  -4   2   4 310.909 59.9774   1
   4  -2  -3 46.4058 28.5098   1
   4  -2  -3 81.3832 14.3233   1
  -4   2   3 138.423 28.7171   1
  -4   2   3 44.4262 13.4736   1
   4  -2  -2 649.211 41.0939   1
   4  -2  -2 803.454 38.4164   1
  -4   2   2 671.484 38.1539   1
  -4   2   2  691.08 33.8426   1
   4  -2  -1 890.305 71.5237   1
   4  -2  -1 985.347 47.3682   1
  -4   2   1 907.771 45.0567   1
  -4   2   1 845.056 39.7783   1
   4  -2   0 1007.83  60.925   1
  -4   2   0 1095.33 48.0137   1
  -4   2   0 929.126 31.5441   1
   4  -2   1 140.907 26.7397   1
  -4   2  -1 172.382  31.436   1
  -4   2  -1 97.8887 38.0899   1
   4  -2   2 745.182  40.336   1
  -4   2  -2 948.519 44.8608   1
  -4   2  -2 743.181 37.8905   1
   4  -2   3 4901.95 267.726   1
  -4   2  -3 4533.36 234.777   1
   4  -2   4 705.769 86.9426   1
  -4   2  -4  600.31 73.3981   1
   4  -2   5 2399.92 164.154   1
  -4   2  -5 2175.33 90.8375   1
   4  -2   6 5237.45 224.312   1
  -4   2  -6 4933.77  208.23   1
   4  -2   7 1354.61 79.7153   1
  -4   2  -7 1304.62 74.5409   1
   4  -2   8  6.9815 82.3836   1
  -4   2  -8  4.1723 43.5691   1
   4  -2   9 981.808 81.6815   1
  -4   2  -9 957.757 127.913   1
   4  -2  10 1.38694 53.1307   1
  -4   2 -10-43.3067 87.3225   1
   4  -2  11 1443.15 177.346   1
  -4   2 -11 1376.81 166.891   1
   4  -2  12 4.01898 52.2128   1
  -4   2 -12-36.7054 89.8312   1
   4  -2  13 684.662 129.457   1
  -4   2 -13 633.184  73.492   1
   4  -2  14 87.5458  55.754   1
  -4   2 -14 131.181 55.1433   1
   4  -2  15 76.1742 95.8037   1
  -4   2 -15 66.7291 56.8426   1
   4  -2  16 88.0999 59.2405   1
  -4   2 -16 139.118 57.9284   1
  -4   2 -17 85.8544 101.605   1
  -4   2 -18 115.515 106.619   1
   4  -1 -16 28.3945 39.3574   1
   4  -1 -16 33.1264 24.3947   1
   4  -1 -16 37.5592 30.7712   1
   4  -1 -15-36.6454 36.8937   1
   4  -1 -15-9.32701  39.181   1
   4  -1 -15-30.3967 29.0595   1
   4  -1 -14 -2.5504 21.5068   1
   4  -1 -14 62.3133 37.0019   1
   4  -1 -14 -37.676 46.3619   1
   4  -1 -13 55.6258 23.2401   1
   4  -1 -13 93.7099  38.536   1
   4  -1 -13 95.1886 28.8303   1
   4  -1 -12 124.281 23.5645   1
   4  -1 -12 143.912 23.1793   1
   4  -1 -12 131.258  28.439   1
   4  -1 -11 66.2975 23.8611   1
   4  -1 -11 140.459 37.6563   1
   4  -1 -11 128.295 47.6239   1
   4  -1 -10 67.5567 24.3839   1
   4  -1 -10 78.9681 37.6254   1
   4  -1 -10 144.323 47.1053   1
   4  -1  -9   52.61   24.74   1
   4  -1  -9 42.9852 37.3538   1
   4  -1  -9 82.6663 46.0372   1
   4  -1  -8 101.682 40.4678   1
   4  -1  -8 -25.158 20.2486   1
   4  -1  -8 42.2969 41.2163   1
   4  -1  -7-13.3625 43.3298   1
   4  -1  -7 37.4438  32.865   1
   4  -1  -6 103.163 26.3414   1
   4  -1  -6 182.723 19.7121   1
   4  -1  -5 489.332  53.732   1
   4  -1  -5 490.404 23.4278   1
  -4   1   5 512.462 32.7269   1
   4  -1  -4 327.881 49.1814   1
   4  -1  -4 389.262 33.5177   1
  -4   1   4 404.882 28.5835   1
  -4   1   4 371.453 32.7138   1
   4  -1  -3 4262.40 205.888   1
   4  -1  -3 4800.54 120.185   1
  -4   1   3 4469.77 142.864   1
  -4   1   3 4298.45 111.341   1
   4  -1  -2 5492.61 265.851   1
   4  -1  -2 5504.85 150.068   1
  -4   1   2 5602.10 259.676   1
  -4   1   2 5219.94 185.469   1
   4  -1  -112858.00 663.447   1
   4  -1  -113767.60 729.769   1
  -4   1   113137.80 663.706   1
  -4   1   113062.30 684.361   1
   4  -1   0 135.395 42.8614   1
  -4   1   0 189.532 33.0791   1
  -4   1   0 146.258 37.6347   1
   4  -1   1 6723.95  347.22   1
  -4   1  -1 6834.58 269.534   1
  -4   1  -1 5885.91 218.714   1
   4  -1   2 6109.88 231.526   1
  -4   1  -2 5669.35 218.703   1
   4  -1   3 1552.88 69.1333   1
  -4   1  -3 1482.19 100.726   1
   4  -1   411857.70 699.831   1
  -4   1  -411641.20 801.025   1
   4  -1   5 3249.69 131.026   1
  -4   1  -5 2841.87 184.642   1
   4  -1   610924.70 587.805   1
  -4   1  -610239.90 537.616   1
   4  -1   7 5057.94 223.472   1
  -4   1  -7 4720.08 302.527   1
   4  -1   8 1987.87 100.863   1
  -4   1  -8 1719.70 93.9151   1
   4  -1   9 4527.79 348.888   1
  -4   1  -9 4407.54 213.196   1
   4  -1  10 30.9203 50.4495   1
  -4   1 -10-35.2068 47.7885   1
   4  -1  11-43.7374 53.4205   1
  -4   1 -11 115.383 50.0368   1
   4  -1  12 119.038 98.6339   1
  -4   1 -12 127.821 54.8749   1
   4  -1  13 282.701 62.1539   1
  -4   1 -13 353.959 58.4126   1
   4  -1  14 53.5235  87.863   1
  -4   1 -14 28.7468 50.4228   1
   4  -1  15 39.9748 52.0823   1
  -4   1 -15 119.459 51.7679   1
   4  -1  16 81.3879 92.7344   1
  -4   1 -16 157.852 93.2544   1
   4  -1  17 66.8579 53.8709   1
  -4   1 -17-30.9825 93.3487   1
  -4   1 -18 160.385 61.4638   1
   4   0 -16  203.69 38.2841   1
   4   0 -16 260.847 31.0825   1
   4   0 -16 206.534 66.3731   1
   4   0 -15  12.579 31.3865   1
   4   0 -15 -0.9818 26.5343   1
   4   0 -15 116.728 33.8897   1
   4   0 -14 33.5846 19.4308   1
   4   0 -14 69.6054 26.3591   1
   4   0 -14 11.7467 33.3664   1
   4   0 -13  243.17 22.7795   1
   4   0 -13 279.898 48.0198   1
   4   0 -13  223.77 60.9033   1
   4   0 -12 169.664 21.6077   1
   4   0 -12 150.177 45.1979   1
   4   0 -12 171.373 33.3828   1
   4   0 -11-0.00807 19.4082   1
   4   0 -11 33.2272 41.0853   1
   4   0 -11 20.5377 30.8467   1
   4   0 -10  477.34 27.6523   1
   4   0 -10 540.534 54.3214   1
   4   0 -10 621.332 68.9605   1
   4   0  -9 1543.87 51.5782   1
   4   0  -9 1865.93 60.7994   1
   4   0  -9 1765.36 108.995   1
   4   0  -8 258.128 24.2343   1
   4   0  -8 385.695 27.6624   1
   4   0  -8 319.784 56.8044   1
   4   0  -7 338.368 45.1495   1
   4   0  -7 425.442 46.8351   1
   4   0  -6 1040.37  38.939   1
   4   0  -6 1229.53  41.065   1
   4   0  -5 2687.88 118.604   1
   4   0  -5 3232.59 126.031   1
  -4   0   5 3180.78 88.7885   1
   4   0  -4 2860.88 120.901   1
   4   0  -4 3168.77  119.51   1
  -4   0   4 3029.60 81.3919   1
  -4   0   4 2967.04 78.4821   1
   4   0  -3 4126.05 172.153   1
   4   0  -3 4308.31 114.922   1
  -4   0   3 4012.98  162.13   1
  -4   0   3 3988.57 107.845   1
   4   0  -2 5462.52 175.879   1
   4   0  -2 6120.80 233.303   1
  -4   0   2 5607.82 177.872   1
  -4   0   2 5700.42 168.391   1
   4   0  -1 646.082 54.0949   1
  -4   0   1 590.725 36.5597   1
  -4   0   1 592.593 49.7878   1
   4   0   025419.70 2205.85   1
  -4   0   027120.70 2353.66   1
  -4   0   024737.50 2150.25   1
   4   0   1 9786.60 408.836   1
  -4   0  -1 9554.44 396.853   1
   4   0   2 8480.98  359.76   1
  -4   0  -2 8066.73  334.24   1
   4   0   3 1544.78 70.3817   1
  -4   0  -3 1454.06 63.5261   1
   4   0   4 1695.15 126.122   1
  -4   0  -4 1521.58 110.524   1
   4   0   510412.10 552.177   1
  -4   0  -5 9039.61 686.171   1
   4   0   6 552.078 47.6917   1
  -4   0  -6 424.034 43.2502   1
   4   0   7 1633.52 79.7261   1
  -4   0  -7 1424.70 73.5729   1
   4   0   8 3061.96 136.773   1
  -4   0  -8 2842.19 129.012   1
   4   0   9 1423.11 87.0655   1
  -4   0  -9 1331.47 134.451   1
   4   0  10 1016.08 127.678   1
  -4   0 -10  846.95 121.307   1
   4   0  11  69.951 47.9466   1
  -4   0 -11-39.2249 47.0282   1
   4   0  12 5342.55 306.592   1
  -4   0 -12 5157.61 288.347   1
   4   0  13-75.4706 88.2102   1
  -4   0 -13 62.1455 49.2121   1
   4   0  14 550.063 63.7115   1
  -4   0 -14 605.975 104.398   1
   4   0  15 152.548 49.8625   1
  -4   0 -15 105.422 88.9946   1
   4   0  16 111.007 85.9447   1
  -4   0 -16 139.835 51.0079   1
   4   0  17 114.652 51.0192   1
  -4   0 -17 93.4219 51.5508   1
  -4   0 -18 57.9272  51.863   1
   4   1 -16 93.1944 32.1892   1
   4   1 -16 64.6189 41.8881   1
   4   1 -15 21.6827 30.1782   1
   4   1 -15 48.8587 49.6051   1
   4   1 -15 85.7413 65.3109   1
   4   1 -14 10.5683 27.7374   1
   4   1 -14  8.4182 48.3806   1
   4   1 -14 35.3329 37.9164   1
   4   1 -13 283.584 20.8829   1
   4   1 -13 392.509 34.5997   1
   4   1 -13  339.23 72.6865   1
   4   1 -12 173.791 19.1854   1
   4   1 -12 237.774 31.4639   1
   4   1 -12 187.792 38.6435   1
   4   1 -11 864.031 45.4305   1
   4   1 -11 830.552 56.3192   1
   4   1 -10 31.8426 17.9134   1
   4   1 -10 69.6385 27.8065   1
   4   1 -10-12.6743 35.6222   1
   4   1  -9 181.738 20.2847   1
   4   1  -9 180.483 30.6197   1
   4   1  -9 251.284 66.0698   1
   4   1  -8 472.819 23.9943   1
   4   1  -8  579.30  36.065   1
   4   1  -8 498.068 72.3247   1
   4   1  -7-4.68499 29.1417   1
   4   1  -7 88.8665 43.9004   1
   4   1  -6 1027.06 32.8291   1
   4   1  -6 1147.46 43.6959   1
   4   1  -5 555.748 23.5603   1
   4   1  -5 639.705 51.7854   1
   4   1  -4 4.29486 16.0791   1
   4   1  -4 2.23941 21.9157   1
  -4  -1   4-25.8961 16.1134   1
   4   1  -3 2466.37 58.7177   1
   4   1  -3 2393.83  70.085   1
  -4  -1   3 2362.78  55.952   1
  -4  -1   3 2298.09 66.0226   1
   4   1  -2  866.30 47.8517   1
   4   1  -2  852.97 58.0855   1
  -4  -1   2 812.784 45.7662   1
  -4  -1   2 735.195 32.4406   1
   4   1  -1 3044.04 90.6015   1
  -4  -1   1 2906.86 118.393   1
  -4  -1   1 2955.07 86.5887   1
   4   1   0 1911.00 65.6501   1
  -4  -1   0 1970.52 62.0956   1
  -4  -1   0 1806.71 63.6343   1
   4   1   110588.50 591.568   1
  -4  -1  -1 9843.79 417.278   1
   4   1   2 9847.96 484.401   1
  -4  -1  -210112.60 483.054   1
   4   1   3 1405.61 65.8377   1
  -4  -1  -3 1173.18 57.8114   1
   4   1   411300.60 569.844   1
  -4  -1  -410822.60 544.322   1
   4   1   5 387.356 71.0813   1
  -4  -1  -5 228.473 36.0981   1
   4   1   6 608.776 44.2724   1
  -4  -1  -6 594.394 43.0061   1
   4   1   7 217.478  39.928   1
  -4  -1  -7 214.161 35.4922   1
   4   1   8 48.5627 37.4964   1
  -4  -1  -8-12.2061 58.4926   1
   4   1   9  98.176 41.1083   1
  -4  -1  -9 118.056 39.3874   1
   4   1  10 143.417 46.9083   1
  -4  -1 -10 169.498 44.3541   1
   4   1  11 202.328 49.1555   1
  -4  -1 -11 224.931 47.6759   1
   4   1  12 4871.54 398.787   1
  -4  -1 -12 4789.67 246.337   1
   4   1  13 4371.30  233.24   1
  -4  -1 -13 4226.07 226.102   1
   4   1  14 141.257 48.7693   1
  -4  -1 -14 194.077 47.2117   1
   4   1  15 611.751 102.688   1
  -4  -1 -15 631.629 61.5061   1
   4   1  16   56.58 45.4648   1
  -4  -1 -16 59.0252 46.2687   1
   4   1  17-40.3456 45.3295   1
  -4  -1 -17-17.2557 45.8184   1
   4   1  18  37.162 47.2082   1
  -4  -1 -18 95.2526 80.8688   1
  -4  -1 -19-11.4849 81.2816   1
   4   2 -15 70.7002 34.2698   1
   4   2 -15 97.5748 77.9531   1
   4   2 -14 33.0197 23.9162   1
   4   2 -14 6.71379 32.9227   1
   4   2 -14 26.8931 43.2382   1
   4   2 -13 68.6362 15.5907   1
   4   2 -13 104.093 33.6396   1
   4   2 -13 99.5061 42.4417   1
   4   2 -12 100.773 15.5374   1
   4   2 -12 108.322 32.7926   1
   4   2 -12 85.0108 69.1367   1
   4   2 -11 309.352 18.2247   1
   4   2 -11 337.931 36.6067   1
   4   2 -11 322.827 47.9568   1
   4   2 -10 45.1238 14.8183   1
   4   2 -10 -50.902 54.0201   1
   4   2 -10 4.38543 39.4189   1
   4   2  -9 843.466 26.8882   1
   4   2  -9 976.686 83.3167   1
   4   2  -9 1067.06 103.741   1
   4   2  -8 3489.41 89.0016   1
   4   2  -8 4129.12 144.737   1
   4   2  -8 3948.86 161.831   1
   4   2  -7-18.0216 25.6557   1
   4   2  -7 56.1797 29.5283   1
   4   2  -7 51.3071 36.2632   1
   4   2  -6  588.09  32.731   1
   4   2  -6 591.073 38.9402   1
   4   2  -5 70.3612 13.0084   1
   4   2  -5 84.1959 45.5433   1
   4   2  -4 21.1832 20.6824   1
   4   2  -4-12.8228  24.512   1
   4   2  -3 1030.64 23.1672   1
   4   2  -3 1129.73   43.25   1
  -4  -2   3 1057.19 22.7237   1
  -4  -2   3 1092.34 42.0801   1
   4   2  -2 5.11168 24.5921   1
  -4  -2   2-20.2337 19.3916   1
  -4  -2   2-30.3856 40.0776   1
   4   2  -1-46.8123 48.0656   1
  -4  -2   1 5.34616 15.1471   1
  -4  -2   1 23.5592 24.6441   1
   4   2   020757.20 1398.98   1
  -4  -2   020218.00 1584.07   1
   4   2   1 -4.7664 27.4704   1
  -4  -2  -1 30.6468 27.0667   1
   4   2   2 7287.61 426.784   1
  -4  -2  -2 7125.01 286.933   1
   4   2   354621.10 8193.86   1
  -4  -2  -351576.20 7831.99   1
   4   2   4 715.974 47.4865   1
  -4  -2  -4  692.23 43.7974   1
   4   2   5 158.615 36.5467   1
  -4  -2  -5 281.937 57.6989   1
   4   2   6 4726.51 254.792   1
  -4  -2  -6 4607.44 163.186   1
   4   2   7 1233.24 59.7375   1
  -4  -2  -7 1332.75 57.7547   1
   4   2   8-19.4701 33.1434   1
  -4  -2  -8 25.5034 52.5766   1
   4   2   9 410.542 78.9325   1
  -4  -2  -9  432.11 40.8038   1
   4   2  10 120.336 71.5018   1
  -4  -2 -10 147.983 37.9591   1
   4   2  11 216.473 45.1279   1
  -4  -2 -11 237.479 71.9005   1
   4   2  12  211.49 45.8424   1
  -4  -2 -12 162.125 78.1368   1
   4   2  13 5640.46  297.73   1
  -4  -2 -13 5428.43 419.105   1
   4   2  14 139.624 73.6078   1
  -4  -2 -14 14.8711  71.583   1
   4   2  15 182.098 45.0508   1
  -4  -2 -15 300.954 75.8362   1
   4   2  16 342.101 48.0094   1
   4   2  17  132.51 73.7508   1
  -4  -2 -17  173.24 74.5517   1
   4   2  18-15.4101 41.7891   1
  -4  -2 -18 20.9039   41.62   1
  -4  -2 -19 72.7234 44.2407   1
   4   3 -15 84.7646 41.0206   1
   4   3 -15  17.906 86.4086   1
   4   3 -14 128.248 42.1928   1
   4   3 -14 225.775 52.0108   1
   4   3 -13 27.3873 21.1463   1
   4   3 -13 45.4046 62.2562   1
   4   3 -13 31.4378 45.3039   1
   4   3 -12 4.51397 19.6803   1
   4   3 -12 46.1625 60.6303   1
   4   3 -12-12.0168 73.9974   1
   4   3 -11 169.784 61.2168   1
   4   3 -11 39.7485 45.1452   1
   4   3 -10  39.463 12.0894   1
   4   3 -10 130.969 59.4406   1
   4   3 -10 16.3897 43.0368   1
   4   3  -9 64.5503 21.0701   1
   4   3  -9 38.5375 62.9272   1
   4   3  -9 142.609 76.9197   1
   4   3  -8 216.024 23.5898   1
   4   3  -8 221.878 65.5888   1
   4   3  -8 116.199 45.7452   1
   4   3  -7 1860.52 37.5258   1
   4   3  -7 1942.51 129.542   1
   4   3  -7 2010.34 96.1631   1
   4   3  -6  647.26 26.4682   1
   4   3  -6 681.278 45.2755   1
   4   3  -5 4385.38 89.8022   1
   4   3  -5 4622.58 165.259   1
   4   3  -4 3484.07 60.6013   1
   4   3  -4 3710.43 178.854   1
   4   3  -3 95.3514 27.9793   1
   4   3  -2 2477.74 76.5257   1
  -4  -3   2 2186.62 41.3592   1
  -4  -3   2 2156.84 70.5679   1
   4   3  -1 1299.00 53.4708   1
  -4  -3   1 1273.54 49.5544   1
   4   3   0 3313.80 169.623   1
  -4  -3   0 3145.09 103.707   1
   4   3   1 547.456 40.8377   1
  -4  -3  -1 667.347  39.381   1
   4   3   2 3296.96 165.914   1
  -4  -3  -2 3162.81 101.991   1
   4   3   315824.70 1076.59   1
  -4  -3  -314874.90 814.174   1
   4   3   4 23.1212 29.0099   1
  -4  -3  -4 60.9994 27.8662   1
   4   3   5  272.31  32.772   1
  -4  -3  -5 249.779 51.1842   1
   4   3   6 3700.07 118.233   1
  -4  -3  -6 3512.43 107.572   1
   4   3   7 7855.17 314.967   1
  -4  -3  -7 7173.77 276.881   1
   4   3   8 153.597 29.9766   1
  -4  -3  -8 71.1125 27.6076   1
   4   3   9 32.9271 57.8676   1
  -4  -3  -9 23.1889  29.192   1
   4   3  10 41.4838 34.7838   1
  -4  -3 -10 -11.437  32.035   1
   4   3  11 73.9998 37.8332   1
  -4  -3 -11 69.4698 59.2988   1
   4   3  12 177.976 69.1249   1
  -4  -3 -12  174.70 38.2548   1
   4   3  13 825.742 103.601   1
  -4  -3 -13 790.291 57.7225   1
   4   3  14 22.3696 37.3484   1
  -4  -3 -14-8.40014 35.7301   1
   4   3  15  36.967 38.3854   1
  -4  -3 -15 90.3393 36.6406   1
   4   3  16 96.7058 36.6231   1
  -4  -3 -16 14.1987 37.2106   1
   4   3  17 298.586 70.3065   1
  -4  -3 -17 244.239 42.7701   1
   4   3  18 36.4588 37.4713   1
  -4  -3 -18-38.8069 62.8364   1
  -4  -3 -19-0.03547 65.2643   1
   4   4 -15 19.0045  43.192   1
   4   4 -15 56.2994 92.6569   1
   4   4 -14 141.031 44.5762   1
   4   4 -14 65.7355 55.8818   1
   4   4 -13 119.221 73.7481   1
   4   4 -13 176.729 52.3928   1
   4   4 -12 76.3586 10.4464   1
   4   4 -12 81.2011 70.0875   1
   4   4 -12 130.897 84.3142   1
   4   4 -11 -5.6238 16.2581   1
   4   4 -11 46.5147  38.115   1
   4   4 -11  76.879  48.334   1
   4   4 -10 215.221 18.4282   1
   4   4 -10 282.682 42.1264   1
   4   4 -10 288.927 87.8153   1
   4   4  -9 11.3089 9.21411   1
   4   4  -9 28.4137 37.5203   1
   4   4  -9 64.2874 47.1381   1
   4   4  -8 131.666 16.0661   1
   4   4  -8 130.185 41.9041   1
   4   4  -8 95.4013 48.9631   1
   4   4  -7  190.99 9.05389   1
   4   4  -7 200.406 41.2611   1
   4   4  -7 255.989 83.2296   1
   4   4  -6  37.996 11.1383   1
   4   4  -6 25.0393 62.4718   1
   4   4  -5 1454.86 22.2862   1
   4   4  -5 1330.97 66.2955   1
   4   4  -4 28.7933 29.6761   1
   4   4  -3 356.223 59.4204   1
   4   4  -2 102.588  30.163   1
   4   4  -1 4856.74 167.166   1
  -4  -4   1 4801.61 167.565   1
   4   4   0 3011.48 101.279   1
  -4  -4   0 3028.45 99.2055   1
   4   4   1 9794.01 434.617   1
  -4  -4  -1 9821.48 435.978   1
   4   4   210962.70 509.163   1
  -4  -4  -210996.70 492.947   1
   4   4   3 5085.87 169.939   1
  -4  -4  -3 5097.13 228.938   1
   4   4   4 4499.62 144.935   1
  -4  -4  -4 4910.22  200.33   1
   4   4   512062.10 681.843   1
  -4  -4  -511691.30 645.433   1
   4   4   6 9497.19 467.259   1
  -4  -4  -6 8346.84 320.057   1
   4   4   7 4125.01 193.234   1
  -4  -4  -7 3809.73 173.957   1
   4   4   8 1255.67 48.2908   1
  -4  -4  -8 1131.78 70.2213   1
   4   4   9 491.869 37.9256   1
  -4  -4  -9 496.815 54.6201   1
   4   4  10 224.014 34.8446   1
  -4  -4 -10 168.532  30.314   1
   4   4  11  27.934 32.7905   1
  -4  -4 -11 53.8417 50.9688   1
   4   4  12 617.037 47.3221   1
  -4  -4 -12 677.708 44.5285   1
   4   4  13 134.669 35.7162   1
  -4  -4 -13 98.9803 34.4743   1
   4   4  14  255.28 39.1128   1
  -4  -4 -14 281.706 36.7154   1
   4   4  15-26.1352  32.704   1
  -4  -4 -15 49.6624 31.3864   1
   4   4  16 104.195 55.0209   1
  -4  -4 -16-4.23566 32.3655   1
   4   4  17-2.75322 32.6935   1
  -4  -4 -17 55.8702 32.8714   1
   4   4  18-44.0593 33.2524   1
  -4  -4 -18 65.3684 32.8436   1
  -4  -4 -19 139.544 37.0681   1
   4   5 -14 128.142 86.3853   1
   4   5 -14 267.984 65.4512   1
   4   5 -13-25.2139 76.4306   1
   4   5 -13 52.9011 54.3222   1
   4   5 -12 116.846 45.3073   1
   4   5 -12 22.9175 54.6481   1
   4   5 -11 528.662 58.9197   1
   4   5 -11 727.431 71.6686   1
   4   5 -10-23.6751  41.697   1
   4   5 -10-135.902 86.9044   1
   4   5  -9 17.3037  8.3995   1
   4   5  -9-3.17513 41.4007   1
   4   5  -9 21.1402  48.554   1
   4   5  -8 2351.75 116.884   1
   4   5  -8 2347.35 214.535   1
   4   5  -7 2011.00 104.498   1
   4   5  -7 2031.48 117.531   1
   4   5  -6 2759.37 121.387   1
   4   5  -6 2649.59 138.692   1
   4   5  -5 1130.33  105.79   1
   4   5  -4 502.701 42.8335   1
   4   5  -3 55.5353 31.1598   1
   4   5  -2 100.019 31.3226   1
   4   5  -1  174.93 53.3552   1
  -4  -5   1 134.732 5.55294   1
  -4  -5   0 1446.22 53.8749   1
   4   5   1 3996.38 125.837   1
  -4  -5  -1 3285.56 108.665   1
   4   5   2 1223.56 83.8501   1
  -4  -5  -2 1215.39 49.2371   1
   4   5   3 2679.97 84.9508   1
  -4  -5  -3 3206.15 128.995   1
   4   5   4 4825.30 189.101   1
  -4  -5  -4 4249.64 122.901   1
   4   5   5 872.271 34.0213   1
  -4  -5  -5 792.425 31.0031   1
   4   5   6 2098.15 61.6515   1
  -4  -5  -6 2196.29 58.6911   1
   4   5   7 894.434 35.6122   1
  -4  -5  -7 796.079 31.4611   1
   4   5   8 4862.16 150.689   1
  -4  -5  -8 4600.74 194.774   1
   4   5   9 67.2863 25.3505   1
  -4  -5  -9 98.8361 37.2251   1
   4   5  10 424.949 57.4595   1
  -4  -5 -10 370.322 47.8311   1
   4   5  11 291.042 33.0373   1
  -4  -5 -11 284.532  29.139   1
   4   5  12-13.3613 29.2003   1
  -4  -5 -12 25.2711 44.8196   1
   4   5  13 452.377 38.0355   1
  -4  -5 -13 451.942 35.8015   1
   4   5  14 57.4601 29.7263   1
  -4  -5 -14 40.8629 27.2852   1
   4   5  15  84.566 51.9809   1
  -4  -5 -15 117.418 28.7144   1
   4   5  16 10.1684 49.7512   1
  -4  -5 -16  63.792 27.4985   1
   4   5  17 5.31008 28.5061   1
  -4  -5 -17 44.4401 27.4892   1
   4   5  18 12.8415 29.6301   1
  -4  -5 -18 34.2593 28.3487   1
  -4  -5 -19 101.711 30.8121   1
   4   6 -14 69.0718 90.9523   1
   4   6 -14 219.914  67.771   1
   4   6 -13-2.79963 83.5297   1
   4   6 -13-110.057 101.784   1
   4   6 -12 69.0376 47.8974   1
   4   6 -12 32.3026 57.1867   1
   4   6 -11 152.728 49.2789   1
   4   6 -11 99.5594 103.068   1
   4   6 -10 225.769 50.6904   1
   4   6 -10 228.976 61.6186   1
   4   6  -9 138.139 46.4424   1
   4   6  -9 183.166   55.58   1
   4   6  -8 1547.30 91.7543   1
   4   6  -8 1543.95 106.157   1
   4   6  -7 2413.73  125.37   1
   4   6  -7 2526.04 144.596   1
   4   6  -6 64.9027  45.451   1
   4   6  -6 76.9788 89.4793   1
   4   6  -5 1177.03 69.6953   1
   4   6  -5 1102.70 80.9057   1
   4   6  -4 586.008 85.0546   1
   4   6  -3 117.712 35.7244   1
   4   6  -2 4303.40 233.386   1
   4   6  -1 3518.97 115.953   1
  -4  -6   1 2785.72 48.4563   1
   4   6   017633.10 1062.47   1
  -4  -6   015795.30 796.597   1
   4   6   1 3219.27 110.943   1
  -4  -6  -1 3250.12 111.817   1
   4   6   2 4883.91 218.109   1
  -4  -6  -2 4326.77 143.408   1
   4   6   3 3505.69 106.338   1
  -4  -6  -3 3984.99 156.721   1
   4   6   4 5813.03 181.972   1
  -4  -6  -4 5821.30 181.087   1
   4   6   5 1064.42 37.2607   1
  -4  -6  -5 1197.98 56.4378   1
   4   6   6 6924.06 288.049   1
  -4  -6  -6 6968.80 278.296   1
   4   6   7 4362.68  120.96   1
  -4  -6  -7 4153.68 109.481   1
   4   6   8 1372.94 42.1115   1
  -4  -6  -8 1297.80 59.7899   1
   4   6   9 1063.12 38.9106   1
  -4  -6  -9 1010.89  54.732   1
   4   6  10 361.526 29.6602   1
  -4  -6 -10 384.629 41.4546   1
   4   6  11-53.9289 25.6761   1
  -4  -6 -11 93.9602 36.3271   1
   4   6  12 65.0916 44.7118   1
  -4  -6 -12 16.9413 21.5451   1
   4   6  13 1020.99 70.4236   1
  -4  -6 -13 947.431  63.243   1
   4   6  14  152.67 47.1079   1
  -4  -6 -14 165.965 24.9261   1
   4   6  15 598.983 59.5283   1
  -4  -6 -15 634.632 33.8053   1
   4   6  16  26.171 43.5052   1
  -4  -6 -16 52.7715  23.317   1
   4   6  17 29.3018 41.9122   1
  -4  -6 -17 14.1636 23.2227   1
   4   6  18 89.6571 27.2197   1
  -4  -6 -18 93.6174 25.5828   1
  -4  -6 -19-28.0538 24.2148   1
   4   7 -13 185.119 93.7447   1
   4   7 -13 44.8898 114.406   1
   4   7 -12 59.5917 52.5918   1
   4   7 -12 66.8052 62.9166   1
   4   7 -11 295.932 59.3201   1
   4   7 -11  388.91 115.462   1
   4   7 -10 599.129 68.2521   1
   4   7 -10 702.289 80.9292   1
   4   7  -9 43.6983 46.9855   1
   4   7  -9 101.019 97.2147   1
   4   7  -8-2.55291 44.8298   1
   4   7  -8 32.7472  53.542   1
   4   7  -7  672.33 66.3813   1
   4   7  -7  795.70 130.561   1
   4   7  -6 133.015 46.3092   1
   4   7  -6-30.0117 53.9527   1
   4   7  -5 1805.10 95.0161   1
   4   7  -5 1724.02 110.092   1
   4   7  -4 1059.51  109.99   1
   4   7  -3 3438.88 143.472   1
   4   7  -2 193.579 37.0151   1
   4   7  -1 106.253 30.5805   1
  -4  -7   1 47.1435 10.3466   1
   4   7   0 3552.26 172.151   1
  -4  -7   0 3105.80  73.435   1
   4   7   1 1326.68 81.3605   1
  -4  -7  -1 1088.92 40.9844   1
   4   7   2 2427.57 73.0988   1
  -4  -7  -2 2176.34 54.2763   1
  -4  -7  -2 2592.26 110.178   1
   4   7   3 4188.61 128.778   1
  -4  -7  -3 4355.49 133.341   1
   4   7   4 1264.73 41.0014   1
  -4  -7  -4 1096.57 38.8257   1
   4   7   5 4029.99 112.864   1
  -4  -7  -5 4353.56 154.228   1
   4   7   6  584.05 44.4063   1
  -4  -7  -6 562.159 24.6556   1
   4   7   7 7481.04 315.338   1
  -4  -7  -7 7664.34 305.198   1
   4   7   8  364.09 23.2191   1
  -4  -7  -8  352.84 19.7051   1
   4   7   9 30.4886 19.7393   1
  -4  -7  -9 41.7697 15.9669   1
   4   7  10 886.613 33.8507   1
  -4  -7 -10 880.093 47.3161   1
   4   7  11 3892.71 121.899   1
  -4  -7 -11 3755.21 145.201   1
   4   7  12 418.829  27.844   1
  -4  -7 -12 405.428 24.2001   1
   4   7  13 516.788 47.7629   1
  -4  -7 -13 517.915 42.0761   1
   4   7  14 16.9658 36.8404   1
  -4  -7 -14-27.1385 18.7647   1
   4   7  15-5.36364 36.2683   1
  -4  -7 -15 14.5628 31.3441   1
   4   7  16 22.4413 35.7523   1
  -4  -7 -16  15.396  18.593   1
   4   7  17  36.806 36.3559   1
  -4  -7 -17 42.1476 18.9967   1
  -4  -7 -18-32.4171 19.5238   1
  -4  -7 -19 19.1074 47.6905   1
  -4  -7 -19-29.1772 19.9071   1
   4   8 -12-33.4883 93.1806   1
   4   8 -12-20.8995  64.786   1
   4   8 -11 334.103 62.7582   1
   4   8 -11 295.202  73.781   1
   4   8 -10 536.024  67.302   1
   4   8 -10 494.351 80.5585   1
   4   8  -9 238.748 58.7549   1
   4   8  -9 329.431 70.5261   1
   4   8  -8 201.689 51.2847   1
   4   8  -8 59.1624 59.7529   1
   4   8  -7 142.648  50.155   1
   4   8  -7-42.3531 58.9573   1
   4   8  -6 1551.53 97.4407   1
   4   8  -6 1578.78 108.258   1
   4   8  -5 115.816 46.4428   1
   4   8  -5 92.8024 54.2903   1
   4   8  -4 999.615 117.832   1
   4   8  -4 1058.37 80.7381   1
   4   8  -3 1039.48 64.3603   1
   4   8  -2 600.364 49.1379   1
   4   8  -1 1434.90 104.037   1
  -4  -8   1 1303.91  20.815   1
   4   8   0 42.1892 30.3026   1
  -4  -8   0 56.4833 19.0431   1
   4   8   1 5038.83 183.411   1
  -4  -8  -1 5113.31 166.354   1
   4   8   2 151.025 28.3789   1
  -4  -8  -2 123.495 19.3926   1
   4   8   3 8529.17 397.093   1
  -4  -8  -3 7530.42 271.619   1
  -4  -8  -3 7601.51 283.038   1
   4   8   4 4583.71 135.663   1
  -4  -8  -4 4449.49 143.425   1
  -4  -8  -4 4655.07 134.062   1
   4   8   5-14.2807 19.0767   1
  -4  -8  -5-49.8861 31.8107   1
   4   8   6 3936.91 105.037   1
  -4  -8  -6 3921.80 134.169   1
   4   8   7-14.3725 28.1193   1
  -4  -8  -7 6.47752 15.1054   1
   4   8   8 78.8566 17.7839   1
  -4  -8  -8 53.6737 15.2974   1
   4   8   9 67.7305 30.2947   1
  -4  -8  -9 64.5224 24.9483   1
   4   8  10 628.253 42.4266   1
  -4  -8 -10 683.107 35.5927   1
   4   8  11 1490.44 66.0417   1
  -4  -8 -11 1467.63 36.9974   1
   4   8  12 135.096 19.3305   1
  -4  -8 -12 106.471 16.3241   1
   4   8  13 37.0736 30.0919   1
  -4  -8 -13-9.22218 25.2095   1
   4   8  14  181.93 33.9469   1
  -4  -8 -14 191.253 17.5703   1
   4   8  15 610.464 28.4165   1
  -4  -8 -15 679.949 38.2407   1
   4   8  16 38.3792 18.6205   1
  -4  -8 -16 68.9632 16.2268   1
   4   8  17 1.15957 18.5005   1
  -4  -8 -17 26.2096 46.8957   1
  -4  -8 -17 9.85534 23.2456   1
  -4  -8 -18-57.2354 49.0785   1
  -4  -8 -18 16.3432 18.2183   1
  -4  -8 -19-8.06231 50.6772   1
   4   9 -12 159.542 107.578   1
   4   9 -12  268.12 130.515   1
   4   9 -11 67.7114 94.8886   1
   4   9 -11-105.103 67.8002   1
   4   9 -10 242.332   61.03   1
   4   9 -10 157.511 117.344   1
   4   9  -9 298.906 60.8065   1
   4   9  -9 373.409 74.3322   1
   4   9  -8 447.365 66.6359   1
   4   9  -8 512.707 79.3394   1
   4   9  -7 1398.79 96.7322   1
   4   9  -7 1538.15 113.321   1
   4   9  -6 4362.31 227.257   1
   4   9  -6 4299.06 251.551   1
   4   9  -5  347.14 92.9273   1
   4   9  -5  263.26 62.6661   1
   4   9  -4 654.515 99.8004   1
   4   9  -4 565.852 67.5183   1
   4   9  -3 1206.60 73.2089   1
   4   9  -3 1266.41 84.4533   1
   4   9  -2 2454.27 112.148   1
   4   9  -1  599.10 83.4744   1
  -4  -9   1 642.503 25.3999   1
   4   9   0 2001.31 81.1394   1
  -4  -9   0 1961.18 58.0991   1
   4   9   1 186.693 31.9326   1
  -4  -9  -1 163.411 26.7038   1
   4   9   2 226.769 30.2532   1
  -4  -9  -2 191.535 34.4912   1
   4   9   3 68.2416 25.1313   1
  -4  -9  -3 28.4577 36.7333   1
   4   9   4 5139.42 214.127   1
  -4  -9  -4 4529.97 217.172   1
   4   9   5 1372.49 43.5704   1
  -4  -9  -5 1361.24 57.1765   1
  -4  -9  -5 1587.52 66.3694   1
   4   9   6 519.364 24.7727   1
  -4  -9  -6 531.781 67.8481   1
  -4  -9  -6 525.828 38.7741   1
   4   9   7 76.2228 29.4418   1
  -4  -9  -7 19.7912 34.1461   1
  -4  -9  -7 60.8792 27.0436   1
   4   9   8 6574.41 203.456   1
  -4  -9  -8 6359.02  292.70   1
  -4  -9  -8 6490.13 235.987   1
   4   9   9 289.678  32.815   1
  -4  -9  -9 285.652 16.3755   1
   4   9  10 1899.09 68.4867   1
  -4  -9 -10 1984.21 42.9398   1
   4   9  11 251.474 18.1634   1
  -4  -9 -11 228.076 14.5396   1
   4   9  12 316.175 18.0741   1
  -4  -9 -12 329.096  15.001   1
   4   9  13 285.614 28.7474   1
  -4  -9 -13 306.098 14.6758   1
   4   9  14 17.7777 14.9204   1
  -4  -9 -14 6.98197 46.3076   1
  -4  -9 -14 15.7862 11.8634   1
   4   9  15 590.719 36.8313   1
  -4  -9 -15 913.274 68.4803   1
  -4  -9 -15 601.536 30.5023   1
   4   9  16   37.64 23.7519   1
  -4  -9 -16-3.79874 49.5369   1
  -4  -9 -16 4.55656 12.3953   1
  -4  -9 -17 96.5651 51.1991   1
  -4  -9 -18 291.079 100.098   1
  -4  -9 -19 214.494 59.9278   1
   4  10 -11 178.638 105.081   1
   4  10 -11 109.305 126.032   1
   4  10 -10 84.9766 94.7242   1
   4  10 -10-11.7076  66.596   1
   4  10  -9 88.9259 93.3036   1
   4  10  -9 149.894 107.658   1
   4  10  -8-31.6943 51.8011   1
   4  10  -8 12.0154 62.7111   1
   4  10  -7 339.001 60.7198   1
   4  10  -7 405.026 119.059   1
   4  10  -6 1313.47  144.24   1
   4  10  -6 1280.45 100.606   1
   4  10  -5  677.37 112.773   1
   4  10  -5 765.328 77.6278   1
   4  10  -4 2082.23 111.396   1
   4  10  -4 2075.04  122.78   1
   4  10  -3 249.517 49.0044   1
   4  10  -3 192.747 54.4777   1
   4  10  -2 2783.93 135.602   1
   4  10  -2 2844.40 146.652   1
   4  10  -1-48.0798 66.1815   1
   4  10  -1 5.50933 44.2685   1
   4  10   0 1436.84 71.2167   1
  -4 -10   0 1562.13 54.3942   1
   4  10   1  413.68 39.6072   1
  -4 -10  -1 427.629 35.1137   1
   4  10   2-20.1609 27.6119   1
  -4 -10  -2 26.9693 18.1565   1
   4  10   3 680.357 36.6653   1
  -4 -10  -3 702.078  32.557   1
   4  10   4 1968.36 62.4705   1
  -4 -10  -4 2065.49 68.4437   1
   4  10   5 19.2796 34.0953   1
  -4 -10  -5 18.2747 28.0506   1
   4  10   6 139.717 32.4027   1
  -4 -10  -6 124.271 55.3941   1
   4  10   7 573.041 37.3589   1
  -4 -10  -7 548.877 45.6904   1
  -4 -10  -7 575.874 35.0524   1
   4  10   8 176.747 16.6053   1
  -4 -10  -8  197.25 41.0664   1
  -4 -10  -8 205.592 26.5549   1
   4  10   9 5123.32 176.149   1
  -4 -10  -9 5364.84 349.529   1
  -4 -10  -9 4987.09 129.015   1
   4  10  10 97.9279 23.8718   1
  -4 -10 -10 119.154  77.218   1
  -4 -10 -10 112.347 12.3094   1
   4  10  11 314.728 25.5751   1
  -4 -10 -11 397.471 88.1101   1
  -4 -10 -11 323.617 13.1587   1
   4  10  12 191.384 13.4112   1
  -4 -10 -12 295.798 85.8278   1
  -4 -10 -12 200.833 11.1929   1
   4  10  13 25.8177 18.3067   1
  -4 -10 -13 137.766 79.5583   1
   4  10  14 234.713 21.4288   1
  -4 -10 -14 307.101 89.5373   1
  -4 -10 -14 206.935  10.964   1
   4  10  15-4.81446 10.7043   1
  -4 -10 -15-63.8647 83.7884   1
  -4 -10 -15 10.5343 14.1436   1
  -4 -10 -16 197.039  56.529   1
  -4 -10 -17 141.932 55.1602   1
  -4 -10 -18 -37.274 55.0927   1
   4  11 -10 274.838 112.059   1
   4  11 -10 249.738 79.2088   1
   4  11  -9 16.4218 95.3549   1
   4  11  -9 61.7913 65.5146   1
   4  11  -8 61.6837 90.4314   1
   4  11  -8 46.4819  108.87   1
   4  11  -7  50.409 85.8156   1
   4  11  -7-59.8819  60.476   1
   4  11  -6 604.539 108.119   1
   4  11  -6 567.611 127.276   1
   4  11  -5 113.718   47.67   1
   4  11  -5 105.098 55.0156   1
   4  11  -4  188.34 48.1317   1
   4  11  -4 240.207 53.2869   1
   4  11  -3 37.7823 41.2565   1
   4  11  -3 82.7783 78.5927   1
   4  11  -2 1934.60 153.745   1
   4  11  -2 1966.03 106.627   1
   4  11  -1 2019.79 97.2181   1
   4  11  -1 1924.99 165.071   1
   4  11   0  940.72 60.6382   1
   4  11   0 984.221 66.4164   1
  -4 -11   0 1003.20  43.628   1
   4  11   1 7872.82 394.771   1
  -4 -11  -1 8288.16 370.763   1
   4  11   2 962.883 85.2841   1
  -4 -11  -2 1020.11 38.3771   1
   4  11   3  152.32 49.9437   1
  -4 -11  -3 180.343 24.6674   1
   4  11   4 2173.59 70.4539   1
  -4 -11  -4 2278.33 76.7703   1
   4  11   5 277.681 24.0746   1
  -4 -11  -5 339.192 34.0209   1
   4  11   6 87.0179 18.0335   1
  -4 -11  -6 126.803 55.0732   1
   4  11   7 85.7647 17.0234   1
  -4 -11  -7 147.966  34.815   1
   4  11   8 136.283 25.9406   1
  -4 -11  -8  132.15 38.5608   1
   4  11   9 135.321 13.5935   1
  -4 -11  -9 82.2365   71.97   1
   4  11  10 1003.86 34.4577   1
  -4 -11 -10 1148.36 72.0519   1
  -4 -11 -10 1018.91 31.1982   1
   4  11  11 378.542  21.225   1
  -4 -11 -11 525.849 56.1635   1
  -4 -11 -11 400.922 12.1109   1
   4  11  12 134.112   15.61   1
  -4 -11 -12 200.552 49.7661   1
  -4 -11 -12 111.373 12.8812   1
   4  11  13  64.832 13.5624   1
  -4 -11 -13 172.447 48.2961   1
  -4 -11 -13 62.7474 10.6174   1
   4  11  14 47.3155  11.122   1
  -4 -11 -14 57.4174 50.8919   1
  -4 -11 -15 163.503 55.6131   1
  -4 -11 -16 112.461 56.9507   1
  -4 -11 -17 -85.824 96.4282   1
  -4 -11 -18 43.3692 95.4067   1
   4  12  -9 19.5731 59.5328   1
   4  12  -9 112.035 68.0765   1
   4  12  -8 20.5983 57.5947   1
   4  12  -8 191.874 66.1044   1
   4  12  -7 123.937 55.3245   1
   4  12  -7 175.056 110.373   1
   4  12  -6-7.44199 49.1415   1
   4  12  -6 11.8923 57.6077   1
   4  12  -5 112.637 46.9654   1
   4  12  -5  24.204 54.7266   1
   4  12  -4-15.4432 42.8074   1
   4  12  -4 34.2271 82.2797   1
   4  12  -3-60.2702 41.3341   1
   4  12  -3-67.9308 46.2364   1
   4  12  -2 90.0827 64.7259   1
   4  12  -2 70.6409 73.8435   1
   4  12  -1 126.629 36.7345   1
   4  12  -1 96.1455 40.5224   1
   4  12   0 1627.71 119.497   1
   4  12   0 1669.46 80.9319   1
  -4 -12   0 1721.19 57.4178   1
   4  12   1-18.9896 30.6297   1
   4  12   1-48.3674  56.755   1
  -4 -12  -1 44.3714 29.9108   1
   4  12   2 868.975 72.2497   1
   4  12   2 758.223 48.2557   1
  -4 -12  -2 826.698 33.0661   1
   4  12   3 1222.35 83.3961   1
   4  12   3 1253.52 56.5079   1
  -4 -12  -3 1334.97 48.5466   1
   4  12   4 1064.65 70.1899   1
  -4 -12  -4 1127.43 46.8749   1
   4  12   5 2459.40 74.2996   1
  -4 -12  -5 2653.30 93.1882   1
   4  12   6 51.7829 30.2254   1
  -4 -12  -6 138.361 53.5085   1
   4  12   7  471.15 34.7549   1
  -4 -12  -7 543.934 43.8931   1
   4  12   8 835.317 37.0704   1
  -4 -12  -8 914.542 55.9255   1
   4  12   9 4.02749 18.8338   1
  -4 -12  -9 60.5029 64.7594   1
   4  12  10 77.4455 16.2552   1
  -4 -12 -10  160.56 43.0195   1
   4  12  11 304.847 16.4042   1
  -4 -12 -11 470.204 52.4409   1
  -4 -12 -13-52.7782 47.2706   1
  -4 -12 -14 51.3564 49.5396   1
  -4 -12 -15 17.1519  52.538   1
  -4 -12 -16  54.445 55.7999   1
  -4 -12 -17 159.048 60.5728   1
   4  13  -7 203.267 58.9654   1
   4  13  -7 151.328 65.6853   1
   4  13  -6 18.6387 50.2596   1
   4  13  -6-4.95054 94.6432   1
   4  13  -5 4.85185 46.9776   1
   4  13  -5 61.6657 53.7359   1
   4  13  -4 13.9179 45.4412   1
   4  13  -4 105.113 51.1578   1
   4  13  -3 163.269 73.2401   1
   4  13  -3 36.1302 82.6887   1
   4  13  -2 209.962  43.168   1
   4  13  -2 215.431 47.9235   1
   4  13  -1 19.9866 35.6462   1
   4  13  -1-29.3947 39.5308   1
   4  13   0 58.7024 57.3694   1
   4  13   0 40.8243 62.9513   1
  -4 -13   0 96.2581 15.4338   1
   4  13   1-20.0318 30.3658   1
   4  13   1 59.5836 32.1632   1
  -4 -13  -1 68.2078 28.1809   1
   4  13   2 395.422 33.8312   1
   4  13   2 351.928 36.2535   1
  -4 -13  -2 415.412 24.5958   1
   4  13   3 522.397 52.2907   1
   4  13   3 410.396 34.0434   1
  -4 -13  -3 450.332 28.8309   1
   4  13   4 116.669 40.1546   1
   4  13   4  133.14 43.8613   1
  -4 -13  -4 218.139 27.1557   1
   4  13   5 141.968 21.1817   1
   4  13   5 135.383 22.8042   1
  -4 -13  -5 214.228 27.8477   1
   4  13   6  384.21 36.4224   1
   4  13   6 404.616 23.8799   1
  -4 -13  -6 427.425 58.9876   1
   4  13   7 68.2644 15.5858   1
   4  13   7   97.83 16.3343   1
  -4 -13  -7 92.4552  33.595   1
   4  13   8 359.064 26.2492   1
   4  13   8 309.226 16.9446   1
  -4 -13  -8 407.789 70.0317   1
   4  13   9 1095.71 25.7621   1
  -4 -13  -9 1420.29 71.3258   1
   4  13  10 147.396 14.7904   1
  -4 -13 -10 243.891 46.3612   1
   4  13  11 63.6313 5.45848   1
  -4 -13 -11  168.59  46.628   1
  -4 -13 -12 299.754 55.1031   1
  -4 -13 -13 43.9794 84.3936   1
  -4 -13 -14-89.6146 91.2664   1
  -4 -13 -15-218.406 104.406   1
  -4 -13 -16 147.822 104.424   1
   4  14  -6 73.3914 92.5631   1
   4  14  -6 128.783 61.1113   1
   4  14  -5 232.799 84.6894   1
   4  14  -5 22.5003 55.9377   1
   4  14  -4-20.5961 75.4112   1
   4  14  -4 56.3702 85.3285   1
   4  14  -3 86.4091  42.141   1
   4  14  -3 57.8193 48.8986   1
   4  14  -2 106.963 41.9315   1
   4  14  -2 207.342 45.9641   1
   4  14  -1  460.17 74.8007   1
   4  14  -1 412.919 84.1458   1
   4  14   0 80.9059 34.4426   1
   4  14   0 69.9045 63.1061   1
   4  14   1 48.8958 53.8326   1
   4  14   1 97.0509 35.0695   1
  -4 -14  -1 65.5295 29.7226   1
   4  14   2 318.019 33.0315   1
   4  14   2  271.99 36.4515   1
  -4 -14  -2 378.536 26.0919   1
   4  14   3 148.191 26.7866   1
   4  14   3 49.2499 48.3106   1
  -4 -14  -3  146.05 24.4216   1
   4  14   4 5.86665  21.861   1
   4  14   4 22.2649 38.9122   1
  -4 -14  -4  49.536 24.6432   1
   4  14   5 74.2223 19.5187   1
   4  14   5 58.7321 35.4346   1
  -4 -14  -5 82.8553 27.7654   1
   4  14   6 323.102 33.1774   1
   4  14   6  246.70 35.0985   1
  -4 -14  -6 347.599 54.3962   1
   4  14   7 141.739 15.6991   1
   4  14   7 135.866 27.6777   1
  -4 -14  -7 210.611 32.3153   1
   4  14   8 9.34095 11.7274   1
   4  14   8 6.31298 20.7369   1
  -4 -14  -8 37.0208  58.477   1
   4  14   9 28.9795 15.3692   1
   4  14   9 15.3834 10.3309   1
  -4 -14  -9 9.40647 36.9903   1
   4  14  10 199.104 12.5959   1
  -4 -14 -10 308.709 45.1307   1
  -4 -14 -11 14.2996 74.8103   1
  -4 -14 -12 818.354 116.946   1
  -4 -14 -13 822.091 75.4258   1
  -4 -14 -14 173.258 58.5104   1
  -4 -14 -15-49.1234 57.8568   1
   4  15  -4-79.2975 45.8773   1
   4  15  -4 71.0953 50.8604   1
   4  15  -3 39.7464 42.6557   1
   4  15  -3 11.2575 47.0345   1
   4  15  -2 250.046 73.0982   1
   4  15  -2 118.303 82.7915   1
   4  15  -1 695.274 54.0679   1
   4  15  -1 675.528 59.6941   1
   4  15   0 82.3371 33.9954   1
   4  15   0  22.193 37.4316   1
   4  15   1 96.7522  52.607   1
   4  15   1 60.0159 34.6553   1
  -4 -15  -1 88.6004 18.9334   1
   4  15   2 110.187 29.0018   1
   4  15   2 104.036 52.7981   1
  -4 -15  -2 109.219 20.7252   1
   4  15   3 87.1421 25.2208   1
   4  15   3-48.0336 46.2996   1
  -4 -15  -3 69.5961 24.2458   1
   4  15   4-11.3964 21.7438   1
   4  15   4 73.4202 39.5971   1
  -4 -15  -4 20.0399 24.2716   1
   4  15   5 10.4429 19.3409   1
   4  15   5 106.868 34.9068   1
  -4 -15  -5 61.5768 26.8223   1
   4  15   6 41.5029  28.218   1
   4  15   6 56.0435  30.617   1
  -4 -15  -6 64.1579 51.0665   1
   4  15   7 36.7817 14.3205   1
   4  15   7 59.5399 25.4698   1
  -4 -15  -7-27.3708 32.7562   1
   4  15   8-17.6347 11.6772   1
   4  15   8 11.9801 12.5825   1
  -4 -15  -8 23.3637 31.8246   1
  -4 -15  -9 180.432 37.8373   1
  -4 -15 -11 32.8089  43.256   1
  -4 -15 -12  108.22 49.9103   1
  -4 -15 -13 164.264 54.2578   1
  -4 -15 -14 38.3302 54.4075   1
   4  16  -2 38.8242 40.6915   1
   4  16  -2 9.29394 44.2196   1
   4  16  -1 458.191 48.4808   1
   4  16  -1 374.356 51.4659   1
   4  16   0 150.377 60.2746   1
   4  16   0  92.594 38.5772   1
   4  16   1-20.0547 31.0329   1
   4  16   1-89.4851 55.2949   1
   4  16   2-41.7508  45.623   1
   4  16   2-13.0215  50.585   1
  -4 -16  -2 25.9084 33.4713   1
   4  16   3 467.359 33.7478   1
   4  16   3 507.511 58.4411   1
  -4 -16  -3  520.77 48.2336   1
   4  16   4 276.232 26.6143   1
   4  16   4 320.689 47.8186   1
  -4 -16  -4 355.457 50.3326   1
   4  16   5 68.7601 19.7644   1
   4  16   5 65.9586 36.5513   1
  -4 -16  -5 78.7596 28.4278   1
   4  16   6 83.2558 30.9119   1
  -4 -16  -6 82.4778  31.386   1
   4  16   7 256.228 17.5462   1
  -4 -16  -7  448.96 62.6257   1
  -4 -16  -8 29.9937 36.0737   1
  -4 -16  -9 90.5221  40.366   1
  -4 -16 -11-52.0684 41.9729   1
  -4 -16 -12 -26.346 45.2024   1
   4  17   2 146.338  31.234   1
   4  17   2 159.391 54.4783   1
   4  17   3 294.675 49.6613   1
   4  17   3 326.384 33.0503   1
  -4 -17  -3 369.892 44.8737   1
   4  17   4-11.4729 36.8663   1
   4  17   4 93.0839 40.4622   1
  -4 -17  -4 81.7718 45.0038   1
   4  17   5 -16.693 31.2087   1
   4  17   5 56.5653 34.2945   1
  -4 -17  -5 17.3761 49.0625   1
  -4 -17  -6 84.2543 32.1591   1
  -4 -17  -7 210.269 61.3475   1
  -4 -17  -8 159.137 40.5268   1
  -4 -17  -9 31.8916 65.4567   1
   5 -13  -5 199.175 61.0021   1
  -5  13   5 161.096 63.7902   1
  -5  13   4 56.3036 95.6753   1
  -5  13   3-7.20174 54.7359   1
  -5  13   2-6.79959 50.4341   1
  -5  13   1 93.5248 86.4409   1
  -5  13   0 29.0974 46.0703   1
  -5  13   0 43.7595 29.2063   1
  -5  13  -1  110.80 75.6942   1
  -5  13  -1 29.2248 20.8605   1
  -5  13  -2  57.937 75.9207   1
  -5  13  -2 68.8049   25.03   1
  -5  13  -3 47.8883 44.2359   1
  -5  13  -3 135.257 47.8582   1
   5 -12  -8-12.3044  59.781   1
   5 -12  -7 134.014 59.8922   1
   5 -12  -6 110.354   54.48   1
  -5  12   6-7.16734 57.2923   1
   5 -12  -5 97.6895 60.2213   1
  -5  12   5  270.28 60.5085   1
   5 -12  -4 523.022 66.8065   1
  -5  12   4 445.829 69.6253   1
  -5  12   3-71.1526 53.9687   1
  -5  12   2 53.2007 51.0945   1
  -5  12   1 1110.51 73.8808   1
  -5  12   1 661.976 36.9423   1
  -5  12   0 144.033 81.2494   1
  -5  12   0 39.8592 30.8028   1
  -5  12  -1 96.1371 44.7492   1
  -5  12  -1 24.1483 34.7915   1
  -5  12  -2 40.5234 43.2591   1
  -5  12  -2 23.3767 24.2971   1
  -5  12  -3 -76.774 67.9387   1
  -5  12  -3 34.9081 45.3332   1
  -5  12  -4 61.9433 38.7631   1
  -5  12  -4-15.9896 31.2743   1
  -5  12  -5 159.489 39.8174   1
  -5  12  -5 27.8585 61.6374   1
  -5  12  -6 33.4418 60.6431   1
  -5  12  -6  55.201 65.4946   1
   5 -11 -10 110.766  64.199   1
   5 -11  -9 -85.738 63.1906   1
   5 -11  -8 62.8725 60.3484   1
   5 -11  -7 80.0887 92.7559   1
   5 -11  -6-21.0557 53.2198   1
  -5  11   6-96.7331 55.3917   1
   5 -11  -5-81.7972 49.4607   1
  -5  11   5 127.334 52.7782   1
   5 -11  -4 370.822   60.89   1
  -5  11   4 353.944  61.719   1
   5 -11  -3 162.206 52.6415   1
  -5  11   3 171.017 52.9342   1
  -5  11   2 56.4908 49.3122   1
  -5  11   2 67.0581 11.8386   1
  -5  11   1  236.70 89.9629   1
  -5  11   1 196.255 27.3019   1
  -5  11   0 591.855 59.5732   1
  -5  11   0 386.444 39.3311   1
  -5  11  -1 454.032 87.7691   1
  -5  11  -1 292.508 43.6212   1
  -5  11  -2 113.991 42.2831   1
  -5  11  -2-31.6053  41.921   1
  -5  11  -3 112.773 42.4599   1
  -5  11  -3  77.909 29.1987   1
  -5  11  -4 29.0181  61.719   1
  -5  11  -4-25.0229  30.512   1
  -5  11  -5-39.2387 34.8657   1
  -5  11  -5 4.49939 58.9634   1
  -5  11  -6-10.1901 33.4557   1
  -5  11  -6 71.7335 38.9324   1
  -5  11  -7 28.5864 59.1532   1
  -5  11  -7 86.6572 43.3138   1
  -5  11  -8 42.9237 34.0775   1
  -5  11  -8 107.367 48.7413   1
   5 -10 -11-122.374 104.582   1
   5 -10 -10 175.375 107.986   1
   5 -10  -9 38.8624 58.3684   1
   5 -10  -8 -49.558 57.7054   1
   5 -10  -7 78.9699 53.6351   1
  -5  10   7-4.92672 54.6702   1
   5 -10  -6-83.8659 87.3075   1
  -5  10   6 216.976 91.5563   1
   5 -10  -5  21.847 49.8744   1
  -5  10   5-117.858 52.3377   1
   5 -10  -4 135.804 83.6843   1
  -5  10   4 98.4697 88.8015   1
   5 -10  -3 19.7536 48.4034   1
  -5  10   3-2.99483 47.0803   1
  -5  10   3 22.7354  13.868   1
  -5  10   2 118.392  81.292   1
  -5  10   2-23.1157  18.333   1
  -5  10   1 130.008 49.3719   1
  -5  10   1 136.481 25.8167   1
  -5  10   0 1452.30  125.22   1
  -5  10   0 950.346 53.8018   1
   5 -10   1 27.7055 25.6668   1
  -5  10  -1-67.1216 43.8395   1
  -5  10  -1 14.5112 36.2522   1
   5 -10   2  -8.899 29.7832   1
  -5  10  -2 15.4242 67.0791   1
  -5  10  -2-37.2547 43.0567   1
   5 -10   3 70.2145 33.8683   1
  -5  10  -3 60.2292 38.5436   1
  -5  10  -3 18.8226 29.0953   1
   5 -10   4 181.249 39.1832   1
  -5  10  -4 43.2071 66.0433   1
   5 -10   5-40.5712 39.8409   1
  -5  10  -5 27.8774 37.3176   1
  -5  10  -5-20.2707 34.3491   1
   5 -10   6 71.8391 43.7031   1
  -5  10  -6 74.1033 36.4903   1
  -5  10  -6 74.5277 39.6144   1
  -5  10  -7 171.747 58.0679   1
  -5  10  -7-29.2141 42.6466   1
  -5  10  -8 39.3928  54.647   1
  -5  10  -8-7.81316 76.7744   1
  -5  10  -9 42.2645 31.9272   1
  -5  10  -9  77.288 85.9176   1
  -5  10 -10 106.331 32.5086   1
  -5  10 -10 127.899 97.2409   1
   5  -9 -12 78.4446 57.1783   1
   5  -9 -11 385.538 65.0021   1
   5  -9 -10 35.0502 53.3928   1
   5  -9  -9 113.872 90.9387   1
   5  -9  -8 84.5385 94.0272   1
   5  -9  -7 33.0601 54.5369   1
  -5   9   7-99.5434 52.6492   1
   5  -9  -6  779.19 79.0477   1
  -5   9   6 795.032 128.598   1
   5  -9  -5 -35.237 48.8616   1
  -5   9   5-16.0095 50.1134   1
   5  -9  -4 44.0968 46.9775   1
  -5   9   4-17.6763 48.4446   1
  -5   9   4 24.4316 8.79046   1
   5  -9  -3-1.77749 81.5928   1
  -5   9   3 10.9861 77.9616   1
  -5   9   3 7.59541 8.61007   1
   5  -9  -2-39.4358 47.3001   1
   5  -9  -2 84.2931 15.7276   1
  -5   9   2 61.3245 47.3321   1
  -5   9   2 93.4199 19.8734   1
   5  -9  -1 155.574 33.6029   1
  -5   9   1 199.002 80.5286   1
  -5   9   1 146.125 26.3348   1
   5  -9   0 30.8268 22.1945   1
  -5   9   0-5.75557 42.6558   1
  -5   9   0 11.0055 30.6002   1
   5  -9   1  203.49  29.531   1
  -5   9  -1 160.934 44.2285   1
  -5   9  -1 211.943 25.1822   1
   5  -9   2  661.10 43.7671   1
  -5   9  -2 720.464 56.2385   1
  -5   9  -2 620.391 60.4763   1
   5  -9   3 336.342 39.2357   1
  -5   9  -3 307.141 46.4766   1
  -5   9  -3 264.257 34.3345   1
   5  -9   4 824.959 57.2283   1
  -5   9  -4 870.566  59.838   1
  -5   9  -4  697.25 83.0867   1
   5  -9   5 173.537 75.5199   1
  -5   9  -5 118.351 67.9039   1
  -5   9  -5 203.272 39.5961   1
   5  -9   6 143.222  81.582   1
  -5   9  -6 170.196 38.5781   1
  -5   9  -6 189.572 44.0096   1
   5  -9   7  249.55 54.0022   1
  -5   9  -7 300.645 39.8686   1
  -5   9  -7 206.913 80.3518   1
   5  -9   8 139.263 51.6321   1
  -5   9  -8 25.8111 57.7777   1
  -5   9  -8 41.7722 77.6719   1
   5  -9   9 96.9485 55.1324   1
  -5   9  -9 58.8856 33.2376   1
  -5   9  -9 99.7037 83.1772   1
  -5   9 -10  257.71 35.7547   1
  -5   9 -10 171.824 100.106   1
  -5   9 -11 43.7532  30.743   1
  -5   9 -11 30.4032  97.908   1
   5  -8 -13 181.135 93.3147   1
   5  -8 -12-131.135 90.8007   1
   5  -8 -11 193.237 55.3156   1
   5  -8 -10 257.685 55.2918   1
   5  -8  -9 106.113 51.7384   1
   5  -8  -8 126.936  51.732   1
   5  -8  -7-49.5009 88.6663   1
  -5   8   7-10.3421 50.3457   1
   5  -8  -6 720.262 76.0448   1
  -5   8   6 709.673 72.7291   1
   5  -8  -5 1863.26 117.496   1
  -5   8   5 1930.64 184.502   1
   5  -8  -4  166.29 49.2431   1
   5  -8  -4 110.931 14.0049   1
  -5   8   4 206.978 50.8324   1
   5  -8  -3 111.093 47.8872   1
   5  -8  -3 90.6807 21.8888   1
  -5   8   3 82.8508 49.3205   1
  -5   8   3 87.7026 15.8155   1
   5  -8  -2 936.794 73.4222   1
  -5   8   2 1105.85 124.749   1
   5  -8  -1 343.108 24.2809   1
  -5   8   1 346.843 52.5972   1
  -5   8   1 270.404 18.5943   1
   5  -8   0 2178.79 74.4643   1
  -5   8   0 2319.57 110.157   1
  -5   8   0 2097.85 89.6622   1
   5  -8   1-2.94915 28.8483   1
  -5   8  -1-20.0256 40.8569   1
  -5   8  -1 67.9251 39.2441   1
   5  -8   2-11.5394 31.4886   1
  -5   8  -2 33.5425 41.0323   1
  -5   8  -2 21.6333 44.8478   1
   5  -8   3 1083.70 62.5412   1
  -5   8  -3 1446.89 113.053   1
  -5   8  -3 989.258 53.0904   1
   5  -8   4 524.174 50.9731   1
  -5   8  -4 644.971 51.0053   1
  -5   8  -4 543.288 74.8908   1
   5  -8   5 203.916 77.5316   1
  -5   8  -5 236.375 67.3939   1
  -5   8  -5 210.609 40.1351   1
   5  -8   6 9.90726 43.0695   1
  -5   8  -6 17.6087 35.1375   1
  -5   8  -6-12.8337 40.3767   1
   5  -8   7 217.302 52.1319   1
  -5   8  -7  235.93 38.7182   1
  -5   8  -7 188.377 79.9987   1
   5  -8   8 184.372 52.8421   1
  -5   8  -8 200.672 62.1975   1
  -5   8  -8  61.702 48.4188   1
   5  -8   9 53.8272 92.5318   1
  -5   8  -9 102.697 34.5298   1
  -5   8  -9 31.2014 48.3474   1
   5  -8  10 205.154 64.3566   1
  -5   8 -10 270.894 38.1136   1
  -5   8 -10 256.342 58.2176   1
   5  -8  11 270.101 71.1901   1
  -5   8 -11 372.777 38.2776   1
  -5   8 -11 270.324 66.6709   1
  -5   8 -12 58.2032 53.3824   1
  -5   8 -12  108.72 63.1015   1
  -5   8 -13 377.866 61.7294   1
  -5   8 -13 292.316 131.555   1
   5  -7 -12 303.319 90.6278   1
   5  -7 -11 -30.017 78.6384   1
   5  -7 -10 300.362 88.7672   1
   5  -7  -9 155.073 49.1325   1
   5  -7  -8 128.339 48.6229   1
   5  -7  -7 188.677 49.7828   1
  -5   7   7 128.132 50.3818   1
   5  -7  -6 64.8333 82.1686   1
  -5   7   6-61.6675 46.8867   1
   5  -7  -5 624.737 64.7638   1
  -5   7   5  542.99  61.435   1
   5  -7  -4  361.43  94.526   1
  -5   7   4 398.659 93.7422   1
   5  -7  -3 86.4894  45.608   1
   5  -7  -3 6.57013 23.7329   1
  -5   7   3 39.5882 47.1193   1
  -5   7   3 9.59325 15.9938   1
   5  -7  -2 198.985 51.5836   1
   5  -7  -2 182.587 32.3841   1
  -5   7   2 178.916 50.3132   1
  -5   7   2 162.621 23.8464   1
   5  -7  -1 1308.18 78.8657   1
   5  -7  -1 1169.66 65.0132   1
  -5   7   1 1471.40 126.303   1
  -5   7   1 1050.11 50.0335   1
   5  -7   0 201.602 47.1189   1
  -5   7   0 140.327 45.3435   1
  -5   7   0 168.227 22.1965   1
   5  -7   1 116.996 56.5493   1
  -5   7  -1 227.992 46.5385   1
  -5   7  -1 68.6689 44.1847   1
   5  -7   2 20.4471 34.1339   1
  -5   7  -2 80.9483 72.0166   1
  -5   7  -2  5.2049 48.7475   1
   5  -7   3 503.337 49.1166   1
  -5   7  -3 572.237 52.2977   1
  -5   7  -3 482.709 41.2999   1
   5  -7   4 932.345  108.64   1
  -5   7  -4 983.464  63.735   1
  -5   7  -4  852.84 93.8482   1
   5  -7   5 718.168 108.519   1
  -5   7  -5 962.369 58.3931   1
  -5   7  -5  749.54 57.7546   1
   5  -7   6 84.3384 48.2492   1
  -5   7  -6 100.647 39.7887   1
  -5   7  -6 241.872 72.6068   1
   5  -7   7 349.772  58.768   1
  -5   7  -7 463.618 45.1552   1
  -5   7  -7 293.737 89.4872   1
   5  -7   8-61.2958 84.8694   1
  -5   7  -8 0.51677 55.8988   1
  -5   7  -8 29.9353 45.2081   1
   5  -7   9  85.577 53.4868   1
  -5   7  -9 86.0275 32.6084   1
  -5   7  -9-3.32345 49.4704   1
   5  -7  10 70.8641 56.1608   1
  -5   7 -10 52.5938 30.9223   1
  -5   7 -10 37.6009 50.8394   1
   5  -7  11 -72.503 99.8779   1
  -5   7 -11 2.97948  50.218   1
  -5   7 -11-59.2996 55.6523   1
   5  -7  12 79.9371 69.5756   1
  -5   7 -12 309.248 57.6553   1
  -5   7 -12 168.036 64.8044   1
   5  -7  13-121.299 67.5983   1
  -5   7 -13 118.798 51.4243   1
  -5   7 -13 24.1859 63.5384   1
  -5   7 -14 396.766  60.629   1
  -5   7 -14 213.272 135.479   1
   5  -6 -14 51.7688 43.3092   1
   5  -6 -13 12.4179 42.6869   1
   5  -6 -12-12.6638 42.1285   1
   5  -6 -11 137.055 44.9876   1
   5  -6 -10-1.77359 41.5265   1
   5  -6  -9 467.385 90.7502   1
   5  -6  -8 1162.28 78.0613   1
   5  -6  -7 777.901 65.4291   1
  -5   6   7 713.109 66.3598   1
   5  -6  -6 721.695 62.5387   1
   5  -6  -6  643.92 14.1011   1
  -5   6   6 747.796 62.8725   1
   5  -6  -5 17.8902 45.8923   1
   5  -6  -5 18.5042 13.5535   1
  -5   6   5-22.4609 44.2988   1
  -5   6   5 7.48507  9.7847   1
   5  -6  -4 24.8677 45.3773   1
   5  -6  -4 22.0846 18.7423   1
  -5   6   4 35.8678 77.2631   1
  -5   6   4 22.5041 13.6418   1
   5  -6  -3-33.1594 41.8091   1
   5  -6  -3-1.88491 14.1395   1
  -5   6   3-55.9367 75.2364   1
  -5   6   3-6.70219 9.85104   1
   5  -6  -2 15.5658 70.1552   1
   5  -6  -2 15.2205 30.1016   1
  -5   6   2 31.5077  41.913   1
  -5   6   2 22.4958 20.9836   1
   5  -6  -1 51.2897 42.8367   1
   5  -6  -1 67.3611  37.319   1
  -5   6   1 33.2129 40.0296   1
  -5   6   1  0.9826 15.4555   1
   5  -6   0 531.445 33.6786   1
  -5   6   0 466.312 52.6304   1
  -5   6   0 435.678  25.682   1
   5  -6   1 751.546 45.0395   1
  -5   6  -1  882.32 103.029   1
  -5   6  -1 773.104 36.5168   1
   5  -6   2 329.485 68.3876   1
  -5   6  -2  345.35 48.6796   1
  -5   6  -2 264.944 33.7652   1
   5  -6   3 1261.58 69.9244   1
  -5   6  -3 1458.94 77.3597   1
  -5   6  -3 1208.41 62.8884   1
   5  -6   4  296.05 83.9654   1
  -5   6  -4 428.757 86.6316   1
  -5   6  -4  380.77 75.9789   1
   5  -6   5 1185.37 80.6755   1
  -5   6  -5 1353.81 74.6098   1
  -5   6  -5 1059.31 72.8997   1
   5  -6   6 1883.68 111.389   1
  -5   6  -6 1880.06 88.0018   1
  -5   6  -6 1751.40 162.264   1
   5  -6   7 27.0764 87.3525   1
  -5   6  -7 31.9265 34.8933   1
  -5   6  -7-88.3495 77.8158   1
   5  -6   8 1617.46  105.37   1
  -5   6  -8 1578.94  118.29   1
  -5   6  -8 1440.28 93.6444   1
   5  -6   9 290.802 62.6058   1
  -5   6  -9 304.407 38.6597   1
  -5   6  -9 209.514 56.0875   1
   5  -6  10 113.215 95.4393   1
  -5   6 -10 55.1245 33.0575   1
  -5   6 -10 25.4486 52.2422   1
   5  -6  11-66.8961 57.8829   1
  -5   6 -11 -61.661 54.5933   1
   5  -6  12 126.925  61.386   1
  -5   6 -12 11.8094 58.6211   1
   5  -6  13  354.79   74.08   1
  -5   6 -13 231.615 70.6195   1
   5  -6  14 44.3909 68.5657   1
  -5   6 -14 35.6029 65.5595   1
  -5   6 -15 273.646 132.396   1
   5  -5 -15  88.684 40.3134   1
   5  -5 -14 71.6135 40.5838   1
   5  -5 -13 2.40368 38.7953   1
   5  -5 -12  4.8586 38.8524   1
   5  -5 -11-5.39048 39.1641   1
   5  -5 -11 38.1245 12.0571   1
   5  -5 -11 48.0558 15.0192   1
   5  -5 -10 234.601  42.866   1
   5  -5 -10 175.085  13.441   1
   5  -5 -10 185.113 16.0443   1
   5  -5  -9 128.982 40.8753   1
   5  -5  -9  108.24 12.3151   1
   5  -5  -9 103.148 14.6387   1
   5  -5  -8 27.0585 68.8455   1
   5  -5  -8 11.3948 7.38796   1
   5  -5  -8 16.5666 13.7124   1
   5  -5  -7 71.7319 42.3831   1
   5  -5  -7 38.6876  13.993   1
   5  -5  -7 44.8715 14.2476   1
  -5   5   7-33.2398 43.5185   1
   5  -5  -6 -12.809 42.0287   1
   5  -5  -6 17.4792 15.5266   1
  -5   5   6-40.5275 42.8536   1
   5  -5  -5 4785.13 341.975   1
   5  -5  -5 4535.49 108.273   1
  -5   5   5 4743.03 221.135   1
   5  -5  -4 2280.12 111.279   1
   5  -5  -4 2050.99   62.32   1
  -5   5   4 2199.52 105.909   1
  -5   5   4 1906.33 50.2083   1
   5  -5  -3 492.736 87.1434   1
   5  -5  -3 489.126 20.8431   1
  -5   5   3 572.092 51.6133   1
  -5   5   3 484.919 15.4861   1
   5  -5  -2 2239.89 102.398   1
   5  -5  -2 2262.83 60.5475   1
  -5   5   2 2573.82 162.752   1
  -5   5   2 2106.93 66.2898   1
   5  -5  -1 1015.68 63.5409   1
   5  -5  -1 976.469 61.5397   1
  -5   5   1 1046.64 99.2718   1
  -5   5   1 871.587  28.165   1
   5  -5   0 318.601 30.9796   1
  -5   5   0 430.794 46.3287   1
  -5   5   0 320.345 22.5156   1
   5  -5   1 418.399 35.9295   1
  -5   5  -1 423.931 46.9983   1
  -5   5  -1 392.192 48.0668   1
   5  -5   2 913.711 54.8617   1
  -5   5  -2 1141.05 63.3241   1
  -5   5  -2 984.721  46.388   1
   5  -5   3 1369.37 72.0416   1
  -5   5  -3 1581.72 78.1165   1
  -5   5  -3 1318.42  100.54   1
   5  -5   4 963.667   66.13   1
  -5   5  -4 1269.55 107.931   1
  -5   5  -4 871.265 94.6953   1
   5  -5   5 250.649 48.2347   1
  -5   5  -5 242.082 40.9266   1
  -5   5  -5 159.315 44.0165   1
   5  -5   6 2279.95 131.491   1
  -5   5  -6 2493.95 108.597   1
  -5   5  -6 2283.44 119.088   1
   5  -5   7 1139.55 146.013   1
  -5   5  -7 1071.23 65.4401   1
  -5   5  -7 950.169  129.05   1
   5  -5   8-57.3385 55.6985   1
  -5   5  -8 88.9662 48.2899   1
   5  -5   9 250.217 106.428   1
  -5   5  -9 310.088 58.1032   1
   5  -5  10 81.3625 56.9971   1
  -5   5 -10  107.99 53.3275   1
   5  -5  11 524.516 71.3245   1
  -5   5 -11 353.153 67.3528   1
   5  -5  12 39.0834 59.0251   1
  -5   5 -12-51.3289 56.2609   1
   5  -5  13 7.79913 62.6773   1
  -5   5 -13 -59.254  60.057   1
   5  -5  14 17.2015 113.546   1
  -5   5 -14 75.9873 64.5917   1
   5  -5  15 86.9519 67.3284   1
  -5   5 -15-1.92429 111.763   1
  -5   5 -16 63.3812 122.143   1
   5  -4 -15 3.32474 36.0088   1
   5  -4 -14 26.8082 35.9742   1
   5  -4 -13-41.9582  58.847   1
   5  -4 -12  228.44 64.5575   1
   5  -4 -12 171.054 13.8875   1
   5  -4 -12 166.831 25.4179   1
   5  -4 -11 58.8392 35.4157   1
   5  -4 -11 34.3113 19.3361   1
   5  -4 -11  43.703 13.8537   1
   5  -4 -10 47.4213 35.5846   1
   5  -4 -10 62.3581 11.1859   1
   5  -4 -10  29.989 21.9168   1
   5  -4  -9 77.0002 37.8453   1
   5  -4  -9  108.61  11.697   1
   5  -4  -9 139.709  23.469   1
   5  -4  -8 1538.71 80.7457   1
   5  -4  -8 1689.55 33.5444   1
   5  -4  -8 1495.23 35.3497   1
   5  -4  -7 132.243 68.6233   1
   5  -4  -7  46.386  19.783   1
  -5   4   7  98.482  40.521   1
   5  -4  -6 2108.08 109.858   1
   5  -4  -6 2366.70   64.77   1
  -5   4   6 2260.88 109.375   1
   5  -4  -5 156.169 41.2864   1
   5  -4  -5 155.632 13.8154   1
  -5   4   5 199.931 41.9126   1
  -5   4   5 152.869 19.4816   1
   5  -4  -4 61.1983 39.7707   1
   5  -4  -4 16.9485 24.3066   1
  -5   4   4 40.6579 38.9507   1
  -5   4   4 4.48621   18.38   1
   5  -4  -3 1186.91 111.409   1
   5  -4  -3 1088.40  31.056   1
  -5   4   3 1088.95 64.4958   1
   5  -4  -2 1435.84 70.6007   1
   5  -4  -2 1424.78 41.7797   1
  -5   4   2 1502.46 68.9499   1
  -5   4   2 1295.66 46.6689   1
   5  -4  -1  123.16 38.5359   1
   5  -4  -1 67.4941 35.7497   1
  -5   4   1 103.532  36.999   1
  -5   4   1  70.877 16.4787   1
   5  -4   0 3790.94 120.869   1
  -5   4   0 4356.10 161.393   1
  -5   4   0 3434.10  102.15   1
   5  -4   1 792.349 43.4076   1
  -5   4  -1 958.631 54.2891   1
  -5   4  -1 750.305 35.3624   1
   5  -4   2 1919.33  80.079   1
  -5   4  -2 2221.33 91.4735   1
  -5   4  -2 1733.80 65.8957   1
   5  -4   3 3885.29 230.835   1
  -5   4  -3 3950.25 151.246   1
  -5   4  -3 3577.86 138.096   1
   5  -4   4 75.8871 40.2822   1
  -5   4  -4 45.5263 62.3802   1
  -5   4  -4 55.4089 34.5406   1
   5  -4   5 342.838 52.7291   1
  -5   4  -5 498.582 44.6199   1
  -5   4  -5 374.347 82.0583   1
   5  -4   6 241.383 52.9284   1
  -5   4  -6 253.946 47.6308   1
   5  -4   7 270.901 54.7581   1
  -5   4  -7 195.925 50.6496   1
   5  -4   8 498.986 66.5458   1
  -5   4  -8 476.588 104.367   1
   5  -4   9 22.2678 56.3585   1
  -5   4  -9 63.1535 51.9157   1
   5  -4  10 607.142 75.4104   1
  -5   4 -10 469.267 67.5486   1
   5  -4  11 119.192 59.1787   1
  -5   4 -11  139.52 56.0826   1
   5  -4  12 88.7595 60.3174   1
  -5   4 -12  23.747 56.5048   1
   5  -4  13 318.343 71.2044   1
  -5   4 -13 311.686  66.311   1
   5  -4  14 126.787 65.1537   1
  -5   4 -14 92.0487 63.9936   1
   5  -4  15 38.9666 114.116   1
  -5   4 -15 185.424 110.735   1
   5  -4  16  21.636 67.5998   1
  -5   4 -16  215.61 116.544   1
   5  -3 -15 -23.127 31.7881   1
   5  -3 -14 33.0339 54.5048   1
   5  -3 -14 21.7756 16.6288   1
   5  -3 -14 24.3196 30.6975   1
   5  -3 -13 72.9272 53.7759   1
   5  -3 -13 33.2514 15.5301   1
   5  -3 -13 44.0595 30.1613   1
   5  -3 -12 94.0023 16.1852   1
   5  -3 -12 98.8446 32.0284   1
   5  -3 -11 161.737 56.9502   1
   5  -3 -11 136.759 26.7043   1
   5  -3 -11 120.537 19.1102   1
   5  -3 -10 44.1352 54.4682   1
   5  -3 -10 30.8729 14.9117   1
   5  -3 -10 30.6213 18.1696   1
   5  -3  -9 57.0132 33.4184   1
   5  -3  -9 66.6003 24.6209   1
   5  -3  -9 72.5803 29.1582   1
   5  -3  -8 345.572 42.0431   1
   5  -3  -8 391.322 30.3686   1
   5  -3  -8 359.854 35.9901   1
   5  -3  -7 2011.13  95.671   1
   5  -3  -7 2233.87 51.8564   1
  -5   3   7 2210.19 101.933   1
   5  -3  -6 498.418 46.6442   1
   5  -3  -6 572.979 32.7119   1
  -5   3   6 508.164 47.3922   1
   5  -3  -5 332.809  42.927   1
   5  -3  -5 403.118 29.8026   1
  -5   3   5  375.76 43.2207   1
  -5   3   5 356.961 27.3092   1
   5  -3  -4 1361.69  74.622   1
   5  -3  -4 1487.09  53.807   1
  -5   3   4 1316.23 69.8597   1
   5  -3  -3 1121.32 97.4844   1
   5  -3  -3 941.745 28.8755   1
  -5   3   3 1088.80 55.9978   1
  -5   3   3 907.625 39.3657   1
   5  -3  -2 878.008  50.178   1
   5  -3  -2 938.761 47.8471   1
  -5   3   2 820.943 49.0623   1
  -5   3   2 837.211 39.0462   1
   5  -3  -1 932.647 52.5849   1
   5  -3  -1 952.285 33.6999   1
  -5   3   1 1046.23 87.9471   1
  -5   3   1 868.475 27.5257   1
   5  -3   0 6203.90 219.603   1
  -5   3   0 6685.72 368.699   1
   5  -3   1 439.854 31.9952   1
  -5   3  -1 533.413  73.385   1
  -5   3  -1 437.739 26.9279   1
   5  -3   2 291.302 34.1202   1
  -5   3  -2 335.137 37.3653   1
  -5   3  -2 335.716 50.5234   1
   5  -3   3 5430.76 229.361   1
  -5   3  -3 6290.12 326.916   1
  -5   3  -3 4880.77 278.079   1
   5  -3   4 5481.07 237.273   1
  -5   3  -4 4827.42 290.685   1
   5  -3   510704.60 776.745   1
  -5   3  -5 9759.43 524.134   1
   5  -3   6  95.786 48.7661   1
  -5   3  -6 150.158 43.8508   1
   5  -3   7 294.032 55.7993   1
  -5   3  -7  184.70 50.1849   1
   5  -3   8 149.576 97.9198   1
  -5   3  -8 142.791 90.7325   1
   5  -3   9 318.543 61.6744   1
  -5   3  -9  314.26 100.931   1
   5  -3  10 138.057 59.2463   1
  -5   3 -10 36.0658 54.3867   1
   5  -3  11 13.5895 59.9825   1
  -5   3 -11 151.491 53.0595   1
   5  -3  12 134.889 56.2687   1
  -5   3 -12-14.8761  53.954   1
   5  -3  13 260.683 68.4583   1
  -5   3 -13 275.942  108.68   1
   5  -3  14  257.69 66.5852   1
  -5   3 -14 226.921 112.783   1
   5  -3  15 25.8233 62.2333   1
  -5   3 -15 74.0476 104.513   1
   5  -3  16 65.3621 115.461   1
  -5   3 -16 189.999 67.8521   1
   5  -3  17 85.6101  65.491   1
  -5   3 -17-20.7003 64.2168   1
   5  -2 -15 101.359 50.7283   1
   5  -2 -15 203.019 36.6836   1
   5  -2 -15 221.687 42.9969   1
   5  -2 -14 -47.583 45.5434   1
   5  -2 -14 11.1944 32.1934   1
   5  -2 -14 0.31365 37.5318   1
   5  -2 -13 28.7773  45.547   1
   5  -2 -13 1.69645 31.0292   1
   5  -2 -13 10.4115 21.9531   1
   5  -2 -12-52.5321 46.2221   1
   5  -2 -12 18.6566 18.3574   1
   5  -2 -12-37.8921 21.5876   1
   5  -2 -11 87.2104 47.2785   1
   5  -2 -11-3.76927 18.0537   1
   5  -2 -11 18.9803 22.2326   1
   5  -2 -10 2.69117 17.8878   1
   5  -2 -10-1.13536 21.5892   1
   5  -2  -9-37.3819  50.548   1
   5  -2  -9-16.5212 29.6112   1
   5  -2  -9 -30.565 20.7415   1
   5  -2  -8 370.827 38.2667   1
   5  -2  -8 451.639 23.3004   1
   5  -2  -8 390.479 26.7554   1
   5  -2  -7 2831.03 122.253   1
   5  -2  -7 3440.67 87.6095   1
   5  -2  -6 8.26739 53.8062   1
   5  -2  -6 20.8503  16.695   1
  -5   2   6 25.7133 54.7168   1
   5  -2  -5 778.817 50.9446   1
   5  -2  -5 1005.01 28.6464   1
  -5   2   5 935.595 49.9339   1
  -5   2   5 914.732 27.7002   1
   5  -2  -4 8213.00 387.585   1
   5  -2  -4 9121.36 367.481   1
  -5   2   4 8404.56 375.663   1
  -5   2   4 7859.02 272.232   1
   5  -2  -3 3433.69 198.644   1
   5  -2  -3 3610.56 87.7613   1
  -5   2   3 3420.50 125.235   1
  -5   2   3 3302.92 112.552   1
   5  -2  -2 1290.81 55.0471   1
   5  -2  -2 1430.52 56.6366   1
  -5   2   2 1326.80 93.4174   1
  -5   2   2 1293.56  33.088   1
   5  -2  -1 10.5642 31.3557   1
   5  -2  -1 1.54423 19.8666   1
  -5   2   1 20.9396 28.0096   1
   5  -2   0 97.0608 23.2796   1
  -5   2   0 123.252 31.3407   1
  -5   2   0 81.5643 19.5207   1
   5  -2   1 378.618 30.5552   1
  -5   2  -1 499.889 68.0144   1
  -5   2  -1  310.19 26.1251   1
   5  -2   2  748.46 74.8847   1
  -5   2  -2 1070.81 83.7264   1
  -5   2  -2 739.099 63.7733   1
   5  -2   3 29.6538 53.6725   1
  -5   2  -3 14.9875 27.2826   1
   5  -2   4 97.4577 64.8174   1
  -5   2  -4  91.173 32.5862   1
   5  -2   5 1401.22 122.367   1
  -5   2  -5 1304.84 65.4897   1
   5  -2   6 1225.04 78.2377   1
  -5   2  -6 1195.94 67.7932   1
   5  -2   7 252.727 50.8966   1
  -5   2  -7 161.051  48.191   1
   5  -2   8 96.2428 51.3636   1
  -5   2  -8-21.3696 47.9941   1
   5  -2   9 2760.10 250.894   1
  -5   2  -9 2568.73 143.528   1
   5  -2  10 781.208 76.4392   1
  -5   2 -10 729.866 130.391   1
   5  -2  11 987.582 151.016   1
  -5   2 -11 911.567 141.771   1
   5  -2  12 27.9552 56.8295   1
  -5   2 -12 109.597 90.6422   1
   5  -2  13 510.856 73.1137   1
  -5   2 -13 456.833 119.044   1
   5  -2  14-87.1522 59.8368   1
  -5   2 -14 -83.913 98.2133   1
   5  -2  15 630.234 78.5984   1
  -5   2 -15  614.21  78.535   1
   5  -2  16 47.9337  59.978   1
  -5   2 -16 70.1434 60.1543   1
   5  -2  17 30.5086 62.4453   1
  -5   2 -17 91.9357 62.9748   1
   5  -2  18 58.1412 62.7256   1
  -5   2 -18-17.9784 62.5279   1
   5  -1 -15 134.748 39.7916   1
   5  -1 -15 7.93519 23.7027   1
   5  -1 -15 17.4385  28.522   1
   5  -1 -14  266.24  26.421   1
   5  -1 -14  238.53 31.8077   1
   5  -1 -13-86.4211 40.4807   1
   5  -1 -13 -6.1659 44.0299   1
   5  -1 -12 191.466 44.2562   1
   5  -1 -12 248.182 24.8009   1
   5  -1 -12  166.14 47.6079   1
   5  -1 -11 202.315 46.8654   1
   5  -1 -11 303.998  24.562   1
   5  -1 -11 288.718 30.0147   1
   5  -1 -10 284.312 49.3213   1
   5  -1 -10 313.333 25.6824   1
   5  -1 -10 333.052 30.1207   1
   5  -1  -9 539.465 60.6364   1
   5  -1  -9 702.437 49.9631   1
   5  -1  -9 628.676 35.0929   1
   5  -1  -8  192.93 29.4502   1
   5  -1  -8 217.772 23.0461   1
   5  -1  -8 192.024 27.1237   1
   5  -1  -7 372.885 33.7717   1
   5  -1  -7 495.224 42.9919   1
   5  -1  -6 40.2463 46.8492   1
   5  -1  -6 27.3548 19.2221   1
  -5   1   6 56.4272 27.4184   1
   5  -1  -5 2864.68 108.968   1
   5  -1  -5 3262.45 86.9073   1
  -5   1   5 3180.63 156.482   1
   5  -1  -4 297.982 32.5209   1
   5  -1  -4 303.178 21.7403   1
  -5   1   4 287.462 31.2949   1
  -5   1   4 265.293 35.2237   1
   5  -1  -312717.60 895.513   1
   5  -1  -314257.90  802.74   1
  -5   1   313568.00 736.885   1
  -5   1   313229.10 759.259   1
   5  -1  -2 8426.46  466.48   1
   5  -1  -2 8939.45 316.656   1
  -5   1   2 8613.81 354.177   1
  -5   1   2 8171.18 293.326   1
   5  -1  -1 411.654  25.283   1
  -5   1   1 375.568 33.6506   1
  -5   1   1 355.317 22.4978   1
   5  -1   0 138.112 39.7539   1
  -5   1   0 116.502 30.9996   1
  -5   1   0 89.3791 34.4678   1
   5  -1   1 640.258 35.4684   1
  -5   1  -1  644.48   40.87   1
  -5   1  -1 470.901 52.2248   1
   5  -1   2 21.5342 54.0663   1
  -5   1  -2 214.146 28.3289   1
   5  -1   3 317.293 38.3263   1
  -5   1  -3 250.791 32.9332   1
   5  -1   4 244.531 38.3649   1
  -5   1  -4 259.456 34.6441   1
   5  -1   5 1574.28 75.2406   1
  -5   1  -5 1505.14 70.4798   1
   5  -1   6 2569.09 114.833   1
  -5   1  -6 2394.71  103.18   1
   5  -1   7 4951.23  232.15   1
  -5   1  -7 4630.93 207.056   1
   5  -1   8  410.68 57.7786   1
  -5   1  -8 333.811 91.0905   1
   5  -1   9 22.0683 97.1678   1
  -5   1  -9 146.918 49.4434   1
   5  -1  10-30.4301 57.2937   1
  -5   1 -10 135.516 51.4573   1
   5  -1  11 2615.18 153.537   1
  -5   1 -11 2475.47  149.56   1
   5  -1  12 81.8854 102.481   1
  -5   1 -12 89.6861  56.235   1
   5  -1  13 3637.70  210.42   1
  -5   1 -13 3532.06 201.896   1
   5  -1  14 1214.66 92.7318   1
  -5   1 -14 1019.25  92.228   1
   5  -1  15 318.994 66.6599   1
  -5   1 -15 417.509 65.8007   1
   5  -1  16 82.7974 57.7928   1
  -5   1 -16 162.071 58.2064   1
   5  -1  17 -0.4005 99.5561   1
  -5   1 -17 154.466  59.619   1
   5  -1  18 0.69244 57.7297   1
  -5   1 -18 42.2702 99.1892   1
   5   0 -15 53.2504 20.8376   1
   5   0 -15 36.9892 26.5474   1
   5   0 -15  40.816 55.9575   1
   5   0 -14 57.0302 34.1152   1
   5   0 -14 44.7612 25.8044   1
   5   0 -14 50.0041 32.3173   1
   5   0 -13 71.3636  35.308   1
   5   0 -13 138.527 26.3217   1
   5   0 -13 98.9814 31.7212   1
   5   0 -12 5.09286 34.0729   1
   5   0 -12-15.6271 24.5792   1
   5   0 -12 106.833 50.6411   1
   5   0 -11 59.3791 35.6165   1
   5   0 -11 59.7113  24.785   1
   5   0 -11 134.837 50.9017   1
   5   0 -10  136.77 38.6436   1
   5   0 -10 120.219 26.1309   1
   5   0 -10 167.726 51.4713   1
   5   0  -9 1840.64 97.0601   1
   5   0  -9 2253.65 105.346   1
   5   0  -9 2030.64 78.0122   1
   5   0  -8 272.595 27.1459   1
   5   0  -8 279.187 47.3737   1
   5   0  -8  329.81  33.399   1
   5   0  -7 618.923 33.0813   1
   5   0  -7 682.315 33.2827   1
   5   0  -6 70.4772 41.0984   1
   5   0  -6 89.5844 39.2465   1
   5   0  -5-30.5921 22.3974   1
   5   0  -5 27.3349 36.4681   1
  -5   0   5-3.82259  23.094   1
   5   0  -4 5.93761 23.6257   1
   5   0  -4 33.2434 20.2912   1
  -5   0   4 13.5517 38.2111   1
  -5   0   4 30.4324 34.3654   1
   5   0  -3 4865.07 155.948   1
   5   0  -3 5358.55 206.704   1
  -5   0   3 4982.85 155.608   1
  -5   0   3 4866.64 192.846   1
   5   0  -2 1117.56 43.8764   1
   5   0  -2 1127.25 37.5231   1
  -5   0   2 1160.88 43.1603   1
  -5   0   2 1150.61 59.7407   1
   5   0  -1 1677.37 76.7741   1
  -5   0   1 1620.31 53.8815   1
  -5   0   1 1595.10 45.2445   1
   5   0   0  729.51 33.2785   1
  -5   0   0 657.287 61.9647   1
  -5   0   0 704.762 30.7698   1
   5   0   1 9925.90 434.625   1
  -5   0  -110781.80 469.723   1
  -5   0  -1 9408.16 417.001   1
   5   0   2 6535.71  348.68   1
  -5   0  -2 5994.61  233.88   1
   5   0   3 5934.09 226.903   1
  -5   0  -3 5223.57 271.457   1
   5   0   4 642.103 84.8141   1
  -5   0  -4 669.544   45.20   1
   5   0   5 5285.51 212.534   1
  -5   0  -5 4898.54  195.40   1
   5   0   6 212.422 42.4486   1
  -5   0  -6 215.389 39.7936   1
   5   0   7 2006.33 96.5784   1
  -5   0  -7 1727.81 137.912   1
   5   0   8  915.25 69.3055   1
  -5   0  -8 939.292 62.7204   1
   5   0   9 1269.65 84.0964   1
  -5   0  -9 1156.17 130.734   1
   5   0  10  731.82 73.7115   1
  -5   0 -10 790.282 117.941   1
   5   0  11 324.465 109.502   1
  -5   0 -11 356.087 58.9414   1
   5   0  12 1037.60 86.9958   1
  -5   0 -12 951.297 85.0309   1
   5   0  13 1134.24 88.9501   1
  -5   0 -13 1085.61 85.6914   1
   5   0  14 426.451 109.055   1
  -5   0 -14 365.043 61.0709   1
   5   0  15 62.2596 54.7847   1
  -5   0 -15 99.3198 53.2398   1
   5   0  16 -28.324 88.8392   1
  -5   0 -16 26.6229 50.9767   1
   5   0  17 154.401 56.3377   1
  -5   0 -17 187.564 95.4596   1
   5   0  18 23.1297 92.7606   1
  -5   0 -18-10.5749 88.7592   1
   5   1 -15   71.49 17.6148   1
   5   1 -15 -9.4947 30.0147   1
   5   1 -15 55.2752 38.6551   1
   5   1 -14 45.9071 18.0893   1
   5   1 -14 11.6714 48.6908   1
   5   1 -14 31.6537 62.5867   1
   5   1 -13-16.0208 29.1456   1
   5   1 -13-7.79189 45.6827   1
   5   1 -13 55.3017 34.3809   1
   5   1 -12-4.07037 45.3911   1
   5   1 -12-8.36208 34.7852   1
   5   1 -11 74.7436 31.0538   1
   5   1 -11 173.294 46.5892   1
   5   1 -11 35.7684 59.1543   1
   5   1 -10 521.292 58.4654   1
   5   1 -10 475.028 71.3435   1
   5   1  -9 487.724 42.8299   1
   5   1  -9 554.909 59.8004   1
   5   1  -9 486.721 42.9219   1
   5   1  -8 48.9587 20.0841   1
   5   1  -8 54.2158  27.756   1
   5   1  -8 79.1284 33.4648   1
   5   1  -7 356.184 40.8605   1
   5   1  -7 470.586 33.0427   1
   5   1  -6  16.775 19.3916   1
   5   1  -6 94.7566  43.787   1
   5   1  -5 97.0703 35.9156   1
   5   1  -5 114.782 25.7001   1
  -5  -1   5 122.525  20.025   1
   5   1  -4 2151.43 87.2614   1
   5   1  -4 2059.47 66.7107   1
  -5  -1   4 2056.23 53.6178   1
  -5  -1   4 1985.24 62.3334   1
   5   1  -310659.80 528.863   1
   5   1  -311277.20 495.663   1
  -5  -1   310632.20 439.936   1
  -5  -1   310630.50 564.326   1
   5   1  -2 4702.67 140.752   1
  -5  -1   2 4484.21 126.314   1
  -5  -1   2 4475.61 184.838   1
   5   1  -1 2650.96 114.884   1
  -5  -1   1 2532.98 102.173   1
  -5  -1   1 2439.14 70.7747   1
   5   1   0 1299.05 46.6997   1
  -5  -1   0 1230.06 71.8563   1
  -5  -1   0 1195.31 43.4317   1
   5   1   1 7165.13 268.323   1
  -5  -1  -1 6888.91 346.455   1
   5   1   214257.00 893.712   1
  -5  -1  -212472.20 640.864   1
   5   1   3 1290.62 61.9325   1
  -5  -1  -3 1281.16 57.0056   1
   5   1   4 3310.84  125.72   1
  -5  -1  -4 2489.42 160.871   1
   5   1   5 5650.76 315.899   1
  -5  -1  -5 4818.75 204.475   1
   5   1   6 109.064 35.8621   1
  -5  -1  -6 11.4615 34.1994   1
   5   1   7 2234.89  99.064   1
  -5  -1  -7 2213.41 148.062   1
   5   1   8  136.40 42.6349   1
  -5  -1  -8 133.605 38.7888   1
   5   1   9 821.518 64.7044   1
  -5  -1  -9 704.443 56.5284   1
   5   1  10 4098.66 202.927   1
  -5  -1 -10 3921.68 187.329   1
   5   1  11 1776.82 105.313   1
  -5  -1 -11 1741.79 99.5056   1
   5   1  12 1121.48 142.549   1
  -5  -1 -12 1016.46 135.762   1
   5   1  13 -37.392 49.6543   1
  -5  -1 -13 77.3854 82.3202   1
   5   1  14-0.44845 48.5669   1
  -5  -1 -14 38.4817 78.0104   1
   5   1  15 29.1381 83.2652   1
  -5  -1 -15  46.805 80.5475   1
   5   1  16 94.5975 49.8702   1
  -5  -1 -16 29.3581 47.5781   1
   5   1  17-56.7686  47.785   1
  -5  -1 -17 82.7939  47.012   1
   5   1  18  129.18 88.0165   1
  -5  -1 -18 147.601 52.4359   1
   5   1  19 42.0355 51.1319   1
  -5  -1 -19  74.368 50.5795   1
   5   2 -15-52.8196  54.492   1
   5   2 -15 5.02728 43.6929   1
   5   2 -14 87.7314 33.1374   1
   5   2 -14 145.198 72.1586   1
   5   2 -13 -3.6939 15.1628   1
   5   2 -13 59.4807 31.0396   1
   5   2 -13-11.4567 39.5467   1
   5   2 -12 34.0163 26.1576   1
   5   2 -12 65.2955 30.9282   1
   5   2 -12  26.737 39.7688   1
   5   2 -11 56.4775 25.7668   1
   5   2 -11-37.3977 30.2136   1
   5   2 -11 34.8228 65.5462   1
   5   2 -10 65.6508 16.4104   1
   5   2 -10 89.2147 30.7108   1
   5   2 -10 21.7601  65.884   1
   5   2  -9  14.376  15.896   1
   5   2  -9-15.1545 29.5354   1
   5   2  -9-21.2483 36.4919   1
   5   2  -8-4.30824 15.9817   1
   5   2  -8 8.89742 30.1817   1
   5   2  -8 49.8877 36.5658   1
   5   2  -7 105.911 29.3952   1
   5   2  -7 116.543   52.77   1
   5   2  -6 50.2441 27.3178   1
   5   2  -6 19.9855 29.1363   1
   5   2  -5 690.549  24.308   1
   5   2  -5 711.996 40.2406   1
   5   2  -4 3184.38  74.588   1
   5   2  -4 3523.86 115.975   1
  -5  -2   4 3626.97  80.666   1
   5   2  -3 96.8132 45.6454   1
  -5  -2   3 138.145 25.1574   1
  -5  -2   3 103.452 25.1756   1
   5   2  -2 64.0292 43.2974   1
  -5  -2   2 19.9368 14.9481   1
  -5  -2   2 42.3536  23.793   1
   5   2  -1 3453.53 104.707   1
  -5  -2   1 3450.66 83.4657   1
  -5  -2   1 3279.00 99.4955   1
   5   2   0 1205.54 47.3996   1
  -5  -2   0 1071.90 44.5901   1
   5   2   1 5033.31  167.53   1
  -5  -2  -1 4726.65 155.977   1
   5   2   2 3665.53 126.617   1
  -5  -2  -2 3621.44  173.91   1
   5   2   3 135.856 59.8164   1
  -5  -2  -3 209.214 54.3103   1
   5   2   4 965.594 51.7573   1
  -5  -2  -4 983.689 46.2765   1
   5   2   5 158.521 34.7232   1
  -5  -2  -5 187.286 54.4521   1
  -5  -2  -617882.60 1423.71   1
   5   2   7 6613.58 277.303   1
  -5  -2  -7 6240.48 368.398   1
   5   2   8  602.32 47.1475   1
  -5  -2  -8 550.671  43.931   1
   5   2   9 1751.75 86.1034   1
  -5  -2  -9 1581.91 79.3094   1
   5   2  10 872.802 66.5846   1
  -5  -2 -10 793.256 59.2489   1
   5   2  11  610.39 60.2446   1
  -5  -2 -11 592.611 93.7168   1
   5   2  12 999.138 74.8344   1
  -5  -2 -12 972.389 68.1977   1
   5   2  13 605.157 66.2074   1
  -5  -2 -13 734.998 63.0078   1
   5   2  14 98.5512  79.864   1
  -5  -2 -14 34.6358 42.6069   1
   5   2  15 32.7381 45.8644   1
  -5  -2 -15 88.3083   42.59   1
   5   2  16 122.577 46.4186   1
  -5  -2 -16  18.524  44.475   1
   5   2  17 108.017 75.1951   1
  -5  -2 -17 33.1522 43.7912   1
   5   2  18  -47.52 45.8218   1
  -5  -2 -18-165.997 76.8971   1
   5   2  19 42.7197 45.8455   1
  -5  -2 -19-25.3503 79.2342   1
   5   3 -14 39.7086 37.2075   1
   5   3 -14 22.5731 78.7803   1
   5   3 -13 39.1565 36.7135   1
   5   3 -13 39.7613 44.5462   1
   5   3 -12 126.543 22.5161   1
   5   3 -12 153.684 63.5897   1
   5   3 -12 177.876  47.622   1
   5   3 -11 -5.8318 20.3535   1
   5   3 -11 7.86956 57.1811   1
   5   3 -11 45.1357 71.4502   1
   5   3 -10-21.3894 20.5307   1
   5   3 -10 22.5954 56.1269   1
   5   3 -10 40.5126 40.9845   1
   5   3  -9 11.6712 20.9042   1
   5   3  -9 33.6584 56.2466   1
   5   3  -9-47.3813  40.044   1
   5   3  -8 34.2565 13.0575   1
   5   3  -8 112.124 34.7472   1
   5   3  -8 62.6103 41.2472   1
   5   3  -7 226.414 24.2268   1
   5   3  -7 186.164 37.4416   1
   5   3  -6 292.695 25.8706   1
   5   3  -6 268.004 37.9329   1
   5   3  -5 1531.51 44.9322   1
   5   3  -5 1421.24 103.656   1
   5   3  -4 1041.96 50.3441   1
   5   3  -3 65.8098 47.3983   1
  -5  -3   3 6.02845 16.1992   1
  -5  -3   3-33.9227 26.1955   1
   5   3  -2 472.701 57.5007   1
  -5  -3   2 416.516 14.0899   1
  -5  -3   2 447.729 32.5809   1
   5   3  -1 352.083 54.5974   1
  -5  -3   1 344.708 26.3244   1
  -5  -3   1 338.223 29.8136   1
   5   3   0 1592.77  54.807   1
  -5  -3   0 1266.93  50.294   1
   5   3   1 6528.54  246.99   1
  -5  -3  -1 7014.81 248.792   1
   5   3   2 55.1126 28.8321   1
  -5  -3  -2-5.08691  26.904   1
   5   3   3 4851.14 174.321   1
  -5  -3  -3 4755.30 232.547   1
   5   3   4 255.236 33.8332   1
  -5  -3  -4 258.446 30.2405   1
   5   3   522997.10 2009.99   1
  -5  -3  -521966.60 1625.58   1
   5   3   6 5427.54 204.598   1
  -5  -3  -6 5282.76 187.708   1
   5   3   7 3064.42 113.848   1
  -5  -3  -7 2704.57 93.4468   1
   5   3   8 143.954 34.2023   1
  -5  -3  -8  119.97 30.7912   1
   5   3   9 170.061 64.6072   1
  -5  -3  -9 148.055 34.5865   1
   5   3  10 210.095 77.0035   1
  -5  -3 -10 210.575 38.2301   1
   5   3  11 0.42317 70.0635   1
  -5  -3 -11 13.0188 36.3947   1
   5   3  12 1319.57  127.94   1
  -5  -3 -12 1313.04  72.525   1
   5   3  13 192.647 81.3896   1
  -5  -3 -13 179.052 43.9368   1
   5   3  14 241.254 46.0142   1
  -5  -3 -14 243.001 44.3424   1
   5   3  15 67.1094 42.5414   1
  -5  -3 -15 69.5764 40.1621   1
   5   3  16 413.567 83.2762   1
  -5  -3 -16  407.54  48.928   1
   5   3  17 135.919 73.7306   1
  -5  -3 -17 152.962 41.8629   1
   5   3  18 2.65439 40.5484   1
  -5  -3 -18-58.9939 40.0684   1
   5   3  19 8.69059 69.7089   1
  -5  -3 -19 37.0034 41.8405   1
   5   4 -14 18.6896 42.2246   1
   5   4 -14 65.6104   86.20   1
   5   4 -13  86.435 70.3665   1
   5   4 -13 101.477 51.5984   1
   5   4 -12 12.9451 68.5294   1
   5   4 -12 100.953 50.1577   1
   5   4 -11  56.635 15.8928   1
   5   4 -11 94.2964  39.116   1
   5   4 -11 145.915  82.151   1
   5   4 -10 47.2491 15.9396   1
   5   4 -10  148.45 37.8608   1
   5   4 -10 25.5567 46.7471   1
   5   4  -9  243.60 18.8242   1
   5   4  -9 308.918 42.0272   1
   5   4  -9 232.346 49.5774   1
   5   4  -8 2140.71 52.9729   1
   5   4  -8 2297.66 155.992   1
   5   4  -8 2206.27 184.292   1
   5   4  -7 32.6687 8.51302   1
   5   4  -7 14.5114 66.4465   1
   5   4  -7 94.7983 45.2206   1
   5   4  -6 1284.75 67.0558   1
   5   4  -5 50.7569 34.9438   1
   5   4  -4 1428.61 104.569   1
   5   4  -3-16.8842 29.9953   1
  -5  -4   2 173.822 11.6342   1
  -5  -4   2 220.869 31.1524   1
   5   4  -1 7459.02 376.458   1
  -5  -4   1 6724.30 191.846   1
  -5  -4   1 7220.11 360.646   1
   5   4   0 5321.88 183.909   1
  -5  -4   0 5197.68 176.392   1
   5   4   1 4056.91 135.484   1
  -5  -4  -1 4124.29 193.356   1
  -5  -4  -2 5156.26 172.678   1
   5   4   3 1030.68 46.0931   1
  -5  -4  -3 1118.61  43.885   1
   5   4   4 728.456 39.3175   1
  -5  -4  -4 785.919 61.8765   1
   5   4   5 2135.45 69.1713   1
  -5  -4  -5 1934.20 64.1274   1
   5   4   6 2478.70 86.1634   1
  -5  -4  -6 2365.63 119.675   1
   5   4   7 42.4091 51.0636   1
  -5  -4  -7 36.3555 44.2262   1
   5   4   8  285.25 34.3565   1
  -5  -4  -8 292.933 49.5425   1
   5   4   9 106.908 55.8931   1
  -5  -4  -9 51.3543 48.1701   1
   5   4  10 784.249 51.5489   1
  -5  -4 -10 723.531 43.5444   1
   5   4  11 809.742 55.9294   1
  -5  -4 -11  741.26 79.9582   1
   5   4  12 41.5442 36.2792   1
  -5  -4 -12-0.83046 33.2069   1
   5   4  13 17.6675 37.6585   1
  -5  -4 -13  42.828 34.4767   1
   5   4  14 135.298 38.1587   1
  -5  -4 -14 132.887 63.2355   1
   5   4  15 897.963 99.0693   1
  -5  -4 -15 978.406 91.9317   1
   5   4  16 3.00999  63.141   1
  -5  -4 -16  65.777 59.2424   1
   5   4  17 39.2108 36.8088   1
  -5  -4 -17 58.4265 60.4549   1
   5   4  18 105.752 37.0785   1
  -5  -4 -18 -55.054  62.831   1
   5   4  19  182.63 66.8942   1
  -5  -4 -19 75.6163 64.5355   1
   5   5 -14 133.617 77.8113   1
   5   5 -14 67.7103  98.304   1
   5   5 -13 111.747 82.9153   1
   5   5 -13 279.326 60.4166   1
   5   5 -12 165.718  46.846   1
   5   5 -12 162.361  58.085   1
   5   5 -11 197.776 45.0494   1
   5   5 -11 98.2879 55.5925   1
   5   5 -10 10.4536 7.17682   1
   5   5 -10 35.1314 41.0133   1
   5   5 -10 2.13002  49.614   1
   5   5  -9 184.965  43.222   1
   5   5  -9  136.97 86.0197   1
   5   5  -8 65.6168 41.8439   1
   5   5  -8 114.648 48.6004   1
   5   5  -7 342.663 50.1469   1
   5   5  -7 384.938 58.8353   1
   5   5  -6 1072.98 113.034   1
   5   5  -5  881.05 99.5785   1
   5   5  -4 1859.13  84.369   1
   5   5  -3 1716.22 116.052   1
   5   5  -2 195.418 34.4174   1
   5   5  -1 2919.67 108.281   1
  -5  -5   1 3097.66 160.697   1
   5   5   0 967.166 47.9197   1
  -5  -5   0 896.661 45.9346   1
   5   5   1 7707.40  294.79   1
  -5  -5  -1 7274.93 282.647   1
   5   5   2 228.163 31.1829   1
  -5  -5  -2 488.493 52.8552   1
   5   5   3 803.012 41.2408   1
  -5  -5  -3 726.717 39.4717   1
   5   5   4 9569.80 401.273   1
  -5  -5  -4 9266.45 481.948   1
   5   5   5 2079.70 99.2088   1
  -5  -5  -5 1765.96 56.4581   1
   5   5   6 159.192 47.4056   1
  -5  -5  -6 191.323  43.072   1
   5   5   7 424.108 32.5437   1
  -5  -5  -7 449.846 29.2162   1
   5   5   8 73.5451 27.6261   1
  -5  -5  -8 79.7464 23.3977   1
   5   5   9 29.6704  50.592   1
  -5  -5  -9 93.2186 25.4605   1
   5   5  10 747.812 45.1636   1
  -5  -5 -10 761.583  39.332   1
   5   5  11 65.7097 33.3241   1
  -5  -5 -11  7.7132 47.9972   1
   5   5  12 19.2137  57.641   1
  -5  -5 -12 9.35291 28.4851   1
   5   5  13 29.8387 59.2698   1
  -5  -5 -13 31.8696 30.2928   1
   5   5  14 951.745 89.7774   1
  -5  -5 -14 957.873 82.8045   1
   5   5  15 149.336 56.9506   1
  -5  -5 -15 79.2192 52.7486   1
   5   5  16 50.3945 33.2708   1
  -5  -5 -16 55.8445 30.7142   1
   5   5  17-31.8169 32.8578   1
  -5  -5 -17-38.0616 30.7591   1
   5   5  18 44.8566 32.8844   1
  -5  -5 -18  43.793 31.5327   1
   5   5  19-41.1259 55.4398   1
  -5  -5 -19-1.17312 53.5479   1
   5   6 -13 32.6064 49.4349   1
   5   6 -13 56.9438 59.0651   1
   5   6 -12 209.564 51.7986   1
   5   6 -12  83.648 107.941   1
   5   6 -11 94.1028 45.9112   1
   5   6 -11-96.8582 56.8566   1
   5   6 -10 514.634 57.0319   1
   5   6 -10 396.038 67.9031   1
   5   6  -9 325.188 52.4841   1
   5   6  -9 425.744 62.2434   1
   5   6  -8 32.7074  44.139   1
   5   6  -8 51.4604 50.4525   1
   5   6  -7 234.884 50.9378   1
   5   6  -7 324.326 102.801   1
   5   6  -6 363.795 53.5172   1
   5   6  -6 387.722 61.4189   1
   5   6  -5-74.6869 72.2301   1
   5   6  -4 956.678  62.986   1
   5   6  -3  111.32 38.0003   1
   5   6  -2 54.6467 59.5724   1
   5   6  -1 1958.41 75.1502   1
  -5  -6   1 1802.46  22.154   1
   5   6   0 2266.81 89.5556   1
  -5  -6   0 2371.04 136.353   1
   5   6   1 3283.16 121.006   1
  -5  -6  -1 3522.38 120.577   1
   5   6   215279.20 1048.20   1
  -5  -6  -214428.50 818.138   1
   5   6   3 9688.37  422.92   1
  -5  -6  -3 9782.82 529.302   1
   5   6   413992.30 862.048   1
  -5  -6  -413761.40 706.685   1
   5   6   524816.80 1899.82   1
  -5  -6  -523589.10 1808.77   1
   5   6   6 3206.58 99.9983   1
  -5  -6  -6 3560.22 142.409   1
   5   6   7 1823.04  58.025   1
  -5  -6  -7 1746.44 51.1889   1
   5   6   8 1123.04 45.7459   1
  -5  -6  -8 1058.70 39.2021   1
   5   6   9 1459.41 90.0618   1
  -5  -6  -9 1441.15 48.4644   1
   5   6  10 379.376 33.2621   1
  -5  -6 -10 402.018 28.7064   1
   5   6  11 87.2885  52.881   1
  -5  -6 -11 135.361 25.8973   1
   5   6  12 664.422 43.0478   1
  -5  -6 -12 655.312  60.537   1
   5   6  13 419.161 36.7636   1
  -5  -6 -13 389.256 31.4776   1
   5   6  14 16.0072 28.4828   1
  -5  -6 -14 3.02361 24.7103   1
   5   6  15 339.346 34.1596   1
  -5  -6 -15 355.985 51.6977   1
   5   6  16 33.5168 29.4503   1
  -5  -6 -16 22.1799 43.6953   1
   5   6  17 78.3259 29.2534   1
  -5  -6 -17 58.1275 27.3037   1
   5   6  18 79.7908 29.6833   1
  -5  -6 -18 81.9212 27.9752   1
   5   6  19 53.6856 50.7335   1
  -5  -6 -19 49.7872  28.087   1
   5   7 -13   29.77 52.1219   1
   5   7 -13 18.4047 62.4254   1
   5   7 -12 -41.419   50.32   1
   5   7 -12  102.50 102.441   1
   5   7 -11-60.3264 49.3806   1
   5   7 -11 48.2588 60.2727   1
   5   7 -10 2.37993  48.819   1
   5   7 -10-184.254 100.321   1
   5   7  -9 834.872 72.6881   1
   5   7  -9 997.817 86.3427   1
   5   7  -8 309.412 54.3567   1
   5   7  -8 281.333 106.995   1
   5   7  -7 1541.58 91.0636   1
   5   7  -7 1300.45 102.389   1
   5   7  -6 2848.20 150.969   1
   5   7  -6 2964.93 167.706   1
   5   7  -5 292.295 50.8481   1
   5   7  -4 320.094 84.5485   1
   5   7  -3 879.264 60.0219   1
   5   7  -2 641.783 49.7569   1
   5   7  -1 167.288 36.9727   1
  -5  -7   1 119.621 6.56342   1
   5   7   0 9316.09 523.385   1
  -5  -7   0 8174.98  257.82   1
   5   7   1 846.017 75.7741   1
  -5  -7  -1 777.454 74.6969   1
   5   7   2 7360.78 376.835   1
  -5  -7  -2 7139.91 367.661   1
   5   7   3 2430.71 77.9336   1
  -5  -7  -3 2541.20   76.83   1
   5   7   4 2616.46 113.651   1
  -5  -7  -4 2328.82 70.1784   1
   5   7   5 462.416 28.9068   1
  -5  -7  -5 422.951 27.2156   1
   5   7   6 124.193 23.1788   1
  -5  -7  -6 115.537  36.524   1
   5   7   7 3.98513 21.4381   1
  -5  -7  -7 10.5494 19.9023   1
   5   7   8 1338.28 46.1836   1
  -5  -7  -8 1266.85 39.9071   1
   5   7   9 98.4466 24.6625   1
  -5  -7  -9 118.853 20.3564   1
   5   7  10 26.8165 41.7237   1
  -5  -7 -10 9.42664 20.3531   1
   5   7  11 175.255 26.8222   1
  -5  -7 -11 187.578 23.6639   1
   5   7  12  114.86 48.2317   1
  -5  -7 -12 94.4824 22.8231   1
   5   7  13 203.641 28.4734   1
  -5  -7 -13 241.652 40.6272   1
   5   7  14 773.327 40.0475   1
  -5  -7 -14 833.261 35.4675   1
   5   7  15 145.165 27.1631   1
  -5  -7 -15  198.86 24.4895   1
   5   7  16 66.6765 25.9951   1
  -5  -7 -16 32.4881  38.215   1
   5   7  17 2.04733 25.3356   1
  -5  -7 -17-27.6937 35.9016   1
   5   7  18 38.8073 25.1312   1
  -5  -7 -18-22.4518 36.9171   1
   5   7  19 112.004  44.996   1
  -5  -7 -19  50.508 23.5231   1
   5   8 -12 39.0238 55.6282   1
   5   8 -12 19.0603  66.196   1
   5   8 -11 44.2539 53.4341   1
   5   8 -11  23.215 66.2084   1
   5   8 -10 154.741 54.6681   1
   5   8 -10 121.464 67.0654   1
   5   8  -9 69.8368 50.2914   1
   5   8  -9 50.0584 59.5341   1
   5   8  -8 60.3897  50.076   1
   5   8  -8 194.888 59.2999   1
   5   8  -7 98.2668 50.1633   1
   5   8  -7 55.1676 58.5915   1
   5   8  -6 3530.11 182.927   1
   5   8  -6 3750.28 323.952   1
   5   8  -5 476.364 58.9702   1
   5   8  -5 553.403 67.5882   1
   5   8  -4 1978.72 169.479   1
   5   8  -3 20.2425 41.5808   1
   5   8  -2 52.3925 38.2446   1
   5   8  -1 1402.22 68.3433   1
  -5  -8   1 1270.27 18.4699   1
   5   8   0 185.261  39.304   1
  -5  -8   0 247.367 17.1079   1
   5   8   1 9839.10  457.74   1
  -5  -8  -1 9434.21 324.636   1
   5   8   2 57.2114  30.694   1
  -5  -8  -2 161.226 50.3301   1
   5   8   3 148.637 28.5219   1
  -5  -8  -3 141.912 27.5473   1
   5   8   4 71.6882 25.7204   1
  -5  -8  -4 109.181 42.0443   1
   5   8   5 427.087 28.3157   1
  -5  -8  -5 533.599 45.9509   1
   5   8   6 640.786 31.9413   1
  -5  -8  -6 675.769 48.4643   1
   5   8   7  32.885 21.4342   1
  -5  -8  -7 36.5641 19.2943   1
   5   8   8 478.997 27.7243   1
  -5  -8  -8 469.544 24.5922   1
   5   8   9 335.682 25.8788   1
  -5  -8  -9 296.789 21.5071   1
   5   8  10 1868.30 60.7252   1
  -5  -8 -10 1939.77 51.9105   1
   5   8  11 69.5198  36.962   1
  -5  -8 -11 21.2734 17.9595   1
   5   8  12 542.886  30.775   1
  -5  -8 -12 511.561 26.0113   1
   5   8  13 416.536  46.392   1
  -5  -8 -13 420.899 39.3083   1
   5   8  14-53.5819 21.6262   1
  -5  -8 -14 24.8901 18.2209   1
   5   8  15 677.766 33.2817   1
  -5  -8 -15  651.29 45.4802   1
   5   8  16 15.4443 21.5484   1
  -5  -8 -16-4.89822 18.4372   1
   5   8  17  8.9061 21.9686   1
  -5  -8 -17 14.6981 18.8552   1
   5   8  18-26.6539 21.8609   1
  -5  -8 -18 84.5883 29.6788   1
   5   8  19-1.00865 22.2752   1
  -5  -8 -19  16.733 17.5273   1
   5   9 -11 244.942 63.7615   1
   5   9 -11 268.209 125.398   1
   5   9 -10 68.8292 54.2813   1
   5   9 -10-69.9664 64.9237   1
   5   9  -9 47.3209 53.2181   1
   5   9  -9 9.77625 109.111   1
   5   9  -8-2.10029  51.788   1
   5   9  -8-52.8315 60.9073   1
   5   9  -7 185.424 53.5997   1
   5   9  -7 -78.798 106.098   1
   5   9  -6 474.189 65.8447   1
   5   9  -6 505.392 73.9462   1
   5   9  -5 2513.94  136.69   1
   5   9  -5 2418.62 247.764   1
   5   9  -4 321.264 89.7343   1
   5   9  -4 333.622 60.6313   1
   5   9  -3 2664.97 127.237   1
   5   9  -2 23.9774 40.9971   1
   5   9  -1 3257.15 215.684   1
   5   9   0 5312.04 226.612   1
  -5  -9   0 5299.82  146.82   1
   5   9   1 212.928 35.3157   1
  -5  -9  -1 67.5282 13.9962   1
   5   9   2 4265.75 153.682   1
  -5  -9  -2 3852.09  101.49   1
   5   9   3 1820.96 65.0091   1
  -5  -9  -3 1604.82 48.3815   1
  -5  -9  -3 1738.32 62.7982   1
   5   9   4 79.6653 26.2939   1
  -5  -9  -4 73.2232 23.5939   1
  -5  -9  -4 81.1228 25.3769   1
   5   9   5 1578.68 79.3194   1
  -5  -9  -5 1432.04 49.6374   1
   5   9   6 1972.23 60.2456   1
  -5  -9  -6 1969.12 57.3809   1
   5   9   7 1656.82 51.4767   1
  -5  -9  -7 1680.26 47.6701   1
   5   9   8 694.637 29.2733   1
  -5  -9  -8 673.542 26.9485   1
   5   9   9 17.8459 19.6945   1
  -5  -9  -9-26.7846 16.8049   1
   5   9  10 804.622 31.5579   1
  -5  -9 -10 810.011 27.1987   1
   5   9  11 42.0563  19.336   1
  -5  -9 -11 66.8257 15.9668   1
   5   9  12 419.821 39.4254   1
  -5  -9 -12 369.249 19.9316   1
   5   9  13 210.384 34.6657   1
  -5  -9 -13 203.916 27.8347   1
   5   9  14 54.9828 31.2905   1
  -5  -9 -14 47.2439 25.6728   1
   5   9  15 42.4573 18.4206   1
  -5  -9 -15 18.6955 15.6702   1
   5   9  16 84.7494 20.2172   1
  -5  -9 -16 124.232 16.5739   1
   5   9  17 71.6205 31.1551   1
  -5  -9 -17  32.885 26.3447   1
   5   9  18 39.6147 30.6341   1
  -5  -9 -18-20.1524 52.9794   1
  -5  -9 -18 44.8758 15.7253   1
  -5  -9 -19 45.9244 54.4918   1
   5  10 -10-75.1185 58.6646   1
   5  10 -10 50.3351 120.381   1
   5  10  -9 23.8632 55.0289   1
   5  10  -9 63.2725 64.6798   1
   5  10  -8 229.909 58.9719   1
   5  10  -8  250.37  117.77   1
   5  10  -7 1209.30 88.9868   1
   5  10  -7 1073.29 104.357   1
   5  10  -6 12.3272 49.8212   1
   5  10  -6 169.287 101.277   1
   5  10  -5 796.916 69.7283   1
   5  10  -5 631.724 78.3104   1
   5  10  -4 125.295 85.1977   1
   5  10  -4 171.952 96.0738   1
   5  10  -3 1914.83 101.625   1
   5  10  -3 1960.57 116.293   1
   5  10  -2 9.50253 41.6479   1
   5  10  -1 -2.1016 66.6631   1
   5  10   0 1163.84 66.3036   1
  -5 -10   0 1231.31 25.0033   1
   5  10   1 384.557 43.4473   1
  -5 -10  -1 466.637  30.965   1
   5  10   2 141.201  56.283   1
  -5 -10  -2 73.3355 17.7595   1
   5  10   3 3869.21 212.894   1
  -5 -10  -3 3831.33  157.36   1
   5  10   4 1419.70 88.9883   1
  -5 -10  -4 1381.11 78.3769   1
   5  10   5 3027.61 97.9791   1
  -5 -10  -5 3032.51 103.631   1
  -5 -10  -5 3067.02 94.6715   1
   5  10   6 2010.07 91.9601   1
  -5 -10  -6 1824.03 115.452   1
  -5 -10  -6 1959.48 57.1812   1
   5  10   7 24.0799 35.4447   1
  -5 -10  -7  77.535 32.5957   1
  -5 -10  -7 16.4417 19.1762   1
   5  10   8 1529.55 67.3348   1
  -5 -10  -8 1320.09 70.2226   1
  -5 -10  -8 1336.28 38.4457   1
   5  10   9 617.535 43.8758   1
  -5 -10  -9 591.285 23.7067   1
   5  10  10 1602.47 69.8745   1
  -5 -10 -10 1612.22  58.143   1
   5  10  11 593.877 40.0002   1
  -5 -10 -11 658.474 33.5969   1
   5  10  12  40.734 26.1712   1
  -5 -10 -12 73.9298 22.4651   1
   5  10  13 60.3798 16.5544   1
  -5 -10 -13  69.875 21.5912   1
   5  10  14 5.52102 25.8758   1
  -5 -10 -14 29.0506 12.3635   1
   5  10  15-2.46344 14.7768   1
  -5 -10 -15-59.7852  49.041   1
  -5 -10 -15-0.11834 20.4539   1
   5  10  16 45.1425 25.8901   1
  -5 -10 -16 37.2556 52.1096   1
  -5 -10 -16 62.1978 12.5684   1
   5  10  17 52.8617 25.0719   1
  -5 -10 -17 18.2845 53.3582   1
  -5 -10 -18 84.9002 56.6726   1
   5  11  -9 46.1192 59.3412   1
   5  11  -9 111.809  70.957   1
   5  11  -8 15.6887 53.8075   1
   5  11  -8-79.9464 64.1695   1
   5  11  -7 332.741 61.2069   1
   5  11  -7 245.298 120.126   1
   5  11  -6 1201.63 87.2921   1
   5  11  -6 1089.19 100.349   1
   5  11  -5-39.6114 80.5051   1
   5  11  -5 23.9588 92.8389   1
   5  11  -4-62.2866 75.8803   1
   5  11  -4 35.4123 50.7334   1
   5  11  -3 470.287 53.5668   1
   5  11  -3 427.295  99.177   1
   5  11  -2  68.556 41.2828   1
   5  11  -2 71.8394 45.9763   1
   5  11  -1 235.763 76.1849   1
   5  11   0 177.035 40.0507   1
  -5 -11   0 164.826 22.2483   1
   5  11   1-0.57005 60.7544   1
  -5 -11  -1 64.7239 14.6981   1
   5  11   2 162.644 59.8647   1
  -5 -11  -2 170.382 31.5055   1
   5  11   3 212.735 32.0075   1
  -5 -11  -3 149.008 22.6946   1
   5  11   4  92.059 46.9579   1
  -5 -11  -4 111.284 24.7371   1
   5  11   5 798.836 61.6862   1
  -5 -11  -5  829.71 40.7278   1
   5  11   6 276.333 25.2003   1
  -5 -11  -6 288.281 56.3688   1
   5  11   7 2178.64 62.6608   1
  -5 -11  -7 2216.19   87.05   1
  -5 -11  -7 2151.25 58.6886   1
   5  11   8 345.897 38.6559   1
  -5 -11  -8 378.179 42.9023   1
  -5 -11  -8 378.714 21.1618   1
   5  11   9 959.998 48.7856   1
  -5 -11  -9 1048.76 103.983   1
  -5 -11  -9 1023.96 43.8605   1
   5  11  10 1562.38 41.6507   1
  -5 -11 -10 1723.17 138.945   1
  -5 -11 -10 1542.90 52.9881   1
   5  11  11 297.363 18.0612   1
  -5 -11 -11 313.274 49.6414   1
  -5 -11 -11 296.763 15.6141   1
   5  11  12  112.50  14.146   1
  -5 -11 -12 174.639 47.9739   1
  -5 -11 -12 121.578 12.3129   1
   5  11  13  113.52 14.9436   1
  -5 -11 -13 172.587 49.0557   1
  -5 -11 -13 121.363 18.8749   1
   5  11  14 37.3034 13.1406   1
  -5 -11 -14 72.0743  48.388   1
  -5 -11 -14 63.8067  16.966   1
   5  11  15-12.4387 20.4206   1
  -5 -11 -15  14.926 84.3812   1
  -5 -11 -15-0.26455 9.39553   1
  -5 -11 -16-45.4202 89.5794   1
  -5 -11 -17 14.4599 92.1491   1
  -5 -11 -18 171.768 61.0829   1
   5  12  -8-75.0311 97.4095   1
   5  12  -8 138.211 68.6198   1
   5  12  -7 92.4751 92.3258   1
   5  12  -7 57.6576 65.1733   1
   5  12  -6 86.5081 88.1041   1
   5  12  -6 62.8149 102.704   1
   5  12  -5 196.166  86.209   1
   5  12  -5 131.216 58.7578   1
   5  12  -4 162.863 48.0777   1
   5  12  -4 166.191 93.1489   1
   5  12  -3 113.022 46.1359   1
   5  12  -3 171.901 49.8285   1
   5  12  -2 133.927  43.932   1
   5  12  -2 180.706 47.8683   1
   5  12  -1 59.4628 65.2808   1
   5  12  -1 108.686 42.1258   1
   5  12   0 117.379 37.6158   1
   5  12   0  144.89 41.4858   1
  -5 -12   0 142.435 20.0895   1
   5  12   1 362.201 66.4421   1
  -5 -12  -1 331.106   18.23   1
   5  12   2 277.589 63.6309   1
  -5 -12  -2  348.67 35.1483   1
   5  12   3 1882.36 76.9307   1
  -5 -12  -3 1889.09 57.1367   1
   5  12   4 719.213 41.8633   1
  -5 -12  -4 721.685 37.0203   1
   5  12   5 1574.07  88.961   1
  -5 -12  -5 1823.45 99.1576   1
   5  12   6 610.674 30.5125   1
  -5 -12  -6 718.328 41.5972   1
   5  12   7 371.907 38.8272   1
  -5 -12  -7 383.737 37.1587   1
   5  12   8 -8.8199 16.8044   1
  -5 -12  -8-24.5083 32.7808   1
   5  12   9 16.3724 15.0132   1
  -5 -12  -9-4.54421 61.2686   1
   5  12  10 405.885 29.5721   1
  -5 -12 -10 480.592 49.3201   1
  -5 -12 -10  361.32 16.7099   1
   5  12  11 1464.67 51.3052   1
  -5 -12 -11 1918.48  91.902   1
  -5 -12 -11 1471.95 45.9869   1
   5  12  12 16.3313 11.3884   1
  -5 -12 -12-24.8664 45.8578   1
  -5 -12 -12 30.5328 16.4113   1
   5  12  13 28.1077 17.8177   1
  -5 -12 -13 70.4694 47.7769   1
  -5 -12 -13 25.0697 14.1463   1
   5  12  14 99.7617 16.0418   1
  -5 -12 -14 156.587 51.1111   1
  -5 -12 -15 58.9355 52.6358   1
  -5 -12 -16 7.89119 54.5329   1
  -5 -12 -17 35.4967 56.8818   1
   5  13  -7-0.58595 55.6565   1
   5  13  -7 45.3871 65.0424   1
   5  13  -6 313.448  62.074   1
   5  13  -6 331.347 71.9446   1
   5  13  -5 60.1522  49.902   1
   5  13  -5 66.3954 96.4242   1
   5  13  -4 58.6038 44.4011   1
   5  13  -4-76.8915 50.8924   1
   5  13  -3 70.0104  43.509   1
   5  13  -3 20.7625 48.2656   1
   5  13  -2-46.9962 70.2185   1
   5  13  -2-14.2957 74.5347   1
   5  13  -1 182.823 41.8481   1
   5  13  -1  202.61 44.8904   1
   5  13   0 133.462 37.7332   1
   5  13   0  98.821 67.3354   1
   5  13   1 14.5473 33.2484   1
   5  13   1  58.271 36.0629   1
  -5 -13  -1 88.8894 15.4654   1
   5  13   2 16.8532 50.0528   1
   5  13   2-1.65052 32.2856   1
  -5 -13  -2 55.1863 28.1696   1
   5  13   3 56.7158 27.1924   1
  -5 -13  -3-21.5475 32.9281   1
   5  13   4  87.877 25.8916   1
  -5 -13  -4 93.0027 36.2687   1
   5  13   5 207.031 25.4982   1
  -5 -13  -5 197.698 47.1019   1
   5  13   6 1645.62 80.8061   1
  -5 -13  -6 1840.53  68.679   1
   5  13   7 865.811 32.8316   1
  -5 -13  -7 965.235 51.2905   1
   5  13   8 10.0615 16.5631   1
  -5 -13  -8-62.9908 34.0368   1
   5  13   9 598.018  22.215   1
  -5 -13  -9 796.913 82.3305   1
   5  13  10 491.627 19.0198   1
  -5 -13 -10 650.524 51.1976   1
  -5 -13 -11 290.188 48.7021   1
   5  13  12 32.9584  9.3602   1
  -5 -13 -12 122.622 44.8283   1
  -5 -13 -13  144.18 50.6513   1
  -5 -13 -14 122.629  51.762   1
  -5 -13 -15 86.4935  53.898   1
  -5 -13 -16-7.71183 54.3048   1
  -5 -13 -17-109.008 60.0338   1
   5  14  -6-10.1851 54.3179   1
   5  14  -6 58.6149 105.548   1
   5  14  -5 62.3877 50.7845   1
   5  14  -5 16.9196 57.9148   1
   5  14  -4 158.521  49.532   1
   5  14  -4  54.149 55.7987   1
   5  14  -3  31.339 73.6622   1
   5  14  -3 48.3357 82.8767   1
   5  14  -2-38.3238 70.5623   1
   5  14  -2 82.3252 46.0174   1
   5  14  -1 45.8743 38.2918   1
   5  14  -1 19.0735 42.4757   1
   5  14   0 2.21395 60.7277   1
   5  14   0 70.3394 65.4652   1
   5  14   1-21.2275  32.687   1
   5  14   1-12.8357 34.5145   1
  -5 -14  -1 1.48684 13.8659   1
   5  14   2-31.6525 51.0628   1
   5  14   2 30.1858 31.9544   1
  -5 -14  -2 61.3311 30.3594   1
   5  14   3 158.039 29.0328   1
   5  14   3 144.416 52.8124   1
  -5 -14  -3 149.113 35.0093   1
   5  14   4  87.738 25.9384   1
   5  14   4 107.034  27.784   1
  -5 -14  -4 145.388 38.8688   1
   5  14   5 257.357  25.591   1
   5  14   5 239.297 27.2642   1
  -5 -14  -5 233.699 43.9754   1
   5  14   6-45.3483 32.8632   1
  -5 -14  -6 44.4279 25.4699   1
   5  14   7-12.0568 17.2894   1
  -5 -14  -7 29.8937 28.8477   1
   5  14   8 23.1042 26.1724   1
  -5 -14  -8 40.1353 32.4011   1
   5  14   9-28.1536 21.9058   1
  -5 -14  -9 33.8393  59.864   1
   5  14  10 165.606 13.5212   1
  -5 -14 -10 170.484 42.9236   1
   5  14  11 470.178 22.9004   1
  -5 -14 -11 717.521 57.7089   1
  -5 -14 -12 142.593 80.7281   1
  -5 -14 -13 524.419 106.798   1
  -5 -14 -14 92.8771 87.6196   1
  -5 -14 -15 30.2514 90.9798   1
  -5 -14 -16-105.556 98.2685   1
   5  15  -4 276.584 88.7426   1
   5  15  -4 122.705 60.2901   1
   5  15  -3  6.7607 46.1986   1
   5  15  -3-35.6253  51.582   1
   5  15  -2 377.557 51.0217   1
   5  15  -2 376.036 57.4945   1
   5  15  -1 85.3865 41.8389   1
   5  15  -1 136.553 74.8576   1
   5  15   0 515.696 78.0495   1
   5  15   0 465.999 51.8981   1
   5  15   1 1096.10 60.6502   1
   5  15   1 1076.39 64.6984   1
  -5 -15  -1 1080.34 32.1618   1
   5  15   2 0.59135 50.7673   1
   5  15   2 66.7485  55.049   1
  -5 -15  -2 40.2643 28.4304   1
   5  15   3 409.672 55.6419   1
   5  15   3 377.525 58.9977   1
  -5 -15  -3 392.993 40.6836   1
   5  15   4 242.228 28.3344   1
   5  15   4 209.928 30.3021   1
  -5 -15  -4 349.146 42.1353   1
   5  15   5 91.1874 22.9498   1
   5  15   5 115.406   24.30   1
  -5 -15  -5 137.342 43.1725   1
   5  15   6 20.0591 32.3616   1
   5  15   6 5.93504 20.3236   1
  -5 -15  -6 8.23407  26.887   1
   5  15   7 60.4031 17.7851   1
   5  15   7 91.6579 30.2382   1
  -5 -15  -7 78.0879 28.9627   1
   5  15   8 15.6395 24.8805   1
   5  15   8 7.77174 25.7266   1
  -5 -15  -8 33.4655 51.3764   1
   5  15   9 41.1547 22.1652   1
   5  15   9 79.3025 22.4645   1
  -5 -15  -9 105.112 35.6985   1
  -5 -15 -10  9.6267 37.3967   1
  -5 -15 -11 326.384 80.0705   1
  -5 -15 -12 226.774 82.8833   1
  -5 -15 -14 27.3785 52.5045   1
   5  16  -2  4.6364 42.4784   1
   5  16  -2 56.1834 47.8733   1
   5  16  -1 200.027 49.6208   1
   5  16   0 57.4935 37.0873   1
   5  16   0  66.856 41.8107   1
   5  16   1 372.968 64.4799   1
   5  16   1 171.459 71.1001   1
   5  16   2 405.739 38.0876   1
   5  16   2 310.537  66.219   1
  -5 -16  -2 361.108  35.981   1
   5  16   3 42.8889 46.1515   1
   5  16   3 49.3764 29.9823   1
  -5 -16  -3 19.0122 20.9554   1
   5  16   4 170.132 45.4193   1
   5  16   4 232.812 30.1969   1
  -5 -16  -4 250.003 25.6096   1
   5  16   5 62.7747 37.4095   1
   5  16   5 108.659 24.9001   1
  -5 -16  -5 91.0039 43.1107   1
   5  16   6 22.8545 21.0429   1
  -5 -16  -6 109.813 45.3875   1
   5  16   7 0.94757  17.046   1
   5  16   7 10.1455 18.0218   1
  -5 -16  -7 3.15509 29.5224   1
   5  16   8-27.8426 24.1577   1
   5  16   8 22.1775 15.0114   1
  -5 -16  -8-46.6679 50.5471   1
  -5 -16  -9 12.3067 33.0776   1
  -5 -16 -10 15.8706 36.5448   1
  -5 -16 -11-7.08262 69.2365   1
  -5 -16 -12 38.9327 44.9671   1
  -5 -16 -13 14.7014 48.1371   1
   5  17   1 26.5043 56.3205   1
   5  17   1 21.2653 63.3218   1
   5  17   2 63.0174 32.1143   1
   5  17   2 74.4941 35.5491   1
   5  17   3 96.3978 29.8654   1
   5  17   3 183.471 32.6271   1
  -5 -17  -3 121.915   21.52   1
   5  17   4-112.764  40.794   1
   5  17   4-11.8358 27.5406   1
  -5 -17  -4 15.5676 23.7765   1
   5  17   5-28.4793 35.6419   1
   5  17   5 13.2099 23.9609   1
  -5 -17  -5 14.5316 25.3781   1
   5  17   6 96.8034 32.9295   1
   5  17   6 85.8174 22.7877   1
  -5 -17  -6 165.688 48.4369   1
   5  17   7 67.0298 17.2508   1
   5  17   7 68.2265 18.6686   1
  -5 -17  -7 145.549 32.1977   1
  -5 -17  -8  214.98 38.8016   1
  -5 -17  -9 227.649 41.9814   1
  -5 -17 -10-25.4961 62.3102   1
   6 -12  -6 126.597 62.5855   1
  -6  12   6  21.246 62.7561   1
   6 -12  -5 110.593 59.8087   1
  -6  12   5 132.938 102.449   1
  -6  12   4-4.33139 57.7456   1
  -6  12   3 165.644 99.5908   1
  -6  12   2-22.2722 52.9729   1
  -6  12   1 74.8049 53.6922   1
  -6  12   0 289.776 93.5197   1
  -6  12   0 154.481  18.061   1
  -6  12  -1-37.8093 48.8178   1
  -6  12  -1-33.0782 19.8751   1
  -6  12  -2-64.9485 78.7904   1
  -6  12  -2 26.1013 37.7088   1
  -6  12  -3  62.606 45.2346   1
  -6  12  -3  29.922 43.5674   1
  -6  12  -4  26.263 43.2715   1
  -6  12  -4-63.4891 30.1564   1
   6 -11  -8 26.4263 59.8628   1
   6 -11  -7 100.094 60.9382   1
  -6  11   7 128.032 62.2598   1
   6 -11  -6  148.90 103.012   1
  -6  11   6 39.3891 60.3085   1
   6 -11  -5  188.90 63.3951   1
  -6  11   5 229.182 63.5291   1
  -6  11   4 167.158 58.2113   1
  -6  11   3 104.745 56.2948   1
  -6  11   2 166.307 52.4425   1
  -6  11   2 53.0026 11.2195   1
  -6  11   1 78.2628 51.6861   1
  -6  11   1  28.259 22.3716   1
  -6  11   0 51.9287 50.1029   1
  -6  11   0 39.6125 16.6457   1
  -6  11  -1-35.8539 79.8179   1
  -6  11  -1 21.2771 19.7403   1
  -6  11  -2 53.1922 45.8881   1
  -6  11  -2 51.3534 23.5432   1
  -6  11  -3-4.29563 42.9642   1
  -6  11  -3 3.06685 43.8323   1
  -6  11  -4-3.55077 41.2786   1
  -6  11  -4 68.0172 30.2858   1
  -6  11  -5 147.136 40.9111   1
  -6  11  -5  12.215 58.9458   1
  -6  11  -6-61.9356 38.1723   1
  -6  11  -6  22.993 37.5061   1
  -6  11  -7 199.308 71.7082   1
  -6  11  -7 195.908 44.6604   1
   6 -10 -10 78.0139 64.8013   1
   6 -10  -9 178.903 112.791   1
   6 -10  -8 1.35592 56.4826   1
   6 -10  -7-20.4922 54.1949   1
  -6  10   7 -6.6026 55.6368   1
   6 -10  -6 97.8703 54.8799   1
  -6  10   6 66.8454 95.8969   1
   6 -10  -5 3.55376 95.2076   1
  -6  10   5 117.025  56.599   1
   6 -10  -4 493.753 67.5759   1
  -6  10   4 445.999 110.824   1
  -6  10   3-15.1514 50.4823   1
  -6  10   3 10.5776  13.654   1
  -6  10   2 231.657 55.0858   1
  -6  10   2 140.792 12.9106   1
   6 -10  -1 180.283 20.9153   1
  -6  10   1 231.494 55.6353   1
  -6  10   1 203.782 26.1909   1
   6 -10   0 98.3733 22.6482   1
  -6  10   0 48.2055 50.8503   1
  -6  10   0 62.5507 17.5545   1
   6 -10   1 848.496 72.7209   1
  -6  10  -1 1291.69 80.5549   1
   6 -10   2 36.6378 48.4811   1
  -6  10  -2 43.7414 72.5024   1
  -6  10  -2 27.0679 23.2168   1
   6 -10   3-27.6312 54.2307   1
  -6  10  -3 -14.656 40.5491   1
  -6  10  -3 96.2384 45.1039   1
   6 -10   4 133.532 61.8806   1
  -6  10  -4 141.061 67.5537   1
  -6  10  -4 58.9852 31.0854   1
   6 -10   5 66.3359 38.5346   1
  -6  10  -5 20.3831 39.7307   1
  -6  10  -5-10.4948   55.75   1
   6 -10   6 18.7462 42.7991   1
  -6  10  -6 43.0975 39.0811   1
  -6  10  -6-9.43606 36.3543   1
   6 -10   7-30.9814 49.0105   1
  -6  10  -7 140.768   66.48   1
  -6  10  -7 160.857 42.1728   1
   6 -10   8 64.9255  50.907   1
  -6  10  -8 7.61663 62.4614   1
  -6  10  -8 -41.691 74.9276   1
  -6  10  -9 185.327 38.9239   1
  -6  10  -9 21.7912 90.5607   1
   6  -9 -11 263.932 68.6709   1
   6  -9 -10-78.8258 61.9573   1
   6  -9  -9 411.877  72.039   1
   6  -9  -8 157.329 100.257   1
   6  -9  -7-8.69178 52.4198   1
  -6   9   7 110.212  53.471   1
   6  -9  -6 177.793 57.0484   1
  -6   9   6 203.257 58.6564   1
   6  -9  -5 380.772 61.5659   1
  -6   9   5 372.392 64.7194   1
   6  -9  -4  20.369 52.0512   1
  -6   9   4 67.7622 51.1972   1
  -6   9   4 33.5219 9.36147   1
   6  -9  -3 272.687 54.2525   1
   6  -9  -3 118.874  20.712   1
  -6   9   3 197.814 91.9235   1
  -6   9   3 118.483 16.0569   1
   6  -9  -2 46.7389 15.1978   1
  -6   9   2 8.70496 50.1306   1
  -6   9   2 41.2747 19.2527   1
   6  -9  -1 146.669 35.0987   1
  -6   9   1 353.904 89.5768   1
  -6   9   1 207.625 26.1296   1
   6  -9   0 393.106 47.4753   1
  -6   9   0 511.831 59.2231   1
   6  -9   1-19.6734 45.3567   1
  -6   9  -1-18.4247 44.3218   1
  -6   9  -1 45.6185 20.1499   1
   6  -9   2 517.765 67.1582   1
  -6   9  -2 666.418 58.6603   1
  -6   9  -2 513.218  33.956   1
   6  -9   3-58.8794 56.2663   1
  -6   9  -3 56.4997 73.4409   1
  -6   9  -3 29.6553 27.2945   1
   6  -9   4 60.2028 37.5399   1
  -6   9  -4 56.7483 43.1116   1
  -6   9  -4 24.1557 54.2517   1
   6  -9   5 417.573   47.35   1
  -6   9  -5 210.486 40.8566   1
   6  -9   6 634.886 61.4699   1
  -6   9  -6 760.076 57.6084   1
  -6   9  -6 660.435 53.5869   1
   6  -9   7  295.74 54.0739   1
  -6   9  -7 339.904 45.2965   1
  -6   9  -7 245.906 78.3583   1
   6  -9   8 56.0479 84.4863   1
  -6   9  -8 133.663 62.0983   1
  -6   9  -8-4.63574 76.8271   1
   6  -9   9-25.4577  53.001   1
  -6   9  -9 41.2795 35.1306   1
  -6   9  -9-14.4945  48.426   1
   6  -9  10 25.4795 58.1661   1
  -6   9 -10 12.5239 35.1347   1
  -6   9 -10 67.2053 51.9788   1
   6  -9  11  33.929 61.4504   1
  -6   9 -11-26.8825 34.0847   1
  -6   9 -11-55.5685 56.7335   1
   6  -8 -12-89.5802 92.6767   1
   6  -8 -11 445.508 114.867   1
   6  -8 -10 521.463 70.8556   1
   6  -8  -9  18.156 53.4255   1
   6  -8  -8 322.278 62.1459   1
   6  -8  -7 387.066 114.085   1
  -6   8   7 482.507 64.7229   1
   6  -8  -6 6.57468  50.357   1
  -6   8   6 70.6727 52.8263   1
   6  -8  -5 479.197 62.9312   1
  -6   8   5  464.30 106.266   1
   6  -8  -4 35.3653 82.9929   1
   6  -8  -4-5.04357 14.4118   1
  -6   8   4-31.4678 50.0706   1
  -6   8   4  2.6516 11.4867   1
   6  -8  -3  77.653 50.3527   1
   6  -8  -3 18.1742 21.9402   1
  -6   8   3 84.9701 48.5716   1
  -6   8   3 34.0007 10.0268   1
   6  -8  -2-17.7481 27.5466   1
  -6   8   2-115.301 84.2646   1
  -6   8   2-10.6244 19.6546   1
   6  -8  -1  281.55  24.714   1
  -6   8   1 435.056 54.1059   1
  -6   8   1 284.037 28.9201   1
   6  -8   0 152.607 26.7803   1
  -6   8   0 239.746 47.3949   1
  -6   8   0 169.686   19.20   1
   6  -8   1 11.6401 27.8607   1
  -6   8  -1 67.7744 42.4376   1
  -6   8  -1 50.7413 21.4513   1
   6  -8   2 364.966  62.493   1
  -6   8  -2 389.286 53.3642   1
  -6   8  -2 326.372  30.077   1
   6  -8   3  41.608 59.2718   1
  -6   8  -3-123.854 42.6845   1
  -6   8  -3 13.7786 28.5841   1
   6  -8   4 1194.51 73.1352   1
  -6   8  -4 1412.45  80.591   1
  -6   8  -4 1166.55 98.5428   1
   6  -8   5 60.1522  43.553   1
  -6   8  -5 136.148 42.1366   1
  -6   8  -5 78.0164 36.3091   1
   6  -8   6 907.185 73.8224   1
  -6   8  -6 1074.29 68.2247   1
  -6   8  -6 899.918 63.9116   1
   6  -8   7 910.208 128.531   1
  -6   8  -7 984.263 65.1184   1
  -6   8  -7 855.684 111.445   1
   6  -8   8 138.468 52.1842   1
  -6   8  -8 120.247 65.6284   1
  -6   8  -8  -69.88  80.385   1
   6  -8   9 77.5153  56.977   1
  -6   8  -9 325.764 69.0062   1
  -6   8  -9 182.152 52.1216   1
   6  -8  10 33.7249 59.1428   1
  -6   8 -10 121.123 38.7769   1
  -6   8 -10 157.191 53.9943   1
   6  -8  11-78.1293 103.603   1
  -6   8 -11 7.96834 35.4592   1
  -6   8 -11 106.957 56.8501   1
   6  -8  12 207.943 69.3072   1
  -6   8 -12 145.856 37.4903   1
  -6   8 -12 79.9165 65.7181   1
   6  -7 -13 17.1033 48.1965   1
   6  -7 -12 19.4962 48.5328   1
   6  -7 -11 69.8373 49.6603   1
   6  -7 -10 6.00933 80.7877   1
   6  -7  -9 246.783 93.0463   1
   6  -7  -8 93.1282 50.5053   1
  -6   7   8 27.4015 48.0096   1
   6  -7  -7 251.503 56.6937   1
  -6   7   7 244.007 92.3373   1
   6  -7  -6 925.545 125.736   1
  -6   7   6 818.238 74.1548   1
   6  -7  -5 69.1087 48.4087   1
   6  -7  -5 32.2445 11.8475   1
  -6   7   5 87.7133 48.0854   1
  -6   7   5 42.5342 9.30676   1
   6  -7  -4 1609.80 105.985   1
  -6   7   4 1979.20 171.136   1
   6  -7  -3  660.45  68.768   1
   6  -7  -3  581.32 36.4053   1
  -6   7   3 893.632 68.7262   1
  -6   7   3 591.342  26.903   1
   6  -7  -2 333.336  56.672   1
   6  -7  -2 317.909 36.7124   1
  -6   7   2 320.648 58.0326   1
  -6   7   2 269.738 16.4315   1
   6  -7  -1 2913.57  136.43   1
  -6   7   1 3836.74 252.034   1
   6  -7   0 289.148 30.4107   1
  -6   7   0 426.713 52.7401   1
  -6   7   0 329.816  37.836   1
   6  -7   1 487.879 37.8827   1
  -6   7  -1 649.197 59.4687   1
  -6   7  -1 476.032 30.2512   1
   6  -7   2 156.208 33.5506   1
  -6   7  -2 115.325 78.5276   1
  -6   7  -2 116.557  27.114   1
   6  -7   3 121.044 63.7273   1
  -6   7  -3 122.285 45.0748   1
  -6   7  -3 124.426  53.039   1
   6  -7   4 1674.91 87.3976   1
  -6   7  -4 2158.58 147.567   1
  -6   7  -4 1540.64 74.1502   1
   6  -7   5-20.4156 41.7497   1
  -6   7  -5-27.8713 39.8316   1
  -6   7  -5 -5.5558 34.9172   1
   6  -7   6 644.617 111.177   1
  -6   7  -6 857.241 102.283   1
  -6   7  -6 746.082 56.4613   1
   6  -7   7 1169.86 91.4271   1
  -6   7  -7 1443.73 81.0368   1
   6  -7   8-20.9686 52.4925   1
  -6   7  -8 39.7245 38.9986   1
  -6   7  -8 49.8002 46.2282   1
   6  -7   9 1.02626 54.3116   1
  -6   7  -9 99.7154 60.1553   1
  -6   7  -9-30.3887 47.9054   1
   6  -7  10 307.212 66.8691   1
  -6   7 -10 397.408 42.2776   1
  -6   7 -10 406.858 62.0649   1
   6  -7  11-32.5845 57.6823   1
  -6   7 -11-16.8504 34.1073   1
  -6   7 -11-24.2636 54.9647   1
   6  -7  12 27.2637 108.472   1
  -6   7 -12 49.3965 33.1929   1
  -6   7 -12-14.8612 60.1747   1
   6  -7  13 72.9352 69.1553   1
  -6   7 -13 9.59017  64.129   1
   6  -6 -13-22.1375 44.6014   1
   6  -6 -12 38.3683  45.004   1
   6  -6 -11 360.097 52.6467   1
   6  -6 -10 6.83137 43.7717   1
   6  -6  -9  31.488 75.0293   1
   6  -6  -8 54.7725 81.6418   1
  -6   6   8 106.225 46.4869   1
   6  -6  -7 117.957 48.1552   1
   6  -6  -7 85.4511 8.91355   1
   6  -6  -7  72.511 8.37059   1
  -6   6   7 143.219 80.1212   1
   6  -6  -6 99.2589 50.0661   1
   6  -6  -6  118.66 8.35674   1
  -6   6   6 154.223 48.1032   1
   6  -6  -5 412.649 94.2625   1
   6  -6  -5 434.665 23.1039   1
  -6   6   5 626.538 56.9685   1
   6  -6  -4 36.1748 45.1364   1
   6  -6  -4 42.2929 22.6698   1
  -6   6   4 65.6758  46.705   1
   6  -6  -3 2041.67 177.379   1
   6  -6  -3 1803.54 48.6571   1
  -6   6   3 2171.76 172.307   1
   6  -6  -2 611.153 61.1472   1
   6  -6  -2 532.298 44.7281   1
  -6   6   2 597.418 59.0197   1
  -6   6   2 441.442 29.6213   1
   6  -6  -1 10.1755 23.3365   1
  -6   6   1 45.8773 44.2989   1
  -6   6   1 6.80369 28.7866   1
   6  -6   0 4095.48 141.442   1
  -6   6   0 4426.02 205.222   1
  -6   6   0 3709.26 117.231   1
   6  -6   1 623.773 76.8168   1
  -6   6  -1 882.879 114.374   1
  -6   6  -1 605.444  58.103   1
   6  -6   2 1186.01 68.5759   1
  -6   6  -2 1521.50 87.2181   1
  -6   6  -2 1048.88 88.9132   1
   6  -6   3 5571.78  376.01   1
  -6   6  -3 6221.61 302.267   1
  -6   6  -3 5044.15 318.994   1
   6  -6   4 2157.26 105.547   1
  -6   6  -4 2667.61 185.782   1
  -6   6  -4 1990.93 94.1465   1
   6  -6   5  443.18 53.6283   1
  -6   6  -5 420.529 54.3734   1
  -6   6  -5 374.603  46.882   1
   6  -6   6 14.5922 78.7411   1
  -6   6  -6-67.3755 72.7881   1
  -6   6  -6-41.4356 40.4733   1
   6  -6   7 5.80573 49.3983   1
  -6   6  -7 14.2267 37.4263   1
  -6   6  -7-96.7811 73.0312   1
   6  -6   8 652.908 69.0416   1
  -6   6  -8 582.405 50.4458   1
  -6   6  -8 504.082 61.9543   1
   6  -6   9 254.775 97.1607   1
  -6   6  -9 29.8387 65.3728   1
  -6   6  -9 136.495 51.3374   1
   6  -6  10-25.5745 53.6052   1
  -6   6 -10-5.87572 35.7923   1
  -6   6 -10 25.7467 50.6061   1
   6  -6  11 108.297 100.197   1
  -6   6 -11  13.179  34.822   1
  -6   6 -11-31.8899 53.9616   1
   6  -6  12  113.07 60.3513   1
  -6   6 -12-54.5812 57.0065   1
   6  -6  13-78.4434 65.9208   1
  -6   6 -13-86.0491 62.5858   1
   6  -6  14-68.3388 120.964   1
  -6   6 -14 149.346 68.8042   1
   6  -5 -14-16.4728 40.0229   1
   6  -5 -13 53.6653 41.5587   1
   6  -5 -12 177.723 44.1154   1
   6  -5 -11 116.733 42.5927   1
   6  -5 -10  538.63  49.122   1
   6  -5 -10 328.536 10.3965   1
   6  -5  -9-0.08921 40.1961   1
   6  -5  -9 15.3755 7.64596   1
   6  -5  -9 4.93273 8.88961   1
   6  -5  -8 77.6983 70.1386   1
   6  -5  -8 15.3817 13.8807   1
   6  -5  -8 19.9245 8.96206   1
   6  -5  -7 452.209 56.0037   1
   6  -5  -7 439.393  21.941   1
  -6   5   7 536.215 89.9763   1
   6  -5  -6 1776.17 102.157   1
   6  -5  -6 1733.29  49.808   1
  -6   5   6 1846.85  100.80   1
   6  -5  -5 322.003 88.6308   1
   6  -5  -5 285.753 25.4595   1
  -6   5   5 260.866 49.0231   1
  -6   5   5 221.644 18.8748   1
   6  -5  -4 386.803 49.9108   1
   6  -5  -4 352.191 29.4839   1
  -6   5   4 382.884 51.7748   1
  -6   5   4 285.684 21.9003   1
   6  -5  -3-33.4389 72.0354   1
   6  -5  -3-15.6272 28.6424   1
  -6   5   3 22.7032 42.7006   1
  -6   5   3 1.06522 11.9857   1
   6  -5  -2-9.67034 43.3631   1
   6  -5  -2 14.3259 18.9051   1
  -6   5   2 39.4157 39.8665   1
  -6   5   2 5.60335 22.2648   1
   6  -5  -1 75.3113 23.6745   1
  -6   5   1 76.7072 71.3466   1
  -6   5   1 52.0486 28.5936   1
   6  -5   0 280.742 52.5281   1
  -6   5   0 304.566 48.4029   1
  -6   5   0 262.995 37.8707   1
   6  -5   1 156.667 33.1057   1
  -6   5  -1 138.796 44.6417   1
  -6   5  -1 131.194 23.8871   1
   6  -5   2 9.80402 60.1939   1
  -6   5  -2 91.3593 43.5758   1
  -6   5  -2 52.7988 26.1756   1
   6  -5   3 330.826 46.6294   1
  -6   5  -3 586.698 94.0135   1
  -6   5  -3 401.738 38.1408   1
   6  -5   4 3517.66 267.893   1
  -6   5  -4 4442.21 190.786   1
  -6   5  -4 3323.18 152.299   1
   6  -5   5 776.759 70.1131   1
  -6   5  -5 913.976 63.3532   1
  -6   5  -5 745.976 100.592   1
   6  -5   6 611.611 113.061   1
  -6   5  -6 395.561 94.9488   1
  -6   5  -6 519.223 57.8912   1
   6  -5   7 2023.82 130.794   1
  -6   5  -7 2208.96 112.328   1
  -6   5  -7 1845.59 187.898   1
   6  -5   8 607.806 122.951   1
  -6   5  -8 692.016 55.2522   1
  -6   5  -8 619.748  114.58   1
   6  -5   9 87.4998 57.8244   1
  -6   5  -9 87.0082 51.8351   1
   6  -5  10  51.668 57.9455   1
  -6   5 -10 73.2537 52.6916   1
   6  -5  11 60.9338 59.9683   1
  -6   5 -11 108.992 56.4298   1
   6  -5  12-19.5316  60.596   1
  -6   5 -12 36.9659 57.4932   1
   6  -5  13-9.42023 107.077   1
  -6   5 -13   66.05 60.3352   1
   6  -5  14 90.3656  67.446   1
  -6   5 -14 56.4466 66.8385   1
   6  -5  15-18.9915 120.475   1
  -6   5 -15 122.873 70.9729   1
   6  -4 -14 113.844 38.6059   1
   6  -4 -13  58.124 38.0814   1
   6  -4 -12 26.9851 35.8051   1
   6  -4 -11 143.529 38.3295   1
   6  -4 -11 91.0951 12.1051   1
   6  -4 -11 107.267 14.0558   1
   6  -4 -10 14.0176 37.3331   1
   6  -4 -10 46.8076  18.819   1
   6  -4 -10 27.7373 13.4982   1
   6  -4  -9 78.7616 38.8074   1
   6  -4  -9 130.312 19.8088   1
   6  -4  -9 75.1176 22.8947   1
   6  -4  -8 433.467 46.0908   1
   6  -4  -8 424.427 24.5258   1
   6  -4  -8 354.099 17.4206   1
   6  -4  -7 1913.22 159.744   1
   6  -4  -7 1932.22 60.4582   1
  -6   4   7 1932.71 155.574   1
   6  -4  -6 1724.51 102.581   1
   6  -4  -6 1899.45 60.4125   1
  -6   4   6 1870.24 98.4841   1
   6  -4  -5 943.871 71.3164   1
   6  -4  -5 1082.47 44.4398   1
  -6   4   5 1018.28 66.1071   1
  -6   4   5 856.554 36.3451   1
   6  -4  -4 957.795 67.8021   1
   6  -4  -4 1074.47 50.8283   1
  -6   4   4 1130.36 70.2869   1
   6  -4  -3 2595.08 120.225   1
   6  -4  -3 2540.54 99.7515   1
  -6   4   3 2733.95 121.605   1
  -6   4   3 2372.90  78.694   1
   6  -4  -2 68.2274 41.6011   1
   6  -4  -2-8.69034 35.7828   1
  -6   4   2 21.9879  37.482   1
  -6   4   2 29.9981 25.7989   1
   6  -4  -1 504.584 50.3495   1
  -6   4   1 638.595 51.5332   1
  -6   4   1 436.041 23.0541   1
   6  -4   0 4911.67  235.72   1
  -6   4   0 5503.21 219.932   1
  -6   4   0 4373.28 140.429   1
   6  -4   1 121.085 52.8389   1
  -6   4  -1 119.249 42.3571   1
  -6   4  -1 135.827 41.5225   1
   6  -4   2 3154.14 126.623   1
  -6   4  -2 4083.77 239.202   1
  -6   4  -2 2924.17 154.999   1
   6  -4   3 876.908 58.6563   1
  -6   4  -3 1059.93 63.9268   1
  -6   4  -3 732.809 46.5895   1
   6  -4   4 27.7102 74.9863   1
  -6   4  -4 154.416  40.415   1
  -6   4  -4  61.127 61.7439   1
   6  -4   5  66.587  44.761   1
  -6   4  -5  92.285 40.9406   1
  -6   4  -5 38.1545 38.8246   1
   6  -4   6 275.484 94.0196   1
  -6   4  -6 256.863 47.1113   1
   6  -4   7 389.402 61.6305   1
  -6   4  -7 319.623 54.3127   1
   6  -4   8 2481.60 147.835   1
  -6   4  -8 2315.81 215.379   1
   6  -4   9 660.859 75.8492   1
  -6   4  -9 625.825 70.7148   1
   6  -4  10 201.669 66.5002   1
  -6   4 -10 321.211 61.0175   1
   6  -4  11 279.144  64.576   1
  -6   4 -11  134.47 59.1379   1
   6  -4  12-37.2688 103.411   1
  -6   4 -12 54.3863 57.5117   1
   6  -4  13-24.9697   62.38   1
  -6   4 -13 42.3216 59.2363   1
   6  -4  14 96.0291 108.418   1
  -6   4 -14 8.05261 62.1557   1
   6  -4  15 138.124 70.8072   1
  -6   4 -15 172.544 69.5354   1
   6  -4  16 110.651  113.71   1
  -6   4 -16-35.2387  67.537   1
   6  -3 -14 86.5502 57.2819   1
   6  -3 -13 383.713 64.3654   1
   6  -3 -13 309.774 30.4318   1
   6  -3 -13 272.714 22.1858   1
   6  -3 -12 60.3623 54.3893   1
   6  -3 -12-23.5158 24.3134   1
   6  -3 -12 0.48878   17.26   1
   6  -3 -11 122.101 57.6512   1
   6  -3 -11 85.7683  15.554   1
   6  -3 -11 65.9159 18.4732   1
   6  -3 -10 126.785 35.4345   1
   6  -3 -10 139.898 25.8433   1
   6  -3 -10 107.169 18.6124   1
   6  -3  -9 55.6365   33.36   1
   6  -3  -9 9.61005 13.8097   1
   6  -3  -9-14.2404 16.4814   1
   6  -3  -8 78.3485 35.4819   1
   6  -3  -8 80.8876 24.5258   1
   6  -3  -7 1318.70 117.531   1
   6  -3  -7 1463.41 55.4236   1
  -6   3   7 1412.12 74.5631   1
   6  -3  -6 619.773 54.3114   1
   6  -3  -6 703.067 38.8919   1
  -6   3   6 624.368 53.5054   1
   6  -3  -5 3761.87 174.074   1
   6  -3  -5 4091.54 135.331   1
  -6   3   5 3747.56 159.254   1
  -6   3   5 3415.80 88.1473   1
   6  -3  -4  429.72 49.4914   1
   6  -3  -4 520.553 24.0436   1
  -6   3   4 546.078 49.7318   1
  -6   3   4 486.123 20.5247   1
   6  -3  -3 46.3874 37.6561   1
   6  -3  -3 59.0596 19.3986   1
  -6   3   3 80.6955 38.1371   1
  -6   3   3 93.7104 27.1136   1
   6  -3  -2 1463.20 74.3466   1
   6  -3  -2 1529.49 71.8235   1
  -6   3   2 1492.42 69.2347   1
  -6   3   2 1337.95 36.9763   1
   6  -3  -1 259.183 44.3732   1
  -6   3   1 319.391 71.7447   1
  -6   3   1 228.426  19.617   1
   6  -3   0 195.597  48.206   1
  -6   3   0 207.026 68.1985   1
  -6   3   0 151.939 22.1203   1
   6  -3   1 195.139 51.7137   1
  -6   3  -1 203.531 69.6065   1
  -6   3  -1 146.748 42.4254   1
   6  -3   2 1573.74 111.854   1
  -6   3  -2 2021.20 85.4653   1
  -6   3  -2 1433.27 58.0607   1
   6  -3   3 1641.51 128.193   1
  -6   3  -3 1976.99 84.5536   1
  -6   3  -3 1623.12 70.2204   1
   6  -3   4 846.236 61.1724   1
  -6   3  -4 1061.17 60.8462   1
  -6   3  -4  778.46 53.3024   1
   6  -3   5 1096.36 72.2381   1
  -6   3  -5 926.492 62.0643   1
   6  -3   6 191.128 89.6375   1
  -6   3  -6 155.463 78.1795   1
   6  -3   7 2130.42 119.759   1
  -6   3  -7 1953.58 106.736   1
   6  -3   8 232.277  60.878   1
  -6   3  -8  253.70 55.1393   1
   6  -3   9 50.6391 98.9339   1
   6  -3  10 273.918 63.6428   1
  -6   3 -10 247.015 60.9774   1
   6  -3  11 60.4797 109.883   1
  -6   3 -11 192.397 58.0196   1
   6  -3  12 513.857 75.8734   1
  -6   3 -12 482.092 70.8364   1
   6  -3  13 606.102 133.229   1
  -6   3 -13 500.232 75.2916   1
   6  -3  14 593.486 83.4425   1
  -6   3 -14 499.326 78.3303   1
   6  -3  15 -54.674 112.939   1
  -6   3 -15-71.7313 64.5749   1
   6  -3  16 61.2688 64.5626   1
  -6   3 -16 -111.81  109.42   1
   6  -3  17 60.0391 114.038   1
  -6   3 -17-23.1286 113.199   1
   6  -2 -14 36.7933 47.7885   1
   6  -2 -14-1.13308  18.849   1
   6  -2 -14 51.3991 36.8362   1
   6  -2 -13-2.05353 48.1737   1
   6  -2 -13 51.6516 18.3015   1
   6  -2 -13-60.1884 35.8984   1
   6  -2 -12 51.9703  48.178   1
   6  -2 -12 47.6347 29.3704   1
   6  -2 -12 20.2465 35.3937   1
   6  -2 -11 1.29853 48.8021   1
   6  -2 -11  0.4264 28.6841   1
   6  -2 -11 31.8059 35.6514   1
   6  -2 -10-28.2815 49.8943   1
   6  -2 -10 33.5131 17.2921   1
   6  -2 -10 2.76338 35.0301   1
   6  -2  -9  442.51 40.1184   1
   6  -2  -9 559.388 24.6275   1
   6  -2  -9  458.94  45.682   1
   6  -2  -8-27.4869 31.3145   1
   6  -2  -8-9.52163  17.362   1
   6  -2  -7 49.4488 59.4652   1
   6  -2  -7 117.062 32.5069   1
  -6   2   7 62.6601 35.0078   1
   6  -2  -6 2.36654 35.0973   1
   6  -2  -6 16.5848 30.3822   1
  -6   2   6  67.644  33.569   1
   6  -2  -5 0.17863 34.7045   1
   6  -2  -5 11.6969 31.0453   1
  -6   2   5 4.78522 32.7929   1
  -6   2   5 -26.362 28.0514   1
   6  -2  -4 663.726 51.0764   1
   6  -2  -4 846.922 50.1929   1
  -6   2   4 688.831 51.6853   1
  -6   2   4 677.372 43.5963   1
   6  -2  -3 8385.99 577.618   1
   6  -2  -3 9743.77 454.351   1
  -6   2   3 9157.12 594.984   1
  -6   2   3 8541.61 404.771   1
   6  -2  -2 111.196 35.9587   1
   6  -2  -2 14.1555 20.3011   1
  -6   2   2 40.0342 34.4792   1
  -6   2   2 57.0838 17.6722   1
   6  -2  -1 4748.08 201.057   1
  -6   2   1 4747.67 177.881   1
  -6   2   1 4208.56 129.886   1
   6  -2   0 3357.06 153.811   1
  -6   2   0 3630.98 128.044   1
  -6   2   0 2899.75 89.2628   1
   6  -2   1 545.107 37.0882   1
  -6   2  -1 739.364 47.4671   1
  -6   2  -1 554.123 51.6135   1
   6  -2   2 3009.40 111.411   1
  -6   2  -2 3261.64 115.108   1
  -6   2  -2 2589.93 92.0084   1
   6  -2   3  31.805 32.1689   1
  -6   2  -3-35.7067 35.5871   1
  -6   2  -3  24.781 47.7989   1
   6  -2   4 9840.23  496.57   1
  -6   2  -4 9237.16 592.761   1
   6  -2   5 2782.09 130.516   1
  -6   2  -5 2529.40 109.359   1
   6  -2   6-4.85251 86.6069   1
  -6   2  -6-94.9076 43.0834   1
   6  -2   7 4977.68 257.512   1
  -6   2  -7 4483.91 341.237   1
   6  -2   8 6181.45 338.749   1
  -6   2  -8 5935.46 307.398   1
   6  -2   9 108.456 59.8604   1
  -6   2  -9 132.712 54.0566   1
   6  -2  10 430.736 67.5328   1
  -6   2 -10 224.003 106.159   1
   6  -2  11   17.47 55.8726   1
  -6   2 -11-3.37003 91.6462   1
   6  -2  12 1347.88 173.976   1
  -6   2 -12 1466.76  169.67   1
   6  -2  13 45.5764 58.8506   1
  -6   2 -13 53.8196 56.9042   1
   6  -2  14-36.8384 108.849   1
  -6   2 -14-210.113 103.681   1
   6  -2  15-13.7719 63.0816   1
  -6   2 -15 33.6957 102.125   1
   6  -2  16 418.767 127.328   1
   6  -2  17 103.659 65.1866   1
  -6   2 -17 83.5883 111.731   1
   6  -1 -14 29.1443 24.4885   1
   6  -1 -14 4.79501 21.6819   1
   6  -1 -14 3.55361  26.315   1
   6  -1 -13 28.2623 40.7457   1
   6  -1 -13-14.3578 21.0039   1
   6  -1 -13 41.6213 24.8015   1
   6  -1 -12 364.702  49.179   1
   6  -1 -12 329.731 26.9881   1
   6  -1 -12 364.837 31.2529   1
   6  -1 -11 186.259 47.0275   1
   6  -1 -11 218.903 39.0237   1
   6  -1 -11 247.689 28.0457   1
   6  -1 -10-35.3662 42.8942   1
   6  -1 -10 9.99827 33.6844   1
   6  -1 -10  -2.191 39.8222   1
   6  -1  -9 10.7309 26.2193   1
   6  -1  -9 1.20677 19.9841   1
   6  -1  -9 21.5244 23.6474   1
   6  -1  -8 690.334 41.4354   1
   6  -1  -8 767.306 51.3723   1
   6  -1  -7 625.201 71.9804   1
   6  -1  -7 776.566 33.3506   1
   6  -1  -6 35.7179  31.308   1
   6  -1  -6 99.2951 36.6927   1
  -6   1   6 81.4145 30.1094   1
   6  -1  -5  788.68  48.002   1
   6  -1  -5 905.716 54.3238   1
  -6   1   5 833.179 44.7338   1
  -6   1   5 817.894 30.9011   1
   6  -1  -4 1169.73 56.4414   1
   6  -1  -4 1391.39 65.3855   1
  -6   1   4 1270.51 58.0407   1
  -6   1   4 1250.34 39.0611   1
   6  -1  -3 3130.87 172.794   1
   6  -1  -3 3304.78 129.753   1
  -6   1   3 2970.54 160.944   1
  -6   1   3 2920.89 81.6366   1
   6  -1  -2 7864.11 285.792   1
  -6   1   2 7703.06 329.268   1
  -6   1   2 7031.51 261.581   1
   6  -1  -1 417.631 27.7857   1
  -6   1   1 389.547  36.467   1
  -6   1   1 348.397 24.0832   1
   6  -1   0 6891.27 320.152   1
  -6   1   0 7378.16 391.881   1
  -6   1   0 5991.46  276.54   1
   6  -1   1 814.354 42.2369   1
  -6   1  -1 871.829 48.1695   1
  -6   1  -1 696.991 58.9295   1
   6  -1   2 2823.52 100.723   1
  -6   1  -2 3025.08 106.933   1
  -6   1  -2 2417.18 83.7605   1
   6  -1   3 5941.96 322.579   1
  -6   1  -3 5202.87 270.268   1
   6  -1   4 2222.69  152.52   1
  -6   1  -4 2216.87 85.4481   1
   6  -1   5 2919.80 195.836   1
  -6   1  -5 2836.89  181.10   1
   6  -1   6 1764.76 154.974   1
  -6   1  -6 1744.92 141.183   1
   6  -1   7 463.912 62.6131   1
  -6   1  -7 464.762 55.7379   1
   6  -1   8 4053.47 215.421   1
  -6   1  -8 3726.51 300.814   1
   6  -1   9 2484.06 147.184   1
  -6   1  -9 2325.26  135.10   1
   6  -1  10 1752.17 200.742   1
  -6   1 -10 1541.49 105.677   1
   6  -1  11 83.7432 59.4904   1
  -6   1 -11 83.9594 54.1282   1
   6  -1  12 462.065 68.9239   1
  -6   1 -12 352.813 109.364   1
   6  -1  13 232.226 102.975   1
  -6   1 -13 203.844 100.071   1
   6  -1  14 39.8336  57.059   1
  -6   1 -14-128.057 92.5005   1
   6  -1  15 49.2022 106.956   1
  -6   1 -15 191.206 101.861   1
   6  -1  16 88.2834 60.8435   1
  -6   1 -16 29.5851 57.6619   1
   6  -1  17 142.356 61.3003   1
  -6   1 -17 100.753  60.374   1
   6  -1  18  67.031 63.8756   1
  -6   1 -18 114.116 63.0765   1
   6   0 -14 23.3195 21.4264   1
   6   0 -14  4.0151 42.4654   1
   6   0 -14 37.2642 51.0462   1
   6   0 -13 8.55243 20.8473   1
   6   0 -13 19.5658 40.2302   1
   6   0 -13 73.2737 47.7279   1
   6   0 -12 258.102 40.3445   1
   6   0 -12 309.892 46.1669   1
   6   0 -12 252.666 34.0579   1
   6   0 -11 63.2645 35.9376   1
   6   0 -11 55.2896 39.7696   1
   6   0 -11 4.67141 28.2698   1
   6   0 -10 164.804 24.0597   1
   6   0 -10 191.886 42.5282   1
   6   0 -10 149.724 29.5726   1
   6   0  -9 62.4183 23.5649   1
   6   0  -9  74.673 24.1696   1
   6   0  -9 108.034 27.6291   1
   6   0  -8 342.886 29.6141   1
   6   0  -8 394.732 29.6709   1
   6   0  -7 291.054 51.2287   1
   6   0  -7 327.914 46.2515   1
   6   0  -6 484.143 35.4581   1
   6   0  -6 534.829 31.2051   1
  -6   0   6 514.143 34.1047   1
   6   0  -5 456.321  59.017   1
   6   0  -5 489.657 30.6769   1
  -6   0   5  569.58 54.9631   1
   6   0  -4 129.925 26.9543   1
   6   0  -4 158.436 42.6408   1
  -6   0   4 122.099 27.4161   1
  -6   0   4 116.996 22.8724   1
   6   0  -3 26.2687 26.1069   1
   6   0  -3  35.205 38.3149   1
  -6   0   3 38.3209 41.9277   1
  -6   0   3 6.79339 21.3475   1
   6   0  -2 9394.11 381.017   1
  -6   0   2 9281.72 404.833   1
  -6   0   2 8754.29 351.067   1
   6   0  -1 20.8545 23.4664   1
  -6   0   1 51.1451 26.5878   1
  -6   0   1 0.93641 37.0046   1
   6   0   0 3582.69 160.296   1
  -6   0   0 3749.30 122.969   1
  -6   0   0 3276.48 143.253   1
   6   0   1  185.10 28.0826   1
  -6   0  -1 138.766 31.7838   1
  -6   0  -1 185.851 24.8875   1
   6   0   2 7240.41 370.162   1
  -6   0  -2 6534.81 245.925   1
   6   0   3 1267.73 61.8254   1
  -6   0  -3 1179.28 85.4758   1
   6   0   4 4.35816  34.131   1
  -6   0  -4 6.32036 29.5415   1
   6   0   5 3903.00 166.635   1
  -6   0  -5 3592.34 150.478   1
   6   0   6 5584.47 244.318   1
  -6   0  -6 5397.91 337.351   1
   6   0   7 6350.46 307.371   1
  -6   0  -7 6221.67 291.801   1
   6   0   8 -44.888 48.7466   1
  -6   0  -8-25.2341 43.7967   1
   6   0   9 2632.37 150.994   1
  -6   0  -9 2465.25 132.227   1
   6   0  10 165.137 58.6198   1
  -6   0 -10 81.1507 90.4021   1
   6   0  11 641.104 133.776   1
  -6   0 -11 597.482 68.8468   1
   6   0  12 4456.94 260.168   1
  -6   0 -12 4272.06  243.41   1
   6   0  13 426.824  65.652   1
  -6   0 -13 420.322 63.4328   1
   6   0  14 280.187 106.264   1
  -6   0 -14 210.095  57.389   1
   6   0  15 386.242 66.4026   1
  -6   0 -15 297.854 61.4033   1
   6   0  16 156.479 60.2867   1
  -6   0 -16 149.556 57.3363   1
   6   0  17   12.32 96.5014   1
  -6   0 -17 52.5513 54.6059   1
   6   0  18 4.19853 56.8943   1
  -6   0 -18 19.4006 55.8158   1
   6   1 -14 41.1947  18.522   1
   6   1 -14 88.7379 29.5349   1
   6   1 -14 25.8444 35.8567   1
   6   1 -13 33.0541 18.4986   1
   6   1 -13 18.0459 46.6003   1
   6   1 -13  65.976 57.5598   1
   6   1 -12 39.4964 18.3467   1
   6   1 -12 61.8723 45.4616   1
   6   1 -12 60.4617 33.8558   1
   6   1 -11 132.774 20.0248   1
   6   1 -11 156.349 48.1823   1
   6   1 -11 200.552 34.9592   1
   6   1 -10 141.179 19.9575   1
   6   1 -10 104.397 28.1412   1
   6   1 -10 120.038 32.8056   1
   6   1  -9 56.7542 19.7254   1
   6   1  -9 79.6238 27.9594   1
   6   1  -9 86.8031 31.6894   1
   6   1  -8 1353.75 68.3811   1
   6   1  -8 1490.35 58.7103   1
   6   1  -7 416.721 28.8305   1
   6   1  -7 480.631  56.962   1
   6   1  -6-71.5931 38.0361   1
   6   1  -6 7.59289 25.7303   1
   6   1  -5 1135.96 42.6461   1
   6   1  -5 1336.21 79.8928   1
  -6  -1   5 1299.73 43.2926   1
   6   1  -4 7208.18 345.904   1
   6   1  -4 7471.29 294.196   1
  -6  -1   4 7176.01 255.946   1
  -6  -1   4 7006.01 350.802   1
   6   1  -3 1227.17 46.8296   1
  -6  -1   3 1114.94 62.4195   1
  -6  -1   3 1172.41 44.7847   1
   6   1  -2 1110.92  43.496   1
  -6  -1   2 1082.62 61.9928   1
  -6  -1   2 1016.79 40.2327   1
   6   1  -1 8115.75 391.688   1
  -6  -1   1 7953.30 292.761   1
  -6  -1   1 7790.40 379.129   1
   6   1   0 852.543  40.728   1
  -6  -1   0 814.203 37.9479   1
  -6  -1   0 808.896 37.4869   1
   6   1   1 7774.54 294.038   1
  -6  -1  -1 7432.00 283.267   1
   6   1   2 3975.12 130.487   1
  -6  -1  -2 3636.90 181.614   1
   6   1   3 4995.13 179.548   1
  -6  -1  -3 4491.67 165.793   1
   6   1   4-166.854 67.8458   1
  -6  -1  -4-123.069 58.8269   1
   6   1   510394.90 504.928   1
  -6  -1  -5 9432.61  452.20   1
   6   1   6 3897.18 163.461   1
  -6  -1  -6 3566.39 142.424   1
   6   1   7 597.697 52.3704   1
  -6  -1  -7 415.549 82.2751   1
   6   1   8 58.5153 43.9177   1
  -6  -1  -8 24.2597 40.3949   1
   6   1   9 250.454 52.9522   1
  -6  -1  -9 267.172 82.3572   1
   6   1  10 363.718 62.3191   1
  -6  -1 -10 329.186 54.9348   1
   6   1  11 694.952 75.6824   1
  -6  -1 -11 752.234 67.9828   1
   6   1  12 700.403 76.3646   1
  -6  -1 -12  555.85 117.824   1
   6   1  13 4440.86  384.65   1
  -6  -1 -13 4385.55 353.475   1
   6   1  14 144.243 51.2068   1
  -6  -1 -14 24.4467 49.9075   1
   6   1  15 94.0656 52.8233   1
  -6  -1 -15-14.4367 48.9898   1
   6   1  16  753.70 121.991   1
  -6  -1 -16 579.593 69.5363   1
   6   1  17  86.309 55.3675   1
  -6  -1 -17 63.1666 88.4965   1
   6   1  18 142.057 98.2303   1
  -6  -1 -18 200.568 96.8499   1
   6   1  19 20.8724 53.0241   1
  -6  -1 -19 40.2633 91.8119   1
   6   2 -14 61.6693 32.1652   1
   6   2 -14 40.3259 40.6461   1
   6   2 -13 51.0324 25.4921   1
   6   2 -13 30.5081 31.0154   1
   6   2 -13 71.0217 68.7397   1
   6   2 -12 104.134  26.651   1
   6   2 -12 83.2068 31.8812   1
   6   2 -12 68.9042 39.8839   1
   6   2 -11 24.5569 25.9301   1
   6   2 -11-15.2528 29.8037   1
   6   2 -11  -39.43 36.5835   1
   6   2 -10  166.96 29.9502   1
   6   2 -10 291.743 33.7088   1
   6   2 -10 246.547 38.9829   1
   6   2  -9 87.5221 29.5178   1
   6   2  -9 173.183 30.5318   1
   6   2  -9 66.9078 62.7203   1
   6   2  -8 4.68912 17.9792   1
   6   2  -8 9.58397 51.1996   1
   6   2  -7 1659.18 70.9135   1
   6   2  -7 1611.96 69.9287   1
   6   2  -6 123.637 18.2184   1
   6   2  -6 99.8842  30.978   1
   6   2  -5 465.217 39.6488   1
   6   2  -5 454.219 62.5684   1
  -6  -2   5 482.627 23.3849   1
   6   2  -4 151.288 30.9046   1
  -6  -2   4 224.917 18.8079   1
  -6  -2   4 213.479 29.5608   1
   6   2  -3 25.2817  26.694   1
  -6  -2   3  18.245 17.0503   1
  -6  -2   3 21.7178 26.1162   1
   6   2  -2 79.5982 25.9113   1
  -6  -2   2 77.2632 30.2744   1
  -6  -2   2 73.9765 24.6667   1
   6   2  -1 366.512 31.3628   1
  -6  -2   1 374.591   40.26   1
  -6  -2   1 286.676 28.8877   1
   6   2   014490.80 773.865   1
  -6  -2   014834.40 766.504   1
  -6  -2   014165.40 763.721   1
   6   2   1-10.7474 49.5967   1
  -6  -2  -1-55.4559 45.0271   1
   6   2   2 4348.34 145.534   1
  -6  -2  -2 4019.30  136.02   1
   6   2   3 2035.16 122.227   1
  -6  -2  -3 2053.02 72.7119   1
   6   2   421157.10 1547.25   1
  -6  -2  -418238.40 1356.72   1
   6   2   510513.00 677.799   1
  -6  -2  -5 9869.15 615.923   1
   6   2   6 3448.36 136.908   1
  -6  -2  -6 3144.27 184.641   1
   6   2   7 2493.22 107.477   1
  -6  -2  -7 2285.89 150.049   1
   6   2   8 730.723 53.7828   1
  -6  -2  -8 614.715  49.322   1
   6   2   9 824.997 62.2543   1
  -6  -2  -9 818.072  58.138   1
   6   2  10 2383.60 126.665   1
  -6  -2 -10 2325.42 111.818   1
   6   2  11 961.377 79.6064   1
  -6  -2 -11 1005.63 118.317   1
   6   2  12 128.005 51.8104   1
  -6  -2 -12 79.6353 47.7192   1
   6   2  13-43.8321 50.3098   1
  -6  -2 -13 18.1145 45.7067   1
   6   2  14 80.3076 83.5329   1
  -6  -2 -14 42.7225 46.5929   1
   6   2  15 175.652  89.623   1
  -6  -2 -15 238.118 50.4487   1
   6   2  16 55.5536 49.5529   1
  -6  -2 -16 27.7498 46.7554   1
   6   2  17 70.0527 49.9942   1
  -6  -2 -17 100.241 48.6441   1
   6   2  18-52.2497 84.4518   1
  -6  -2 -18 45.3025 47.8225   1
   6   2  19-47.1707 49.5934   1
  -6  -2 -19-59.3494 49.5209   1
   6   3 -14 199.402 40.4118   1
   6   3 -14 168.471 49.3366   1
   6   3 -13 46.3423 36.4342   1
   6   3 -13  79.495 77.6302   1
   6   3 -12 21.4593 13.0582   1
   6   3 -12 14.9344 34.7203   1
   6   3 -12 28.2089 43.0953   1
   6   3 -11-6.02731  13.108   1
   6   3 -11-15.0827  34.209   1
   6   3 -11 18.2491 41.2671   1
   6   3 -10 14.3591 13.3893   1
   6   3 -10 12.4051 33.4296   1
   6   3 -10-44.5343 39.0338   1
   6   3  -9  186.87 24.7471   1
   6   3  -9 187.306 36.0743   1
   6   3  -9 121.856  72.359   1
   6   3  -8 500.767 30.0117   1
   6   3  -8 611.909  44.954   1
   6   3  -7 99.8671 25.3452   1
   6   3  -7 160.404 37.3515   1
   6   3  -6 2040.70  46.597   1
   6   3  -6 1969.54  137.05   1
   6   3  -5-29.2422 32.5071   1
   6   3  -4 219.658 34.1313   1
  -6  -3   4 188.602 14.5498   1
   6   3  -3 652.866 42.3627   1
  -6  -3   3 692.707 32.2173   1
  -6  -3   3  742.11  67.609   1
   6   3  -2-6.82771 27.3572   1
  -6  -3   2  0.4172 23.1356   1
  -6  -3   2 -14.678 26.3622   1
   6   3  -1 181.882 30.2861   1
  -6  -3   1 196.616 17.4868   1
  -6  -3   1 237.158 28.9127   1
   6   3   0 2860.93 94.7709   1
  -6  -3   0 2737.26 91.3024   1
   6   3   1 1568.71 58.0789   1
  -6  -3  -1 1424.82 55.4226   1
   6   3   2 1714.49 102.169   1
  -6  -3  -2 1485.57 56.9734   1
   6   3   3 569.983 42.8777   1
  -6  -3  -3 584.248  38.972   1
   6   3   426906.50 2653.87   1
  -6  -3  -426256.00 2275.02   1
   6   3   5 1729.10 71.5447   1
  -6  -3  -5 1662.29 65.4501   1
   6   3   6 1244.28 98.1499   1
  -6  -3  -6 1011.62 49.9489   1
   6   3   7 481.567 44.2346   1
  -6  -3  -7 470.533 39.2817   1
   6   3   8 218.501 39.5148   1
  -6  -3  -8 174.272 33.7412   1
   6   3   9 6.94631 68.7134   1
  -6  -3  -9 45.8182  34.778   1
   6   3  10 3125.09 228.095   1
  -6  -3 -10 2828.29 196.413   1
   6   3  11 452.354 98.9266   1
  -6  -3 -11 484.274 50.4185   1
   6   3  12 268.155 90.6897   1
  -6  -3 -12 274.908 46.7194   1
   6   3  13 14.8059 78.6961   1
  -6  -3 -13 50.3899 72.6175   1
   6   3  14 707.598 64.0336   1
  -6  -3 -14 610.816 98.8335   1
   6   3  15 195.897 49.1154   1
  -6  -3 -15 255.431 79.0605   1
   6   3  16-51.5778 44.9164   1
  -6  -3 -16-23.3011 42.0561   1
   6   3  17 51.2492 77.6692   1
  -6  -3 -17 53.5799 73.3268   1
   6   3  18 19.5236 45.6018   1
   6   3  19 33.3049 44.6901   1
  -6  -3 -19-20.8698 75.5127   1
   6   4 -13 53.7602 69.3239   1
   6   4 -13-9.82903 86.5326   1
   6   4 -12 7.95986 66.8262   1
   6   4 -12 71.7575   48.86   1
   6   4 -11 90.3863 14.8012   1
   6   4 -11 147.628  66.846   1
   6   4 -11 169.119 47.7683   1
   6   4 -10 79.2557 15.4243   1
   6   4 -10 121.088 64.5314   1
   6   4 -10 193.915 77.8296   1
   6   4  -9 182.278 17.3098   1
   6   4  -9  156.51 65.8514   1
   6   4  -9 123.322 46.3483   1
   6   4  -8  195.81 66.1814   1
   6   4  -8 119.447 45.5348   1
   6   4  -7 6.44728 38.1307   1
   6   4  -6 547.441 50.0297   1
   6   4  -5  143.75 38.9577   1
   6   4  -4 2268.92 98.6844   1
   6   4  -3 74.0716 33.3647   1
  -6  -4   3  75.452 15.6132   1
  -6  -4   3 102.661 32.0702   1
   6   4  -2 934.232 50.0807   1
  -6  -4   2 872.019 47.5443   1
   6   4  -1 5077.65 182.453   1
  -6  -4   1 4964.67 148.893   1
  -6  -4   1 4746.39 171.751   1
   6   4   0 1259.26 55.7371   1
  -6  -4   0 1159.95 87.2781   1
   6   4   114035.60 748.316   1
  -6  -4  -113456.00 715.726   1
   6   4   2 1195.71 52.7881   1
  -6  -4  -2 1367.61 86.4748   1
   6   4   311180.60 521.176   1
  -6  -4  -310632.20 495.425   1
   6   4   4 343.497 35.3199   1
  -6  -4  -4 361.848 32.7528   1
   6   4   5-27.0343 30.2954   1
  -6  -4  -5-47.4077 48.9939   1
   6   4   6 547.194 40.1129   1
  -6  -4  -6  481.22 37.9652   1
   6   4   7 1965.87 80.7921   1
  -6  -4  -7 1776.46 67.8763   1
   6   4   8 2718.08  104.85   1
  -6  -4  -8 2749.27 99.8032   1
   6   4   9 18.6729 61.1056   1
  -6  -4  -9 4.89934 30.0196   1
   6   4  10 60.0459 38.4851   1
  -6  -4 -10 98.0534 57.4734   1
   6   4  11 126.274 42.3158   1
  -6  -4 -11  135.79 36.8174   1
   6   4  12 1128.52 73.0818   1
  -6  -4 -12 1087.69 61.7361   1
   6   4  13 89.9567  43.268   1
  -6  -4 -13 90.2652 65.6373   1
   6   4  14 1808.96 97.0316   1
  -6  -4 -14 1800.38 89.0945   1
   6   4  15 372.974  80.091   1
  -6  -4 -15 341.529 45.8339   1
   6   4  16-50.0305 67.2075   1
  -6  -4 -16  15.744  36.497   1
   6   4  17 198.807 45.7749   1
  -6  -4 -17 222.985 42.2414   1
   6   4  18 102.099 41.2378   1
  -6  -4 -18 3.43968 39.1833   1
   6   4  19 64.0482 68.2264   1
  -6  -4 -19 0.06182 39.1065   1
   6   5 -13-62.1724 73.4744   1
   6   5 -13 127.122 89.2406   1
   6   5 -12 68.2327 42.9664   1
   6   5 -12-13.9828 53.4975   1
   6   5 -11 51.7957 41.8839   1
   6   5 -11-40.3438 50.6192   1
   6   5 -10  109.76 42.3966   1
   6   5 -10 22.6539 87.4244   1
   6   5  -9  619.49 54.9809   1
   6   5  -9 639.619 63.3507   1
   6   5  -8-59.4455 38.8325   1
   6   5  -8 62.5614 45.4607   1
   6   5  -7 30.1366  39.796   1
   6   5  -6 1170.20 121.409   1
   6   5  -5-2.51999 39.5386   1
   6   5  -4-50.8494   38.61   1
   6   5  -3 4048.29  246.82   1
   6   5  -2 409.997 40.2224   1
  -6  -5   2 341.286 11.8177   1
  -6  -5   2 411.424 38.7866   1
   6   5  -1 4658.11 167.405   1
  -6  -5   1 3910.33 93.3942   1
  -6  -5   1 4304.09 155.244   1
   6   5   020954.10 1530.93   1
  -6  -5   020512.10 1749.34   1
   6   5   111374.10 552.385   1
  -6  -5  -110987.90 537.534   1
   6   5   2 3718.88  131.50   1
  -6  -5  -2 3739.91 130.323   1
   6   5   3 1696.18  98.097   1
  -6  -5  -3 1494.03 57.3586   1
   6   5   4 1989.78 71.5754   1
  -6  -5  -4 1933.05 66.0169   1
   6   5   5 257.534  55.898   1
  -6  -5  -5 259.502 29.6826   1
   6   5   6 46.3393 28.5267   1
  -6  -5  -6 53.9171 26.1347   1
   6   5   7 3748.38 132.148   1
  -6  -5  -7 3518.71  173.03   1
   6   5   8 57.5405 31.5212   1
  -6  -5  -8-12.8976 46.9611   1
   6   5   9 1028.30 93.5831   1
  -6  -5  -9 1016.96 79.5418   1
   6   5  10 132.574 35.8868   1
  -6  -5 -10 110.933 31.4323   1
   6   5  11-3.48859 34.3085   1
  -6  -5 -11 19.0816 29.6003   1
   6   5  12-25.2276 65.6439   1
  -6  -5 -12-48.7211 31.0972   1
   6   5  13  533.23 82.2098   1
  -6  -5 -13 383.364  69.525   1
   6   5  14 1480.56 121.373   1
  -6  -5 -14 1497.59  69.671   1
   6   5  15 650.687 50.6791   1
  -6  -5 -15  608.09 45.9646   1
   6   5  16 14.6183 35.5333   1
  -6  -5 -16 42.0757   32.43   1
   6   5  17 25.8776 37.0364   1
  -6  -5 -17 53.4221 33.1548   1
   6   5  18 277.227 42.2231   1
  -6  -5 -18 210.817   38.02   1
  -6  -5 -19 72.6285 36.5978   1
   6   5  20 88.0863 37.4456   1
  -6  -5 -20 17.7502 36.4897   1
   6   6 -13 17.2363 46.9856   1
   6   6 -13 56.0391 98.3899   1
   6   6 -12 55.2042 47.1904   1
   6   6 -12-6.68058 58.0913   1
   6   6 -11 -54.845 46.9167   1
   6   6 -11-88.0718 95.5438   1
   6   6 -10 115.871 47.7243   1
   6   6 -10 213.334 55.9416   1
   6   6  -9  35.083 45.1318   1
   6   6  -9 175.817 52.2122   1
   6   6  -8 359.591 51.9111   1
   6   6  -8 339.691 101.229   1
   6   6  -7 513.712  55.385   1
   6   6  -7 497.385 64.6363   1
   6   6  -6 760.806 63.7305   1
   6   6  -5 2834.98 213.788   1
   6   6  -4 598.125 56.9537   1
   6   6  -3 875.889  60.816   1
   6   6  -2 827.616  55.364   1
   6   6  -1 1344.40  104.77   1
  -6  -6   1 1183.87 18.2615   1
  -6  -6   1 1175.61 60.1004   1
   6   6   0 3350.97 121.809   1
  -6  -6   0 3065.75 114.879   1
   6   6   1 1521.67 64.5319   1
  -6  -6  -1 1535.05  102.87   1
   6   6   2 1064.93 52.2421   1
  -6  -6  -2 1187.73 51.7576   1
   6   6   3 2042.98 121.771   1
  -6  -6  -3 2118.17 72.5697   1
   6   6   4 358.336  32.123   1
  -6  -6  -4 262.412 30.7196   1
   6   6   5 9.90699 47.9902   1
  -6  -6  -5 25.3996 43.1833   1
   6   6   6 292.229 31.8373   1
  -6  -6  -6 288.764 29.3561   1
   6   6   7 3752.48 180.342   1
  -6  -6  -7 3381.44 109.428   1
   6   6   8 806.367 44.0744   1
  -6  -6  -8 760.447 38.8449   1
   6   6   9 175.226 34.0878   1
  -6  -6  -9  246.22 29.0838   1
   6   6  10 142.003 34.0064   1
  -6  -6 -10 181.733 28.7995   1
   6   6  11 180.615 58.0728   1
  -6  -6 -11  117.53 50.3479   1
   6   6  12 556.725 45.9634   1
  -6  -6 -12 621.445 39.3942   1
   6   6  13 784.884  52.508   1
  -6  -6 -13 739.837 71.9473   1
   6   6  14 342.505 39.8462   1
  -6  -6 -14 371.012 34.1722   1
   6   6  15 79.6452 33.9861   1
  -6  -6 -15 101.185 28.7301   1
   6   6  16-4.61015 31.4385   1
  -6  -6 -16 22.0392 28.2129   1
   6   6  17 63.9735 33.4335   1
  -6  -6 -17-5.40527 47.5999   1
   6   6  18-49.9395 55.5457   1
  -6  -6 -18-6.10204 48.3223   1
   6   6  19 112.079  55.502   1
  -6  -6 -19 -23.568 50.1504   1
   6   6  20 32.7849 33.8106   1
  -6  -6 -20 32.7882 51.8928   1
   6   7 -12-24.5923 49.3807   1
   6   7 -12-58.5524  62.496   1
   6   7 -11 15.0307 47.8553   1
   6   7 -11-29.5531 60.4047   1
   6   7 -10 214.353 53.6449   1
   6   7 -10 262.063 64.1499   1
   6   7  -9 344.806 55.3627   1
   6   7  -9 309.664 109.483   1
   6   7  -8  139.45 48.8209   1
   6   7  -8 117.845  55.458   1
   6   7  -7 2352.44 130.098   1
   6   7  -7 2324.98 146.738   1
   6   7  -6-13.7816 48.1626   1
   6   7  -5 1820.84 103.616   1
   6   7  -4 395.286 90.2499   1
   6   7  -3 151.729 43.1558   1
   6   7  -2 53.2449 67.1865   1
   6   7  -1 170.422 38.0624   1
  -6  -7   1 102.124 4.11185   1
   6   7   0  114.85 62.2796   1
  -6  -7   0 73.4988 34.4232   1
   6   7   1  477.44 71.5459   1
  -6  -7  -1 484.579 40.5429   1
   6   7   2 1038.11 87.4553   1
  -6  -7  -2 1038.57 85.9093   1
   6   7   312118.10 770.059   1
  -6  -7  -311847.20 742.328   1
   6   7   4 3559.81 120.527   1
  -6  -7  -4 3891.90 175.173   1
   6   7   5 4939.45  233.55   1
  -6  -7  -5 4776.84  156.79   1
   6   7   6 143.393 28.6598   1
  -6  -7  -6 191.281 26.4584   1
   6   7   7 3073.65 145.735   1
  -6  -7  -7 2857.92 88.8272   1
   6   7   8 3023.18 99.3744   1
  -6  -7  -8 2873.80 89.6222   1
   6   7   9 55.9629 29.4024   1
  -6  -7  -9 82.6632 23.9252   1
   6   7  10 455.169 61.3573   1
  -6  -7 -10 441.566 30.4662   1
   6   7  11 208.644 31.4847   1
  -6  -7 -11  231.53 27.3715   1
   6   7  12 14.8164 28.7332   1
  -6  -7 -12 19.8252 41.8122   1
   6   7  13-7.50586 50.5038   1
  -6  -7 -13 4.98113 24.5616   1
   6   7  14  938.55 75.9741   1
  -6  -7 -14  912.70  67.612   1
   6   7  15-15.0002 29.0385   1
  -6  -7 -15 14.6166 24.8821   1
   6   7  16 87.1215  29.416   1
  -6  -7 -16 67.2588 26.2813   1
   6   7  17 398.692 61.5473   1
  -6  -7 -17 436.514 53.9277   1
   6   7  18-26.6766 49.4712   1
  -6  -7 -18 73.4288 43.9493   1
   6   7  19  47.489 49.4649   1
  -6  -7 -19-3.22345 44.5524   1
   6   8 -11  160.20 57.4757   1
   6   8 -11 166.235 70.9579   1
   6   8 -10-3.24159  52.024   1
   6   8 -10-174.575 106.676   1
   6   8  -9 212.267 52.8028   1
   6   8  -9 138.478 64.0986   1
   6   8  -8 68.7723   48.06   1
   6   8  -8 62.8348 56.0278   1
   6   8  -7 127.343  51.607   1
   6   8  -7 6.35846  100.33   1
   6   8  -6 7738.56 453.273   1
   6   8  -6 7840.42 495.004   1
   6   8  -5 561.337 64.7222   1
   6   8  -4 906.395 118.937   1
   6   8  -3 161.012 46.8597   1
   6   8  -2 65.1932 41.1836   1
   6   8  -1 63.6107 65.3049   1
   6   8   0 381.334 42.6304   1
  -6  -8   0 330.531 15.1543   1
   6   8   1 40.7057 33.5382   1
  -6  -8  -1 17.1494 33.6595   1
   6   8   2 315.127 36.3526   1
  -6  -8  -2 246.508 35.5322   1
   6   8   3 485.353 39.2386   1
  -6  -8  -3  516.12 37.4571   1
   6   8   4 1488.78 59.7667   1
  -6  -8  -4 1440.95 55.6448   1
   6   8   5 1936.46  101.99   1
  -6  -8  -5 1746.70 60.7859   1
   6   8   6 9.34283 26.0147   1
  -6  -8  -6 28.8962 23.5441   1
   6   8   7 296.933 29.8121   1
  -6  -8  -7 304.848 45.9202   1
   6   8   8 88.9668 45.2467   1
  -6  -8  -8  101.83 39.3783   1
   6   8   9 273.088 30.2515   1
  -6  -8  -9 315.115 43.1273   1
   6   8  10 403.488  53.547   1
  -6  -8 -10 336.667  45.065   1
   6   8  11  132.51 27.5564   1
  -6  -8 -11 101.775 22.5473   1
   6   8  12 148.215 45.3838   1
  -6  -8 -12 72.9845 22.7071   1
   6   8  13 394.289 32.0722   1
  -6  -8 -13 352.258 44.5158   1
   6   8  14  122.45 45.7672   1
  -6  -8 -14 114.496 22.9153   1
   6   8  15 245.752 49.4484   1
  -6  -8 -15 286.956 42.4066   1
   6   8  16 4.48512  42.597   1
  -6  -8 -16 25.3312 21.9282   1
   6   8  17  206.43 46.1522   1
  -6  -8 -17 159.589  24.642   1
   6   8  18 168.518 45.1455   1
  -6  -8 -18 103.956 23.5967   1
   6   8  19 100.705  44.806   1
  -6  -8 -19 122.776 39.0236   1
   6   9 -11 85.5081 57.0614   1
   6   9 -11 30.0301 70.4973   1
   6   9 -10-82.0679 56.1242   1
   6   9 -10-98.0366 68.9238   1
   6   9  -9-15.8195 52.7964   1
   6   9  -9 152.828 63.4072   1
   6   9  -8 283.416 56.3196   1
   6   9  -8 146.182 115.623   1
   6   9  -7  710.55 72.8492   1
   6   9  -7 794.785 80.7597   1
   6   9  -6  347.62 60.0257   1
   6   9  -6 400.474 116.805   1
   6   9  -5 2755.27 149.682   1
   6   9  -5 2667.19 169.044   1
   6   9  -4 337.419 54.2124   1
   6   9  -3 74.5302 76.5796   1
   6   9  -2 314.126  48.915   1
   6   9  -1 64.5969 68.9797   1
   6   9   0 152.743 38.1982   1
  -6  -9   0 93.7733  12.527   1
   6   9   1 440.876 43.5185   1
  -6  -9  -1 393.189 23.7366   1
   6   9   2 -13.646 57.0568   1
  -6  -9  -2 71.4171 25.4007   1
  -6  -9  -2 11.2562 32.0517   1
   6   9   3-29.3837 52.0909   1
  -6  -9  -3 3.54227 29.0935   1
   6   9   4 631.061 66.1867   1
  -6  -9  -4 584.349 37.4717   1
   6   9   5 402.025 33.5142   1
  -6  -9  -5 473.397 32.2042   1
   6   9   6 771.031 64.2824   1
  -6  -9  -6 743.794 36.5698   1
   6   9   7 54.2794 25.4662   1
  -6  -9  -7 25.3796 38.9282   1
   6   9   8 314.697 47.5797   1
  -6  -9  -8 310.517 42.9963   1
   6   9   9 3308.60 156.996   1
  -6  -9  -9 3285.10 134.794   1
   6   9  10 68.4795 24.9639   1
  -6  -9 -10 38.3033 34.9328   1
   6   9  11 14.0705 40.8794   1
  -6  -9 -11 76.2667 32.9587   1
   6   9  12 116.489 22.9804   1
  -6  -9 -12 70.2627 19.6523   1
   6   9  13 182.363 40.7974   1
  -6  -9 -13 137.872 19.8766   1
   6   9  14 40.9075 22.9829   1
  -6  -9 -14 29.4101 30.4057   1
   6   9  15 107.618 39.2973   1
  -6  -9 -15 123.668 20.4689   1
   6   9  16 48.3442 37.7762   1
  -6  -9 -16 43.9513 31.2681   1
   6   9  17  277.94 43.2105   1
  -6  -9 -17 220.614 35.6894   1
   6   9  18 22.2239 37.2568   1
  -6  -9 -18 36.2724 19.2815   1
   6   9  19  90.059 38.7793   1
  -6  -9 -19 101.168   18.16   1
   6  10 -10-23.3537 57.9661   1
   6  10 -10-89.9186 71.3555   1
   6  10  -9 145.197 56.6596   1
   6  10  -9  131.85 115.051   1
   6  10  -8 2.51404 53.1494   1
   6  10  -8-36.9313 62.0639   1
   6  10  -7 478.525 64.6856   1
   6  10  -7 400.303 126.165   1
   6  10  -6 68.9718 51.2763   1
   6  10  -6 35.0379  58.956   1
   6  10  -5 1373.43 90.2266   1
   6  10  -5 1274.87 175.531   1
   6  10  -4-59.4376 47.8253   1
   6  10  -4-57.3408 54.6783   1
   6  10  -3 656.065 104.045   1
   6  10  -2 14.9249 42.5206   1
   6  10  -1 386.556  49.493   1
   6  10   0 51.5941 37.0848   1
  -6 -10   0 4.23685 13.1328   1
   6  10   1 306.665 69.4247   1
  -6 -10  -1  280.19 22.7523   1
   6  10   2 2327.57 92.7249   1
  -6 -10  -2 2280.83 74.9035   1
   6  10   3 34.4493 31.4886   1
  -6 -10  -3 52.1365   31.49   1
  -6 -10  -3 9.35301 30.6917   1
   6  10   4 1295.84 58.2227   1
  -6 -10  -4 1408.46 71.0144   1
  -6 -10  -4 1592.15 93.3327   1
   6  10   5 4.30598 46.8199   1
  -6 -10  -5 18.9578 44.6097   1
   6  10   6  15.861 25.2356   1
  -6 -10  -6 -24.854 23.4505   1
   6  10   7  627.96 35.0721   1
  -6 -10  -7 602.146   31.82   1
   6  10   8 145.522 25.4659   1
  -6 -10  -8 113.966 22.9731   1
   6  10   9 512.616 51.5861   1
  -6 -10  -9 516.901  27.681   1
   6  10  10 444.328 48.5627   1
  -6 -10 -10 507.604 41.0685   1
   6  10  11 369.178  25.181   1
  -6 -10 -11 337.745 35.9988   1
   6  10  12 189.538 22.3133   1
  -6 -10 -12 226.625  18.835   1
   6  10  13 1060.34 57.1452   1
  -6 -10 -13 1109.50 33.3662   1
   6  10  14-32.0108 19.7834   1
  -6 -10 -14-13.3485 26.5657   1
   6  10  15 139.252 32.8796   1
  -6 -10 -15 97.7551 16.6261   1
   6  10  16 22.2848 31.4255   1
  -6 -10 -16 40.6994 25.1148   1
   6  10  17-31.7656 31.7865   1
  -6 -10 -17-23.7065 14.9938   1
   6  10  18 24.2886 19.2451   1
  -6 -10 -19 66.6966 58.7811   1
   6  11  -9 6.04692 57.3507   1
   6  11  -9-62.2587 70.2653   1
   6  11  -8 14.6814 55.5529   1
   6  11  -8 9.20857 110.366   1
   6  11  -7 87.8554 55.8716   1
   6  11  -7  172.96 65.9265   1
   6  11  -6 270.498 57.7449   1
   6  11  -6 279.519 112.247   1
   6  11  -5 113.733 50.2033   1
   6  11  -5 105.222 58.7806   1
   6  11  -4 274.757  91.318   1
   6  11  -4 263.531 102.291   1
   6  11  -3  553.51 100.438   1
   6  11  -3 605.752 67.9632   1
   6  11  -2 771.474 64.1945   1
   6  11  -1-16.6812 41.1853   1
   6  11   0 1195.19 68.6795   1
  -6 -11   0 1141.40 21.4672   1
   6  11   1 2329.77 159.376   1
  -6 -11  -1 2262.60 64.4008   1
   6  11   2 1605.97 71.8931   1
  -6 -11  -2 1461.04 55.0558   1
   6  11   3 214.914 35.5619   1
  -6 -11  -3 243.127 20.7285   1
   6  11   4 41.3294 29.3959   1
  -6 -11  -4 54.2217 21.4874   1
   6  11   5 1520.21 59.8265   1
  -6 -11  -5 1510.76 55.5744   1
  -6 -11  -5 1540.17 57.0672   1
   6  11   6 6.98399 24.7094   1
  -6 -11  -6-69.5066 46.7962   1
  -6 -11  -6 1.95093 23.4299   1
   6  11   7 527.531 32.4782   1
  -6 -11  -7 592.174 41.3066   1
  -6 -11  -7 513.761 50.5802   1
   6  11   8 1079.64 62.5616   1
  -6 -11  -8 940.188 55.8776   1
  -6 -11  -8 959.709 35.8624   1
   6  11   9 564.158 28.2931   1
  -6 -11  -9 571.985 26.3006   1
   6  11  10 195.981 22.2071   1
  -6 -11 -10 178.308 32.3833   1
   6  11  11 179.822 34.7838   1
  -6 -11 -11 201.451 29.9796   1
   6  11  12 60.8673 29.7581   1
  -6 -11 -12 30.0939 15.0329   1
   6  11  13 81.3142 16.8028   1
  -6 -11 -13 59.5147 14.8685   1
   6  11  14 4.91299  28.118   1
  -6 -11 -14 3.47569 22.2118   1
   6  11  15-6.72408 26.8065   1
  -6 -11 -15  14.412 12.9841   1
   6  11  16 33.2057 25.7761   1
  -6 -11 -16 51.4406 51.9983   1
  -6 -11 -16 22.5245 20.4164   1
   6  11  17 129.046   17.47   1
  -6 -11 -17 297.977 58.6521   1
  -6 -11 -18 17.7003 56.6856   1
   6  12  -8 112.382 58.9512   1
   6  12  -8 53.8856 70.2819   1
   6  12  -7 70.2172  57.504   1
   6  12  -7 193.289 65.8986   1
   6  12  -6 22.7834 53.8547   1
   6  12  -6 143.398 62.2471   1
   6  12  -5 143.026 53.2155   1
   6  12  -5 104.516 101.115   1
   6  12  -4 36.4772 80.3161   1
   6  12  -4 63.5445 53.5049   1
   6  12  -3 -92.904 45.8744   1
   6  12  -3-0.15826 85.8288   1
   6  12  -2 346.953 51.2299   1
   6  12  -2 380.188   55.90   1
   6  12  -1 692.441 95.6394   1
   6  12   0  222.88 43.3559   1
  -6 -12   0  215.83 16.3929   1
   6  12   1 2479.50  106.05   1
  -6 -12  -1 2371.94 68.5112   1
   6  12   2 102.764 35.5191   1
  -6 -12  -2 109.236 26.3029   1
   6  12   3 486.726 41.0365   1
  -6 -12  -3  512.27 39.6474   1
   6  12   4 523.541  63.503   1
  -6 -12  -4 441.501 28.5566   1
   6  12   5 686.983 40.2586   1
  -6 -12  -5 746.185 58.0438   1
   6  12   6 12.3139 23.6818   1
  -6 -12  -6-1.28648 25.6684   1
   6  12   7 70.9837 36.9381   1
  -6 -12  -7 -53.292 28.3868   1
  -6 -12  -7 3.16525  20.354   1
   6  12   8 193.481 23.1747   1
  -6 -12  -8 226.206 35.0858   1
  -6 -12  -8 236.316 35.8192   1
   6  12   9 186.259 33.8201   1
  -6 -12  -9 224.325 64.1977   1
  -6 -12  -9 159.866 19.2662   1
   6  12  10 605.087 42.3915   1
  -6 -12 -10 628.434 85.6253   1
  -6 -12 -10 595.598 23.9709   1
   6  12  11 158.681 19.4698   1
  -6 -12 -11 260.057 44.9307   1
  -6 -12 -11 165.862 27.0627   1
   6  12  12 1182.22  35.909   1
  -6 -12 -12 1489.15 81.3684   1
  -6 -12 -12 1206.27 31.5977   1
   6  12  13 51.2596 14.7155   1
  -6 -12 -13 77.5807 46.0111   1
  -6 -12 -13 35.2614  21.173   1
   6  12  14 26.3359 24.0638   1
  -6 -12 -14 11.8103 47.3601   1
  -6 -12 -14 1.20801 11.2793   1
   6  12  15 5.64777 22.1196   1
  -6 -12 -15 6.65639 49.5664   1
  -6 -12 -16-34.3861  91.462   1
  -6 -12 -17 194.586 101.632   1
  -6 -12 -18 92.7041 61.4933   1
   6  13  -7 69.7282 57.3123   1
   6  13  -7-30.0518 67.6711   1
   6  13  -6 62.7585 97.0716   1
   6  13  -6 145.262 110.114   1
   6  13  -5 23.9966 88.9217   1
   6  13  -5 16.8071 59.3331   1
   6  13  -4 69.5886 81.7231   1
   6  13  -4-39.7648 90.9375   1
   6  13  -3 188.045 48.5322   1
   6  13  -3  239.75 54.1484   1
   6  13  -2 49.4668 42.6954   1
   6  13  -2-45.2211 78.2383   1
   6  13  -1  540.62 87.4315   1
   6  13  -1 481.405 56.7255   1
   6  13   0 611.178 51.0175   1
   6  13   0 491.555 54.4364   1
   6  13   1 286.302 64.7716   1
  -6 -13  -1 169.017 14.2886   1
   6  13   2 1219.37 62.2598   1
  -6 -13  -2 1219.38 32.3584   1
   6  13   3 69.4385 31.1029   1
  -6 -13  -3 24.6465 29.6352   1
   6  13   4  184.16 52.1616   1
  -6 -13  -4  211.10 38.0572   1
   6  13   5 430.084 56.8972   1
  -6 -13  -5  525.63 51.6453   1
   6  13   6 1248.17 76.1982   1
  -6 -13  -6 1393.65  55.611   1
   6  13   7 19.9016 21.9346   1
  -6 -13  -7 70.7738 49.1181   1
   6  13   8 13.9875 33.5412   1
  -6 -13  -8 28.9551 30.9064   1
   6  13   9 964.637 34.0058   1
  -6 -13  -9 1006.27 91.4274   1
   6  13  10 119.378 17.6589   1
  -6 -13 -10 88.4277 66.2993   1
  -6 -13 -10  68.692 15.8409   1
   6  13  11 363.118 20.9051   1
  -6 -13 -11 523.189 49.2852   1
  -6 -13 -11 397.502 28.2505   1
   6  13  12 177.736 16.3821   1
  -6 -13 -12 263.957  48.273   1
  -6 -13 -12 193.793 14.3917   1
   6  13  13 176.119 14.6424   1
  -6 -13 -13 293.818 50.0639   1
  -6 -13 -13  161.92 19.8842   1
   6  13  14 46.2643 12.0772   1
  -6 -13 -14 32.8571 49.2208   1
  -6 -13 -15-33.3258 51.3957   1
  -6 -13 -16 60.2815 54.8831   1
  -6 -13 -17 111.634  59.802   1
   6  14  -5 820.507 82.0485   1
   6  14  -5 975.951 153.407   1
   6  14  -4 53.7597 49.7436   1
   6  14  -4-30.1438 56.2463   1
   6  14  -3 163.338 49.0207   1
   6  14  -3   84.96 54.4471   1
   6  14  -2-51.2425 43.0422   1
   6  14  -2-45.0488 46.9379   1
   6  14  -1 142.919 72.8681   1
   6  14  -1 114.072 44.6301   1
   6  14   0 153.063 41.5388   1
   6  14   0 192.078 72.8665   1
   6  14   1 53.8887 61.3209   1
   6  14   1 28.4093 38.4668   1
  -6 -14  -1 61.1199 12.3357   1
   6  14   2 173.742  36.316   1
   6  14   2 194.409 38.4365   1
  -6 -14  -2  188.65 17.0346   1
   6  14   3 521.072 42.1667   1
  -6 -14  -3 630.537 25.5829   1
   6  14   4 0.51242 46.0021   1
  -6 -14  -4-10.0769  33.519   1
   6  14   5 80.7706 43.4587   1
  -6 -14  -5 89.9106 22.1432   1
   6  14   6 234.226 43.9477   1
  -6 -14  -6 328.604 29.6566   1
   6  14   7  66.979 21.9801   1
  -6 -14  -7 166.281   48.88   1
   6  14   8 -15.556 31.9582   1
  -6 -14  -8 24.2591 30.5496   1
   6  14   9  97.392 18.2487   1
  -6 -14  -9  114.61 59.4783   1
   6  14  10  187.16   28.50   1
  -6 -14 -10 186.118 39.9758   1
   6  14  11 68.5189 24.5756   1
  -6 -14 -11 128.921 40.5021   1
   6  14  12-8.96394 20.4604   1
  -6 -14 -12 29.7056 41.0301   1
  -6 -14 -13 7.90409 44.3054   1
  -6 -14 -14-2.34116 47.9198   1
  -6 -14 -15  93.491 52.9035   1
  -6 -14 -16 73.1375 54.9772   1
   6  15  -4  618.51  69.549   1
   6  15  -4 359.073 127.577   1
   6  15  -3 71.0651 48.9577   1
   6  15  -3-14.1843 54.4677   1
   6  15  -2-86.0165 76.8607   1
   6  15  -2 73.0273 48.9158   1
   6  15  -1 264.078 47.2292   1
   6  15  -1 248.528 85.7251   1
   6  15   0-6.05811 38.6132   1
   6  15   0  3.0394 40.4399   1
   6  15   1 76.0932 38.6004   1
  -6 -15  -1   65.86 13.1706   1
   6  15   2  18.404 32.6526   1
   6  15   2 18.7537 57.4811   1
  -6 -15  -2 -4.8612 25.7154   1
   6  15   3-7.91977 29.2391   1
   6  15   3  43.383 31.4671   1
  -6 -15  -3 -10.947 17.4534   1
   6  15   4 44.8692 46.7761   1
   6  15   4 98.3259 29.7416   1
  -6 -15  -4  87.144 20.7738   1
   6  15   5 272.098 48.7411   1
  -6 -15  -5 329.101 27.5511   1
   6  15   6  46.292 36.7123   1
  -6 -15  -6  14.896 23.2159   1
   6  15   7 224.993 23.4444   1
  -6 -15  -7 303.571 51.1391   1
   6  15   8 219.789 21.8037   1
  -6 -15  -8 332.538 34.5793   1
   6  15   9 18.0436  26.563   1
  -6 -15  -9-20.5708 54.8499   1
   6  15  10 157.927 26.6319   1
  -6 -15 -10  240.11 40.2301   1
   6  15  11  9.7264 20.0793   1
  -6 -15 -11-44.5725 38.9998   1
  -6 -15 -12-39.0419 43.1577   1
  -6 -15 -13-30.5722 77.7142   1
  -6 -15 -14 71.3452 82.5128   1
  -6 -15 -15 290.186 98.1952   1
   6  16  -2-6.14683 45.0021   1
   6  16  -2 78.2161 84.3248   1
   6  16  -1-66.3854 41.8343   1
   6  16  -1 43.6762 46.4081   1
   6  16   0 449.157 84.2451   1
   6  16   0 475.226 55.5834   1
   6  16   1-43.5009 36.0148   1
   6  16   1 4.90986 39.5834   1
   6  16   2 79.9594 57.9202   1
  -6 -16  -2-17.6394 24.3468   1
   6  16   3 465.668 39.3152   1
   6  16   3 435.531 40.8546   1
  -6 -16  -3 414.392 25.6645   1
   6  16   4 5.23839  26.858   1
   6  16   4-1.88384 28.4144   1
  -6 -16  -4 11.2642 20.3156   1
   6  16   5 42.3445 40.9668   1
   6  16   5 8.83196 42.8719   1
  -6 -16  -5 29.4978 22.5519   1
   6  16   6-30.7053 35.6879   1
   6  16   6 11.3482 38.3231   1
  -6 -16  -6 63.4998 25.0089   1
   6  16   7 20.9775 19.9512   1
   6  16   7 31.4659  34.165   1
  -6 -16  -7 30.6309  43.493   1
   6  16   8 64.3596 17.8352   1
   6  16   8 32.1418  29.974   1
  -6 -16  -8-49.4897 29.0272   1
   6  16   9 32.0645 26.1665   1
   6  16   9 28.4759 26.2902   1
  -6 -16  -9 2.83086 55.5096   1
  -6 -16 -10 29.5266 35.7812   1
  -6 -16 -11 147.982 41.4264   1
  -6 -16 -12 -67.434 74.2774   1
  -6 -16 -13-12.9196 46.5174   1
   6  17   1 146.396 39.1902   1
   6  17   1 137.051 71.0305   1
   6  17   2 12.5806 56.9596   1
   6  17   2 103.588 36.8281   1
   6  17   3 236.207 33.2121   1
   6  17   3  107.21 36.7807   1
  -6 -17  -3 178.805 19.7033   1
   6  17   4 81.1618 29.4974   1
   6  17   4 94.6399 31.4149   1
  -6 -17  -4 100.242 23.1366   1
   6  17   5 4.05094 25.2602   1
   6  17   5-57.1218 44.2946   1
  -6 -17  -5 5.90678 22.5882   1
   6  17   6  6.2281 35.5889   1
   6  17   6 9.43114   38.95   1
  -6 -17  -6 23.7788 25.0403   1
   6  17   7 10.3509 20.2084   1
   6  17   7 106.547 35.3664   1
  -6 -17  -7 92.1178 48.0835   1
   6  17   8  29.326 17.3354   1
   6  17   8-15.4759 29.8774   1
  -6 -17  -8-7.87354 30.3861   1
  -6 -17  -9 1.17713 31.7886   1
  -6 -17 -10  37.962 35.0313   1
  -6 -17 -11 4.58506 63.7647   1
  -7  12   1 54.5281 58.2857   1
  -7  12   0 768.644 136.853   1
   7 -11  -6-33.0848  63.352   1
  -7  11   6 5.29685 61.7099   1
  -7  11   5 248.138 66.1693   1
  -7  11   4 31.1816 59.3576   1
  -7  11   3 128.298 58.6907   1
  -7  11   2 39.4745 54.2355   1
  -7  11   1  154.84 59.8649   1
  -7  11   0 630.951 68.3949   1
  -7  11   0 367.267 33.6764   1
  -7  11  -1 90.0462 86.9799   1
  -7  11  -1 33.3055 30.1292   1
   7 -11   2 34.4267 26.9099   1
  -7  11  -2 34.6513 48.4172   1
  -7  11  -2-1.14812 35.7907   1
   7 -11   3 13.0531 31.2565   1
  -7  11  -3 126.844 47.9281   1
  -7  11  -3 27.9623 25.3792   1
   7 -11   4 117.969 35.9979   1
  -7  11  -4 247.959 77.8888   1
  -7  11  -4 88.9091  29.949   1
   7 -11   5 -17.293 37.8994   1
  -7  11  -5 66.5747 43.2863   1
  -7  11  -5 44.7453 53.7556   1
   7 -10  -8 116.768 104.232   1
   7 -10  -7 43.1768 60.5747   1
  -7  10   7 42.5587 61.0196   1
   7 -10  -6 223.792 64.6099   1
  -7  10   6 117.408 108.728   1
   7 -10  -5-10.2038 57.8746   1
  -7  10   5-33.3385 58.4164   1
  -7  10   4 123.954 59.6113   1
  -7  10   3 78.9868 57.8408   1
  -7  10   2-58.4732 52.7494   1
  -7  10   2-19.9745 17.2087   1
   7 -10  -1  183.66 31.6269   1
  -7  10   1 285.852 59.2912   1
  -7  10   1 187.007 15.6903   1
   7 -10   0 49.8313 33.8858   1
  -7  10   0-11.9735 49.8885   1
  -7  10   0-10.3333 26.4346   1
   7 -10   1 103.403 25.2278   1
  -7  10  -1  158.37 51.3056   1
  -7  10  -1 96.3832  32.321   1
   7 -10   2 218.314 31.7153   1
  -7  10  -2 395.589 86.5432   1
  -7  10  -2 268.024 41.5529   1
   7 -10   3 5.99309 30.6307   1
  -7  10  -3 34.0851 43.6588   1
  -7  10  -3-51.0752 41.6225   1
   7 -10   4-2.46929 34.0456   1
  -7  10  -4 29.8993 42.1935   1
  -7  10  -4 1.09326 28.5184   1
   7 -10   5   70.85  66.787   1
  -7  10  -5 131.549 46.8031   1
  -7  10  -5 92.8255 56.2602   1
   7 -10   6 28.4202 73.4482   1
  -7  10  -6 179.772 45.8048   1
  -7  10  -6  55.564 38.6077   1
   7 -10   7 492.757 103.041   1
  -7  10  -7 587.767 57.7742   1
  -7  10  -7 511.503 54.0102   1
   7 -10   8 127.011   52.85   1
  -7  10  -8 126.785 72.9752   1
  -7  10  -8 19.6074 77.4426   1
   7  -9  -9 35.3268 58.2793   1
   7  -9  -8 73.7222 57.2732   1
   7  -9  -7-58.9215 95.5745   1
  -7   9   7-113.322 57.9594   1
   7  -9  -6 161.266 59.3431   1
  -7   9   6 83.4856 57.4927   1
   7  -9  -5 319.807  63.789   1
  -7   9   5 237.377 106.977   1
  -7   9   4 24.6259 52.6531   1
   7  -9  -3 126.386 12.8336   1
  -7   9   3 228.446 98.1568   1
  -7   9   3 151.824 10.4149   1
   7  -9  -2  83.613  26.718   1
  -7   9   2 226.577 55.2987   1
  -7   9   2 119.408 12.4364   1
   7  -9  -1-12.9301 18.3619   1
  -7   9   1-76.8364 86.1143   1
  -7   9   1 8.08095  14.022   1
   7  -9   0  316.58 27.7617   1
  -7   9   0 409.533 59.8443   1
  -7   9   0 270.058 33.4377   1
   7  -9   1 105.151 27.6097   1
  -7   9  -1  78.821 49.0566   1
  -7   9  -1 150.294 34.1797   1
   7  -9   2 83.9855 29.8619   1
  -7   9  -2 99.1235 46.7138   1
  -7   9  -2 36.8522 38.6499   1
   7  -9   3 12.3669 32.4353   1
  -7   9  -3-17.8319 77.8754   1
  -7   9  -3-42.2356 42.8442   1
   7  -9   4 202.039 41.0569   1
  -7   9  -4  296.74 51.4448   1
  -7   9  -4 276.179 33.2808   1
   7  -9   5-66.4576 66.5302   1
  -7   9  -5 -22.081  72.825   1
  -7   9  -5 21.1795 53.5392   1
   7  -9   6 43.3853 70.3552   1
  -7   9  -6-0.35901  41.234   1
  -7   9  -6-1.13309 35.7013   1
   7  -9   7 4.99471 47.5658   1
  -7   9  -7  109.34 42.8847   1
  -7   9  -7 102.683 40.5212   1
   7  -9   8 116.842 51.8845   1
  -7   9  -8 108.844 72.7962   1
  -7   9  -8  190.07 75.4458   1
   7  -9   9 21.1865 53.0143   1
  -7   9  -9-36.5116 67.0251   1
  -7   9  -9 49.6166  47.037   1
   7  -9  10 93.2278 100.093   1
  -7   9 -10 85.3214 40.2835   1
  -7   9 -10 33.3925 52.5148   1
   7  -8 -10 105.086 94.9012   1
   7  -8  -9-17.0881 51.8029   1
   7  -8  -8  52.341 53.2389   1
  -7   8   8 80.3053 54.7099   1
   7  -8  -7 395.622 62.4315   1
  -7   8   7 421.756 107.399   1
   7  -8  -6 -35.751  88.005   1
  -7   8   6-67.3691 53.0717   1
   7  -8  -5 10.1177 52.9418   1
  -7   8   5-25.4886   50.46   1
  -7   8   5 13.2501 6.80453   1
   7  -8  -4-36.3501 52.7458   1
   7  -8  -4 8.10883 15.6564   1
  -7   8   4-70.9714 51.7082   1
  -7   8   4 -19.679 12.6656   1
   7  -8  -3 94.1119 14.4377   1
  -7   8   3 59.4744 54.4525   1
  -7   8   3 59.9453 17.1826   1
   7  -8  -2 542.589 40.3926   1
  -7   8   2  952.14 115.954   1
   7  -8  -1  237.96 38.7805   1
  -7   8   1 255.489 56.1344   1
  -7   8   1 201.652 17.6973   1
   7  -8   0 362.892 49.9986   1
  -7   8   0 492.031 58.3723   1
  -7   8   0 327.485 36.1009   1
   7  -8   1  387.22 33.7795   1
  -7   8  -1 429.176 56.1564   1
  -7   8  -1  343.14 41.0326   1
   7  -8   2 44.2411 31.7042   1
  -7   8  -2 79.4481 48.6157   1
  -7   8  -2  68.258 40.6991   1
   7  -8   3-26.1539 34.3948   1
  -7   8  -3 3.78995 46.6877   1
  -7   8  -3-31.0972 45.7959   1
   7  -8   4 1237.08 72.1915   1
  -7   8  -4 1355.20 84.9634   1
  -7   8  -4 1166.91 59.4864   1
   7  -8   5  84.883 69.3473   1
  -7   8  -5-2.81893  43.713   1
  -7   8  -5 4.32674 56.4852   1
   7  -8   6 216.231 48.3406   1
  -7   8  -6  182.47 77.4299   1
  -7   8  -6  150.11 40.9628   1
   7  -8   7-69.1742 46.5021   1
  -7   8  -7 36.7677 41.1552   1
  -7   8  -7 96.9138 68.7767   1
   7  -8   8 47.9443 50.4039   1
  -7   8  -8 53.2605  41.261   1
  -7   8  -8 119.832 72.1102   1
   7  -8   9 5.58157 88.4062   1
  -7   8  -9 13.7515 66.2752   1
  -7   8  -9 3.26464 45.8462   1
   7  -8  10 67.2423 60.6034   1
  -7   8 -10 166.042 44.4775   1
  -7   8 -10 197.184 54.0837   1
   7  -8  11 55.7693 60.2709   1
  -7   8 -11 39.4516 39.9343   1
  -7   8 -11  12.821 53.9284   1
   7  -7 -11 90.6117 55.2081   1
   7  -7 -10 10.9644 51.3452   1
   7  -7  -9 86.6962 88.7507   1
   7  -7  -8-50.3073 47.1904   1
  -7   7   8-5.11388  49.342   1
   7  -7  -7 26.2542 48.6038   1
  -7   7   7 51.2217 84.6602   1
   7  -7  -6 267.685 55.0202   1
  -7   7   6 301.378  58.362   1
   7  -7  -5  63.048 86.6863   1
   7  -7  -5  9.7502  8.4163   1
  -7   7   5 0.57707 48.8965   1
  -7   7   5  3.3843 10.8396   1
   7  -7  -4 651.733 66.2746   1
   7  -7  -4  483.49 28.2911   1
  -7   7   4 649.241 110.618   1
   7  -7  -3 876.395 44.3652   1
  -7   7   3 1249.26 81.2249   1
   7  -7  -2 124.792 19.8517   1
  -7   7   2 196.295  52.149   1
  -7   7   2 144.117 22.5203   1
   7  -7  -1 1.35368  21.541   1
  -7   7   1 87.5885 78.0109   1
  -7   7   1  9.9291 25.5778   1
   7  -7   0 740.167 37.9656   1
  -7   7   0 951.432  67.068   1
  -7   7   0 684.613 28.6407   1
   7  -7   1-18.9669 47.1689   1
  -7   7  -1  115.38 45.9639   1
  -7   7  -1-5.29075 34.9128   1
   7  -7   2 352.453 66.1812   1
  -7   7  -2  793.84 97.1819   1
  -7   7  -2 420.256  49.767   1
   7  -7   3 179.715 36.4245   1
  -7   7  -3 104.962 47.6766   1
  -7   7  -3 61.0401 49.3933   1
   7  -7   4 517.244 49.4287   1
  -7   7  -4 576.569 97.0817   1
  -7   7  -4 440.522 40.2274   1
   7  -7   5 145.733 80.9509   1
  -7   7  -5 277.105 49.3472   1
  -7   7  -5 198.317 66.6183   1
   7  -7   6 326.389 53.3684   1
  -7   7  -6 338.351 51.0456   1
  -7   7  -6  236.20   44.67   1
   7  -7   7 173.004 53.0863   1
  -7   7  -7 119.411 47.5874   1
  -7   7  -7 107.528 77.5604   1
   7  -7   8 857.063 129.687   1
  -7   7  -8 988.917 68.6553   1
  -7   7  -8 702.126 69.0279   1
   7  -7   9 35.3056 53.4275   1
  -7   7  -9 12.4551 71.0466   1
  -7   7  -9 30.4116  45.816   1
   7  -7  10 59.8251   57.74   1
  -7   7 -10 89.7462 66.6182   1
  -7   7 -10 112.096 51.4338   1
   7  -7  11 54.4982 101.394   1
  -7   7 -11  46.732 37.6074   1
  -7   7 -11  74.476 53.5758   1
   7  -7  12 94.8337 65.1327   1
  -7   7 -12 94.2976 37.7938   1
  -7   7 -12 14.0068 58.2161   1
   7  -7  13-13.9436 66.3945   1
  -7   7 -13 44.6498 35.7503   1
  -7   7 -13-109.159 59.3581   1
   7  -6 -12 59.3942 48.5666   1
   7  -6 -11 34.1711 48.6768   1
   7  -6 -10 43.6612 47.7027   1
   7  -6  -9 -29.117 47.0623   1
   7  -6  -8 4.66891  84.392   1
  -7   6   8 120.808 46.6031   1
   7  -6  -7 288.767 51.9447   1
  -7   6   7 257.528 91.6046   1
   7  -6  -6 6.68446 45.1708   1
   7  -6  -6 66.9245 13.6018   1
  -7   6   6-2.13795 48.0004   1
   7  -6  -5 631.657 101.861   1
   7  -6  -5 502.212 27.2187   1
  -7   6   5 689.575 61.9411   1
   7  -6  -4 319.708 54.0988   1
   7  -6  -4 216.958 16.7431   1
  -7   6   4 289.707 52.5275   1
  -7   6   4 200.412 20.0369   1
   7  -6  -3  342.50 58.2325   1
   7  -6  -3 290.714 34.6593   1
  -7   6   3 507.683 94.5511   1
   7  -6  -2 319.159 24.5853   1
  -7   6   2 426.957 54.0658   1
  -7   6   2  267.92 17.5073   1
   7  -6  -1 215.113 26.9617   1
  -7   6   1 258.823 51.1537   1
  -7   6   1 174.774 18.6609   1
   7  -6   0 1163.13 80.8377   1
  -7   6   0 1209.37 85.3932   1
  -7   6   0 1050.96 58.1642   1
   7  -6   1 3944.95 156.168   1
  -7   6  -1 4790.75 217.381   1
  -7   6  -1 3597.28 126.186   1
   7  -6   2 460.481 71.9361   1
  -7   6  -2 449.848 59.9826   1
  -7   6  -2 401.327 32.1288   1
   7  -6   3 532.863 48.7388   1
  -7   6  -3 706.385 101.223   1
  -7   6  -3 488.421 37.9443   1
   7  -6   4 423.332 49.1308   1
  -7   6  -4 568.197 55.9632   1
  -7   6  -4 366.011 39.9073   1
   7  -6   5 275.935 78.8089   1
  -7   6  -5 223.128 50.7491   1
  -7   6  -5 207.918 65.8535   1
   7  -6   6-31.2797 44.8312   1
  -7   6  -6 4.61397 43.0464   1
  -7   6  -6-23.1396 37.6346   1
   7  -6   7 635.292 112.948   1
  -7   6  -7 838.233 98.8361   1
  -7   6  -7 560.862 102.349   1
   7  -6   8 25.2851 53.5814   1
  -7   6  -8  39.666 40.1994   1
  -7   6  -8 0.45551 45.3262   1
   7  -6   9 478.762  72.155   1
  -7   6  -9 592.698 52.0699   1
  -7   6  -9 459.588 62.5848   1
   7  -6  10 28.0495 97.5226   1
  -7   6 -10 7.29693 67.6224   1
  -7   6 -10 40.1291 49.4166   1
   7  -6  11 58.2544 59.3751   1
  -7   6 -11-76.7215  38.333   1
  -7   6 -11 15.1002 52.0892   1
   7  -6  12 144.325 67.9048   1
  -7   6 -12 153.376 41.6485   1
  -7   6 -12  170.73 59.4316   1
   7  -6  13-30.9261  64.062   1
  -7   6 -13 90.4185 39.0262   1
  -7   6 -13 13.1605 60.4055   1
   7  -6  14 62.4752 74.1446   1
  -7   6 -14 154.194 39.9548   1
  -7   6 -14 158.845 68.5629   1
   7  -5 -12 44.8834 44.7376   1
   7  -5 -11 90.1825 45.4637   1
   7  -5 -10 193.891 49.2877   1
   7  -5  -9 153.374 46.8939   1
   7  -5  -8 34.0604 43.2677   1
   7  -5  -8-15.6004 15.8232   1
   7  -5  -8 5.54756 15.7627   1
  -7   5   8 70.4013 41.8709   1
   7  -5  -7 32.3017 72.3434   1
   7  -5  -7 31.9219 18.5997   1
  -7   5   7 104.008 74.7531   1
   7  -5  -6 40.8762 43.7988   1
   7  -5  -6 26.9135 12.3142   1
  -7   5   6 115.079 75.1935   1
   7  -5  -5 89.6784 45.8341   1
   7  -5  -5 126.058 24.7182   1
  -7   5   5 142.995 46.0527   1
  -7   5   5 135.526 19.2344   1
   7  -5  -4  955.56 74.8779   1
   7  -5  -4 950.668 46.4268   1
  -7   5   4 1164.53 73.6986   1
   7  -5  -3 980.276 72.9782   1
   7  -5  -3 883.806 31.7751   1
  -7   5   3 1141.38 70.0738   1
  -7   5   3 799.538 36.6428   1
   7  -5  -2 17.0123 35.1634   1
  -7   5   2-8.63074 42.2893   1
  -7   5   2-5.19377 25.1284   1
   7  -5  -1 627.214 56.0399   1
  -7   5   1  785.11 100.554   1
  -7   5   1 575.868 40.2443   1
   7  -5   0 1393.92 58.6229   1
  -7   5   0 1639.16 90.0069   1
  -7   5   0 1276.50 43.2922   1
   7  -5   1 1262.73 106.232   1
  -7   5  -1 1767.85  93.705   1
  -7   5  -1 1205.16 78.4558   1
   7  -5   2 5077.91 219.104   1
  -7   5  -2 6241.16 399.288   1
  -7   5  -2 4377.72 174.949   1
   7  -5   3 22.6465 70.1954   1
  -7   5  -3 53.1531 50.8993   1
  -7   5  -3 62.5342 32.6009   1
   7  -5   4 74.2335 41.6531   1
  -7   5  -4 -46.776 48.7935   1
  -7   5  -4-34.5548  58.694   1
   7  -5   5 1278.15 141.809   1
  -7   5  -5 1633.17 146.003   1
  -7   5  -5 1241.35 70.6913   1
   7  -5   6  804.80 71.7139   1
  -7   5  -6 866.512 65.6561   1
  -7   5  -6 702.706 60.9656   1
   7  -5   7 528.504 115.396   1
  -7   5  -7 668.361  97.146   1
  -7   5  -7 635.305 60.1806   1
   7  -5   8 271.662 57.9567   1
  -7   5  -8 336.467 47.7519   1
  -7   5  -8 244.783 85.9616   1
   7  -5   9-9.40618 91.2366   1
  -7   5  -9-40.3395 40.9256   1
  -7   5  -9-32.3971 47.6522   1
   7  -5  10 345.151 65.2237   1
  -7   5 -10 212.167 55.7252   1
   7  -5  11 70.3448 62.7271   1
  -7   5 -11 111.961 55.0904   1
   7  -5  12 233.033 66.3799   1
  -7   5 -12 136.569 59.8208   1
   7  -5  13-82.1255  65.328   1
  -7   5 -13 10.7391 59.1873   1
   7  -5  14 37.1343 118.944   1
  -7   5 -14 103.938 64.3175   1
   7  -5  15 22.2585 69.4692   1
  -7   5 -15 9.66217  68.378   1
   7  -4 -13 44.3877 40.2912   1
   7  -4 -12 64.0412 40.9457   1
   7  -4 -11 112.165 41.7612   1
   7  -4 -10-0.57421 40.0643   1
   7  -4 -10 7.58556 11.0619   1
   7  -4 -10 57.0322 21.6796   1
   7  -4  -9 26.5406 40.2609   1
   7  -4  -9 21.4651 19.2378   1
   7  -4  -9 26.8185 13.4499   1
   7  -4  -8 718.862 57.7378   1
   7  -4  -8  661.34 31.0814   1
  -7   4   8 668.385 56.8834   1
   7  -4  -7 75.9907 72.0746   1
   7  -4  -7 43.9768 22.4528   1
  -7   4   7 41.7102 70.0267   1
   7  -4  -6 253.347 48.0383   1
   7  -4  -6 308.741 18.0495   1
  -7   4   6 320.277 82.0681   1
   7  -4  -5 476.688  55.411   1
   7  -4  -5  631.28 24.0341   1
  -7   4   5 574.573 93.5404   1
  -7   4   5 514.917 30.4614   1
   7  -4  -4 98.4947 75.9956   1
   7  -4  -4 35.6801 18.3511   1
  -7   4   4 25.6139 42.9405   1
  -7   4   4 21.7399 23.1226   1
   7  -4  -3-66.4699 43.7793   1
   7  -4  -3 8.61344 33.4889   1
  -7   4   3 106.284 41.7469   1
  -7   4   3 2.16764 14.6516   1
   7  -4  -2 42.0338 37.9741   1
  -7   4   2-18.3688 40.5357   1
  -7   4   2  28.176 15.9738   1
   7  -4  -1 98.0724  43.447   1
  -7   4   1 103.988 43.5374   1
  -7   4   1 53.7267 17.8701   1
   7  -4   0 30.8249 26.8055   1
  -7   4   0-28.7382 43.6171   1
  -7   4   0 40.4458 33.8958   1
   7  -4   1 4241.95 167.514   1
  -7   4  -1 5634.28 328.284   1
  -7   4  -1 4128.20 141.518   1
   7  -4   2 2591.96 172.932   1
  -7   4  -2 3078.59 132.669   1
  -7   4  -2 2257.01 134.363   1
   7  -4   3 1224.07 69.5621   1
  -7   4  -3 1522.28 84.9608   1
  -7   4  -3 1040.74 89.4022   1
   7  -4   4 433.807 52.7325   1
  -7   4  -4  459.61 52.5328   1
  -7   4  -4 381.636 41.0343   1
   7  -4   5 1421.76 152.255   1
  -7   4  -5 1555.97 86.3743   1
  -7   4  -5 1345.38 74.3186   1
   7  -4   6 4344.26 233.592   1
  -7   4  -6 4721.23 227.593   1
  -7   4  -6 4149.42  308.35   1
   7  -4   7 807.448 131.295   1
  -7   4  -7 710.327 67.3658   1
   7  -4   8 2710.61 165.153   1
  -7   4  -8 2732.26 234.502   1
   7  -4   9 848.959 138.401   1
  -7   4  -9 831.191 73.5882   1
   7  -4  10 29.2138 57.9806   1
  -7   4 -10 102.818 52.5859   1
   7  -4  11 201.938 116.834   1
  -7   4 -11 339.006 62.7123   1
   7  -4  12 576.214 78.1157   1
  -7   4 -12 403.988 68.6833   1
   7  -4  13 122.169 108.737   1
  -7   4 -13 31.0332 59.2853   1
   7  -4  14-4.48408 65.5155   1
  -7   4 -14 48.3123 61.4736   1
   7  -4  15 158.231 121.311   1
  -7   4 -15 121.176 68.1325   1
   7  -4  16 137.467 73.4621   1
  -7   4 -16 123.674  71.101   1
   7  -3 -13 39.4708 60.6355   1
   7  -3 -12-171.684 65.6669   1
   7  -3 -11-39.8386 35.0201   1
   7  -3 -11-32.2874  23.059   1
   7  -3 -11 15.8686 28.1783   1
   7  -3 -10 79.8336 36.7219   1
   7  -3 -10 64.5396 14.8734   1
   7  -3 -10 82.1057 29.0293   1
   7  -3  -9 17.6961 35.8948   1
   7  -3  -9 12.4021 24.0828   1
   7  -3  -9-11.7506 27.8361   1
   7  -3  -8 76.1591  39.629   1
   7  -3  -8 134.635 16.3517   1
   7  -3  -7 679.508 94.2673   1
   7  -3  -7 750.786 25.9932   1
  -7   3   7 820.301 90.1852   1
   7  -3  -6 229.782 43.0375   1
   7  -3  -6 218.334 33.0121   1
  -7   3   6 316.783 74.9193   1
   7  -3  -5 245.806 45.6768   1
   7  -3  -5 313.678 35.5123   1
  -7   3   5 263.566 78.6909   1
  -7   3   5 270.757 31.2054   1
   7  -3  -4 3831.62 265.871   1
   7  -3  -4 4029.89  151.56   1
  -7   3   4 4047.17 258.558   1
  -7   3   4 3369.54 94.5641   1
   7  -3  -3 48.6401 41.9254   1
   7  -3  -3 34.9757 37.3462   1
  -7   3   3 17.2225 68.9177   1
  -7   3   3 30.1775 17.0697   1
   7  -3  -2 2426.77 109.215   1
  -7   3   2 2408.15 102.299   1
  -7   3   2 2084.58 59.3478   1
   7  -3  -1 77.3546 46.2228   1
  -7   3   1 140.931 41.0675   1
  -7   3   1 56.0573 20.1608   1
   7  -3   0 1449.39 96.8441   1
  -7   3   0 1865.12 83.8469   1
  -7   3   0 1413.88 48.0978   1
   7  -3   1 748.282 46.1073   1
  -7   3  -1 924.218 61.5851   1
  -7   3  -1 735.903 60.3229   1
   7  -3   2 23.7855 33.5122   1
  -7   3  -2 67.0986 43.2617   1
  -7   3  -2 26.9965 26.3807   1
   7  -3   3 833.103 55.6306   1
  -7   3  -3 949.283 62.7856   1
  -7   3  -3 749.635 44.8772   1
   7  -3   4  728.90 104.575   1
  -7   3  -4 914.422 103.913   1
  -7   3  -4 757.454 49.1803   1
   7  -3   5  17.913 81.0031   1
  -7   3  -5 130.737 44.2571   1
  -7   3  -5 61.5593 65.1826   1
   7  -3   6 1843.55  107.28   1
  -7   3  -6 1637.79 89.4748   1
   7  -3   7  424.66 62.4724   1
  -7   3  -7 431.008 56.3125   1
   7  -3   8-7.45901 56.3902   1
  -7   3  -8 73.2564 49.6885   1
   7  -3   9 2149.36 138.417   1
  -7   3  -9 2025.91 202.301   1
   7  -3  10 304.634 110.525   1
  -7   3 -10 226.892 58.3574   1
   7  -3  11 254.416 65.9532   1
  -7   3 -11 212.347 58.9167   1
   7  -3  12 927.893  152.56   1
  -7   3 -12 956.111 87.6115   1
   7  -3  13 350.077 79.2856   1
  -7   3 -13 477.642 70.8894   1
   7  -3  14 106.539 112.039   1
  -7   3 -14-20.5026 60.7605   1
   7  -3  15 136.567 72.0599   1
  -7   3 -15 166.502 66.5752   1
   7  -3  16 363.578 129.567   1
  -7   3 -16 227.998 73.0736   1
  -7   3 -17 35.0494 68.3353   1
   7  -2 -13 237.764 56.1366   1
   7  -2 -13 179.589 32.7164   1
   7  -2 -13 144.462 23.0837   1
   7  -2 -12 180.129 56.9066   1
   7  -2 -12 178.468 32.1686   1
   7  -2 -12 151.233 24.0964   1
   7  -2 -11 41.4166 32.3255   1
   7  -2 -11 61.8214  17.718   1
   7  -2 -11 51.8554 21.3203   1
   7  -2 -10 17.7896 31.8847   1
   7  -2 -10 5.51718 28.8018   1
   7  -2 -10 6.26762 20.1732   1
   7  -2  -9 260.543 36.0284   1
   7  -2  -9 235.795 31.7915   1
   7  -2  -9 170.706  23.172   1
   7  -2  -8 722.229 49.7148   1
   7  -2  -8 743.343 28.3098   1
   7  -2  -7   22.56 58.0289   1
   7  -2  -7 6.89296 18.1892   1
  -7   2   7 61.9926 33.0104   1
   7  -2  -6 71.9803 35.0431   1
   7  -2  -6 65.4186 34.1981   1
  -7   2   6 106.614 60.2153   1
   7  -2  -5 30.7077 34.5821   1
   7  -2  -5-12.7208 35.0005   1
  -7   2   5 2.76681  58.418   1
  -7   2   5-5.18747 17.7074   1
   7  -2  -4 1178.54 70.8018   1
   7  -2  -4 1381.01 70.1478   1
  -7   2   4 1401.76 113.644   1
  -7   2   4 1196.31 58.6528   1
   7  -2  -3 5254.34 244.718   1
   7  -2  -3 5911.36 252.419   1
  -7   2   3 5248.42  327.66   1
  -7   2   3 5142.24 216.964   1
   7  -2  -2 796.201 58.7404   1
  -7   2   2 839.514 90.2941   1
  -7   2   2  668.83 48.5783   1
   7  -2  -1 1233.73 76.5481   1
  -7   2   1 1225.44 63.8515   1
  -7   2   1 1030.71 38.6969   1
   7  -2   0  740.88 66.9412   1
  -7   2   0 783.602 51.9774   1
  -7   2   0 567.481 30.9272   1
   7  -2   1 266.289 59.4502   1
  -7   2  -1 273.686 45.0847   1
  -7   2  -1 285.017 46.7728   1
   7  -2   2-37.9324  57.341   1
  -7   2  -2 36.8297  37.151   1
  -7   2  -2-9.91177 25.6617   1
   7  -2   3 354.508 77.0929   1
  -7   2  -3 460.625 84.9588   1
  -7   2  -3 359.628 35.6903   1
   7  -2   4 823.375 99.9354   1
  -7   2  -4 789.608 49.4716   1
   7  -2   5 47.5373 43.0262   1
  -7   2  -5  8.7804 37.1858   1
   7  -2   6-49.2899 48.1205   1
  -7   2  -6-10.2298 40.4665   1
   7  -2   7 612.767  69.095   1
  -7   2  -7 574.301 100.926   1
   7  -2   8 961.045 145.027   1
  -7   2  -8 906.224 75.8146   1
   7  -2   9 308.846 65.8375   1
  -7   2  -9 287.726 57.6077   1
   7  -2  10 90.5142 59.4219   1
  -7   2 -10 159.551 94.9835   1
   7  -2  11 284.959 67.8023   1
  -7   2 -11 380.697 61.5685   1
   7  -2  12 22.2294 58.5233   1
  -7   2 -12 24.1518 54.0336   1
   7  -2  13 44.0684 102.699   1
  -7   2 -13 84.1721  56.642   1
   7  -2  14 153.326 69.6894   1
  -7   2 -14 258.186 63.4724   1
   7  -2  15 148.513  118.42   1
  -7   2 -15 152.724 64.5081   1
   7  -2  16 478.262 86.2553   1
  -7   2 -16 557.549 81.7304   1
   7  -2  17 9.91279 114.526   1
  -7   2 -17-70.3475 66.2148   1
   7  -1 -13 101.027 28.5681   1
   7  -1 -13 165.383 37.1082   1
   7  -1 -13 110.893 43.8742   1
   7  -1 -12 20.5805  26.844   1
   7  -1 -12 34.9546 33.5357   1
   7  -1 -12  11.752 24.5472   1
   7  -1 -11 74.6657 28.1573   1
   7  -1 -11 96.8745  35.105   1
   7  -1 -11 81.5665 24.9454   1
   7  -1 -10 58.5683 28.2848   1
   7  -1 -10 41.5313 20.3646   1
   7  -1 -10 19.6383 23.3884   1
   7  -1  -9 105.937 31.4882   1
   7  -1  -9  225.44 22.4462   1
   7  -1  -9 162.854 26.1316   1
   7  -1  -8 54.3032 30.4012   1
   7  -1  -8 63.9814 35.5643   1
   7  -1  -7 161.062 55.8758   1
   7  -1  -7 232.787 24.4011   1
  -7   1   7 260.072 33.7113   1
   7  -1  -6 1734.82 82.4312   1
   7  -1  -6 2099.19 64.7234   1
  -7   1   6 2092.73 83.0352   1
   7  -1  -5 629.324 45.6385   1
   7  -1  -5  853.59 56.1485   1
  -7   1   5 785.774 45.5454   1
  -7   1   5 702.967  50.555   1
   7  -1  -4 320.003 39.0917   1
   7  -1  -4 391.116 45.7161   1
  -7   1   4 293.072 64.9332   1
  -7   1   4 319.401 24.2554   1
   7  -1  -3 3168.52 137.204   1
  -7   1   3 2817.21 104.996   1
  -7   1   3 2752.39 81.7651   1
   7  -1  -2 2302.99  116.35   1
  -7   1   2 2311.34 94.5705   1
  -7   1   2 2098.80 101.265   1
   7  -1  -1 21.6989 43.9461   1
  -7   1   1 14.1204 33.1929   1
  -7   1   1  10.995 37.9357   1
   7  -1   0 6875.65 265.225   1
  -7   1   0 6983.94 292.184   1
  -7   1   0 6225.28  236.57   1
   7  -1   1 1885.27 72.7556   1
  -7   1  -1 2178.90 138.697   1
  -7   1  -1 1613.97 95.7532   1
   7  -1   2 1404.69 64.8811   1
  -7   1  -2 1609.81 110.592   1
  -7   1  -2 1242.90 54.8951   1
   7  -1   3 918.456 55.6344   1
  -7   1  -3 894.208 77.5217   1
   7  -1   4 4146.65 180.168   1
  -7   1  -4 3807.26 228.377   1
   7  -1   5 1539.99  84.784   1
  -7   1  -5 1328.10 121.527   1
   7  -1   6 2388.17 119.976   1
  -7   1  -6 2205.93 104.138   1
   7  -1   7 545.468  65.129   1
  -7   1  -7 479.814 55.5086   1
   7  -1   8  508.92 125.126   1
  -7   1  -8 691.242 106.657   1
   7  -1   9 6433.77 382.664   1
  -7   1  -9 5982.92 340.111   1
   7  -1  10-14.7087 59.3917   1
  -7   1 -10-35.3052 53.1675   1
   7  -1  11 145.268 102.546   1
  -7   1 -11 93.0307 53.8698   1
   7  -1  12 753.421 84.7792   1
  -7   1 -12 933.343 127.756   1
   7  -1  13 1.19337 56.2141   1
  -7   1 -13-83.4473 91.3473   1
   7  -1  14 363.293 121.571   1
  -7   1 -14 478.539 67.6874   1
   7  -1  15-98.4961 61.9652   1
  -7   1 -15 71.0988 56.1962   1
   7  -1  16 39.8826 110.819   1
  -7   1 -16 57.6172 104.165   1
   7  -1  17-41.6914 64.4074   1
  -7   1 -17-18.6989 104.105   1
   7  -1  18-11.4307 65.1498   1
  -7   1 -18 149.868 110.466   1
   7   0 -13-35.0129 22.9575   1
   7   0 -13-44.9581 40.2786   1
   7   0 -13 -75.538 50.2182   1
   7   0 -12 11.1581 22.7131   1
   7   0 -12-6.50925 39.1716   1
   7   0 -12 23.1517 47.2987   1
   7   0 -11 10.6635 23.3759   1
   7   0 -11 101.223 23.5018   1
   7   0 -11  7.7531 45.4823   1
   7   0 -10 1.76455 23.6466   1
   7   0 -10-29.7042 22.8753   1
   7   0 -10 8.80338 26.0643   1
   7   0  -9 204.426 27.1447   1
   7   0  -9  190.53 26.1674   1
   7   0  -9 200.783 29.5149   1
   7   0  -8 199.385 47.1104   1
   7   0  -8  188.37 43.6525   1
   7   0  -7 948.291  46.507   1
   7   0  -7 1165.58 44.8733   1
   7   0  -6-24.7509  26.776   1
   7   0  -6 37.1445   42.96   1
  -7   0   6 -10.102 27.3245   1
   7   0  -5 859.264 76.2007   1
   7   0  -5 959.106 42.0709   1
  -7   0   5 962.554 44.1602   1
  -7   0   5 890.481 38.6888   1
   7   0  -4 30.7531 28.6068   1
   7   0  -4 38.0898 23.9014   1
  -7   0   4-5.83128 47.5306   1
  -7   0   4 -1.4969 37.9773   1
   7   0  -3 1565.65 55.4349   1
  -7   0   3 1421.76   57.14   1
  -7   0   3 1471.83 50.5812   1
   7   0  -2 2130.96 70.4006   1
  -7   0   2 2019.41 75.8288   1
  -7   0   2 1880.74 62.9254   1
   7   0  -1 2091.11 73.0136   1
  -7   0   1 2498.14  136.48   1
  -7   0   1 1992.44 104.664   1
   7   0   0-19.5964 26.5269   1
  -7   0   0-54.3393 31.2414   1
  -7   0   0 18.4947 23.2849   1
   7   0   1 2435.59 83.8721   1
  -7   0  -1 2525.47 90.8977   1
  -7   0  -1 2185.83 113.841   1
   7   0   2 449.102 63.4885   1
  -7   0  -2 361.983 40.1301   1
  -7   0  -2 329.129 31.9433   1
   7   0   3 135.904 60.5953   1
  -7   0  -3 43.2345 51.0303   1
   7   0   4 1694.50 82.0972   1
  -7   0  -4 1561.52 111.739   1
   7   0   5 8191.71 411.854   1
  -7   0  -5 7437.10 359.612   1
   7   0   6 3543.57 163.425   1
  -7   0  -6 3273.01 224.499   1
   7   0   7 5876.84 293.184   1
  -7   0  -7 5650.32 265.033   1
   7   0   8-58.2382 90.6186   1
  -7   0  -8-39.9352 45.2158   1
   7   0   9-135.538  99.938   1
  -7   0  -9-21.3808 50.2527   1
   7   0  10 8525.08 546.817   1
  -7   0 -10 8092.50 488.738   1
   7   0  11-12.9087 59.6306   1
  -7   0 -11-86.1223 55.0942   1
   7   0  12 -67.304 101.563   1
  -7   0 -12 83.7978 52.9497   1
   7   0  13 264.225 60.2826   1
  -7   0 -13 86.7422 55.8701   1
   7   0  14 238.076   62.99   1
  -7   0 -14 277.803 59.3033   1
   7   0  15 -131.77 106.032   1
  -7   0 -15-130.058 98.4913   1
   7   0  16 134.504  63.552   1
   7   0  17 73.9442 61.5111   1
   7   0  18 63.2817 64.3962   1
  -7   0 -18 65.9837 61.4054   1
   7   1 -13 373.517 40.8631   1
   7   1 -13 448.265 36.9069   1
   7   1 -13 476.433 44.2496   1
   7   1 -12 14.8711 31.9644   1
   7   1 -12-24.1835 27.1312   1
   7   1 -12-68.3724 53.9404   1
   7   1 -11 22.0636 32.8489   1
   7   1 -11 20.8743 26.7208   1
   7   1 -11 77.1092  51.721   1
   7   1 -10-11.6894 33.8049   1
   7   1 -10 79.8966 26.7376   1
   7   1 -10 34.2469 30.1309   1
   7   1  -9 40.6392 32.3254   1
   7   1  -9 47.4133 25.9703   1
   7   1  -9 7.53761 29.5925   1
   7   1  -8 492.568 27.4522   1
   7   1  -8 529.175 57.5362   1
   7   1  -7-38.4827 21.3673   1
   7   1  -7 8.40975 26.8229   1
   7   1  -6 2649.76 132.578   1
   7   1  -6 2846.05 101.471   1
  -7  -1   6 2809.52 90.7839   1
   7   1  -5 1162.20 48.0672   1
   7   1  -5 1200.68 53.0634   1
  -7  -1   5 1262.75 71.5736   1
   7   1  -4 58.8359 48.0592   1
  -7  -1   4 72.7747 24.3199   1
  -7  -1   4  74.401 26.2729   1
   7   1  -3 4295.63 201.332   1
  -7  -1   3 3784.49 118.684   1
  -7  -1   3 3913.25 182.022   1
   7   1  -2 1994.44 69.1333   1
  -7  -1   2 1977.19 101.099   1
  -7  -1   2 1957.82 65.9606   1
   7   1  -1  483.42 35.0275   1
  -7  -1   1  491.41 33.4244   1
  -7  -1   1 526.992  54.942   1
   7   1   0 5.55597 48.2275   1
  -7  -1   0 55.0907 48.2992   1
  -7  -1   0 39.9263 24.8235   1
   7   1   1 4750.33 241.867   1
  -7  -1  -1 4834.16  171.08   1
  -7  -1  -1 4512.43 220.649   1
   7   1   2 3130.99 105.707   1
  -7  -1  -2 2841.94 96.5644   1
   7   1   3 1474.35 65.1826   1
  -7  -1  -3 1400.96 93.2533   1
   7   1   4 1189.58 62.0655   1
  -7  -1  -4 1135.14 89.3229   1
   7   1   5 811.255 93.7334   1
  -7  -1  -5 691.439 48.1146   1
   7   1   6 3190.96  215.81   1
  -7  -1  -6 2879.26 118.106   1
   7   1   7 248.177 89.7395   1
  -7  -1  -7 400.197 76.5567   1
   7   1   8 1214.22 133.724   1
  -7  -1  -8 1063.13 70.6336   1
   7   1   9 634.876 115.164   1
  -7  -1  -9 482.088 58.1964   1
   7   1  10 90.1265 96.5269   1
  -7  -1 -10-18.0181 47.8115   1
   7   1  11 4149.45 242.562   1
  -7  -1 -11 3818.75 330.183   1
   7   1  12  205.58 61.7471   1
  -7  -1 -12 199.998 56.0095   1
   7   1  13 30.6095 57.5827   1
  -7  -1 -13 75.4748 52.7637   1
   7   1  14 183.574 100.098   1
  -7  -1 -14 174.868 55.1473   1
   7   1  15 271.002 62.6935   1
  -7  -1 -15 358.221 59.7301   1
   7   1  16-59.3512 57.0553   1
  -7  -1 -16  0.1868 51.9924   1
   7   1  17 304.772 115.916   1
  -7  -1 -17 395.736 64.7141   1
   7   1  18 30.6173 58.7417   1
  -7  -1 -18 34.3631 55.8816   1
   7   1  19-126.118 96.9749   1
  -7  -1 -19 44.6697 55.9706   1
   7   2 -13 84.8591 32.2526   1
   7   2 -13 62.4551  40.847   1
   7   2 -12 280.243 19.5821   1
   7   2 -12 409.749 37.0012   1
   7   2 -12 358.161 74.0239   1
   7   2 -11 9.45937 15.6762   1
   7   2 -11 66.6921 30.0988   1
   7   2 -11 41.7324 59.8978   1
   7   2 -10 14.5616 15.7761   1
   7   2 -10 7.64555 49.9663   1
   7   2 -10 11.9527 33.8301   1
   7   2  -9 139.852 17.6119   1
   7   2  -9 139.524 53.4359   1
   7   2  -9 174.385  35.841   1
   7   2  -8 421.388 35.4968   1
   7   2  -8 458.742 37.5007   1
   7   2  -7 76.3419 32.3028   1
   7   2  -7 72.6578 30.2252   1
   7   2  -6 647.111 29.5609   1
   7   2  -6 615.566 73.8837   1
   7   2  -5 2756.85 109.668   1
  -7  -2   5 2924.60 80.6524   1
   7   2  -4 47.0542  51.776   1
  -7  -2   4 63.2517 35.2189   1
  -7  -2   4 101.848 48.7167   1
   7   2  -3 1853.99 67.9622   1
  -7  -2   3 1656.95 73.9759   1
  -7  -2   3 1737.23  64.797   1
   7   2  -2 320.813  34.591   1
  -7  -2   2 362.554 42.4621   1
  -7  -2   2 382.226 32.0225   1
   7   2  -1 2719.80 89.7597   1
  -7  -2   1 2637.38 76.9972   1
  -7  -2   1 2692.76 132.716   1
   7   2   0-46.7731 28.6894   1
  -7  -2   0  3.1486 22.4082   1
  -7  -2   0 -15.037 26.6809   1
   7   2   125484.90 2060.97   1
  -7  -2  -123855.10 2211.79   1
   7   2   2 5352.48 281.617   1
  -7  -2  -2 5152.60 186.291   1
   7   2   3-46.3714 32.1631   1
  -7  -2  -3-54.9485 28.7625   1
   7   2   4 9607.43 457.119   1
  -7  -2  -4 9065.69 554.249   1
   7   2   5 35.1183 36.0975   1
  -7  -2  -5-20.9821 31.5984   1
   7   2   6 274.068 77.7517   1
  -7  -2  -6 246.919 39.3634   1
   7   2   7 250.528 81.2082   1
  -7  -2  -7 242.423 67.8125   1
   7   2   8 188.175 80.2465   1
  -7  -2  -8 116.432 39.1927   1
   7   2   9 113.242 80.8643   1
  -7  -2  -9-6.39422 40.3341   1
   7   2  10 774.603 120.331   1
  -7  -2 -10 592.599  102.49   1
   7   2  11 179.299 94.9468   1
  -7  -2 -11 83.0289 48.7977   1
   7   2  12 225.333 62.2655   1
  -7  -2 -12 330.032 53.7039   1
   7   2  13 3726.88 207.918   1
  -7  -2 -13 3692.35 185.375   1
   7   2  14  701.72 71.1968   1
  -7  -2 -14 550.537 109.536   1
   7   2  15 990.196  132.64   1
  -7  -2 -15 956.532 125.887   1
   7   2  16 634.231 71.5306   1
  -7  -2 -16 700.795 112.264   1
   7   2  17 102.336 54.9733   1
   7   2  19 35.6556 54.5936   1
   7   3 -13-12.7419 36.1619   1
   7   3 -13-26.4977 45.0001   1
   7   3 -12 47.1666 36.3611   1
   7   3 -12 132.227 73.3984   1
   7   3 -11 65.4417 22.0642   1
   7   3 -11 123.528 35.6596   1
   7   3 -11 15.2737 71.6631   1
   7   3 -10 59.1869 22.9886   1
   7   3 -10 147.752 35.2364   1
   7   3 -10 123.908 40.3717   1
   7   3  -9 217.066 16.0726   1
   7   3  -9 304.914 37.5437   1
   7   3  -9 213.477 43.9912   1
   7   3  -8 764.847 48.8528   1
   7   3  -7 1651.88 75.1409   1
   7   3  -6 218.114 66.9161   1
   7   3  -5 2797.66 118.741   1
  -7  -3   5 2889.33 70.8067   1
   7   3  -4 223.035 61.5634   1
  -7  -3   4 220.357 17.1958   1
  -7  -3   4 184.607 33.9231   1
   7   3  -3 468.187 39.1903   1
  -7  -3   3 427.581  21.112   1
  -7  -3   3  455.13 38.2621   1
   7   3  -2 308.692 34.8466   1
  -7  -3   2  253.17 33.0251   1
  -7  -3   2  223.33 33.3977   1
   7   3  -1 65.1549 30.7261   1
  -7  -3   1 38.5236 32.4499   1
  -7  -3   1 104.409  49.221   1
   7   3   0 224.547 31.8856   1
  -7  -3   0 169.707 36.7301   1
  -7  -3   0 210.841 29.7294   1
   7   3   1 7236.01 279.902   1
  -7  -3  -1 6780.48 265.026   1
   7   3   2 1377.45  58.585   1
  -7  -3  -2 1049.88 57.5355   1
   7   3   3 5972.43 242.403   1
  -7  -3  -3 6224.74 246.361   1
   7   3   4 5529.58 311.487   1
  -7  -3  -4 4988.88 194.045   1
   7   3   522254.70 1744.95   1
  -7  -3  -521137.80 1936.58   1
   7   3   6 1079.46 61.1824   1
  -7  -3  -6 1022.94 92.0618   1
   7   3   7 2626.94 183.651   1
  -7  -3  -7 2473.70 159.222   1
   7   3   8 402.504  88.041   1
  -7  -3  -8 428.553 43.3519   1
   7   3   9 1106.89 72.0683   1
  -7  -3  -9 1010.16 61.5132   1
   7   3  10 975.836 71.7043   1
  -7  -3 -10 951.437 106.609   1
   7   3  11 615.011 62.5994   1
  -7  -3 -11 447.908 53.4148   1
   7   3  12 69.2231 51.5118   1
  -7  -3 -12  86.771 75.8613   1
   7   3  13-76.5186 82.9703   1
  -7  -3 -13 20.8136 42.7612   1
   7   3  14 111.845 84.6626   1
  -7  -3 -14 101.977 44.7433   1
   7   3  15 979.935 77.0792   1
  -7  -3 -15 1003.34 71.3679   1
   7   3  16 433.533 60.0212   1
  -7  -3 -16 482.377  55.969   1
  -7  -3 -17  287.88 51.6299   1
   7   3  18 27.2342 49.2109   1
  -7  -3 -18 7.19301   45.13   1
   7   3  19 159.448 54.9647   1
  -7  -3 -19 206.238 51.7168   1
   7   4 -13 141.037  73.066   1
   7   4 -13 123.909 52.9699   1
   7   4 -12 35.8289 68.0602   1
   7   4 -12 99.4147 81.7597   1
   7   4 -11 62.4324 64.7339   1
   7   4 -11 16.3714 46.2854   1
   7   4 -10-83.4483 64.2234   1
   7   4 -10-9.78286 43.7999   1
   7   4  -9-12.4168 42.9351   1
   7   4  -8 131.521  64.496   1
   7   4  -7 62.9403 36.7062   1
   7   4  -6 2587.31 116.704   1
   7   4  -5 127.659 68.7219   1
   7   4  -4 4846.77 213.275   1
  -7  -4   4 4789.89 141.813   1
   7   4  -3 1014.14 96.9567   1
  -7  -4   3 1096.67  37.507   1
  -7  -4   3 1015.88 56.3704   1
   7   4  -2 326.743 37.9287   1
  -7  -4   2 272.243 15.8623   1
  -7  -4   2 367.492 62.1488   1
   7   4  -1 585.813 43.2118   1
  -7  -4   1 574.125 22.3005   1
  -7  -4   1 594.729 68.6453   1
   7   4   0 97.0936 33.3561   1
  -7  -4   0 148.434  31.271   1
   7   4   1-8.08481 31.1751   1
  -7  -4  -1 25.7002 29.1725   1
   7   4   2 1805.91 71.9133   1
  -7  -4  -2 1680.61 107.883   1
   7   4   3 1661.91 69.2985   1
  -7  -4  -3 1477.57 63.7761   1
   7   4   4 1188.60 96.1269   1
  -7  -4  -4 1153.62 54.0151   1
   7   4   5 345.876 39.0489   1
  -7  -4  -5  337.13 34.3725   1
   7   4   6 44.8347 34.4507   1
  -7  -4  -6  12.208 30.2734   1
   7   4   7 130.622  67.088   1
  -7  -4  -7 145.994 33.7464   1
   7   4   8 296.559 44.4304   1
  -7  -4  -8 272.053   37.37   1
   7   4   9 3237.57 146.861   1
  -7  -4  -9 3110.36  131.04   1
   7   4  10 32.3342 40.8026   1
  -7  -4 -10-32.3226 59.9804   1
   7   4  11 147.513 46.3042   1
  -7  -4 -11 253.924 39.5915   1
   7   4  12 503.864  58.784   1
  -7  -4 -12 556.801 84.8429   1
   7   4  13-11.2187 45.8173   1
  -7  -4 -13 32.8451 39.0932   1
   7   4  14 672.235 62.1562   1
  -7  -4 -14 631.613 55.3477   1
   7   4  15 918.666 71.5421   1
  -7  -4 -15  939.24 61.4301   1
   7   4  16 59.9408 74.4325   1
  -7  -4 -16 46.5968  68.383   1
   7   4  17 133.393 46.2402   1
  -7  -4 -17  235.96 74.4358   1
   7   4  18-5.03787 45.0599   1
   7   4  19-29.3981 46.5484   1
   7   5 -12 68.7247 43.7395   1
   7   5 -12 118.025 91.9799   1
   7   5 -11 292.361 49.5993   1
   7   5 -11 291.112 58.2234   1
   7   5 -10 15.6861   42.05   1
   7   5 -10 43.5502 48.5308   1
   7   5  -9 54.3566 41.4385   1
   7   5  -8 405.204 48.3078   1
   7   5  -8 362.739 56.1141   1
   7   5  -7 454.816 84.4351   1
   7   5  -6 1311.92  124.12   1
   7   5  -5 1186.03 74.4303   1
   7   5  -4 14.6523  39.797   1
   7   5  -3 220.831 42.1593   1
  -7  -5   3 239.075  15.452   1
   7   5  -2 239.724 40.8441   1
  -7  -5   2 222.407 18.2502   1
  -7  -5   2 234.175 66.3831   1
   7   5  -1 622.636 45.1004   1
  -7  -5   1 495.669 17.1611   1
  -7  -5   1 572.282 42.8049   1
   7   5   0 716.677 46.5319   1
  -7  -5   0 630.716 44.3281   1
   7   5   1 1417.41 68.0542   1
  -7  -5  -1 1276.09 62.8611   1
   7   5   2 4686.97 167.307   1
  -7  -5  -2 4217.13 158.115   1
   7   5   3 1723.33 70.2547   1
  -7  -5  -3 1711.76 106.208   1
   7   5   4 787.045  46.279   1
  -7  -5  -4 734.134 42.5917   1
   7   5   5 5550.47 294.146   1
  -7  -5  -5 5238.57 195.829   1
   7   5   6 4167.82 150.491   1
  -7  -5  -6 3860.73 138.699   1
   7   5   7 300.393 67.0948   1
  -7  -5  -7 252.921 34.0622   1
   7   5   8 333.987 42.6937   1
  -7  -5  -8 292.339 36.4939   1
   7   5   9 145.772 38.4349   1
  -7  -5  -9 64.1623 33.3049   1
   7   5  10 15.9301 38.9286   1
  -7  -5 -10-15.8855 56.3323   1
   7   5  11 75.9348 69.5963   1
  -7  -5 -11 97.3359 34.7945   1
   7   5  12 160.834 70.9023   1
  -7  -5 -12 82.2397 60.4581   1
   7   5  13 1036.75 111.569   1
  -7  -5 -13 965.561 57.2268   1
   7   5  14 170.275 76.9088   1
  -7  -5 -14 172.573 36.9166   1
   7   5  15 232.599 75.7368   1
  -7  -5 -15 229.258 67.5959   1
   7   5  16 41.5804 40.8049   1
  -7  -5 -16 79.3801 36.2966   1
   7   5  17-45.5572 39.0107   1
  -7  -5 -17 1.15667 36.5324   1
   7   5  18   21.43 41.7499   1
  -7  -5 -18 54.2251 37.1229   1
  -7  -5 -19 67.3723 39.5318   1
   7   5  20 58.8317 42.3319   1
  -7  -5 -20-10.9796 38.9211   1
   7   6 -12-16.9138 47.6082   1
   7   6 -12 93.2069 57.6364   1
   7   6 -11 176.795 50.9686   1
   7   6 -11 238.831 60.5405   1
   7   6 -10 -38.314 45.1451   1
   7   6 -10 39.1487 89.8613   1
   7   6  -9 67.6385  44.617   1
   7   6  -9 107.793 52.7372   1
   7   6  -8 18.2595 43.3581   1
   7   6  -8-43.2197 49.4564   1
   7   6  -7 1250.12 79.5232   1
   7   6  -6-53.7113 44.8884   1
   7   6  -5 3894.08 287.563   1
   7   6  -4 1400.15 83.3656   1
   7   6  -3 2543.31 119.504   1
   7   6  -2 30.0551 38.5933   1
  -7  -6   2 39.6345 37.1024   1
   7   6  -1 807.422 91.6105   1
  -7  -6   1 717.334 15.2781   1
  -7  -6   1 809.134 52.7326   1
   7   6   0 4912.79 198.676   1
  -7  -6   0 4761.17 190.696   1
   7   6   1 371.814 41.2567   1
  -7  -6  -1 361.993 39.3354   1
   7   6   2 1085.50 55.6664   1
  -7  -6  -2 921.018 53.7555   1
   7   6   3-59.3101 32.8796   1
  -7  -6  -3 -55.151 32.2831   1
   7   6   4 58.1311 31.4928   1
  -7  -6  -4 43.8992 29.9336   1
   7   6   5 579.658 72.4502   1
  -7  -6  -5 654.699 66.5813   1
   7   6   6 164.462 35.0748   1
  -7  -6  -6 173.149 54.9067   1
   7   6   7 1076.89 89.2678   1
  -7  -6  -7 953.367 78.3716   1
   7   6   8 7.87025 34.0182   1
  -7  -6  -8 79.5369 50.4876   1
   7   6   9 987.935 56.7661   1
  -7  -6  -9 896.356  79.949   1
   7   6  10 42.5301 62.1646   1
  -7  -6 -10 24.6284 29.7267   1
   7   6  11 50.4478 61.5725   1
  -7  -6 -11 25.1136 30.3265   1
   7   6  12 369.238 43.7071   1
  -7  -6 -12 334.822 62.9847   1
   7   6  13-33.3614 37.5227   1
  -7  -6 -13 2.72376 31.3872   1
   7   6  14  73.038 38.0566   1
  -7  -6 -14 43.7028 31.7255   1
   7   6  15 193.619 39.9881   1
  -7  -6 -15 203.761  57.078   1
   7   6  16 82.4862 38.7397   1
  -7  -6 -16 148.557 33.2075   1
   7   6  17 17.6821 36.1621   1
  -7  -6 -17 72.5963 31.9493   1
   7   6  18 169.601 65.2366   1
  -7  -6 -18 70.2268 33.8424   1
  -7  -6 -19 185.375 36.0498   1
   7   6  20 76.7711 38.6754   1
  -7  -6 -20 22.9742 33.7768   1
   7   7 -11-6.41034  48.929   1
   7   7 -11 24.7302 58.7154   1
   7   7 -10-1.36473 48.1254   1
   7   7 -10 22.4894 57.7545   1
   7   7  -9 184.128 49.7203   1
   7   7  -9 91.6955 57.8583   1
   7   7  -8 653.871 64.4442   1
   7   7  -8 516.792  123.88   1
   7   7  -7 5209.79 270.957   1
   7   7  -7 5160.85 289.484   1
   7   7  -6 159.051 50.7016   1
   7   7  -5 3837.73 193.696   1
   7   7  -4 16.1426 77.7281   1
   7   7  -3 107.403 45.2478   1
   7   7  -2-66.9344 41.7947   1
   7   7  -1 929.308 62.5747   1
  -7  -7   1  980.89 60.1652   1
   7   7   0 3555.06 225.294   1
  -7  -7   0 3431.56 145.074   1
   7   7   1 1906.18 88.1458   1
  -7  -7  -1 2137.65 86.7067   1
   7   7   2 3293.98 130.934   1
  -7  -7  -2 3530.23  131.37   1
   7   7   3 2009.35 84.9023   1
  -7  -7  -3 2187.31 83.3186   1
   7   7   4 4512.89 236.248   1
  -7  -7  -4 4216.66 153.062   1
   7   7   5 618.472 43.4229   1
  -7  -7  -5 528.373 40.2181   1
   7   7   6-3.92901  31.033   1
  -7  -7  -6-6.92214  28.579   1
   7   7   7 314.031 64.6667   1
  -7  -7  -7 287.813 32.8768   1
   7   7   8 3999.14 151.537   1
  -7  -7  -8 3694.93 130.127   1
   7   7   9 217.776 36.1592   1
  -7  -7  -9 218.473 30.2954   1
   7   7  10 28.2892 33.2716   1
  -7  -7 -10 47.0388 27.3769   1
   7   7  11 220.747 37.3003   1
  -7  -7 -11 238.348 53.0375   1
   7   7  12 43.6919 32.6897   1
  -7  -7 -12 9.18042 27.9885   1
   7   7  13 187.837 59.0537   1
  -7  -7 -13 189.468 30.6424   1
   7   7  14 148.442 62.0241   1
  -7  -7 -14 186.312 30.1572   1
   7   7  15 31.9317 55.7557   1
  -7  -7 -15 37.9683 48.1195   1
   7   7  16 513.619 72.7324   1
  -7  -7 -16  494.29 39.0146   1
   7   7  17 247.654 59.8632   1
  -7  -7 -17 202.614 32.5466   1
   7   7  18 83.7704 54.7948   1
  -7  -7 -18 48.6544 30.4316   1
   7   7  19 98.7373 33.4764   1
  -7  -7 -19-29.8133 29.9139   1
  -7  -7 -20-43.5516  30.882   1
   7   8 -11 214.449  58.276   1
   7   8 -11 83.3853 119.377   1
   7   8 -10-12.7558 52.3845   1
   7   8 -10  68.385 62.2766   1
   7   8  -9 -103.64 52.2784   1
   7   8  -9-22.0215 102.354   1
   7   8  -8-43.7555 49.7775   1
   7   8  -8 88.1412  55.774   1
   7   8  -7 120.036 50.3161   1
   7   8  -7 57.7398 57.8195   1
   7   8  -6 1590.85 100.113   1
   7   8  -5 1300.56 90.0165   1
   7   8  -4 45.6653  47.184   1
   7   8  -3 2852.34 225.296   1
   7   8  -2  842.38  66.353   1
   7   8  -1 770.067 97.6174   1
   7   8   0 13.4597 39.1108   1
  -7  -8   0 51.5701  36.986   1
   7   8   1 1317.38 71.0773   1
  -7  -8  -1 1367.03 68.0075   1
   7   8   2 150.885 38.5805   1
  -7  -8  -2 165.337   37.43   1
   7   8   3 7251.03 316.593   1
  -7  -8  -3 7237.80 308.962   1
   7   8   4 2410.63 90.7085   1
  -7  -8  -4 2345.97 88.9391   1
   7   8   5 435.898 40.7638   1
  -7  -8  -5 534.569 38.1517   1
   7   8   6 2706.84 105.063   1
  -7  -8  -6 2935.48 99.3184   1
   7   8   7-3.53271 52.9089   1
  -7  -8  -7-30.9831 26.9367   1
   7   8   8 751.627 43.5698   1
  -7  -8  -8 764.463 65.4163   1
   7   8   9 235.283 57.8478   1
  -7  -8  -9 209.951 49.6244   1
   7   8  10  398.07 37.1959   1
  -7  -8 -10 289.258 52.3999   1
   7   8  11 446.905 64.3982   1
  -7  -8 -11 409.095 31.7562   1
   7   8  12  391.28  60.057   1
  -7  -8 -12 362.127 30.8514   1
   7   8  13-25.5834 28.3726   1
  -7  -8 -13 50.3938 41.4527   1
   7   8  14 520.841 39.2164   1
  -7  -8 -14  512.69 33.6857   1
   7   8  15 266.991 34.9468   1
  -7  -8 -15 255.245 49.7843   1
   7   8  16 622.878 67.4059   1
  -7  -8 -16 583.172 59.2144   1
   7   8  17 61.9514 48.6686   1
  -7  -8 -17 16.1485  24.916   1
   7   8  18 174.329 50.9105   1
  -7  -8 -18 124.697 27.1807   1
   7   8  19 135.757 32.0827   1
  -7  -8 -19 100.616 27.3163   1
   7   9 -10 196.721 103.959   1
   7   9 -10 282.087 74.2353   1
   7   9  -9-111.489 89.2685   1
   7   9  -9 9.88171 63.5075   1
   7   9  -8 -99.824 87.5208   1
   7   9  -8-1.01928 58.7701   1
   7   9  -7 47.8299 98.7925   1
   7   9  -6 812.946 72.6453   1
   7   9  -6 822.195 84.8946   1
   7   9  -5 610.662 67.7098   1
   7   9  -4 385.488 57.8294   1
   7   9  -3 248.282 86.9157   1
   7   9  -2-13.7648  42.347   1
   7   9  -1  687.34 59.2138   1
   7   9   0-8.17963 39.7558   1
  -7  -9   0 25.4677 10.3658   1
   7   9   1 626.751 87.6574   1
  -7  -9  -1 638.769 25.3354   1
  -7  -9  -1 611.831 50.2378   1
   7   9   2 1604.61 78.5368   1
  -7  -9  -2 1781.95 77.6368   1
   7   9   3 3083.23 124.306   1
  -7  -9  -3 3362.26 185.794   1
   7   9   4 1672.07 73.1653   1
  -7  -9  -4 1724.61 110.781   1
   7   9   5  146.84 33.1365   1
  -7  -9  -5 228.148 54.3871   1
   7   9   6 2677.99 145.626   1
  -7  -9  -6 2407.05  84.578   1
   7   9   7 1747.09 66.8489   1
  -7  -9  -7 1656.26  62.055   1
   7   9   8 88.2174  48.994   1
  -7  -9  -8-25.2099 25.0036   1
   7   9   9 43.6891 28.4422   1
  -7  -9  -9 20.3204 24.4414   1
   7   9  10  207.98 55.3965   1
  -7  -9 -10 238.412 26.7317   1
   7   9  11 462.053  35.429   1
  -7  -9 -11 441.103 50.2439   1
   7   9  12 210.478 29.3705   1
  -7  -9 -12 187.629 41.1518   1
   7   9  13 143.554 45.6075   1
  -7  -9 -13 125.586 22.9452   1
   7   9  14  256.75 30.9416   1
  -7  -9 -14 195.425  40.912   1
   7   9  15  139.76 29.4693   1
  -7  -9 -15 157.088 24.8343   1
   7   9  16 25.9595 26.5833   1
  -7  -9 -16 40.2096 37.6387   1
   7   9  17-17.7014 25.4828   1
  -7  -9 -17-31.2981 36.7925   1
   7   9  18 222.478 29.3512   1
  -7  -9 -18  215.25 26.2709   1
   7   9  19-6.88012 26.6501   1
  -7  -9 -19 42.5648 21.2673   1
   7  10  -9 15.3903  94.174   1
   7  10  -9-35.0923  67.656   1
   7  10  -8 44.8209 93.6122   1
   7  10  -8 53.3581 108.013   1
   7  10  -7 494.898  67.409   1
   7  10  -7 512.254 77.7687   1
   7  10  -6 595.481 68.8275   1
   7  10  -5 1547.03 99.5458   1
   7  10  -5 1504.83  111.79   1
   7  10  -4 10.8264 48.7736   1
   7  10  -3 1114.86 129.318   1
   7  10  -2 466.859 55.5074   1
   7  10  -1 380.869 50.5828   1
   7  10   0 79.1438 68.1502   1
  -7 -10   0 1.40818  9.0459   1
   7  10   1 180.003  41.018   1
  -7 -10  -1 180.049 11.1511   1
   7  10   2 361.663 41.7855   1
  -7 -10  -2 316.658 16.4374   1
  -7 -10  -2 314.943 40.0844   1
   7  10   3  592.21 46.4658   1
  -7 -10  -3 564.211 23.5971   1
  -7 -10  -3 718.208 75.4852   1
   7  10   4-27.8926  32.312   1
  -7 -10  -4 22.9409 30.5952   1
   7  10   5 787.292 45.7268   1
  -7 -10  -5 757.348 44.0092   1
   7  10   6 75.3363 31.7739   1
  -7 -10  -6 125.284 29.7537   1
   7  10   7 7122.86 306.554   1
  -7 -10  -7 7524.72 300.107   1
   7  10   8 49.1752 28.2355   1
  -7 -10  -8 62.9751 43.0158   1
   7  10   9 1729.45  64.985   1
  -7 -10  -9 1998.45 94.1626   1
   7  10  10 281.217 53.3921   1
  -7 -10 -10 367.225 27.5654   1
   7  10  11  505.27 33.9658   1
  -7 -10 -11  504.62 28.3834   1
   7  10  12 13.5219 40.9563   1
  -7 -10 -12-61.7719  33.772   1
   7  10  13 108.956 24.3287   1
  -7 -10 -13 157.492 34.7724   1
   7  10  14-2.93548 37.2105   1
  -7 -10 -14-21.8987 19.2815   1
   7  10  15 32.1363 23.0289   1
  -7 -10 -15-17.2684  32.199   1
   7  10  16 182.254 26.2971   1
  -7 -10 -16 278.092 21.8281   1
   7  10  17-5.26418 22.5689   1
  -7 -10 -17  38.898 18.2931   1
   7  10  18-0.35508 36.7523   1
  -7 -10 -18-25.1832 30.4135   1
   7  10  19 117.154 39.9369   1
  -7 -10 -19 79.7307 32.5019   1
   7  11  -8 56.9849 57.0125   1
   7  11  -8 -48.097 66.4094   1
   7  11  -7-7.15284 54.8429   1
   7  11  -7 87.7761 104.916   1
   7  11  -6 33.3695 51.4618   1
   7  11  -6-79.2834 59.3923   1
   7  11  -5  69.379 50.6377   1
   7  11  -5-171.416 98.7031   1
   7  11  -4 245.406 55.9208   1
   7  11  -4  305.29 61.4026   1
   7  11  -3 748.017  110.45   1
   7  11  -2 1513.31 89.2954   1
   7  11  -1 -16.913  43.501   1
   7  11   0 106.521 70.8399   1
  -7 -11   0 57.5411 6.02487   1
   7  11   1 702.172  55.486   1
  -7 -11  -1 693.325 24.2366   1
   7  11   2-59.4708 35.7374   1
  -7 -11  -2-3.50526 12.8554   1
   7  11   3 83.9138 59.4131   1
  -7 -11  -3 13.4462 26.9996   1
   7  11   4 23.3504 56.3648   1
  -7 -11  -4 55.6451 33.7458   1
  -7 -11  -4 11.4381   31.24   1
   7  11   5 3458.24 183.977   1
  -7 -11  -5 3042.23 97.9736   1
  -7 -11  -5 3192.20 118.042   1
   7  11   6 295.224  57.021   1
  -7 -11  -6 235.922 53.5249   1
   7  11   7 144.813 29.1756   1
  -7 -11  -7  97.783  45.419   1
   7  11   8 49.5066  26.004   1
  -7 -11  -8 63.6984 23.4722   1
   7  11   9 149.474 43.2218   1
  -7 -11  -9  102.03 23.8442   1
   7  11  10 1494.60 55.0407   1
  -7 -11 -10 1598.88  75.704   1
   7  11  11 1338.03 76.9245   1
  -7 -11 -11 1350.26 43.0817   1
   7  11  12 440.755  46.514   1
  -7 -11 -12 435.205 24.9885   1
   7  11  13 53.3377 20.6522   1
  -7 -11 -13 63.5253 29.9697   1
   7  11  14  19.785 20.4419   1
  -7 -11 -14 46.2554 17.2231   1
   7  11  15 76.1086 35.1325   1
  -7 -11 -15 46.0363 28.0672   1
   7  11  16-6.06006 19.7812   1
  -7 -11 -16 24.7276 15.7877   1
   7  11  17 117.412 35.2585   1
  -7 -11 -17 143.959 27.8609   1
   7  11  18  3.4381 31.0662   1
   7  12  -7 72.9734 60.8639   1
   7  12  -7  235.86 70.7207   1
   7  12  -6 2.41536 53.8245   1
   7  12  -6 110.023 103.754   1
   7  12  -5 498.502 66.6455   1
   7  12  -5 468.726  73.765   1
   7  12  -4 628.137 67.9607   1
   7  12  -3  36.313 77.9287   1
   7  12  -3 -14.768 52.6203   1
   7  12  -2 93.4709 46.0195   1
   7  12  -1 203.818  46.747   1
   7  12   0 1098.92 106.286   1
  -7 -12   0 907.896 19.0361   1
   7  12   1 1266.20 72.2481   1
  -7 -12  -1 1188.25 24.0396   1
   7  12   2 2384.43 151.816   1
  -7 -12  -2 2076.65 45.0207   1
   7  12   3 27.1108 34.4919   1
  -7 -12  -3 6.60481 26.4453   1
   7  12   4 19.1746 32.2221   1
  -7 -12  -4 42.0436 18.7517   1
   7  12   5 558.781 40.0571   1
  -7 -12  -5 523.757 49.8869   1
  -7 -12  -5 562.327 38.8794   1
   7  12   6  313.50 31.8536   1
  -7 -12  -6 296.345 29.6093   1
  -7 -12  -6 319.578 51.2987   1
   7  12   7 126.569  46.541   1
  -7 -12  -7 113.419 28.9184   1
  -7 -12  -7 122.629 25.5583   1
   7  12   8 51.2965 23.9735   1
  -7 -12  -8 53.5779 30.2599   1
  -7 -12  -8 -12.539 37.3016   1
   7  12   9 419.982 28.6493   1
  -7 -12  -9 381.407 40.9441   1
  -7 -12  -9 402.508 25.8254   1
   7  12  10 35.4014  36.945   1
  -7 -12 -10 44.9894 19.8028   1
   7  12  11 35.8321 35.0261   1
  -7 -12 -11 13.0105 30.6661   1
   7  12  12 254.349  23.312   1
  -7 -12 -12 267.398  20.511   1
   7  12  13 535.236 43.1247   1
  -7 -12 -13 527.853 36.6784   1
   7  12  14 29.4232 17.6647   1
  -7 -12 -14  53.311 25.5796   1
   7  12  15 5.24615 30.3562   1
  -7 -12 -15 58.9438  24.122   1
   7  12  16 114.601 18.1186   1
  -7 -12 -16 76.9647 14.6631   1
  -7 -12 -17 8.94971 55.9135   1
  -7 -12 -18 56.8108 58.5202   1
   7  13  -6 148.808 59.9314   1
   7  13  -6 109.194 69.5419   1
   7  13  -5 141.495 57.2741   1
   7  13  -5  210.54 109.413   1
   7  13  -4 250.534 58.7078   1
   7  13  -4 285.881 64.1145   1
   7  13  -3  178.03 87.2246   1
   7  13  -2-25.7769 44.8875   1
   7  13  -2-33.6793  48.097   1
   7  13  -1 12.2988   42.16   1
   7  13   1-7.46798 37.2027   1
  -7 -13  -1 16.1592 16.5258   1
   7  13   2 191.765 65.3005   1
  -7 -13  -2 225.445 23.6024   1
   7  13   3-16.6208 34.4383   1
  -7 -13  -3 75.5142  15.174   1
   7  13   4 1424.10 64.5101   1
  -7 -13  -4 1371.99  63.174   1
   7  13   5 1437.96 67.2218   1
  -7 -13  -5 1480.58 50.7421   1
   7  13   6 2686.13 98.2923   1
  -7 -13  -6 2784.98 92.0719   1
   7  13   7 105.218 26.9874   1
  -7 -13  -7 81.8017 46.5258   1
   7  13   8 88.8396  39.898   1
  -7 -13  -8 32.6697 29.8295   1
  -7 -13  -8 6.34001 21.2192   1
   7  13   9 61.9777 22.3313   1
  -7 -13  -9 77.3902 33.2179   1
  -7 -13  -9 24.0024 34.4024   1
   7  13  10 155.715 36.3094   1
  -7 -13 -10 135.304 65.5174   1
  -7 -13 -10 192.731 20.3253   1
   7  13  11 83.3501 19.9338   1
  -7 -13 -11 5.73722 67.2936   1
  -7 -13 -11 83.0181 17.6226   1
   7  13  12 382.195 37.7848   1
  -7 -13 -12 458.482 51.6426   1
  -7 -13 -12 407.294 32.5033   1
   7  13  13 52.5677 28.1684   1
  -7 -13 -13-18.1085 44.0551   1
  -7 -13 -13 31.5569 14.3353   1
   7  13  14 126.713 16.6021   1
  -7 -13 -14 153.977 49.4273   1
  -7 -13 -14 72.7896 22.7259   1
   7  13  15 56.6931  26.252   1
  -7 -13 -15 11.1722 50.7148   1
  -7 -13 -16 6.26155 52.3134   1
  -7 -13 -17 80.5951 98.1996   1
   7  14  -5 715.802 76.4432   1
   7  14  -5 503.745 86.5598   1
   7  14  -4-74.3277 96.0887   1
   7  14  -4-222.833 108.111   1
   7  14  -3 26.5568 52.9531   1
   7  14  -2 169.097 50.2621   1
   7  14  -1 363.803 52.0789   1
   7  14  -1 342.564 55.3243   1
   7  14   0 48.8417 43.8794   1
   7  14   1 412.096 46.6941   1
  -7 -14  -1 345.882 12.4944   1
   7  14   2 418.622 71.3944   1
  -7 -14  -2 367.138 16.9579   1
   7  14   3 23.6886 32.2757   1
  -7 -14  -3 5.86112 15.3411   1
   7  14   4  455.07 38.9597   1
  -7 -14  -4 400.864 22.5101   1
   7  14   5 60.3738  28.551   1
  -7 -14  -5 10.4046  20.774   1
   7  14   6 1.12044 25.2834   1
  -7 -14  -6 6.60284 22.8851   1
   7  14   7 54.2502 24.4736   1
  -7 -14  -7 109.647 44.2394   1
   7  14   8 262.956 26.6249   1
  -7 -14  -8 236.682 32.8339   1
   7  14   9 148.569 37.1369   1
  -7 -14  -9 121.536  33.327   1
   7  14  10 489.042 26.5689   1
  -7 -14 -10 615.177 75.3951   1
   7  14  11-13.6973 29.3603   1
  -7 -14 -11 51.4589 37.9305   1
  -7 -14 -11 14.7603 15.4406   1
   7  14  12 69.9327 28.3825   1
  -7 -14 -12 122.499 41.1275   1
  -7 -14 -12  29.333 23.7087   1
   7  14  13 65.9257 15.4823   1
  -7 -14 -13 64.8807 44.7471   1
  -7 -14 -13 66.3846  13.301   1
  -7 -14 -14 122.777 50.7741   1
  -7 -14 -15   81.61 53.2157   1
  -7 -14 -16 -21.073 53.5091   1
   7  15  -3 233.521 58.2961   1
   7  15  -3 271.927 64.9569   1
   7  15  -2 109.436  48.551   1
   7  15  -2 38.1337 52.7528   1
   7  15  -1 198.749 47.4336   1
   7  15  -1 71.2084 50.8078   1
   7  15   0 200.952 79.1431   1
   7  15   1 23.3664 38.1022   1
   7  15   1 25.5898 40.9956   1
   7  15   2 407.173 48.3267   1
  -7 -15  -2 461.088 19.0359   1
   7  15   3 338.978 40.8777   1
  -7 -15  -3 403.281 31.5264   1
   7  15   4-6.38325 30.1522   1
  -7 -15  -4-4.57025 18.0002   1
   7  15   5 19.0524 28.1374   1
  -7 -15  -5 3.26357 19.3549   1
   7  15   6 24.1556  25.229   1
  -7 -15  -6-4.58762 38.4693   1
   7  15   7 29.3979 23.9923   1
  -7 -15  -7 65.8776 25.7943   1
   7  15   8 31.7266 21.6759   1
  -7 -15  -8-43.3371 28.1232   1
   7  15   9  66.309 32.6968   1
  -7 -15  -9 -7.5764 31.0107   1
   7  15  10 6.02865 17.6225   1
  -7 -15 -10 16.5123 55.9101   1
   7  15  11 3.47274 27.3031   1
  -7 -15 -11-13.8286 36.1297   1
   7  15  12 79.3145 26.4856   1
  -7 -15 -12  139.11 41.7246   1
  -7 -15 -13 36.4831 44.1089   1
  -7 -15 -14 348.941 56.0742   1
  -7 -15 -15 12.0402 49.8253   1
   7  16  -1 64.0484 77.7437   1
   7  16  -1 154.049 84.9473   1
   7  16   0 28.3854 41.7885   1
   7  16   0-4.44645 44.5607   1
   7  16   1 217.965 42.6306   1
   7  16   1 165.867 45.5233   1
   7  16   2 53.7397 36.6099   1
   7  16   2 33.7082 64.2963   1
   7  16   3 73.4779 36.3307   1
  -7 -16  -3 93.2082 27.6115   1
   7  16   4 51.6381 30.5914   1
   7  16   4 29.3154 32.8131   1
  -7 -16  -4 34.5807 29.8796   1
   7  16   5 54.1755 28.7327   1
  -7 -16  -5 54.6882 34.1057   1
   7  16   6-17.7278 24.6623   1
  -7 -16  -6 22.0053 35.6149   1
   7  16   7 98.1647 24.7107   1
  -7 -16  -7 97.4655 25.6597   1
   7  16   8 42.4986 21.2462   1
  -7 -16  -8-25.0998 28.1032   1
   7  16   9 171.075  33.657   1
  -7 -16  -9 89.2272 33.5808   1
   7  16  10 144.688 18.2403   1
  -7 -16 -10 135.088 60.7683   1
  -7 -16 -11 52.9725 38.7741   1
  -7 -16 -12 150.121 44.3056   1
  -7 -16 -13 108.177 46.3573   1
   7  17   2 120.855 39.0058   1
   7  17   2 260.325 69.6203   1
   7  17   3 137.079 55.6371   1
   7  17   3 22.4786 35.6543   1
   7  17   4 23.3042 30.4573   1
   7  17   4-13.8383 32.1132   1
  -7 -17  -4 38.9927 29.9109   1
   7  17   5 223.855 32.9863   1
   7  17   5 266.789 55.5315   1
  -7 -17  -5 279.275 39.3258   1
   7  17   6-5.67507 24.6095   1
   7  17   6-7.97115 43.9026   1
  -7 -17  -6 42.7855  38.857   1
   7  17   7-9.26404 22.5975   1
   7  17   7 25.0951 23.6279   1
  -7 -17  -7-16.0487 25.9023   1
   7  17   8  31.887 21.4846   1
   7  17   8 29.1636 22.2902   1
  -7 -17  -8 65.2041 27.1825   1
   7  17   9 70.7683  32.658   1
   7  17   9 90.3049 20.1257   1
  -7 -17  -9 166.279 52.5022   1
  -7 -17 -10 17.1466  34.829   1
  -7 -17 -11 117.851 39.7142   1
  -8  11   2 11.0695 58.0174   1
  -8  11   1 21.6051 59.0575   1
  -8  11   0 47.8911 59.8374   1
  -8  11  -1 6.40964 93.2099   1
  -8  11  -1 30.3706 17.9471   1
   8 -11   2 81.8251 26.5474   1
  -8  11  -2 120.913 55.1759   1
  -8  11  -2  67.575 21.5959   1
  -8  10   5-72.2709 62.4214   1
  -8  10   4 23.0891 98.7329   1
  -8  10   3-84.1121 59.0386   1
  -8  10   2 94.9179 59.1989   1
  -8  10   1 27.3202 57.8391   1
  -8  10   1 42.9582 20.6741   1
   8 -10   0 28.9342 20.7845   1
  -8  10   0-65.5439 94.3269   1
  -8  10   0  55.033 16.4308   1
   8 -10   1-1.75741 23.3992   1
  -8  10  -1 86.1035 52.4962   1
  -8  10  -1 3.47241 30.4081   1
   8 -10   2-40.4624  27.205   1
  -8  10  -2-9.17282 86.9748   1
  -8  10  -2 34.3734 35.2374   1
   8 -10   3 161.922 33.3668   1
  -8  10  -3 271.292  51.815   1
  -8  10  -3 129.441 26.2662   1
   8 -10   4  10.688 33.4985   1
  -8  10  -4  42.848 46.5687   1
  -8  10  -4-19.1201 27.2719   1
   8 -10   5-35.3289 37.6178   1
  -8  10  -5  66.417 81.0352   1
  -8  10  -5-58.7271 52.5498   1
   8 -10   6 11.7612 42.2834   1
  -8  10  -6 79.5494 48.0381   1
  -8  10  -6 46.2846 35.5026   1
   8  -9  -7-95.3491 60.3832   1
  -8   9   7 88.4443  58.663   1
   8  -9  -6 9.26769 59.7381   1
  -8   9   6 73.0921 58.2035   1
  -8   9   5 -55.868 99.7457   1
  -8   9   4  99.922 59.0432   1
  -8   9   3 261.399 107.531   1
  -8   9   2 127.828 58.8727   1
  -8   9   2 138.731 13.0566   1
   8  -9  -1 48.9529 18.5642   1
  -8   9   1 2.82852 91.5155   1
  -8   9   1 53.1311 22.8472   1
   8  -9   0 26.5764 35.5218   1
  -8   9   0 30.5098 51.4152   1
  -8   9   0-2.04154 15.7212   1
   8  -9   1 189.511 46.3018   1
  -8   9  -1 348.585 89.6661   1
  -8   9  -1 181.538 34.5767   1
   8  -9   2 2.77649 28.8098   1
  -8   9  -2 20.5272 47.7359   1
  -8   9  -2 26.1891 35.7346   1
   8  -9   3 51.3598 32.7589   1
  -8   9  -3 67.4508 80.6573   1
  -8   9  -3 89.7572 24.3753   1
   8  -9   4 4.75513 35.0449   1
  -8   9  -4 31.0613 48.1621   1
  -8   9  -4 26.9671 28.2389   1
   8  -9   5 35.4128 40.0477   1
  -8   9  -5 129.424 48.4643   1
   8  -9   6 65.0672 44.0358   1
  -8   9  -6 87.3944 78.7092   1
  -8   9  -6  6.6176 35.1819   1
   8  -9   7  102.87 80.7797   1
  -8   9  -7 117.379 47.6552   1
  -8   9  -7  51.267 40.8791   1
   8  -9   8-21.6842 50.4431   1
  -8   9  -8 107.091 45.0058   1
  -8   9  -8 66.8117 73.1255   1
   8  -9   9 209.643 58.9236   1
  -8   9  -9 52.5725 81.7839   1
  -8   9  -9 251.181 51.6553   1
   8  -8  -9  137.49 96.3848   1
   8  -8  -8 45.7157 97.3431   1
  -8   8   8 93.9866 57.5201   1
   8  -8  -7 10.0178 56.5316   1
  -8   8   7-68.2881 91.2095   1
   8  -8  -6 15.1686 55.1465   1
  -8   8   6 67.4719 55.0256   1
  -8   8   5-32.2148 53.4432   1
  -8   8   4 100.964 53.7106   1
   8  -8  -3-16.1079 21.6118   1
  -8   8   3 38.8924 52.8212   1
  -8   8   3-0.09416 16.7543   1
   8  -8  -2 7.89649 27.1785   1
  -8   8   2-17.0336 89.9503   1
  -8   8   2 38.1675  20.127   1
   8  -8  -1 428.916 26.5807   1
  -8   8   1 675.171 67.6437   1
  -8   8   1  417.89 31.6172   1
   8  -8   0 586.846 53.2531   1
  -8   8   0 806.793 110.487   1
  -8   8   0 548.835  25.948   1
   8  -8   1 807.465 68.3878   1
  -8   8  -1 1120.06 77.8837   1
  -8   8  -1 772.422 33.4504   1
   8  -8   2 468.522 66.8186   1
  -8   8  -2 685.859  108.23   1
  -8   8  -2 461.922 48.3097   1
   8  -8   3 173.197 37.3642   1
  -8   8  -3 201.261 53.8093   1
  -8   8  -3 211.922 27.2521   1
   8  -8   4 36.6433 36.4546   1
  -8   8  -4 24.6706 78.7089   1
  -8   8  -4-33.4235 28.0838   1
   8  -8   5  -24.20 40.4929   1
  -8   8  -5-2.50542 45.8519   1
  -8   8  -5 -17.898  52.315   1
   8  -8   6 28.0707 74.7014   1
  -8   8  -6-22.3487 44.1065   1
  -8   8  -6 42.8134 34.7267   1
   8  -8   7 114.048 49.4492   1
  -8   8  -7 103.938  79.491   1
  -8   8  -7 161.272 69.3137   1
   8  -8   8-2.10395  50.914   1
  -8   8  -8 68.2947 44.6012   1
  -8   8  -8 137.887 71.8152   1
   8  -8   9 0.84111 53.6301   1
  -8   8  -9 2.78689 44.0546   1
  -8   8  -9 102.011 46.3642   1
   8  -8  10 75.7537  98.767   1
  -8   8 -10 28.1023 74.7706   1
  -8   8 -10 149.844 51.6263   1
  -8   8 -11 110.046  77.295   1
   8  -7 -10 118.727 53.7013   1
   8  -7  -9-12.1393 50.9424   1
   8  -7  -8 11.4176 88.2979   1
  -8   7   8  120.80 52.8157   1
   8  -7  -7 72.2569 55.2906   1
  -8   7   7 263.988 90.3694   1
   8  -7  -6 103.695 53.2694   1
  -8   7   6 35.3758 51.8973   1
   8  -7  -5 33.4284 53.1637   1
  -8   7   5 59.3051 51.0419   1
  -8   7   5 59.9474  12.632   1
   8  -7  -4  121.75 21.6115   1
  -8   7   4 319.285  91.909   1
   8  -7  -3 194.835 28.1689   1
  -8   7   3 280.021 56.3039   1
  -8   7   3 172.237 21.3908   1
   8  -7  -2 309.147 37.1718   1
  -8   7   2 501.562 60.9942   1
  -8   7   2 348.127 26.9181   1
   8  -7  -1 70.7313 36.8179   1
  -8   7   1 31.5048 85.1581   1
  -8   7   1 1.02887  24.542   1
   8  -7   0 462.633 33.8268   1
  -8   7   0 592.042  62.023   1
  -8   7   0 454.345 25.2851   1
   8  -7   1 784.322 45.3172   1
  -8   7  -1 1096.13 126.811   1
   8  -7   2 519.712 43.5451   1
  -8   7  -2 776.154 66.4482   1
  -8   7  -2 488.722 32.6048   1
   8  -7   3 494.357 77.6644   1
  -8   7  -3 766.474 64.6593   1
  -8   7  -3 472.728 35.5374   1
   8  -7   4 837.845 59.3319   1
  -8   7  -4 1118.91 75.4819   1
  -8   7  -4 794.597 48.5947   1
   8  -7   5 66.4581 40.8012   1
  -8   7  -5-53.0344 80.6818   1
  -8   7  -5 33.3363 55.5273   1
   8  -7   6 251.739 80.8268   1
  -8   7  -6 221.816 50.2061   1
  -8   7  -6 148.709 39.2373   1
   8  -7   7  193.16 51.3191   1
  -8   7  -7 76.0198 80.3717   1
  -8   7  -7 134.077 70.1167   1
   8  -7   8-16.8643 50.4399   1
  -8   7  -8-53.8617 44.8954   1
  -8   7  -8 17.5568 42.6862   1
  -8   7  -9 11.8749 45.2696   1
  -8   7  -9 45.1142 46.0361   1
   8  -7  10-18.0579 56.0458   1
  -8   7 -10 53.7139  75.182   1
  -8   7 -10 24.7093  48.514   1
   8  -7  11 12.9744 60.1613   1
  -8   7 -11  76.349 67.4487   1
  -8   7 -11-31.9271 52.6656   1
   8  -7  12 -63.751 106.433   1
  -8   7 -12  14.844 40.2106   1
  -8   7 -12 39.2692 96.8902   1
   8  -6 -11-36.9169 46.3135   1
   8  -6 -10 80.0503 47.8663   1
   8  -6  -9 41.5733  46.397   1
   8  -6  -8 71.5938 47.0747   1
  -8   6   8 73.4085 48.4578   1
   8  -6  -7-149.306 82.3274   1
  -8   6   7 72.9808 47.9596   1
   8  -6  -6 548.597 62.9042   1
  -8   6   6 332.574 103.582   1
   8  -6  -5 55.4003 49.1862   1
   8  -6  -5 0.33535 18.3975   1
  -8   6   5 50.2732 46.8143   1
  -8   6   5 25.4137 15.7238   1
   8  -6  -4 452.794  21.186   1
  -8   6   4 653.492 62.5467   1
   8  -6  -3 15.1739 17.4992   1
  -8   6   3 20.8433 81.3015   1
  -8   6   3 12.6753 12.7846   1
   8  -6  -2-7.28443 33.2384   1
  -8   6   2 15.1238 47.5319   1
  -8   6   2 19.9824 13.9781   1
   8  -6  -1 30.5015 23.0606   1
  -8   6   1 8.12311 44.9554   1
  -8   6   1-4.75822 15.4574   1
   8  -6   0 156.131 28.4521   1
  -8   6   0 88.4832  88.783   1
  -8   6   0 155.718 32.6635   1
   8  -6   1 81.6948 51.0719   1
  -8   6  -1 149.915 48.8883   1
  -8   6  -1 58.9766 21.5704   1
   8  -6   2-1.97639 31.3831   1
  -8   6  -2-20.8967 46.6528   1
  -8   6  -2 12.8322 23.3451   1
   8  -6   3 572.308 80.5627   1
  -8   6  -3 805.104 63.6141   1
  -8   6  -3 520.352 36.6921   1
   8  -6   4 381.839 48.5025   1
  -8   6  -4 539.799 57.4117   1
  -8   6  -4  395.59 62.7122   1
   8  -6   5-43.4103 42.0017   1
  -8   6  -5-33.0879 78.9216   1
  -8   6  -5 11.1518 32.6452   1
   8  -6   6-14.4737 76.2583   1
  -8   6  -6 77.4688 47.6271   1
  -8   6  -6 38.9006 36.8894   1
   8  -6   7 733.603 69.0666   1
  -8   6  -7 795.057 70.4585   1
  -8   6  -7 741.691 58.0554   1
   8  -6   8  529.94 104.039   1
  -8   6  -8 299.269 88.4515   1
   8  -6   9 769.428 80.1779   1
  -8   6  -9 805.292 64.2241   1
  -8   6  -9 717.835  69.821   1
   8  -6  10 64.9226 59.2182   1
  -8   6 -10 115.381  42.419   1
  -8   6 -10 78.7045 51.0773   1
   8  -6  11-152.476 105.028   1
  -8   6 -11-54.4416 70.7111   1
   8  -6  12 163.003 65.4523   1
  -8   6 -12 91.8696 74.3437   1
   8  -6  13 14.5711 67.4961   1
  -8   6 -13-61.4699 42.0411   1
  -8   6 -13 -9.0634 105.156   1
   8  -5 -11-53.7817 42.9584   1
   8  -5 -10 16.3711 41.1578   1
   8  -5  -9 16.8928 41.9105   1
   8  -5  -8  6.1803 42.3485   1
  -8   5   8-29.2377 43.6293   1
   8  -5  -7 555.207 96.7995   1
   8  -5  -7 497.667 26.9392   1
  -8   5   7 565.791 59.4197   1
   8  -5  -6 393.058 55.5573   1
   8  -5  -6 290.649  27.122   1
  -8   5   6 442.976 87.8543   1
   8  -5  -5 1358.80 95.2688   1
  -8   5   5 1559.90 90.0603   1
   8  -5  -4 439.997 36.5436   1
  -8   5   4 465.242 58.9978   1
   8  -5  -3 231.349 21.2371   1
  -8   5   3 379.743 51.1671   1
  -8   5   3 239.407 16.3289   1
   8  -5  -2-17.2933 35.1817   1
  -8   5   2 101.368 73.4995   1
  -8   5   2 20.3801 15.1405   1
   8  -5  -1 313.918  28.966   1
  -8   5   1 456.779  51.877   1
   8  -5   0 -45.828 47.4793   1
  -8   5   0 29.6434 46.3109   1
  -8   5   0 18.2896 19.2752   1
   8  -5   1-30.1523 31.6237   1
  -8   5  -1-19.8546 47.5918   1
  -8   5  -1-56.9969 37.8839   1
   8  -5   2 733.565 86.2202   1
  -8   5  -2 887.528 113.505   1
  -8   5  -2 637.093 59.8954   1
   8  -5   3  372.47 46.1047   1
  -8   5  -3 328.917 56.0896   1
  -8   5  -3 273.449 54.7128   1
   8  -5   4 335.537 80.5626   1
  -8   5  -4 387.274 97.9111   1
  -8   5  -4 283.196 60.0342   1
   8  -5   5 931.875 68.7967   1
  -8   5  -5 1173.07  78.738   1
  -8   5  -5 891.844 55.3073   1
   8  -5   6-91.1663 78.7233   1
  -8   5  -6  150.33 76.3834   1
  -8   5  -6 9.72048 36.8012   1
   8  -5   7 45.7263  47.479   1
  -8   5  -7 -19.847 42.6026   1
  -8   5  -7-33.9869 39.0985   1
   8  -5   8 231.349 95.4675   1
  -8   5  -8 244.616 80.1813   1
  -8   5  -8 186.213 83.2764   1
   8  -5   9 111.652 55.7183   1
  -8   5  -9 117.448 45.8051   1
  -8   5  -9 101.922 49.7075   1
   8  -5  10 173.945 95.8724   1
  -8   5 -10 0.49765 43.6343   1
  -8   5 -10 57.7977  49.412   1
   8  -5  11 17.4476 58.5939   1
  -8   5 -11 4.89337 51.6776   1
   8  -5  12 67.8791 65.2661   1
   8  -5  13 380.513 77.9963   1
   8  -5  14   93.77 71.7326   1
  -8   5 -14 75.0485 113.139   1
   8  -4 -12 154.189 67.8898   1
   8  -4 -11 240.321  43.408   1
   8  -4 -10 33.3447   38.57   1
   8  -4  -9 193.223 41.6168   1
   8  -4  -9 152.375 13.4036   1
   8  -4  -9  137.19  23.083   1
   8  -4  -8 50.8188 41.2569   1
   8  -4  -8 80.9967 22.2103   1
  -8   4   8 98.8208 42.2624   1
   8  -4  -7 23.3756 40.1326   1
   8  -4  -7-2.00719 14.5935   1
  -8   4   7-41.6293 41.8722   1
   8  -4  -6 561.975  94.939   1
   8  -4  -6 539.118 36.1859   1
  -8   4   6 461.111 91.1504   1
   8  -4  -5 136.421 49.0511   1
   8  -4  -5 143.747 32.4535   1
  -8   4   5 251.735 78.8951   1
  -8   4   5 134.041 25.6202   1
   8  -4  -4 1538.95  48.257   1
  -8   4   4 1721.26 91.2799   1
   8  -4  -3 149.836 22.1354   1
  -8   4   3 176.808 45.5561   1
  -8   4   3 80.5715 27.8769   1
   8  -4  -2 218.034 43.6469   1
  -8   4   2 223.638 45.4857   1
  -8   4   2 163.872   18.81   1
   8  -4  -1 17.7424 44.8262   1
  -8   4   1 55.0417 45.0428   1
  -8   4   1 68.9414 19.1142   1
   8  -4   0 199.642 31.0297   1
  -8   4   0  155.45 37.6577   1
   8  -4   1 97.8039 56.2509   1
  -8   4  -1 205.671 47.1127   1
  -8   4  -1  25.946 24.7033   1
   8  -4   2 717.301 50.7055   1
  -8   4  -2 864.665 69.4823   1
  -8   4  -2 710.301 39.9837   1
   8  -4   3 185.765 43.8923   1
  -8   4  -3 299.787 55.2885   1
  -8   4  -3 227.897 33.1801   1
   8  -4   4 241.985 81.4709   1
  -8   4  -4  298.27 55.1842   1
  -8   4  -4 215.689 35.6064   1
   8  -4   5 182.223 49.0332   1
  -8   4  -5 174.666 47.8108   1
  -8   4  -5 149.437 38.4072   1
   8  -4   6 185.083 87.1578   1
  -8   4  -6  229.26 81.6468   1
  -8   4  -6 71.2711 69.8119   1
   8  -4   7-3.21046 49.2298   1
  -8   4  -7-14.3706 44.4386   1
  -8   4  -7 28.7043 40.7403   1
   8  -4   8-39.5619 52.6449   1
  -8   4  -8-29.4687 76.7095   1
   8  -4   9 97.7553 54.6747   1
  -8   4  -9 5.91796 47.0226   1
   8  -4  10 91.7032 56.9947   1
  -8   4 -10  78.947 51.0151   1
   8  -4  11 30.6077 56.8867   1
  -8   4 -11-18.8393  52.691   1
  -8   4 -12-15.5079 55.2299   1
   8  -4  13-38.2032  65.111   1
   8  -4  15 2.65984 71.0141   1
   8  -3 -12 10.6326 56.8094   1
   8  -3 -11 29.9332 57.4629   1
   8  -3 -10-10.3472 34.2468   1
   8  -3 -10 31.7355 24.0553   1
   8  -3 -10-10.6972 26.6223   1
   8  -3  -9 51.0962 36.0386   1
   8  -3  -9 47.3227 25.2926   1
   8  -3  -9 59.7048 17.0994   1
   8  -3  -8 177.598 41.0549   1
   8  -3  -8 237.089 18.0193   1
  -8   3   8 243.671 41.2807   1
   8  -3  -7 1985.34 102.786   1
   8  -3  -7 2287.24 60.8808   1
  -8   3   7 2131.88 166.389   1
   8  -3  -6 157.469 70.1671   1
   8  -3  -6 74.6774 30.5095   1
  -8   3   6  29.705 67.5063   1
   8  -3  -5 6211.16 323.073   1
   8  -3  -5 6465.17 273.386   1
  -8   3   5 6375.66 424.769   1
  -8   3   5 5578.38 236.396   1
   8  -3  -4 3280.36 101.387   1
  -8   3   4 3310.69 234.894   1
   8  -3  -3 431.391 29.3852   1
  -8   3   3 464.956  50.688   1
  -8   3   3 381.028 23.0237   1
   8  -3  -2 130.835  46.099   1
  -8   3   2 185.304 41.6082   1
  -8   3   2 154.227 34.0908   1
   8  -3  -1 266.231 53.4862   1
  -8   3   1 243.061 46.9556   1
  -8   3   1 241.935 38.1026   1
   8  -3   0 73.4752 53.3099   1
  -8   3   0 123.528 44.8246   1
  -8   3   0 129.267 22.2666   1
   8  -3   1 219.447 35.4169   1
  -8   3  -1 257.563 48.1619   1
  -8   3  -1 181.994 45.8647   1
   8  -3   2 173.908 37.0323   1
  -8   3  -2 193.596 86.0596   1
  -8   3  -2 97.4472 48.8631   1
   8  -3   3 110.295 69.0768   1
  -8   3  -3 223.254 86.9143   1
  -8   3  -3 121.015 32.0602   1
   8  -3   4 1060.39 72.3521   1
  -8   3  -4 1400.58 78.8989   1
  -8   3  -4 1168.70 94.1757   1
   8  -3   5 1661.97 97.8985   1
  -8   3  -5 1849.47 98.9679   1
  -8   3  -5 1442.85 126.285   1
   8  -3   6 1612.63  166.51   1
  -8   3  -6 1589.01 96.2216   1
  -8   3  -6 1420.26 81.7401   1
   8  -3   7 47.0348 53.5429   1
  -8   3  -7-11.7288 43.2491   1
   8  -3   8 1996.49 122.044   1
  -8   3  -8 1851.78 104.804   1
   8  -3   9 138.668 99.9475   1
  -8   3  -9 141.775 85.8853   1
   8  -3  10 408.254 70.3736   1
  -8   3 -10 511.279 64.3914   1
   8  -3  11  184.54 100.226   1
  -8   3 -11  0.0596 53.4619   1
   8  -3  12 116.992 63.3891   1
  -8   3 -12 190.387 59.3546   1
  -8   3 -13  36.769 57.3315   1
   8  -3  14 212.489 72.6674   1
   8  -3  16 60.5785 71.0119   1
  -8   3 -16-80.0254 66.1537   1
   8  -2 -12 49.2355 31.2844   1
   8  -2 -12-12.2233  17.171   1
   8  -2 -12 15.2468 21.3855   1
   8  -2 -11 61.5599 30.4067   1
   8  -2 -11-30.4004 27.5337   1
   8  -2 -11 20.4477  20.601   1
   8  -2 -10  39.434 30.6639   1
   8  -2 -10 46.5757 27.9413   1
   8  -2 -10-17.7007 19.8529   1
   8  -2  -9  35.262 32.0301   1
   8  -2  -9  45.801 18.0186   1
   8  -2  -8 319.558 38.3393   1
   8  -2  -8 320.148 36.3999   1
   8  -2  -7 13.7833 56.6975   1
   8  -2  -7-6.38011 19.1046   1
  -8   2   7 -57.977  58.007   1
   8  -2  -6 118.515 39.8302   1
   8  -2  -6 195.658 36.0113   1
  -8   2   6 148.272 63.9715   1
   8  -2  -5 1088.60 69.7522   1
   8  -2  -5 1234.55 67.4918   1
  -8   2   5 1277.46 109.689   1
  -8   2   5 1116.36 37.8987   1
   8  -2  -4 2267.01 68.5812   1
  -8   2   4 2200.94 155.989   1
  -8   2   4 1860.90 85.4053   1
   8  -2  -3 2897.28 89.1599   1
  -8   2   3 2659.15 182.873   1
  -8   2   3 2541.94 110.165   1
   8  -2  -2 865.605 41.0441   1
  -8   2   2 883.568 97.3105   1
  -8   2   2 694.359 33.2427   1
   8  -2  -1 1478.62 59.0218   1
  -8   2   1 1704.21 128.146   1
  -8   2   1 1350.48 73.7811   1
   8  -2   0 31.0924 52.2037   1
  -8   2   0 83.7224 69.7958   1
  -8   2   0 58.5643 23.7047   1
   8  -2   1 15.0776 55.5692   1
  -8   2  -1 68.7567 70.2025   1
  -8   2  -1-16.6333 42.6693   1
   8  -2   2  400.64 78.7869   1
  -8   2  -2 647.402 55.6688   1
  -8   2  -2 439.536 36.8639   1
   8  -2   3 1935.25 96.4438   1
  -8   2  -3 2433.23 106.449   1
  -8   2  -3 1916.18 79.0574   1
   8  -2   4-12.2272 40.1655   1
  -8   2  -4-55.9343 43.8724   1
  -8   2  -4 24.4646 32.4551   1
   8  -2   5 101.643 45.8309   1
  -8   2  -5 138.884 36.6558   1
   8  -2   6 1755.59  168.23   1
  -8   2  -6 1548.19 84.3393   1
   8  -2   7 30.7441 53.4866   1
  -8   2  -7  85.642 44.0135   1
   8  -2   8 1539.72 107.748   1
  -8   2  -8 1367.02 91.0865   1
   8  -2   9 300.593 114.921   1
  -8   2  -9 316.257 57.4707   1
   8  -2  10-7.12837 55.8527   1
  -8   2 -10-67.2481 86.2816   1
   8  -2  11  694.47 80.0127   1
  -8   2 -11  597.86 71.3977   1
   8  -2  12-8.79925  60.229   1
  -8   2 -12-54.1099 54.4682   1
   8  -2  13-47.9863  60.369   1
  -8   2 -13 94.6643 57.3239   1
  -8   2 -14 326.771 68.8414   1
   8  -2  15-18.2182 65.1473   1
  -8   2 -15 0.22273 61.0979   1
  -8   2 -16 124.375 67.9019   1
   8  -2  17 80.9081 72.3242   1
  -8   2 -17 114.117 68.3079   1
   8  -1 -12 236.503 31.7783   1
   8  -1 -12 314.586 26.0624   1
   8  -1 -12 253.975 48.1302   1
   8  -1 -11 17.6953  26.855   1
   8  -1 -11 66.1991 20.6655   1
   8  -1 -11-17.3514 40.4883   1
   8  -1 -10 60.5571 27.7935   1
   8  -1 -10   76.54 20.5833   1
   8  -1 -10   40.38 40.1033   1
   8  -1  -9 285.289 32.6246   1
   8  -1  -8 116.841 30.0716   1
   8  -1  -8 90.2115 21.4066   1
   8  -1  -7 17.9806 51.6915   1
   8  -1  -7-17.8117 35.0229   1
  -8   1   7 16.0483 29.5816   1
   8  -1  -6 71.1392 33.9409   1
   8  -1  -6 127.045 23.5855   1
  -8   1   6 108.646 56.3733   1
   8  -1  -5 4117.93 173.741   1
   8  -1  -5 4478.61 200.025   1
  -8   1   5 4158.62 238.267   1
  -8   1   5 3862.13 126.409   1
   8  -1  -4 51.5427 43.9553   1
  -8   1   4 62.7208 59.1097   1
  -8   1   4 46.1018 21.4104   1
   8  -1  -3 995.507 41.9304   1
  -8   1   3 874.559 52.6072   1
  -8   1   3  856.96 37.1793   1
   8  -1  -2 2614.38   87.88   1
  -8   1   2 2512.11 106.129   1
  -8   1   2 2250.42 112.064   1
   8  -1  -1 1837.65 66.6027   1
  -8   1   1 1909.77 81.9871   1
  -8   1   1 1637.54  58.426   1
   8  -1   0 114.123 31.1315   1
  -8   1   0 97.5288  37.627   1
  -8   1   0 84.4299 42.7246   1
   8  -1   1 4712.45 191.234   1
  -8   1  -1 5448.47 216.493   1
  -8   1  -1 4081.80 156.105   1
   8  -1   2 5488.96 230.851   1
  -8   1  -2 5677.41 238.743   1
  -8   1  -2 4676.30 190.501   1
   8  -1   3 3252.87 151.699   1
  -8   1  -3 3832.04 161.348   1
  -8   1  -3 3051.39 188.984   1
   8  -1   4 743.902 59.8618   1
  -8   1  -4 737.379 82.9227   1
   8  -1   5 6.76351  77.671   1
  -8   1  -5 85.6634 64.5621   1
   8  -1   6 814.777 113.014   1
  -8   1  -6 761.161 56.3088   1
   8  -1   7 227.316 54.2319   1
  -8   1  -7 216.813 46.4181   1
   8  -1   8 28.3822 54.2948   1
  -8   1  -8 19.1444 78.5799   1
   8  -1   9 1839.15 124.529   1
  -8   1  -9 1629.77 107.177   1
   8  -1  10 222.332 108.258   1
  -8   1 -10 144.344 53.9846   1
   8  -1  11 34.7011 56.8866   1
  -8   1 -11 0.86946 88.4701   1
   8  -1  12 614.128 76.4502   1
  -8   1 -12 448.724 69.0163   1
   8  -1  13-51.5536 60.6894   1
  -8   1 -13 80.2303 55.2768   1
   8  -1  14 25.4137 61.8604   1
  -8   1 -14 129.075 58.6517   1
  -8   1 -15-28.7062  58.494   1
   8  -1  16 294.243 73.1506   1
  -8   1 -16 127.047 67.9276   1
  -8   1 -17 150.464 68.1828   1
   8   0 -13 50.4246 22.4646   1
   8   0 -13 22.3505 29.4582   1
   8   0 -12 100.448 24.1105   1
   8   0 -12 173.333 26.1696   1
   8   0 -12 109.112 30.6418   1
   8   0 -11 286.587 27.2288   1
   8   0 -11 292.247 28.0348   1
   8   0 -11 338.243 52.1603   1
   8   0 -10 10.7698 22.2669   1
   8   0 -10  34.546 22.4794   1
   8   0 -10-20.3681 43.8864   1
   8   0  -9 78.2294 41.6427   1
   8   0  -9 68.3829 40.1476   1
   8   0  -8 788.967 64.9745   1
   8   0  -8 736.244 59.8489   1
   8   0  -7-12.8431 27.3962   1
   8   0  -7  56.373 24.4834   1
  -8   0   7 93.3926  26.299   1
   8   0  -6 735.148 44.6258   1
   8   0  -6 794.647 61.7789   1
  -8   0   6 802.139 42.9225   1
   8   0  -5 5107.66 185.915   1
  -8   0   5 4801.05 185.102   1
  -8   0   5 4587.86 227.455   1
   8   0  -4 2868.94 97.6085   1
  -8   0   4 2724.44 149.708   1
  -8   0   4 2575.74 85.3915   1
   8   0  -3 -18.747 46.2089   1
  -8   0   3 8.45287 28.4902   1
  -8   0   3-40.7203 23.5071   1
   8   0  -2  90.177 49.6972   1
  -8   0   2 60.8949 32.3113   1
  -8   0   2 76.0485 43.5575   1
   8   0  -1 1110.78 80.7354   1
  -8   0   1 1097.82 55.0993   1
  -8   0   1 957.627 43.5583   1
   8   0   0 1185.00 89.7961   1
  -8   0   0 1205.32  96.178   1
  -8   0   0 1059.38 75.1911   1
   8   0   1 1238.80 92.4494   1
  -8   0  -1 1243.87 100.134   1
  -8   0  -1 1151.86 51.8046   1
   8   0   2 450.875 74.4406   1
  -8   0  -2 492.984 45.8278   1
  -8   0  -2 379.235 35.4421   1
   8   0   3 2850.90 185.347   1
  -8   0  -3 2550.76 155.695   1
   8   0   4 94.4303 74.7638   1
  -8   0  -4 82.6207 35.3351   1
   8   0   5 7623.93 541.128   1
  -8   0  -5 7067.94 335.597   1
   8   0   6  54.888 48.4215   1
  -8   0  -6 112.156 68.0465   1
   8   0   7 1410.48 90.1099   1
  -8   0  -7 1269.52 74.5422   1
   8   0   8 186.532 54.6316   1
  -8   0  -8 179.242 47.4428   1
   8   0   9  946.38 87.7681   1
  -8   0  -9  878.42 73.8562   1
   8   0  10-98.1218 113.724   1
  -8   0 -10 -140.72 55.5188   1
   8   0  11 104.473 63.8742   1
  -8   0 -11 148.543 54.2285   1
   8   0  12 627.981 78.0558   1
  -8   0 -12 674.722 70.9424   1
   8   0  13 114.124 61.4759   1
  -8   0 -13 154.589 93.1549   1
   8   0  14 139.331 60.7278   1
  -8   0 -14 82.5219  97.453   1
   8   0  15 48.0187 59.6368   1
  -8   0 -15-18.9132 55.7965   1
  -8   0 -16 379.225 70.2447   1
   8   0  17 32.0447 63.7152   1
  -8   0 -17 10.3077 59.6351   1
   8   0  18 48.2058 67.0757   1
  -8   0 -18 101.702 106.881   1
   8   1 -12 45.0243  33.075   1
   8   1 -12 49.9423 27.5737   1
   8   1 -12-9.88566  32.693   1
   8   1 -11 110.237 33.5412   1
   8   1 -11 88.6203 27.4529   1
   8   1 -11 47.5013 30.8974   1
   8   1 -10 12.7514 33.7391   1
   8   1 -10-13.8162 25.8628   1
   8   1 -10 91.0975 49.9035   1
   8   1  -9 184.427 39.3463   1
   8   1  -9 278.928 49.4482   1
   8   1  -8-13.0916 21.9241   1
   8   1  -8 30.6962 26.3811   1
   8   1  -7 39.5111 22.8058   1
   8   1  -7 28.0238 26.4063   1
   8   1  -6 914.236 73.2244   1
  -8  -1   6 850.558   62.45   1
   8   1  -5 387.592 37.4994   1
  -8  -1   5 371.613 31.9138   1
  -8  -1   5 386.804 34.1295   1
   8   1  -4 4391.48 221.677   1
  -8  -1   4 4335.80 204.382   1
  -8  -1   4 4121.01 147.426   1
   8   1  -3 21.6688 27.8674   1
  -8  -1   3 16.1011 25.1272   1
  -8  -1   3 9.25718 44.6479   1
   8   1  -2 1993.36 74.2054   1
  -8  -1   2 1811.36 69.0415   1
  -8  -1   2 1795.43 66.9423   1
   8   1  -1 182.506 33.1078   1
  -8  -1   1 197.913 54.2815   1
  -8  -1   1 121.522 29.9016   1
   8   1   0  535.66 40.8583   1
  -8  -1   0 581.022 41.6317   1
  -8  -1   0 494.691  36.345   1
   8   1   1 2159.28 82.2423   1
  -8  -1  -1 2043.09 79.6417   1
  -8  -1  -1 1977.25 72.8886   1
   8   1   2 1554.34 68.6941   1
  -8  -1  -2 1444.07 100.743   1
   8   1   3 132.344 38.7513   1
  -8  -1  -3 178.484 33.3575   1
   8   1   4 672.932 54.2115   1
  -8  -1  -4 607.559 47.3384   1
   8   1   5 1241.03 75.6216   1
  -8  -1  -5 1209.25 64.7093   1
   8   1   6 4200.98 200.622   1
  -8  -1  -6 4197.21 181.862   1
   8   1   7-15.9674 48.3563   1
  -8  -1  -7 23.4329 68.2919   1
   8   1   8 417.921 60.4974   1
  -8  -1  -8 341.494 51.1842   1
   8   1   9 3438.70  181.86   1
  -8  -1  -9 3366.84 167.377   1
   8   1  10 5142.85 300.037   1
  -8  -1 -10 4817.94 256.412   1
   8   1  11 3990.05 372.486   1
  -8  -1 -11 3713.23 320.612   1
   8   1  12 172.242 99.2101   1
  -8  -1 -12-56.4856 50.2571   1
   8   1  13-44.2051 57.3743   1
  -8  -1 -13-98.8813 51.0876   1
   8   1  14 114.687 59.3184   1
  -8  -1 -14 189.972 54.1483   1
  -8  -1 -15 6.67629 50.8864   1
   8   1  16-19.1579  56.748   1
   8   1  17-64.1357 61.3592   1
   8   2 -12-67.5092 53.1696   1
   8   2 -12-6.52924 37.5173   1
   8   2 -11 36.9401 17.2801   1
   8   2 -11 57.1024 51.8083   1
   8   2 -11   89.51 34.9971   1
   8   2 -10 105.966 17.8476   1
   8   2 -10 121.415  51.063   1
   8   2 -10 33.8313 59.3886   1
   8   2  -9 71.1115 50.3754   1
   8   2  -8 75.8376 30.2963   1
   8   2  -7 127.228 30.9711   1
   8   2  -6  683.45 72.0295   1
  -8  -2   6 667.334 29.9383   1
   8   2  -5 4607.42 192.417   1
  -8  -2   5 4578.81 197.982   1
   8   2  -4 413.395 69.2412   1
  -8  -2   4 447.741 28.7398   1
  -8  -2   4 443.331 63.7177   1
   8   2  -3 608.692 43.1861   1
  -8  -2   3 616.576 49.5409   1
  -8  -2   3 610.625  39.709   1
   8   2  -2 477.874 39.7385   1
  -8  -2   2  486.23 52.3685   1
  -8  -2   2 515.958 37.3086   1
   8   2  -1 2372.09 88.8474   1
  -8  -2   1 2211.62 73.3456   1
  -8  -2   1 2201.63  127.73   1
   8   2   0 5336.40 205.048   1
  -8  -2   0 5365.69 264.996   1
  -8  -2   0 5089.84 188.611   1
   8   2   1 410.948   39.50   1
  -8  -2  -1 383.855 34.7558   1
  -8  -2  -1 411.851 35.8838   1
   8   2   2 13.5328  33.579   1
  -8  -2  -2-11.6007 51.2145   1
   8   2   3 2977.79 114.758   1
  -8  -2  -3 2737.09 105.035   1
   8   2   4 4818.54 205.182   1
  -8  -2  -4 4485.64 185.792   1
   8   2   5 2571.28  118.46   1
  -8  -2  -5 2423.69 103.773   1
   8   2   6 150.434 45.7534   1
  -8  -2  -6 69.5947 38.2298   1
   8   2   7 138.097 47.6706   1
  -8  -2  -7 51.1652 41.2853   1
   8   2   8 43.5573 47.7784   1
  -8  -2  -8-67.1139 71.6053   1
   8   2   9 311.914 56.1102   1
  -8  -2  -9  236.68 47.7851   1
   8   2  10 603.929 65.6366   1
  -8  -2 -10 441.053 99.6715   1
   8   2  11 2219.08 138.483   1
  -8  -2 -11 2051.14 119.981   1
   8   2  12 1168.11 93.2775   1
  -8  -2 -12 978.069 78.6919   1
   8   2  13 137.416 104.629   1
  -8  -2 -13 254.583 90.1178   1
   8   2  14 1021.32 87.9326   1
  -8  -2 -14 1037.76 80.6741   1
   8   2  15  -85.85 54.1799   1
  -8  -2 -15 104.709 48.3858   1
   8   2  16 229.802 60.1373   1
  -8  -2 -16 247.427 55.7049   1
   8   2  17 43.8253 53.4957   1
  -8  -2 -17-25.1952  51.445   1
   8   2  18-45.4851 57.8501   1
  -8  -2 -18 15.5336  52.427   1
  -8  -2 -19 78.9303 55.4778   1
   8   3 -12 86.3061 37.3821   1
   8   3 -12 113.934 44.1234   1
   8   3 -11-25.5324 34.7786   1
   8   3 -11-161.465 68.4977   1
   8   3 -10 206.017 38.0544   1
   8   3 -10 197.498 70.1124   1
   8   3  -9-32.6474 33.2539   1
   8   3  -9 55.7414 37.6282   1
   8   3  -8 143.403  34.883   1
   8   3  -7 109.328 57.8208   1
   8   3  -6 20.4924  32.331   1
   8   3  -5 349.438 42.3311   1
  -8  -3   5 340.845 35.3002   1
   8   3  -4 3360.80 204.509   1
  -8  -3   4 3330.70  122.35   1
  -8  -3   4 3232.69 127.675   1
   8   3  -3 1477.35 67.7216   1
  -8  -3   3 1471.06  63.398   1
  -8  -3   3 1434.13 63.3176   1
   8   3  -2 110.739 34.9148   1
  -8  -3   2   66.25 35.3786   1
  -8  -3   2 162.815 54.9919   1
   8   3  -1 306.227 62.2572   1
  -8  -3   1 265.007 24.4966   1
  -8  -3   1 237.948 60.0043   1
   8   3   0 456.653 68.9367   1
  -8  -3   0 428.653 27.8619   1
  -8  -3   0 405.525 38.2563   1
   8   3   1 263.853 63.2122   1
  -8  -3  -1  253.08 34.5312   1
   8   3   2 326.002 66.7852   1
  -8  -3  -2  288.88 60.7796   1
   8   3   3 65.9206 61.5804   1
  -8  -3  -3 48.9296 32.7797   1
   8   3   411163.80 570.723   1
  -8  -3  -410526.90 535.852   1
   8   3   5 15.6761 39.2658   1
  -8  -3  -5 56.3547 34.6431   1
   8   3   6 5319.79 240.982   1
  -8  -3  -6 4991.89 217.931   1
   8   3   7 4479.38 205.957   1
  -8  -3  -7 4219.01  184.41   1
   8   3   8 64.5544 46.3588   1
  -8  -3  -8 105.451 68.1486   1
   8   3   9 29.6982 47.1466   1
  -8  -3  -9-2.52787 39.9402   1
   8   3  10-21.5081 46.7759   1
  -8  -3 -10 18.7517 39.5766   1
   8   3  11 256.624 55.1426   1
  -8  -3 -11 197.741 46.8701   1
   8   3  12 45.3037 52.9506   1
  -8  -3 -12 82.2729  77.317   1
   8   3  13  6.3299 51.7712   1
  -8  -3 -13-35.7079 43.9953   1
   8   3  14 241.653 56.8309   1
  -8  -3 -14 222.727 49.2362   1
   8   3  15 206.734 91.4421   1
  -8  -3 -15 123.274 48.4862   1
   8   3  16 7.86113 51.7556   1
  -8  -3 -16 111.886 79.4354   1
   8   3  17 220.353 56.8409   1
   8   3  19 87.7829 55.4679   1
   8   4 -12 86.7155 67.6806   1
   8   4 -12 61.2173 48.3098   1
   8   4 -10 45.5102 64.1092   1
   8   4 -10 19.8806 43.6647   1
   8   4  -9 163.738 67.2367   1
   8   4  -9 202.428 46.4179   1
   8   4  -8 158.825 38.8295   1
   8   4  -7 81.1862 36.9145   1
   8   4  -6 143.863 38.9157   1
   8   4  -5 764.445 94.0347   1
   8   4  -4 55.1785 38.9668   1
  -8  -4   4 90.5768 24.2961   1
   8   4  -3 319.645 69.2396   1
  -8  -4   3 219.492 17.0056   1
  -8  -4   3 277.722 65.1138   1
   8   4  -2 97.0026 35.4632   1
  -8  -4   2 35.1409  15.908   1
  -8  -4   2 48.2931  33.893   1
   8   4  -1 1691.06 73.4527   1
  -8  -4   1 1449.47 64.7174   1
  -8  -4   1 1543.64 68.3951   1
   8   4   0 717.285 78.5393   1
  -8  -4   0  575.12 45.5536   1
  -8  -4   0 730.235 45.3557   1
   8   4   1-13.0576 57.6284   1
  -8  -4  -1 56.1042 31.9882   1
   8   4   2 61.5178 59.8641   1
  -8  -4  -2 29.7803 55.3155   1
   8   4   3 232.496 65.1384   1
  -8  -4  -3 233.713 60.3896   1
   8   4   4 3410.57 201.068   1
  -8  -4  -4 3215.18 122.504   1
   8   4   5 101.109 37.2611   1
  -8  -4  -5 85.8718 34.2221   1
   8   4   6  471.24 48.2715   1
  -8  -4  -6 413.228 42.4688   1
   8   4   7 969.025  65.626   1
  -8  -4  -7 991.865 59.0056   1
   8   4   8 5097.57 240.304   1
  -8  -4  -8 5100.79 314.719   1
   8   4   9 154.578 84.8253   1
  -8  -4  -9 207.816 41.3086   1
   8   4  10 873.715 121.327   1
  -8  -4 -10 946.616 62.2258   1
   8   4  11 50.2641 80.4469   1
  -8  -4 -11 50.9099 70.2568   1
   8   4  12 98.7635 87.6468   1
  -8  -4 -12  208.85 43.5547   1
   8   4  13 130.757 50.3018   1
  -8  -4 -13 126.324 41.6507   1
   8   4  14 798.347 72.2854   1
  -8  -4 -14 722.472 102.206   1
   8   4  15  372.88 56.1081   1
  -8  -4 -15 422.196 51.4233   1
   8   4  16-7.45986 47.9013   1
  -8  -4 -16  84.423 42.4007   1
  -8  -4 -17 35.2353 43.4348   1
   8   4  18 43.9049 48.7448   1
  -8  -4 -18 69.9261  45.315   1
   8   4  19-86.4291 49.6614   1
  -8  -4 -19 63.4117 45.8236   1
   8   5 -12 66.5779 44.4864   1
   8   5 -12 95.0572 54.2231   1
   8   5 -11  12.628 42.3184   1
   8   5 -11-27.5568 85.4691   1
   8   5 -10-67.7818 41.0346   1
   8   5 -10 75.6299 47.5345   1
   8   5  -9 148.957  43.565   1
   8   5  -9 144.678 50.1219   1
   8   5  -8 103.613 41.1928   1
   8   5  -7 4.86259 65.0634   1
   8   5  -6 1156.27 112.664   1
   8   5  -5 30.8033 40.5611   1
   8   5  -4 829.559 61.5709   1
   8   5  -3 10.7445 38.6208   1
  -8  -5   3-20.2634 18.1284   1
  -8  -5   3 58.6068 36.8362   1
   8   5  -2 1054.29 58.8435   1
  -8  -5   2 859.805 35.4353   1
  -8  -5   2 998.339 58.2572   1
   8   5  -1 917.239 55.6786   1
  -8  -5   1 699.015 38.5017   1
  -8  -5   1 837.223 53.7754   1
   8   5   0 627.595 50.0677   1
  -8  -5   0 577.409 24.1474   1
  -8  -5   0 707.131 46.9508   1
   8   5   1 1215.99 100.801   1
  -8  -5  -1 1166.06 59.4815   1
   8   5   2 389.484 71.0038   1
  -8  -5  -2 314.676 39.9224   1
   8   5   3 64.4054 63.2848   1
  -8  -5  -3  8.5619 58.0571   1
   8   5   4-86.2387 62.7843   1
  -8  -5  -4-41.6997 58.4481   1
   8   5   5 975.967 62.1909   1
  -8  -5  -5 1079.78 56.3134   1
   8   5   6 1304.23 66.7106   1
  -8  -5  -6 1226.33 61.2829   1
   8   5   7 497.403 48.0627   1
  -8  -5  -7 450.583 73.3179   1
   8   5   8 877.563 105.687   1
  -8  -5  -8 817.854 89.1613   1
   8   5   9 54.4873 76.4589   1
  -8  -5  -9 180.523 37.9813   1
   8   5  10 139.495  75.812   1
  -8  -5 -10 53.8242 36.3423   1
   8   5  11-38.6706 42.9166   1
  -8  -5 -11-2.30535 64.0926   1
   8   5  12 863.359 67.4599   1
  -8  -5 -12 898.728 58.7329   1
   8   5  13 306.177 52.3899   1
  -8  -5 -13 316.361  74.836   1
   8   5  14 1525.89 91.0229   1
  -8  -5 -14 1428.73 76.3207   1
   8   5  15-23.7374 75.0081   1
  -8  -5 -15  34.642 36.2108   1
   8   5  16-58.4645 72.4699   1
  -8  -5 -16  17.696 36.6618   1
   8   5  17 41.9924 44.3447   1
  -8  -5 -17 18.9889 38.1193   1
   8   5  18 268.455 50.4005   1
  -8  -5 -18  246.36 75.5933   1
   8   5  19 254.179  53.183   1
   8   6 -11-15.4873 47.1162   1
   8   6 -11 78.9961 54.8207   1
   8   6 -10 883.529 72.1965   1
   8   6 -10 909.713 81.5697   1
   8   6  -9 498.473   59.04   1
   8   6  -8 65.3966 43.2439   1
   8   6  -8-64.2544 49.6406   1
   8   6  -7 73.0359  43.569   1
   8   6  -6 1324.13 81.5279   1
   8   6  -5  378.94 89.5816   1
   8   6  -4 744.414 63.0855   1
   8   6  -3 24.2639 42.3612   1
  -8  -6   3 30.7794 9.92936   1
   8   6  -2 73.2305 41.2568   1
  -8  -6   2 75.1383 13.6788   1
  -8  -6   2 82.8011 40.0245   1
   8   6  -1 63.9622 40.7551   1
  -8  -6   1 57.6574 19.2666   1
  -8  -6   1 113.837 38.1073   1
   8   6   0 3806.91 156.668   1
  -8  -6   0 3494.19  147.36   1
   8   6   1-16.5476 37.9306   1
  -8  -6  -1-39.3294 35.3022   1
   8   6   2 2277.48 94.3013   1
  -8  -6  -2 2119.42 91.5748   1
   8   6   3 2218.92 148.146   1
  -8  -6  -3 1952.49 85.7759   1
   8   6   4 5648.55 238.475   1
  -8  -6  -4 5559.36 323.833   1
   8   6   5 3237.33  128.95   1
  -8  -6  -5 3216.77  185.23   1
   8   6   6 71.5735 37.2851   1
  -8  -6  -6 42.4381 56.6137   1
   8   6   7 1212.25 67.4108   1
  -8  -6  -7 1436.01 100.053   1
   8   6   8 60.2781 65.6031   1
  -8  -6  -8-8.46679 31.7524   1
   8   6   9 31.8108 40.2741   1
  -8  -6  -9 75.2145 32.7127   1
   8   6  10 124.419 41.9503   1
  -8  -6 -10 126.756 35.5317   1
   8   6  11 183.906 43.9382   1
  -8  -6 -11 167.508 63.6036   1
   8   6  12 185.316 43.5538   1
  -8  -6 -12 166.449 37.1372   1
   8   6  13 19.7514 38.9165   1
  -8  -6 -13 17.9374 57.4772   1
   8   6  14 463.417  50.665   1
  -8  -6 -14 418.643 43.5404   1
   8   6  15 317.928 48.1517   1
  -8  -6 -15 286.792 40.3239   1
   8   6  16 73.5997 40.5471   1
  -8  -6 -16-5.96804 61.2341   1
   8   6  17 483.059 52.2395   1
  -8  -6 -17 422.971 74.9071   1
   8   6  18 657.504 58.0318   1
  -8  -6 -18 695.582 83.1266   1
  -8  -6 -19-21.1794 59.9533   1
   8   7 -11-171.097 84.3408   1
   8   7 -11 94.9565 59.3871   1
   8   7 -10-13.2049 95.1257   1
   8   7  -9 149.399 57.3752   1
   8   7  -8-20.4477 47.0718   1
   8   7  -8 124.292 53.3608   1
   8   7  -7 451.507 59.8758   1
   8   7  -6 2867.27 149.453   1
   8   7  -5 91.0447 46.7119   1
   8   7  -4 13.2787  79.035   1
   8   7  -3 221.603 50.2626   1
   8   7  -1 1355.78 77.6744   1
  -8  -7   1 1407.95 121.963   1
   8   7   0 540.667 88.0643   1
  -8  -7   0  511.31 50.3163   1
   8   7   1 455.301 49.9286   1
  -8  -7  -1 461.137 47.0581   1
   8   7   2 547.011 49.8969   1
  -8  -7  -2 438.954 46.6057   1
   8   7   3 2335.37 98.1171   1
  -8  -7  -3 2104.55 92.5026   1
   8   7   4 3134.81 124.214   1
  -8  -7  -4 2754.03 115.951   1
   8   7   5 3123.85 121.583   1
  -8  -7  -5 2836.62 111.225   1
   8   7   6 2103.23 88.9222   1
  -8  -7  -6 2017.36 81.5915   1
   8   7   7 103.928 64.6971   1
  -8  -7  -7 67.1594 31.8805   1
   8   7   8 968.214 57.8731   1
  -8  -7  -8 886.846 50.0241   1
   8   7   9 222.155 40.1911   1
  -8  -7  -9 146.426 32.9661   1
   8   7  10 0.40091 37.0622   1
  -8  -7 -10 32.8628 52.9759   1
   8   7  11  63.336   65.06   1
  -8  -7 -11 53.9005 31.9489   1
   8   7  12 35.9275 63.9241   1
  -8  -7 -12 54.7302 31.3707   1
   8   7  13 45.7188 63.1125   1
  -8  -7 -13  114.64 53.7393   1
   8   7  14 571.586 48.7846   1
  -8  -7 -14 490.962 41.2606   1
   8   7  15 82.6391 39.4585   1
  -8  -7 -15 153.213   33.31   1
   8   7  16 -32.706 36.7089   1
  -8  -7 -16 36.6719 53.9352   1
   8   7  17 49.4538 62.3662   1
  -8  -7 -17-48.1345 54.0785   1
   8   7  18 20.2743 64.2224   1
  -8  -7 -18  113.47 34.4669   1
   8   7  19 150.665 66.3779   1
  -8  -7 -19 143.854 36.5878   1
   8   8 -10-218.006 116.223   1
   8   8  -9 50.9721 58.4157   1
   8   8  -7 731.646 77.5101   1
   8   8  -6 51.7328 49.5248   1
   8   8  -5 244.576 52.0598   1
   8   8  -4 3425.76 177.121   1
   8   8  -3 706.285  110.04   1
   8   8  -2 2903.35 148.013   1
   8   8  -1 428.632 89.6494   1
  -8  -8   1 426.907 51.7156   1
   8   8   0 1413.32 80.2573   1
  -8  -8   0 1409.87 128.301   1
   8   8   1-65.7514 40.0685   1
  -8  -8  -1-9.91565 65.9098   1
   8   8   2  242.18 75.3679   1
  -8  -8  -2 266.905 42.3653   1
   8   8   3 128.747 39.8935   1
  -8  -8  -3 159.302 37.4851   1
   8   8   4 147.061 37.0223   1
  -8  -8  -4 151.816 36.1685   1
   8   8   5 326.421 40.6064   1
  -8  -8  -5 298.129 37.8664   1
   8   8   6 609.031 77.4963   1
  -8  -8  -6 499.756 41.4181   1
   8   8   7  601.27 79.3787   1
  -8  -8  -7 592.525 42.4088   1
   8   8   8 2449.09 99.9687   1
  -8  -8  -8 2477.32 91.3125   1
   8   8   9 1265.63 63.5373   1
  -8  -8  -9 1176.29 91.0588   1
   8   8  10 545.459 78.7097   1
  -8  -8 -10 552.942  64.869   1
   8   8  11 457.715 44.2396   1
  -8  -8 -11 453.722 36.6045   1
   8   8  12 334.637 40.8154   1
  -8  -8 -12 290.465 57.2768   1
   8   8  13  72.353 33.9037   1
  -8  -8 -13 104.089 29.4408   1
   8   8  14  62.123 32.6057   1
  -8  -8 -14 75.0133 48.5902   1
   8   8  15 4.06814 57.1963   1
  -8  -8 -15-12.2178  28.634   1
   8   8  16 181.174 62.6411   1
  -8  -8 -16 150.667 53.8038   1
   8   8  17-0.50255 55.5586   1
  -8  -8 -17 48.3395  48.097   1
   8   8  18-0.42293 33.0627   1
  -8  -8 -18 55.8119  28.864   1
   8   8  19  41.122 32.5426   1
  -8  -8 -19-24.2684 28.8198   1
   8   9  -9-21.3003 90.7798   1
   8   9  -9-29.5854 108.134   1
   8   9  -8 156.482 94.7835   1
   8   9  -8 153.149 64.0828   1
   8   9  -7-10.8544 58.0119   1
   8   9  -5  386.06 58.3633   1
   8   9  -4  134.55  51.279   1
   8   9  -3 1409.09 87.0043   1
   8   9  -2 38.9595 45.2608   1
   8   9  -1-57.6787 44.4039   1
   8   9   0 1030.34 110.607   1
  -8  -9   0 882.085 63.4544   1
   8   9   1 61.6772 40.8553   1
  -8  -9  -1 76.6724 68.8941   1
   8   9   2 5975.00 262.805   1
  -8  -9  -2 5459.27 245.553   1
   8   9   3 95.9853 40.3042   1
  -8  -9  -3  111.18 38.0634   1
   8   9   4 2253.52 93.2368   1
  -8  -9  -4 2105.38 89.5405   1
   8   9   5 1434.73 68.9511   1
  -8  -9  -5 1440.82 64.6357   1
   8   9   6 353.362 41.6304   1
  -8  -9  -6 384.176 38.2517   1
   8   9   7 764.394  49.588   1
  -8  -9  -7 735.377 75.3139   1
   8   9   8 253.799 38.8001   1
  -8  -9  -8 377.202  58.179   1
   8   9   9 571.713 73.4153   1
  -8  -9  -9 558.153 37.8844   1
   8   9  10 1666.00  73.917   1
  -8  -9 -10 1562.08 61.9141   1
   8   9  11 131.927 33.1421   1
  -8  -9 -11 31.5659 47.2791   1
   8   9  12 477.864 65.4391   1
  -8  -9 -12 465.077 55.4943   1
   8   9  13 688.072 72.4523   1
  -8  -9 -13 750.453 38.3002   1
   8   9  14 61.3164 29.2593   1
  -8  -9 -14 1.07271 42.4288   1
   8   9  15 66.5047 32.2032   1
  -8  -9 -15 85.7828 26.8789   1
   8   9  16 1244.61 61.1166   1
  -8  -9 -16 1162.18 51.8279   1
   8   9  17 48.8177 29.3617   1
  -8  -9 -17 20.8772 42.3672   1
   8   9  18 42.0273 29.3947   1
  -8  -9 -18 -3.7031 42.5318   1
   8   9  19-14.7014  28.818   1
  -8  -9 -19  18.512 25.9056   1
   8  10  -9 38.5733  95.364   1
   8  10  -9 21.9305 67.7089   1
   8  10  -8 2.83888 90.8952   1
   8  10  -8-5.36422 63.8987   1
   8  10  -7  74.577 93.8172   1
   8  10  -6 91.3871 60.0775   1
   8  10  -5  236.73 55.9011   1
   8  10  -4 59.6269 48.6425   1
   8  10  -3  136.99 49.7567   1
   8  10  -1 385.768 52.6622   1
   8  10   0 1523.92 120.477   1
  -8 -10   0 1100.36 16.1372   1
   8  10   1  522.25 49.4852   1
  -8 -10  -1 405.927 19.7562   1
   8  10   2 136.003 69.9296   1
  -8 -10  -2 128.847 67.0742   1
   8  10   3 79.5392 64.6624   1
  -8 -10  -3 10.8486 35.9616   1
   8  10   4 2338.76  102.48   1
  -8 -10  -4 2510.18 102.034   1
   8  10   5 1682.63  79.674   1
  -8 -10  -5 2031.00 122.803   1
   8  10   6 4673.27 196.192   1
  -8 -10  -6 5212.60 279.127   1
   8  10   7-65.3531 59.8367   1
  -8 -10  -7-0.64895 31.1349   1
   8  10   8 2436.42 142.461   1
  -8 -10  -8 2184.94 83.4486   1
   8  10   9 756.508 46.1282   1
  -8 -10  -9 812.515 42.2992   1
   8  10  10 170.594  32.727   1
  -8 -10 -10 175.706  47.369   1
   8  10  11 139.894 51.5608   1
  -8 -10 -11 72.6633 25.3998   1
   8  10  12 51.7821 27.8358   1
  -8 -10 -12 33.4963 23.6212   1
   8  10  13 239.619 31.4891   1
  -8 -10 -13 280.998 44.0366   1
   8  10  14 156.257 49.1217   1
  -8 -10 -14 139.765 25.4741   1
   8  10  15 17.1809 47.3413   1
  -8 -10 -15-44.1093 39.0988   1
   8  10  16 413.922 35.0001   1
  -8 -10 -16  356.31 28.8596   1
   8  10  17-9.96697 26.4836   1
  -8 -10 -17 57.8628 22.0652   1
   8  10  18 82.1984 26.4614   1
  -8 -10 -18-57.7916 36.3795   1
   8  10  19 51.3162 26.5512   1
  -8 -10 -19 29.7751 36.7356   1
   8  11  -8 68.2987 101.161   1
   8  11  -8 53.5018 116.668   1
   8  11  -7 33.3496 91.5316   1
   8  11  -7 5.35612 63.9657   1
   8  11  -5 150.071 61.4361   1
   8  11  -4-21.5221 48.4936   1
   8  11  -3 0.43735 47.2125   1
   8  11  -1 436.962  55.623   1
   8  11   0 167.059  46.256   1
   8  11   1 1107.77 67.5642   1
  -8 -11  -1 963.417 25.8761   1
   8  11   2 113.242 64.9968   1
  -8 -11  -2 28.4589 11.4757   1
   8  11   3 119.051 38.3955   1
  -8 -11  -3 155.668 26.7737   1
  -8 -11  -3 202.061 37.6957   1
   8  11   4 244.593  40.553   1
  -8 -11  -4  192.06 38.5881   1
   8  11   5  117.89 36.8019   1
  -8 -11  -5 112.383  59.294   1
   8  11   6 4865.55 196.937   1
  -8 -11  -6 4592.32 184.035   1
   8  11   7 1051.15 55.9354   1
  -8 -11  -7 1108.04 51.2425   1
   8  11   8 124.966 31.8675   1
  -8 -11  -8 173.722 48.8068   1
   8  11   9 99.8119 51.3617   1
  -8 -11  -9 113.237   45.08   1
   8  11  10 2269.51 84.1536   1
  -8 -11 -10 2275.46 75.5255   1
   8  11  11 222.406 31.1432   1
  -8 -11 -11 260.016 26.8917   1
   8  11  12 907.225  73.187   1
  -8 -11 -12 1023.90  61.659   1
   8  11  13 451.475 32.9134   1
  -8 -11 -13 413.114 28.0839   1
   8  11  14-6.79086 24.3321   1
  -8 -11 -14  53.158 34.1934   1
   8  11  15 32.6714 38.4656   1
  -8 -11 -15-7.31768  19.813   1
   8  11  16 58.8061 40.0693   1
  -8 -11 -16 -41.773 31.9878   1
   8  11  17 21.9761 23.5156   1
  -8 -11 -17 41.6341 19.7107   1
   8  11  18 29.9459 23.6362   1
  -8 -11 -18 10.8089 19.2286   1
   8  12  -7 -64.487 102.233   1
   8  12  -6 24.0889 64.5416   1
   8  12  -4 187.932 54.3728   1
   8  12  -4 182.641 62.8931   1
   8  12  -3-52.0102 48.5552   1
   8  12  -1 180.796 47.6283   1
   8  12   0 75.3656 42.2431   1
   8  12   1 404.161 83.5891   1
  -8 -12  -1 408.835 16.7392   1
   8  12   2 162.475 42.7766   1
  -8 -12  -2 214.189 12.9191   1
   8  12   3 98.7717 36.7252   1
  -8 -12  -3 69.2373 24.0573   1
   8  12   4 18.0756  58.501   1
  -8 -12  -4 2.02906 16.7187   1
  -8 -12  -4-2.34897 32.0052   1
  -8 -12  -5 254.003 39.1559   1
  -8 -12  -5 305.168 61.4397   1
   8  12   6 110.242 54.6506   1
  -8 -12  -6 98.9642 24.3748   1
  -8 -12  -6 105.662 31.5605   1
   8  12   7 57.6584 53.1324   1
  -8 -12  -7 132.666 28.7785   1
   8  12   8 -33.347 27.8965   1
  -8 -12  -8-5.62915 42.9171   1
   8  12   9 65.1996 26.8793   1
  -8 -12  -9  51.584 24.0879   1
   8  12  10 150.987 45.0567   1
  -8 -12 -10 120.336 40.6385   1
   8  12  11 551.608 56.0316   1
  -8 -12 -11 556.645 30.4156   1
   8  12  12 228.427 27.5834   1
  -8 -12 -12 189.653  23.752   1
  -8 -12 -13 167.885 36.4285   1
   8  12  14 554.299 30.8022   1
  -8 -12 -14 535.538 27.4127   1
   8  12  15-2.10634 20.9281   1
  -8 -12 -15 32.9408 29.2627   1
   8  12  16 106.478  37.969   1
  -8 -12 -16 100.481 18.4052   1
   8  12  17 22.0634  20.903   1
  -8 -12 -17 15.3446 16.5728   1
   8  12  18 63.6861 20.4651   1
   8  13  -5 235.319 69.7044   1
   8  13  -4 350.574 62.0854   1
   8  13  -3 154.672 54.2292   1
   8  13  -3 195.243 60.2047   1
   8  13  -1 136.087 47.6246   1
   8  13   0 44.4217 42.6294   1
   8  13   1 132.134 68.8309   1
  -8 -13  -1 75.1267 12.7618   1
   8  13   2 117.953 38.5028   1
  -8 -13  -2 73.6297 18.3661   1
   8  13   3  346.12 43.0756   1
  -8 -13  -3 366.771 17.5521   1
   8  13   4 27.1146 57.1591   1
  -8 -13  -4 33.2254 16.7186   1
   8  13   5 23.4481 31.7845   1
  -8 -13  -5 27.2482 19.4043   1
   8  13   6-35.7846 29.3458   1
  -8 -13  -6-24.2048 22.3271   1
  -8 -13  -6-28.3887 28.8503   1
   8  13   7 92.1123 29.4438   1
  -8 -13  -7 93.0553 44.4934   1
  -8 -13  -7 46.4901 47.0226   1
   8  13   8 34.1061 45.3969   1
  -8 -13  -8-41.6872 27.7926   1
  -8 -13  -8-0.97993  24.752   1
   8  13   9 41.0048  43.191   1
  -8 -13  -9  75.441 31.5192   1
  -8 -13  -9 80.8392 39.7806   1
   8  13  10 35.5023 22.8604   1
  -8 -13 -10-15.5548 33.7819   1
  -8 -13 -10-14.8114 21.2305   1
   8  13  11 30.2195 39.6893   1
  -8 -13 -11 84.5609 34.2951   1
   8  13  12 104.082 23.4454   1
  -8 -13 -12 90.0616 19.9384   1
   8  13  13 235.218 24.2571   1
  -8 -13 -13 269.452 33.5656   1
   8  13  14 115.783 36.5648   1
  -8 -13 -14 216.233 19.2631   1
   8  13  15-4.56682 18.4183   1
  -8 -13 -15 44.0565 26.0785   1
   8  13  16 2.41001 31.9233   1
  -8 -13 -17-8.19448 55.2704   1
   8  14  -4 820.583 79.8056   1
   8  14  -4 614.333 88.4022   1
   8  14  -3  169.24 55.0996   1
   8  14  -2-22.8285 52.9211   1
   8  14  -1 89.3311 47.1896   1
   8  14   0 -14.726 42.3478   1
  -8 -14  -1 165.191  12.311   1
   8  14   2 51.0848 38.4362   1
  -8 -14  -2 29.3782 17.0151   1
   8  14   3 11.1986 35.3033   1
  -8 -14  -3-45.0058 22.7045   1
   8  14   4-125.643 57.2189   1
  -8 -14  -4-8.12289  26.881   1
   8  14   5  229.35 34.9954   1
  -8 -14  -5 112.214 21.1288   1
   8  14   6 350.283 36.1944   1
  -8 -14  -6 427.015 44.4704   1
   8  14   7 -4.7997 27.8287   1
  -8 -14  -7-32.5354 24.2549   1
   8  14   8 346.596 31.9539   1
  -8 -14  -8  362.30 54.7937   1
  -8 -14  -8 338.332  29.711   1
   8  14   9-10.9119 40.4293   1
  -8 -14  -9 8.67502 29.9292   1
  -8 -14  -9 8.03886 21.8628   1
   8  14  10 228.843 40.7737   1
  -8 -14 -10 170.069  37.185   1
  -8 -14 -10 209.591 23.6121   1
   8  14  11 319.463 26.4601   1
  -8 -14 -11 414.966 70.8657   1
  -8 -14 -11 309.134 23.8339   1
   8  14  12 11.8004 33.8484   1
  -8 -14 -12-57.8431 64.8534   1
  -8 -14 -12 12.7637 29.0168   1
   8  14  13 221.486 22.2255   1
  -8 -14 -13 306.248 78.6182   1
  -8 -14 -13 217.201 19.1808   1
   8  14  14 42.9386 29.6704   1
  -8 -14 -14 46.2525 45.6041   1
  -8 -14 -14 24.3443 24.9968   1
   8  14  15 71.5137 17.4545   1
  -8 -14 -15 145.379  50.729   1
  -8 -14 -16-68.3008  90.729   1
   8  15  -3-26.4398 53.9544   1
   8  15  -3 57.3495 57.9594   1
   8  15  -2 67.2073 55.4458   1
   8  15  -1 75.5687 49.0994   1
   8  15  -1 6.77729 51.0598   1
   8  15   0 299.366 51.5288   1
   8  15   0 265.701 54.5934   1
   8  15   2 28.4302 37.8712   1
  -8 -15  -2 10.1828 10.8262   1
   8  15   3-29.5801 36.7906   1
  -8 -15  -3 52.0328  13.786   1
   8  15   4 173.698 58.3167   1
  -8 -15  -4 70.2428 27.8503   1
   8  15   5 306.556 37.6064   1
  -8 -15  -5 296.654 34.6639   1
   8  15   6  158.16 31.1036   1
  -8 -15  -6  69.969  38.257   1
   8  15   7 240.777 31.1745   1
  -8 -15  -7 240.566 27.8582   1
   8  15   8 149.148 27.2807   1
  -8 -15  -8 147.935 47.1958   1
   8  15   9 52.4632 23.9006   1
  -8 -15  -9 96.0846  29.964   1
   8  15  10 89.2282 38.1897   1
  -8 -15 -10 124.811 33.2284   1
   8  15  11 112.462  21.358   1
  -8 -15 -11 112.587  62.458   1
   8  15  12 41.9283 31.6737   1
  -8 -15 -12 101.129 39.2775   1
  -8 -15 -12 31.1284 16.4139   1
   8  15  13 125.899 19.5486   1
  -8 -15 -13 215.903 46.1871   1
  -8 -15 -14 228.152 52.0326   1
  -8 -15 -15 83.6823 50.6265   1
   8  16  -1-65.1707 48.8043   1
   8  16  -1-76.0182  52.848   1
   8  16   0-4.47841  75.536   1
   8  16   1 225.108 46.3244   1
   8  16   1 148.866 49.8601   1
   8  16   2 150.651 42.4769   1
   8  16   2 187.131 45.3161   1
   8  16   3 58.4585 36.7821   1
  -8 -16  -3 40.1891 21.7003   1
  -8 -16  -4 606.682 25.2621   1
   8  16   5 509.398 43.1248   1
  -8 -16  -5  545.43  27.284   1
   8  16   6 346.878  35.846   1
  -8 -16  -6 397.569 26.3084   1
   8  16   7 73.2964 27.7798   1
  -8 -16  -7 82.6337 24.4588   1
   8  16   8 82.8236 25.7847   1
  -8 -16  -8 97.0483 44.7676   1
   8  16   9 9.38164  22.577   1
  -8 -16  -9 36.3398 29.2213   1
   8  16  10  8.2652 35.2687   1
  -8 -16 -10  2.4688 32.5658   1
   8  16  11-5.41429 19.2465   1
  -8 -16 -11-28.1223 58.0457   1
   8  16  12 105.799 30.3391   1
  -8 -16 -12  122.73 40.9073   1
  -8 -16 -13 81.6052 43.3529   1
  -8 -16 -14 174.036 49.6741   1
   8  17   2 103.275 68.6732   1
   8  17   3-0.36471 35.8741   1
   8  17   3 66.4822 38.7313   1
   8  17   4 47.9054 56.7549   1
   8  17   4 33.1826 36.2624   1
   8  17   5 475.174 41.5216   1
   8  17   5  358.51 42.3944   1
  -8 -17  -5 474.938 26.2481   1
   8  17   6 129.716 30.6524   1
  -8 -17  -6 102.497 23.1717   1
   8  17   7 378.957 35.2679   1
  -8 -17  -7 456.875 31.3906   1
   8  17   8 191.137 28.0394   1
  -8 -17  -8 227.766 46.9485   1
   8  17   9 25.8652 22.2188   1
  -8 -17  -9 19.2808 29.6431   1
   8  17  10 41.4522 33.8358   1
  -8 -17 -10 -26.144   53.95   1
  -8 -17 -11 21.2463 59.6128   1
  -9  10   2  316.54 120.572   1
  -9  10   1 45.6331 61.1361   1
  -9  10   0 129.228 104.552   1
   9 -10   1-6.18477 36.5724   1
  -9  10  -1 37.0192 55.6801   1
  -9  10  -1-1.38315 18.2855   1
   9 -10   2 109.162 42.6653   1
  -9  10  -2 75.9382 57.0199   1
  -9  10  -2 33.8188 20.9583   1
   9 -10   3 99.0449  49.495   1
  -9  10  -3-54.0246 52.0276   1
  -9  10  -3 7.68248  23.643   1
  -9   9   5 86.2464 106.452   1
  -9   9   4 195.622 65.2132   1
  -9   9   3 159.563 104.067   1
  -9   9   2-38.6993 60.0016   1
  -9   9   1 289.139 103.278   1
  -9   9   1 110.053 24.2918   1
   9  -9   0 42.8196 35.6457   1
  -9   9   0 153.569 55.7854   1
  -9   9   0 26.0818 16.2217   1
   9  -9   1 100.275 44.7453   1
  -9   9  -1 314.435 100.299   1
  -9   9  -1 153.468 21.4181   1
   9  -9   2  163.35 51.2646   1
  -9   9  -2 143.603 56.1558   1
  -9   9  -2 128.108 23.4067   1
   9  -9   3-44.6589 54.2066   1
  -9   9  -3-41.1469 51.0602   1
  -9   9  -3-23.6728 24.5878   1
   9  -9   4 13.3079 59.2349   1
  -9   9  -4  65.617 51.6701   1
  -9   9  -4-1.64575 26.3283   1
   9  -9   5 5.15386 38.5361   1
  -9   9  -5-77.9594 51.0729   1
  -9   9  -5 1.49761  49.397   1
   9  -9   6 24.8074 43.4298   1
  -9   9  -6 47.5608 86.8064   1
  -9   9  -6 60.2043 33.7368   1
   9  -9   7-18.3406 46.8189   1
  -9   9  -7 72.2033 49.6012   1
  -9   9  -7  0.6583 36.5766   1
  -9   8   7 185.884 103.108   1
  -9   8   6  420.05 70.6648   1
  -9   8   5 335.744 109.366   1
  -9   8   4 100.926 56.5608   1
  -9   8   3-62.0187 56.8414   1
   9  -8  -2 88.7608 16.9766   1
  -9   8   2 192.912 94.2344   1
  -9   8   2  92.658 21.2343   1
   9  -8  -1 52.6159 17.6401   1
  -9   8   1-1.79481 54.7833   1
  -9   8   1 20.8237  24.117   1
   9  -8   0 46.5244 21.8925   1
  -9   8   0-49.2991 90.0623   1
  -9   8   0 4.76951 16.5032   1
   9  -8   1 100.128 27.3855   1
  -9   8  -1 150.875 53.0546   1
  -9   8  -1 83.1575 20.7268   1
   9  -8   2 83.1329 30.7709   1
  -9   8  -2 225.109 88.0414   1
  -9   8  -2 101.841 22.6598   1
   9  -8   3  228.58 59.0345   1
  -9   8  -3 349.108 57.2181   1
  -9   8  -3 145.681 27.2627   1
   9  -8   4-70.1793  61.304   1
  -9   8  -4 39.5787 50.2655   1
  -9   8  -4-17.3508 26.1463   1
   9  -8   5-9.98979 39.7741   1
  -9   8  -5  37.554 50.3322   1
   9  -8   6 20.6661 43.5169   1
  -9   8  -6 59.9236 49.4099   1
  -9   8  -6-11.7557 34.0526   1
   9  -8   7 342.571 91.1184   1
  -9   8  -7 319.811 93.6348   1
  -9   8  -7 233.469 43.3736   1
   9  -8   8-16.4381 50.4144   1
  -9   8  -8-53.2803 48.7821   1
  -9   8  -8 24.2134 69.6303   1
   9  -8   9-16.1701 54.7632   1
  -9   8  -9 20.7907  48.565   1
  -9   8  -9  127.79 45.6317   1
   9  -7  -8 172.397 55.8046   1
  -9   7   8-32.4979 55.1931   1
  -9   7   7 216.702  97.862   1
  -9   7   6  226.94 59.5079   1
  -9   7   5 362.522 63.4638   1
  -9   7   4 510.151 99.5032   1
  -9   7   4 186.619 18.3944   1
  -9   7   3 99.4413 53.8151   1
  -9   7   3 41.2771 19.9976   1
   9  -7  -2 85.7865 17.4535   1
  -9   7   2 85.4208 52.2974   1
  -9   7   2 28.1369 22.1639   1
   9  -7  -1 14.7551 34.7457   1
  -9   7   1-66.1547 51.5424   1
  -9   7   1-0.04942 15.0983   1
   9  -7   0-57.7418 41.5507   1
  -9   7   0 109.403 49.1021   1
  -9   7   0-46.3179 28.4422   1
   9  -7   1  81.849 29.0338   1
  -9   7  -1 154.545 85.9268   1
  -9   7  -1 94.4886 20.5512   1
   9  -7   2 194.493 33.6548   1
  -9   7  -2  255.93 56.9882   1
  -9   7  -2 139.593 24.6361   1
   9  -7   3 154.216 36.5891   1
  -9   7  -3 237.575 91.9666   1
  -9   7  -3 137.199 27.4185   1
   9  -7   4 98.0066 65.8749   1
  -9   7  -4 191.532 52.2097   1
  -9   7  -4 85.2198 47.1712   1
   9  -7   5 55.6842 40.4803   1
  -9   7  -5 16.4387 84.4409   1
  -9   7  -5 67.5575 30.0742   1
   9  -7   6 59.6407 44.8564   1
  -9   7  -6  115.81 50.6781   1
  -9   7  -6 104.722 35.7984   1
   9  -7   7 920.463 121.351   1
  -9   7  -7  948.03 77.0193   1
  -9   7  -7 725.052 58.9265   1
   9  -7   8 15.4408 51.0692   1
  -9   7  -8-120.665 80.3311   1
  -9   7  -8 -35.522 41.8951   1
   9  -7   9  86.097 55.1788   1
  -9   7  -9-43.6667 49.7401   1
  -9   7  -9 19.0791 44.9552   1
  -9   7 -10 22.4846 49.1396   1
  -9   7 -10 76.4843 48.9099   1
   9  -7  11-40.6496 62.0031   1
  -9   7 -11 99.8324 48.5373   1
   9  -6  -9 12.8239 50.7126   1
   9  -6  -8 76.4527 51.4338   1
  -9   6   8 19.4097 49.9787   1
   9  -6  -7 37.1751 50.9836   1
  -9   6   7 110.272 50.4256   1
  -9   6   6 544.104 108.829   1
  -9   6   5 199.308 52.7447   1
  -9   6   5 106.697 18.8155   1
   9  -6  -4 569.451 37.8547   1
  -9   6   4 785.532 69.9406   1
   9  -6  -3  405.65 23.3299   1
  -9   6   3 468.889 102.369   1
  -9   6   3  334.62 28.1604   1
   9  -6  -2   31.33 34.9074   1
  -9   6   2 147.269 49.8372   1
  -9   6   2  9.5027 24.0584   1
   9  -6  -1-26.2731 39.8953   1
  -9   6   1 37.2687 46.9004   1
  -9   6   1 28.7777 16.3602   1
   9  -6   0 851.281 44.0328   1
  -9   6   0 1134.86 123.025   1
  -9   6   0 778.791  47.577   1
   9  -6   1 40.3388 51.5647   1
  -9   6  -1 79.9536 50.5675   1
  -9   6  -1 25.5281 35.2502   1
   9  -6   2 432.864 40.9071   1
  -9   6  -2 610.599 105.412   1
  -9   6  -2  357.14 29.8572   1
   9  -6   3 246.503 41.1772   1
  -9   6  -3 366.837  58.441   1
  -9   6  -3 221.321 50.7456   1
   9  -6   4 48.9575 67.0263   1
  -9   6  -4  112.02 86.4253   1
  -9   6  -4 91.0187 48.5014   1
   9  -6   5 256.403 47.6973   1
  -9   6  -5 335.444 55.5827   1
  -9   6  -5 204.944 35.0154   1
   9  -6   6 244.746 50.7969   1
  -9   6  -6 305.334 96.3682   1
  -9   6  -6 270.484 39.8563   1
   9  -6   7 23.8855 77.9125   1
  -9   6  -7-9.72292 49.9218   1
  -9   6  -7 -3.2137 36.3765   1
   9  -6   8-29.0245  49.502   1
  -9   6  -8-2.46396 48.7608   1
  -9   6  -9 138.896 80.7638   1
  -9   6  -9 155.312 46.9466   1
   9  -6  10 15.8944 56.8382   1
  -9   6 -10 -1.4185 42.9201   1
  -9   6 -10  18.352 46.9307   1
   9  -6  11  55.542 63.2688   1
  -9   6 -11  78.966 45.4208   1
  -9   6 -12 100.389 46.1215   1
  -9   6 -12 17.0649 98.9976   1
   9  -5 -10 -90.952 48.4304   1
   9  -5  -9 111.106 48.8848   1
   9  -5  -8 162.079  50.537   1
  -9   5   8 212.797 49.9481   1
   9  -5  -7 40.1997 46.2772   1
  -9   5   7-8.39597  45.929   1
   9  -5  -6 48.8271 23.6855   1
  -9   5   6-21.7441 77.8971   1
   9  -5  -5 388.643 20.7531   1
  -9   5   5 437.381 56.5445   1
  -9   5   5 333.965  25.824   1
   9  -5  -4 50.6061 29.3173   1
  -9   5   4 58.5831 48.8106   1
  -9   5   4 35.6193 22.3764   1
   9  -5  -3 297.682 23.2482   1
  -9   5   3 328.444 55.1475   1
  -9   5   3 267.668 18.3597   1
   9  -5  -2 183.092 38.2027   1
  -9   5   2 130.783 83.9964   1
  -9   5   2 112.229 17.1015   1
   9  -5  -1 34.3092 23.1807   1
  -9   5   1-41.5659  44.698   1
  -9   5   1 -48.002 28.8059   1
   9  -5   0 143.668 45.2697   1
  -9   5   0 83.7566 49.0816   1
  -9   5   0 57.6625 19.1203   1
   9  -5   1  295.50 36.5395   1
  -9   5  -1 515.306 95.1735   1
  -9   5  -1 269.251 25.3666   1
   9  -5   2 19.0162  57.014   1
  -9   5  -2-7.52863 48.2966   1
  -9   5  -2  39.708 40.7404   1
   9  -5   3 100.281 38.6393   1
  -9   5  -3-1.10441 49.2861   1
  -9   5  -3 89.2253  46.528   1
   9  -5   4  729.78 95.5137   1
  -9   5  -4  875.25 69.9242   1
  -9   5  -4 625.261 43.3861   1
   9  -5   5-5.78619 42.1396   1
  -9   5  -5-13.1185 50.4069   1
  -9   5  -5 0.22792 31.4988   1
   9  -5   6 395.389 56.2702   1
  -9   5  -6 454.018  62.041   1
  -9   5  -6 386.912 74.7459   1
   9  -5   7 127.592 49.6654   1
  -9   5  -7 58.5873  48.402   1
  -9   5  -7 90.5035 39.7078   1
   9  -5   8 137.836 53.7092   1
  -9   5  -8 197.712 48.9497   1
  -9   5  -9  44.311 75.5732   1
  -9   5  -9 6.41203 43.5191   1
   9  -5  10-34.4313 55.2367   1
  -9   5 -10 0.88194 45.5325   1
  -9   5 -10 10.0676 46.4681   1
  -9   5 -11 54.8031 45.8422   1
   9  -5  12 213.724  69.466   1
  -9   5 -12 181.199 49.7911   1
  -9   5 -13 19.9647 45.1677   1
  -9   5 -13 63.6074 102.068   1
   9  -5  14 205.675 75.5071   1
  -9   5 -14 149.643 67.7735   1
   9  -4 -10-29.3772 71.1497   1
   9  -4  -9 23.1326 42.8454   1
   9  -4  -8 22.3419  43.647   1
  -9   4   8 47.8356 41.7631   1
   9  -4  -7 512.616 58.4339   1
   9  -4  -7  514.18 22.9631   1
  -9   4   7 570.305 58.7005   1
   9  -4  -6 862.478 45.9015   1
  -9   4   6 926.253 110.492   1
   9  -4  -5 166.794 20.2102   1
  -9   4   5  134.40 79.4151   1
  -9   4   5 140.625 26.6085   1
   9  -4  -4-14.8043 32.8327   1
  -9   4   4 54.0377 44.9179   1
  -9   4   4-0.10933  15.231   1
   9  -4  -3 123.388 22.8051   1
  -9   4   3 117.432 47.3451   1
  -9   4   3 131.039 17.8503   1
   9  -4  -2 456.357 51.5355   1
  -9   4   2 560.646 54.5555   1
  -9   4   2 462.574 37.9998   1
   9  -4  -1 402.817 54.4688   1
  -9   4   1  617.55 93.2381   1
  -9   4   1 401.503 24.0765   1
   9  -4   0 439.779 35.1765   1
  -9   4   0  520.96 55.7809   1
  -9   4   0 389.885 41.8906   1
   9  -4   1 415.638 63.1226   1
  -9   4  -1 479.207  56.874   1
  -9   4  -1 381.854 28.4321   1
   9  -4   2 8.16258 33.4182   1
  -9   4  -2 41.9129 46.9974   1
  -9   4  -2 43.6229 24.8486   1
   9  -4   3  257.04 71.7292   1
  -9   4  -3 225.731 52.3185   1
  -9   4  -3 168.949 30.3726   1
   9  -4   4  158.96 41.9409   1
  -9   4  -4 156.632 52.4916   1
  -9   4  -4 76.9746 32.5044   1
   9  -4   5 24.1105 43.5506   1
  -9   4  -5 54.5887  84.414   1
  -9   4  -5 24.3503  32.286   1
   9  -4   6 -16.942 46.7424   1
  -9   4  -6 25.6509 46.0702   1
  -9   4  -6-3.62106 59.9312   1
   9  -4   7 601.186 67.8031   1
  -9   4  -7 762.599 107.363   1
  -9   4  -7 624.472 55.0839   1
   9  -4   8 671.904 74.0057   1
  -9   4  -8 815.277 69.7706   1
  -9   4  -8 710.715 100.633   1
   9  -4   9 153.957 57.9113   1
  -9   4  -9 109.865 50.8013   1
  -9   4  -9  160.47 48.2029   1
   9  -4  10 30.0107  58.522   1
  -9   4 -10 88.5199 49.0637   1
   9  -4  11-51.8782 58.8693   1
  -9   4 -11-78.0589 50.9037   1
   9  -4  12  263.89 68.5253   1
   9  -4  13-3.02459 65.8282   1
   9  -4  14-5.41202 70.5359   1
  -9   4 -14  78.942 62.5254   1
   9  -4  15-14.3663  72.492   1
  -9   4 -15-21.3671  64.782   1
   9  -3 -11 0.81264 63.0484   1
   9  -3 -10-3.78997 37.1307   1
   9  -3  -9 44.0394 37.9369   1
   9  -3  -9 16.7759 15.2651   1
   9  -3  -8 39.0985 39.4466   1
   9  -3  -8 58.3054 27.3984   1
  -9   3   8  10.151 37.9519   1
   9  -3  -7  186.99 44.2535   1
   9  -3  -7 178.083 19.3304   1
  -9   3   7 209.961 42.7871   1
   9  -3  -6 780.983 49.3943   1
  -9   3   6 829.421 98.8091   1
   9  -3  -5 212.949 23.0108   1
  -9   3   5 216.308 74.9559   1
  -9   3   5 174.472 31.4212   1
   9  -3  -4 374.502 45.2699   1
  -9   3   4 425.154 86.3183   1
  -9   3   4 365.319 22.4448   1
   9  -3  -3 655.768 35.0455   1
  -9   3   3 774.141  59.693   1
  -9   3   3 575.971 44.0684   1
   9  -3  -2  484.92  34.168   1
  -9   3   2 594.854 51.4516   1
  -9   3   2 441.619 25.7486   1
   9  -3  -1 948.697 78.4887   1
  -9   3   1 1228.03 73.3064   1
  -9   3   1 919.338 58.0564   1
   9  -3   0 74.6382 53.5447   1
  -9   3   0 124.407 46.0094   1
  -9   3   0 81.8634 23.4102   1
   9  -3   1 266.372 38.9378   1
  -9   3  -1 383.166 88.4359   1
  -9   3  -1 295.249 46.4542   1
   9  -3   2 1278.51 69.1696   1
  -9   3  -2 1493.08 88.2685   1
  -9   3  -2 1302.20   86.50   1
   9  -3   3 773.352 102.358   1
  -9   3  -3 1143.63 79.5457   1
  -9   3  -3 774.317 78.7156   1
   9  -3   4 3243.01 153.365   1
  -9   3  -4 3945.83 269.038   1
  -9   3  -4 3028.10 189.844   1
   9  -3   5 226.081 88.9114   1
  -9   3  -5 283.972 51.9332   1
  -9   3  -5 231.626 67.4115   1
   9  -3   6-39.0716 46.5881   1
  -9   3  -6 57.7637  46.599   1
  -9   3  -6-55.7691 35.6091   1
   9  -3   7 122.187 51.4581   1
  -9   3  -7 6.90348  47.752   1
  -9   3  -7 90.9819 68.3708   1
   9  -3   8-64.9279 89.2169   1
  -9   3  -8-17.4714 42.9632   1
   9  -3   9 253.128 59.4737   1
  -9   3  -9 209.904 86.5191   1
   9  -3  10-14.3453 98.5036   1
  -9   3 -10 15.1574 48.3959   1
   9  -3  11-31.7728 58.9161   1
  -9   3 -11 23.5704 50.4829   1
  -9   3 -12 128.949 55.5882   1
   9  -3  13-19.1355 62.5567   1
   9  -3  15-6.19015 72.5041   1
  -9   3 -16 240.166 126.784   1
   9  -2 -11 281.017 39.6277   1
   9  -2 -10 52.7759 34.6781   1
   9  -2 -10 53.2442 18.0631   1
   9  -2 -10  49.913 33.3618   1
   9  -2  -9 121.016 35.0355   1
   9  -2  -9 90.4897 19.3993   1
   9  -2  -8 328.357 42.1697   1
   9  -2  -8 327.995 37.8589   1
   9  -2  -7 245.239 39.5396   1
   9  -2  -7 177.727 22.4053   1
  -9   2   7 213.952 64.6554   1
   9  -2  -6 627.382  49.435   1
  -9   2   6 578.231 82.7858   1
   9  -2  -5 2505.80  76.297   1
  -9   2   5 2394.78  165.28   1
  -9   2   5 2137.83 65.3495   1
   9  -2  -4 674.649 35.1584   1
  -9   2   4 733.385 92.7824   1
  -9   2   4 681.619 46.9397   1
   9  -2  -3 81.0462 44.4714   1
  -9   2   3 32.6628 69.2283   1
  -9   2   3 119.852 20.9709   1
   9  -2  -2 1441.39 57.5454   1
  -9   2   2 1543.84 119.618   1
  -9   2   2 1269.97 72.2491   1
   9  -2  -1 73.0227 30.4838   1
  -9   2   1 107.778 42.6519   1
  -9   2   1 46.0316 23.3702   1
   9  -2   0 693.327 48.5702   1
  -9   2   0 861.192 61.5002   1
  -9   2   0 666.002 58.8217   1
   9  -2   1 1904.29 130.862   1
  -9   2  -1 2266.91 102.729   1
  -9   2  -1 1719.77 65.1492   1
   9  -2   2 59.2813   63.88   1
  -9   2  -2 90.6446 46.2823   1
  -9   2  -2 8.78325  27.761   1
   9  -2   3 939.568 65.5785   1
  -9   2  -3 1117.42 121.431   1
  -9   2  -3  985.59 51.4595   1
   9  -2   4 167.201 45.6092   1
  -9   2  -4 149.535 48.1813   1
  -9   2  -4 187.205 36.2668   1
   9  -2   5  149.80 84.8997   1
  -9   2  -5  238.68 51.8345   1
  -9   2  -5 137.655 39.2405   1
   9  -2   6 569.607 63.4187   1
  -9   2  -6 554.645 50.8043   1
   9  -2   7  75.972 52.3122   1
  -9   2  -7 0.82146 40.1413   1
   9  -2   8 2.27849 100.609   1
  -9   2  -8 182.756 46.3219   1
   9  -2   9 730.284 79.4048   1
  -9   2  -9 710.432 66.6651   1
   9  -2  10 224.154 62.0788   1
  -9   2 -10 253.552  92.218   1
   9  -2  11-34.7514 57.8741   1
  -9   2 -11 42.7315 50.6566   1
   9  -2  12 110.774 64.3677   1
  -9   2 -12 198.464 56.8304   1
  -9   2 -13-47.4127   57.06   1
   9  -2  14  236.11 70.9729   1
   9  -2  16 145.605  76.043   1
   9  -1 -11 146.044 33.1015   1
   9  -1 -11 158.547 22.4856   1
   9  -1 -11 172.607 43.7178   1
   9  -1 -10 31.5492 29.6122   1
   9  -1 -10 17.5203 32.4476   1
   9  -1 -10 10.6789 39.1537   1
   9  -1  -9 62.5698 31.2156   1
   9  -1  -9 122.981 35.1599   1
   9  -1  -8  -48.58 30.7653   1
   9  -1  -8 20.7111 20.7789   1
   9  -1  -7-23.3288 36.6824   1
  -9   1   7-11.8781   51.41   1
   9  -1  -6 751.844 36.4365   1
  -9   1   6 655.356 77.5471   1
   9  -1  -5 1043.46  65.536   1
  -9   1   5 924.634 85.7045   1
  -9   1   5 849.077  35.959   1
   9  -1  -4 1450.00 54.5624   1
  -9   1   4 1351.15 110.337   1
  -9   1   4 1282.55  46.938   1
   9  -1  -3 1554.58 59.2665   1
  -9   1   3 1349.20 111.073   1
  -9   1   3 1405.93 76.0563   1
   9  -1  -2 682.839 40.7116   1
  -9   1   2 718.216 87.4455   1
  -9   1   2 607.378 34.4616   1
   9  -1  -1 110.117 53.9456   1
  -9   1   1 191.592  69.111   1
  -9   1   1 166.083 44.4398   1
   9  -1   0 1711.98 111.051   1
  -9   1   0 1910.16 133.366   1
  -9   1   0 1440.75 56.9953   1
   9  -1   1 42.5209 33.5806   1
  -9   1  -1 71.8293 72.0464   1
  -9   1  -1-11.2382 26.8289   1
   9  -1   2 1085.52 66.6497   1
  -9   1  -2 1455.25  124.16   1
  -9   1  -2 1052.26 81.5066   1
   9  -1   3 379.609 50.0533   1
  -9   1  -3 554.512 52.8542   1
  -9   1  -3 483.486 66.7652   1
   9  -1   4 68.1478 79.6069   1
  -9   1  -4 165.529 47.2597   1
  -9   1  -4 161.307 60.9899   1
   9  -1   5 3941.79 292.867   1
  -9   1  -5 3688.00 238.596   1
   9  -1   6 1303.35 86.6961   1
  -9   1  -6 1221.49 72.8532   1
   9  -1   7 315.935  54.494   1
  -9   1  -7 96.4538 44.0126   1
   9  -1   8 580.385 126.714   1
  -9   1  -8 522.704 100.297   1
   9  -1   9 1039.80 90.9235   1
  -9   1  -9 871.988 76.4027   1
   9  -1  10 2377.53  155.40   1
  -9   1 -10 2288.69  133.74   1
   9  -1  11 -37.871 102.605   1
  -9   1 -11 116.842 88.9456   1
   9  -1  12-11.9137 59.4637   1
  -9   1 -12-12.2216 52.2431   1
   9  -1  13-34.5972 63.5603   1
  -9   1 -13 131.228  53.816   1
  -9   1 -14 9.09681 56.6205   1
   9  -1  15 70.2091 68.2688   1
  -9   1 -15 198.277 60.5812   1
   9  -1  17 112.404 74.0462   1
   9   0 -11 57.9134 26.0528   1
   9   0 -11 21.1888 25.0624   1
   9   0 -11 24.2741 27.9756   1
   9   0 -10 60.8511 25.7045   1
   9   0 -10  30.541 40.3406   1
   9   0 -10 49.0372 27.0881   1
   9   0  -9 51.8402  38.051   1
   9   0  -8 12.9771 23.2847   1
   9   0  -7 42.7942 23.9576   1
  -9   0   7 63.2283 27.3738   1
   9   0  -6 173.537 44.6724   1
  -9   0   6 132.378 29.6219   1
   9   0  -5 1739.15 64.2201   1
  -9   0   5 1658.05 103.804   1
  -9   0   5 1528.01 85.8908   1
   9   0  -4 2092.01 78.4456   1
  -9   0   4 1889.10 125.202   1
  -9   0   4 1880.76 65.6088   1
   9   0  -3 1165.76 83.8218   1
  -9   0   3 1026.49 52.5434   1
  -9   0   3 1023.52 44.3134   1
   9   0  -2 2044.67 77.4342   1
  -9   0   2 1913.76 83.9248   1
  -9   0   2 1914.31 104.344   1
   9   0  -1 1589.79 67.0096   1
  -9   0   1 1585.16 72.3944   1
  -9   0   1 1443.56 57.9574   1
   9   0   0 1899.64 75.5936   1
  -9   0   0 1914.54 83.3787   1
  -9   0   0 1630.73 65.4356   1
   9   0   1 819.834 51.4813   1
  -9   0  -1 858.222  57.447   1
  -9   0  -1 731.029 70.7964   1
   9   0   2 100.792  67.289   1
  -9   0  -2  142.86 39.3625   1
  -9   0  -2 108.744 51.6695   1
   9   0   3 452.752 81.9412   1
  -9   0  -3 377.595 48.6326   1
  -9   0  -3 311.008  38.083   1
   9   0   4 2241.72 180.345   1
  -9   0  -4 2163.30 94.5029   1
   9   0   5 306.396 51.4591   1
  -9   0  -5 291.243 42.6809   1
   9   0   6  883.99  71.743   1
  -9   0  -6 814.128  101.10   1
   9   0   7 1092.55 80.7547   1
  -9   0  -7 999.358 69.1299   1
   9   0   8 80.5549 54.8508   1
  -9   0  -8 59.2349 46.0269   1
   9   0   9 2291.09 228.689   1
  -9   0  -9 2171.51 195.886   1
   9   0  10 42.0392 61.7334   1
  -9   0 -10-55.8311 52.8159   1
   9   0  11  428.70 75.0736   1
  -9   0 -11 462.904 63.2195   1
   9   0  12 96.8592 101.965   1
  -9   0 -12 56.5375 90.6595   1
   9   0  13 41.8389  60.462   1
  -9   0 -13 58.0292 52.5925   1
   9   0  14  96.029 62.8391   1
  -9   0 -14 52.5359 57.2858   1
  -9   0 -15 291.997 64.4869   1
   9   0  16 78.5549 63.5631   1
  -9   0 -16 35.4876 58.6488   1
  -9   0 -17 67.9044 61.7043   1
   9   0  18 93.8583 68.9509   1
  -9   0 -18 48.5771 63.8741   1
   9   1 -11 677.508 41.2667   1
   9   1 -11 634.188 46.6205   1
   9   1 -10 83.6234 44.8401   1
   9   1 -10-4.27906 29.8794   1
   9   1  -9 -21.613 45.1241   1
   9   1  -8 278.997 32.1135   1
   9   1  -7  30.426 27.3755   1
   9   1  -6 178.434 50.3485   1
  -9  -1   6 220.554 27.3579   1
   9   1  -5 93.6875 28.8598   1
  -9  -1   5 78.7771  25.829   1
  -9  -1   5 107.402 26.6639   1
   9   1  -4 2767.20 149.737   1
  -9  -1   4 2559.93  134.65   1
  -9  -1   4 2473.48 88.7761   1
   9   1  -3 38.3185 31.4426   1
  -9  -1   3 36.1907 27.2214   1
  -9  -1   3 34.3354   47.53   1
   9   1  -2 1413.76 62.6762   1
  -9  -1   2 1314.08 58.9055   1
  -9  -1   2 1274.98 55.1636   1
   9   1  -1 212.911 34.7619   1
  -9  -1   1 184.916 33.8313   1
  -9  -1   1 175.593 30.7162   1
   9   1   0 159.083 60.3898   1
  -9  -1   0 67.1814 57.5594   1
  -9  -1   0 106.545 51.0394   1
   9   1   1 3019.07 179.915   1
  -9  -1  -1 2901.88 172.357   1
  -9  -1  -1 2796.99 103.144   1
   9   1   2 20.4306 63.6324   1
  -9  -1  -2 26.8109 36.2339   1
  -9  -1  -2 64.6707 31.8049   1
   9   1   3 2409.79 107.926   1
  -9  -1  -3 2134.43 89.8116   1
   9   1   4 634.231 57.4811   1
  -9  -1  -4 605.256 48.3386   1
   9   1   5 170.299 47.7642   1
  -9  -1  -5  133.76  40.106   1
   9   1   6 2120.77 114.672   1
  -9  -1  -6 1909.84 95.3275   1
   9   1   7 106.672 50.7239   1
  -9  -1  -7 51.6592 42.4733   1
   9   1   8 1836.67  111.50   1
  -9  -1  -8 1732.99 94.2933   1
   9   1   9 167.486 98.1786   1
  -9  -1  -9 132.162 47.5343   1
   9   1  10 88.7705 100.708   1
  -9  -1 -10 68.9589 86.1628   1
   9   1  11 1269.94  104.25   1
  -9  -1 -11 1246.84 89.6526   1
   9   1  12 1279.94 100.267   1
  -9  -1 -12 1100.52 85.1699   1
   9   1  13 489.059 124.373   1
  -9  -1 -13 451.147 63.1504   1
   9   1  14 21.5314 58.3307   1
  -9  -1 -14-24.4269 89.0184   1
   9   1  15 146.418 61.8441   1
  -9  -1 -16 90.6438  57.894   1
   9   1  17 -43.027 60.5259   1
  -9  -1 -17-9.88748 58.1877   1
   9   1  18 254.869 69.5423   1
  -9  -1 -18 79.1572 64.3713   1
   9   2 -11  165.74 56.2929   1
   9   2 -11  191.59 38.4539   1
   9   2 -10 147.058 53.1351   1
   9   2 -10 91.0298 35.9278   1
   9   2  -9 74.7804 31.4122   1
   9   2  -8 108.484 32.1613   1
   9   2  -7 577.553 41.9443   1
   9   2  -6 249.449 58.7752   1
  -9  -2   6 227.269 38.5405   1
   9   2  -5 76.8776 30.6947   1
  -9  -2   5  19.793 20.7808   1
  -9  -2   5 2.68011 27.7937   1
   9   2  -4 245.359 57.2485   1
  -9  -2   4 130.354 25.1474   1
  -9  -2   4 132.398 31.0572   1
   9   2  -3 508.643 41.3722   1
  -9  -2   3 502.131 51.0279   1
  -9  -2   3 457.391 38.7484   1
   9   2  -2 1102.98  56.986   1
  -9  -2   2 1052.48 45.5304   1
  -9  -2   2 1034.57 51.6276   1
   9   2  -1 17.2856 57.1582   1
  -9  -2   1 5.84492 46.0708   1
  -9  -2   1 6.95915 50.7846   1
   9   2   0 270.852 66.1925   1
  -9  -2   0 186.109 32.9348   1
  -9  -2   0 209.458  56.996   1
   9   2   1 43.0241 34.8492   1
  -9  -2  -1 21.4253 29.5137   1
  -9  -2  -1 22.6238 31.2591   1
   9   2   2 174.966  39.823   1
  -9  -2  -2 151.778 34.2977   1
   9   2   3-43.7362 37.8067   1
  -9  -2  -3 41.9557 33.7775   1
   9   2   4 3297.82 145.948   1
  -9  -2  -4 2923.57 124.273   1
   9   2   5 3603.27 163.526   1
  -9  -2  -5 3090.42 136.975   1
   9   2   6 158.096 50.1948   1
  -9  -2  -6 141.341 41.9517   1
   9   2   7 108.179 49.8128   1
  -9  -2  -7 89.8703 41.6865   1
   9   2   8 623.535 69.5094   1
  -9  -2  -8 597.308  98.213   1
   9   2   9 802.832 77.1953   1
  -9  -2  -9 781.047 65.8985   1
   9   2  10-249.221 97.7274   1
  -9  -2 -10-89.0452   47.58   1
   9   2  11 304.676 108.477   1
  -9  -2 -11 285.569 54.1188   1
   9   2  12  51.566 56.2632   1
  -9  -2 -12 14.4015 82.7465   1
   9   2  13-23.2756 56.6077   1
  -9  -2 -13 58.0303 48.1104   1
   9   2  14-4.78031 55.5385   1
  -9  -2 -14 31.2794 49.2567   1
  -9  -2 -15 46.6569 50.4234   1
   9   2  16 10.7411  57.401   1
  -9  -2 -16-82.0031 51.1987   1
   9   2  17 -5.8409 57.6823   1
   9   3 -11-10.6776  34.382   1
   9   3 -11 59.6353 39.1537   1
   9   3 -10-40.6863 34.7102   1
   9   3 -10-61.2648 38.4356   1
   9   3  -9-17.4435 33.6394   1
   9   3  -8 121.334 35.0427   1
   9   3  -7 88.7299 57.7911   1
   9   3  -6 296.273 38.6171   1
   9   3  -5 70.3138 34.3202   1
  -9  -3   5 84.5125 18.6619   1
   9   3  -4 85.4068 61.7761   1
  -9  -3   4 89.0227 20.2581   1
  -9  -3   4 63.9143 32.9458   1
   9   3  -3 33.3601 36.0975   1
  -9  -3   3 39.3586 35.8154   1
  -9  -3   3 90.2713  56.932   1
   9   3  -2 980.262 54.7576   1
  -9  -3   2 783.444 36.1947   1
  -9  -3   2 944.224 83.7389   1
   9   3  -1 427.911  73.531   1
  -9  -3   1 453.462 30.1818   1
  -9  -3   1 407.451 40.8683   1
   9   3   0 31.0983 36.0047   1
  -9  -3   0 30.0228 26.3407   1
  -9  -3   0 54.3023 32.8727   1
   9   3   1 61.5065 36.3671   1
  -9  -3  -1-19.2238 27.1039   1
  -9  -3  -1 3.79675 32.3452   1
   9   3   2 319.868 43.0252   1
  -9  -3  -2 287.186 38.4199   1
   9   3   3 722.124 55.7951   1
  -9  -3  -3 660.654 47.9715   1
   9   3   4 22.2257 39.5051   1
  -9  -3  -4-29.2449 62.0752   1
   9   3   5 118.023 46.2304   1
  -9  -3  -5 164.137 37.4485   1
   9   3   6 775.445 65.9587   1
  -9  -3  -6 700.076 54.4959   1
   9   3   7 372.688 57.0987   1
  -9  -3  -7 308.488 47.8408   1
   9   3   8 767.861 70.3489   1
  -9  -3  -8 749.265 59.0766   1
   9   3   9 1289.83  94.258   1
  -9  -3  -9 1400.26 130.964   1
   9   3  10 1228.13 90.1615   1
  -9  -3 -10 1187.01 78.2143   1
   9   3  11 234.035 58.8653   1
  -9  -3 -11 279.335 85.3629   1
   9   3  12 1127.41 154.291   1
  -9  -3 -12 1098.79 75.3809   1
   9   3  13 310.167 106.616   1
  -9  -3 -13 308.556 52.0351   1
   9   3  14 118.672 56.2947   1
  -9  -3 -14 45.2048 80.5781   1
   9   3  15 44.0015 52.1823   1
  -9  -3 -15 20.5121 45.9358   1
   9   3  16-13.5579 95.7293   1
  -9  -3 -16 97.9497  49.895   1
   9   3  17 63.3796 56.1688   1
  -9  -3 -17 9.10983 50.0005   1
   9   3  18 60.2556 56.1821   1
  -9  -3 -18 51.8216 52.7478   1
  -9  -3 -19 46.5631 52.4417   1
   9   4 -11 59.1165 45.6789   1
   9   4  -9-0.33971 61.8225   1
   9   4  -8-40.6993 36.9139   1
   9   4  -7 69.3275 36.8493   1
   9   4  -6 195.285 38.5747   1
   9   4  -5 170.828 64.4922   1
  -9  -4   5 122.563 15.3015   1
   9   4  -4 143.288 37.6295   1
  -9  -4   4 67.5851 15.5651   1
  -9  -4   4 36.8208  35.886   1
   9   4  -3 298.136 73.1286   1
  -9  -4   3  224.96 19.5888   1
  -9  -4   3 249.726 40.5271   1
   9   4  -2 164.864 40.9305   1
  -9  -4   2 111.152   20.20   1
  -9  -4   2 139.496 37.7551   1
   9   4  -1 2798.70 170.803   1
  -9  -4   1 2381.75  72.796   1
  -9  -4   1 2691.95 105.579   1
   9   4   0 1091.37 59.6821   1
  -9  -4   0 885.387 60.9448   1
  -9  -4   0 1057.22 58.2752   1
   9   4   1 12.3512 37.6118   1
  -9  -4  -1 48.5117 35.1354   1
   9   4   2  144.31  40.504   1
  -9  -4  -2 89.5105 35.7703   1
   9   4   3 1959.00   88.05   1
  -9  -4  -3 1664.57 79.9126   1
   9   4   4 46.3406 41.3427   1
  -9  -4  -4 34.3948 62.6752   1
   9   4   5 750.921 58.5481   1
  -9  -4  -5 656.326 89.2743   1
   9   4   6 971.437 68.3031   1
  -9  -4  -6 808.308 57.3389   1
   9   4   7 2505.71 124.771   1
  -9  -4  -7 2341.74 105.737   1
   9   4   8 51.4544 47.7884   1
  -9  -4  -8  -11.76 39.5699   1
   9   4   9-26.1647  47.059   1
  -9  -4  -9-6.69018 40.4272   1
   9   4  10 634.427 67.3951   1
  -9  -4 -10 655.089  57.206   1
   9   4  11 23.6888 49.4199   1
  -9  -4 -11 30.8625 43.5878   1
   9   4  12  230.17 54.9183   1
  -9  -4 -12 260.577 48.8395   1
   9   4  13 1931.20 117.276   1
  -9  -4 -13 1804.28 155.177   1
   9   4  14 341.376 102.349   1
  -9  -4 -14 275.087 49.2372   1
   9   4  15-164.859 88.7683   1
  -9  -4 -15 62.8991 42.3047   1
   9   4  16-47.2043 51.9833   1
  -9  -4 -16-75.7557 43.4429   1
   9   4  17 198.103 57.4767   1
  -9  -4 -17 233.012 83.9514   1
  -9  -4 -18 255.957 88.2511   1
   9   5 -11 357.024 53.7865   1
   9   5 -10 41.2096 42.8912   1
   9   5 -10-11.0995 82.8204   1
   9   5  -9 -8.1085  39.901   1
   9   5  -9 10.0429 46.0021   1
   9   5  -8 166.904 44.1293   1
   9   5  -7 78.6262 68.9498   1
   9   5  -6 113.328 68.6175   1
   9   5  -5  12.949 38.2075   1
   9   5  -4 1329.21 76.3909   1
  -9  -5   4 1271.27 28.0077   1
   9   5  -3 812.378 60.9861   1
  -9  -5   3 785.615  35.201   1
  -9  -5   3 843.429 57.8621   1
   9   5  -2 290.179 47.7227   1
  -9  -5   2 303.722 29.8331   1
  -9  -5   2 393.994 44.5054   1
   9   5  -1 515.663 51.3294   1
  -9  -5   1 455.791 22.6643   1
  -9  -5   1  519.60 47.6562   1
  -9  -5   0 184.171 20.0776   1
  -9  -5   0 193.283 39.3164   1
   9   5   1 330.547 43.7308   1
  -9  -5  -1 299.995 41.8833   1
   9   5   2 1187.03  67.155   1
  -9  -5  -2 1056.65 61.6832   1
   9   5   3 2828.52 128.685   1
  -9  -5  -3 2604.40 183.965   1
   9   5   410522.40 563.129   1
  -9  -5  -410076.70 705.424   1
   9   5   5 1637.01 87.1426   1
  -9  -5  -5 1571.99 128.672   1
   9   5   6 2296.84 108.303   1
  -9  -5  -6 2182.51 96.9209   1
   9   5   7 1073.72 74.0228   1
  -9  -5  -7 1058.62 63.7302   1
   9   5   8  176.02 47.6016   1
  -9  -5  -8 78.3608 40.8725   1
   9   5   9 65.6738 47.1851   1
  -9  -5  -9 51.9417 39.1345   1
   9   5  10 717.186  65.089   1
  -9  -5 -10 682.253 96.4708   1
   9   5  11 1338.17  87.104   1
  -9  -5 -11 1219.03  73.649   1
   9   5  12 203.962  50.242   1
  -9  -5 -12 124.189   73.59   1
   9   5  13-9.49799 45.4179   1
  -9  -5 -13 51.1128 40.2466   1
   9   5  14 117.074 48.6405   1
  -9  -5 -14  59.044 41.4624   1
   9   5  15 166.407 53.0488   1
  -9  -5 -15  154.52  74.676   1
   9   5  16 78.6763 47.1008   1
  -9  -5 -16-25.1631 68.9514   1
  -9  -5 -17 95.1138 43.9929   1
   9   5  18 185.299 52.6401   1
  -9  -5 -18 162.908 45.9473   1
   9   5  19 176.708 52.7441   1
  -9  -5 -19 132.887 47.1637   1
   9   6 -10 339.144 54.4792   1
   9   6 -10 257.211 62.9097   1
   9   6  -9 368.601 54.7407   1
   9   6  -9 401.689 63.0081   1
   9   6  -8 1549.00  93.751   1
   9   6  -7 1267.65 81.4349   1
   9   6  -6 1365.43 82.1812   1
   9   6  -5 43.9758 73.1531   1
   9   6  -4 3827.83 187.622   1
   9   6  -3 648.795 61.0041   1
  -9  -6   3 643.315 22.5522   1
  -9  -6   3 717.055 57.4169   1
   9   6  -2 1222.25 128.752   1
  -9  -6   2 1352.04 122.794   1
   9   6  -1 1067.04 67.4253   1
  -9  -6   1 939.458 106.909   1
   9   6   0 309.783 47.0554   1
  -9  -6   0 277.289 29.5002   1
  -9  -6   0 211.967 74.7442   1
   9   6   1 1516.46 133.561   1
  -9  -6  -1 1647.69 126.916   1
   9   6   2 859.424 61.6241   1
  -9  -6  -2 1187.73   99.75   1
   9   6   3 154.751 42.8678   1
  -9  -6  -3 97.4172 68.5807   1
   9   6   4 135.388 43.4714   1
  -9  -6  -4 121.507  68.394   1
   9   6   5 1832.26 89.5707   1
  -9  -6  -5 1725.64 80.9172   1
   9   6   6 448.717 52.3703   1
  -9  -6  -6 441.545   46.09   1
   9   6   7 3190.94 145.471   1
  -9  -6  -7 3240.31  135.24   1
   9   6   8 4448.17 306.017   1
  -9  -6  -8 4225.99 179.335   1
   9   6   9 92.1014 75.7668   1
  -9  -6  -9 12.8382 36.8458   1
   9   6  10 512.402 94.6944   1
  -9  -6 -10 447.806 78.7763   1
   9   6  11 511.181 94.1397   1
  -9  -6 -11 391.504 46.6766   1
   9   6  12  556.12 100.081   1
  -9  -6 -12 700.988 85.9471   1
   9   6  13 11.8199 72.4443   1
  -9  -6 -13-42.9616  36.592   1
   9   6  14 95.7616 77.2581   1
  -9  -6 -14  110.47 66.0431   1
   9   6  15 123.893 77.4293   1
  -9  -6 -15 61.5571 64.8124   1
   9   6  16 129.889 47.9037   1
  -9  -6 -16 129.678 40.7859   1
   9   6  17 261.901 50.7543   1
  -9  -6 -17 272.493 45.6703   1
   9   6  18  33.331 44.9613   1
  -9  -6 -18-27.0449 40.0375   1
   9   6  19 5.07676 45.7938   1
  -9  -6 -19 -114.99 41.2524   1
   9   7 -10 391.467 70.0333   1
   9   7  -8 77.5453 55.3225   1
   9   7  -7 305.891 53.9538   1
   9   7  -6 1230.99 83.8018   1
   9   7  -5 74.6221 46.4447   1
   9   7  -4 1223.22 130.538   1
   9   7  -3 66.2197 46.2227   1
   9   7  -2 5282.57 269.214   1
  -9  -7   2 5333.95 255.496   1
   9   7  -1 375.259 50.7884   1
  -9  -7   1 284.464 19.6855   1
  -9  -7   1 360.581 49.7063   1
   9   7   0 1589.41 82.5221   1
  -9  -7   0 1435.71  48.173   1
  -9  -7   0 1603.56 82.4853   1
   9   7   1-52.7687 41.8189   1
  -9  -7  -1 25.2758 67.8364   1
   9   7   2 536.157 89.2867   1
  -9  -7  -2 542.669 85.4663   1
   9   7   3 1602.46 131.061   1
  -9  -7  -3 1516.15 127.505   1
   9   7   4 127.941 70.8338   1
  -9  -7  -4 6.31872 37.3136   1
   9   7   5 2523.58  170.05   1
  -9  -7  -5 2161.53 96.6402   1
   9   7   6-21.8658  68.835   1
  -9  -7  -6-1.56026 35.3104   1
   9   7   7  508.41 83.5918   1
  -9  -7  -7 324.177 41.5507   1
   9   7   8 29.7209 69.4834   1
  -9  -7  -8  9.5835 35.0322   1
   9   7   9 61.7619 42.5356   1
  -9  -7  -9 102.689 59.3851   1
   9   7  10 15.0902 41.5243   1
  -9  -7 -10-42.2047 33.7409   1
   9   7  11 214.452 45.3415   1
  -9  -7 -11 198.315 38.5683   1
   9   7  12-5.16932 40.4184   1
  -9  -7 -12 1.17141 57.1603   1
   9   7  13-49.6583 39.3637   1
  -9  -7 -13-11.2881 34.4769   1
   9   7  14 153.187 42.5271   1
  -9  -7 -14 207.125 63.3467   1
   9   7  15 40.9103 40.8188   1
  -9  -7 -15 34.7233 34.2136   1
   9   7  16  782.34 63.6858   1
  -9  -7 -16 792.036 54.1242   1
   9   7  17 862.366 65.4643   1
  -9  -7 -17 847.045 57.3252   1
   9   7  18-31.4497  41.086   1
  -9  -7 -18-16.6632  60.725   1
   9   7  19 41.5117  69.539   1
  -9  -7 -19 73.9499  62.865   1
   9   8  -9 332.942 60.8591   1
   9   8  -9 270.842 70.1351   1
   9   8  -8 24.0993 58.6708   1
   9   8  -5 34.2871 47.9177   1
   9   8  -4 41.8148 47.0793   1
   9   8  -3 758.234 111.128   1
   9   8  -2  359.54 53.4928   1
   9   8  -1  738.51 62.3549   1
  -9  -8   1 619.789 59.0265   1
   9   8   0 1886.08 96.1772   1
  -9  -8   0 1611.97 43.1725   1
  -9  -8   0 1890.81 92.3654   1
   9   8   1 229.053 81.2094   1
  -9  -8  -1 230.013 46.7419   1
   9   8   2 4722.74  213.87   1
  -9  -8  -2 4463.94 301.851   1
   9   8   3  598.85  55.057   1
  -9  -8  -3 570.952 89.3263   1
   9   8   4 6489.84 287.973   1
  -9  -8  -4 5739.51 263.963   1
   9   8   5 2835.91 126.852   1
  -9  -8  -5 2530.27 110.845   1
   9   8   6 5291.48  229.22   1
  -9  -8  -6 4835.64 211.806   1
   9   8   7 533.053 51.8096   1
  -9  -8  -7 551.286 46.3652   1
   9   8   8 317.254 43.1946   1
  -9  -8  -8 272.585 39.3331   1
   9   8   9 689.555 55.1393   1
  -9  -8  -9 689.681 80.4494   1
   9   8  10 361.486 47.6513   1
  -9  -8 -10 409.057  40.475   1
   9   8  11 79.1309 38.7132   1
  -9  -8 -11 1.61241 31.1116   1
   9   8  12 -68.409 63.7536   1
  -9  -8 -12 85.5585 51.6041   1
   9   8  13  124.22 64.7385   1
  -9  -8 -13 23.4431 32.2469   1
   9   8  14  415.22 74.9124   1
  -9  -8 -14 421.212 65.0942   1
   9   8  15 166.529 73.4528   1
  -9  -8 -15 303.455 37.5685   1
   9   8  16 127.453 70.8019   1
  -9  -8 -16 111.865 35.0248   1
   9   8  17 194.905 67.8831   1
  -9  -8 -17 164.516 58.6816   1
   9   8  18 20.1027 61.4366   1
  -9  -8 -18-29.4798 53.1381   1
   9   8  19-19.4235 62.8498   1
  -9  -8 -19-12.6904 54.2767   1
   9   9  -9 57.2064 55.8954   1
   9   9  -9 89.9333 64.9071   1
   9   9  -8-8.63052  53.145   1
   9   9  -7 43.2659   52.98   1
   9   9  -7 81.9035 59.6696   1
   9   9  -4 9.32886 49.3077   1
   9   9  -3 1004.00 76.5354   1
   9   9  -2 377.508 94.2649   1
   9   9  -1  100.77 46.2782   1
   9   9   0 53.6957 73.8798   1
  -9  -9   0 15.3004 11.1037   1
  -9  -9   0  58.801 41.2067   1
   9   9   1 1707.69 91.4997   1
  -9  -9  -1 1676.99  87.977   1
   9   9   2 95.2335 75.3077   1
  -9  -9  -2 101.309  41.222   1
   9   9   3 1817.46 151.824   1
  -9  -9  -3 1792.80 140.909   1
   9   9   4-7.14688  39.197   1
  -9  -9  -4-21.0903  36.803   1
   9   9   5  293.22 47.3024   1
  -9  -9  -5 287.112 43.4065   1
   9   9   6 1027.41 70.6574   1
  -9  -9  -6 1031.07 66.8349   1
   9   9   711234.90 704.061   1
  -9  -9  -712522.30 718.779   1
   9   9   8 399.237 48.7263   1
  -9  -9  -8 413.972 72.8884   1
   9   9   9 51.0758 62.3968   1
  -9  -9  -9 46.3396 32.0098   1
   9   9  10 146.076 67.5489   1
  -9  -9 -10 177.845 33.7682   1
   9   9  11 455.443 46.0466   1
  -9  -9 -11 475.131 64.6962   1
   9   9  12 177.645 38.2448   1
  -9  -9 -12 230.787  32.617   1
   9   9  13 861.979 55.2124   1
  -9  -9 -13 844.742 46.2151   1
   9   9  14 245.275 37.7203   1
  -9  -9 -14 192.726 32.5783   1
   9   9  15 55.1099 33.4094   1
  -9  -9 -15-54.4622 49.6112   1
   9   9  16 -19.969 34.7737   1
  -9  -9 -16 22.7005 28.8647   1
   9   9  17 51.5009 35.8931   1
  -9  -9 -17 92.5885 29.7234   1
   9   9  18 66.0872 34.1822   1
  -9  -9 -18  80.516 50.0063   1
   9   9  19 68.0058 33.9277   1
  -9  -9 -19 1.31764 49.9611   1
   9  10  -8-32.6957   56.09   1
   9  10  -8-101.255 65.6578   1
   9  10  -7 64.1755 53.3139   1
   9  10  -7-43.7143 62.0918   1
   9  10  -6 61.0985  53.417   1
   9  10  -4 13.2747 50.9111   1
   9  10  -3 488.767 61.9724   1
   9  10  -2 194.437 50.3556   1
   9  10  -1-10.0798   44.58   1
   9  10   0 105.516 44.2502   1
  -9 -10   0 53.7079 6.04555   1
   9  10   1 102.949 44.7365   1
  -9 -10  -1 196.826 42.9432   1
   9  10   2 109.663 41.8943   1
  -9 -10  -2 153.404 40.7751   1
   9  10   3  286.07  46.215   1
  -9 -10  -3 343.783  74.443   1
   9  10   4 637.969 51.8441   1
  -9 -10  -4 548.103 49.5552   1
   9  10   5 1376.00 118.923   1
  -9 -10  -5 1212.53 67.1824   1
   9  10   6 704.893 91.5581   1
  -9 -10  -6 497.109 50.2463   1
   9  10   7 9591.08 690.158   1
  -9 -10  -7 9660.40 659.478   1
   9  10   8 96.0478 38.1034   1
  -9 -10  -8 68.1202 34.5984   1
   9  10   9 23.3843 33.2698   1
  -9 -10  -9 5.21672 30.3684   1
   9  10  10 2059.40 88.0868   1
  -9 -10 -10 2065.39  79.277   1
   9  10  11 649.234 46.5127   1
  -9 -10 -11 613.321 65.6609   1
   9  10  12 1129.81 93.4556   1
  -9 -10 -12 1111.22 49.6407   1
   9  10  13 40.8986 55.0842   1
  -9 -10 -13 44.8004  45.652   1
   9  10  14 769.298 49.2606   1
  -9 -10 -14 840.622 43.4357   1
   9  10  15 268.468 35.7283   1
  -9 -10 -15 312.286  52.304   1
   9  10  16 37.6008 31.9839   1
  -9 -10 -16 27.4898  26.372   1
   9  10  17 83.4165 31.6065   1
  -9 -10 -17 38.0099  25.895   1
   9  10  18 199.684 34.3334   1
  -9 -10 -18 258.985 47.3192   1
   9  10  19-1.33598 29.9607   1
  -9 -10 -19 -25.187 43.0531   1
   9  11  -7 43.0154 58.0307   1
   9  11  -7 49.3617 66.1461   1
   9  11  -6 284.231  59.197   1
   9  11  -6 121.403 68.6282   1
   9  11  -3 199.185 54.3964   1
   9  11  -2 356.574 56.3217   1
   9  11   0 693.199   64.13   1
   9  11   1 367.319 85.9425   1
  -9 -11  -1 369.504   15.58   1
   9  11   2 1080.82 65.8126   1
  -9 -11  -2 912.512 32.0897   1
  -9 -11  -2 1072.41 65.0618   1
   9  11   3 301.439 44.0924   1
  -9 -11  -3 157.107 72.6677   1
   9  11   4 112.719 66.9126   1
  -9 -11  -4 70.1717 36.9374   1
   9  11   5  103.15 36.6796   1
  -9 -11  -5  80.218  36.123   1
   9  11   6 1423.70 74.3623   1
  -9 -11  -6 1547.20 70.3457   1
   9  11   7 1141.97 64.3858   1
  -9 -11  -7 1184.74 95.1201   1
   9  11   8 210.443 36.5639   1
  -9 -11  -8 127.762  33.079   1
   9  11   9 12.4926 32.0354   1
  -9 -11  -9 21.2201 29.2427   1
   9  11  10 1464.43 107.162   1
  -9 -11 -10 1642.80 96.5853   1
   9  11  11 427.565  39.802   1
  -9 -11 -11 473.086 34.2221   1
   9  11  12 15.1624 30.5273   1
  -9 -11 -12 33.4929 42.7912   1
   9  11  13 722.032 44.5239   1
  -9 -11 -13 698.882 38.1522   1
   9  11  14 906.434 81.8874   1
  -9 -11 -14 993.193 44.3482   1
   9  11  15 483.022  59.949   1
  -9 -11 -15 444.733 31.4252   1
   9  11  16 483.595 60.3166   1
  -9 -11 -16 457.675 50.3582   1
   9  11  17 77.3905 28.8797   1
  -9 -11 -17  23.786 23.8375   1
   9  11  18  96.923 29.0936   1
  -9 -11 -18 101.953 24.4355   1
   9  12  -6 168.433 62.1574   1
   9  12  -5-75.3364 66.1537   1
   9  12  -3 153.861 53.5259   1
   9  12  -2 80.9492  49.731   1
   9  12   0 115.723 46.6261   1
   9  12   1 208.462 45.4146   1
  -9 -12  -1  160.75 10.9597   1
   9  12   2 517.713 51.2361   1
  -9 -12  -2  454.85 14.4411   1
   9  12   3 198.788 69.8444   1
  -9 -12  -3 147.874 23.0965   1
  -9 -12  -3 188.884 39.6625   1
   9  12   4 21.5582 37.6842   1
  -9 -12  -4 31.1783 15.6916   1
  -9 -12  -4 52.1296 35.0197   1
   9  12   5 69.5466 36.0499   1
  -9 -12  -5 112.815  35.544   1
   9  12   6 2390.11 102.946   1
  -9 -12  -6 2381.78  149.40   1
   9  12   7 1754.49 79.5518   1
  -9 -12  -7 1694.36 72.4701   1
   9  12   8 1330.60 62.5371   1
  -9 -12  -8 1268.87 56.6108   1
   9  12   9 59.9722 32.3651   1
  -9 -12  -9 172.273 48.3434   1
   9  12  10 224.424  31.849   1
  -9 -12 -10 190.176 29.6148   1
   9  12  11 66.3062 49.0805   1
  -9 -12 -11 51.3423 25.2816   1
   9  12  12 12.4805 48.0226   1
  -9 -12 -12-43.6004 24.3712   1
   9  12  13 229.292 30.8468   1
  -9 -12 -13 212.237 27.2738   1
   9  12  14 231.494 30.3801   1
  -9 -12 -14 175.784 42.3722   1
   9  12  15-10.4643  41.845   1
  -9 -12 -15  -3.861 21.2744   1
   9  12  16-62.6312 43.0448   1
  -9 -12 -16 23.9222 20.6699   1
   9  12  17 56.4608 42.9963   1
  -9 -12 -17 64.4187 33.9886   1
   9  12  18 48.5802 24.8705   1
  -9 -12 -18 24.7528 20.1677   1
   9  13  -4 97.9609 63.1363   1
   9  13  -3 76.4023 53.9788   1
   9  13  -2 197.042 53.0056   1
   9  13  -1  36.446 47.2748   1
   9  13   0 319.205 51.0514   1
   9  13   1  68.384 42.3773   1
  -9 -13  -1 7.03862 7.49117   1
   9  13   2-22.9255 39.7797   1
  -9 -13  -2 15.9951 8.53713   1
   9  13   3 16.7368 38.1949   1
  -9 -13  -3 48.1221 12.2516   1
   9  13   4 68.7176 36.4917   1
  -9 -13  -4-17.1674 14.8162   1
   9  13   5 50.8504 34.4521   1
  -9 -13  -5 7.30347 17.9885   1
  -9 -13  -5 77.8335 33.1968   1
   9  13   6 390.216 64.7194   1
  -9 -13  -6 226.315 24.9576   1
  -9 -13  -6 248.919 61.6951   1
   9  13   7 247.814 60.5459   1
  -9 -13  -7 214.633 27.1749   1
  -9 -13  -7 207.348 34.3367   1
   9  13   8 305.624  59.107   1
  -9 -13  -8 272.641 33.3677   1
   9  13   9 355.374 56.7645   1
  -9 -13  -9 269.863 31.3458   1
   9  13  10 682.328 41.3092   1
  -9 -13 -10 751.151  37.644   1
   9  13  11 62.4719 27.2109   1
  -9 -13 -11 85.3314 40.2474   1
   9  13  12 274.516  30.129   1
  -9 -13 -12 253.346 25.8313   1
   9  13  13  89.967 43.3209   1
  -9 -13 -13 90.0984 37.3505   1
   9  13  14 81.0074 25.2778   1
  -9 -13 -14 80.5685 21.6145   1
   9  13  15 13.1973 23.0159   1
  -9 -13 -15 28.0129 19.6087   1
   9  13  16 29.8424 37.5678   1
  -9 -13 -16  96.501 32.0815   1
   9  13  17 55.2241 38.2116   1
  -9 -13 -17  15.482 18.1314   1
   9  14  -3 94.3967 56.5254   1
   9  14  -3 73.1833 62.8871   1
   9  14  -2-74.8355 51.4366   1
   9  14   0 14.2403 45.6919   1
   9  14   1 143.585 45.6125   1
  -9 -14  -2 134.478 9.68904   1
   9  14   3 590.583 49.6754   1
  -9 -14  -3 458.282 16.1944   1
   9  14   4 116.072 39.2235   1
  -9 -14  -4  126.72 25.8533   1
   9  14   5 345.294 66.6512   1
  -9 -14  -5 281.154 33.5136   1
   9  14   6 69.8073 55.9179   1
  -9 -14  -6-60.4799 34.0188   1
   9  14   7 2552.78 104.342   1
  -9 -14  -7 2526.15 86.0873   1
  -9 -14  -7 2669.10 102.164   1
   9  14   8 70.3657 31.1144   1
  -9 -14  -8 108.895 45.5038   1
  -9 -14  -8 5.98396 47.9165   1
   9  14   9 47.3104 28.5789   1
  -9 -14  -9 75.1304  29.719   1
  -9 -14  -9 83.8134 26.7586   1
   9  14  10-47.3691  44.488   1
  -9 -14 -10 43.4435 31.3502   1
  -9 -14 -10 8.07124 39.6337   1
   9  14  11-19.1072 41.7408   1
  -9 -14 -11 2.32072 34.4087   1
  -9 -14 -11 -20.079 22.4971   1
   9  14  12 44.6886 24.3566   1
  -9 -14 -12 69.1651 38.3792   1
  -9 -14 -12   33.75 35.4348   1
   9  14  13-15.2061 39.3626   1
  -9 -14 -13 7.90937 19.3834   1
   9  14  14 144.093 40.5026   1
  -9 -14 -14 172.589 33.8847   1
   9  14  15 18.1684 21.1355   1
  -9 -14 -15  59.989  48.215   1
  -9 -14 -15 12.8356 29.6194   1
   9  14  16 41.4585  33.017   1
  -9 -14 -16-3.96497 51.7587   1
   9  15  -2   58.17 55.0275   1
   9  15  -2 55.0018 59.8023   1
   9  15  -1  42.856 54.7119   1
   9  15   0 236.597 53.1185   1
   9  15   1 151.743 48.1402   1
   9  15   3 161.022 41.2012   1
  -9 -15  -3 111.275 20.0553   1
   9  15   4 120.537 39.2334   1
  -9 -15  -4 128.438 15.2082   1
   9  15   5 12.6964 61.2581   1
  -9 -15  -5  90.452 18.0228   1
   9  15   6 667.003 46.7998   1
  -9 -15  -6 635.381 31.2747   1
   9  15   7 34.0543 31.9291   1
  -9 -15  -7 27.7031 37.9537   1
   9  15   8 254.221 33.7876   1
  -9 -15  -8 276.348 29.1012   1
   9  15   9 53.8424 27.2084   1
  -9 -15  -9 45.1662 47.5352   1
  -9 -15  -9 28.7316 25.2234   1
   9  15  10 18.1245   25.60   1
  -9 -15 -10 1.39197 31.0163   1
  -9 -15 -10 72.4384 23.1736   1
   9  15  11 4.22624 39.1652   1
  -9 -15 -11 16.6376 34.1404   1
  -9 -15 -11 66.6048 35.4432   1
   9  15  12 41.5255  23.094   1
  -9 -15 -12 27.5356 64.0689   1
  -9 -15 -12 26.5484 19.9879   1
   9  15  13 128.808 23.2824   1
  -9 -15 -13 83.6956  71.808   1
  -9 -15 -13 64.9329  32.264   1
   9  15  14 63.7794 35.5744   1
  -9 -15 -14 106.434 78.3212   1
  -9 -15 -14 76.9884 28.9244   1
  -9 -15 -15  32.963 81.5921   1
   9  16   0 110.457 49.9151   1
   9  16   0  105.51 54.6433   1
   9  16   1 50.0427 45.3283   1
   9  16   2 139.845 45.1051   1
   9  16   3 3.72751 39.3893   1
   9  16   4  136.27 40.2421   1
  -9 -16  -4 149.645 25.0425   1
   9  16   5 15.8141 59.3186   1
  -9 -16  -5 38.3428 16.4693   1
   9  16   6 58.0462 32.5658   1
  -9 -16  -6 46.0771 20.5033   1
   9  16   7 201.054 34.3488   1
  -9 -16  -7 178.343 41.8473   1
   9  16   8 32.5849 29.0447   1
  -9 -16  -8 37.2003 25.2682   1
   9  16   9 40.0181   27.20   1
  -9 -16  -9 87.7662 47.0327   1
   9  16  10 34.0874 24.6349   1
  -9 -16 -10 23.2463 30.2723   1
   9  16  11 122.597 39.8859   1
  -9 -16 -11  166.29 35.6277   1
   9  16  12-0.78073 35.5545   1
  -9 -16 -12-3.21352 61.2049   1
   9  16  13 129.999 22.2666   1
  -9 -16 -13 164.332 73.4791   1
   9  17   3 249.025 44.8292   1
   9  17   4 243.291 42.4817   1
  -9 -17  -5 27.5253  27.198   1
   9  17   6 53.7615 32.8011   1
  -9 -17  -6 52.9971 31.3248   1
   9  17   7 395.905 38.4894   1
  -9 -17  -7 395.405 43.3004   1
   9  17   8-33.5449 28.6343   1
  -9 -17  -8 10.6464 25.2489   1
   9  17   9 347.342 33.2357   1
  -9 -17  -9 516.474 57.3944   1
   9  17  10  14.466 24.1436   1
  -9 -17 -10 52.7528 30.7794   1
   9  17  11 41.3058 35.7869   1
  -9 -17 -11 22.9505 34.5439   1
 -10   9   1 6.95619 62.0047   1
 -10   9   0 97.3974 65.6014   1
 -10   9   0 139.248 26.7346   1
  10  -9   1 51.5352 27.4873   1
 -10   9  -1-42.2678 58.1474   1
 -10   9  -1-19.1618 18.5105   1
  10  -9   2 212.809 44.8023   1
 -10   9  -2  105.36 58.3624   1
 -10   9  -2 75.2297 21.9899   1
  10  -9   3 197.627 57.0086   1
 -10   9  -3 256.277 60.4607   1
 -10   9  -3 137.107 25.8416   1
  10  -9   4 51.7148  58.128   1
 -10   9  -4 22.7055 91.7252   1
 -10   9  -4 10.0942 43.9118   1
 -10   8   4 40.0953  59.737   1
 -10   8   3 76.4444 59.9861   1
 -10   8   2 17.3118 58.3212   1
 -10   8   1 9.71406 59.1889   1
 -10   8   1 55.0573 15.0784   1
 -10   8   0 148.688 62.6498   1
 -10   8   0 129.717 28.8986   1
  10  -8   1 175.943  28.825   1
 -10   8  -1 347.485   60.66   1
  10  -8   2 7.05352 28.8184   1
 -10   8  -2-40.3479 53.7743   1
 -10   8  -2 20.8807 21.7821   1
  10  -8   3 153.578  33.553   1
 -10   8  -3-23.9114  57.483   1
 -10   8  -3  79.853 25.3366   1
  10  -8   4-30.4974 60.8555   1
 -10   8  -4 65.5131 54.9465   1
 -10   8  -4 42.4849 45.1643   1
  10  -8   5 13.5575  72.649   1
 -10   8  -5 240.671 95.6638   1
 -10   8  -5 107.738 32.0995   1
  10  -8   6-32.1497 44.5664   1
 -10   8  -6 11.2384 54.2958   1
 -10   8  -6  81.531 32.4183   1
  10  -8   7 77.3936 48.7346   1
 -10   8  -7 80.7191 53.5246   1
 -10   8  -7 37.5503  36.403   1
 -10   7   6-39.9791 55.5943   1
 -10   7   5 51.7658 56.1158   1
 -10   7   4 283.911 104.142   1
 -10   7   3-62.4995 57.2315   1
  10  -7  -2 2.31644 12.1344   1
 -10   7   2 28.1503 91.1921   1
 -10   7   2 23.6089 22.1274   1
  10  -7  -1 67.5397 21.7024   1
 -10   7   1 68.1684 56.4176   1
 -10   7   1 59.6016 16.1194   1
  10  -7   0-34.3995 40.5085   1
 -10   7   0-39.1249 50.3167   1
 -10   7   0-23.2538 27.6259   1
  10  -7   1 20.5492 47.7873   1
 -10   7  -1  54.625 52.3134   1
 -10   7  -1 59.5455 19.5327   1
  10  -7   2 265.782 37.1858   1
 -10   7  -2 443.596 63.9651   1
 -10   7  -2  306.89 27.4994   1
  10  -7   3  14.228 34.2892   1
 -10   7  -3-24.5411  53.738   1
 -10   7  -3-9.01789 24.4209   1
  10  -7   4 48.7194 62.9543   1
 -10   7  -4-18.8348  53.067   1
 -10   7  -4 53.9855 45.5097   1
  10  -7   5 145.374 74.3415   1
 -10   7  -5 279.716 58.3908   1
 -10   7  -5 186.039  34.313   1
  10  -7   6 170.315 46.2915   1
 -10   7  -6 123.757 94.9245   1
 -10   7  -6 125.414 35.1793   1
  10  -7   7  40.685 47.1207   1
 -10   7  -7  0.5731 51.8318   1
 -10   7  -7 11.7856 35.9369   1
 -10   7  -8 21.0322 50.8192   1
 -10   7  -8 0.54529 40.6559   1
  10  -7   9 87.3076 59.6233   1
 -10   7  -9  219.50 93.9728   1
 -10   7  -9 173.856  47.676   1
  10  -7  10 53.6494 61.1221   1
 -10   7 -10 76.0838  54.399   1
 -10   6   7 18.3491 87.0386   1
 -10   6   6 19.4758 51.1706   1
 -10   6   5 44.1446 51.6768   1
 -10   6   4 683.545 103.846   1
 -10   6   4 303.534 16.4262   1
  10  -6  -3 32.7032 18.0978   1
 -10   6   3 93.6475 53.1364   1
 -10   6   3-5.49994 13.7645   1
  10  -6  -2 305.421 40.3944   1
 -10   6   2 397.667 60.9778   1
 -10   6   2 323.438 30.4036   1
  10  -6  -1 283.713 45.5607   1
 -10   6   1 375.885  93.813   1
 -10   6   1 244.716  19.467   1
  10  -6   0 56.6746 26.3916   1
 -10   6   0 2.94557 48.3902   1
 -10   6   0-34.4781 30.3561   1
  10  -6   1 90.2006 31.4435   1
 -10   6  -1 212.043 54.6191   1
 -10   6  -1 134.608  35.079   1
  10  -6   2 30.2175 53.0378   1
 -10   6  -2-57.7552 51.2021   1
 -10   6  -2 9.55511   36.88   1
  10  -6   3 107.593 36.6463   1
 -10   6  -3 140.328  54.349   1
 -10   6  -3  116.25 43.6255   1
  10  -6   4 26.7567 39.0868   1
 -10   6  -4 122.287 52.4023   1
 -10   6  -4 78.8367 47.2959   1
  10  -6   5 111.784 75.6069   1
 -10   6  -5 113.482 55.8759   1
 -10   6  -5 146.668 32.5699   1
  10  -6   6 46.3578 46.3699   1
 -10   6  -6 74.0737  53.709   1
 -10   6  -6 50.6498 33.8865   1
  10  -6   7 275.673 89.2454   1
 -10   6  -7 100.326 96.2015   1
 -10   6  -7  108.98 38.3222   1
  10  -6   8 98.6737 51.6139   1
 -10   6  -8 89.1048  54.562   1
 -10   6  -8  73.658 42.2869   1
  10  -6   9 100.561 57.0069   1
 -10   6  -9 215.885 57.6466   1
 -10   6  -9 208.979 47.1791   1
 -10   6 -10-145.449 94.4036   1
  10  -6  11  107.64 65.7589   1
 -10   6 -11 162.375 51.9087   1
 -10   5   8 94.2404 48.8784   1
 -10   5   7 36.5706 48.2843   1
 -10   5   6 50.6823 82.8108   1
  10  -5  -5 29.8982 26.6502   1
 -10   5   5 70.1431  48.385   1
 -10   5   5 36.8695 13.3219   1
  10  -5  -4 81.8761 18.6588   1
 -10   5   4  160.71 51.5502   1
 -10   5   4  73.497 15.1038   1
  10  -5  -3 455.529 27.1966   1
 -10   5   3 806.264 104.086   1
 -10   5   3 446.154 33.9908   1
  10  -5  -2 21.5124 37.3134   1
 -10   5   2 124.111 50.1527   1
 -10   5   2 46.1476 16.8786   1
  10  -5  -1 22.1564 24.0506   1
 -10   5   1 20.5319 45.9821   1
 -10   5   1 19.4566 28.7364   1
  10  -5   0-2.30274 44.0945   1
 -10   5   0 80.0741 85.0538   1
 -10   5   0-14.9114 19.0386   1
  10  -5   1 299.437 35.8517   1
 -10   5  -1 400.253 57.2874   1
 -10   5  -1 258.797 24.9936   1
  10  -5   2 276.472 39.6389   1
 -10   5  -2 297.809 59.1309   1
 -10   5  -2  260.60 46.1065   1
  10  -5   3 774.415 55.6784   1
 -10   5  -3 821.877 119.606   1
 -10   5  -3 622.036 64.1294   1
  10  -5   4 73.8182 42.3894   1
 -10   5  -4 112.875 54.4833   1
 -10   5  -4 132.892 30.0566   1
  10  -5   5 57.1574  71.753   1
 -10   5  -5-46.4567 85.3143   1
 -10   5  -5 1.52881 31.3194   1
  10  -5   6 93.6174 47.5378   1
 -10   5  -6 215.633 55.1803   1
 -10   5  -6 95.1337 59.0602   1
  10  -5   7 91.7216 83.6338   1
 -10   5  -7 37.7625 54.4058   1
 -10   5  -7 89.3402 37.8531   1
  10  -5   8 36.8768 51.0732   1
 -10   5  -8 9.39719 81.6758   1
  10  -5   9   57.70 54.5055   1
 -10   5  -9 67.2364 49.6528   1
 -10   5  -9  45.861 44.4178   1
  10  -5  10 178.034 61.9619   1
 -10   5 -10 251.263 54.0096   1
 -10   5 -10 267.575 52.4064   1
  10  -5  11 15.7336 60.0717   1
 -10   5 -11 103.958 85.6252   1
 -10   5 -12 194.511 53.1791   1
 -10   5 -12 131.723 59.3563   1
  10  -5  13-32.3848 68.2674   1
 -10   5 -13 82.9162 49.6215   1
 -10   5 -13 -20.538 58.3696   1
 -10   4   8  460.19 56.3838   1
 -10   4   7 51.2608 44.9523   1
  10  -4  -6 693.582 28.8239   1
 -10   4   6 852.485 105.492   1
  10  -4  -5 65.6109 32.3164   1
 -10   4   5 87.1914 45.4031   1
 -10   4   5 40.5624 15.3304   1
  10  -4  -4 941.256 37.6556   1
 -10   4   4 1148.78 75.7847   1
  10  -4  -3 380.699 45.8279   1
 -10   4   3 418.464 56.2759   1
 -10   4   3 355.224 34.8838   1
  10  -4  -2 363.319 29.8235   1
 -10   4   2 335.221 88.2893   1
 -10   4   2 309.509 22.1955   1
  10  -4  -1 68.1032 45.0406   1
 -10   4   1 64.4165 44.6216   1
 -10   4   1 54.3732 32.2124   1
  10  -4   0 22.2604 28.0334   1
 -10   4   0 13.6936 47.2661   1
 -10   4   0 49.3599 20.4877   1
  10  -4   1 478.947 65.2556   1
 -10   4  -1 575.222 60.0659   1
 -10   4  -1 443.963 29.0969   1
  10  -4   2 680.386  48.819   1
 -10   4  -2 949.739 68.4433   1
 -10   4  -2 647.622  37.126   1
  10  -4   3-53.4495 65.8822   1
 -10   4  -3 33.6457 49.7049   1
 -10   4  -3 61.4167 27.4392   1
  10  -4   4 71.5797 41.6601   1
 -10   4  -4 66.1265 91.5027   1
 -10   4  -4  76.895 30.3885   1
  10  -4   5 135.766 79.9228   1
 -10   4  -5  180.51 54.7065   1
 -10   4  -5 76.2236 34.1986   1
  10  -4   6 687.228 65.8379   1
 -10   4  -6 735.747 114.269   1
 -10   4  -6 611.434 83.4191   1
  10  -4   7 70.9348 85.9017   1
 -10   4  -7 78.6852 49.6586   1
 -10   4  -7 69.7426 37.8117   1
  10  -4   8 60.6572 53.2036   1
 -10   4  -8 70.5656 83.2272   1
 -10   4  -8 139.696 69.6762   1
 -10   4  -9  69.656  49.527   1
 -10   4  -9-27.2661 43.9742   1
  10  -4  10-8.46672 57.7436   1
 -10   4 -10 -99.834 49.1858   1
 -10   4 -10-0.50978 47.3092   1
  10  -4  12-70.7654 63.4219   1
 -10   4 -13 85.5699 59.8878   1
  10  -4  14-83.0656  70.565   1
 -10   4 -14 66.4171 61.1575   1
  10  -3  -8 77.1768 28.5445   1
 -10   3   8  162.38 40.6735   1
  10  -3  -7-2.07352 29.8422   1
 -10   3   7 75.2019 40.1357   1
  10  -3  -6 1009.56 38.3426   1
 -10   3   6 1192.98 111.616   1
  10  -3  -5-8.40073 35.1844   1
 -10   3   5 39.6014 68.2908   1
 -10   3   5-9.12777 17.0333   1
  10  -3  -4 1079.77 43.0887   1
 -10   3   4 1221.51 73.1959   1
 -10   3   4 873.312 52.6126   1
  10  -3  -3 63.8967 44.7514   1
 -10   3   3 232.356 45.7838   1
 -10   3   3 123.017 20.2596   1
  10  -3  -2 1841.31   72.35   1
 -10   3   2 2174.19 101.634   1
 -10   3   2 1734.35 81.9926   1
  10  -3  -1 80.0658 28.5446   1
 -10   3   1 111.557 45.4439   1
 -10   3   1 64.1087 21.0233   1
  10  -3   0  284.70 59.3915   1
 -10   3   0 340.423 88.0819   1
 -10   3   0  256.38  42.553   1
  10  -3   1 80.4517 34.1751   1
 -10   3  -1 187.196 47.1555   1
 -10   3  -1 110.297 41.2087   1
  10  -3   2 409.007 43.6263   1
 -10   3  -2 557.831 59.0574   1
 -10   3  -2 409.124 54.9928   1
  10  -3   3 32.9122 36.8158   1
 -10   3  -3-3.91141 85.1045   1
 -10   3  -3  18.303 48.0792   1
  10  -3   4 57.1806 39.2413   1
 -10   3  -4 3.25708 50.9205   1
 -10   3  -4-20.9596 51.2166   1
  10  -3   5 94.7565 72.4898   1
 -10   3  -5  83.478 48.0446   1
 -10   3  -5 36.6703 57.4006   1
  10  -3   6 750.877 66.9943   1
 -10   3  -6 757.405 68.6427   1
 -10   3  -6 636.994 51.6784   1
  10  -3   7 1602.01 168.859   1
 -10   3  -7 1687.81  101.86   1
 -10   3  -7 1373.58 79.0349   1
  10  -3   8 70.0909 55.1617   1
 -10   3  -8 26.8775 50.9104   1
 -10   3  -8 55.1697 41.9025   1
  10  -3   9 519.861 68.5642   1
 -10   3  -9 347.496 96.0302   1
  10  -3  10-72.9894 57.3905   1
 -10   3 -10 10.2505 46.8802   1
  10  -3  11 44.4367 59.4842   1
 -10   3 -11 15.8674 48.3193   1
  10  -3  12 30.9988 63.8612   1
  10  -3  13  108.12 65.6977   1
 -10   3 -13 54.4158 57.2729   1
  10  -3  14 2.17832 68.6975   1
 -10   3 -14-8.86789 60.0501   1
  10  -3  15 153.704 76.3738   1
 -10   3 -15  90.083 68.3152   1
  10  -2  -9 76.9134 19.1867   1
  10  -2  -8 60.4088 32.1441   1
 -10   2   8 11.8195 35.4838   1
  10  -2  -7-12.4445  20.455   1
 -10   2   7-7.66467  60.019   1
  10  -2  -6 69.2744 36.5838   1
 -10   2   6-37.3303 62.3186   1
  10  -2  -5 46.4144  22.878   1
 -10   2   5 173.601 63.9492   1
 -10   2   5 62.0416  19.568   1
  10  -2  -4 2048.57 99.3873   1
 -10   2   4 2094.37 147.418   1
 -10   2   4 1733.19 82.0454   1
  10  -2  -3 43.7602 27.2616   1
 -10   2   3 121.549 41.9605   1
 -10   2   3  81.011 21.8375   1
  10  -2  -2 1943.71 71.0853   1
 -10   2   2 1852.16 92.3714   1
 -10   2   2 1668.29 59.3025   1
  10  -2  -1 57.0972 52.1128   1
 -10   2   1 84.5418 42.0772   1
 -10   2   1 30.8733 38.7753   1
  10  -2   0 2228.95 94.8084   1
 -10   2   0 2562.57 115.055   1
 -10   2   0 2036.48 73.0902   1
  10  -2   1 34.1679 35.1407   1
 -10   2  -1 121.508 77.3519   1
 -10   2  -1 48.4655 26.4984   1
  10  -2   2 3245.63 206.187   1
 -10   2  -2 3934.03 252.786   1
 -10   2  -2 2902.74 111.809   1
  10  -2   3 69.6969 40.9845   1
 -10   2  -3 37.9916  49.877   1
 -10   2  -3  76.276 31.3977   1
  10  -2   4 2114.68 107.601   1
 -10   2  -4 2346.66 122.666   1
 -10   2  -4 2007.77 90.7333   1
  10  -2   5 142.749 79.0768   1
 -10   2  -5 130.438 84.9434   1
 -10   2  -5 84.2899 36.0988   1
  10  -2   6  215.83  49.072   1
 -10   2  -6 134.762 53.6511   1
 -10   2  -6 130.835 40.6006   1
  10  -2   7 25.8229 88.7419   1
 -10   2  -7 44.0221 40.1368   1
  10  -2   8 16.6605 53.2469   1
 -10   2  -8 59.6322 41.1816   1
  10  -2   9 263.746 63.6152   1
 -10   2  -9 251.053 50.5695   1
  10  -2  10 46.8569 107.092   1
 -10   2 -10 163.158 51.0524   1
  10  -2  11   91.09 58.7833   1
 -10   2 -11  15.757 50.6468   1
 -10   2 -12 26.3854 51.1581   1
  10  -2  13-27.1226 63.1462   1
  10  -2  15 35.0787 72.1939   1
 -10   2 -15 176.115  65.559   1
 -10   2 -16 55.4617 66.9795   1
  10  -1 -10 208.082 39.5535   1
  10  -1 -10 163.837 26.7693   1
  10  -1  -9 75.3135 23.0787   1
  10  -1  -8 133.047 23.7444   1
  10  -1  -7 200.571 42.9576   1
 -10   1   7 264.874 59.0424   1
  10  -1  -6 174.959 26.5933   1
 -10   1   6 167.146 59.9106   1
  10  -1  -5 36.7281 42.0075   1
 -10   1   5 56.5663 57.0169   1
 -10   1   5 37.7521 21.7182   1
  10  -1  -4  425.87  33.599   1
 -10   1   4 431.485 73.4171   1
 -10   1   4 399.739 28.3296   1
  10  -1  -3 318.504 52.3971   1
 -10   1   3 356.279 70.5799   1
 -10   1   3  263.66 43.6502   1
  10  -1  -2 33.0298 27.6642   1
 -10   1   2 68.9719 58.8188   1
 -10   1   2-21.0756 23.2851   1
  10  -1  -1 18.4949 30.5033   1
 -10   1   1 27.6088 63.7301   1
 -10   1   1-9.45398 23.5106   1
  10  -1   0 556.989 76.0706   1
 -10   1   0  705.13 54.4881   1
 -10   1   0 561.116  35.627   1
  10  -1   1 586.312 82.6285   1
 -10   1  -1 658.031 56.4919   1
 -10   1  -1 546.208 62.8763   1
  10  -1   2 194.235 42.2422   1
 -10   1  -2 170.341 49.5417   1
 -10   1  -2 175.378 52.9337   1
  10  -1   3 587.013 54.7222   1
 -10   1  -3 629.541 57.8632   1
 -10   1  -3 498.373 42.5279   1
  10  -1   4 114.348 83.6904   1
 -10   1  -4 238.055 86.0216   1
 -10   1  -4 200.169 64.6482   1
  10  -1   5 387.655  56.574   1
 -10   1  -5 436.851 58.7332   1
 -10   1  -5 345.441 76.6189   1
  10  -1   6 505.901 61.1161   1
 -10   1  -6 468.139 49.4453   1
  10  -1   7 580.714 64.6743   1
 -10   1  -7 541.187 54.1047   1
  10  -1   8 73.6298 88.7007   1
 -10   1  -8-5.70722 72.5297   1
  10  -1   9 372.593 66.5807   1
 -10   1  -9 275.094 54.9207   1
  10  -1  10 201.048 64.4568   1
 -10   1 -10 186.004 89.3714   1
  10  -1  11-49.1346 60.0364   1
 -10   1 -11 16.3097 49.7399   1
  10  -1  12 68.4497 63.6766   1
 -10   1 -12 155.869 54.4873   1
 -10   1 -13 291.322 62.0795   1
  10  -1  14-22.0287 64.7901   1
  10  -1  16 149.604 72.3343   1
  10   0 -10 324.555 45.1089   1
  10   0 -10 257.788  31.829   1
  10   0  -9-8.49787 40.0816   1
  10   0  -8 29.0855 24.5099   1
  10   0  -7 275.278 29.7479   1
 -10   0   7 295.294 32.3677   1
  10   0  -6 401.225 52.9385   1
 -10   0   6 355.664 36.0716   1
  10   0  -5 341.481 33.9072   1
 -10   0   5 396.701 59.8948   1
 -10   0   5 336.482 46.9024   1
  10   0  -4 618.381 63.0058   1
 -10   0   4 622.367 72.1653   1
 -10   0   4 567.157 55.2913   1
  10   0  -3 341.062 34.1417   1
 -10   0   3 276.993 61.0824   1
 -10   0   3 280.576 29.0022   1
  10   0  -2 182.235 33.0344   1
 -10   0   2 171.856 61.2212   1
 -10   0   2 86.7192  27.225   1
  10   0  -1  610.50 69.9658   1
 -10   0   1 589.526 79.4259   1
 -10   0   1 441.924 59.4322   1
  10   0   0 623.411 78.3874   1
 -10   0   0 814.124 87.0526   1
 -10   0   0 601.085 39.3257   1
  10   0   1 94.5101 37.9503   1
 -10   0  -1 97.7148 72.7507   1
 -10   0  -1 131.358 30.5179   1
  10   0   2 46.3266 38.5486   1
 -10   0  -2 -17.402  68.121   1
 -10   0  -2 36.9532 30.9025   1
  10   0   3  6.2855 41.7786   1
 -10   0  -3 66.2676 69.7642   1
 -10   0  -3 8.65556  30.648   1
  10   0   4 2079.58 175.162   1
 -10   0  -4 2213.19 111.081   1
 -10   0  -4 1848.35  87.623   1
  10   0   5  360.85 55.4941   1
 -10   0  -5 397.593 45.9308   1
  10   0   6 127.508 51.5414   1
 -10   0  -6 91.1633 41.8989   1
  10   0   7 725.603 72.8205   1
 -10   0  -7 755.566 102.836   1
  10   0   8 495.444 113.159   1
 -10   0  -8 414.605 56.1876   1
  10   0   9 1123.27 91.0212   1
 -10   0  -9  930.75  127.35   1
  10   0  10 7113.14 444.293   1
 -10   0 -10 6533.66 380.579   1
  10   0  11 317.558 124.354   1
 -10   0 -11 347.334 98.4409   1
  10   0  12 86.4187 63.4643   1
 -10   0 -12 72.6582 52.8469   1
  10   0  13 49.9062  63.019   1
 -10   0 -13-103.052 54.7276   1
 -10   0 -14 -25.951 54.2115   1
  10   0  15-47.2246 64.2271   1
 -10   0 -15 52.4562 57.4345   1
  10   0  17 65.4148 69.5598   1
  10   1 -10 73.1531  47.631   1
  10   1 -10  9.8998 31.2803   1
  10   1  -9 52.9106 45.1944   1
  10   1  -8 38.6826 27.0826   1
  10   1  -7-9.11127 27.2404   1
 -10  -1   7 16.4275 23.9405   1
  10   1  -6 261.702 55.8567   1
 -10  -1   6  261.31 29.4132   1
  10   1  -5 383.093 36.0013   1
 -10  -1   5 343.129 32.1484   1
 -10  -1   5 340.476 32.2082   1
  10   1  -4 173.948 55.2505   1
 -10  -1   4 159.695 49.5157   1
 -10  -1   4 128.807 28.2036   1
  10   1  -3 240.205  36.022   1
 -10  -1   3 267.479 52.2636   1
 -10  -1   3 207.578 51.2251   1
  10   1  -2 895.643  50.674   1
 -10  -1   2 811.787 48.4109   1
 -10  -1   2 820.965 71.6657   1
  10   1  -1 719.375 77.3999   1
 -10  -1   1 536.502  43.077   1
 -10  -1   1 563.324 38.9462   1
  10   1   0 1742.46 79.8685   1
 -10  -1   0 1687.41 77.0889   1
 -10  -1   0 1624.28 68.9335   1
  10   1   1 730.349 52.4615   1
 -10  -1  -1 699.892 54.8558   1
 -10  -1  -1 693.301 44.8271   1
  10   1   2 1425.51 74.1646   1
 -10  -1  -2 1274.19 70.9592   1
 -10  -1  -2 1289.89 99.8178   1
  10   1   3 71.9582 72.8844   1
 -10  -1  -3 63.1975 40.3993   1
 -10  -1  -3 101.726 58.8924   1
  10   1   4 441.404 52.3964   1
 -10  -1  -4 403.128 71.9354   1
  10   1   5 114.798 49.5756   1
 -10  -1  -5 128.967 39.2652   1
  10   1   6 144.387 53.2645   1
 -10  -1  -6 205.478 43.9005   1
  10   1   7 842.966 76.2721   1
 -10  -1  -7 748.641 62.0642   1
  10   1   8 1775.45 192.181   1
 -10  -1  -8 1862.95 163.435   1
  10   1   9 436.103 65.0247   1
 -10  -1  -9 385.474 56.4713   1
  10   1  10 2169.25 136.783   1
 -10  -1 -10 2031.37 188.906   1
  10   1  11-20.9997 60.5726   1
 -10  -1 -11 81.4296 49.7815   1
  10   1  12-104.951 99.3774   1
 -10  -1 -12 21.4505 47.8248   1
  10   1  13 76.4638 64.1067   1
 -10  -1 -13 131.182 92.5328   1
  10   1  14 707.767 88.1806   1
 -10  -1 -14  735.89 77.1249   1
 -10  -1 -15 -16.024 55.1427   1
  10   1  16 48.6896 63.7257   1
 -10  -1 -16 31.6809 57.3272   1
  10   1  17 94.4267 65.4207   1
 -10  -1 -17-15.3721 58.6743   1
 -10  -1 -18 49.8605 61.3183   1
  10   2 -10 114.419 53.3678   1
  10   2 -10 19.7544  35.416   1
  10   2  -9 40.7465 31.5626   1
  10   2  -8  491.92 41.5332   1
  10   2  -7 163.418 34.5239   1
  10   2  -6 287.851 58.5501   1
 -10  -2   6 221.853 40.9897   1
  10   2  -5 326.026 38.2683   1
 -10  -2   5 363.962 27.2303   1
 -10  -2   5 352.807 34.8692   1
  10   2  -4 62.4687 52.9284   1
 -10  -2   4 11.7009 23.8198   1
 -10  -2   4 16.1345 28.4804   1
  10   2  -3 13.7259 32.8074   1
 -10  -2   3 -6.1598 40.4759   1
 -10  -2   3 29.9072 29.1838   1
  10   2  -2 1622.82 112.338   1
 -10  -2   2 1384.92 56.6744   1
 -10  -2   2 1355.19 61.8616   1
  10   2  -1 523.071 47.0481   1
 -10  -2   1 421.955 37.1996   1
 -10  -2   1 513.116 40.5288   1
  10   2   0 1009.77  60.385   1
 -10  -2   0 920.812 83.7999   1
 -10  -2   0 1001.35 87.4428   1
  10   2   1 1319.25 70.9203   1
 -10  -2  -1 1204.42 97.7702   1
 -10  -2  -1 1254.07 98.9357   1
  10   2   2 867.319 97.4473   1
 -10  -2  -2 780.938 89.5893   1
 -10  -2  -2 839.604 84.5737   1
  10   2   3 26.4236 70.2868   1
 -10  -2  -3 33.3047 35.2189   1
  10   2   4 981.656 68.9785   1
 -10  -2  -4 913.402 56.6729   1
  10   2   5 273.271   52.34   1
 -10  -2  -5 225.106  75.008   1
  10   2   6 2873.33 150.523   1
 -10  -2  -6 2464.57 194.753   1
  10   2   7 1968.02  119.32   1
 -10  -2  -7 1915.07 102.634   1
  10   2   8 440.606 66.2654   1
 -10  -2  -8 454.929 55.6213   1
  10   2   9 148.722 99.2986   1
 -10  -2  -9 121.177 82.4114   1
  10   2  10-47.7935 52.0002   1
 -10  -2 -10 48.8988 46.3199   1
  10   2  11 200.308 59.3556   1
 -10  -2 -11  167.04 89.8658   1
  10   2  12 790.287 80.9666   1
 -10  -2 -12 692.194 66.6636   1
  10   2  13 391.634 121.338   1
 -10  -2 -13  334.59 57.9127   1
  10   2  14 1337.13 111.092   1
 -10  -2 -14 1294.79 150.954   1
  10   2  15 70.0996  60.708   1
 -10  -2 -16 73.0413 54.1558   1
  10   2  17-27.5679 63.4229   1
 -10  -2 -17 48.8217  56.321   1
  10   2  18 378.629 73.3608   1
 -10  -2 -18 290.394 68.0746   1
  10   3 -10 177.867 38.3004   1
  10   3 -10 105.954 41.6266   1
  10   3  -9-35.2776 34.0206   1
  10   3  -8 23.9045 34.1113   1
  10   3  -7 319.541 67.7545   1
  10   3  -6 842.409 54.2133   1
 -10  -3   6 799.032 30.7945   1
  10   3  -5 8.10573 34.8073   1
 -10  -3   5 20.3853 32.2727   1
  10   3  -4 1693.93 120.826   1
 -10  -3   4 1637.29 51.3255   1
 -10  -3   4 1773.60 111.715   1
  10   3  -3 2053.16  90.966   1
 -10  -3   3 1882.75 90.4027   1
 -10  -3   3 2168.58 128.763   1
  10   3  -2 979.693 99.8296   1
 -10  -3   2 939.811 40.7955   1
 -10  -3   2 973.868 87.9593   1
  10   3  -1 223.823 42.6748   1
 -10  -3   1  161.32 48.9558   1
 -10  -3   1 247.031  65.071   1
  10   3   0 588.736 51.6899   1
 -10  -3   0 521.723 39.1321   1
 -10  -3   0 556.967 46.7261   1
  10   3   1 165.859 41.8057   1
 -10  -3  -1 111.646 30.1812   1
 -10  -3  -1 60.6497 36.7141   1
  10   3   2 2658.39 186.245   1
 -10  -3  -2 2462.13 101.675   1
 -10  -3  -2 2526.73  105.22   1
  10   3   3 1058.62 70.5126   1
 -10  -3  -3 1078.53 61.0888   1
  10   3   4 53.0394 43.6756   1
 -10  -3  -4 34.8037 39.6167   1
  10   3   513565.50 889.347   1
 -10  -3  -512530.20 784.968   1
  10   3   6 92.3312 51.7174   1
 -10  -3  -6 80.7545  42.416   1
  10   3   7 1872.60 119.616   1
 -10  -3  -7 1943.30 162.087   1
  10   3   8 1854.17 117.047   1
 -10  -3  -8 1831.52 102.417   1
  10   3   9 217.352 60.1943   1
 -10  -3  -9 263.822 50.5621   1
  10   3  10 2272.77 219.009   1
 -10  -3 -10 2151.93  184.51   1
  10   3  11 312.562 58.8073   1
 -10  -3 -11 187.099 52.8689   1
  10   3  12 79.0348 54.2488   1
 -10  -3 -12  97.873 47.2543   1
  10   3  13-101.762 57.4976   1
 -10  -3 -13 6.78035 80.1586   1
  10   3  14 26.8581 59.1215   1
 -10  -3 -14  73.409 47.8326   1
  10   3  15 85.8132 99.0871   1
 -10  -3 -15 30.6917 48.7988   1
  10   3  16 444.484 72.0913   1
 -10  -3 -16 489.862 62.2417   1
  10   3  17-70.2664 61.9738   1
  10   4 -10 282.898 49.7187   1
  10   4  -9 67.2201 64.2035   1
  10   4  -8 175.163 40.3917   1
  10   4  -7 42.5889 36.6885   1
  10   4  -6 528.359 48.5049   1
  10   4  -5 41.6093 63.1701   1
 -10  -4   5 12.3532 25.7705   1
  10   4  -4 613.792 53.8255   1
 -10  -4   4 668.494 39.3083   1
 -10  -4   4 629.421 48.2964   1
  10   4  -3 2342.67 104.445   1
 -10  -4   3 2035.04 57.8147   1
 -10  -4   3 2276.04 96.3703   1
  10   4  -2 6484.23 294.385   1
 -10  -4   2 5810.78 211.926   1
 -10  -4   2 6416.46 282.378   1
  10   4  -1 1247.95 114.784   1
 -10  -4   1 1018.98 67.6417   1
 -10  -4   1 1170.76 64.4757   1
  10   4   0 3185.06 131.543   1
 -10  -4   0 2479.92 97.4222   1
 -10  -4   0 3002.13 123.805   1
  10   4   1 1416.58 76.5039   1
 -10  -4  -1 1138.77 80.2669   1
 -10  -4  -1 1294.11 69.9079   1
  10   4   2 27.7572 72.0237   1
 -10  -4  -2 49.3827 36.3237   1
  10   4   3  121.62 79.5229   1
 -10  -4  -3 174.354 40.1349   1
  10   4   4 313.799 51.3552   1
 -10  -4  -4 311.069 44.5303   1
  10   4   5 397.427 53.7194   1
 -10  -4  -5 367.214 49.1936   1
  10   4   6 5883.25 300.171   1
 -10  -4  -6 5286.62  262.07   1
  10   4   7 3327.02 178.334   1
 -10  -4  -7 3168.52 152.759   1
  10   4   8 2062.13 125.223   1
 -10  -4  -8 2004.42 171.337   1
  10   4   9 549.401 66.7668   1
 -10  -4  -9 539.067  57.352   1
  10   4  10 69.4542 51.6937   1
 -10  -4 -10-77.8042 75.0845   1
  10   4  11 744.518 127.217   1
 -10  -4 -11 793.376 66.0208   1
  10   4  12 313.656 103.953   1
 -10  -4 -12 409.455 90.9437   1
  10   4  13 91.6059 51.8391   1
 -10  -4 -13 76.1154 46.2186   1
  10   4  14 75.2597 54.5713   1
 -10  -4 -14 96.5624 46.7485   1
  10   4  15 545.946  72.288   1
 -10  -4 -15 513.248 98.5287   1
  10   4  16-74.1082 92.9806   1
 -10  -4 -16 40.8926 45.6553   1
  10   4  17  23.613 92.9536   1
 -10  -4 -17-8.40455 46.9174   1
  10   4  18 34.5065 57.3705   1
 -10  -4 -18 65.9117 48.9773   1
  10   4  19 19.6909 56.0361   1
 -10  -4 -19-14.4167 49.4332   1
  10   5 -10 846.639 69.2866   1
  10   5  -9 96.2228 42.0034   1
  10   5  -9 67.0312 49.4775   1
  10   5  -8-13.7305 39.8673   1
  10   5  -7-88.6771 68.6663   1
  10   5  -6 54.5981 67.4497   1
  10   5  -5-6.21676 38.7438   1
  10   5  -4 9.54528 39.3964   1
 -10  -5   4 -20.318 21.9391   1
  10   5  -3 3.65807 68.4306   1
 -10  -5   3  11.694 24.0134   1
 -10  -5   3-20.6325 62.4362   1
  10   5  -2 679.474 56.7208   1
 -10  -5   2 565.515 39.0437   1
 -10  -5   2 614.324  51.248   1
  10   5  -1 1303.30 116.551   1
 -10  -5   1 994.575 56.9646   1
 -10  -5   1 1220.21 68.2555   1
  10   5   0 1361.82 74.9289   1
 -10  -5   0 1158.82 43.3491   1
 -10  -5   0 1243.80 71.0037   1
  10   5   1 3303.11 144.451   1
 -10  -5  -1 2868.86 94.8962   1
 -10  -5  -1 3174.51 133.191   1
  10   5   2 2848.21 132.435   1
 -10  -5  -2 2696.52 120.742   1
  10   5   3 131.125 83.4497   1
 -10  -5  -3 188.569  42.953   1
  10   5   4 4256.64 291.627   1
 -10  -5  -4 3901.70 171.613   1
  10   5   5 32.0046 46.9567   1
 -10  -5  -5 61.1651 39.6867   1
  10   5   6  445.05 56.4683   1
 -10  -5  -6 403.132 51.3833   1
  10   5   7 3065.01 160.167   1
 -10  -5  -7 2988.99 141.662   1
  10   5   8 450.093 60.6426   1
 -10  -5  -8 368.518 87.8572   1
  10   5   9 196.191 56.0771   1
 -10  -5  -9 261.993 47.0382   1
  10   5  10 24.6673 49.8189   1
 -10  -5 -10 50.0004 42.9759   1
  10   5  11 279.336 58.0632   1
 -10  -5 -11 356.708 84.4188   1
  10   5  12 80.3858  49.388   1
 -10  -5 -12 41.3619 42.0859   1
  10   5  13 311.218 55.4742   1
 -10  -5 -13 251.695 48.3143   1
  10   5  14 26.6643 85.6455   1
 -10  -5 -14-51.7672 73.5271   1
  10   5  15 224.801 92.3467   1
 -10  -5 -15 117.125 47.2143   1
  10   5  16 335.343 62.9726   1
 -10  -5 -16 416.705 53.6231   1
  10   5  17 107.508 51.7273   1
 -10  -5 -17-16.1671 45.9207   1
  10   5  18 531.901  70.963   1
 -10  -5 -18 582.791 105.886   1
 -10  -5 -19 163.438 85.4966   1
  10   6  -9  222.71 49.4147   1
  10   6  -9 296.704 58.1483   1
  10   6  -8 35.0244  44.005   1
  10   6  -7 471.844 55.3946   1
  10   6  -6 465.332 54.2768   1
  10   6  -5 1411.81 136.919   1
  10   6  -4 213.993 46.8007   1
  10   6  -3 11.1117 41.5881   1
 -10  -6   3 6.03461 17.4828   1
 -10  -6   3-13.4167   39.57   1
  10   6  -2 236.624   76.43   1
 -10  -6   2 118.394 12.9358   1
 -10  -6   2 156.242 43.1023   1
  10   6  -1  45.564  44.645   1
 -10  -6   1 74.4316   25.57   1
 -10  -6   1 51.5827 71.9877   1
  10   6   0 132.298 75.2107   1
 -10  -6   0 78.4992  31.946   1
 -10  -6   0 64.3814 71.7377   1
  10   6   1-62.2886 42.2101   1
 -10  -6  -1 124.426  69.481   1
  10   6   2 1002.88 69.0349   1
 -10  -6  -2 931.132 108.591   1
  10   6   3 3330.03 151.138   1
 -10  -6  -3 2901.62 135.129   1
  10   6   4 407.397  93.277   1
 -10  -6  -4 398.184 50.1062   1
  10   6   5 6285.77 426.852   1
 -10  -6  -5 5577.92 262.972   1
  10   6   6 1643.23 155.725   1
 -10  -6  -6 1598.22 84.7427   1
  10   6   7 202.331 87.4791   1
 -10  -6  -7 247.435 45.1459   1
  10   6   8 154.795 50.0357   1
 -10  -6  -8 179.283  73.059   1
  10   6   9 387.262 58.5683   1
 -10  -6  -9 452.633 49.3517   1
  10   6  10 583.837 63.2719   1
 -10  -6 -10 488.815 52.8426   1
  10   6  11  583.30 62.9127   1
 -10  -6 -11 614.782 92.7392   1
  10   6  12 140.115 51.2216   1
 -10  -6 -12 207.144  43.579   1
  10   6  13 268.285 52.1257   1
 -10  -6 -13  267.45 78.2765   1
  10   6  14-23.0216 46.3898   1
 -10  -6 -14 96.0885 39.9909   1
  10   6  15 336.298  58.116   1
 -10  -6 -15 392.722 48.5367   1
  10   6  16-140.154 50.5382   1
 -10  -6 -16 98.4411 70.6701   1
  10   6  17  81.349 84.3831   1
 -10  -6 -17 62.5021  72.998   1
  10   6  18-34.5255 82.6518   1
 -10  -6 -18 45.0907 43.2957   1
  10   6  19 27.6584 49.5864   1
 -10  -6 -19-15.9145 44.2393   1
  10   7  -9 412.479 69.8823   1
  10   7  -6  208.09 50.2085   1
  10   7  -5 121.908 47.8441   1
  10   7  -4 310.511 52.6434   1
  10   7  -3 512.633 93.4967   1
 -10  -7   3  408.20 14.1361   1
  10   7  -2 3708.41 182.612   1
 -10  -7   2 3633.06 176.014   1
  10   7  -1 696.365 106.015   1
 -10  -7   1 689.922 60.4713   1
  10   7   0 3604.02 172.778   1
 -10  -7   0 3545.12 164.871   1
  10   7   1 2378.87 189.924   1
 -10  -7  -1 2394.06 113.349   1
  10   7   2 275.391 49.5225   1
 -10  -7  -2 346.316 82.2189   1
  10   7   3 79.7517 45.4389   1
 -10  -7  -3 185.639 74.7509   1
  10   7   4  56.457 45.3349   1
 -10  -7  -4 64.7055 41.3377   1
  10   7   5 1935.19 103.837   1
 -10  -7  -5 1761.49 92.1861   1
  10   7   6 2514.28 126.537   1
 -10  -7  -6 2433.07 115.169   1
  10   7   7 266.672 81.1163   1
 -10  -7  -7 131.418 43.0921   1
  10   7   8 164.295 84.9968   1
 -10  -7  -8 197.075 73.4135   1
  10   7   9 1066.31 126.967   1
 -10  -7  -9 1033.47 107.752   1
  10   7  10  810.40  116.45   1
 -10  -7 -10  849.16 57.1612   1
  10   7  11 21.4076 79.7899   1
 -10  -7 -11 131.014 67.4619   1
  10   7  12 2613.24 212.542   1
 -10  -7 -12 2673.52 118.467   1
  10   7  13 44.2706 74.0482   1
 -10  -7 -13-24.0661  64.733   1
  10   7  14 151.596 74.7674   1
 -10  -7 -14 58.6725 38.6048   1
  10   7  15 95.2764 76.5754   1
 -10  -7 -15 101.805 67.8504   1
  10   7  16 80.7057  78.842   1
 -10  -7 -16 30.3119 66.4229   1
  10   7  17  134.35 47.4127   1
 -10  -7 -17 34.9048 40.1998   1
  10   7  18  74.295 45.7305   1
 -10  -7 -18 23.4839  39.553   1
  10   7  19 34.0464 46.2499   1
 -10  -7 -19 45.7704 39.6497   1
  10   8  -8 427.265 64.4874   1
  10   8  -8 403.043 73.5627   1
  10   8  -7-28.4162 49.8292   1
  10   8  -5  14.633 48.4025   1
  10   8  -4 1847.25 109.873   1
  10   8  -3 290.581  53.575   1
  10   8  -2 1016.36 123.102   1
  10   8  -1  208.71 49.3509   1
 -10  -8   1 147.836 14.0335   1
 -10  -8   1 141.709   46.79   1
  10   8   0 446.257 93.1738   1
 -10  -8   0 382.615 23.0435   1
 -10  -8   0 476.961 54.3506   1
  10   8   1  69.819 46.4494   1
 -10  -8  -1 149.914  44.756   1
  10   8   2 1084.75  73.316   1
 -10  -8  -2 989.812 69.0815   1
  10   8   3 4106.64 302.422   1
 -10  -8  -3 4285.81 290.883   1
  10   8   4 4542.82 224.934   1
 -10  -8  -4 5138.06 327.478   1
  10   8   5   57.73 46.9502   1
 -10  -8  -5 126.962 42.9285   1
  10   8   6 4753.03 227.209   1
 -10  -8  -6 4542.76 209.516   1
  10   8   7 292.308 50.2619   1
 -10  -8  -7 179.357 44.9768   1
  10   8   8 1314.96 80.5747   1
 -10  -8  -8 1256.99 119.601   1
  10   8   9 -16.779 43.3025   1
 -10  -8  -9 70.0559 37.7491   1
  10   8  10 477.706 54.1752   1
 -10  -8 -10 437.107 45.7206   1
  10   8  11 644.862 58.5203   1
 -10  -8 -11 672.902 81.0995   1
  10   8  12 381.234 50.1506   1
 -10  -8 -12 389.459 41.8451   1
  10   8  13 1155.82 74.0949   1
 -10  -8 -13 1124.90 101.081   1
  10   8  14 62.1894 41.4316   1
 -10  -8 -14 16.0835 35.9714   1
  10   8  15 418.329 49.6622   1
 -10  -8 -15 299.999 72.9736   1
  10   8  16 1038.23 74.1397   1
 -10  -8 -16 1028.80  64.589   1
  10   8  17 489.613 55.9139   1
 -10  -8 -17 444.353 48.3583   1
  10   8  18-33.9042 41.7316   1
 -10  -8 -18 -17.716 36.8635   1
  10   8  19 120.327 72.2797   1
 -10  -8 -19 12.0337 62.6203   1
  10   9  -8 99.4526 56.5806   1
  10   9  -8 98.5056 63.9616   1
  10   9  -7 227.883 58.1756   1
  10   9  -6 18.1289 50.8439   1
  10   9  -3 376.601 57.9247   1
  10   9  -2 91.7776 49.1297   1
  10   9  -1 10.0605 46.6744   1
  10   9   0 3205.87 163.085   1
 -10  -9   0 3250.36 241.416   1
  10   9   1 379.077 55.4997   1
 -10  -9  -1 449.786 53.6553   1
  10   9   2 2867.49 144.186   1
 -10  -9  -2 3208.84 143.237   1
  10   9   3 654.994 60.4835   1
 -10  -9  -3  686.50 57.9367   1
  10   9   4  660.76 63.0653   1
 -10  -9  -4 759.296  96.727   1
  10   9   5 2577.39 187.669   1
 -10  -9  -5 2048.61 104.025   1
  10   9   6 7297.18 542.603   1
 -10  -9  -6 6621.40 343.169   1
  10   9   7 8603.08 512.612   1
 -10  -9  -7 9634.19 516.306   1
  10   9   8 5389.23 280.066   1
 -10  -9  -8 6083.94 385.999   1
  10   9   9 290.224 79.8544   1
 -10  -9  -9 326.739 42.1968   1
  10   9  10 308.817 75.2641   1
 -10  -9 -10 235.681 38.6134   1
  10   9  11 276.281 77.5139   1
 -10  -9 -11 348.412 65.6666   1
  10   9  12 79.3407 67.0013   1
 -10  -9 -12 74.8897  33.274   1
  10   9  13 59.7277 65.7344   1
 -10  -9 -13-33.5267 54.0282   1
  10   9  14 342.374 74.4186   1
 -10  -9 -14 327.807 37.7746   1
  10   9  15  101.18 65.1918   1
 -10  -9 -15-19.0512 55.0536   1
  10   9  16 1043.20 108.762   1
 -10  -9 -16 951.107  58.384   1
  10   9  17 712.952 92.9714   1
 -10  -9 -17  621.83 47.1676   1
  10   9  18-33.2859 67.2989   1
 -10  -9 -18 64.4926 33.2187   1
  10   9  19  84.253 67.1191   1
 -10  -9 -19 179.677 59.8775   1
  10  10  -7 99.1527 57.8086   1
  10  10  -7 83.8808 65.4037   1
  10  10  -6-101.586 55.7428   1
  10  10  -5 57.1756 52.8357   1
  10  10  -3 314.251 58.0986   1
  10  10  -2 204.619 53.3533   1
  10  10  -1 58.7964 83.3682   1
  10  10   0 1215.12 81.4043   1
 -10 -10   0 1175.57 79.4383   1
  10  10   1 1141.88 78.3353   1
 -10 -10  -1 1194.15 123.279   1
  10  10   2 55.2406 43.7746   1
 -10 -10  -2 46.7391 42.2601   1
  10  10   3 320.298 82.3069   1
 -10 -10  -3 317.466 47.0029   1
  10  10   4 3477.63  159.47   1
 -10 -10  -4 3864.21 241.751   1
  10  10   5 364.808 50.4475   1
 -10 -10  -5 333.856 45.9631   1
  10  10   6 2429.12 120.194   1
 -10 -10  -6 2312.69 109.081   1
  10  10   713753.90 924.762   1
 -10 -10  -713955.00 905.177   1
  10  10   8 402.629 50.9686   1
 -10 -10  -8 470.742 77.2456   1
  10  10   9 186.299 40.5354   1
 -10 -10  -9 206.813 37.3618   1
  10  10  10 1157.89 67.5935   1
 -10 -10 -10 1177.95 60.0787   1
  10  10  11 501.907 48.3697   1
 -10 -10 -11 518.166 68.7508   1
  10  10  12 547.949 47.9269   1
 -10 -10 -12 525.739 40.8787   1
  10  10  13 28.3197 36.0546   1
 -10 -10 -13  86.142 51.8273   1
  10  10  14 32.2026 35.5145   1
 -10 -10 -14 16.6572 30.4401   1
  10  10  15 198.698 39.8193   1
 -10 -10 -15 267.319 57.4223   1
  10  10  16 50.1222  33.929   1
 -10 -10 -16 12.7225 29.6027   1
  10  10  17  74.472 36.6941   1
 -10 -10 -17 68.6897 29.3086   1
  10  10  18-26.5136 35.8882   1
 -10 -10 -18 0.10712 28.9844   1
  10  10  19 69.3163 36.3284   1
 -10 -10 -19 79.6911 51.9752   1
  10  11  -6 16.8639 56.2529   1
  10  11  -6-56.7556  64.634   1
  10  11  -5 76.4458 57.2295   1
  10  11  -4 99.7183  53.831   1
  10  11  -2 21.8958 50.0236   1
  10  11  -1  100.69 49.6013   1
  10  11   0 48.0184 79.5307   1
  10  11   1 1016.98 66.9056   1
 -10 -11  -1 689.858  18.986   1
  10  11   2 464.476 91.7894   1
 -10 -11  -2 466.286 53.2178   1
  10  11   3 25.6551 41.8953   1
 -10 -11  -3 57.4079 40.1074   1
  10  11   4 106.866 41.2614   1
 -10 -11  -4 105.816 68.2128   1
  10  11   5 130.457 70.0737   1
 -10 -11  -5 112.476 39.0028   1
  10  11   6 58.3017 67.5519   1
 -10 -11  -6 79.3576 37.4921   1
  10  11   7 138.556 72.5886   1
 -10 -11  -7 100.214 39.2837   1
  10  11   8 7333.03  372.34   1
 -10 -11  -8 8264.74 503.617   1
  10  11   9 208.127 42.8746   1
 -10 -11  -9 275.557 37.3002   1
  10  11  10 1814.73  135.17   1
 -10 -11 -10 2016.31 124.356   1
  10  11  11 477.576  73.404   1
 -10 -11 -11 453.731 38.6149   1
  10  11  12-34.7027 58.3475   1
 -10 -11 -12  47.735 28.8722   1
  10  11  13 0.06532 33.4871   1
 -10 -11 -13 34.0644 48.1925   1
  10  11  14 229.968 39.7764   1
 -10 -11 -14  332.00 33.1147   1
  10  11  15 81.7854 32.8634   1
 -10 -11 -15 65.5112 28.7327   1
  10  11  16 174.332 33.8873   1
 -10 -11 -16  104.97  49.379   1
  10  11  17 48.3018 32.3712   1
 -10 -11 -17 16.1781 27.0877   1
  10  11  18 37.3111 33.3899   1
 -10 -11 -18 31.2679 26.9373   1
  10  12  -5 18.8489  57.173   1
  10  12  -5 6.90909 65.3301   1
  10  12  -4 176.811 60.3918   1
  10  12  -2 39.6376 49.7247   1
  10  12  -1-4.43327 48.1232   1
  10  12   1 68.7675 44.3935   1
 -10 -12  -1 26.6209 6.83572   1
  10  12   2 550.496 84.6054   1
 -10 -12  -2 297.757 18.0459   1
  10  12   3 283.601 47.5438   1
 -10 -12  -3 229.155 14.3193   1
 -10 -12  -3 254.323 44.9186   1
  10  12   4 798.288 96.0496   1
 -10 -12  -4 808.378 59.0332   1
  10  12   5 40.5993 38.0488   1
 -10 -12  -5 22.9953 63.5225   1
  10  12   6 1077.34 64.8654   1
 -10 -12  -6 1099.17 61.8813   1
  10  12   7  95.919 38.6419   1
 -10 -12  -7 85.2253 59.9102   1
  10  12   8  537.18 46.8426   1
 -10 -12  -8 450.257 42.2539   1
  10  12   9 440.893 43.3196   1
 -10 -12  -9 400.619 38.6845   1
  10  12  10 47.1222 32.5828   1
 -10 -12 -10 5.81256 51.4253   1
  10  12  11  3.6889 32.3043   1
 -10 -12 -11 46.6857 28.6233   1
  10  12  12 977.551 54.2393   1
 -10 -12 -12 990.916 76.0058   1
  10  12  13 860.654 84.5587   1
 -10 -12 -13 902.255 45.2764   1
  10  12  14 391.035 64.4434   1
 -10 -12 -14 430.408 55.2273   1
  10  12  15 236.488 56.2584   1
 -10 -12 -15 249.412 29.4381   1
  10  12  16-7.71635 29.0072   1
 -10 -12 -16 90.2752 41.1024   1
  10  12  17 51.7889 29.5364   1
 -10 -12 -17 3.91381 39.6291   1
  10  12  18 113.733 32.6165   1
 -10 -12 -18 149.027 25.8806   1
  10  13  -4  370.04 69.9308   1
  10  13  -4 405.321 79.5905   1
  10  13  -1 234.043 53.7083   1
  10  13   0 24.9189 46.8767   1
  10  13   1  277.29 51.6132   1
  10  13   2 202.087 47.3947   1
 -10 -13  -2 180.569 14.5317   1
  10  13   3-13.8301 41.4693   1
 -10 -13  -3-24.1437 18.0511   1
  10  13   4 100.356 68.3838   1
 -10 -13  -4 60.6937 14.5511   1
 -10 -13  -4 78.1213 38.5115   1
  10  13   5 156.863 39.9467   1
 -10 -13  -5 156.159 18.9419   1
 -10 -13  -5 181.053 65.7421   1
  10  13   6 141.762 39.3774   1
 -10 -13  -6 131.674 37.7444   1
  10  13   7-0.93278 37.1855   1
 -10 -13  -7 66.4657 57.3657   1
  10  13   8  42.059 58.6843   1
 -10 -13  -8 24.3316 32.1129   1
  10  13   9-0.92931 56.8166   1
 -10 -13  -9 37.2977 29.8787   1
  10  13  10 206.079 58.6797   1
 -10 -13 -10 289.817 32.8254   1
  10  13  11 260.557 34.8381   1
 -10 -13 -11  239.27  30.752   1
  10  13  12 11.6123 29.7719   1
 -10 -13 -12 50.7615 43.7294   1
  10  13  13 59.5935 29.9873   1
 -10 -13 -13 44.2435 25.7722   1
  10  13  14-10.5134 27.7072   1
 -10 -13 -14-2.95375 23.9406   1
  10  13  15-69.6713 47.6863   1
 -10 -13 -15 90.0756 39.0948   1
  10  13  16 180.554  47.923   1
 -10 -13 -16 124.952   24.44   1
  10  13  17 82.1565 46.2576   1
 -10 -13 -17 73.9357 37.3656   1
  10  14  -3-131.605 66.2493   1
  10  14  -1 86.8779 51.9986   1
  10  14   0 307.583 56.7492   1
  10  14   1 113.301 47.3439   1
  10  14   2 16.7007 43.4372   1
  10  14   3  -39.89 41.6246   1
 -10 -14  -3 1.33235 16.4801   1
  10  14   4 86.9255 40.1003   1
 -10 -14  -4 53.5142 22.8098   1
  10  14   5 39.7693 37.1196   1
 -10 -14  -5 0.12659 26.3919   1
  10  14   6-24.3956 61.2606   1
 -10 -14  -6-5.50731 18.8442   1
 -10 -14  -6-9.06747 34.5186   1
  10  14   7 353.928 70.9002   1
 -10 -14  -7 332.857 27.2245   1
 -10 -14  -7 378.579 66.1527   1
  10  14   8 162.992 61.4377   1
 -10 -14  -8 134.707 27.7996   1
 -10 -14  -8 161.997 35.0784   1
  10  14   9 228.211 57.8845   1
 -10 -14  -9 155.777 53.5705   1
  10  14  10 8.76763 52.6858   1
 -10 -14 -10 78.1569 28.1087   1
  10  14  11 126.395 50.1623   1
 -10 -14 -11 167.442 45.7549   1
  10  14  12  247.17 53.9991   1
 -10 -14 -12 280.078 28.5679   1
  10  14  13 41.6679 28.1483   1
 -10 -14 -13 20.8856 39.5683   1
  10  14  14 365.652 34.0601   1
 -10 -14 -14 408.867 29.6295   1
  10  14  15 464.862  35.586   1
 -10 -14 -15 500.696 30.7516   1
  10  14  16  68.618 41.9172   1
 -10 -14 -16 55.0833 35.2774   1
  10  15  -1 154.849 56.5358   1
  10  15   0-61.4803 50.1398   1
  10  15   1 10.7694 47.6957   1
  10  15   2 118.237 47.1797   1
  10  15   3 140.901 76.7817   1
  10  15   4 262.024 45.2928   1
 -10 -15  -4 187.366 24.2206   1
  10  15   5 488.761 47.9696   1
 -10 -15  -5 451.263  22.253   1
  10  15   6  35.726 61.6975   1
 -10 -15  -6 24.7314 30.3542   1
  10  15   7 421.395 71.3272   1
 -10 -15  -7 417.302 44.0394   1
  10  15   8 1408.73 69.5417   1
 -10 -15  -8 1381.59 56.2921   1
 -10 -15  -8 1542.31 66.9818   1
  10  15   9 186.877 34.4789   1
 -10 -15  -9 243.982 50.6066   1
 -10 -15  -9 202.568 53.0853   1
  10  15  10 24.4551 29.6006   1
 -10 -15 -10 43.5671 50.3979   1
 -10 -15 -10 13.0816 26.3127   1
  10  15  11 38.9253 26.7941   1
 -10 -15 -11 -1.8462 32.8543   1
 -10 -15 -11 16.8251 41.4058   1
  10  15  12 23.6312 44.3912   1
 -10 -15 -12 37.7183 36.6317   1
 -10 -15 -12 16.6807 23.7259   1
  10  15  13 123.228 44.2053   1
 -10 -15 -13 86.3499 40.3833   1
 -10 -15 -13 34.0101 22.8091   1
  10  15  14 78.8869   25.40   1
 -10 -15 -14 74.8915 45.4903   1
 -10 -15 -14 65.4286 35.8631   1
  10  15  15 301.174 29.3107   1
 -10 -15 -15 368.783 55.2792   1
 -10 -15 -15 289.169 24.6482   1
  10  16   1 16.8101 49.3675   1
  10  16   2-34.4942 46.6494   1
  10  16   3  19.475 73.6542   1
  10  16   4  30.031 40.3884   1
  10  16   5-82.4239 37.3419   1
 -10 -16  -5 38.5646 23.4787   1
  10  16   6 87.6888 59.3202   1
 -10 -16  -6 43.5613 30.1412   1
  10  16   7 26.0858  34.154   1
 -10 -16  -7 4.32323 21.2708   1
  10  16   8 502.091  44.592   1
 -10 -16  -8 559.399 33.1611   1
  10  16   9 322.673  37.133   1
 -10 -16  -9  326.16 32.5363   1
  10  16  10  78.634 30.3469   1
 -10 -16 -10  165.89 52.5047   1
 -10 -16 -10 139.995 26.9518   1
  10  16  11  30.837 26.2788   1
 -10 -16 -11  -7.669 33.1027   1
 -10 -16 -11 10.1666 24.1398   1
  10  16  12 131.957 27.4501   1
 -10 -16 -12  191.12 39.7984   1
 -10 -16 -12 157.255 39.8476   1
  10  16  13 33.8564 40.4677   1
 -10 -16 -13-23.2114 39.6101   1
 -10 -16 -13 6.14824 20.8217   1
  10  17   4 62.1792 41.4327   1
  10  17   5 12.0279 36.9531   1
  10  17   6 3.04671 58.2721   1
 -10 -17  -6-6.88649 16.9358   1
  10  17   7 114.821  35.231   1
 -10 -17  -7 94.3064 22.0862   1
  10  17   8 235.807 35.8491   1
 -10 -17  -8 218.194 44.7493   1
  10  17   9 140.154 32.0785   1
 -10 -17  -9 151.962 29.3259   1
  10  17  10 46.3769 28.0454   1
 -10 -17 -10 21.8537  48.475   1
  10  17  11 113.231 26.4388   1
 -11   8   0-72.1586 60.7068   1
 -11   8   0 29.6677 27.7634   1
  11  -8   1-28.5177 17.9626   1
 -11   8  -1-118.692 97.4297   1
 -11   8  -1-34.2413 30.5866   1
  11  -8   2 85.1962 30.6415   1
 -11   8  -2 108.089 61.3655   1
 -11   8  -2 131.915 23.2264   1
  11  -8   3-2.79024 32.2748   1
 -11   8  -3 50.3455 95.6739   1
 -11   8  -3 14.1458  39.659   1
 -11   7   3 418.826 72.8735   1
 -11   7   2 107.307 102.537   1
  11  -7  -1 53.0446 21.5532   1
 -11   7   1 57.4842 58.8733   1
 -11   7   1 50.9477 16.4151   1
  11  -7   0 63.2188 41.0371   1
 -11   7   0  104.95 102.832   1
 -11   7   0 108.191 31.1281   1
  11  -7   1  66.433 48.9202   1
 -11   7  -1 107.496 57.9225   1
 -11   7  -1 67.4337 33.4494   1
  11  -7   2 181.793 33.9298   1
 -11   7  -2 354.962 106.475   1
 -11   7  -2 118.932 24.2871   1
  11  -7   3  150.56  35.646   1
 -11   7  -3 141.062 62.1255   1
 -11   7  -3 70.9246   42.98   1
  11  -7   4 151.053  39.845   1
 -11   7  -4 64.0648 102.063   1
 -11   7  -4 131.541 48.7807   1
  11  -7   5 136.962 76.1711   1
 -11   7  -5 291.173 64.7957   1
 -11   7  -5 207.436 34.2371   1
  11  -7   6-9.40672 43.9468   1
 -11   7  -6 24.8132 56.7994   1
 -11   7  -6-16.9354 33.9348   1
  11  -7   7 15.4794 48.0995   1
 -11   7  -7 82.1684 96.5382   1
 -11   7  -7 1.48884  36.733   1
 -11   7  -8 4.09076 56.1595   1
 -11   6   5 32.5483 52.9004   1
 -11   6   4 31.6975 92.7172   1
 -11   6   3  133.61 55.3264   1
 -11   6   3 54.7353 14.9885   1
  11  -6  -2 16.2881 34.3058   1
 -11   6   2 59.7494 53.1712   1
 -11   6   2   9.767 25.7885   1
  11  -6  -1 42.4255 40.5789   1
 -11   6   1 63.7468 54.2512   1
 -11   6   1 34.9067 17.2931   1
  11  -6   0-28.4023 27.0906   1
 -11   6   0 81.3061  51.611   1
 -11   6   0-36.5317 31.0796   1
  11  -6   1 352.549 36.8254   1
 -11   6  -1 620.666 104.467   1
 -11   6  -1 276.686   40.21   1
  11  -6   2  53.148   55.60   1
 -11   6  -2 81.5924 56.6501   1
 -11   6  -2 42.9749 38.6511   1
  11  -6   3 105.514 36.7903   1
 -11   6  -3 68.1355 43.9681   1
  11  -6   4 105.893 38.7161   1
 -11   6  -4-35.1294 57.2909   1
 -11   6  -4 61.9433 47.8419   1
  11  -6   5 86.1178 71.1001   1
 -11   6  -5 76.9076 93.7127   1
 -11   6  -5-2.26293 30.8285   1
  11  -6   6 37.6061 45.1463   1
 -11   6  -6 49.5794 54.0716   1
 -11   6  -6-6.64665 33.9962   1
  11  -6   7 149.475 51.4875   1
 -11   6  -7 44.1499 56.9859   1
 -11   6  -7 89.8021 38.3555   1
 -11   6  -8 243.897  108.72   1
 -11   6  -8 203.135 44.2982   1
  11  -6   9-8.38386  55.398   1
 -11   6  -9 129.114 59.0052   1
 -11   6  -9 56.9441 43.5486   1
  11  -6  10-12.8894 57.3581   1
 -11   6 -10 32.8326 56.7178   1
 -11   5   6 18.5782 48.8618   1
 -11   5   5-41.5376 49.4036   1
 -11   5   4 240.253 54.3716   1
 -11   5   4 128.794 25.8563   1
  11  -5  -3 50.6735 32.4982   1
 -11   5   3 74.7151  85.536   1
 -11   5   3-21.7215 15.8552   1
  11  -5  -2-5.81489 21.8993   1
 -11   5   2-14.1925 50.1774   1
 -11   5   2 34.6293  27.705   1
  11  -5  -1 72.1615 24.0482   1
 -11   5   1 83.1921 48.0542   1
 -11   5   1 6.47763 18.2578   1
  11  -5   0 37.6475 44.4604   1
 -11   5   0 103.337 49.1332   1
 -11   5   0 52.9968 19.5349   1
  11  -5   1 124.133 32.2024   1
 -11   5  -1 109.221 53.7582   1
 -11   5  -1 101.535 37.2801   1
  11  -5   2-3.01543 33.6153   1
 -11   5  -2-36.6254 37.6727   1
  11  -5   3 0.37255 63.0335   1
 -11   5  -3-68.7531 51.4896   1
 -11   5  -3-11.7865 42.9982   1
  11  -5   4 86.3029 41.5595   1
 -11   5  -4 68.7878 94.8469   1
 -11   5  -4 56.4839 29.6016   1
  11  -5   5 715.054 101.277   1
 -11   5  -5 671.118 76.2312   1
 -11   5  -5 630.968 45.0232   1
  11  -5   6 9.34165 45.8519   1
 -11   5  -6  -86.96 93.0664   1
 -11   5  -6 45.3977 57.8711   1
  11  -5   7 532.483 63.8928   1
 -11   5  -7 616.058 74.3774   1
 -11   5  -7 427.438 50.2159   1
  11  -5   8-32.1032  52.436   1
 -11   5  -8 -26.133 57.4588   1
 -11   5  -8-21.1374 66.7351   1
  11  -5   9 161.563 56.1942   1
 -11   5  -9 11.5208 90.8822   1
 -11   5  -9 5.26474 43.6937   1
 -11   5 -10 13.1234 52.6791   1
  11  -5  11-92.7229 60.7697   1
 -11   5 -11-4.50508 51.5016   1
 -11   5 -11 70.9913  50.617   1
 -11   4   7  288.34 88.9621   1
 -11   4   6  244.39 88.4058   1
  11  -4  -5 23.2409 18.5268   1
 -11   4   5-50.9725  45.892   1
 -11   4   5  16.017 15.5795   1
  11  -4  -4 81.8176 35.3011   1
 -11   4   4 114.062  49.327   1
 -11   4   4 69.9802 27.8754   1
  11  -4  -3 203.144 42.1568   1
 -11   4   3 179.563 51.5798   1
 -11   4   3 190.376 19.7431   1
  11  -4  -2 -13.014 24.5051   1
 -11   4   2 118.383 79.7562   1
 -11   4   2 21.5015  30.482   1
  11  -4  -1 1.66335 44.5548   1
 -11   4   1 86.7321 45.5957   1
 -11   4   1 23.3276 32.5974   1
  11  -4   0 460.801 37.6284   1
 -11   4   0 600.217 64.1756   1
 -11   4   0 470.536 28.1269   1
  11  -4   1 24.1669 52.2755   1
 -11   4  -1  36.665 84.2784   1
 -11   4  -1 49.1027 23.0199   1
  11  -4   2-40.1108 33.8217   1
 -11   4  -2-22.9435  51.896   1
 -11   4  -2-29.1666 24.1977   1
  11  -4   3 306.198 72.8132   1
 -11   4  -3 604.027 102.814   1
 -11   4  -3 328.664 32.8732   1
  11  -4   4 3.82344  40.444   1
 -11   4  -4 4.49971 51.6982   1
 -11   4  -4-4.67742  28.935   1
  11  -4   5 25.1642 74.0367   1
 -11   4  -5-49.0761 93.5749   1
 -11   4  -5-28.1103  30.934   1
  11  -4   6 139.874 48.7876   1
 -11   4  -6 50.7801 57.0624   1
 -11   4  -6 8.96651 59.9063   1
  11  -4   7 22.2154  85.251   1
 -11   4  -7 47.5001 87.4995   1
 -11   4  -7-25.8205 37.3792   1
  11  -4   8 65.1416 55.6936   1
 -11   4  -8 96.3535 55.2553   1
 -11   4  -8 260.142 73.2387   1
  11  -4   9 188.739 61.7469   1
 -11   4  -9 184.963 58.3083   1
 -11   4  -9 290.774 47.2792   1
  11  -4  10 140.912 61.3758   1
 -11   4 -10 148.632 94.3941   1
 -11   4 -10 92.5246 47.5163   1
  11  -4  11 65.9661 62.1094   1
 -11   4 -11-8.24864 53.8176   1
 -11   4 -12 124.972 55.8517   1
 -11   4 -12 124.811 55.1805   1
  11  -4  13 -154.72 66.9648   1
 -11   4 -13-21.0592 53.3823   1
 -11   4 -13 130.853 56.7539   1
 -11   3   8 64.6416 41.1997   1
 -11   3   7  109.07 73.0102   1
  11  -3  -6 99.8753 21.6743   1
 -11   3   6 73.8492 74.5808   1
  11  -3  -5 182.842  23.963   1
 -11   3   5 178.853 46.3562   1
 -11   3   5 131.644 19.6355   1
  11  -3  -4 338.186 45.7348   1
 -11   3   4 378.032 50.4254   1
 -11   3   4 247.639 35.7962   1
  11  -3  -3 421.971 33.3103   1
 -11   3   3 476.005 55.4211   1
 -11   3   3 416.985 40.2254   1
  11  -3  -2   18.41 44.1468   1
 -11   3   2 113.467 73.3873   1
 -11   3   2 23.2336 20.3536   1
  11  -3  -1 163.654 30.9635   1
 -11   3   1  129.17 78.4277   1
 -11   3   1 130.906 37.7277   1
  11  -3   0 98.4418  52.676   1
 -11   3   0-68.2937 46.5148   1
 -11   3   0 72.3942 37.2177   1
  11  -3   1 22.6744 32.6576   1
 -11   3  -1-45.1575 47.3494   1
 -11   3  -1-59.5588 24.5162   1
  11  -3   2 146.057 38.0616   1
 -11   3  -2 239.144 87.4468   1
 -11   3  -2 165.427 27.9434   1
  11  -3   3 221.511 43.1435   1
 -11   3  -3 334.443 55.7779   1
 -11   3  -3 227.257 32.7275   1
  11  -3   4  104.22 41.9124   1
 -11   3  -4 160.055 55.8411   1
 -11   3  -4 37.0292 53.4822   1
  11  -3   5 73.3731 73.5932   1
 -11   3  -5 105.226 54.3779   1
 -11   3  -5 78.6692 57.4889   1
  11  -3   6 34.9814 48.6298   1
 -11   3  -6 87.6804 52.2187   1
 -11   3  -6 83.1817 36.1095   1
  11  -3   7 385.927 103.912   1
 -11   3  -7 430.191 62.7824   1
 -11   3  -7 401.408  46.668   1
  11  -3   8 293.326 63.4666   1
 -11   3  -8 234.494 103.181   1
 -11   3  -8  337.69 47.3285   1
  11  -3   9 7.26703 98.5889   1
 -11   3  -9 114.458 53.7825   1
 -11   3  -9 83.0381 43.5996   1
  11  -3  10-25.5711 57.4538   1
 -11   3 -10 26.2866 44.5979   1
  11  -3  12 1.05888   62.60   1
 -11   3 -12 7.43584 51.4308   1
 -11   3 -13 52.0664 57.8415   1
  11  -3  14-17.7826 70.9182   1
 -11   3 -14-25.7148 60.6032   1
  11  -2  -8-14.3959 31.5801   1
 -11   2   8 14.8784 36.4091   1
  11  -2  -7  20.913 20.8114   1
 -11   2   7-14.7717 61.8169   1
  11  -2  -6 596.263 32.4365   1
 -11   2   6 582.162 86.4764   1
  11  -2  -5 357.661 47.0545   1
 -11   2   5 386.107 74.8297   1
 -11   2   5 289.178 24.1635   1
  11  -2  -4 205.712 28.0322   1
 -11   2   4 223.296  44.494   1
 -11   2   4 190.617 22.8428   1
  11  -2  -3 95.4205 48.2659   1
 -11   2   3 116.166 43.6484   1
 -11   2   3 158.521 36.9363   1
  11  -2  -2 27.2754 28.0896   1
 -11   2   2-13.5021 38.7345   1
 -11   2   2 20.1952 21.4609   1
  11  -2  -1 191.202 33.9708   1
 -11   2   1 233.445 46.5179   1
 -11   2   1 183.289 25.9913   1
  11  -2   0 144.674 58.8347   1
 -11   2   0-51.2947 78.7709   1
 -11   2   0 128.039 25.1931   1
  11  -2   1 402.626  42.262   1
 -11   2  -1 428.227 55.6358   1
 -11   2  -1 371.646 52.7445   1
  11  -2   2 73.4045 63.9089   1
 -11   2  -2 0.66373 46.1386   1
 -11   2  -2-7.59677 47.3228   1
  11  -2   3 729.251 57.9759   1
 -11   2  -3 829.858  71.841   1
 -11   2  -3 641.831 70.1646   1
  11  -2   4-32.3343 40.6244   1
 -11   2  -4-45.2877 50.6615   1
 -11   2  -4 50.0385 31.3447   1
  11  -2   5 309.711 49.4969   1
 -11   2  -5 327.686 55.6402   1
 -11   2  -5 305.203 40.8312   1
  11  -2   6 16.4296 46.4544   1
 -11   2  -6-1.31061 85.7472   1
 -11   2  -6  -21.17 36.8557   1
  11  -2   7 764.872 127.468   1
 -11   2  -7 958.802 82.5044   1
 -11   2  -7 789.163 102.128   1
  11  -2   8  51.991  56.086   1
 -11   2  -8 82.4575 45.0502   1
  11  -2   9 598.347  127.75   1
 -11   2  -9 456.325  99.368   1
  11  -2  10 49.1686 61.2158   1
 -11   2 -10 88.6371 46.5193   1
  11  -2  11  247.30 66.5437   1
 -11   2 -11 228.223 53.3601   1
  11  -2  12-31.4093 62.5015   1
  11  -2  13-10.1709 64.6063   1
 -11   2 -13 34.6734 55.0255   1
  11  -2  14 210.531 72.2935   1
 -11   2 -14 54.8246 62.7842   1
  11  -2  15 11.5503 69.8247   1
 -11   2 -15-16.0973 61.9313   1
  11  -1  -9 27.8077 21.8911   1
  11  -1  -8-17.6224 22.5992   1
  11  -1  -7 147.771 43.0298   1
 -11   1   7 253.382 59.5982   1
  11  -1  -6-25.9215 24.7677   1
 -11   1   6 1.53173 56.2226   1
  11  -1  -5 183.526 28.3037   1
 -11   1   5  125.49 62.1734   1
 -11   1   5 140.067 38.9555   1
  11  -1  -4 52.1421 26.3574   1
 -11   1   4 120.543 36.0243   1
 -11   1   4-4.89365 22.1899   1
  11  -1  -3 138.836 29.7838   1
 -11   1   3  190.12 39.6721   1
 -11   1   3 143.999 24.6252   1
  11  -1  -2 1163.32 53.8682   1
 -11   1   2 1033.53 62.5537   1
 -11   1   2 886.637  67.478   1
  11  -1  -1 834.305 78.9556   1
 -11   1   1 806.981 60.0912   1
 -11   1   1 701.853 62.8999   1
  11  -1   0 453.102 42.9273   1
 -11   1   0 519.221 51.8142   1
 -11   1   0  381.75 33.8895   1
  11  -1   1 1647.57 83.0403   1
 -11   1  -1 1901.63  93.792   1
 -11   1  -1 1543.78 65.5706   1
  11  -1   2 349.427 80.2956   1
 -11   1  -2 480.201  89.925   1
 -11   1  -2 350.179 35.9339   1
  11  -1   3 890.153 63.3631   1
 -11   1  -3 1045.92 76.5595   1
 -11   1  -3 877.728 50.4702   1
  11  -1   4-51.7658 73.8135   1
 -11   1  -4 30.0737 45.7217   1
 -11   1  -4 23.8951 32.9613   1
  11  -1   5 2178.71 119.456   1
 -11   1  -5 2576.12 204.692   1
 -11   1  -5 2068.81 151.864   1
  11  -1   6 131.942 49.1228   1
 -11   1  -6  57.425 52.8069   1
 -11   1  -6 82.4483 68.3324   1
  11  -1   7 3594.51 294.114   1
 -11   1  -7 3450.67 165.512   1
  11  -1   8 755.566 77.7153   1
 -11   1  -8 765.145 109.088   1
  11  -1   9 3482.76  210.23   1
 -11   1  -9 3261.61 179.248   1
  11  -1  10 376.792 120.725   1
 -11   1 -10  301.45 97.4267   1
  11  -1  11 339.035 73.3149   1
 -11   1 -11 323.971 56.4136   1
 -11   1 -12 23.9622 50.1243   1
  11  -1  13 37.5623 64.2713   1
 -11   1 -14 127.041 62.2588   1
  11  -1  15 7.86323 72.6247   1
 -11   1 -15 129.463  62.966   1
  11  -1  16-48.6498 71.1741   1
 -11   1 -16 20.2086 63.3952   1
  11   0  -9 46.1433 42.2775   1
  11   0  -8 48.1312 26.1477   1
  11   0  -7 241.962 30.0778   1
 -11   0   7 190.467 33.3427   1
  11   0  -6  132.16  48.635   1
 -11   0   6 172.474 32.9458   1
  11   0  -5-75.7532 27.6334   1
 -11   0   5 22.6965 30.0828   1
 -11   0   5 68.2666 39.2994   1
  11   0  -4 60.4572 48.9205   1
 -11   0   4 21.9929 32.5386   1
 -11   0   4-18.7942 40.9184   1
  11   0  -3 15.9653 30.6457   1
 -11   0   3 105.681 55.8741   1
 -11   0   3 45.7162 24.7959   1
  11   0  -2 0.70612 51.5681   1
 -11   0   2-4.15905 55.5512   1
 -11   0   2 9.59851 25.4951   1
  11   0  -1 24.5637 32.7881   1
 -11   0   1  43.764 37.7257   1
 -11   0   1 80.0644 27.0458   1
  11   0   0 328.226 40.4847   1
 -11   0   0 296.563 43.5835   1
 -11   0   0 294.524 32.2137   1
  11   0   1 275.173 70.5542   1
 -11   0  -1 308.191 44.9547   1
 -11   0  -1 289.118 55.9941   1
  11   0   2-17.5343 37.8813   1
 -11   0  -2  -22.65 41.7126   1
 -11   0  -2 13.2101 50.9282   1
  11   0   3 1240.32 76.6843   1
 -11   0  -3 1305.83 76.5675   1
 -11   0  -3 1157.90 98.4544   1
  11   0   4 893.667 110.679   1
 -11   0  -4 887.649 114.874   1
 -11   0  -4 810.033 51.9097   1
  11   0   5 1761.37 99.5102   1
 -11   0  -5 1877.49 103.573   1
 -11   0  -5 1542.57 82.3092   1
  11   0   6 1826.52 110.119   1
 -11   0  -6 1775.92  92.037   1
  11   0   7 3505.98 293.605   1
 -11   0  -7 3439.32 242.663   1
  11   0   8 83.7771  55.814   1
 -11   0  -8 87.5435  47.623   1
  11   0   9  294.63 64.4911   1
 -11   0  -9  312.39 56.3517   1
  11   0  10 576.895 136.681   1
 -11   0 -10 586.029 65.9416   1
  11   0  11 1069.87 99.6218   1
 -11   0 -11 943.788 132.749   1
  11   0  12 39.0353 63.8381   1
 -11   0 -12 32.0213 51.4976   1
 -11   0 -13 122.843 55.9161   1
  11   0  14-72.8765 67.3459   1
  11   0  16 45.3062 72.4018   1
 -11   0 -16 59.1726 61.9785   1
  11   1  -9 55.1341 47.9852   1
  11   1  -8 127.769 30.4131   1
  11   1  -7  22.063 28.8703   1
 -11  -1   7 0.38849 25.0435   1
  11   1  -6 323.562 60.2714   1
 -11  -1   6 390.475 32.6213   1
  11   1  -5  761.21 47.0341   1
 -11  -1   5 725.749 41.3787   1
 -11  -1   5 660.941 40.3383   1
  11   1  -4 260.989 59.8086   1
 -11  -1   4 220.882 33.0341   1
 -11  -1   4  243.50 30.6739   1
  11   1  -3 535.362  42.499   1
 -11  -1   3 521.831 64.6098   1
 -11  -1   3 488.081 59.1582   1
  11   1  -2 1231.31 96.3611   1
 -11  -1   2 1086.85 84.7803   1
 -11  -1   2 1089.33 79.2682   1
  11   1  -1 547.514 44.5045   1
 -11  -1   1 418.667 70.6735   1
 -11  -1   1 501.025 62.4892   1
  11   1   0 321.467 68.5122   1
 -11  -1   0  352.32 67.9861   1
 -11  -1   0 281.729 34.8647   1
  11   1   1 806.251 54.8446   1
 -11  -1  -1 820.428 95.0388   1
 -11  -1  -1  751.96 46.3721   1
  11   1   2 278.331 44.8344   1
 -11  -1  -2 283.628 76.0722   1
 -11  -1  -2 248.651 36.1759   1
  11   1   3 208.178 44.4963   1
 -11  -1  -3 56.4542 40.8531   1
 -11  -1  -3 127.514 35.2493   1
  11   1   4 793.999 107.369   1
 -11  -1  -4 753.466   62.06   1
 -11  -1  -4 689.939 49.8933   1
  11   1   5-50.9553 47.4544   1
 -11  -1  -5-37.8875 65.1672   1
  11   1   6 1144.29 85.5205   1
 -11  -1  -6 1128.32  114.28   1
  11   1   7 28.8699 53.7946   1
 -11  -1  -7 51.1429 43.2615   1
  11   1   8 2530.76 227.553   1
 -11  -1  -8 2293.78 122.369   1
  11   1   9 1113.66 88.9264   1
 -11  -1  -9 1007.44  76.495   1
  11   1  10 62.4292 54.9252   1
 -11  -1 -10-5.16578 50.3793   1
  11   1  11 789.576  148.81   1
 -11  -1 -11 789.287  74.267   1
  11   1  12-64.5405 63.0567   1
 -11  -1 -12-84.5285 87.5035   1
  11   1  13 564.395 83.1857   1
 -11  -1 -13 534.682 66.8938   1
 -11  -1 -14 38.1337  53.992   1
  11   1  15 119.028 66.4113   1
 -11  -1 -15 81.3699 57.2273   1
  11   2  -9 152.033 33.7184   1
  11   2  -8  95.643 32.3005   1
  11   2  -7-9.25898 31.1035   1
  11   2  -6 233.145  58.367   1
 -11  -2   6 118.826  40.958   1
  11   2  -5-6.54251 33.0669   1
 -11  -2   5 67.4131 23.1208   1
 -11  -2   5 26.9513 29.2792   1
  11   2  -4 16.6099 58.3397   1
 -11  -2   4 39.7197 25.0288   1
 -11  -2   4 68.6081 29.3759   1
  11   2  -3-1.27572  34.795   1
 -11  -2   3 9.57563 43.8284   1
 -11  -2   3 59.1928 29.4909   1
  11   2  -2 2158.68 143.002   1
 -11  -2   2 1932.48 114.978   1
 -11  -2   2 2016.35 80.9185   1
  11   2  -1 3512.06  142.46   1
 -11  -2   1 3228.93 123.805   1
 -11  -2   1 3285.82 127.573   1
  11   2   0 208.604 68.5153   1
 -11  -2   0 93.2986 33.4774   1
 -11  -2   0 133.982 34.4767   1
  11   2   1 166.497 42.2862   1
 -11  -2  -1 149.264 38.4334   1
 -11  -2  -1 183.117 35.8915   1
  11   2   2 2602.96 119.913   1
 -11  -2  -2 2502.11 110.203   1
 -11  -2  -2 2458.35 104.005   1
  11   2   3 293.182 50.3776   1
 -11  -2  -3 352.556 45.4803   1
 -11  -2  -3 282.775 41.2796   1
  11   2   4 197.922 86.4282   1
 -11  -2  -4 258.955 41.6878   1
  11   2   5-96.2743 48.1269   1
 -11  -2  -5-3.66902 37.6072   1
  11   2   6 49.7267 50.9624   1
 -11  -2  -6 55.9517 41.6658   1
  11   2   7 2196.05 133.922   1
 -11  -2  -7 2231.26 180.384   1
  11   2   8 47.2155 99.0408   1
 -11  -2  -8 113.474 47.4297   1
  11   2   9 366.823 66.3719   1
 -11  -2  -9 400.084 55.4008   1
  11   2  10 84.3836 56.0639   1
 -11  -2 -10 160.876 47.8992   1
  11   2  11 458.195 69.5641   1
 -11  -2 -11 409.662 62.5353   1
  11   2  12 1218.53 185.133   1
 -11  -2 -12 1384.17 94.4193   1
  11   2  13 921.313 93.3322   1
 -11  -2 -13 928.283 135.388   1
  11   2  14 86.1918 63.7535   1
 -11  -2 -14 18.4705 53.4825   1
 -11  -2 -15-14.0353 51.4141   1
  11   2  16 5.84167 63.9847   1
 -11  -2 -16 76.9733  55.196   1
  11   2  17 123.167 72.1237   1
 -11  -2 -17 156.186 60.0502   1
 -11  -2 -18 95.6781 59.1932   1
  11   3  -9 255.349 41.2726   1
  11   3  -8 20.2735 35.7276   1
  11   3  -7 0.00781  58.377   1
  11   3  -6 11.2631  33.879   1
 -11  -3   6 -1.8026 19.0504   1
  11   3  -5 202.992 39.8925   1
 -11  -3   5  228.44 38.3492   1
  11   3  -4 1327.46 114.639   1
 -11  -3   4 1401.47 48.5556   1
 -11  -3   4 1505.42 103.049   1
  11   3  -3 86.0511 36.5933   1
 -11  -3   3   58.13   23.23   1
 -11  -3   3 29.4167 55.4267   1
  11   3  -2 15.7052 62.6072   1
 -11  -3   2 12.4343 41.7725   1
 -11  -3   2-24.5849 54.6753   1
  11   3  -1 377.625 46.1199   1
 -11  -3   1 320.472 32.3516   1
 -11  -3   1 307.711 67.2828   1
  11   3   0 2533.61  167.50   1
 -11  -3   0 2098.34 84.7647   1
 -11  -3   0 2435.60 148.245   1
  11   3   1 243.993 46.7015   1
 -11  -3  -1 295.504  61.847   1
 -11  -3  -1 305.922 69.4223   1
  11   3   2 984.648 66.5654   1
 -11  -3  -2 711.494 83.5368   1
 -11  -3  -2 794.576 93.5288   1
  11   3   3 1658.32  90.795   1
 -11  -3  -3 1608.08 128.532   1
  11   3   4 45.7919  80.751   1
 -11  -3  -4-108.351 66.7661   1
  11   3   5 78.6635 46.7818   1
 -11  -3  -5-48.6408 40.7747   1
  11   3   6  318.06 56.5339   1
 -11  -3  -6 255.571 46.8463   1
  11   3   7 2677.01 150.106   1
 -11  -3  -7 2457.26 127.717   1
  11   3   8  181.48 58.9355   1
 -11  -3  -8 231.706 82.7862   1
  11   3   9 1451.24 166.095   1
 -11  -3  -9 1307.93 86.4144   1
  11   3  10 124.235 58.1404   1
 -11  -3 -10 83.7485 47.5783   1
  11   3  11 36.3863 53.6407   1
 -11  -3 -11-82.7841  46.476   1
  11   3  12 17.6779  56.127   1
 -11  -3 -12 77.4342 81.6788   1
  11   3  13-27.7524 103.162   1
 -11  -3 -13 107.206 51.1554   1
  11   3  14 242.379  67.441   1
 -11  -3 -14 272.745 57.6324   1
  11   3  15 110.686 67.1434   1
 -11  -3 -15 262.273 93.5545   1
  11   3  16 29.1798 61.3342   1
 -11  -3 -16 8.40688 87.1537   1
  11   3  17 679.344 149.542   1
 -11  -3 -17  775.40 79.1537   1
  11   3  18  80.242 66.1183   1
 -11  -3 -18  75.404 57.0641   1
  11   4  -9 88.0683 67.7016   1
  11   4  -8 39.2616 64.8686   1
  11   4  -7 48.9872 38.7305   1
  11   4  -6 59.4673 38.5625   1
  11   4  -5  107.12  69.129   1
 -11  -4   5 184.478 30.7681   1
  11   4  -4 29.9487 38.1336   1
 -11  -4   4 43.9761 30.3378   1
 -11  -4   4  50.111 34.8406   1
  11   4  -3 465.577 48.4459   1
 -11  -4   3 463.065 26.2343   1
 -11  -4   3 530.271 45.3507   1
  11   4  -2-36.3136  66.107   1
 -11  -4   2 25.3571 35.3032   1
 -11  -4   2-5.35626 34.7287   1
  11   4  -1 -23.768 40.3238   1
 -11  -4   1 36.3911 23.3267   1
 -11  -4   1 46.0648 35.9553   1
  11   4   0 129.728 44.0288   1
 -11  -4   0 83.7991 45.6226   1
 -11  -4   0  180.57 39.4183   1
  11   4   1 24.7759 73.6446   1
 -11  -4  -1 10.7849 26.5451   1
 -11  -4  -1  43.708 37.9025   1
  11   4   2 539.646 56.4012   1
 -11  -4  -2 433.504 39.3962   1
 -11  -4  -2 515.841 50.0859   1
  11   4   3 136.626 50.4703   1
 -11  -4  -3 245.852 43.4805   1
  11   4   4 3463.43 256.753   1
 -11  -4  -4 3284.16  152.10   1
  11   4   5 575.804 104.205   1
 -11  -4  -5  441.41 91.5874   1
  11   4   6 664.487 68.7169   1
 -11  -4  -6 652.353 101.354   1
  11   4   7 529.951  67.554   1
 -11  -4  -7 454.503 53.6537   1
  11   4   8 128.185 57.7177   1
 -11  -4  -8 170.375 47.6316   1
  11   4   9 177.282 57.6594   1
 -11  -4  -9 152.177  84.165   1
  11   4  10 1369.36  165.53   1
 -11  -4 -10 1287.32 86.6231   1
  11   4  11 110.286 99.8786   1
 -11  -4 -11 169.965 82.8593   1
  11   4  12 298.537 61.4693   1
 -11  -4 -12 274.976 53.3773   1
  11   4  13  73.663 54.8264   1
 -11  -4 -13 55.9964  82.792   1
  11   4  14 113.609  57.668   1
 -11  -4 -14 69.5419 50.2122   1
  11   4  15-21.4595 98.4559   1
 -11  -4 -15 57.2353  49.248   1
  11   4  16 199.987 61.9875   1
 -11  -4 -16 53.4185 52.2273   1
  11   4  17 120.202 60.7702   1
 -11  -4 -17 45.3686 52.9319   1
  11   4  18 -71.524 104.045   1
 -11  -4 -18 76.0776 90.7714   1
  11   5  -9 32.2302 42.5042   1
  11   5  -8 38.3268 41.3045   1
  11   5  -7 -49.079 40.4824   1
  11   5  -6 201.025 73.3438   1
  11   5  -5-13.2754 40.5818   1
  11   5  -4  801.57 59.4704   1
 -11  -5   4 641.082 36.0942   1
  11   5  -3 603.486 89.3663   1
 -11  -5   3 497.245 36.3556   1
 -11  -5   3 605.823 82.2797   1
  11   5  -2  79.984 41.1685   1
 -11  -5   2 67.8673 28.2479   1
 -11  -5   2 2.91872 64.3019   1
  11   5  -1 3161.08 213.741   1
 -11  -5   1 2953.90 131.515   1
  11   5   0  286.33 48.1383   1
 -11  -5   0 127.283 43.4644   1
 -11  -5   0  186.62 43.9215   1
  11   5   1 2936.85 219.503   1
 -11  -5  -1 2811.69 129.869   1
  11   5   2 1466.94 88.8834   1
 -11  -5  -2 1443.60 80.6316   1
  11   5   3 933.562 70.4064   1
 -11  -5  -3 862.041 64.7306   1
  11   5   4 1367.68 87.2196   1
 -11  -5  -4 1264.15 77.3692   1
  11   5   5 94.5413 85.4089   1
 -11  -5  -5 84.7926 43.4617   1
  11   5   6 152.698 92.6259   1
 -11  -5  -6 276.583 82.6876   1
  11   5   7 -14.132 50.4697   1
 -11  -5  -7  3.4051 74.7762   1
  11   5   8 112.679 55.1242   1
 -11  -5  -8 107.588 44.6315   1
  11   5   9 2298.00 132.801   1
 -11  -5  -9 2026.39 112.059   1
  11   5  10 971.604 82.0521   1
 -11  -5 -10 909.346 68.8832   1
  11   5  11 974.855 80.7435   1
 -11  -5 -11 868.013 69.4684   1
  11   5  12 150.947 96.1678   1
 -11  -5 -12 182.102 50.0656   1
  11   5  13 405.387 103.207   1
 -11  -5 -13  286.68 54.0902   1
  11   5  14  99.557  53.395   1
 -11  -5 -14  70.266 46.6921   1
  11   5  15  82.795  55.164   1
 -11  -5 -15-17.1635 79.8763   1
  11   5  16-37.6935 56.0875   1
 -11  -5 -16 0.77059 78.1143   1
  11   5  17 -15.995 103.184   1
 -11  -5 -17 156.499 50.7379   1
  11   5  18-0.18119 57.7911   1
 -11  -5 -18 82.1223 51.0681   1
  11   6  -8-42.2731 44.9996   1
  11   6  -7 54.0752  43.586   1
  11   6  -6 96.9259 44.2326   1
  11   6  -5-6.63503 42.5937   1
  11   6  -4 97.4131 72.0703   1
 -11  -6   4 39.2277 18.0123   1
  11   6  -3 34.2278 45.1009   1
 -11  -6   3 80.6071 21.1575   1
 -11  -6   3 78.1893 39.8354   1
  11   6  -2 172.306 43.7092   1
 -11  -6   2 67.3206 13.7853   1
 -11  -6   2 72.7042 41.4607   1
  11   6  -1 302.224 49.6769   1
 -11  -6   1 246.591 19.1898   1
 -11  -6   1 365.664 46.9522   1
  11   6   0 2647.48 123.291   1
 -11  -6   0 2289.50 100.267   1
 -11  -6   0 2754.64 185.728   1
  11   6   1  173.39 50.4769   1
 -11  -6  -1 224.144 38.6197   1
 -11  -6  -1 270.925 79.2552   1
  11   6   2 2033.76 179.896   1
 -11  -6  -2 2021.84 162.158   1
  11   6   3 2278.68 118.709   1
 -11  -6  -3 2242.59 109.709   1
  11   6   4-3.03818  48.499   1
 -11  -6  -4 132.226 43.8943   1
  11   6   5 4705.75 237.651   1
 -11  -6  -5 4558.82 220.861   1
  11   6   6 4357.05 223.076   1
 -11  -6  -6 4386.83  208.78   1
  11   6   7 137.763 96.1085   1
 -11  -6  -7 244.643 84.3733   1
  11   6   8 2374.73 217.865   1
 -11  -6  -8 2265.03 117.814   1
  11   6   9 1529.68 100.682   1
 -11  -6  -9 1378.98 84.5406   1
  11   6  10-13.2469 52.4088   1
 -11  -6 -10 89.2378   75.27   1
  11   6  11  573.35 63.5982   1
 -11  -6 -11 422.284 54.9242   1
  11   6  12 68.4209 51.5137   1
 -11  -6 -12-6.55312 74.7969   1
  11   6  13 57.6674 49.7764   1
 -11  -6 -13 20.6631 44.1251   1
  11   6  14 326.289 98.9065   1
 -11  -6 -14 334.539 86.8294   1
  11   6  15 263.817 90.6446   1
 -11  -6 -15  129.12 47.2299   1
  11   6  16 57.5755 53.2653   1
 -11  -6 -16 78.3771 45.4729   1
  11   6  17 381.876 66.5291   1
 -11  -6 -17 410.619 55.5108   1
  11   6  18 77.5941   54.54   1
 -11  -6 -18 87.4892 47.6201   1
  11   6  19-95.3218  92.659   1
 -11  -6 -19 9.60288 78.8264   1
  11   7  -8  405.52 60.7918   1
  11   7  -5 2.29997 45.0246   1
  11   7  -4 2.34186 44.2997   1
  11   7  -3 -139.84 76.1806   1
 -11  -7   3-1.89062 13.2462   1
  11   7  -2 65.3992 45.4439   1
 -11  -7   2  12.294 10.4799   1
 -11  -7   2-13.1563 42.5223   1
  11   7  -1 140.712   45.49   1
 -11  -7   1 1.23292  21.882   1
 -11  -7   1 84.9123 43.7488   1
  11   7   0 1159.62 74.3638   1
 -11  -7   0 944.206  47.325   1
 -11  -7   0 1209.18 71.7422   1
  11   7   1 77.6368 45.7604   1
 -11  -7  -1 71.5127 31.7066   1
 -11  -7  -1 81.8791 43.4819   1
  11   7   2 72.8778 47.5522   1
 -11  -7  -2 60.6478 75.3326   1
  11   7   3 926.284 118.697   1
 -11  -7  -3 815.924 108.382   1
  11   7   4 278.769 53.3791   1
 -11  -7  -4 250.017   48.46   1
  11   7   5 3050.69 152.728   1
 -11  -7  -5 2942.31 141.938   1
  11   7   6 1615.19 101.914   1
 -11  -7  -6 1610.96 91.1399   1
  11   7   7 8561.53 491.013   1
 -11  -7  -7 8395.40 462.097   1
  11   7   8-39.7912 53.7818   1
 -11  -7  -8-213.572 80.7946   1
  11   7   9 5771.97 443.936   1
 -11  -7  -9 5285.79 264.141   1
  11   7  10 2490.82 218.179   1
 -11  -7 -10 2336.03 115.036   1
  11   7  11 341.097 99.7407   1
 -11  -7 -11 362.225 48.0778   1
  11   7  12 528.369 97.7231   1
 -11  -7 -12 324.399 50.2647   1
  11   7  13 449.878  63.616   1
 -11  -7 -13 540.025 54.3502   1
  11   7  14 19.9889  47.638   1
 -11  -7 -14 77.8626  71.338   1
  11   7  15 513.966 60.5334   1
 -11  -7 -15 514.651 53.9999   1
  11   7  16 59.6968 49.3936   1
 -11  -7 -16 18.5935 42.3445   1
  11   7  17 86.1442 52.5052   1
 -11  -7 -17 91.8985  74.495   1
  11   7  18 399.703 101.818   1
 -11  -7 -18  330.66  86.123   1
  11   7  19-30.7699 50.3295   1
 -11  -7 -19-56.0847 44.0242   1
  11   8  -7 8.80045 50.2455   1
  11   8  -6 152.721 52.1455   1
  11   8  -4 82.2568 50.3673   1
  11   8  -3  815.48 71.4046   1
  11   8  -2 69.4741  82.881   1
 -11  -8   2 91.3082 10.4116   1
 -11  -8   2 74.4956 47.7425   1
  11   8  -1 365.968  55.094   1
 -11  -8   1 286.664 19.0489   1
 -11  -8   1 435.225 88.4454   1
  11   8   0 348.033 56.1088   1
 -11  -8   0 330.314 26.0262   1
 -11  -8   0  293.74 53.4242   1
  11   8   1-3.64111  44.603   1
 -11  -8  -1 29.5966 15.2473   1
 -11  -8  -1 25.5637 44.4593   1
  11   8   2 106.981 46.3034   1
 -11  -8  -2 103.572 45.1682   1
  11   8   3 932.589 71.1146   1
 -11  -8  -3  823.28 66.7854   1
  11   8   4 241.101  53.158   1
 -11  -8  -4 281.372 83.9615   1
  11   8   5 88.3225 84.6365   1
 -11  -8  -5  38.277 44.1832   1
  11   8   6 2726.78 148.733   1
 -11  -8  -6 3103.18  143.69   1
  11   8   7 1719.61 107.125   1
 -11  -8  -7 1845.36 97.9081   1
  11   8   8 6984.67 376.938   1
 -11  -8  -8 7168.47 508.557   1
  11   8   9 185.824 49.5242   1
 -11  -8  -9 109.523 43.2689   1
  11   8  10 2238.13 118.969   1
 -11  -8 -10 2143.28 105.269   1
  11   8  11 1173.96 80.0052   1
 -11  -8 -11 1213.67 113.468   1
  11   8  12 30.6264 45.8582   1
 -11  -8 -12 26.1652 38.4923   1
  11   8  13 2130.76 118.002   1
 -11  -8 -13 1991.19 97.3825   1
  11   8  14 362.654 94.3358   1
 -11  -8 -14 443.483  48.068   1
  11   8  15  148.49 83.4768   1
 -11  -8 -15  229.55 43.1767   1
  11   8  16-63.2712 75.6259   1
 -11  -8 -16-10.3626 66.0749   1
  11   8  17 187.553 49.9071   1
 -11  -8 -17 153.246 43.1294   1
  11   8  18 11.1327 47.4162   1
 -11  -8 -18 10.4808  40.091   1
  11   8  19 -0.4541 47.0388   1
 -11  -8 -19 30.7488 40.2116   1
  11   9  -7 23.6784  54.057   1
  11   9  -6-10.1636 51.1682   1
  11   9  -5 7.90839 50.1703   1
  11   9  -3  9.7756 50.2959   1
  11   9  -2 1219.18  88.823   1
  11   9  -1-31.2798 80.4293   1
 -11  -9   1 33.1946 7.69395   1
 -11  -9   1 110.829 46.5408   1
  11   9   0 53.4454 49.8729   1
 -11  -9   0 68.6629 15.7633   1
 -11  -9   0 183.518 78.2161   1
  11   9   1 3007.80 148.538   1
 -11  -9  -1 2741.20 63.7652   1
 -11  -9  -1 3062.92 144.065   1
  11   9   2 211.346 49.4148   1
 -11  -9  -2 173.392 49.6462   1
  11   9   3 1305.45 141.767   1
 -11  -9  -3 1479.94 82.0088   1
  11   9   4 254.434 50.8037   1
 -11  -9  -4 260.144 81.4162   1
  11   9   5 516.791 59.0825   1
 -11  -9  -5 475.755 53.4574   1
  11   9   6 3110.93 150.473   1
 -11  -9  -6 2933.37 140.996   1
  11   9   7-23.7109 79.5889   1
 -11  -9  -7-4.18038 41.1488   1
  11   9   8 1094.32 123.615   1
 -11  -9  -8 1023.04 110.196   1
  11   9   9 1206.49 127.292   1
 -11  -9  -9 1290.32 71.0821   1
  11   9  10 128.526 76.5615   1
 -11  -9 -10 101.336 39.0098   1
  11   9  11 52.9489 42.7652   1
 -11  -9 -11-31.9085 62.6036   1
  11   9  12 671.041 60.1811   1
 -11  -9 -12  731.90 52.9409   1
  11   9  13 7.31771  41.745   1
 -11  -9 -13-19.3574 62.0455   1
  11   9  14 935.015 68.5455   1
 -11  -9 -14 917.153 57.5985   1
  11   9  15 392.176 51.4312   1
 -11  -9 -15 392.844 44.1759   1
  11   9  16 25.5899 42.0935   1
 -11  -9 -16 63.9829 62.4688   1
  11   9  17 95.1938 45.0016   1
 -11  -9 -17 66.6332  37.705   1
  11   9  18  59.956 44.6272   1
 -11  -9 -18 21.1948 37.1146   1
  11   9  19 111.439 44.2816   1
 -11  -9 -19 104.169 39.8805   1
  11  10  -6 108.614 57.6471   1
  11  10  -5 5.42526 52.1342   1
  11  10  -4 109.537  53.704   1
  11  10  -2 361.382 60.4384   1
  11  10  -1 605.826 66.1634   1
  11  10   0 515.008 107.326   1
 -11 -10   0 690.005 63.3244   1
  11  10   1 44.4138 47.4334   1
 -11 -10  -1 8.83398 9.67713   1
 -11 -10  -1-56.2355 76.6742   1
 -11 -10  -2 1653.12 92.9693   1
  11  10   3 42.4678   44.48   1
 -11 -10  -3 60.1464   42.96   1
  11  10   4 258.846 51.1145   1
 -11 -10  -4 232.517 47.7091   1
  11  10   5 3323.62  250.61   1
 -11 -10  -5 3561.63 235.529   1
  11  10   6 102.184 46.6139   1
 -11 -10  -6 153.287 42.1616   1
  11  10   7 447.433 52.8421   1
 -11 -10  -7 439.924 50.0541   1
  11  10   8-1.08691 42.0678   1
 -11 -10  -8 39.0782 65.3989   1
  11  10   9 330.369  48.498   1
 -11 -10  -9  308.02 45.1548   1
  11  10  10 1792.92 93.8365   1
 -11 -10 -10 1759.05 84.5626   1
  11  10  11 23.7216 40.4991   1
 -11 -10 -11 61.4772 58.9739   1
  11  10  12 266.625 44.4686   1
 -11 -10 -12 163.891 37.3661   1
  11  10  13 33.3285 39.2557   1
 -11 -10 -13-18.9064 56.4735   1
  11  10  14 225.126 44.8242   1
 -11 -10 -14 192.627 38.6673   1
  11  10  15 48.4348 40.1047   1
 -11 -10 -15 35.1697  34.484   1
  11  10  16  526.35 51.1623   1
 -11 -10 -16 524.593 70.8238   1
  11  10  17 14.9996  69.226   1
 -11 -10 -17 82.6395 33.3683   1
  11  10  18 293.021 74.9901   1
 -11 -10 -18 144.736 36.6535   1
  11  11  -5 395.655 69.4111   1
  11  11  -4 171.792 59.4256   1
  11  11  -3 28.2129 53.1675   1
  11  11  -1 98.0528 52.3286   1
  11  11   0 102.027 50.8552   1
  11  11   1 194.316 51.9384   1
 -11 -11  -1  166.96 13.0194   1
 -11 -11  -1 283.105 50.1404   1
  11  11   2 135.514 49.1698   1
 -11 -11  -2 140.974 79.3949   1
  11  11   3 -0.7656 43.1206   1
 -11 -11  -3 24.3196 41.2322   1
  11  11   4  81.017 72.3664   1
 -11 -11  -4 39.7922 40.7801   1
  11  11   5 172.773 46.2387   1
 -11 -11  -5 208.548  72.394   1
  11  11   6 1093.97 71.7507   1
 -11 -11  -6 1047.84 64.2207   1
  11  11   7 98.7131 71.2039   1
 -11 -11  -7 69.2668 39.4852   1
  11  11   8 75.7851  71.411   1
 -11 -11  -8 98.6827  64.303   1
  11  11   9 882.707 98.7234   1
 -11 -11  -9 764.967  54.256   1
  11  11  10 110.091 69.3036   1
 -11 -11 -10 136.705 37.2958   1
  11  11  11 1296.05 119.417   1
 -11 -11 -11 1339.34 66.4809   1
  11  11  12 1.90273 63.8495   1
 -11 -11 -12 9.80226 32.3455   1
  11  11  13 79.6824 67.8037   1
 -11 -11 -13 116.365 56.3598   1
  11  11  14  201.87 64.3893   1
 -11 -11 -14 12.2213 32.2898   1
  11  11  15-43.5695 62.3004   1
 -11 -11 -15-6.37149 31.0785   1
  11  11  16 46.6173 59.9912   1
 -11 -11 -16-5.06059 52.7652   1
  11  11  17 17.1783 58.8522   1
 -11 -11 -17-7.42888  31.046   1
  11  11  18 137.797 66.5419   1
 -11 -11 -18 159.739 33.8036   1
  11  12  -4 144.841 62.1435   1
  11  12  -3 157.336 58.1619   1
  11  12  -1 418.266 62.0507   1
  11  12   0  50.035  49.175   1
  11  12   1 83.9398 80.5004   1
 -11 -12  -1 34.6227 5.65594   1
  11  12   2  87.923 48.0258   1
 -11 -12  -2 108.916 14.8389   1
 -11 -12  -2 146.713 46.3429   1
  11  12   3 56.8623 76.0799   1
 -11 -12  -3 87.4476 72.4452   1
  11  12   4 115.909 41.9038   1
 -11 -12  -4-36.1204 41.2744   1
  11  12   5 254.313  48.699   1
 -11 -12  -5 340.086 46.8193   1
  11  12   6-0.99858 69.6268   1
 -11 -12  -6 29.3396 37.7408   1
  11  12   7 39.8457 41.4968   1
 -11 -12  -7 65.2454 37.2283   1
  11  12   8 95.9388 40.8048   1
 -11 -12  -8  153.26 64.3562   1
  11  12   9 525.274 48.9092   1
 -11 -12  -9 433.362 44.8159   1
  11  12  10 230.942 40.8847   1
 -11 -12 -10 247.715 38.5895   1
  11  12  11 13.5691 36.6237   1
 -11 -12 -11 32.8326 31.8431   1
  11  12  12 23.7444  35.055   1
 -11 -12 -12 26.2927 31.7515   1
  11  12  13 948.026 59.6648   1
 -11 -12 -13 933.175 52.0349   1
  11  12  14 154.566 38.7246   1
 -11 -12 -14 204.846 54.5988   1
  11  12  15 1011.85  61.124   1
 -11 -12 -15 1013.72  52.123   1
  11  12  16 64.4588 33.4594   1
 -11 -12 -16 17.5121 48.1787   1
  11  12  17 96.5547 33.3537   1
 -11 -12 -17 29.6144 28.9886   1
  11  13  -3-52.4197 57.3891   1
  11  13  -2 36.6319 55.5677   1
  11  13   0 206.558 54.7715   1
  11  13   1 87.5855 48.6015   1
  11  13   2 5.80775 45.9458   1
  11  13   3  114.14 46.1422   1
 -11 -13  -3 69.7527 18.0339   1
  11  13   4-8.27857 41.5559   1
 -11 -13  -4-2.53859 13.0422   1
 -11 -13  -4-9.07269 40.8081   1
  11  13   5 86.1343 70.9553   1
 -11 -13  -5 120.395 42.1006   1
  11  13   6 80.9656 40.1422   1
 -11 -13  -6-59.7136   64.16   1
  11  13   7 41.2243 39.6389   1
 -11 -13  -7 12.2741  36.922   1
  11  13   8 2156.37 105.404   1
 -11 -13  -8 2344.34 151.182   1
  11  13   9 801.178 55.4972   1
 -11 -13  -9 731.785 51.7662   1
  11  13  10 32.8573 58.8229   1
 -11 -13 -10 -0.0826  54.994   1
  11  13  11 68.6474 58.3679   1
 -11 -13 -11 43.0894 30.8812   1
  11  13  12 20.5201 56.4148   1
 -11 -13 -12 41.5351  49.842   1
  11  13  13-43.4844 55.6055   1
 -11 -13 -13 17.3364  28.924   1
  11  13  14 471.609 43.0791   1
 -11 -13 -14 519.813 60.5674   1
  11  13  15 119.554 35.2448   1
 -11 -13 -15 142.011 29.6616   1
  11  13  16 47.7538 31.6814   1
 -11 -13 -16 65.5894  27.273   1
  11  13  17 159.643 32.9831   1
 -11 -13 -17 123.807 46.1379   1
  11  14  -2 38.0452 57.5721   1
  11  14   0 272.486   59.48   1
  11  14   1 160.223 52.7137   1
  11  14   2 65.0972 48.8184   1
  11  14   3 46.4235 45.4741   1
  11  14   4 314.069 47.0537   1
 -11 -14  -4  226.36 14.9333   1
  11  14   5 4.35066 40.0408   1
 -11 -14  -5 6.89021 15.1298   1
 -11 -14  -5  -35.39 39.5058   1
  11  14   6 113.792 40.6091   1
 -11 -14  -6 61.8244 18.7697   1
 -11 -14  -6 79.2545 65.1457   1
  11  14   7 71.9995 39.9376   1
 -11 -14  -7 34.9982 37.6558   1
  11  14   8 379.769 75.8842   1
 -11 -14  -8 327.256 71.3529   1
  11  14   9 890.654 90.2525   1
 -11 -14  -9 797.138 51.4136   1
  11  14  10 75.2136  57.556   1
 -11 -14 -10-75.3562 51.9685   1
  11  14  11 8.73897 53.6748   1
 -11 -14 -11-18.0312 29.0268   1
  11  14  12 161.273 57.4785   1
 -11 -14 -12 158.144 50.8735   1
  11  14  13 66.1413 52.9724   1
 -11 -14 -13-40.2899 27.7639   1
  11  14  14 -57.029 51.7035   1
 -11 -14 -14-10.2027 26.5436   1
  11  14  15 14.1437 50.9134   1
 -11 -14 -15 52.1026  42.268   1
  11  14  16-7.71643 48.1147   1
 -11 -14 -16 48.5852 24.5675   1
  11  15   0 239.148 59.0523   1
  11  15   1 78.4816 52.3756   1
  11  15   2-143.685 89.3471   1
  11  15   3  147.35 48.5075   1
  11  15   4 68.3067 73.9699   1
  11  15   5 3.99449 39.6587   1
 -11 -15  -5-13.8492 24.2995   1
  11  15   6 11.8317 40.1769   1
 -11 -15  -6 67.4475 28.7047   1
  11  15   7  53.121 64.1022   1
 -11 -15  -7 -38.715 20.4421   1
 -11 -15  -7 48.9812 35.2143   1
  11  15   8 290.372 74.2916   1
 -11 -15  -8 334.725 47.6396   1
 -11 -15  -8 447.099 68.7463   1
  11  15   9 3.29885  34.779   1
 -11 -15  -9 27.8808 26.3004   1
 -11 -15  -9 25.5949 33.3273   1
  11  15  10 187.983 36.2812   1
 -11 -15 -10 153.491 31.9889   1
 -11 -15 -10 214.887 55.3625   1
  11  15  11 52.2472 30.2967   1
 -11 -15 -11  -35.32 27.9338   1
  11  15  12 -27.108 31.0096   1
 -11 -15 -12 33.1611 26.9603   1
  11  15  13  173.00 33.5446   1
 -11 -15 -13 247.085  46.964   1
  11  15  14 88.8755 49.7848   1
 -11 -15 -14 25.7125 24.9962   1
  11  15  15 21.3886 46.2532   1
  11  16   2 387.257 104.088   1
  11  16   3 220.354 53.6421   1
  11  16   4  183.80 80.1006   1
  11  16   5 14.6188 40.2336   1
  11  16   6 25.1607 38.7911   1
 -11 -16  -6-3.15376 16.7628   1
  11  16   7 -11.305  64.939   1
 -11 -16  -7 73.6944 32.9436   1
  11  16   8 428.599 47.9553   1
 -11 -16  -8 514.982 48.1873   1
  11  16   9 15.3518 34.1804   1
 -11 -16  -9-8.93718  26.205   1
 -11 -16  -9 17.1351 32.0435   1
  11  16  10  62.565 34.0392   1
 -11 -16 -10 142.391 29.4135   1
 -11 -16 -10  106.04 50.9168   1
  11  16  11 4.70951 30.1119   1
 -11 -16 -11-36.7098 51.8761   1
 -11 -16 -11 49.7896 27.8307   1
  11  16  12 106.426 31.2458   1
 -11 -16 -12-5.59913 61.2576   1
 -11 -16 -12 139.398  27.484   1
  11  16  13 18.9973 28.7982   1
 -11 -16 -13 46.2602 38.2427   1
 -11 -16 -13 35.5488 41.0328   1
  11  17   6 133.751 43.0965   1
  11  17   7 77.8989 65.7387   1
 -11 -17  -7 107.265 33.3685   1
  11  17   8 31.7668 36.5859   1
 -11 -17  -8  13.939 22.6486   1
  11  17   9-41.0717 33.1646   1
 -11 -17  -9 9.79549 40.3986   1
 -12   6   2 418.081 120.711   1
  12  -6  -1 0.83903 24.0288   1
 -12   6   1 2.89537  58.225   1
 -12   6   1 1.37506 18.0708   1
  12  -6   0 31.0518 27.7141   1
 -12   6   0-48.9903 94.5305   1
 -12   6   0 52.6604 31.5383   1
  12  -6   1 98.1583 31.2639   1
 -12   6  -1 110.841 58.0446   1
 -12   6  -1 42.9736 36.3522   1
  12  -6   2 182.485 59.6203   1
 -12   6  -2 169.622 64.2408   1
 -12   6  -2 140.397 40.8546   1
  12  -6   3 24.9825 35.6086   1
 -12   6  -3-58.8278 59.2849   1
 -12   6  -3-12.4423 42.0502   1
  12  -6   4 172.968 42.9839   1
 -12   6  -4 320.343  107.62   1
 -12   6  -4 122.829 50.8678   1
  12  -6   5 12.1366 73.4429   1
 -12   6  -5 50.7062 61.9603   1
 -12   6  -5  76.188 32.6951   1
  12  -6   6 190.542 53.0414   1
 -12   6  -6 459.088 111.443   1
 -12   6  -6 206.168  38.449   1
  12  -6   7 57.9222  51.087   1
 -12   6  -7 10.4307 62.2209   1
 -12   6  -7 59.6008 37.4298   1
 -12   5   4-36.7264 87.3289   1
 -12   5   3 55.9703 53.2811   1
 -12   5   3 12.1061 26.5438   1
  12  -5  -2 33.8873 21.8527   1
 -12   5   2-42.7088 53.5899   1
 -12   5   2 6.00563 17.7656   1
  12  -5  -1-13.9274 41.1677   1
 -12   5   1-54.6025 91.2552   1
 -12   5   1 39.3523 19.0672   1
  12  -5   0 140.182 50.7142   1
 -12   5   0 143.753 54.4541   1
 -12   5   0 70.5597 35.1279   1
  12  -5   1 46.6966 32.6701   1
 -12   5  -1 152.589 97.4784   1
 -12   5  -1 121.709 38.4071   1
  12  -5   2 452.041 75.0199   1
 -12   5  -2 572.599  74.806   1
  12  -5   3 85.7202 66.4448   1
 -12   5  -3 52.6264 57.5293   1
 -12   5  -3 73.3723 43.4874   1
  12  -5   4 -0.3284 41.4098   1
 -12   5  -4-18.7392 57.2532   1
 -12   5  -4 20.3039 29.0156   1
  12  -5   5 111.301 78.4616   1
 -12   5  -5 101.772  102.03   1
 -12   5  -5  110.02 33.9572   1
  12  -5   6-32.8538 47.0917   1
 -12   5  -6-57.1012 58.3115   1
 -12   5  -6 5.86859 58.0474   1
  12  -5   7 248.613 57.0609   1
 -12   5  -7-61.5665 108.609   1
 -12   5  -7 254.109 42.9703   1
  12  -5   8-81.3807 95.1195   1
 -12   5  -8 165.751 61.8075   1
 -12   5  -8  17.591 42.1943   1
  12  -5   9 276.475 65.8547   1
 -12   5  -9 215.592 69.1875   1
 -12   5  -9 293.175  50.446   1
  12  -5  10-110.636 102.704   1
 -12   5 -10 65.8553 102.469   1
 -12   4   5 1.59671 46.9481   1
  12  -4  -4 11.1378 21.1195   1
 -12   4   4-30.1021 47.9792   1
 -12   4   4 13.1418 16.5011   1
  12  -4  -3 36.0768 23.4952   1
 -12   4   3-14.0934 84.0091   1
 -12   4   3 49.8496 29.2646   1
  12  -4  -2 55.5852 41.3873   1
 -12   4   2-94.3909 49.6675   1
 -12   4   2 12.6818 31.2066   1
  12  -4  -1-10.7494 26.3737   1
 -12   4   1 39.4331 46.5981   1
 -12   4   1 23.7753 19.8834   1
  12  -4   0  79.701 29.2965   1
 -12   4   0-16.9645 81.5746   1
 -12   4   0 65.9112 21.3666   1
  12  -4   1 50.2977   51.85   1
 -12   4  -1-47.9615 49.8135   1
 -12   4  -1-5.09975 22.4413   1
  12  -4   2  15.997 33.5048   1
 -12   4  -2 27.8534 88.6989   1
 -12   4  -2  48.451 25.1703   1
  12  -4   3 48.0358 63.8172   1
 -12   4  -3 40.6551 52.5213   1
 -12   4  -3-37.3976 26.4567   1
  12  -4   4 246.724 47.7896   1
 -12   4  -4 308.964 63.0642   1
 -12   4  -4 284.199 33.9734   1
  12  -4   5 20.9766 75.2698   1
 -12   4  -5 41.2009 55.1235   1
 -12   4  -5  2.1974 32.6295   1
  12  -4   6 56.1247 48.8089   1
 -12   4  -6 37.8033 58.5648   1
 -12   4  -6-80.4526 60.0384   1
  12  -4   7 271.837 60.0342   1
 -12   4  -7 283.873 70.2442   1
 -12   4  -7 301.539 44.5076   1
  12  -4   8 197.323 57.8269   1
 -12   4  -8 214.926 108.412   1
 -12   4  -8 29.1901 74.6281   1
  12  -4   9 352.487 67.0193   1
 -12   4  -9 364.734 67.2417   1
 -12   4  -9 295.491 54.2493   1
 -12   4 -10 69.4395 56.0099   1
 -12   4 -10-119.658 81.2324   1
  12  -4  11 -99.656 63.3841   1
 -12   4 -11 176.663 94.0984   1
 -12   4 -11-29.7738 48.9311   1
 -12   3   6 133.769  76.856   1
  12  -3  -5 27.0757 21.6169   1
 -12   3   5-81.0065 43.2809   1
 -12   3   5 3.87706 29.3256   1
  12  -3  -4-37.0807 24.2199   1
 -12   3   4 0.75636 45.2012   1
 -12   3   4-21.2231 18.9928   1
  12  -3  -3 94.6483 44.1818   1
 -12   3   3 182.587 79.6692   1
 -12   3   3  135.03 20.9817   1
  12  -3  -2  6.5907 26.3504   1
 -12   3   2 12.1039 76.6956   1
 -12   3   2-25.2174 33.6075   1
  12  -3  -1 199.648 54.8329   1
 -12   3   1 293.601 49.3793   1
 -12   3   1 270.541 25.4748   1
  12  -3   0-15.5322 31.0339   1
 -12   3   0 145.782 46.7097   1
 -12   3   0-15.1719 22.3091   1
  12  -3   1 82.1259 56.1565   1
 -12   3  -1 57.6004 82.5397   1
 -12   3  -1-52.6382 23.8497   1
  12  -3   2 165.653 38.2277   1
 -12   3  -2  166.56 54.4541   1
 -12   3  -2 175.136  29.074   1
  12  -3   3 38.5047 63.2396   1
 -12   3  -3 -36.587 50.1837   1
 -12   3  -3-3.79708 26.6527   1
  12  -3   4-25.3676 39.9807   1
 -12   3  -4-61.0855 52.2259   1
 -12   3  -4 2.19901 30.0348   1
  12  -3   5 239.481 79.3188   1
 -12   3  -5 170.442  59.798   1
 -12   3  -5 126.407 59.7761   1
  12  -3   6 56.5056 48.0589   1
 -12   3  -6 11.2554 56.1893   1
 -12   3  -6-4.83481 36.4507   1
  12  -3   7 271.166 98.0009   1
 -12   3  -7 264.907 61.2126   1
 -12   3  -7 240.113 44.5015   1
  12  -3   8 881.171  83.306   1
 -12   3  -8 845.996 82.6828   1
 -12   3  -8 722.268 104.341   1
  12  -3   9 239.637 64.7678   1
 -12   3  -9 162.967 103.291   1
 -12   3  -9  218.44 49.3946   1
  12  -3  10 397.116 73.4704   1
 -12   3 -10 513.285 70.9463   1
 -12   3 -10 391.849 58.9361   1
  12  -3  11-36.7145 62.5139   1
 -12   3 -11 15.6931 56.5341   1
  12  -3  12 168.482  69.584   1
 -12   3 -12 30.0985 61.0341   1
 -12   3 -12 154.726 54.7897   1
  12  -3  13-23.6203 70.2571   1
 -12   3 -13 99.3772 55.0934   1
  12  -2  -7  65.596 35.7255   1
 -12   2   7 100.742 65.7879   1
  12  -2  -6-12.7336 23.3258   1
 -12   2   6-44.3009 66.2001   1
  12  -2  -5 119.349 42.3348   1
 -12   2   5  124.44 41.2726   1
 -12   2   5 52.8641 34.8267   1
  12  -2  -4 435.083 33.5561   1
 -12   2   4 484.672 52.0498   1
 -12   2   4 378.243 27.5262   1
  12  -2  -3-6.40182 26.9989   1
 -12   2   3-5.94727  41.003   1
 -12   2   3 11.9905 21.1095   1
  12  -2  -2  18.021 49.5313   1
 -12   2   2 41.5256 69.0785   1
 -12   2   2 21.5114 22.1749   1
  12  -2  -1 19.2836 31.9847   1
 -12   2   1 114.817 70.8577   1
 -12   2   1 81.1441 39.6973   1
  12  -2   0 70.7246 57.2754   1
 -12   2   0 116.135 46.5259   1
 -12   2   0 111.402 42.3834   1
  12  -2   1 23.1379 34.8904   1
 -12   2  -1-13.0773 46.7254   1
 -12   2  -1 62.5274 43.4838   1
  12  -2   2  82.069 39.3943   1
 -12   2  -2 113.974 83.0847   1
 -12   2  -2 62.9632 47.8043   1
  12  -2   3 399.085 50.5766   1
 -12   2  -3 520.173 62.0184   1
 -12   2  -3  448.35 59.8984   1
  12  -2   4 99.7985 41.1044   1
 -12   2  -4-59.6149 53.5627   1
 -12   2  -4 1.40683 52.8206   1
  12  -2   5 42.5906 75.6615   1
 -12   2  -5 150.036 90.6305   1
 -12   2  -5-15.1344 35.0154   1
  12  -2   6 1278.03 85.3765   1
 -12   2  -6 1338.17 95.7412   1
 -12   2  -6 1130.09 70.1388   1
  12  -2   7 1058.92 146.973   1
 -12   2  -7 1344.94 158.784   1
 -12   2  -7 1230.08 117.053   1
  12  -2   8 23.6091 55.8482   1
 -12   2  -8 43.6386 56.5655   1
 -12   2  -8 103.354 43.4212   1
  12  -2   9 83.5829 101.635   1
 -12   2  -9 37.5723 56.1801   1
 -12   2  -9 34.8784 75.9976   1
  12  -2  10 66.9623 61.2233   1
 -12   2 -10 32.7431  47.683   1
 -12   2 -11-112.278 88.3623   1
  12  -2  12 59.0442  66.058   1
 -12   2 -12 68.4753 51.3971   1
 -12   2 -13 24.6065 54.6941   1
  12  -2  14 86.1713 73.4254   1
 -12   2 -14 50.7924 59.2184   1
  12  -1  -7 147.517 45.3502   1
 -12   1   7 265.449 63.5525   1
  12  -1  -6 57.2213 41.5796   1
 -12   1   6 56.7851 36.4441   1
  12  -1  -5 42.4442   27.02   1
 -12   1   5 77.1392 36.6378   1
 -12   1   5 124.491 37.9015   1
  12  -1  -4 286.156 53.0171   1
 -12   1   4 321.852 43.3209   1
 -12   1   4 274.583 43.4669   1
  12  -1  -3  378.43 36.8832   1
 -12   1   3 393.117 46.5576   1
 -12   1   3 338.446 28.6948   1
  12  -1  -2 257.957 57.7116   1
 -12   1   2 254.534 41.9538   1
 -12   1   2 195.556 27.4491   1
  12  -1  -1 88.7857 33.0971   1
 -12   1   1 102.631 41.7669   1
 -12   1   1 47.8108 26.2706   1
  12  -1   0 145.733 63.9308   1
 -12   1   0 155.153  28.785   1
  12  -1   1 1344.51 74.0378   1
 -12   1  -1 1442.20 84.1364   1
 -12   1  -1 1240.71 57.3286   1
  12  -1   2 40.6649 66.4986   1
 -12   1  -2-11.5552 45.5024   1
 -12   1  -2 37.0545 29.5099   1
  12  -1   3 234.289 45.8224   1
 -12   1  -3 366.811 56.5418   1
 -12   1  -3  279.19 36.2141   1
  12  -1   4 313.918  48.825   1
 -12   1  -4 296.211 57.0141   1
 -12   1  -4 224.257 36.4147   1
  12  -1   5 162.297 47.5398   1
 -12   1  -5 134.992 50.3066   1
 -12   1  -5  60.711 37.1628   1
  12  -1   6 315.656 56.0594   1
 -12   1  -6 373.677 103.494   1
 -12   1  -6 265.763 74.9739   1
  12  -1   7 698.823 125.437   1
 -12   1  -7 868.537 78.8491   1
 -12   1  -7 729.121 61.8575   1
  12  -1   8 1155.46  93.277   1
 -12   1  -8 1167.92  77.744   1
  12  -1   9 141.637 60.9322   1
 -12   1  -9 54.1511 46.9969   1
  12  -1  10 570.561 76.5197   1
 -12   1 -10 485.668 62.7996   1
  12  -1  11 249.329 67.4156   1
 -12   1 -11 136.582 54.1645   1
  12  -1  12 67.0249 114.208   1
 -12   1 -12 77.9549 91.0876   1
  12  -1  13 92.1829 65.7312   1
 -12   1 -13-1.92352  53.542   1
  12  -1  14-8.40468 117.438   1
 -12   1 -14 15.2116 55.8847   1
  12  -1  15 70.6465 73.6413   1
 -12   1 -15-133.834 62.1963   1
  12   0  -7 1.46622   27.21   1
 -12   0   7 14.3147 30.3388   1
  12   0  -6  37.578 45.8546   1
 -12   0   6-11.0237 31.3716   1
  12   0  -5 64.8032 29.1929   1
 -12   0   5 12.2613 31.3473   1
 -12   0   5 17.9733 24.1263   1
  12   0  -4 90.0213 30.0498   1
 -12   0   4 12.4137 34.4444   1
 -12   0   4-1.56599 41.6352   1
  12   0  -3 369.008 62.0412   1
 -12   0   3 376.794 42.0139   1
 -12   0   3 336.889 51.4695   1
  12   0  -2 360.248 37.8364   1
 -12   0   2  270.23 39.8925   1
 -12   0   2 316.358 51.6147   1
  12   0  -1 155.832 36.7631   1
 -12   0   1 151.917 40.2684   1
 -12   0   1 113.952 29.7858   1
  12   0   0 1023.99 61.7268   1
 -12   0   0 1107.15 66.1353   1
 -12   0   0 934.477 50.0685   1
  12   0   1 855.333 59.0514   1
 -12   0  -1 894.665 103.715   1
 -12   0  -1 777.776 46.4677   1
  12   0   2 866.117 96.8278   1
 -12   0  -2 908.692 101.682   1
 -12   0  -2 723.276 47.4357   1
  12   0   3 351.793 49.7304   1
 -12   0  -3  372.45 53.5335   1
 -12   0  -3 283.096 37.9812   1
  12   0   4-42.7325 43.5914   1
 -12   0  -4-65.4077 43.0437   1
 -12   0  -4-1.54009 56.4012   1
  12   0   5 97.5375 78.9973   1
 -12   0  -5 86.9587  79.766   1
 -12   0  -5-41.6094  60.149   1
  12   0   6  124.29   53.14   1
 -12   0  -6 175.576 53.4107   1
 -12   0  -6  218.03  41.601   1
  12   0   7 271.976 100.119   1
 -12   0  -7 283.839 49.1735   1
  12   0   8 229.583 61.5215   1
 -12   0  -8  263.61 87.4841   1
  12   0   9 404.195  69.563   1
 -12   0  -9 474.076 58.2868   1
  12   0  10 877.083 149.372   1
 -12   0 -10 882.154 125.546   1
  12   0  11 348.156 73.4505   1
 -12   0 -11 346.059 59.9493   1
  12   0  12 65.8311 65.0277   1
 -12   0 -12 28.3022 52.9358   1
  12   0  13-39.4135 68.9037   1
 -12   0 -13-124.442 95.8063   1
  12   0  14 369.841 79.8262   1
 -12   0 -14 263.073 65.6876   1
  12   0  15 105.965 123.605   1
 -12   0 -15 56.5616 62.1158   1
  12   0  16 158.522 77.7059   1
 -12   0 -16 121.703 65.3209   1
  12   1  -8 35.8604 30.5326   1
  12   1  -7 107.822 30.9423   1
 -12  -1   7 13.9519 27.4037   1
  12   1  -6 22.2216 50.7459   1
 -12  -1   6 4.45596 27.3675   1
  12   1  -5 286.703 36.5892   1
 -12  -1   5 321.148 33.0531   1
 -12  -1   5 259.844 31.3733   1
  12   1  -4-38.4893 31.3186   1
 -12  -1   4 25.7602 29.2637   1
 -12  -1   4-20.4033  26.956   1
  12   1  -3 521.511 67.8554   1
 -12  -1   3 343.213 38.7112   1
 -12  -1   3 411.815 34.8755   1
  12   1  -2 263.274 38.5689   1
 -12  -1   2 228.279 33.6393   1
 -12  -1   2 199.019 31.9027   1
  12   1  -1 296.224 66.1119   1
 -12  -1   1  216.57 38.9584   1
 -12  -1   1 219.977 33.6463   1
  12   1   0-40.2355   36.28   1
 -12  -1   0 91.4361 35.4119   1
 -12  -1   0 64.1969 30.4695   1
  12   1   1 1896.46 91.3785   1
 -12  -1  -1 1887.02 92.1347   1
 -12  -1  -1 1765.64 76.6589   1
  12   1   2 276.645 76.3004   1
 -12  -1  -2 297.068 46.1832   1
 -12  -1  -2 192.288 36.4971   1
  12   1   3 242.021 46.5802   1
 -12  -1  -3 217.205 44.4752   1
 -12  -1  -3 231.169 37.1222   1
  12   1   4  354.95 53.9949   1
 -12  -1  -4 425.587  83.217   1
 -12  -1  -4 376.507 43.5501   1
  12   1   5 328.823 91.8186   1
 -12  -1  -5 319.725  50.638   1
 -12  -1  -5 259.783 40.8458   1
  12   1   6 9.89692 48.4102   1
 -12  -1  -6-64.0443 40.1434   1
  12   1   7 586.868 68.7085   1
 -12  -1  -7 378.366 93.8609   1
  12   1   8 5543.76 484.109   1
 -12  -1  -8 5440.28 292.391   1
  12   1   9 228.492 63.2721   1
 -12  -1  -9 227.785 90.9113   1
  12   1  10 224.033 63.4427   1
 -12  -1 -10 213.723 53.8713   1
  12   1  11 106.409 102.865   1
 -12  -1 -11 37.4687 88.7554   1
  12   1  12 17.6957 62.6598   1
 -12  -1 -12-88.9723 52.4532   1
  12   1  13-18.6445 117.227   1
 -12  -1 -13 113.328 55.7631   1
  12   1  14 467.695 84.7015   1
 -12  -1 -14 426.692 119.065   1
  12   1  15 71.6208 71.9377   1
 -12  -1 -15 169.313 101.102   1
  12   1  16 149.383 117.671   1
 -12  -1 -16 -6.4987 60.4058   1
  12   2  -8 24.1043  32.442   1
  12   2  -7 97.8751 33.9346   1
  12   2  -6 1.28522 55.0161   1
 -12  -2   6-9.28531 39.5683   1
  12   2  -5 44.8178   33.96   1
 -12  -2   5  5.2876 24.3145   1
 -12  -2   5 12.5426 29.3322   1
  12   2  -4 86.0129 37.0914   1
 -12  -2   4  78.665 27.4783   1
 -12  -2   4  150.27 31.1402   1
  12   2  -3 252.451 64.9795   1
 -12  -2   3 170.447 30.4748   1
 -12  -2   3 204.263 33.5446   1
  12   2  -2-21.5235 35.5625   1
 -12  -2   2 51.3567 27.0968   1
 -12  -2   2-6.06933 29.7039   1
  12   2  -1 113.245 62.1216   1
 -12  -2   1 61.2381 51.0917   1
 -12  -2   1-23.3057  30.641   1
  12   2   0 17.8209 37.5595   1
 -12  -2   0-54.6942 53.3922   1
 -12  -2   0 11.0328  31.348   1
  12   2   1 159.841 40.1166   1
 -12  -2  -1 85.5727 59.0202   1
 -12  -2  -1 53.9914 34.6546   1
  12   2   2 139.345 73.2594   1
 -12  -2  -2 169.179 40.0817   1
 -12  -2  -2 174.891 35.8897   1
  12   2   3-89.2419 41.9033   1
 -12  -2  -3-3.56477  36.136   1
 -12  -2  -3  76.156  33.975   1
  12   2   4 385.251 54.0552   1
 -12  -2  -4  323.06 48.8766   1
 -12  -2  -4 380.901 72.8472   1
  12   2   5 165.443 88.1694   1
 -12  -2  -5 185.018 69.5295   1
  12   2   6 91.9092  50.158   1
 -12  -2  -6 45.5817 38.9064   1
  12   2   7 139.055 54.2976   1
 -12  -2  -7 132.534 46.3402   1
  12   2   8 386.833 117.789   1
 -12  -2  -8 537.693 98.4591   1
  12   2   9 1245.31 98.3559   1
 -12  -2  -9 1128.68 84.4344   1
  12   2  10 381.154 67.2419   1
 -12  -2 -10 299.124  97.306   1
  12   2  11 193.508 106.158   1
 -12  -2 -11 152.108 53.7786   1
  12   2  12 318.557 70.3997   1
 -12  -2 -12 432.205  102.90   1
  12   2  13 64.9543 61.7265   1
 -12  -2 -13-1.96759 53.3466   1
  12   2  14 216.949 122.116   1
 -12  -2 -14 135.696 59.6102   1
  12   2  15 438.403 83.8093   1
 -12  -2 -15 423.888 71.0233   1
  12   2  16 156.185 73.0569   1
 -12  -2 -16 61.6473 107.176   1
  12   3  -8 75.5035 35.6331   1
  12   3  -7  113.28 62.0173   1
  12   3  -6 81.6687 60.6711   1
 -12  -3   6 39.9149 20.7348   1
  12   3  -5 68.8678 37.2492   1
 -12  -3   5 148.728 36.8722   1
  12   3  -4 339.572 43.4705   1
 -12  -3   4 288.421 44.5971   1
 -12  -3   4 271.105 63.0904   1
  12   3  -3 58.6601  37.654   1
 -12  -3   3 17.2644 23.7901   1
 -12  -3   3-28.9131 55.5032   1
  12   3  -2 406.844 46.6456   1
 -12  -3   2 335.572 29.5804   1
 -12  -3   2 380.374 40.8439   1
  12   3  -1 27.6679 38.4748   1
 -12  -3   1  36.553 45.8852   1
 -12  -3   1 13.4845 32.9565   1
  12   3   0 258.496 44.2585   1
 -12  -3   0 189.669 55.8605   1
 -12  -3   0 290.817 38.7558   1
  12   3   1 88.5843 40.5893   1
 -12  -3  -1 14.8712 32.2531   1
 -12  -3  -1-7.39055 35.4889   1
  12   3   2 144.483 75.2712   1
 -12  -3  -2 65.5205 33.1799   1
 -12  -3  -2  130.16 36.7389   1
  12   3   3 415.806 52.3172   1
 -12  -3  -3 375.488  44.084   1
 -12  -3  -3 438.647 45.2087   1
  12   3   4 82.2207 47.2903   1
 -12  -3  -4 74.8549 39.2825   1
  12   3   5 1288.04 133.875   1
 -12  -3  -5 1016.27 69.1012   1
  12   3   6 109.281  49.972   1
 -12  -3  -6 -72.161 70.6834   1
  12   3   7 13.2718 52.8357   1
 -12  -3  -7 99.0686 43.1934   1
  12   3   8 2524.58 149.575   1
 -12  -3  -8 2423.10 129.796   1
  12   3   9  144.67 97.8923   1
 -12  -3  -9 71.3227 81.9507   1
  12   3  10 410.051 66.8046   1
 -12  -3 -10 262.826 57.3333   1
  12   3  11 573.916 73.0829   1
 -12  -3 -11 500.703 106.111   1
  12   3  12 184.883 61.0801   1
 -12  -3 -12 125.521  52.894   1
  12   3  13 81.4315 100.524   1
 -12  -3 -13-111.402 51.7314   1
  12   3  14 54.3337 63.7472   1
 -12  -3 -14  154.88 90.8815   1
  12   3  15  192.51 71.1049   1
 -12  -3 -15 257.785 60.1093   1
  12   3  16  64.864 118.128   1
 -12  -3 -16 116.003 57.3146   1
  12   3  17-44.1159 68.2349   1
 -12  -3 -17-48.8683 59.2432   1
  12   4  -8-1.98373 62.7684   1
  12   4  -7 6.82075 38.4021   1
  12   4  -6-3.66845 37.6033   1
  12   4  -5 67.0605 38.5422   1
 -12  -4   5 53.8528 18.2307   1
  12   4  -4 169.814  68.875   1
 -12  -4   4 118.903 32.6642   1
 -12  -4   4 130.705 36.3936   1
  12   4  -3 761.886 55.1273   1
 -12  -4   3 543.844 29.8382   1
 -12  -4   3 657.615 49.5405   1
  12   4  -2 82.6305 68.7937   1
 -12  -4   2 18.7505 21.3072   1
 -12  -4   2 45.1414 35.5733   1
  12   4  -1 326.078 49.2516   1
 -12  -4   1 303.561 48.1196   1
 -12  -4   1 371.484 42.6132   1
  12   4   0 767.673 96.8255   1
 -12  -4   0 549.821 38.1498   1
 -12  -4   0 711.771 50.8224   1
  12   4   1 173.507 46.5646   1
 -12  -4  -1 230.994 32.4415   1
 -12  -4  -1 268.663 70.2488   1
  12   4   2-17.3323 76.0062   1
 -12  -4  -2 102.264 29.9742   1
 -12  -4  -2 120.844 66.7393   1
  12   4   3 27.4351 44.8772   1
 -12  -4  -3 28.1672 32.6712   1
 -12  -4  -3 81.8504 67.1324   1
  12   4   4 1000.53 71.8827   1
 -12  -4  -4 918.247  64.134   1
  12   4   5-49.2891 48.5111   1
 -12  -4  -5 15.5845 41.4754   1
  12   4   6 959.345 126.726   1
 -12  -4  -6 817.179 64.5276   1
  12   4   7 180.513 56.9004   1
 -12  -4  -7  211.37 78.9922   1
  12   4   8 1561.38 110.458   1
 -12  -4  -8 1550.56 91.9024   1
  12   4   9 314.959 62.5436   1
 -12  -4  -9 233.619 53.4809   1
 -12  -4 -10 20.8283 80.6067   1
  12   4  11-3.03577 56.2652   1
 -12  -4 -11 41.1176 48.2438   1
  12   4  12 118.878 57.8301   1
 -12  -4 -12 134.401 86.5228   1
  12   4  13 71.0018 57.0458   1
 -12  -4 -13 79.7874 50.6557   1
  12   4  14-57.2372 99.3547   1
 -12  -4 -14 107.118  50.669   1
  12   4  15 29.3139 61.0894   1
 -12  -4 -15 0.61306 86.3799   1
  12   4  16 19.0486 62.7883   1
 -12  -4 -16  65.482 91.1038   1
  12   4  17  160.56  120.03   1
 -12  -4 -17 179.807 59.9449   1
  12   4  18 157.707 65.4702   1
 -12  -4 -18 -45.502 57.7634   1
  12   5  -7 17.8506 42.1347   1
  12   5  -6 16.4405 69.4385   1
  12   5  -5-27.1024 66.7477   1
 -12  -5   5 4.44833 14.2455   1
  12   5  -4 5.15951 39.9599   1
 -12  -5   4 10.5072 25.2999   1
  12   5  -3 6.01834 39.6055   1
 -12  -5   3-4.74265  28.372   1
 -12  -5   3 43.6611 61.9912   1
  12   5  -2 697.696 61.4899   1
 -12  -5   2 847.309 91.9338   1
  12   5  -1 444.266 51.0186   1
 -12  -5   1 281.544 41.7938   1
 -12  -5   1 376.094 46.6243   1
  12   5   0 17.4612 74.8507   1
 -12  -5   0-26.8761 23.0213   1
 -12  -5   0-48.5779 39.4115   1
  12   5   1 609.578 60.9392   1
 -12  -5  -1 541.578 59.7526   1
 -12  -5  -1 671.253 53.3423   1
  12   5   2-15.8239 44.6414   1
 -12  -5  -2-13.0561 46.4035   1
 -12  -5  -2-38.2721 40.6893   1
  12   5   3 -4.4614  78.028   1
 -12  -5  -3 5.69801 41.1303   1
  12   5   4 128.841 49.5946   1
 -12  -5  -4 105.962 74.3025   1
  12   5   5 -18.802 47.3789   1
 -12  -5  -5 54.0591 71.3103   1
  12   5   6-35.7466 50.3179   1
 -12  -5  -6 106.865 43.2811   1
  12   5   7  729.94 120.187   1
 -12  -5  -7  610.78 60.5039   1
  12   5   8 2899.19 164.072   1
 -12  -5  -8 2823.29 216.332   1
  12   5   9 15.4393 54.5591   1
 -12  -5  -9 66.5712 46.1054   1
  12   5  10 1284.93 96.6073   1
 -12  -5 -10 1206.25 81.2905   1
  12   5  11  929.56 147.402   1
 -12  -5 -11 969.879 74.5448   1
  12   5  12-71.5164 97.3766   1
 -12  -5 -12-46.3713 48.2891   1
  12   5  13 47.1645 58.3076   1
 -12  -5 -13 179.558 51.3683   1
  12   5  14 4.21799 53.2668   1
 -12  -5 -14-58.9103 80.1747   1
  12   5  15 148.027 62.7009   1
 -12  -5 -15 158.986 50.9497   1
  12   5  16-19.4365 101.643   1
 -12  -5 -16 84.8351 50.2075   1
  12   5  17 82.2064 64.5613   1
 -12  -5 -17 144.717 53.7872   1
  12   5  18-133.964 62.3743   1
 -12  -5 -18-16.0555 92.2372   1
  12   6  -7 139.692 47.7773   1
  12   6  -6 21.9582 44.2899   1
  12   6  -5 346.086  52.077   1
  12   6  -4 119.855 78.2373   1
 -12  -6   4 126.396 21.3376   1
  12   6  -3 121.498 42.6717   1
 -12  -6   3 22.5255 22.6935   1
 -12  -6   3-22.7794 40.5729   1
  12   6  -2 143.465 45.5679   1
 -12  -6   2 78.6565 25.6508   1
 -12  -6   2 146.494 41.8956   1
  12   6  -1 211.337 76.9527   1
 -12  -6   1 82.1427 30.3499   1
 -12  -6   1 83.1817 41.7572   1
  12   6   0 252.493  49.862   1
 -12  -6   0 166.559 21.9989   1
 -12  -6   0 252.469 77.8814   1
  12   6   1 636.716 102.976   1
 -12  -6  -1 499.921 48.6563   1
 -12  -6  -1 735.918 93.9889   1
  12   6   2 150.727 51.1373   1
 -12  -6  -2 189.705 27.3771   1
 -12  -6  -2 181.231 46.2762   1
  12   6   3 2315.15 123.383   1
 -12  -6  -3 2351.70 113.661   1
  12   6   4 314.052 92.0567   1
 -12  -6  -4 227.012 49.7011   1
  12   6   5 3596.94 183.957   1
 -12  -6  -5 3432.06 165.931   1
  12   6   6 4.43829 49.3255   1
 -12  -6  -6 103.381 76.1367   1
  12   6   7 1086.78 88.7827   1
 -12  -6  -7 1187.38 76.3838   1
  12   6   8 1972.82 203.386   1
 -12  -6  -8 1980.41  109.45   1
  12   6   9 236.529 58.8135   1
  12   6  10 282.275 61.2884   1
 -12  -6 -10 334.513 51.5335   1
  12   6  11-23.2993 54.6293   1
 -12  -6 -11-96.3959 79.1658   1
  12   6  12 2776.19  161.05   1
 -12  -6 -12 2566.23 140.596   1
  12   6  13 60.7613 91.3841   1
 -12  -6 -13-9.37959 79.2325   1
  12   6  14 210.907 98.2946   1
 -12  -6 -14 204.287  51.015   1
  12   6  15 351.814 61.6602   1
 -12  -6 -15  287.53 55.0245   1
  12   6  16  95.817 56.7758   1
 -12  -6 -16 28.4804 82.3131   1
  12   6  17 -9.3536 58.1468   1
 -12  -6 -17 25.7704 48.7874   1
  12   6  18 106.161 100.918   1
 -12  -6 -18-87.3493  50.191   1
  12   7  -7 153.549 51.5873   1
  12   7  -6 129.192 84.0771   1
  12   7  -5 -4.3268 81.1027   1
  12   7  -4 176.932 50.5489   1
  12   7  -3 362.971 53.5733   1
 -12  -7   3  277.87 19.5128   1
  12   7  -2-4.53431 75.9673   1
 -12  -7   2  33.681 12.1875   1
 -12  -7   2 31.4528 41.7989   1
  12   7  -1 1102.79  78.423   1
 -12  -7   1 1177.50 76.3148   1
  12   7   0 743.733 108.164   1
 -12  -7   0 668.693 25.8178   1
 -12  -7   0 848.838 62.3619   1
  12   7   1 369.241 57.0025   1
 -12  -7  -1 311.723 37.0559   1
 -12  -7  -1 404.192 52.8254   1
  12   7   2 2288.76 180.465   1
 -12  -7  -2 1900.79 61.1016   1
 -12  -7  -2 2301.39 169.979   1
  12   7   3 63.8357 50.0375   1
 -12  -7  -3 13.3207 76.3666   1
  12   7   4 729.753 65.9558   1
 -12  -7  -4 631.355 61.1506   1
  12   7   5 213.779 94.4362   1
 -12  -7  -5 275.591 50.5258   1
  12   7   6 110.928 49.4302   1
 -12  -7  -6 13.9605 44.1941   1
  12   7   7 273.454 55.5712   1
 -12  -7  -7 198.069 85.4081   1
  12   7   8 294.683 58.3353   1
 -12  -7  -8 319.347 51.0047   1
  12   7   9 214.744  55.453   1
 -12  -7  -9 180.516 48.1513   1
  12   7  10 198.589  91.513   1
 -12  -7 -10  75.352 45.9163   1
  12   7  11 73.7374 90.3945   1
 -12  -7 -11 27.5332 42.9364   1
  12   7  12  69.022 52.0969   1
 -12  -7 -12 49.8089 75.5594   1
  12   7  13 83.1049 55.0713   1
 -12  -7 -13 191.593 46.6883   1
  12   7  14 236.056  56.596   1
 -12  -7 -14 211.697 49.1372   1
  12   7  15 144.362 52.7537   1
 -12  -7 -15 4.64849  79.409   1
  12   7  16 405.175 97.4812   1
 -12  -7 -16 226.202 52.2843   1
  12   7  17 39.6014 57.2414   1
 -12  -7 -17 146.415 48.2961   1
  12   7  18 22.7673  56.336   1
 -12  -7 -18 58.9908 46.8677   1
  12   8  -6 41.8594 50.7012   1
  12   8  -5-37.5678 48.9599   1
  12   8  -4-22.8917 81.6784   1
  12   8  -3-42.4144 49.3512   1
  12   8  -2 507.453  63.806   1
 -12  -8   2 531.532 60.6632   1
  12   8  -1-10.9951 81.9709   1
 -12  -8   1 23.7672 17.1286   1
 -12  -8   1 37.2766 76.7362   1
  12   8   0 8.60493 45.8726   1
 -12  -8   0 12.1583 22.4638   1
 -12  -8   0 54.1289 45.3712   1
  12   8   1 1575.80 152.022   1
 -12  -8  -1 1528.15 92.1436   1
  12   8   2 168.312 49.7995   1
 -12  -8  -2 6.45809 46.0864   1
  12   8   3 4003.76 314.628   1
 -12  -8  -3 4068.01 292.227   1
  12   8   4 294.975 57.4801   1
 -12  -8  -4 269.408 86.8074   1
  12   8   5 131.686 51.0711   1
 -12  -8  -5 137.029 47.5732   1
  12   8   6 2926.82 240.693   1
 -12  -8  -6 2827.40 139.176   1
  12   8   7 703.987  115.60   1
 -12  -8  -7 654.815 102.706   1
  12   8   8-31.6888 46.2407   1
 -12  -8  -8 -24.253 42.7158   1
  12   8   9 180.507 52.0746   1
 -12  -8  -9 184.713 45.5016   1
  12   8  10 207.643 52.6878   1
 -12  -8 -10  235.48 79.2262   1
  12   8  11 589.541 66.6416   1
 -12  -8 -11 616.986 56.6386   1
  12   8  12 67.8741 84.4266   1
 -12  -8 -12 85.2249 70.9163   1
 -12  -8 -13 76.5951 42.3737   1
  12   8  14 262.389  96.899   1
 -12  -8 -14 377.021 79.9904   1
  12   8  15 51.3557 48.4042   1
 -12  -8 -15 61.5812 42.8864   1
  12   8  16 55.1791 50.5983   1
 -12  -8 -16 144.484 44.5322   1
  12   8  17 133.853 52.9114   1
 -12  -8 -17  52.203 74.2579   1
  12   8  18-64.8445 53.1431   1
 -12  -8 -18-12.5067 73.4218   1
  12   9  -6 217.725 59.4144   1
  12   9  -5-20.2773 51.6089   1
  12   9  -4 89.4915 51.5402   1
  12   9  -3 580.738 111.395   1
  12   9  -2 305.476 58.1228   1
  12   9  -1 87.4216 49.7849   1
 -12  -9   1  38.291 11.2415   1
 -12  -9   1 85.7002 47.9857   1
 -12  -9   0 31.4231 16.8983   1
 -12  -9   0 98.5067 46.8878   1
  12   9   1 29.2487 48.3883   1
 -12  -9  -1 31.7797 21.5193   1
 -12  -9  -1 241.408 79.2603   1
  12   9   2 54.4942 78.3882   1
 -12  -9  -2-57.0458 45.7575   1
  12   9   3 52.6855 47.7196   1
 -12  -9  -3 45.9877 44.4539   1
  12   9   4-17.2422 48.3727   1
 -12  -9  -4-72.3204 76.7996   1
  12   9   5  271.14 51.8931   1
 -12  -9  -5 213.001 49.5796   1
  12   9   6 2556.91 137.999   1
 -12  -9  -6 2702.52 132.631   1
  12   9   7 5804.93 313.681   1
 -12  -9  -7 5831.22 293.682   1
  12   9   8 11.7322 46.8194   1
 -12  -9  -8 178.288 73.6176   1
  12   9   9 10.5486 79.3263   1
 -12  -9  -9 20.1477 40.4289   1
  12   9  10 114.451  86.063   1
 -12  -9 -10  201.27 72.9163   1
  12   9  11 383.417 54.1154   1
 -12  -9 -11 316.672 46.7918   1
  12   9  12 480.986 59.6075   1
 -12  -9 -12 523.037  52.028   1
  12   9  13 198.447 51.9664   1
 -12  -9 -13 279.518 44.9867   1
  12   9  14 167.165 49.9648   1
 -12  -9 -14 147.284 69.3796   1
  12   9  15 203.908  48.689   1
 -12  -9 -15 133.533 41.0552   1
  12   9  16 7.39593 77.5065   1
 -12  -9 -16 71.5844 39.2453   1
  12   9  17-61.0215 77.2592   1
 -12  -9 -17-19.2659 67.6143   1
  12   9  18 63.8002 82.6638   1
 -12  -9 -18   66.63 42.0001   1
  12  10  -5 111.525 58.4772   1
  12  10  -4 10.2221 53.1342   1
  12  10  -3 111.062 55.5672   1
  12  10  -2 907.141 130.158   1
  12  10  -1 55.6072 51.8172   1
  12  10   0-11.0228 49.4179   1
 -12 -10   0 23.9264 10.4739   1
 -12 -10   0 36.9377  48.736   1
  12  10   1-18.3963 80.2994   1
 -12 -10  -1-7.39563 16.6149   1
 -12 -10  -1  20.632 46.2684   1
  12  10   2 30.8163 47.3653   1
 -12 -10  -2 19.3232 78.5437   1
  12  10   3 122.781 83.7346   1
 -12 -10  -3 157.689 47.5828   1
  12  10   4-29.6283 46.5786   1
 -12 -10  -4 1.37844 42.5639   1
  12  10   5 23.9123 47.5357   1
 -12 -10  -5 146.014 74.6961   1
  12  10   6-24.5317 78.7027   1
 -12 -10  -6-23.9431 41.6866   1
  12  10   7 108.758 78.1036   1
 -12 -10  -7-19.0028 42.2394   1
  12  10   8-6.32053 45.8482   1
 -12 -10  -8 -64.588 69.8186   1
  12  10   9  860.98 67.2991   1
 -12 -10  -9 871.529 62.7443   1
  12  10  10 45.0663 45.4365   1
 -12 -10 -10 55.2052 38.4373   1
  12  10  11  320.25 49.4959   1
 -12 -10 -11 224.387 43.2325   1
  12  10  12 158.963 80.3624   1
 -12 -10 -12  147.64 40.0303   1
  12  10  13 54.0824 73.3372   1
 -12 -10 -13 22.0835 36.9959   1
  12  10  14 225.329 77.5393   1
 -12 -10 -14  120.47  39.583   1
  12  10  15 35.4875 74.5472   1
 -12 -10 -15 48.9811 37.2271   1
  12  10  16 105.992 44.5576   1
 -12 -10 -16 63.2558 65.2255   1
  12  10  17 80.9304 43.9409   1
 -12 -10 -17 35.6186  37.443   1
  12  10  18 172.921 47.0257   1
 -12 -10 -18 26.3727 38.6187   1
  12  11  -4 151.366 61.6169   1
  12  11  -3 104.704 58.1523   1
  12  11  -2 399.654 62.6048   1
  12  11  -1 -33.537 88.5565   1
  12  11   0 14.7635 51.4498   1
  12  11   1 79.8045 48.9604   1
 -12 -11  -1-0.35967 7.37166   1
 -12 -11  -1-13.9345 46.7029   1
  12  11   2 79.2838 46.6093   1
 -12 -11  -2 38.3338 46.3043   1
  12  11   3 13.6928 46.0064   1
 -12 -11  -3 68.1949 76.7136   1
  12  11   4 112.367 47.8985   1
 -12 -11  -4  135.20 46.0892   1
  12  11   5 137.165 79.9158   1
 -12 -11  -5 67.2898 44.0516   1
  12  11   6 500.155 56.4044   1
 -12 -11  -6  460.74 51.9058   1
  12  11   7 87.8381 46.5383   1
 -12 -11  -7 135.291 43.1433   1
  12  11   8 50.3976 44.9715   1
 -12 -11  -8 49.6943 68.7073   1
  12  11   9 318.258 81.2134   1
 -12 -11  -9  277.34 45.4445   1
  12  11  10 73.4117 72.8614   1
 -12 -11 -10 79.9771 38.8417   1
  12  11  11 14.1703 41.1466   1
 -12 -11 -11 -42.692 37.0278   1
  12  11  12 103.672 43.9245   1
 -12 -11 -12  133.33 38.2203   1
  12  11  13 788.224 63.0791   1
 -12 -11 -13 798.252 54.2973   1
  12  11  14 53.5228 41.0125   1
 -12 -11 -14 60.7674 35.4528   1
  12  11  15  529.19 54.5603   1
 -12 -11 -15 560.307 47.3376   1
  12  11  16  53.494 41.0208   1
 -12 -11 -16 55.0301 58.6078   1
  12  11  17 77.6046  40.987   1
 -12 -11 -17 50.5074  35.844   1
  12  12  -3 504.573 74.1427   1
  12  12  -2 119.045 59.0553   1
  12  12  -1 46.7688 53.3669   1
  12  12   0 155.154 55.8122   1
  12  12   1   9.353   49.97   1
 -12 -12  -2 -4.6023 46.6167   1
  12  12   3 114.264  48.031   1
 -12 -12  -3 138.473 81.4777   1
  12  12   4-27.4866 76.6795   1
 -12 -12  -4-29.4268 44.2835   1
  12  12   5 0.51113 44.8995   1
 -12 -12  -5 85.4448 42.6742   1
  12  12   6 52.1019 45.2945   1
 -12 -12  -6 40.3577  71.235   1
  12  12   7  37.596 73.8987   1
 -12 -12  -7 43.9656 39.6558   1
  12  12   8 102.905 75.8291   1
 -12 -12  -8 121.775 41.4133   1
  12  12   9 51.1966 44.4823   1
 -12 -12  -9 157.883 40.4745   1
  12  12  10 693.208 58.2499   1
 -12 -12 -10 792.618 55.7065   1
  12  12  11 55.8197 41.3425   1
 -12 -12 -11 86.5859 37.0626   1
  12  12  12 100.466 39.5685   1
 -12 -12 -12 -21.064 35.3535   1
  12  12  13 31.7573 41.0692   1
 -12 -12 -13 99.6511 35.0331   1
  12  12  14  73.458 39.4935   1
 -12 -12 -14 50.7126 34.3881   1
  12  12  15 83.0269 66.9529   1
 -12 -12 -15 56.1992 33.9303   1
  12  12  16 107.306  64.624   1
 -12 -12 -16 28.0037 54.3202   1
  12  12  17 150.852 66.4528   1
 -12 -12 -17 96.5974 33.8028   1
  12  13  -2  123.18 62.9977   1
  12  13  -1 30.9367 54.8093   1
  12  13   0 159.111 96.3741   1
  12  13   1 227.014 57.7663   1
  12  13   2-54.2762 51.2959   1
  12  13   3-45.6981 46.3052   1
 -12 -13  -3 8.42225 15.5412   1
 -12 -13  -3-26.7511 45.2786   1
  12  13   4 6.86955 44.7021   1
 -12 -13  -4 22.6599   73.45   1
  12  13   5 38.3268 45.4936   1
 -12 -13  -5 76.8455 43.8966   1
  12  13   6 142.852 80.0253   1
 -12 -13  -6 233.036 74.6699   1
  12  13   7 48.3305 42.6547   1
 -12 -13  -7-12.6111 39.8488   1
  12  13   8 124.403 44.3513   1
 -12 -13  -8 151.548 40.3719   1
  12  13   9 661.306  57.729   1
 -12 -13  -9 647.112 52.8785   1
  12  13  10-45.1509 38.2403   1
 -12 -13 -10 -2.7724 36.2007   1
  12  13  11 43.0244 67.1893   1
 -12 -13 -11 132.576 36.4349   1
  12  13  12 15.0447  65.616   1
 -12 -13 -12 114.213 34.5964   1
  12  13  13-30.5524 62.5364   1
 -12 -13 -13 -5.8503 32.3973   1
  12  13  14 14.9432  63.729   1
 -12 -13 -14 37.3153 53.5963   1
  12  13  15 66.7653 63.7272   1
 -12 -13 -15 96.1341 32.6381   1
  12  13  16 111.441 63.5196   1
 -12 -13 -16 124.042 53.9078   1
  12  14   1 174.749 58.8815   1
  12  14   2 310.833 60.0866   1
  12  14   3 111.756  83.683   1
  12  14   4 58.8101 46.5085   1
 -12 -14  -4 71.1042 19.7577   1
 -12 -14  -4 56.4046  46.333   1
  12  14   5 213.699 49.8395   1
 -12 -14  -5 237.029 47.5922   1
  12  14   6 73.6001 73.2667   1
 -12 -14  -6 44.8149 41.7934   1
  12  14   7 202.569 46.2188   1
 -12 -14  -7 126.616 43.0356   1
  12  14   8  248.43 47.7106   1
 -12 -14  -8 310.462  45.052   1
  12  14   9  229.91 72.4072   1
 -12 -14  -9 145.259 39.9225   1
  12  14  10-12.5844 64.3911   1
 -12 -14 -10 3.15182 33.9117   1
  12  14  11 113.735 37.5625   1
 -12 -14 -11 118.384 35.2884   1
  12  14  12-24.3357 36.3631   1
 -12 -14 -12 86.6308 32.6929   1
  12  14  13-46.8137 36.5084   1
 -12 -14 -13 123.776 31.6133   1
  12  14  14 57.6274 37.3754   1
 -12 -14 -14 139.107 51.8955   1
  12  14  15 68.8592 35.8071   1
 -12 -14 -15 113.023 31.0154   1
  12  15   1-68.1341 55.8886   1
  12  15   2 56.0866 53.1887   1
  12  15   3 726.078 116.281   1
  12  15   4 119.343 49.1703   1
  12  15   5 393.291 87.5322   1
 -12 -15  -5 237.597 16.5038   1
  12  15   6 21.4546 44.0051   1
 -12 -15  -6 28.4995 16.6724   1
 -12 -15  -6 50.8765 42.0701   1
  12  15   7 71.2094 42.2405   1
 -12 -15  -7 14.5443   19.25   1
 -12 -15  -7  72.347 67.3359   1
  12  15   8 831.605  96.817   1
 -12 -15  -8 669.946 35.3833   1
 -12 -15  -8 819.186 58.2727   1
  12  15   9  320.54 76.5415   1
 -12 -15  -9 304.048 71.5318   1
  12  15  10 306.065 43.5511   1
 -12 -15 -10  204.84  39.994   1
  12  15  11 114.419 35.4484   1
 -12 -15 -11 27.3381 33.9846   1
  12  15  12-12.3475 35.7546   1
 -12 -15 -12-49.1518 51.7891   1
  12  15  13-23.6796  33.962   1
 -12 -15 -13 33.1529 28.5118   1
  12  15  14-1.74979 33.4192   1
 -12 -15 -14 7.27448 46.3852   1
  12  16   4 57.7333 47.6428   1
  12  16   5-67.2197 79.0236   1
  12  16   6 20.3063 43.6409   1
  12  16   7 367.154 52.7156   1
 -12 -16  -7 407.532 38.5434   1
  12  16   8 186.246 70.2153   1
 -12 -16  -8 54.3034 23.2181   1
 -12 -16  -8 67.4836 39.6084   1
  12  16   9 324.072 44.8569   1
 -12 -16  -9 279.506 48.6144   1
 -12 -16  -9 293.415 70.2084   1
  12  16  10 1.42745 37.3954   1
 -12 -16 -10 24.9291 27.8663   1
 -12 -16 -10-10.5311 34.1231   1
  12  16  11  34.829 34.9108   1
 -12 -16 -11 37.4022 31.1439   1
 -12 -16 -11 98.4896 32.4748   1
  12  16  12 134.784 37.4496   1
 -12 -16 -12 232.726  37.617   1
  13  -5   0 6.50661 28.7615   1
 -13   5   0 26.7357 54.1862   1
 -13   5   0 26.4086 34.2166   1
  13  -5   1 205.057 35.3252   1
 -13   5  -1  238.45 60.2886   1
 -13   5  -1 115.921 40.7603   1
  13  -5   2  66.398 59.2502   1
 -13   5  -2 31.9676 59.6228   1
 -13   5  -2 34.3593 40.6991   1
  13  -5   3 143.402 42.5604   1
 -13   5  -3 278.827 66.9517   1
 -13   5  -3 173.966  46.636   1
  13  -5   4-16.0848 42.4749   1
 -13   5  -4 -102.54 61.3608   1
 -13   5  -4-21.7365 47.8869   1
  13  -5   5 -28.343 77.5226   1
 -13   5  -5 10.0708 62.0668   1
 -13   5  -5 43.7928 31.5685   1
  13  -5   6 182.188 50.1136   1
 -13   5  -6 82.8468 111.342   1
 -13   5  -6 136.044 38.0322   1
  13  -5   7 68.6779 52.2181   1
 -13   5  -7-33.7757 64.9631   1
  13  -4  -2 40.5818 25.3251   1
 -13   4   2 99.9453 51.5514   1
 -13   4   2 6.62961 19.6771   1
  13  -4  -1 22.6508 28.2188   1
 -13   4   1 107.209 89.5632   1
 -13   4   1 58.2518 21.4729   1
  13  -4   0  36.104 49.8876   1
 -13   4   0 86.8293 51.3452   1
 -13   4   0 33.7228 37.1456   1
  13  -4   1-25.9218 32.5575   1
 -13   4  -1-36.7499 54.0698   1
 -13   4  -1 18.9568 38.8533   1
  13  -4   2 113.053 35.2844   1
 -13   4  -2-109.895 57.5143   1
 -13   4  -2 41.3255 42.9682   1
  13  -4   3 36.6187 69.0866   1
 -13   4  -3 100.065 60.5691   1
 -13   4  -3 101.961 48.2973   1
  13  -4   4 410.611 52.7857   1
 -13   4  -4 537.105 71.1681   1
 -13   4  -4 341.109 37.4594   1
  13  -4   5 365.889 97.8143   1
 -13   4  -5 590.933   77.74   1
 -13   4  -5  444.15 43.0772   1
  13  -4   6  306.24  58.609   1
 -13   4  -6 396.521 69.1138   1
 -13   4  -6 236.016 70.9725   1
  13  -4   7 242.342 60.2462   1
 -13   4  -7 366.023 122.646   1
 -13   4  -7 252.166 45.0937   1
  13  -4   8 551.058 73.2407   1
 -13   4  -8 692.466 87.3035   1
 -13   4  -8  493.67 55.6952   1
  13  -4   9 122.575 61.9951   1
 -13   4  -9 79.0518 70.2105   1
 -13   4  -9 166.802 47.8808   1
  13  -3  -4   70.99 24.0758   1
 -13   3   4 50.5429 80.2523   1
  13  -3  -3 88.9377 26.8388   1
 -13   3   3 35.8747  83.499   1
 -13   3   3 69.6933 34.6035   1
  13  -3  -2-15.0098 45.8545   1
 -13   3   2-45.9605 48.6695   1
 -13   3   2-42.2809 21.1605   1
  13  -3  -1 18.2208 29.9839   1
 -13   3   1 44.6859 46.6198   1
 -13   3   1 47.0483 22.4878   1
  13  -3   0 28.9967 31.5537   1
 -13   3   0-59.3209 78.2077   1
 -13   3   0 5.35934 23.5208   1
  13  -3   1 43.7252 56.3936   1
 -13   3  -1 27.0991 50.9634   1
 -13   3  -1 27.7606 25.0286   1
  13  -3   2 90.2325 37.2172   1
 -13   3  -2 199.269 53.1114   1
 -13   3  -2 97.6804 27.8489   1
  13  -3   3 86.3812 65.0605   1
 -13   3  -3 69.5677 53.2175   1
 -13   3  -3 31.8821 28.9921   1
  13  -3   4 8.95276 40.4672   1
 -13   3  -4-68.6537 54.2526   1
 -13   3  -4 6.04205 29.7838   1
  13  -3   5 109.304 85.1236   1
 -13   3  -5 392.091 63.9972   1
 -13   3  -5 276.053 39.4203   1
  13  -3   6 344.471  59.209   1
 -13   3  -6  341.36 72.5284   1
 -13   3  -6 333.595 71.8029   1
  13  -3   7-13.1622 90.9266   1
 -13   3  -7-10.3834 64.6865   1
 -13   3  -7 127.775 40.8661   1
  13  -3   8 7.10964 54.5204   1
 -13   3  -8 4.19372 98.8067   1
 -13   3  -8-30.9731 69.5203   1
  13  -3   9 47.5139 59.6871   1
 -13   3  -9-20.5575 59.8931   1
 -13   3  -9 21.9873 44.4583   1
  13  -3  10 30.4544 61.7005   1
 -13   3 -10 22.8794 59.0538   1
 -13   3 -10 71.7418 81.3313   1
  13  -3  11 325.545 75.5796   1
 -13   3 -11 304.608 122.924   1
 -13   3 -11 335.843 59.3067   1
  13  -2  -4-12.7155 45.7811   1
 -13   2   4 92.0488 43.4207   1
 -13   2   4 58.3984 35.4425   1
  13  -2  -3 27.2556 29.0223   1
 -13   2   3 124.269 74.1344   1
 -13   2   3 48.0628 36.6329   1
  13  -2  -2 42.8604 30.2697   1
 -13   2   2-56.1687 44.5468   1
 -13   2   2 5.48074 22.7529   1
  13  -2  -1 496.163 65.8715   1
 -13   2   1 567.922  55.587   1
 -13   2   1  394.50 32.4137   1
  13  -2   0-48.5343 33.2858   1
 -13   2   0-2.16796 46.2836   1
 -13   2   0 6.30341  25.074   1
  13  -2   1 493.862  74.077   1
 -13   2  -1 514.404 99.9173   1
 -13   2  -1 405.087 34.8459   1
  13  -2   2 11.1217 38.3553   1
 -13   2  -2 33.0125  48.572   1
 -13   2  -2 38.3247 27.8191   1
  13  -2   3 31.3347 69.1447   1
 -13   2  -3 25.1471   49.94   1
 -13   2  -3 39.7056 30.3605   1
  13  -2   4 65.1557 43.2063   1
 -13   2  -4 46.8565 52.7495   1
 -13   2  -4 112.036 52.5297   1
  13  -2   5-54.7974 75.4863   1
 -13   2  -5 58.4063 55.1939   1
 -13   2  -5 12.6999 55.1415   1
  13  -2   6 159.109 50.6312   1
 -13   2  -6 315.007 103.482   1
 -13   2  -6 172.722 40.7416   1
  13  -2   7 387.538 101.892   1
 -13   2  -7  464.01 67.0129   1
 -13   2  -7 347.132 49.5219   1
  13  -2   8 7.85449 54.8575   1
 -13   2  -8-13.2689 54.5333   1
 -13   2  -8 50.1261 42.7811   1
  13  -2   9-37.8118 106.908   1
 -13   2  -9 210.158 108.555   1
 -13   2  -9 176.887 47.8724   1
  13  -2  10 39.7436  64.942   1
 -13   2 -10 52.6443 61.5421   1
 -13   2 -10 131.353 48.6411   1
  13  -2  11 17.1497 115.041   1
 -13   2 -11 51.7928 60.3351   1
 -13   2 -11 99.9706  87.529   1
  13  -2  12 85.9061 72.8667   1
 -13   2 -12 198.472 57.6419   1
  13  -1  -5 41.8642 27.3231   1
 -13   1   5-2.78022  36.971   1
 -13   1   5-0.31649 22.7386   1
  13  -1  -4 60.3952 29.3148   1
 -13   1   4 106.201 40.0821   1
 -13   1   4 59.6099 24.6254   1
  13  -1  -3-24.1562 51.4354   1
 -13   1   3 71.6759 40.3087   1
 -13   1   3 40.5847 39.9951   1
  13  -1  -2 69.6283 32.4799   1
 -13   1   2 23.0369 66.8967   1
 -13   1   2 47.4335 41.8189   1
  13  -1  -1 297.019 63.0532   1
 -13   1   1  220.28 44.4853   1
 -13   1   1 231.398 49.1734   1
  13  -1   0 269.325 42.1513   1
 -13   1   0 364.209 51.4752   1
 -13   1   0 241.923 52.3941   1
  13  -1   1 150.936 67.5976   1
 -13   1  -1 84.3872 47.0208   1
 -13   1  -1 150.045   49.91   1
  13  -1   2  389.93 47.5462   1
 -13   1  -2 367.688 93.5027   1
 -13   1  -2 278.213 58.4679   1
  13  -1   3  96.519 74.7001   1
 -13   1  -3 165.354 51.3292   1
 -13   1  -3 124.016 55.0632   1
  13  -1   4-36.6623 43.9582   1
 -13   1  -4 28.4422 50.7914   1
 -13   1  -4 59.8998 55.5341   1
  13  -1   5 381.974 95.4791   1
 -13   1  -5 386.136 109.825   1
 -13   1  -5 418.633 43.4456   1
  13  -1   6 571.477 63.9634   1
 -13   1  -6 622.348 68.2232   1
 -13   1  -6 514.266 51.5704   1
  13  -1   7 107.232 96.8431   1
 -13   1  -7  274.52 101.731   1
 -13   1  -7 263.586 77.0831   1
  13  -1   8 70.6476 56.5141   1
 -13   1  -8 193.843 59.7569   1
 -13   1  -8 87.0235  46.015   1
  13  -1   9 373.512 121.243   1
 -13   1  -9 387.082 69.8562   1
 -13   1  -9 357.052 91.4624   1
  13  -1  10-35.4872 62.3688   1
 -13   1 -10 81.9234 48.4588   1
  13  -1  11 87.7108 65.0779   1
 -13   1 -11 5.18095 86.2172   1
  13  -1  12 138.713 69.2209   1
 -13   1 -12 58.2942 54.9959   1
  13  -1  13 8.69961 69.4685   1
 -13   1 -13 115.965 57.7612   1
  13  -1  14-26.3765 73.1157   1
 -13   1 -14-108.091 61.3372   1
  13   0  -6-56.3556 48.1933   1
 -13   0   6-3.35075 32.6849   1
  13   0  -5 13.5379 49.1236   1
 -13   0   5 106.163 33.7481   1
 -13   0   5 26.9809 25.4109   1
  13   0  -4  177.49 33.0584   1
 -13   0   4 132.331 38.3998   1
 -13   0   4  173.39 28.5854   1
  13   0  -3 9.05269 53.0387   1
 -13   0   3 5.52772  35.889   1
 -13   0   3 49.1783 26.1774   1
  13   0  -2 211.548   37.72   1
 -13   0   2 212.773 39.0893   1
 -13   0   2 198.187 30.3381   1
  13   0  -1 10.1233 35.1162   1
 -13   0   1-54.0046 65.2764   1
 -13   0   1 48.0768 27.8332   1
  13   0   0 188.018 40.3144   1
 -13   0   0 153.709 73.6009   1
 -13   0   0 161.325 31.4957   1
  13   0   1 44.2755 40.1963   1
 -13   0  -1 46.0836 42.5097   1
 -13   0  -1 79.3134 30.6022   1
  13   0   2  298.72 49.1747   1
 -13   0  -2 341.449 51.2694   1
 -13   0  -2 296.894 37.7928   1
  13   0   3 25.3166 73.1308   1
 -13   0  -3 127.048 79.0176   1
 -13   0  -3-14.7812 32.0993   1
  13   0   4 141.768 48.4066   1
 -13   0  -4 227.322 52.2973   1
 -13   0  -4  181.79 38.0474   1
 -13   0  -5 199.395  50.655   1
 -13   0  -5 138.204 38.0061   1
  13   0   6-4.72504 49.4332   1
 -13   0  -6-187.108 86.1276   1
 -13   0  -6 42.9944 63.1318   1
  13   0   7 298.442 102.148   1
 -13   0  -7 402.298 61.4128   1
 -13   0  -7 314.103 48.6641   1
  13   0   8-125.449 55.6209   1
 -13   0  -8-4.06777 45.7771   1
  13   0   9 579.424 71.6205   1
 -13   0  -9 419.344 60.8387   1
  13   0  10 798.713 140.538   1
 -13   0 -10 737.083 71.2163   1
  13   0  11 218.375 69.5877   1
 -13   0 -11 167.114 55.7892   1
  13   0  12-17.3269  119.28   1
 -13   0 -12 174.119 92.7437   1
  13   0  13 111.529 75.4892   1
 -13   0 -13 153.305  58.476   1
  13   0  14 62.7519 71.7263   1
 -13   0 -14-97.8783 59.2585   1
  13   1  -6 51.1736 31.4447   1
 -13  -1   6 44.3368 29.1352   1
  13   1  -5 46.2694 53.3467   1
 -13  -1   5 15.5302 29.6405   1
 -13  -1   5 4.16853 26.9687   1
  13   1  -4 110.491 35.3298   1
 -13  -1   4 160.896 33.3611   1
 -13  -1   4 95.8851 29.9323   1
  13   1  -3 697.626 50.4287   1
 -13  -1   3 692.274 46.1232   1
 -13  -1   3 622.476 41.5175   1
  13   1  -2 57.6324 34.5981   1
 -13  -1   2-12.9723 32.0536   1
 -13  -1   2 15.5183 28.6664   1
  13   1  -1 143.127 39.2557   1
 -13  -1   1 197.087 38.4265   1
 -13  -1   1 161.847 33.3233   1
  13   1   0 155.613 43.2525   1
 -13  -1   0 207.854 68.3282   1
 -13  -1   0 216.716 34.3518   1
  13   1   1 817.446 62.7194   1
 -13  -1  -1 903.384 99.8923   1
 -13  -1  -1 850.487 52.0258   1
  13   1   2 631.945 58.5334   1
 -13  -1  -2 564.716 56.8662   1
 -13  -1  -2 626.194 46.9168   1
  13   1   3 21.2236 73.6171   1
 -13  -1  -3-14.2265 43.5633   1
 -13  -1  -3 26.8039 33.5518   1
  13   1   4  9.5842  45.499   1
 -13  -1  -4 31.2274 41.9853   1
 -13  -1  -4-46.2736 58.8765   1
  13   1   5 171.494 79.6218   1
 -13  -1  -5 64.6907 75.2343   1
 -13  -1  -5 12.6853 37.6177   1
  13   1   6-37.2373 48.0447   1
 -13  -1  -6 31.6358 47.5646   1
 -13  -1  -6 30.1545 38.3555   1
  13   1   7 47.9762 54.5144   1
 -13  -1  -7 109.855 44.0471   1
  13   1   8 1150.78 152.609   1
 -13  -1  -8 1037.20 74.7542   1
  13   1   9 109.297 59.5171   1
 -13  -1  -9 99.3253 50.4635   1
  13   1  10 11.8168 110.244   1
 -13  -1 -10  219.87 55.0106   1
  13   1  11 302.342 67.6883   1
 -13  -1 -11 209.223 57.3431   1
  13   1  12 -19.987 64.7133   1
 -13  -1 -12-20.3521 51.7941   1
  13   1  13 554.505 148.444   1
 -13  -1 -13 561.002 120.569   1
  13   1  14 47.1115 70.7632   1
 -13  -1 -14 33.6028 58.7492   1
  13   1  15-272.891 128.169   1
 -13  -1 -15-69.4707 64.0918   1
  13   2  -6 100.466  58.967   1
 -13  -2   6 10.1024 42.6035   1
  13   2  -5  168.36 62.4666   1
 -13  -2   5 149.141 47.0826   1
  13   2  -4 55.8608  36.363   1
 -13  -2   4 105.994 28.5275   1
 -13  -2   4 118.754 51.9353   1
  13   2  -3 54.5552 61.0938   1
 -13  -2   3 19.3113 27.9305   1
 -13  -2   3-56.3798 50.7492   1
  13   2  -2 540.467 48.4133   1
 -13  -2   2 413.543 36.7259   1
 -13  -2   2 417.151 65.6945   1
  13   2  -1-8.64256 38.2936   1
 -13  -2   1  -3.941 31.7019   1
 -13  -2   1  48.116 53.4922   1
  13   2   0 531.701   50.88   1
 -13  -2   0 484.518  44.458   1
 -13  -2   0 507.279 72.2145   1
  13   2   1 1041.47 65.9597   1
 -13  -2  -1 912.366 60.0197   1
 -13  -2  -1 1008.02 92.4555   1
  13   2   2 923.773 69.9489   1
 -13  -2  -2 918.165 63.7293   1
 -13  -2  -2 900.437 56.6845   1
  13   2   3 834.115 108.504   1
 -13  -2  -3 737.529 96.4991   1
 -13  -2  -3 783.969 55.2656   1
  13   2   4 200.184 47.9037   1
 -13  -2  -4  124.08 41.9641   1
 -13  -2  -4 115.289 39.1474   1
  13   2   5-11.8759 48.3263   1
 -13  -2  -5-25.4948  43.067   1
 -13  -2  -5-8.85403  38.849   1
  13   2   6-13.7667 49.9565   1
 -13  -2  -6-48.7474 66.5217   1
  13   2   7 396.591 63.2605   1
 -13  -2  -7 405.627 50.4851   1
  13   2   8 250.791 113.224   1
 -13  -2  -8 383.353 55.8682   1
  13   2   9 929.586 88.9216   1
 -13  -2  -9 892.905 125.159   1
  13   2  10 25.4967 60.2854   1
 -13  -2 -10 60.5226 51.9262   1
  13   2  11 944.588 152.922   1
 -13  -2 -11 900.237 132.087   1
  13   2  12 31.4943 61.7658   1
 -13  -2 -12 34.6645  52.701   1
  13   2  13 137.657  67.511   1
 -13  -2 -13 106.696 57.5757   1
  13   2  14 124.757 121.223   1
 -13  -2 -14 95.4176 101.853   1
  13   2  15 52.9793 71.5802   1
 -13  -2 -15 2.33609 99.5619   1
  13   2  16 210.621 76.3151   1
 -13  -2 -16 114.432   65.64   1
  13   3  -6 302.839 73.7674   1
 -13  -3   6 299.407 26.4026   1
  13   3  -5 181.083 42.8876   1
 -13  -3   5 185.098  25.535   1
  13   3  -4 105.749 39.0798   1
 -13  -3   4 98.8863 40.8721   1
 -13  -3   4 61.2048 34.1314   1
  13   3  -3  81.532 68.8726   1
 -13  -3   3 98.8753 26.5867   1
 -13  -3   3 122.391 34.8156   1
  13   3  -2 301.818 44.6117   1
 -13  -3   2 209.901 28.8337   1
 -13  -3   2 243.937 37.9544   1
  13   3  -1 114.971 70.2192   1
 -13  -3   1 65.4693 28.8691   1
 -13  -3   1 94.2168 34.5948   1
  13   3   0-22.8808 41.2248   1
 -13  -3   0 69.3489 29.8314   1
 -13  -3   0 62.2853 35.1936   1
  13   3   1 153.796   73.63   1
 -13  -3  -1 35.5559 32.4861   1
 -13  -3  -1 73.2815 36.0992   1
  13   3   2  372.58 50.9443   1
 -13  -3  -2 296.385 42.9154   1
 -13  -3  -2 394.629  44.335   1
  13   3   3 9.48205 79.1216   1
 -13  -3  -3 82.3985  36.104   1
 -13  -3  -3 119.052 38.5131   1
  13   3   4 74.4842 50.0286   1
 -13  -3  -4 196.666 42.3852   1
 -13  -3  -4 239.315 70.1188   1
  13   3   5 285.841 57.7998   1
 -13  -3  -5 352.927 47.5127   1
  13   3   6-1.12306 89.0635   1
 -13  -3  -6 118.337  43.775   1
  13   3   7 130.977 56.9206   1
 -13  -3  -7 158.214 45.5193   1
  13   3   8 54.8512  55.118   1
 -13  -3  -8 75.9215 45.2935   1
 -13  -3  -9 316.988 56.0595   1
  13   3  10  164.55 63.6646   1
 -13  -3 -10 116.871 89.4029   1
  13   3  11 237.305 62.6774   1
 -13  -3 -11 207.323 57.3494   1
  13   3  12-64.5507  102.27   1
 -13  -3 -12 25.7992   52.07   1
  13   3  13-13.2525 61.3586   1
 -13  -3 -13-38.0836 53.4077   1
  13   3  14 3.68822 66.0471   1
 -13  -3 -14 50.2647 54.7185   1
  13   3  15-10.4298 114.455   1
 -13  -3 -15 16.1029 55.5548   1
  13   3  16 9.18159 73.6468   1
 -13  -3 -16 201.795 103.034   1
  13   4  -6 63.0608 41.4497   1
  13   4  -5 208.212 43.7895   1
 -13  -4   5 173.544 21.8222   1
  13   4  -4 162.923 74.3952   1
 -13  -4   4 176.629 22.5382   1
 -13  -4   4  192.19 38.5758   1
  13   4  -3 280.744 48.4991   1
 -13  -4   3 212.266 41.4503   1
 -13  -4   3 326.739 41.4272   1
  13   4  -2 1287.63 77.1378   1
 -13  -4   2 1196.01 66.1393   1
  13   4  -1-3.16914 74.0657   1
 -13  -4   1 121.375  26.182   1
 -13  -4   1 74.1374 64.3149   1
  13   4   0 158.879 45.0429   1
 -13  -4   0 87.8095 28.5391   1
 -13  -4   0 231.411 66.0708   1
  13   4   1 53.5185 77.0227   1
 -13  -4  -1 50.1967 49.9125   1
 -13  -4  -1 76.7325 65.6732   1
  13   4   2 110.639 47.5011   1
 -13  -4  -2 79.4197 56.6636   1
 -13  -4  -2 108.964 40.6421   1
  13   4   3 304.276 51.5853   1
 -13  -4  -3 238.276 63.1287   1
 -13  -4  -3 305.608 45.9229   1
  13   4   4 204.359 89.0508   1
 -13  -4  -4 232.959  39.972   1
 -13  -4  -4 238.203 45.2894   1
  13   4   5 43.6525 48.6686   1
 -13  -4  -5-13.8422 41.2232   1
  13   4   6 1317.50 93.4564   1
 -13  -4  -6 1209.62 129.128   1
  13   4   7 175.789 92.4821   1
 -13  -4  -7 41.4504 46.4164   1
  13   4   8-25.6023 54.3576   1
 -13  -4  -8 10.0925 44.1116   1
  13   4   9 395.066  69.521   1
 -13  -4  -9 419.306 56.8571   1
  13   4  10 51.9593 94.8159   1
 -13  -4 -10-9.93663 47.9588   1
  13   4  11 653.597 80.0773   1
 -13  -4 -11  618.76  113.53   1
  13   4  12 41.1489 58.2763   1
 -13  -4 -12 31.2991 51.2124   1
  13   4  13  115.74 108.896   1
 -13  -4 -13 184.896 56.0886   1
  13   4  14  46.198 59.6802   1
 -13  -4 -14 12.0742 87.6971   1
  13   4  15 95.5613 64.7782   1
 -13  -4 -15 1.14578 54.4668   1
  13   4  16 111.136 116.062   1
 -13  -4 -16 2.71555 56.5367   1
  13   4  17 132.918 74.1747   1
 -13  -4 -17 167.024  62.167   1
  13   5  -6 98.4094 43.4542   1
  13   5  -5 111.941 72.3471   1
 -13  -5   5 72.7577 15.9809   1
  13   5  -4 55.7439 43.1219   1
 -13  -5   4 27.9551  27.566   1
  13   5  -3 349.722 50.3582   1
 -13  -5   3 269.147 22.5732   1
 -13  -5   3 376.137  73.658   1
  13   5  -2-46.1103 75.4279   1
 -13  -5   2 69.0517 32.9483   1
 -13  -5   2 234.144 40.1916   1
  13   5  -1  120.62 46.6566   1
 -13  -5   1 81.4335 23.2736   1
 -13  -5   1 164.747 40.6802   1
  13   5   0 664.029  60.525   1
 -13  -5   0 473.034 53.3786   1
 -13  -5   0 564.577 54.2837   1
  13   5   1 3041.82 147.672   1
 -13  -5  -1 2652.41 147.895   1
 -13  -5  -1 2873.68 137.089   1
  13   5   2 23.5715 80.6589   1
 -13  -5  -2 91.5462 28.0893   1
 -13  -5  -2-25.4227 41.9394   1
  13   5   3 721.568 64.0458   1
 -13  -5  -3  578.42 43.0344   1
 -13  -5  -3 591.265 96.0212   1
  13   5   4 108.283 82.1581   1
 -13  -5  -4 118.152 43.9888   1
  13   5   5  178.30 52.8728   1
 -13  -5  -5  212.02  47.417   1
  13   5   6 3.96877 51.3807   1
 -13  -5  -6 54.4284 44.7542   1
  13   5   7 592.434 117.598   1
 -13  -5  -7 598.412 101.165   1
  13   5   8 113.773 57.0213   1
 -13  -5  -8 105.277  48.798   1
  13   5   9 95.3948 55.1118   1
 -13  -5  -9 0.41171 46.5246   1
  13   5  10 260.911 64.8227   1
 -13  -5 -10 331.673 53.7524   1
  13   5  11 73.6324 103.139   1
 -13  -5 -11 169.027 51.2567   1
  13   5  12  194.73 64.0993   1
 -13  -5 -12 203.365 53.6896   1
  13   5  13-17.2979 57.1435   1
 -13  -5 -13-58.4237 85.1332   1
  13   5  14  94.604 60.0314   1
 -13  -5 -14  76.682 53.1824   1
  13   5  15 13.0208 97.5629   1
 -13  -5 -15 35.9262 52.0887   1
  13   5  16 -27.546 65.2376   1
 -13  -5 -16  116.24 91.0829   1
  13   5  17 95.7235 66.3396   1
 -13  -5 -17 1.43004 55.2139   1
  13   6  -6 5.34346 44.0761   1
  13   6  -5-29.2506 44.1943   1
  13   6  -4 170.596 47.1554   1
  13   6  -3  103.93 73.5263   1
 -13  -6   3  21.205 24.3933   1
 -13  -6   3-13.4061 40.3436   1
  13   6  -2 84.3411 46.8327   1
 -13  -6   2 40.2452 27.9304   1
 -13  -6   2 127.537 42.0741   1
  13   6  -1 396.851 51.9343   1
 -13  -6   1 250.987 21.9991   1
 -13  -6   1  249.53 78.4469   1
  13   6   0 61.6601 79.6401   1
 -13  -6   0 13.7252 34.1072   1
 -13  -6   0 11.3872 71.4446   1
  13   6   1  690.17 66.7457   1
 -13  -6  -1 588.339   35.13   1
 -13  -6  -1 750.212  59.989   1
  13   6   2 1921.39 106.657   1
 -13  -6  -2 1657.32 61.8151   1
 -13  -6  -2 2028.48 101.747   1
  13   6   3 125.199 51.8915   1
 -13  -6  -3 142.443 29.9911   1
 -13  -6  -3  142.73 47.4029   1
  13   6   4 113.054 50.8438   1
 -13  -6  -4 35.3829 78.5698   1
  13   6   5 1797.80 174.384   1
 -13  -6  -5 1773.28 161.009   1
  13   6   6 1004.57 81.0697   1
 -13  -6  -6 963.934 75.4654   1
  13   6   7 1527.68 102.864   1
 -13  -6  -7 1426.38 90.0895   1
  13   6   8 2.86236 54.4852   1
 -13  -6  -8-56.6086 78.9015   1
  13   6   9-10.9955 95.6514   1
 -13  -6  -9 49.4046 47.4362   1
  13   6  10 108.328 56.4046   1
 -13  -6 -10 29.8413 81.3161   1
  13   6  11 71.1092 55.3683   1
 -13  -6 -11-19.0062 46.3605   1
  13   6  12 90.7619 59.7702   1
 -13  -6 -12  117.95 85.0261   1
  13   6  13 62.5996 96.7446   1
 -13  -6 -13 18.9597 49.0028   1
  13   6  14-69.3382  56.163   1
 -13  -6 -14-58.1158 83.8425   1
  13   6  15 33.9451 55.7463   1
 -13  -6 -15 21.3881 49.2594   1
  13   6  16 252.241 119.611   1
 -13  -6 -16 368.118 60.1854   1
  13   6  17-113.328 105.581   1
 -13  -6 -17-9.06945 52.7272   1
  13   7  -5  130.93  85.755   1
  13   7  -4 151.466 83.6747   1
  13   7  -3-36.4083 46.5123   1
  13   7  -2-13.6941 45.8252   1
 -13  -7   2 1.14785 21.5298   1
 -13  -7   2-25.2622 43.5338   1
  13   7  -1 103.841 86.2487   1
 -13  -7   1  144.07 26.9822   1
 -13  -7   1  144.40 47.0704   1
  13   7   0 168.022 50.1166   1
 -13  -7   0 106.713 30.5084   1
 -13  -7   0 162.631 45.3235   1
  13   7   1 53.2215 83.5781   1
 -13  -7  -1 81.2057 21.4602   1
 -13  -7  -1 79.9906 44.7094   1
  13   7   2 720.562 66.5679   1
 -13  -7  -2 499.782 48.5943   1
 -13  -7  -2 696.592 100.666   1
  13   7   3 393.423 100.975   1
 -13  -7  -3 367.728 55.3181   1
  13   7   4 95.4377  50.361   1
 -13  -7  -4 100.719 46.8548   1
  13   7   5  9.0368 50.6303   1
 -13  -7  -5-10.5648 46.1572   1
  13   7   6 3060.82 260.408   1
 -13  -7  -6 3168.51 244.974   1
  13   7   7 361.966 60.4497   1
 -13  -7  -7 360.338 55.7528   1
  13   7   8 273.721  59.844   1
 -13  -7  -8 265.954 52.8037   1
  13   7   9 1237.57 98.1144   1
 -13  -7  -9 1248.54 134.487   1
  13   7  10 570.739 119.104   1
 -13  -7 -10 523.745 60.8302   1
  13   7  11 215.797 59.0323   1
 -13  -7 -11 189.615 87.4632   1
  13   7  12 274.957  63.789   1
 -13  -7 -12  373.86 53.6885   1
  13   7  13 1034.36 88.0088   1
 -13  -7 -13 888.074 120.364   1
  13   7  14-73.0294 91.9598   1
 -13  -7 -14-15.3099 46.0014   1
  13   7  15-33.0659 95.3666   1
 -13  -7 -15 126.456 48.1386   1
  13   7  16-10.2191 54.2929   1
 -13  -7 -16 77.1665 81.1352   1
  13   7  17-8.02365 57.8193   1
 -13  -7 -17-13.7899 82.0554   1
  13   7  18 42.8794 61.2232   1
 -13  -7 -18 40.7042 51.1583   1
  13   8  -5-52.4317 52.1132   1
  13   8  -4 8.93786 51.0158   1
  13   8  -2 73.7635 48.6632   1
 -13  -8   2-96.7396 46.0466   1
  13   8  -1 1498.55 99.5057   1
 -13  -8   1 1653.68 153.465   1
  13   8   0 144.793 85.6364   1
 -13  -8   0 40.7037 14.8368   1
 -13  -8   0 117.086 46.9188   1
  13   8   1 867.548 76.6511   1
 -13  -8  -1 975.916 72.1074   1
  13   8   2 19.9343 85.3849   1
 -13  -8  -2 33.9434 30.8463   1
 -13  -8  -2 32.4129 45.3803   1
  13   8   3  213.61 56.9883   1
 -13  -8  -3 298.985 89.1543   1
  13   8   4 1714.73 104.498   1
 -13  -8  -4 1560.84 95.5906   1
  13   8   5 297.752 57.0307   1
 -13  -8  -5 276.843 53.3343   1
  13   8   6 1306.78 94.1803   1
 -13  -8  -6 1327.60 86.3401   1
  13   8   7 89.5068 54.1992   1
 -13  -8  -7 309.192 84.3077   1
  13   8   8 13.2325 85.0928   1
 -13  -8  -8 7.10942 45.4471   1
  13   8   9 208.493   56.39   1
 -13  -8  -9 229.111 84.0913   1
  13   8  10 442.596 65.9699   1
 -13  -8 -10 491.365 56.4255   1
  13   8  11 204.999 59.3484   1
 -13  -8 -11 272.524  51.077   1
  13   8  12 134.732 91.8042   1
 -13  -8 -12 87.8277 46.0672   1
  13   8  13  255.66 96.4843   1
 -13  -8 -13  203.62  80.425   1
  13   8  14 28.5281 53.5299   1
 -13  -8 -14 88.0728 43.9882   1
  13   8  15 3.32512 52.1037   1
 -13  -8 -15 114.582 74.7736   1
  13   8  16 82.2547 52.7222   1
 -13  -8 -16 72.2375 47.3021   1
  13   8  17-57.8275 95.1772   1
 -13  -8 -17-17.0519 47.1442   1
  13   8  18 63.3558 58.7703   1
 -13  -8 -18 132.397 49.3739   1
  13   9  -4 117.208 57.6498   1
  13   9  -3 144.184 55.7048   1
  13   9  -2 59.8609 90.9007   1
  13   9  -1 234.005 56.6687   1
 -13  -9   1 271.049 55.7678   1
  13   9   0-44.6845 49.4376   1
 -13  -9   0 21.9753 18.7092   1
 -13  -9   0 83.1768  48.437   1
  13   9   1 75.8011 85.3541   1
 -13  -9  -1 2.49471 14.0445   1
 -13  -9  -1 94.4403 80.9277   1
  13   9   2 193.706 52.8993   1
 -13  -9  -2 102.107 29.2572   1
 -13  -9  -2 133.481 49.9784   1
  13   9   3 230.888  98.581   1
 -13  -9  -3 328.207 54.3639   1
  13   9   4 110.427 52.6618   1
 -13  -9  -4 7.08088 83.0018   1
  13   9   5 1507.02 97.7309   1
 -13  -9  -5 1381.63 90.2304   1
  13   9   6 288.193 92.5382   1
 -13  -9  -6 163.556 51.0403   1
  13   9   7-34.2853 50.9382   1
 -13  -9  -7 -106.21 77.7659   1
  13   9   8 438.777 60.6597   1
 -13  -9  -8  476.78 55.9844   1
  13   9   9 105.198 49.9006   1
 -13  -9  -9-43.5153  44.034   1
  13   9  10 140.983 85.6412   1
 -13  -9 -10 37.2294  75.259   1
  13   9  11-13.9828 48.7632   1
 -13  -9 -11 44.7789  41.893   1
  13   9  12 11.8088 50.1037   1
 -13  -9 -12 -83.634 71.9141   1
  13   9  13 78.0505 49.6589   1
 -13  -9 -13 24.8891 43.3434   1
  13   9  14 208.064  55.257   1
 -13  -9 -14 229.201 47.3923   1
  13   9  15 125.607 86.8154   1
 -13  -9 -15  86.133 72.5385   1
  13   9  16-33.4066 85.4558   1
 -13  -9 -16 73.3808 42.6486   1
  13   9  17 31.0493 51.2578   1
 -13  -9 -17 87.0019 43.8424   1
  13  10  -4 516.967 122.137   1
  13  10  -3 95.2049 59.6714   1
  13  10  -2 446.078 68.5462   1
  13  10  -1 281.929 103.668   1
  13  10   0 39.7878 53.4455   1
 -13 -10   0 216.708 51.7584   1
  13  10   1 31.8866 49.7756   1
 -13 -10  -1 26.9925 18.1966   1
 -13 -10  -1 119.954 48.8828   1
  13  10   2 38.9615 51.9409   1
 -13 -10  -2 56.0626 23.6068   1
 -13 -10  -2  213.38 83.4204   1
  13  10   3-8.72176 51.1727   1
 -13 -10  -3 80.9696 47.3091   1
  13  10   4 97.1801 52.2244   1
 -13 -10  -4 105.409 48.2566   1
  13  10   5 96.3666 51.1643   1
 -13 -10  -5 99.1871 80.3871   1
  13  10   6 44.9429 49.7671   1
 -13 -10  -6 54.7845 45.9419   1
  13  10   7 1124.12 84.2587   1
 -13 -10  -7 1113.54 77.7909   1
  13  10   8 65.6494 87.5446   1
 -13 -10  -8 146.373  79.474   1
  13  10   9 603.999 64.4457   1
 -13 -10  -9 667.914  59.958   1
  13  10  10 110.795 51.4039   1
 -13 -10 -10 222.113 75.9818   1
  13  10  11   74.76 48.7249   1
 -13 -10 -11 98.2451 42.4293   1
  13  10  12 328.183 98.0847   1
 -13 -10 -12 385.677 81.9152   1
  13  10  13 181.235 81.8957   1
 -13 -10 -13 5.80474 41.0123   1
  13  10  14 -38.405  45.846   1
 -13 -10 -14 88.9805 67.4162   1
  13  10  15 18.6829 47.3207   1
 -13 -10 -15-12.8678  40.202   1
  13  10  16 63.3306 48.8129   1
 -13 -10 -16 88.7618   42.01   1
  13  10  17-2.73253 47.8392   1
 -13 -10 -17 124.705  69.253   1
  13  11  -3 436.773  122.29   1
  13  11  -2 29.2775 56.8621   1
  13  11  -1 551.956 73.4491   1
  13  11   1 102.989 53.2963   1
 -13 -11  -1 217.885 54.0188   1
  13  11   2 273.162  57.954   1
 -13 -11  -2 280.527 22.9055   1
 -13 -11  -2 384.104 56.6839   1
  13  11   3 174.396 53.5179   1
 -13 -11  -3 71.7915  87.554   1
  13  11   4 71.3586 83.7336   1
 -13 -11  -4-7.10375 45.9625   1
  13  11   5 76.4483 49.1902   1
 -13 -11  -5 4.15115 45.7462   1
  13  11   6-28.5141 81.2926   1
 -13 -11  -6 40.7574 75.1217   1
  13  11   7 38.9719 48.2937   1
 -13 -11  -7 74.1569 44.7159   1
  13  11   8 452.837 58.9029   1
 -13 -11  -8 419.456 89.3512   1
  13  11   9 91.4936 46.9607   1
 -13 -11  -9  74.447 43.2607   1
  13  11  10 852.473 113.314   1
 -13 -11 -10  784.17  62.359   1
  13  11  11 97.4888 77.9451   1
 -13 -11 -11-4.80576 40.0137   1
  13  11  12 71.2314 45.7689   1
 -13 -11 -12 29.0508 40.0763   1
  13  11  13 407.936 56.5162   1
 -13 -11 -13 421.986 48.4322   1
  13  11  14 275.873 50.4791   1
 -13 -11 -14  224.90  72.535   1
  13  11  15 23.8108 46.6324   1
 -13 -11 -15 46.2411 38.3149   1
  13  11  16 8.49684 76.1081   1
 -13 -11 -16 37.2104 64.4217   1
  13  11  17  25.369 74.5005   1
 -13 -11 -17  28.718  65.394   1
  13  12  -2-74.6114 62.4104   1
  13  12  -1 113.521 59.6642   1
  13  12   0 140.916  60.435   1
  13  12   1 59.1699 87.5144   1
  13  12   2 105.367 49.9046   1
 -13 -12  -2-4.63488 51.7461   1
  13  12   3 602.519 116.026   1
 -13 -12  -3 670.226 66.8511   1
  13  12   4 53.6949  49.883   1
 -13 -12  -4 45.4211 81.7297   1
  13  12   5 -11.179 85.7389   1
 -13 -12  -5 110.361  46.814   1
  13  12   6  177.38 51.6042   1
 -13 -12  -6 164.931 81.7861   1
  13  12   7 386.615 56.0599   1
 -13 -12  -7 385.658 52.1812   1
  13  12   8  56.866 79.9118   1
 -13 -12  -8 107.874 44.3461   1
  13  12   9 9.61458 78.4804   1
 -13 -12  -9-22.1181 42.0048   1
  13  12  10 52.8477 43.5562   1
 -13 -12 -10 24.5407 40.2494   1
  13  12  11 67.6125 45.0698   1
 -13 -12 -11 136.038  68.632   1
  13  12  12 168.828 46.6772   1
 -13 -12 -12 112.121 41.6734   1
  13  12  13 158.197 47.5697   1
 -13 -12 -13  158.22 41.0764   1
  13  12  14  518.15 94.6247   1
 -13 -12 -14 550.831 50.1204   1
  13  12  15 40.6781 72.6279   1
 -13 -12 -15 10.3937 35.9033   1
  13  12  16 18.1426 42.8251   1
 -13 -12 -16-6.52962 60.7896   1
  13  13  -1 16.8734 59.8941   1
  13  13   0 31.4011 57.1054   1
  13  13   1-42.6797 93.0241   1
  13  13   2 9.70968 51.7408   1
  13  13   3 11.2607  49.224   1
 -13 -13  -3 51.6393 48.8381   1
  13  13   4 123.081 51.6913   1
 -13 -13  -4 81.3415 50.0005   1
  13  13   5 112.245 81.8167   1
 -13 -13  -5 39.5102 46.6996   1
  13  13   6 73.1551 48.8117   1
 -13 -13  -6 58.6158  46.205   1
  13  13   7 436.155 99.3658   1
 -13 -13  -7 538.815 55.4069   1
  13  13   8 76.5493 45.8955   1
 -13 -13  -8 65.5452 42.6868   1
  13  13   9 610.354 62.0813   1
 -13 -13  -9 687.444 93.7137   1
  13  13  10 35.5044 42.6215   1
 -13 -13 -10  81.666 40.5553   1
  13  13  11 32.4215 71.1962   1
 -13 -13 -11-29.8959  64.078   1
  13  13  12-8.83684 71.2156   1
 -13 -13 -12-6.50183  37.769   1
  13  13  13 183.492  81.389   1
 -13 -13 -13 292.595 42.7451   1
  13  13  14 51.5691 42.6048   1
 -13 -13 -14 22.5137 36.2125   1
  13  13  15  8.0758 40.1581   1
 -13 -13 -15-10.9768 34.8977   1
  13  14   1  29.549 58.9757   1
  13  14   2 134.935 55.7899   1
  13  14   3 241.373 57.4357   1
  13  14   4-6.28723 87.4792   1
 -13 -14  -4-77.9202 49.6038   1
  13  14   5 26.9685 48.7591   1
 -13 -14  -5 21.8077  79.215   1
  13  14   6-32.6906   47.68   1
 -13 -14  -6-4.31058 45.1328   1
  13  14   7 65.0923 79.1333   1
 -13 -14  -7-1.71495 73.6166   1
  13  14   8 271.873 50.6001   1
 -13 -14  -8 233.685 47.2041   1
  13  14   9 -41.916 44.6006   1
 -13 -14  -9 108.822 67.7584   1
  13  14  10 161.934 75.5404   1
 -13 -14 -10 179.565 41.8915   1
  13  14  11 117.223 74.1974   1
 -13 -14 -11 212.723 67.8428   1
  13  14  12 82.0528 41.4083   1
 -13 -14 -12 23.3231 37.5699   1
  13  14  13-1.55747 40.1368   1
 -13 -14 -13   27.53 58.8889   1
  13  14  14-24.8109 40.2864   1
 -13 -14 -14 26.3003 33.3674   1
  13  15   3  32.501 53.0086   1
  13  15   4 610.858 113.108   1
  13  15   5 41.9043 49.7941   1
 -13 -15  -5-52.9308 47.7936   1
  13  15   6 593.732 107.123   1
 -13 -15  -6 571.877 61.2305   1
  13  15   7 83.1427 48.1608   1
 -13 -15  -7 3.66374 74.9732   1
  13  15   8 119.199 46.4169   1
 -13 -15  -8 109.397 43.4867   1
  13  15   9 88.6203  74.725   1
 -13 -15  -9 41.3911 69.3417   1
  13  15  10 78.5831 42.8557   1
 -13 -15 -10 23.3745 39.3274   1
  13  15  11 28.1856 40.8315   1
 -13 -15 -11 170.904 63.0942   1
  13  15  12 24.6809 39.8814   1
 -13 -15 -12 8.11565 35.2175   1
  13  15  13 -6.5203 38.4802   1
 -13 -15 -13 3.17386 33.6676   1
  13  16   7 70.2953 48.1481   1
 -13 -16  -7  56.922  18.534   1
  13  16   8 630.529 61.4876   1
 -13 -16  -8 519.718  48.066   1
 -13 -16  -8 691.339 57.9772   1
  13  16   9 33.6919 74.1574   1
 -13 -16  -9 58.9794 24.4485   1
 -13 -16  -9 66.3191 41.9761   1
  13  16  10 785.491 63.6334   1
 -14   4  -4 292.364   71.31   1
  14  -3   0 162.384  63.124   1
 -14   3   0 380.703 58.3825   1
 -14   3   0 319.223 46.0438   1
  14  -3   1  45.356 34.9066   1
 -14   3  -1-36.2049 54.3046   1
 -14   3  -1 36.8781 42.2034   1
  14  -3   2  253.17 67.8446   1
 -14   3  -2 156.052 61.0458   1
 -14   3  -2 186.875  50.664   1
  14  -3   3  141.39  43.396   1
 -14   3  -3 176.629 61.7635   1
 -14   3  -3 196.707 53.8389   1
  14  -3   4 108.917 44.2642   1
 -14   3  -4 35.6259  60.333   1
 -14   3  -4 86.9715 33.5379   1
  14  -3   5-14.1159   82.66   1
 -14   3  -5-63.7503 62.6785   1
 -14   3  -5 20.9913 34.3078   1
  14  -3   6 966.801 88.2368   1
 -14   3  -6 1226.11 102.637   1
 -14   3  -6 943.995  103.49   1
  14  -3   7-28.0624 91.9853   1
 -14   3  -7  1.0299 66.8296   1
 -14   3  -7 -13.778 39.7374   1
  14  -3   8 77.8726  59.399   1
 -14   3  -8 146.545 67.0832   1
 -14   3  -8 22.9175 44.2217   1
  14  -2  -2 61.7065 50.4405   1
 -14   2   2-68.2055  46.393   1
 -14   2   2-23.6305 23.6596   1
  14  -2  -1 78.7444 33.1178   1
 -14   2   1-19.4531 45.5802   1
 -14   2   1 57.6766 41.2219   1
  14  -2   0  64.726 59.2553   1
 -14   2   0-46.0016   80.92   1
 -14   2   0 105.112 43.7608   1
  14  -2   1 29.7207 36.2554   1
 -14   2  -1-147.471 49.9238   1
 -14   2  -1 51.7451 45.3191   1
  14  -2   2 8.25418 39.3029   1
 -14   2  -2 109.747 51.6109   1
 -14   2  -2   27.84  28.906   1
  14  -2   3  7.9148 70.2459   1
 -14   2  -3 99.9658 53.1236   1
 -14   2  -3 47.7611 31.3261   1
  14  -2   4 137.476   45.73   1
 -14   2  -4 46.2819 58.0757   1
 -14   2  -4 121.886 34.8555   1
  14  -2   5-13.6356 82.1069   1
 -14   2  -5 123.482 99.3178   1
 -14   2  -5 108.975 58.9737   1
  14  -2   6 587.754 68.6916   1
 -14   2  -6 759.692 85.4215   1
 -14   2  -6  553.06 85.5446   1
  14  -2   7 439.488 103.431   1
 -14   2  -7 404.747  75.724   1
 -14   2  -7 284.496 48.9829   1
  14  -2   8 55.7729 59.0592   1
 -14   2  -8 90.7022 62.5193   1
 -14   2  -8 114.524 75.4271   1
  14  -2   9-56.4706 102.726   1
 -14   2  -9-14.0548 61.5732   1
 -14   2  -9-33.7508 46.5739   1
  14  -2  10 366.098 77.0951   1
 -14   2 -10 380.242 124.504   1
 -14   2 -10 296.272 97.8665   1
  14  -1  -3 300.396  36.983   1
 -14   1   3 381.718 80.3276   1
 -14   1   3 258.029 30.3377   1
  14  -1  -2 230.101 64.5102   1
 -14   1   2 337.196 50.3334   1
 -14   1   2 247.454 30.3495   1
  14  -1  -1 95.3956 36.6934   1
 -14   1   1 132.431 43.4321   1
 -14   1   1 58.4271 28.6234   1
  14  -1   0 54.9389 36.8912   1
 -14   1   0  91.826 46.2762   1
 -14   1   0 8.56524 28.3631   1
  14  -1   1 325.483  45.192   1
 -14   1  -1 243.542 91.3573   1
 -14   1  -1  271.61 35.7603   1
  14  -1   2 134.933 41.4222   1
 -14   1  -2-4.75689 50.0857   1
 -14   1  -2 76.9363 31.6638   1
  14  -1   3 475.112  88.368   1
 -14   1  -3 417.518  62.173   1
 -14   1  -3 388.038   40.22   1
  14  -1   4 62.7785 47.6894   1
 -14   1  -4 140.173 53.5711   1
 -14   1  -4 140.768 59.3497   1
  14  -1   5 72.0749 83.7872   1
 -14   1  -5 143.562  58.168   1
 -14   1  -5  194.27 64.8264   1
  14  -1   6 214.422 51.8605   1
 -14   1  -6 232.661 104.633   1
 -14   1  -6 122.366  40.435   1
  14  -1   7 433.507 100.158   1
 -14   1  -7 291.112 63.7741   1
 -14   1  -7 193.025 47.7925   1
  14  -1   8-17.4261 55.1594   1
 -14   1  -8 12.1352 56.6911   1
 -14   1  -8-46.3244 43.8145   1
  14  -1   9 711.288 148.113   1
 -14   1  -9 751.857 91.4063   1
 -14   1  -9 812.754 71.2738   1
  14  -1  10  301.24 73.1556   1
 -14   1 -10 305.552 73.3744   1
 -14   1 -10 211.308 58.1472   1
  14  -1  11 391.027  81.638   1
 -14   1 -11 378.517 105.124   1
  14  -1  12 214.948 79.4713   1
 -14   1 -12 285.271 60.8304   1
  14   0  -3 62.1087 33.4788   1
 -14   0   3 83.7031 64.0226   1
 -14   0   3 -9.9164 27.0535   1
  14   0  -2 29.3343 60.3928   1
 -14   0   2 188.029 66.5768   1
 -14   0   2 57.1024  28.497   1
  14   0  -1 73.8711 37.4004   1
 -14   0   1 36.7718  38.097   1
 -14   0   1 18.9664 29.2262   1
  14   0   0 370.751 46.2068   1
 -14   0   0 412.053 50.8333   1
 -14   0   0 306.898 36.7664   1
  14   0   1 964.817 65.8329   1
 -14   0  -1 890.332 69.9542   1
 -14   0  -1 820.955 52.4118   1
  14   0   2 866.959 67.6976   1
 -14   0  -2 853.088 114.555   1
 -14   0  -2 754.034 81.7402   1
  14   0   3 1.76846 44.4667   1
 -14   0  -3-28.7928 47.0327   1
 -14   0  -3 7.80604 54.5944   1
  14   0   4 596.298  63.446   1
 -14   0  -4 757.058 70.7631   1
 -14   0  -4 569.601  50.338   1
  14   0   5  82.249 50.2851   1
 -14   0  -5 65.5407 92.6405   1
 -14   0  -5 136.143 39.1883   1
  14   0   6  2.2294 49.7034   1
 -14   0  -6 30.9576 49.9818   1
 -14   0  -6-14.5066 37.8884   1
  14   0   7 148.467 56.6373   1
 -14   0  -7 206.624 95.6461   1
 -14   0  -7 108.053 73.2065   1
  14   0   8 439.365 63.9668   1
 -14   0  -8 318.083 66.9743   1
 -14   0  -8 256.913 52.2984   1
  14   0   9 32.4158 57.4131   1
 -14   0  -9-46.9148 58.7257   1
 -14   0  -9 130.817 78.8182   1
  14   0  10 283.639 124.386   1
 -14   0 -10 434.121 62.7652   1
  14   0  11 195.102 71.5667   1
 -14   0 -11  90.848 94.3398   1
  14   0  12-25.7438 118.342   1
 -14   0 -12 57.8857 55.3933   1
  14   0  13-18.3181 72.8518   1
 -14   0 -13 80.4531  56.701   1
  14   1  -4 375.685 63.1291   1
 -14  -1   4  111.79 61.4369   1
 -14  -1   4 218.426 54.3916   1
  14   1  -3 138.485 37.7703   1
 -14  -1   3 228.797 61.3932   1
 -14  -1   3 164.974 52.5878   1
  14   1  -2 269.166 63.0812   1
 -14  -1   2 64.7032 60.6691   1
 -14  -1   2 64.6631 51.4188   1
  14   1  -1 80.4984 38.4357   1
 -14  -1   1-1.23588 58.8644   1
 -14  -1   1 25.5777 51.1344   1
  14   1   0  11.531 38.7395   1
 -14  -1   0-2.00099 37.0887   1
 -14  -1   0 44.8722 52.1309   1
  14   1   1 98.5489 43.3244   1
 -14  -1  -1 138.811 42.1117   1
 -14  -1  -1 96.3746  58.296   1
  14   1   2 55.9261 43.6413   1
 -14  -1  -2 97.7721 42.6027   1
 -14  -1  -2 10.9732 35.1169   1
  14   1   3 104.153 46.7338   1
 -14  -1  -3 16.5711 80.2338   1
 -14  -1  -3 93.9617 35.3786   1
  14   1   4-40.5887 46.2306   1
 -14  -1  -4 49.2288 47.2895   1
 -14  -1  -4-66.4409 35.9744   1
  14   1   5 320.421 57.9654   1
 -14  -1  -5 315.164  55.055   1
 -14  -1  -5 367.735 46.1294   1
  14   1   6 346.628 96.7185   1
 -14  -1  -6 280.502 91.1676   1
 -14  -1  -6 202.695  76.075   1
  14   1   7 227.283 56.1022   1
 -14  -1  -7 87.9036 55.0214   1
 -14  -1  -7 85.9236 43.9567   1
  14   1   8 499.881 121.405   1
 -14  -1  -8 489.807 95.0918   1
  14   1   9 166.925 60.3219   1
 -14  -1  -9 144.735 49.4933   1
  14   1  10 169.983 106.249   1
 -14  -1 -10 89.0953 87.2242   1
  14   1  11 128.529 65.0245   1
 -14  -1 -11 70.1479  54.846   1
 -14  -1 -12-22.5274  100.20   1
  14   1  13 88.9738 122.821   1
 -14  -1 -13 105.496 58.7086   1
  14   1  14-21.8978 74.9827   1
 -14  -1 -14-7.74026 57.7101   1
  14   2  -4 23.6466 37.5809   1
 -14  -2   4 -23.559 47.7546   1
 -14  -2   4 67.8436 51.3643   1
  14   2  -3 99.1283  37.504   1
 -14  -2   3 1.75084 49.9432   1
 -14  -2   3 6.89428 32.1684   1
  14   2  -2 93.9467 69.9795   1
 -14  -2   2 144.844 53.3718   1
 -14  -2   2 127.134 34.0726   1
  14   2  -1 223.802 43.9634   1
 -14  -2   1 214.045  58.762   1
 -14  -2   1 250.399 36.8183   1
  14   2   0-6.35323 39.8444   1
 -14  -2   0 38.3578 58.0434   1
 -14  -2   0 19.3334 33.0052   1
  14   2   1 121.672  45.304   1
 -14  -2  -1 121.966 38.8788   1
 -14  -2  -1 168.907 37.2308   1
  14   2   2 37.3007 42.5903   1
 -14  -2  -2-68.6554  38.078   1
 -14  -2  -2 25.1572 35.1546   1
  14   2   3 341.364 52.5992   1
 -14  -2  -3 259.614 48.7565   1
 -14  -2  -3 278.654 41.0912   1
  14   2   4 56.4773 82.4337   1
 -14  -2  -4 16.4801 70.8874   1
 -14  -2  -4 108.364 63.4072   1
  14   2   5 64.6393 50.3936   1
 -14  -2  -5 71.3234 43.9193   1
 -14  -2  -5 42.5471 40.0259   1
  14   2   6-86.3377  85.548   1
 -14  -2  -6-10.6876   45.60   1
 -14  -2  -6 14.8556 39.4348   1
  14   2   7 81.2082  52.769   1
 -14  -2  -7  4.8242 70.2212   1
  14   2   8 51.3427 56.7175   1
 -14  -2  -8  38.117 43.1915   1
  14   2   9-1.45687  57.702   1
 -14  -2  -9  9.8345 47.3683   1
  14   2  10 80.3515 59.4652   1
 -14  -2 -10-17.7142 49.6811   1
  14   2  11 131.869 110.651   1
 -14  -2 -11 112.835 55.3279   1
  14   2  12 467.693 78.6295   1
 -14  -2 -12 338.581  68.351   1
  14   2  13 102.031 69.8904   1
 -14  -2 -13 -14.347 100.926   1
  14   2  14 72.7667 74.6621   1
 -14  -2 -14 68.1204 60.2062   1
  14   2  15-1.83378 76.0073   1
 -14  -2 -15 -32.405 60.7259   1
  14   3  -4-0.82285 40.1781   1
 -14  -3   4 25.2854 25.4096   1
 -14  -3   4 43.1819 34.1755   1
  14   3  -3 33.6195 39.8445   1
 -14  -3   3 10.3938 44.3327   1
 -14  -3   3 4.42535 33.8501   1
  14   3  -2-63.8419 68.5882   1
 -14  -3   2-23.2089  44.368   1
 -14  -3   2-14.4567 34.2657   1
  14   3  -1 565.101 55.6252   1
 -14  -3   1 443.391 64.0563   1
 -14  -3   1 552.599 46.6287   1
  14   3   0 858.587 105.005   1
 -14  -3   0 725.745 75.7293   1
 -14  -3   0 772.268 54.2032   1
  14   3   1 104.935  44.197   1
 -14  -3  -1  86.054 58.5229   1
 -14  -3  -1 56.8414  64.802   1
  14   3   2 273.872  80.683   1
 -14  -3  -2 114.359 65.1821   1
 -14  -3  -2  205.13 69.1872   1
  14   3   3 49.6541 46.7797   1
 -14  -3  -3 72.3254 38.5454   1
 -14  -3  -3 9.35011 38.3481   1
  14   3   4 205.073 83.8557   1
 -14  -3  -4 109.922 39.2691   1
 -14  -3  -4 37.1696 40.4179   1
  14   3   5 396.025 59.8758   1
 -14  -3  -5 389.697 50.3012   1
 -14  -3  -5 320.479  48.307   1
  14   3   6 56.6314 53.8454   1
 -14  -3  -6 73.7304 71.0285   1
  14   3   7  83.071 54.3453   1
 -14  -3  -7 1.48384 43.2034   1
  14   3   8 205.539 58.8231   1
 -14  -3  -8 178.956 49.1519   1
  14   3   9 -109.63 101.219   1
 -14  -3  -9-61.9029 47.8551   1
  14   3  10 265.936 71.5711   1
 -14  -3 -10 431.842 59.4959   1
  14   3  11 7.53989 61.6976   1
 -14  -3 -11 66.8527 52.0593   1
  14   3  12 346.453 132.157   1
 -14  -3 -12 483.179 69.1655   1
  14   3  13 341.176 75.0761   1
 -14  -3 -13 259.703 65.9274   1
  14   3  14 162.572 73.9844   1
 -14  -3 -14 179.831  106.94   1
  14   3  15 51.3692 74.1452   1
 -14  -3 -15 40.9756 102.719   1
  14   4  -4 59.3412 44.8095   1
 -14  -4   4 76.2632 22.2528   1
 -14  -4   4 162.388 37.7929   1
  14   4  -3 100.913 73.1781   1
 -14  -4   3 1.72377 23.3095   1
 -14  -4   3 125.974 36.8978   1
  14   4  -2 11.2491 42.3838   1
 -14  -4   2 70.6683 40.9901   1
 -14  -4   2 64.7442 62.1513   1
  14   4  -1 24.4829 43.1244   1
 -14  -4   1 13.1594 44.0334   1
 -14  -4   1 27.2475 61.9816   1
  14   4   0 36.3839 74.0032   1
 -14  -4   0 25.6447 27.4605   1
 -14  -4   0 15.6806 37.1743   1
  14   4   1 223.837 49.9107   1
 -14  -4  -1 163.973   32.95   1
 -14  -4  -1 183.241 42.3636   1
  14   4   2 84.4487 78.2069   1
 -14  -4  -2 89.5619 34.7682   1
 -14  -4  -2 42.8793 40.4403   1
  14   4   3 471.862   59.03   1
 -14  -4  -3 489.889   71.27   1
 -14  -4  -3  531.30 52.3179   1
  14   4   4 143.717 50.8894   1
 -14  -4  -4 41.9749 65.0116   1
 -14  -4  -4 101.547  71.874   1
  14   4   5  128.13 53.2865   1
 -14  -4  -5 99.0271  41.613   1
 -14  -4  -5 209.833 45.4208   1
  14   4   6 613.348  70.416   1
 -14  -4  -6 564.165 57.7961   1
  14   4   7-1.72215 93.3633   1
 -14  -4  -7-20.7992 77.2207   1
  14   4   8 235.898  66.018   1
 -14  -4  -8 324.394 53.9746   1
  14   4   9  116.00 63.0149   1
 -14  -4  -9 275.249  53.941   1
  14   4  10 886.236 144.924   1
 -14  -4 -10 790.748 72.2386   1
  14   4  11 30.1799 60.9533   1
 -14  -4 -11 11.9386 51.6794   1
  14   4  12 76.2811 61.8435   1
 -14  -4 -12 63.2561 53.5844   1
  14   4  13  244.88 118.629   1
 -14  -4 -13 259.343 100.731   1
  14   4  14 156.543 66.1917   1
 -14  -4 -14 110.968 60.5434   1
  14   4  15 59.1672 71.6569   1
 -14  -4 -15 72.5047 59.8869   1
  14   4  16-18.6113 119.087   1
 -14  -4 -16 42.7844 101.488   1
  14   5  -4 69.3637 74.9352   1
 -14  -5   4 50.0594 29.2941   1
  14   5  -3 190.314 48.4113   1
 -14  -5   3 146.491 21.4634   1
 -14  -5   3 144.421 42.3263   1
  14   5  -2 5.25718 44.8044   1
 -14  -5   2 20.5901 20.7322   1
 -14  -5   2-0.65674 39.5229   1
  14   5  -1 226.665 82.8867   1
 -14  -5   1 157.971 40.9405   1
 -14  -5   1 163.684 43.2589   1
  14   5   0-80.8291  45.504   1
 -14  -5   0 20.8105  24.393   1
 -14  -5   0 28.3876  39.015   1
  14   5   1 180.103 83.4032   1
 -14  -5  -1  102.43 28.1679   1
 -14  -5  -1 83.4089 71.3643   1
  14   5   2 357.877 58.9528   1
 -14  -5  -2 403.481 37.5161   1
 -14  -5  -2 398.929 84.8983   1
  14   5   3 885.028 119.421   1
 -14  -5  -3 694.622 46.1369   1
 -14  -5  -3 811.528 62.6603   1
  14   5   4 229.262 53.5548   1
 -14  -5  -4 160.531 37.0303   1
 -14  -5  -4 192.312 47.5849   1
  14   5   5 885.189 124.406   1
 -14  -5  -5 741.484 64.6465   1
  14   5   6 106.021 54.0493   1
 -14  -5  -6 12.6761 80.0527   1
  14   5   7 901.382 85.6315   1
 -14  -5  -7 1035.63 75.4772   1
  14   5   8-7.99313 98.0904   1
 -14  -5  -8-12.4201 48.0057   1
  14   5   9 925.154 85.6468   1
 -14  -5  -9 799.745 75.7736   1
  14   5  10 814.096 85.1702   1
 -14  -5 -10 699.385 72.6195   1
  14   5  11 139.287  110.51   1
 -14  -5 -11 184.872 54.3261   1
  14   5  12 212.652 66.7532   1
 -14  -5 -12 151.128 56.1615   1
  14   5  13 265.889 67.7254   1
 -14  -5 -13  221.86 59.3112   1
  14   5  14 45.0133 105.406   1
 -14  -5 -14  11.303 90.9033   1
  14   5  15 65.3924 63.6593   1
 -14  -5 -15-14.0765 56.6071   1
  14   5  16 14.0438 69.8576   1
 -14  -5 -16 102.326 57.9445   1
  14   6  -4-3.09493 46.2244   1
  14   6  -3 60.5853 47.7178   1
 -14  -6   3 31.5772 26.8981   1
 -14  -6   3 147.108 42.9964   1
  14   6  -2 34.7359 81.6841   1
 -14  -6   2 53.0944 18.3121   1
 -14  -6   2 162.883 43.0947   1
  14   6  -1 136.277 49.5481   1
 -14  -6   1 57.5483 32.1378   1
 -14  -6   1 114.817 71.4031   1
  14   6   0  456.05 57.1578   1
 -14  -6   0 303.375 26.7378   1
 -14  -6   0 288.875 50.9811   1
  14   6   1 87.9807 51.3547   1
 -14  -6  -1 117.635 25.4209   1
 -14  -6  -1 148.063 45.2962   1
  14   6   2 897.811 74.5699   1
 -14  -6  -2 767.419 44.4573   1
 -14  -6  -2 979.559 69.7146   1
  14   6   3 480.221 61.9465   1
 -14  -6  -3 324.024 93.8784   1
  14   6   4-24.4741 51.2024   1
 -14  -6  -4-19.0413 77.0631   1
  14   6   5-44.5184 50.2502   1
 -14  -6  -5-37.2295 45.4006   1
  14   6   6 188.543 94.2113   1
 -14  -6  -6 100.968 48.5192   1
  14   6   7 133.243 58.7599   1
 -14  -6  -7  204.14 85.8819   1
  14   6   8-58.8822  55.978   1
 -14  -6  -8 62.2154 47.7062   1
  14   6   9 334.567 107.258   1
 -14  -6  -9 165.407 54.8818   1
  14   6  10 462.026 73.2078   1
 -14  -6 -10 478.533 63.9779   1
  14   6  11 416.741  75.418   1
 -14  -6 -11  560.96 63.8098   1
  14   6  12-66.5341 101.903   1
 -14  -6 -12-16.4837 48.7562   1
  14   6  13 277.338 68.0152   1
 -14  -6 -13 239.693 96.6885   1
  14   6  14 164.392 64.1537   1
 -14  -6 -14 144.161 55.8655   1
  14   6  15-29.6301  59.227   1
 -14  -6 -15-2.61457 51.9809   1
  14   6  16 49.7844  107.25   1
 -14  -6 -16 34.3394 93.6982   1
  14   7  -4 197.149 88.6083   1
  14   7  -3 119.724 53.3391   1
  14   7  -2 87.7572 49.5908   1
 -14  -7   2 7.09497 24.2503   1
 -14  -7   2 29.4807 44.5657   1
  14   7  -1 55.5993  49.011   1
 -14  -7   1 12.7491 15.8183   1
 -14  -7   1 100.791 44.3693   1
  14   7   0 495.285 63.1585   1
 -14  -7   0 404.839 39.1768   1
 -14  -7   0 524.839 56.8237   1
  14   7   1  320.98 56.7323   1
 -14  -7  -1 191.429 23.3275   1
 -14  -7  -1 333.356 83.7209   1
  14   7   2 126.226 88.0074   1
 -14  -7  -2 124.058 41.4196   1
 -14  -7  -2 68.7632 47.7127   1
  14   7   3 1622.88 100.313   1
 -14  -7  -3 1303.45 86.4377   1
 -14  -7  -3 1521.20 93.3281   1
  14   7   4 96.1565 54.1284   1
 -14  -7  -4 37.3824 47.0601   1
  14   7   5 207.073  57.009   1
 -14  -7  -5 164.005 88.5819   1
  14   7   6 1338.51 91.9511   1
 -14  -7  -6 1196.14 85.4097   1
  14   7   7 219.851 109.718   1
 -14  -7  -7 403.061 57.4227   1
  14   7   8 78.1422 56.4043   1
 -14  -7  -8 81.1237 84.3839   1
  14   7   9 25.1182  55.624   1
 -14  -7  -9 100.544 48.8213   1
  14   7  10 42.4856 58.0644   1
 -14  -7 -10-18.4237 82.9192   1
  14   7  11 95.3399 97.0108   1
 -14  -7 -11-2.28701  49.305   1
  14   7  12  159.74 62.0912   1
 -14  -7 -12 223.276 88.1778   1
  14   7  13-5.63581 57.4362   1
 -14  -7 -13 2.42225 46.8488   1
  14   7  14 8.26523 99.2249   1
 -14  -7 -14 65.0985 49.5206   1
  14   7  15 172.631 60.9098   1
 -14  -7 -15 43.4444 53.4286   1
  14   7  16  107.65 59.7764   1
 -14  -7 -16-25.6837 52.1235   1
  14   7  17 198.094 65.3936   1
 -14  -7 -17 44.6221 54.4276   1
  14   8  -3 153.947 55.3913   1
  14   8  -2  212.36  92.554   1
 -14  -8   2 113.515 50.6182   1
  14   8  -1  398.66  60.365   1
 -14  -8   1 254.177 24.0043   1
 -14  -8   1 359.679 91.8042   1
  14   8   0 112.271 52.2499   1
 -14  -8   0 19.4972 25.7882   1
 -14  -8   0 22.0689 48.7207   1
  14   8   1-16.1326 87.6291   1
 -14  -8  -1 10.2488 17.9741   1
 -14  -8  -1 42.4944   47.40   1
  14   8   2 73.7241 51.9514   1
 -14  -8  -2-1.40424 32.2568   1
 -14  -8  -2-50.1945 46.6523   1
  14   8   3-0.70123 89.9373   1
 -14  -8  -3 72.5901  23.829   1
 -14  -8  -3 84.0231 80.3456   1
  14   8   4 184.401 58.9359   1
 -14  -8  -4 310.748 53.7844   1
  14   8   5-9.80625 53.7415   1
 -14  -8  -5 92.6252 47.4855   1
  14   8   6 354.069 64.8157   1
 -14  -8  -6 476.033 99.0368   1
  14   8   7 462.406 62.8484   1
 -14  -8  -7 355.386 59.6998   1
  14   8   8  371.29  64.329   1
 -14  -8  -8 362.395 56.2637   1
  14   8   9 127.041 93.7945   1
 -14  -8  -9 55.7127 47.4564   1
  14   8  10 655.268 75.6014   1
 -14  -8 -10 685.546 66.9661   1
  14   8  11  367.58  65.571   1
 -14  -8 -11 464.198 95.6539   1
  14   8  12 83.0236 98.9725   1
 -14  -8 -12 146.366 52.2986   1
  14   8  13 438.796 67.9874   1
 -14  -8 -13 372.684 60.3139   1
  14   8  14-98.2962 57.8333   1
 -14  -8 -14 97.2011 46.9936   1
  14   8  15 109.186   59.15   1
 -14  -8 -15 100.861 49.3684   1
  14   8  16-54.6576 97.6788   1
 -14  -8 -16 49.4144 48.5308   1
  14   8  17 34.5483  56.715   1
 -14  -8 -17-46.4996 82.6459   1
  14   9  -3 279.442 62.2861   1
  14   9  -2 607.152 72.8087   1
  14   9  -1-108.601 90.4108   1
 -14  -9   1-7.43207  50.713   1
  14   9   0 113.373 56.3552   1
 -14  -9   0 137.755 53.6502   1
  14   9   1 372.888 59.8236   1
 -14  -9  -1 257.699 18.2504   1
 -14  -9  -1  314.59  94.895   1
  14   9   2-33.4205 91.5884   1
 -14  -9  -2  41.044 27.8516   1
 -14  -9  -2 23.9305 49.1297   1
  14   9   3 496.888 65.4533   1
 -14  -9  -3 366.144  25.889   1
 -14  -9  -3 502.697 60.4031   1
  14   9   4 1367.75  103.13   1
 -14  -9  -4 1509.05 151.663   1
  14   9   5  295.23   62.22   1
 -14  -9  -5 284.354 56.3134   1
  14   9   6 297.538 59.9173   1
 -14  -9  -6 256.689 55.7059   1
  14   9   7  119.34 95.2375   1
 -14  -9  -7 103.173 86.6335   1
  14   9   8 208.546 56.8969   1
 -14  -9  -8 134.808 53.1164   1
  14   9   9 617.427 69.8611   1
 -14  -9  -9 499.267 100.569   1
  14   9  10  75.342 93.7988   1
 -14  -9 -10 103.542 47.9019   1
  14   9  11 273.779 61.7768   1
 -14  -9 -11 392.688 53.9547   1
  14   9  12 113.436 60.2942   1
 -14  -9 -12 253.438 50.0336   1
  14   9  13 328.351 62.2773   1
 -14  -9 -13 185.754 90.9834   1
  14   9  14 536.535 130.077   1
 -14  -9 -14 747.149  68.471   1
  14   9  15 9.10182 94.2426   1
 -14  -9 -15-35.4118 80.1167   1
  14   9  16  64.602 54.4576   1
 -14  -9 -16-43.7995 78.0162   1
  14   9  17-88.1933  55.373   1
 -14  -9 -17 -62.819  47.572   1
  14  10  -2 745.862 82.6015   1
  14  10  -1 31.5813 56.2388   1
  14  10   0 160.085 93.0851   1
 -14 -10   0 15.7392 52.2028   1
  14  10   1 46.3999 52.9805   1
 -14 -10  -1-37.9361 51.2992   1
  14  10   2 240.897 58.2887   1
 -14 -10  -2 173.163 26.5592   1
 -14 -10  -2 205.716 94.4273   1
  14  10   3  59.513 54.1848   1
 -14 -10  -3 1.70707  17.539   1
 -14 -10  -3 64.6612 50.1928   1
  14  10   4 585.154 76.0343   1
 -14 -10  -4 844.901 71.2098   1
  14  10   5 599.308 70.0961   1
 -14 -10  -5 550.761 108.252   1
  14  10   6-4.83996 89.4158   1
 -14 -10  -6-32.3362 48.7537   1
  14  10   7 165.803 56.9716   1
 -14 -10  -7 187.512 51.9332   1
  14  10   8 949.759 80.9529   1
 -14 -10  -8 1052.24 75.8762   1
  14  10   9 5.57787 85.8739   1
 -14 -10  -9 14.9153 46.0042   1
  14  10  10 26.9132 51.4951   1
 -14 -10 -10 74.2291 77.0749   1
  14  10  11-36.6444 51.0053   1
 -14 -10 -11 14.4768 43.3096   1
  14  10  12 33.9826 89.8517   1
 -14 -10 -12 107.149 78.0772   1
  14  10  13 154.226 94.6135   1
 -14 -10 -13 109.818 46.6415   1
  14  10  14 204.377 53.9653   1
 -14 -10 -14 49.4426 46.3732   1
  14  10  15 331.429 60.3042   1
 -14 -10 -15 223.523 84.7247   1
  14  10  16 160.411 55.0505   1
 -14 -10 -16 129.839 47.3128   1
  14  11  -1 82.5876 58.4962   1
  14  11   0 99.6875 58.6781   1
  14  11   1 6.11198 90.7028   1
 -14 -11  -1 13.4543  54.349   1
  14  11   2 8.28509  54.521   1
 -14 -11  -2 87.7909 53.2758   1
  14  11   3-22.4607 53.5221   1
 -14 -11  -3 105.026 86.4276   1
  14  11   4 139.989 57.5084   1
 -14 -11  -4 215.075 54.1068   1
  14  11   5 14.9182  91.436   1
 -14 -11  -5 60.8557 49.0424   1
  14  11   6  140.52 55.9181   1
 -14 -11  -6  321.21 86.9954   1
  14  11   7-31.5114 86.7556   1
 -14 -11  -7-5.71912 47.8218   1
  14  11   8 585.232 67.4829   1
 -14 -11  -8 617.412 106.293   1
  14  11   9 523.255 63.6625   1
 -14 -11  -9 527.937 59.8705   1
  14  11  10-89.0504 50.5079   1
 -14 -11 -10 7.19401 76.8788   1
  14  11  11 204.299  95.252   1
 -14 -11 -11 298.465 49.6601   1
  14  11  12 49.5154 49.5477   1
 -14 -11 -12-22.2021 73.3967   1
  14  11  13 536.588 66.8214   1
 -14 -11 -13  560.87 57.6719   1
  14  11  14 59.2746  50.504   1
 -14 -11 -14 67.9543 73.8411   1
  14  11  15-58.0629 87.5662   1
 -14 -11 -15 64.0562 42.4249   1
  14  11  16 94.7729  87.403   1
 -14 -11 -16 83.2036 43.0556   1
  14  12   0 22.1364 58.4711   1
  14  12   1 183.449 61.6739   1
 -14 -12  -1 232.237  63.077   1
  14  12   2 49.6914 94.6063   1
 -14 -12  -2-42.0736 53.0214   1
  14  12   3 217.913  60.259   1
 -14 -12  -3 205.808 57.7537   1
  14  12   4 61.2537  91.629   1
 -14 -12  -4 12.2161 86.4205   1
  14  12   5-20.2871 52.4313   1
 -14 -12  -5 5.24405 48.8182   1
  14  12   6-62.2649 86.5734   1
 -14 -12  -6-13.6464 80.1255   1
  14  12   7 63.8113 50.9206   1
 -14 -12  -7 27.0671 47.4675   1
  14  12   8 141.519 53.0536   1
 -14 -12  -8 82.2655 47.7145   1
  14  12   9 226.216 90.2991   1
 -14 -12  -9 237.786 50.1695   1
  14  12  10 206.137 51.7876   1
 -14 -12 -10 213.398 49.2558   1
  14  12  11 83.7646 50.4491   1
 -14 -12 -11 135.755 44.5435   1
  14  12  12 -24.698 48.1951   1
 -14 -12 -12-11.1189 42.7591   1
  14  12  13 112.141 90.5826   1
 -14 -12 -13 211.601 46.8918   1
  14  12  14 252.593 91.0045   1
 -14 -12 -14 205.445 78.0875   1
  14  12  15 136.824 48.7928   1
 -14 -12 -15 59.4777   42.39   1
  14  13   1 25.1676 57.9171   1
  14  13   2   87.14 98.2091   1
  14  13   3-43.1342 56.3232   1
 -14 -13  -3  61.695 53.7156   1
  14  13   4 49.4366 54.4132   1
 -14 -13  -4-10.3783  52.233   1
  14  13   5 92.3921 56.1493   1
 -14 -13  -5 91.2654 52.9245   1
  14  13   6-0.79707 52.6318   1
 -14 -13  -6-85.0215 49.3878   1
  14  13   7 262.435 58.9006   1
 -14 -13  -7 329.744 91.0676   1
  14  13   8 63.2204 87.2449   1
 -14 -13  -8 111.245 47.2341   1
  14  13   9-3.22041 48.9746   1
 -14 -13  -9-67.0109 74.6797   1
  14  13  10  176.51 48.0664   1
 -14 -13 -10 41.6416 46.3898   1
  14  13  11 72.2585 49.0154   1
 -14 -13 -11 50.5156 72.6673   1
  14  13  12 285.607 84.8199   1
 -14 -13 -12 125.165 45.5189   1
  14  13  13 154.896 50.6566   1
 -14 -13 -13 180.197 44.9653   1
  14  13  14  145.06 50.6947   1
 -14 -13 -14 139.363 43.3126   1
  14  14   3 307.263 107.072   1
  14  14   4 480.576 70.4719   1
 -14 -14  -4  511.62 67.3844   1
  14  14   5 62.7972  92.747   1
 -14 -14  -5 43.8707 88.4967   1
  14  14   6 100.923 55.9118   1
 -14 -14  -6  162.16  53.274   1
  14  14   7 261.557 57.8941   1
 -14 -14  -7 199.712 89.4552   1
  14  14   8 214.776 55.5084   1
 -14 -14  -8 264.338 52.0708   1
  14  14   9 626.117 66.8506   1
 -14 -14  -9 692.277 100.393   1
  14  14  10 51.5957  46.637   1
 -14 -14 -10 6.12363 42.9029   1
  14  14  11 478.694 97.4444   1
 -14 -14 -11 537.757 90.4709   1
  14  14  12 75.2338  47.769   1
 -14 -14 -12 89.4288 41.8728   1
  14  14  13 140.705 48.8669   1
 -14 -14 -13  184.45 70.7865   1
  14  15   6 88.2679 56.1564   1
 -14 -15  -6 154.821 87.1771   1
  14  15   7 228.659 94.3672   1
 -14 -15  -7 144.486 52.4816   1
  14  15   8 400.579 62.9227   1
 -14 -15  -8 510.642  59.302   1
  14  15   9 389.487 59.6821   1
 -14 -15  -9 387.052   55.43   1
  14  15  10 153.656 80.4395   1
 -14 -15 -10-1.40772 43.3083   1
  14  15  11-19.8239 44.0177   1
  15  -2   3 531.938 57.6832   1
 -15   2  -3 627.444  76.052   1
  15  -2   4 42.7796  80.487   1
 -15   2  -4 165.593  60.887   1
 -15   2  -4 134.602  36.316   1
  15  -2   5  44.605 50.3202   1
 -15   2  -5-15.3093 62.2873   1
 -15   2  -5  138.33 38.2178   1
  15  -2   6 301.793 60.4882   1
 -15   2  -6 338.505 73.3363   1
 -15   2  -6 385.071 75.1086   1
  15  -1   1 41.4804 39.0949   1
 -15   1  -1-47.6504 49.0097   1
 -15   1  -1 15.7702 49.2889   1
  15  -1   2 100.287  72.087   1
 -15   1  -2-20.6387  84.767   1
 -15   1  -2 19.7943 52.6932   1
  15  -1   3-12.7045 45.4664   1
 -15   1  -3 3.39398 52.1187   1
 -15   1  -3  36.336 32.9127   1
  15  -1   4  206.61 79.9107   1
 -15   1  -4 10.4599 55.2282   1
 -15   1  -4 9.06186 35.4369   1
  15  -1   5 22.3308 49.7325   1
 -15   1  -5 46.4701 55.4883   1
 -15   1  -5-1.27767 37.1696   1
  15  -1   6 51.5599  54.179   1
 -15   1  -6 201.052 65.7481   1
 -15   1  -6 95.3545 72.3142   1
  15  -1   7 1040.81 91.9149   1
 -15   1  -7 1306.59 107.027   1
 -15   1  -7  907.95 72.3915   1
  15  -1   8 50.8223 62.2224   1
 -15   1  -8 216.082 65.5256   1
 -15   1  -8 197.697 79.7141   1
  15  -1   9-15.4235 63.0323   1
 -15   1  -9  26.462 63.2697   1
 -15   1  -9 81.9608 46.6539   1
  15   0  -1 19.8173 67.4019   1
 -15   0   1 133.877 42.4487   1
  15   0   0-6.11385 40.3333   1
 -15   0   0 12.0135 73.6902   1
 -15   0   0-2.57743 30.9951   1
  15   0   1 125.285  43.201   1
 -15   0  -1 27.6154 46.3508   1
 -15   0  -1 30.0581 32.6563   1
  15   0   2 144.499 78.3937   1
 -15   0  -2 66.5223 51.4447   1
 -15   0  -2 185.926  36.083   1
  15   0   3-15.4152 45.4513   1
 -15   0  -3-14.2845 82.4618   1
 -15   0  -3 47.2755 34.2768   1
  15   0   4-16.5645 83.0369   1
 -15   0  -4 62.8943  51.488   1
 -15   0  -4  123.42 37.5521   1
  15   0   5 0.55134  49.202   1
 -15   0  -5-9.13602 54.7807   1
 -15   0  -5-45.1386 63.3549   1
  15   0   6 63.9398 93.9384   1
 -15   0  -6 180.365 59.7387   1
 -15   0  -6 49.1327 42.5099   1
  15   0   7 120.461 56.3456   1
 -15   0  -7 136.049  56.601   1
 -15   0  -7   19.45 43.4641   1
  15   0   8 83.9043 96.2048   1
 -15   0  -8 16.4806 57.2789   1
 -15   0  -8-61.3267 43.8568   1
  15   0   9  31.964 59.2569   1
 -15   0  -9 30.2582 61.4424   1
 -15   0  -9-21.7683 46.9748   1
  15   0  10-16.3629 111.348   1
 -15   0 -10 156.439 68.3448   1
 -15   0 -10 90.4057 53.1096   1
  15   0  11 269.902 77.7643   1
 -15   0 -11 268.203 61.1838   1
  15   1  -1 32.6175 67.6864   1
 -15  -1   1-9.76783 36.0212   1
 -15  -1   1 30.0973 31.6452   1
  15   1   0 145.319  42.447   1
 -15  -1   0 171.895 41.8562   1
 -15  -1   0-22.9206 33.9264   1
  15   1   1 818.184 66.8935   1
 -15  -1  -1 753.322 105.013   1
 -15  -1  -1 817.882  53.841   1
  15   1   2 167.627 81.3591   1
 -15  -1  -2 64.5814 46.1849   1
 -15  -1  -2 118.468 36.8342   1
  15   1   3 99.4359 49.8562   1
 -15  -1  -3 134.175   47.61   1
 -15  -1  -3 102.604  62.591   1
  15   1   4 14.7174 80.3773   1
 -15  -1  -4 15.9077 84.3668   1
 -15  -1  -4-86.1605 62.8266   1
  15   1   5 35.6568 50.3008   1
 -15  -1  -5-9.49337 50.4862   1
 -15  -1  -5 45.1408 39.0514   1
  15   1   6 231.297 99.6924   1
 -15  -1  -6 288.483 57.7226   1
 -15  -1  -6 258.558 48.2238   1
  15   1   7 60.5187 54.3416   1
 -15  -1  -7 5.25477 51.0499   1
 -15  -1  -7-83.5493 72.9918   1
  15   1   8 75.4642 97.3746   1
 -15  -1  -8 47.3834 57.1333   1
 -15  -1  -8 51.8021 45.0995   1
  15   1   9 11.5574 58.7788   1
 -15  -1  -9 35.1322  56.601   1
 -15  -1  -9 18.4677 78.5162   1
  15   1  10 14.5574 62.9398   1
 -15  -1 -10-35.7446 50.8005   1
  15   1  11 197.164 69.2796   1
 -15  -1 -11 197.049 98.4395   1
  15   1  12 3.58928 70.9588   1
 -15  -1 -12-8.74343 56.8991   1
  15   2  -2 59.5728 40.0853   1
 -15  -2   2 19.6162  33.366   1
 -15  -2   2 96.3033  33.615   1
  15   2  -1-26.8453 68.9948   1
 -15  -2   1 9.12207 31.9986   1
 -15  -2   1-19.5536 33.6777   1
  15   2   0 -20.087 43.7467   1
 -15  -2   0 34.3633 36.1076   1
 -15  -2   0 50.1921   34.84   1
  15   2   1 101.517  47.474   1
 -15  -2  -1 144.749 40.0221   1
 -15  -2  -1 208.965 61.9754   1
  15   2   2 262.992 51.6874   1
 -15  -2  -2 292.024 75.3474   1
 -15  -2  -2 175.278 68.7302   1
  15   2   3 48.9504 46.9605   1
 -15  -2  -3  33.179 41.2607   1
 -15  -2  -3  -0.057 37.3584   1
  15   2   4 114.892 54.3298   1
 -15  -2  -4 185.785 49.3508   1
 -15  -2  -4 209.099 41.8825   1
  15   2   5 155.654 57.2502   1
 -15  -2  -5 296.484 48.7412   1
 -15  -2  -5 169.835 45.1278   1
  15   2   6 341.665 61.4018   1
 -15  -2  -6 312.693 53.5988   1
 -15  -2  -6 226.273  82.545   1
  15   2   7 455.069 68.0295   1
 -15  -2  -7 438.062 63.8193   1
 -15  -2  -7 480.787 56.2857   1
  15   2   8-7.28714 57.3066   1
 -15  -2  -8-52.1138 52.8487   1
 -15  -2  -8-43.5334 75.6137   1
  15   2   9 85.5985 101.629   1
 -15  -2  -9 -49.258 47.2601   1
  15   2  10 226.732 68.5988   1
 -15  -2 -10 230.489  96.008   1
  15   2  11 421.202 131.105   1
 -15  -2 -11 356.076 64.1975   1
  15   2  12 76.6948 67.6758   1
 -15  -2 -12 67.4877 95.3785   1
  15   2  13-48.9246 73.9465   1
 -15  -2 -13-56.9936  60.911   1
  15   3  -2 625.813 55.1864   1
 -15  -3   2 385.397 39.5452   1
 -15  -3   2 511.859 75.0057   1
  15   3  -1 36.9597 71.7675   1
 -15  -3   1 24.2239  29.249   1
 -15  -3   1-32.4427 59.9086   1
  15   3   0 118.419  45.739   1
 -15  -3   0 161.956 34.9737   1
 -15  -3   0  169.91 64.7257   1
  15   3   1 90.9411 75.2134   1
 -15  -3  -1 5.24717 34.9486   1
 -15  -3  -1 51.9591 37.4428   1
  15   3   2 119.993 46.0308   1
 -15  -3  -2 17.7585 36.0151   1
 -15  -3  -2 3.58493 38.1901   1
  15   3   3-96.0093 80.4309   1
 -15  -3  -3-2.75371 67.1392   1
 -15  -3  -3 62.5716 38.7418   1
  15   3   4-23.7573 49.5693   1
 -15  -3  -4 117.345 70.3427   1
 -15  -3  -4-25.7541 66.1076   1
  15   3   5 22.7597 86.7516   1
 -15  -3  -5-19.7949 40.3225   1
 -15  -3  -5 17.6951 40.8838   1
  15   3   6 146.128 56.7561   1
 -15  -3  -6 105.806 47.8168   1
 -15  -3  -6 155.905 44.6736   1
  15   3   7-9.43861 92.6563   1
 -15  -3  -7 73.0331 74.6203   1
  15   3   8 26.7537 56.6838   1
 -15  -3  -8-38.9141 46.4472   1
  15   3   9 46.3445 61.9007   1
 -15  -3  -9 85.7154 48.9824   1
  15   3  10 648.469 86.6893   1
 -15  -3 -10 691.808 69.9296   1
  15   3  11 597.946 86.2562   1
 -15  -3 -11 665.321 72.9816   1
  15   3  12 106.734 113.669   1
 -15  -3 -12 57.8031 57.4847   1
  15   3  13-36.4098 68.7795   1
 -15  -3 -13 105.139 99.0083   1
  15   3  14 71.2474 74.5694   1
 -15  -3 -14 38.2396 63.9412   1
  15   4  -2 297.543 80.7116   1
 -15  -4   2 154.164 28.1366   1
 -15  -4   2 187.401 40.8023   1
  15   4  -1 281.004 51.8216   1
 -15  -4   1 162.935 29.9112   1
 -15  -4   1 301.619 43.1546   1
  15   4   0 71.8402 45.9352   1
 -15  -4   0-11.8155 29.4983   1
 -15  -4   0 55.5088 38.7964   1
  15   4   1 297.774 51.4527   1
 -15  -4  -1 187.586 35.7732   1
 -15  -4  -1 284.906  44.905   1
  15   4   2 196.805 50.9276   1
 -15  -4  -2 189.554 36.7747   1
 -15  -4  -2  143.60  73.897   1
  15   4   3 5.19637 84.3991   1
 -15  -4  -3 33.7359 36.8673   1
 -15  -4  -3 61.8877 41.2292   1
  15   4   4 178.297 55.1662   1
 -15  -4  -4 138.437 39.6988   1
 -15  -4  -4 248.939 46.1207   1
  15   4   5 -0.8111 50.2255   1
 -15  -4  -5-120.365 66.8469   1
 -15  -4  -5 60.5698 41.7778   1
  15   4   6 111.919 54.8911   1
 -15  -4  -6 112.104 43.8351   1
 -15  -4  -6 69.1081 75.7574   1
  15   4   7 4.41893 56.5027   1
 -15  -4  -7-35.7682 45.0707   1
  15   4   8-43.7086 98.1835   1
 -15  -4  -8 10.7617 47.5836   1
  15   4   9 98.2305 61.4021   1
 -15  -4  -9 164.846 52.2858   1
  15   4  10 81.0502 106.576   1
 -15  -4 -10 44.6074 51.2227   1
  15   4  11 45.9894 64.3623   1
 -15  -4 -11 76.8734 51.4689   1
  15   4  12 447.722 77.7043   1
 -15  -4 -12 317.825 67.5926   1
  15   4  13 314.215 126.921   1
 -15  -4 -13 239.797 64.0576   1
  15   4  14 170.861 73.5063   1
 -15  -4 -14 125.421  108.67   1
  15   5  -2 57.9918 47.6775   1
 -15  -5   2 56.0169 22.7233   1
 -15  -5   2  15.391 41.1329   1
  15   5  -1 35.5452 46.4411   1
 -15  -5   1 27.3578 22.8774   1
 -15  -5   1 62.9752 40.8536   1
  15   5   0 113.765 85.4533   1
 -15  -5   0 109.355 27.4955   1
 -15  -5   0 223.888 72.4361   1
  15   5   1 273.162 52.7018   1
 -15  -5  -1 108.568 50.9668   1
 -15  -5  -1 168.846 45.2129   1
  15   5   2 566.217 105.678   1
 -15  -5  -2  476.46 65.1161   1
 -15  -5  -2 497.534 54.9991   1
  15   5   3-42.5673 48.1112   1
 -15  -5  -3-16.7882 32.8102   1
 -15  -5  -3 12.8066 42.3403   1
  15   5   4 43.4391 86.3907   1
 -15  -5  -4-88.3529 33.5321   1
 -15  -5  -4-91.2253 74.6496   1
  15   5   5 25.6647 53.6373   1
 -15  -5  -5 47.4411 37.8606   1
 -15  -5  -5 110.345 45.0775   1
  15   5   6 123.007 94.9383   1
 -15  -5  -6  73.282 46.0867   1
  15   5   7 43.4491 55.8343   1
 -15  -5  -7 26.5247 79.2992   1
  15   5   8 266.844 64.6843   1
 -15  -5  -8  194.87 53.1367   1
  15   5   9 231.629 109.443   1
 -15  -5  -9 132.046 55.3175   1
  15   5  10 237.379 66.0661   1
 -15  -5 -10 148.117 57.3349   1
  15   5  11 8.39387 109.642   1
 -15  -5 -11 91.9901 53.4981   1
  15   5  12 18.8944 64.0521   1
 -15  -5 -12 24.4269 53.6173   1
  15   5  13 29.5389 66.7558   1
 -15  -5 -13 210.755 98.4347   1
  15   5  14-0.38174 115.786   1
 -15  -5 -14 65.5499   57.24   1
  15   5  15-58.5492 69.2728   1
 -15  -5 -15-27.7916 59.6089   1
  15   6  -2 21.9298 49.0251   1
 -15  -6   2  28.353 30.8489   1
 -15  -6   2 9.68847 72.2218   1
  15   6  -1 72.5723  82.036   1
 -15  -6   1-5.98287 19.2616   1
 -15  -6   1 44.8276 71.9404   1
  15   6   0  208.22  53.228   1
 -15  -6   0 165.879  25.133   1
 -15  -6   0 161.992 47.8881   1
  15   6   1 156.437 52.5545   1
 -15  -6  -1 68.8844 43.6722   1
 -15  -6  -1 172.517 46.1339   1
  15   6   2 850.483 75.9802   1
 -15  -6  -2 723.975 70.5471   1
 -15  -6  -2 825.088 107.527   1
  15   6   3-3.93143 51.1396   1
 -15  -6  -3 12.2947 47.4148   1
 -15  -6  -3-19.7585 44.8795   1
  15   6   4 47.1421 53.2399   1
 -15  -6  -4 127.583 53.0838   1
 -15  -6  -4 109.482 47.3841   1
  15   6   5-6.09419 50.5739   1
 -15  -6  -5-8.16823 46.3063   1
  15   6   6 598.707  74.092   1
 -15  -6  -6 611.078 105.525   1
  15   6   7-60.0348 97.8351   1
 -15  -6  -7 62.6296 47.3305   1
  15   6   8  337.51 66.8256   1
 -15  -6  -8 319.938  57.828   1
  15   6   9 231.947  70.987   1
 -15  -6  -9 357.862 58.6751   1
  15   6  10 116.035 113.591   1
 -15  -6 -10 202.129 57.1952   1
  15   6  11 29.5829 61.1399   1
 -15  -6 -11-65.8711 52.8484   1
  15   6  12 449.265 80.1516   1
 -15  -6 -12 508.574 66.6022   1
  15   6  13 421.133 77.6224   1
 -15  -6 -13 382.442 65.7323   1
  15   6  14  7.6387 64.9708   1
 -15  -6 -14 70.2423 91.6211   1
  15   6  15 117.847 113.197   1
 -15  -6 -15 17.7307 56.9614   1
  15   7  -2 121.628 55.2901   1
 -15  -7   2 112.831 48.2245   1
  15   7  -1 94.5493  54.521   1
 -15  -7   1 100.178 28.7689   1
 -15  -7   1 3.83279 48.3361   1
  15   7   0 122.992 91.6791   1
 -15  -7   0 61.2873 20.3576   1
 -15  -7   0 242.048 79.2148   1
  15   7   1 164.102 54.7881   1
 -15  -7  -1 92.6049 37.8868   1
 -15  -7  -1 134.573 82.3428   1
  15   7   2 262.335 58.5573   1
 -15  -7  -2 193.505 47.5205   1
 -15  -7  -2 328.438 54.0731   1
  15   7   3 311.226 60.8441   1
 -15  -7  -3 234.167 29.7417   1
 -15  -7  -3 310.833 54.2245   1
  15   7   4 1077.67 81.6805   1
 -15  -7  -4 791.635 47.0504   1
 -15  -7  -4 930.258 120.668   1
  15   7   5 278.012 56.8649   1
 -15  -7  -5 156.379 53.3402   1
  15   7   6 69.6022 52.8011   1
 -15  -7  -6-10.2413 48.5784   1
  15   7   7 54.8525 57.0446   1
 -15  -7  -7 54.7592 82.7296   1
  15   7   8 -57.268 97.5426   1
 -15  -7  -8 25.2622 49.1123   1
  15   7   9 202.424 63.2175   1
 -15  -7  -9 220.728 92.2308   1
  15   7  10 220.645 66.8221   1
 -15  -7 -10 225.253 54.7443   1
  15   7  11 161.635 111.443   1
 -15  -7 -11 154.086 56.7787   1
  15   7  12 738.001 87.6144   1
 -15  -7 -12 788.531 77.2956   1
  15   7  13 46.4344 63.9295   1
 -15  -7 -13 78.2878 91.2613   1
  15   7  14 250.095 116.535   1
 -15  -7 -14 135.203 57.4865   1
  15   7  15 137.542 66.3859   1
 -15  -7 -15 83.7501 56.1573   1
  15   8  -1 148.364  99.201   1
 -15  -8   1 167.355 87.4044   1
  15   8   0 142.067 59.8888   1
 -15  -8   0 283.237 55.0985   1
  15   8   1 162.081 56.0385   1
 -15  -8  -1 17.4273 32.0856   1
 -15  -8  -1 97.6122  51.172   1
  15   8   2-8.30894 55.0596   1
 -15  -8  -2  30.477 36.2034   1
 -15  -8  -2 99.0293 82.9748   1
  15   8   3 1042.00 88.1555   1
 -15  -8  -3 874.207 41.0756   1
 -15  -8  -3 1094.00 78.4383   1
  15   8   4 178.391  98.263   1
 -15  -8  -4  98.877 28.2796   1
 -15  -8  -4 57.9641 52.7806   1
  15   8   5 455.521 67.2015   1
 -15  -8  -5 307.477 102.432   1
  15   8   6 508.311 70.2532   1
 -15  -8  -6 551.808 65.3621   1
  15   8   7 12.1069 54.6865   1
 -15  -8  -7 111.084 51.8348   1
  15   8   8 72.4372  58.399   1
 -15  -8  -8 50.8231 87.3311   1
  15   8   9 67.1051 95.8309   1
 -15  -8  -9-9.53662 49.7341   1
  15   8  10  61.623 57.9216   1
 -15  -8 -10-23.3499 84.0593   1
  15   8  11 116.195 61.5156   1
 -15  -8 -11  71.392 52.5523   1
  15   8  12-115.315 99.4148   1
 -15  -8 -12 35.2239 87.7941   1
  15   8  13 412.147 75.2212   1
 -15  -8 -13 493.104 64.9937   1
  15   8  14 45.0967 63.3368   1
 -15  -8 -14 78.1243 55.0491   1
  15   8  15 288.061 70.3697   1
 -15  -8 -15 244.537 98.8314   1
  15   9  -1  407.56 69.5348   1
 -15  -9   1  376.12 64.7671   1
  15   9   0-82.7101 97.8453   1
 -15  -9   0-56.5147 51.8755   1
  15   9   1 723.045 78.1292   1
 -15  -9  -1 576.699 118.917   1
  15   9   2 11.3869 57.1632   1
 -15  -9  -2 72.0097 32.2601   1
 -15  -9  -2 26.1852 51.8436   1
  15   9   3-28.1286 54.9091   1
 -15  -9  -3-5.93299 19.8298   1
 -15  -9  -3 23.4642 51.2876   1
  15   9   4 179.376 59.7676   1
 -15  -9  -4 148.952 56.0151   1
  15   9   5 819.438 85.5225   1
 -15  -9  -5 931.198 78.4142   1
  15   9   6 153.965 58.7938   1
 -15  -9  -6 41.7956 89.2145   1
  15   9   7 675.016 77.4233   1
 -15  -9  -7 679.184 71.4914   1
  15   9   8 283.689 111.106   1
 -15  -9  -8 427.411 60.4686   1
  15   9   9 264.778 63.3179   1
 -15  -9  -9 313.016  97.005   1
  15   9  10 309.924 66.3792   1
 -15  -9 -10 299.974 57.1753   1
  15   9  11-21.7033 97.7913   1
 -15  -9 -11-35.9631 84.7558   1
  15   9  12-16.2761 59.1937   1
 -15  -9 -12 -76.064 50.6298   1
  15   9  13 22.6509 62.6977   1
 -15  -9 -13 203.321 54.2829   1
  15   9  14 310.955 105.846   1
 -15  -9 -14  60.276 53.6629   1
  15   9  15 148.518  62.618   1
 -15  -9 -15 153.968 53.6585   1
  15  10   0 56.2103 59.8325   1
 -15 -10   0 63.7698 56.7043   1
  15  10   1 111.588 98.8238   1
 -15 -10  -1 36.5642 56.2125   1
  15  10   2-54.3469 56.6712   1
 -15 -10  -2 3.23804 26.5364   1
 -15 -10  -2-2.74727 92.7495   1
  15  10   3 602.089 76.0371   1
 -15 -10  -3 500.712  69.364   1
  15  10   4  8.0303 55.6228   1
 -15 -10  -4-10.3576 52.6878   1
  15  10   5 361.587 66.3878   1
 -15 -10  -5  479.16 104.631   1
  15  10   6 44.9769 57.2453   1
 -15 -10  -6 51.4559 51.9386   1
  15  10   7-7.14759  54.857   1
 -15 -10  -7 109.496 85.4843   1
  15  10   8 104.854 55.7915   1
 -15 -10  -8 76.3496 52.4791   1
  15  10   9-46.7525 94.2244   1
 -15 -10  -9 122.875 51.1139   1
  15  10  10 371.954  69.238   1
 -15 -10 -10 491.153 61.7618   1
  15  10  11 148.962 60.0351   1
 -15 -10 -11 178.503 52.5223   1
  15  10  12 120.851 60.7544   1
 -15 -10 -12 127.929 50.9498   1
  15  10  13 104.084 101.736   1
 -15 -10 -13 105.516 84.3392   1
  15  10  14 469.994 69.4316   1
 -15 -10 -14 402.942 61.1869   1
  15  10  15 50.3715  57.461   1
 -15 -10 -15-13.8394 47.7744   1
  15  11   1 300.336 71.8898   1
 -15 -11  -1 395.787 68.3764   1
  15  11   2  190.18 100.055   1
 -15 -11  -2-12.8815 57.2635   1
  15  11   3 755.017 84.0578   1
 -15 -11  -3 683.283 131.102   1
  15  11   4  86.307  58.681   1
 -15 -11  -4 20.9605 54.0598   1
  15  11   5-14.2285 55.4843   1
 -15 -11  -5-23.9392 52.0554   1
  15  11   6 102.251 93.8195   1
 -15 -11  -6 27.2223 51.7575   1
  15  11   7  231.76 61.5016   1
 -15 -11  -7 178.831 56.7047   1
  15  11   8-73.2036 90.0714   1
 -15 -11  -8 38.3016 84.9585   1
  15  11   9 77.8455 55.3734   1
 -15 -11  -9 130.252 50.7975   1
  15  11  10 30.2915  54.352   1
 -15 -11 -10 12.8294 81.3883   1
  15  11  11 126.911 98.9883   1
 -15 -11 -11 187.133 52.0454   1
  15  11  12 61.2818  55.846   1
 -15 -11 -12 60.8944  83.288   1
  15  11  13 49.6623 55.3101   1
 -15 -11 -13 54.9412 47.0508   1
  15  11  14 56.5559 56.1551   1
 -15 -11 -14 44.3892 47.4577   1
 -15 -11 -15 196.385 84.1449   1
  15  12   2-26.8995 60.0341   1
 -15 -12  -2 26.7621 55.9738   1
  15  12   3-107.424 99.0433   1
 -15 -12  -3 36.7921 56.5713   1
  15  12   4 43.5935 59.2671   1
 -15 -12  -4  82.683 94.0337   1
  15  12   5 529.733 122.646   1
 -15 -12  -5  514.17 68.3239   1
  15  12   6 146.659 59.4326   1
 -15 -12  -6 142.282 94.0419   1
  15  12   7 1447.67 172.108   1
 -15 -12  -7 1366.41 97.1871   1
  15  12   8 205.736 59.6147   1
 -15 -12  -8 207.663 55.9266   1
  15  12   9 181.133 57.3952   1
 -15 -12  -9 243.438 55.3319   1
  15  12  10 -48.461 89.3519   1
 -15 -12 -10-24.3847  48.022   1
  15  12  11 402.182 66.0545   1
 -15 -12 -11 419.621 59.0773   1
  15  12  12 154.149 56.6757   1
 -15 -12 -12 142.268 84.7613   1
  15  12  13 104.342 90.9798   1
 -15 -12 -13 2.26357 46.5816   1
  15  12  14 291.038 102.121   1
 -15 -12 -14 235.976 85.0152   1
  15  13   4 36.0946 60.7273   1
 -15 -13  -4 124.163  57.061   1
  15  13   5  166.98 62.6548   1
 -15 -13  -5 207.606 100.247   1
  15  13   6 114.025 57.6618   1
 -15 -13  -6 52.6914 54.0657   1
  15  13   7-36.0577 55.7727   1
 -15 -13  -7-39.5529 87.7079   1
  15  13   8  117.38 57.7766   1
 -15 -13  -8 159.209 53.1263   1
  15  13   9 293.971 96.9298   1
 -15 -13  -9 219.462 91.6833   1
  15  13  10  -30.48 52.0344   1
 -15 -13 -10-41.4474 48.4815   1
  15  13  11 460.568 65.7848   1
 -15 -13 -11 407.955 98.4087   1
  15  13  12 59.7306 90.6272   1
 -15 -13 -12 105.756 47.2033   1
  15  13  13 220.196 58.0166   1
 -15 -13 -13 231.704 50.5354   1
  15  14   6 274.172 109.462   1
  15  14   7 107.312 56.3054   1
 -15 -14  -7 40.6843 52.2006   1
  15  14   8 114.575 93.6198   1
 -15 -14  -8 91.0531 52.8124   1
  15  14   9 21.3147 52.6155   1
 -15 -14  -9-38.3199 48.2618   1
  15  14  10 46.3602  51.967   1
 -15 -14 -10 93.9082 48.5428   1
  15  14  11 6.07314 85.8986   1
 -16  -1  -2 67.1361 46.8342   1
  16   1   3 220.645 90.3103   1
 -16  -1  -3 150.796 84.5732   1
 -16  -1  -3 145.316 41.1699   1
  16   1   4-14.7295 50.8755   1
 -16  -1  -4 39.7349 50.9962   1
 -16  -1  -4 103.873 39.6167   1
  16   1   5 85.8755 90.1049   1
 -16  -1  -5-23.6631 91.5655   1
 -16  -1  -5-81.0136 68.1755   1
  16   1   6 232.987 64.6904   1
 -16  -1  -6 338.572 65.3304   1
 -16  -1  -6 281.928  49.337   1
  16   1   7 117.482 58.5746   1
 -16  -1  -7 66.0651 55.8347   1
 -16  -1  -7 36.8502 46.4096   1
  16   1   8 18.1562 61.0723   1
 -16  -1  -8 155.083 57.9953   1
 -16  -1  -8 2.02646  47.734   1
  16   1   9 240.165 68.8381   1
 -16  -1  -9 218.316 54.5488   1
  16   2   1-4.03455 46.6246   1
 -16  -2  -1 25.0757 39.9529   1
  16   2   2-30.2074 49.0952   1
 -16  -2  -2 55.3754 41.6517   1
 -16  -2  -2 35.2151 38.3981   1
  16   2   3 253.924 94.2347   1
 -16  -2  -3 174.323 48.8599   1
 -16  -2  -3 236.436 44.4901   1
  16   2   4 -19.088 51.8446   1
 -16  -2  -4-5.46549 77.4193   1
 -16  -2  -4 68.1465  67.851   1
  16   2   5  478.61 111.494   1
 -16  -2  -5  470.76 65.2303   1
 -16  -2  -5 442.942 54.1567   1
  16   2   6 68.1849 57.8352   1
 -16  -2  -6 23.9482 85.2414   1
 -16  -2  -6  35.665 44.1192   1
  16   2   7 394.489 126.849   1
 -16  -2  -7 584.476 66.7867   1
 -16  -2  -7 434.439 97.1065   1
  16   2   8 31.7727 60.3153   1
 -16  -2  -8-9.60525 48.2689   1
  16   2   9 15.1168 108.769   1
 -16  -2  -9 74.1692 59.6003   1
  16   2  10 273.391 69.1793   1
 -16  -2 -10  67.291 55.1965   1
  16   2  11 71.0934 115.859   1
 -16  -2 -11  84.085 91.3212   1
  16   3   1 207.864 54.3238   1
 -16  -3  -1 258.458 67.9721   1
 -16  -3  -1  248.33 44.2762   1
  16   3   2 51.7553 85.3754   1
 -16  -3  -2 47.3572  38.778   1
 -16  -3  -2 71.9658 68.7496   1
  16   3   3 169.358 55.6604   1
 -16  -3  -3 230.066 44.1844   1
 -16  -3  -3 81.9948 44.8802   1
  16   3   4 318.829 61.5398   1
 -16  -3  -4 351.803 52.8396   1
 -16  -3  -4 320.905 50.9188   1
  16   3   5 41.5845 55.0944   1
 -16  -3  -5 9.79591 78.3418   1
 -16  -3  -5 37.2588 43.2399   1
  16   3   6  366.34 64.5048   1
 -16  -3  -6 264.602 52.9372   1
 -16  -3  -6 126.585 84.2187   1
  16   3   7 171.177   58.22   1
 -16  -3  -7-33.4497 47.2206   1
  16   3   8  7.2035 60.3934   1
 -16  -3  -8 45.7803 53.1457   1
 -16  -3  -8-8.43827 82.4667   1
  16   3   9 152.651 68.2321   1
 -16  -3  -9 190.218 54.6715   1
  16   3  10-42.0802 113.881   1
 -16  -3 -10-36.7357 88.8798   1
  16   3  11-28.1011 66.5534   1
 -16  -3 -11-2.28678  53.434   1
  16   3  12-4.95115 116.129   1
 -16  -3 -12-1.02588  92.402   1
  16   4   0 99.7481 49.1595   1
 -16  -4   0 128.323 53.4772   1
 -16  -4   0 235.024 70.3338   1
  16   4   1 82.9552 48.9334   1
 -16  -4  -1  62.163 55.3061   1
 -16  -4  -1 116.632 69.7875   1
  16   4   2 109.673 51.9876   1
 -16  -4  -2 32.3854 59.2512   1
 -16  -4  -2 94.3093 43.4753   1
  16   4   3 320.929 60.1804   1
 -16  -4  -3 254.243 42.3166   1
 -16  -4  -3 330.175 49.5708   1
  16   4   4 533.301 106.744   1
 -16  -4  -4 314.379 48.7448   1
 -16  -4  -4 328.866 88.1816   1
  16   4   5 165.862 59.9215   1
 -16  -4  -5 205.578 43.4734   1
 -16  -4  -5 195.725 48.4651   1
  16   4   6 95.5658 97.5095   1
 -16  -4  -6-51.2779  72.421   1
 -16  -4  -6-46.7971 45.6114   1
  16   4   7 431.182 73.5713   1
 -16  -4  -7  478.37 58.2349   1
 -16  -4  -7 385.343 97.4601   1
  16   4   8 81.0215 102.111   1
 -16  -4  -8  7.3854 48.7413   1
  16   4   9 131.437 64.6189   1
 -16  -4  -9 62.8029 54.8316   1
  16   4  10 135.344 75.2551   1
 -16  -4 -10 371.881 63.0612   1
  16   4  11 240.144 74.1057   1
 -16  -4 -11  154.94  59.344   1
  16   4  12 87.7874  69.234   1
 -16  -4 -12 47.0087 58.3125   1
  16   4  13 201.126 128.757   1
  16   5   0 139.262 52.5406   1
 -16  -5   0 102.335 47.7272   1
 -16  -5   0 151.504  44.312   1
  16   5   1 115.508 87.1823   1
 -16  -5  -1 117.301 50.1695   1
 -16  -5  -1 63.9855  44.842   1
  16   5   2 123.876 53.9101   1
 -16  -5  -2 75.7747 55.7315   1
 -16  -5  -2 174.148 47.2553   1
  16   5   3 556.812 113.232   1
 -16  -5  -3 553.874 77.0633   1
 -16  -5  -3 573.247 98.6889   1
  16   5   4-90.5406  53.475   1
 -16  -5  -4 57.0279 62.9122   1
 -16  -5  -4-33.5208 46.3498   1
  16   5   5 55.9369 93.7692   1
 -16  -5  -5 74.6262 36.8517   1
 -16  -5  -5-2.27557 47.5496   1
  16   5   6-51.2608 56.4319   1
 -16  -5  -6-4.72126 40.6272   1
 -16  -5  -6 104.979 78.1241   1
  16   5   7 248.693  101.09   1
 -16  -5  -7 1.48488 49.1382   1
  16   5   8  154.59 65.3441   1
 -16  -5  -8 142.243 54.1686   1
  16   5   9 253.802 107.404   1
 -16  -5  -9 41.4155 53.6085   1
  16   5  10 30.8731 63.4805   1
 -16  -5 -10 7.62041 55.9938   1
  16   5  11 313.369 79.0943   1
 -16  -5 -11 356.606 66.9567   1
  16   5  12 82.1877 71.8172   1
 -16  -5 -12 23.3553 57.3048   1
  16   5  13 276.427 79.0286   1
 -16  -5 -13 247.779 66.3498   1
  16   6   0 245.924 98.1322   1
 -16  -6   0 187.393 44.1395   1
 -16  -6   0 293.589 51.1609   1
  16   6   1 94.2712 52.1706   1
 -16  -6  -1-22.2982 25.8883   1
 -16  -6  -1-106.639 74.8328   1
  16   6   2 360.638 63.1461   1
 -16  -6  -2 280.904 34.1443   1
 -16  -6  -2 330.505 53.2838   1
  16   6   3 789.691   74.78   1
 -16  -6  -3 633.708 46.5957   1
 -16  -6  -3 685.236 66.6285   1
  16   6   4 20.6066 55.8324   1
 -16  -6  -4 186.026 55.6185   1
 -16  -6  -4 105.087 48.9217   1
  16   6   5 45.1802  56.345   1
 -16  -6  -5-25.5403 81.0805   1
  16   6   6 21.2769 56.0571   1
 -16  -6  -6 95.1917 37.9672   1
 -16  -6  -6-22.2826 49.4964   1
  16   6   7 343.688 67.8284   1
 -16  -6  -7 306.634 57.3525   1
  16   6   8 0.45564 103.583   1
 -16  -6  -8-44.7191 52.3146   1
  16   6   9-41.0797 64.3506   1
 -16  -6  -9-59.7733 53.1895   1
  16   6  10 228.882 111.576   1
 -16  -6 -10 100.819 57.2416   1
  16   6  11 94.4456 69.2082   1
 -16  -6 -11  114.17 59.0542   1
  16   6  12 223.089 72.1373   1
 -16  -6 -12 126.618 61.1371   1
  16   6  13 12.1587 121.262   1
 -16  -6 -13 88.8462 98.8111   1
  16   6  14 197.699 76.3898   1
  16   7   0 160.404 57.8993   1
 -16  -7   0 126.598 34.5647   1
  16   7   1 42.7051 93.3182   1
 -16  -7  -1 8.99984 37.8499   1
 -16  -7  -1 54.5473 48.1074   1
  16   7   2 67.9229 59.7226   1
 -16  -7  -2 100.671 26.4849   1
 -16  -7  -2 142.617 50.6863   1
  16   7   3 64.2094 58.5362   1
 -16  -7  -3 51.4753 30.3662   1
 -16  -7  -3 243.939 85.8246   1
  16   7   4 94.2725 59.1287   1
 -16  -7  -4 143.566 30.8357   1
 -16  -7  -4 149.243 53.9705   1
  16   7   5 100.764 55.2015   1
 -16  -7  -5 57.2358 32.0687   1
 -16  -7  -5 -53.331 49.8484   1
  16   7   6-71.6192 59.1328   1
 -16  -7  -6-63.2686 86.3612   1
  16   7   7 107.206 61.4905   1
 -16  -7  -7 198.872 54.7227   1
  16   7   8 531.266 81.6397   1
 -16  -7  -8 623.706 70.4084   1
  16   7   9 72.0515 109.787   1
 -16  -7  -9  95.219 56.1776   1
  16   7  10 210.784 68.9076   1
 -16  -7 -10 123.838 58.8342   1
  16   7  11 57.7772 111.342   1
 -16  -7 -11  69.126 57.4881   1
  16   7  12 91.8208 67.0137   1
 -16  -7 -12  20.991 58.2832   1
  16   7  13 179.822 76.6273   1
 -16  -7 -13 236.001 65.0636   1
  16   7  14 203.822 121.428   1
 -16  -7 -14 31.9073 103.667   1
  16   8   1 20.2268 56.0976   1
 -16  -8  -1  45.568 33.0388   1
 -16  -8  -1 14.7628 49.9808   1
  16   8   2 22.2677 55.4406   1
 -16  -8  -2 8.67015 21.8903   1
 -16  -8  -2 29.2609 84.4302   1
  16   8   3 -19.107 59.4701   1
 -16  -8  -3 29.6525 26.0437   1
 -16  -8  -3 118.546  51.186   1
  16   8   4 964.154  98.704   1
 -16  -8  -4 1002.29 49.3549   1
 -16  -8  -4 1376.11 88.5704   1
  16   8   5 155.453 96.4901   1
 -16  -8  -5 56.7921 30.7251   1
 -16  -8  -5  20.288 52.6294   1
  16   8   6 114.684 59.6878   1
 -16  -8  -6 85.0038 54.1114   1
  16   8   7 91.8172 59.7005   1
 -16  -8  -7-1.11187 91.5401   1
  16   8   8 47.7152 59.3465   1
 -16  -8  -8 32.7563 53.2177   1
  16   8   9  424.54 75.8289   1
 -16  -8  -9 382.849  66.204   1
  16   8  10-15.0259 107.451   1
 -16  -8 -10-70.5924 55.2896   1
  16   8  11 812.604 90.7858   1
 -16  -8 -11 631.969 78.4827   1
  16   8  12 254.316 74.8594   1
 -16  -8 -12 287.974 63.4758   1
  16   8  13 115.236 111.572   1
 -16  -8 -13  20.658 96.6971   1
  16   8  14 219.674 74.1907   1
 -16  -8 -14  233.60 64.0546   1
  16   9   1 184.611  107.28   1
  16   9   2 195.437 62.7917   1
 -16  -9  -2 107.813 21.1186   1
 -16  -9  -2 222.931 56.5359   1
  16   9   3 86.1814 57.6731   1
 -16  -9  -3  37.217 22.8676   1
 -16  -9  -3-59.2664 90.7772   1
  16   9   4  276.34 113.218   1
 -16  -9  -4 262.487 59.9882   1
  16   9   5 474.234 75.1602   1
 -16  -9  -5 376.191 67.4217   1
  16   9   6 93.9409 96.0809   1
 -16  -9  -6 -47.037 91.1682   1
  16   9   7-18.2682 57.4751   1
 -16  -9  -7  21.884 53.1469   1
  16   9   8 55.9009 59.8867   1
 -16  -9  -8-31.5429 90.7821   1
  16   9   9-14.3709 59.2362   1
 -16  -9  -9 61.3695 53.3737   1
  16   9  10-72.9926 61.3572   1
 -16  -9 -10 5.63815 90.4545   1
  16   9  11 394.886 114.693   1
 -16  -9 -11 121.865 58.8437   1
  16   9  12 182.553 66.9534   1
 -16  -9 -12  -19.03 95.4821   1
  16   9  13  90.862 64.0956   1
 -16  -9 -13 18.5476 55.3133   1
  16   9  14 15.9552 109.815   1
 -16  -9 -14 15.2196 53.5468   1
  16  10   2 237.855 108.422   1
 -16 -10  -2  33.583 98.7661   1
  16  10   3 332.238 69.7046   1
 -16 -10  -3 291.748 64.8065   1
  16  10   4-39.2755 60.5908   1
 -16 -10  -4-32.9959 34.8722   1
 -16 -10  -4 76.7539 94.1686   1
  16  10   5 124.596 62.1709   1
 -16 -10  -5 55.2745 56.5702   1
  16  10   6 128.913 63.6454   1
 -16 -10  -6 124.793  57.337   1
  16  10   7 97.1209 59.1638   1
 -16 -10  -7  88.471 95.3646   1
  16  10   8 416.735 74.1588   1
 -16 -10  -8 569.252 69.9404   1
  16  10   9-44.8401 61.0887   1
 -16 -10  -9-81.0797 92.6451   1
  16  10  10   40.62  101.82   1
 -16 -10 -10 3.55622 53.7587   1
  16  10  11 80.5927 63.2644   1
 -16 -10 -11 190.137 94.0746   1
  16  10  12  140.32 64.9285   1
 -16 -10 -12 69.5424 55.8133   1
  16  10  13  134.98 106.831   1
 -16 -10 -13 55.1968 53.3886   1
  16  11   3 125.447 110.859   1
  16  11   4 248.084  67.794   1
 -16 -11  -4  186.96 33.4275   1
 -16 -11  -4 258.991 62.2363   1
  16  11   5 159.786 63.7732   1
 -16 -11  -5  67.986 100.013   1
  16  11   6 1.25772 60.4101   1
 -16 -11  -6 11.4542 55.3708   1
  16  11   7 190.713  69.584   1
 -16 -11  -7 356.552 63.3266   1
  16  11   8 316.377 65.8094   1
 -16 -11  -8 239.891 61.9235   1
  16  11   9-78.5342 98.2886   1
 -16 -11  -9 20.1984 53.7502   1
  16  11  10 116.068 63.4346   1
 -16 -11 -10 155.061 55.7511   1
  16  11  11 45.8703 58.8249   1
 -16 -11 -11-1.58279 53.1723   1
  16  11  12 4.12456 102.646   1
 -16 -11 -12-48.1733 52.0934   1
  16  11  13 18.9484 60.4001   1
 -16 -11 -13-90.8969 85.7869   1
  16  12   5 65.6912 64.6656   1
 -16 -12  -5 157.279 59.3914   1
  16  12   6 291.622 117.467   1
 -16 -12  -6 298.346 108.081   1
  16  12   7 70.6488  60.867   1
 -16 -12  -7  3.3913 56.2671   1
  16  12   8 36.5273 98.5368   1
 -16 -12  -8  23.466 92.5633   1
  16  12   9 96.8582 58.1775   1
 -16 -12  -9-41.8671 53.9621   1
  16  12  10-12.3932 58.1554   1
 -16 -12 -10 67.8747 88.1626   1
  16  12  11 164.222 106.531   1
 -16 -12 -11  157.73 56.4422   1
  16  12  12 47.2519 58.6962   1
  17   4   5 80.0632 102.665   1
 -17  -4  -5 127.158 48.2335   1
 -17  -4  -5 144.274 48.7466   1
  17   4   6 72.5765 60.6304   1
 -17  -4  -6  30.107 45.2143   1
 -17  -4  -6 54.0458 80.0569   1
  17   4   7 79.7335 108.684   1
 -17  -4  -7 39.8806 49.7882   1
  17   4   8 765.488 93.4116   1
 -17  -4  -8 718.569 78.6406   1
 -17  -4  -8  816.66 75.0285   1
  17   5   4 60.7971  57.092   1
 -17  -5  -4 5.52109 39.0275   1
 -17  -5  -4   72.45 47.2827   1
  17   5   5 41.0488 59.0644   1
 -17  -5  -5-2.47774 68.7238   1
 -17  -5  -5 115.046 82.0164   1
  17   5   6 152.755 61.4727   1
 -17  -5  -6 47.3234 42.0106   1
 -17  -5  -6  70.708 50.0268   1
  17   5   7 152.773 65.4229   1
 -17  -5  -7 85.3881  47.463   1
 -17  -5  -7 30.2093 52.5633   1
  17   5   8 125.452 67.0141   1
 -17  -5  -8-9.81619 53.0496   1
  17   5   9 1023.61 109.157   1
 -17  -5  -9 1055.01 91.3058   1
  17   5  10-53.5364 70.3519   1
 -17  -5 -10-122.472 59.2398   1
  17   6   4  107.37 61.6252   1
 -17  -6  -4 124.056 37.5075   1
 -17  -6  -4 112.501 86.7029   1
  17   6   5-49.1819 59.6692   1
 -17  -6  -5 73.0776 36.0231   1
 -17  -6  -5  2.4055 50.2289   1
  17   6   6 26.6185 104.811   1
 -17  -6  -6 30.5061 86.6296   1
  17   6   7 83.7256 62.0024   1
 -17  -6  -7 33.6553 42.4403   1
 -17  -6  -7 25.6465 53.0893   1
  17   6   8 186.421 70.6634   1
 -17  -6  -8 108.504 57.7801   1
  17   6   9 293.939 75.0912   1
 -17  -6  -9 188.583 60.4912   1
  17   6  10 171.532 74.4094   1
 -17  -6 -10 188.878  62.579   1
  17   7   4 110.639 64.4909   1
 -17  -7  -4 185.299  36.025   1
 -17  -7  -4 187.347 58.1427   1
  17   7   5 473.685 125.752   1
 -17  -7  -5 401.278 41.7723   1
 -17  -7  -5 519.848 107.833   1
  17   7   6  72.049 61.6095   1
 -17  -7  -6 27.5551 36.1475   1
 -17  -7  -6 -7.0801 52.8933   1
  17   7   7 210.534 111.806   1
 -17  -7  -7 81.8835 55.3548   1
  17   7   8 130.796 66.7503   1
 -17  -7  -8 70.8368 57.2342   1
  17   7   9 85.8898 115.886   1
 -17  -7  -9 83.8014 57.9664   1
  17   7  10 11.9272 68.5418   1
 -17  -7 -10-15.1222 56.2235   1
  17   7  11 161.733 73.6598   1
 -17  -7 -11 114.856 62.7995   1
  17   8   4 193.663 108.521   1
  17   8   5 265.247 65.5181   1
 -17  -8  -5 146.369 32.4546   1
 -17  -8  -5 147.396 59.0715   1
  17   8   6-92.1068 105.328   1
 -17  -8  -6  40.702 33.2128   1
 -17  -8  -6-12.0158 54.8332   1
  17   8   7  391.03 73.2775   1
 -17  -8  -7 225.653 64.3817   1
  17   8   8 122.935 115.489   1
 -17  -8  -8 120.206 58.5497   1
  17   8   9 89.7071 69.6484   1
 -17  -8  -9 136.443 61.5525   1
  17   8  10-71.6551 67.1593   1
 -17  -8 -10  0.3405 57.7098   1
  17   8  11 258.747 75.7484   1
 -17  -8 -11 193.653 63.7986   1
  17   9   5 117.337 107.244   1
  17   9   6 53.4387 61.6271   1
 -17  -9  -6 41.8613 58.5885   1
  17   9   7 143.398 112.476   1
 -17  -9  -7 93.1824 60.3852   1
  17   9   8 2.67895 63.9234   1
 -17  -9  -8-12.0433 57.1947   1
  17   9   9 108.602  113.70   1
 -17  -9  -9 79.5351 57.9444   1
  17   9  10 -17.016  66.374   1
 -17  -9 -10 86.7391 58.7798   1
  17   9  11 193.363  72.317   1
 -17  -9 -11 117.647 62.0039   1
  17  10   7 108.657 64.0424   1
 -17 -10  -7 65.9613 61.2549   1
  17  10   8 232.806 123.896   1
 -17 -10  -8 276.546 64.9142   1
  17  10   9 62.7882 65.2065   1
 -17 -10  -9-11.6152 57.5767   1
  17  10  10 448.459 79.9318   1
   0   0   0    0.00    0.00   1
;
_shelx_hkl_checksum              92555
loop_
_symmetry_equiv_pos_as_xyz
'x, y, z'
'-x, -y, -z'
loop_
_atom_site_label
_atom_site_type_symbol
_atom_site_fract_x
_atom_site_fract_y
_atom_site_fract_z
_atom_site_U_iso_or_equiv
_atom_site_adp_type
_atom_site_occupancy
_atom_site_site_symmetry_order
_atom_site_calc_flag
_atom_site_refinement_flags_posn
_atom_site_refinement_flags_adp
_atom_site_refinement_flags_occupancy
_atom_site_disorder_assembly
_atom_site_disorder_group
C1 C 0.5534(3) 0.1502(4) 0.4756(3) 0.0588(10) Uani 1 1 d . . . . .
H1 H 0.5094 0.1441 0.5406 0.071 Uiso 1 1 calc R U . . .
C2 C 0.6148(4) 0.0583(4) 0.4372(3) 0.0633(11) Uani 1 1 d . . . . .
H2 H 0.613 -0.0112 0.4758 0.076 Uiso 1 1 calc R U . . .
C3 C 0.6789(3) 0.0670(3) 0.3426(3) 0.0553(9) Uani 1 1 d . . . . .
H3 H 0.7218 0.0033 0.3167 0.066 Uiso 1 1 calc R U . . .
C4 C 0.6811(3) 0.1684(3) 0.2851(2) 0.0423(7) Uani 1 1 d . . . . .
C5 C 0.6201(3) 0.2603(3) 0.3253(3) 0.0474(8) Uani 1 1 d . . . . .
H5 H 0.6226 0.33 0.2875 0.057 Uiso 1 1 calc R U . . .
C6 C 0.5558(3) 0.2506(3) 0.4198(3) 0.0555(9) Uani 1 1 d . . . . .
H6 H 0.5131 0.3139 0.4464 0.067 Uiso 1 1 calc R U . . .
C7 C 0.7467(3) 0.1775(3) 0.1830(2) 0.0410(7) Uani 1 1 d . . . . .
C8 C 0.7005(3) 0.2563(3) 0.1134(3) 0.0442(8) Uani 1 1 d . . . . .
H8 H 0.6271 0.3069 0.1317 0.053 Uiso 1 1 calc R U . . .
C9 C 0.7600(3) 0.2622(3) 0.0175(3) 0.0447(8) Uani 1 1 d . . . . .
H9 H 0.7262 0.3155 -0.0292 0.054 Uiso 1 1 calc R U . . .
C10 C 0.8688(3) 0.1906(3) -0.0108(2) 0.0385(7) Uani 1 1 d . . . . .
C11 C 0.9164(3) 0.1143(3) 0.0584(3) 0.0492(8) Uani 1 1 d . . . . .
H11 H 0.9915 0.0664 0.0402 0.059 Uiso 1 1 calc R U . . .
C12 C 0.8560(3) 0.1068(3) 0.1538(3) 0.0523(9) Uani 1 1 d . . . . .
H12 H 0.8895 0.0524 0.2002 0.063 Uiso 1 1 calc R U . . .
C13 C 0.9362(2) 0.1987(2) -0.1134(2) 0.0372(7) Uani 1 1 d . . . . .
C14 C 0.8976(2) 0.1892(2) -0.1826(2) 0.0335(6) Uani 1 1 d . . . . .
C15 C 0.9533(2) 0.2004(2) -0.2782(2) 0.0350(6) Uani 1 1 d . . . . .
C16 C 1.0622(2) 0.2170(2) -0.3100(2) 0.0363(7) Uani 1 1 d . . . . .
C17 C 1.1316(3) 0.2200(3) -0.4055(3) 0.0420(7) Uani 1 1 d . . . . .
H17 H 1.108 0.2087 -0.4511 0.05 Uiso 1 1 calc R U . . .
C18 C 1.2332(3) 0.2392(3) -0.4324(3) 0.0479(8) Uani 1 1 d . . . . .
H18 H 1.2791 0.2414 -0.4968 0.058 Uiso 1 1 calc R U . . .
C19 C 1.2697(3) 0.2554(3) -0.3667(3) 0.0529(9) Uani 1 1 d . . . . .
H19 H 1.3384 0.2717 -0.3872 0.063 Uiso 1 1 calc R U . . .
C20 C 1.2080(3) 0.2481(3) -0.2734(3) 0.0491(9) Uani 1 1 d . . . . .
H20 H 1.2353 0.2569 -0.2289 0.059 Uiso 1 1 calc R U . . .
C21 C 1.1025(2) 0.2275(3) -0.2418(3) 0.0412(7) Uani 1 1 d . . . . .
C22 C 1.0381(3) 0.2179(3) -0.1449(3) 0.0421(7) Uani 1 1 d . . . . .
H22 H 1.0663 0.225 -0.1002 0.05 Uiso 1 1 calc R U . . .
C23 C 0.9034(2) 0.1921(2) -0.3459(2) 0.0341(6) Uani 1 1 d . . . . .
C24 C 0.8735(2) 0.1001(2) -0.3285(2) 0.0345(6) Uani 1 1 d . . . . .
C25 C 0.8314(2) 0.0810(2) -0.3898(2) 0.0366(7) Uani 1 1 d . . . . .
C26 C 0.8139(3) 0.1595(3) -0.4683(2) 0.0422(7) Uani 1 1 d . . . . .
H26 H 0.7861 0.1476 -0.5108 0.051 Uiso 1 1 calc R U . . .
C27 C 0.8363(2) 0.2588(3) -0.4884(2) 0.0407(7) Uani 1 1 d . . . . .
C28 C 0.8142(3) 0.3412(3) -0.5679(3) 0.0497(8) Uani 1 1 d . . . . .
H28 H 0.785 0.3299 -0.6097 0.06 Uiso 1 1 calc R U . . .
C29 C 0.8342(3) 0.4373(3) -0.5859(3) 0.0565(10) Uani 1 1 d . . . . .
H29 H 0.8197 0.4918 -0.6402 0.068 Uiso 1 1 calc R U . . .
C30 C 0.8761(3) 0.4549(3) -0.5240(3) 0.0547(9) Uani 1 1 d . . . . .
H30 H 0.8885 0.5223 -0.5364 0.066 Uiso 1 1 calc R U . . .
C31 C 0.8996(3) 0.3776(3) -0.4464(3) 0.0470(8) Uani 1 1 d . . . . .
H31 H 0.9279 0.3915 -0.4055 0.056 Uiso 1 1 calc R U . . .
C32 C 0.8815(2) 0.2752(2) -0.4265(2) 0.0378(7) Uani 1 1 d . . . . .
C33 C 0.8086(3) -0.0240(3) -0.3679(2) 0.0378(7) Uani 1 1 d . . . . .
C34 C 0.8957(3) -0.1218(3) -0.3586(3) 0.0585(11) Uani 1 1 d . . . . .
H34 H 0.9696 -0.1214 -0.3678 0.07 Uiso 1 1 calc R U . . .
C35 C 0.8756(3) -0.2195(3) -0.3362(3) 0.0581(11) Uani 1 1 d . . . . .
H35 H 0.937 -0.2853 -0.3323 0.07 Uiso 1 1 calc R U . . .
C36 C 0.7679(3) -0.2250(3) -0.3190(2) 0.0377(7) Uani 1 1 d . . . . .
C37 C 0.6831(3) -0.1270(3) -0.3312(2) 0.0415(7) Uani 1 1 d . . . . .
H37 H 0.6096 -0.1272 -0.3234 0.05 Uiso 1 1 calc R U . . .
C38 C 0.7028(3) -0.0284(3) -0.3545(2) 0.0409(7) Uani 1 1 d . . . . .
H38 H 0.6422 0.0374 -0.3614 0.049 Uiso 1 1 calc R U . . .
C39 C 0.7482(3) -0.3314(3) -0.2873(2) 0.0385(7) Uani 1 1 d . . . . .
C40 C 0.8280(4) -0.4246(3) -0.2577(4) 0.0762(15) Uani 1 1 d . . . . .
H40 H 0.8983 -0.4208 -0.2607 0.091 Uiso 1 1 calc R U . . .
C41 C 0.8085(4) -0.5243(3) -0.2237(5) 0.0856(17) Uani 1 1 d . . . . .
H41 H 0.8649 -0.587 -0.2026 0.103 Uiso 1 1 calc R U . . .
C42 C 0.7094(3) -0.5335(3) -0.2202(3) 0.0531(9) Uani 1 1 d . . . . .
H42 H 0.6961 -0.6017 -0.1968 0.064 Uiso 1 1 calc R U . . .
C43 C 0.6307(3) -0.4426(3) -0.2508(4) 0.0649(11) Uani 1 1 d . . . . .
H43 H 0.5612 -0.4473 -0.2488 0.078 Uiso 1 1 calc R U . . .
C44 C 0.6497(3) -0.3425(3) -0.2852(3) 0.0618(11) Uani 1 1 d . . . . .
H44 H 0.5938 -0.2805 -0.3077 0.074 Uiso 1 1 calc R U . . .
C45 C 0.6056(3) 0.0143(3) -0.1311(2) 0.0440(8) Uani 1 1 d . . . . .
C46 C 0.6462(3) -0.0966(3) -0.1006(3) 0.0524(9) Uani 1 1 d . . . . .
H46 H 0.7206 -0.1304 -0.0936 0.063 Uiso 1 1 calc R U . . .
C47 C 0.5753(4) -0.1588(4) -0.0798(3) 0.0618(11) Uani 1 1 d . . . . .
C48 C 0.4649(4) -0.1049(4) -0.0900(3) 0.0690(12) Uani 1 1 d . . . . .
H48 H 0.4159 -0.1456 -0.0766 0.083 Uiso 1 1 calc R U . . .
C49 C 0.4298(3) 0.0017(4) -0.1182(3) 0.0680(12) Uani 1 1 d . . . . .
H49 H 0.3549 0.0375 -0.1238 0.082 Uiso 1 1 calc R U . . .
C50A C 0.7171(8) -0.3221(6) -0.0457(6) 0.081(3) Uani 0.666(10) 1 d . . P A 1
H50A H 0.7251 -0.3998 -0.0239 0.122 Uiso 0.666(10) 1 calc R U P A 1
H50B H 0.7718 -0.3103 -0.1084 0.122 Uiso 0.666(10) 1 calc R U P A 1
H50C H 0.7317 -0.2976 -0.0001 0.122 Uiso 0.666(10) 1 calc R U P A 1
C50B C 0.5640(17) -0.3433(14) -0.0326(12) 0.092(6) Uani 0.334(10) 1 d . . P A 2
H50D H 0.617 -0.4146 -0.0139 0.139 Uiso 0.334(10) 1 calc R U P A 2
H50E H 0.4936 -0.3299 0.0197 0.139 Uiso 0.334(10) 1 calc R U P A 2
H50F H 0.5471 -0.3421 -0.0894 0.139 Uiso 0.334(10) 1 calc R U P A 2
N1 N 0.6663(2) 0.0844(2) -0.1540(2) 0.0410(6) Uani 1 1 d . . . . .
N2 N 0.4992(2) 0.0612(3) -0.1393(2) 0.0554(8) Uani 1 1 d . . . . .
H2N H 0.4741 0.1322 -0.1589 0.083 Uiso 1 1 calc R U . . .
O1 O 0.79329(16) 0.16785(17) -0.14942(16) 0.0383(5) Uani 1 1 d . . . . .
O2 O 0.88560(17) 0.02148(16) -0.24467(15) 0.0371(5) Uani 1 1 d . . . . .
O3 O 0.8220(2) -0.03693(19) -0.06718(17) 0.0478(6) Uani 1 1 d . . . . .
O4 O 0.6110(4) -0.2652(3) -0.0523(2) 0.0823(10) Uani 1 1 d . . . . .
P1 P 0.79647(7) 0.05003(7) -0.14642(6) 0.0365(2) Uani 1 1 d . . . . .
H1N H 0.632(3) 0.159(3) -0.172(3) 0.050(10) Uiso 1 1 d . . . . .
C101 C 0.5003(4) 0.3849(4) 0.6519(4) 0.0683(12) Uani 1 1 d . . . . .
O101 O 0.5583(2) 0.3064(2) 0.8062(2) 0.0637(7) Uani 1 1 d . . . . .
O102 O 0.3877(2) 0.4609(2) 0.8050(2) 0.0731(9) Uani 1 1 d . . . . .
O103 O 0.3919(2) 0.2820(2) 0.8048(3) 0.0726(9) Uani 1 1 d . . . . .
F101 F 0.5569(3) 0.2921(3) 0.6209(3) 0.1070(11) Uani 1 1 d . . . . .
F102 F 0.5675(3) 0.4461(3) 0.6174(2) 0.0937(9) Uani 1 1 d . . . . .
F103 F 0.4145(3) 0.4342(3) 0.6156(3) 0.1071(11) Uani 1 1 d . . . . .
S101 S 0.45380(7) 0.35728(8) 0.78117(8) 0.0530(3) Uani 1 1 d . . . . .
C201 C 0.1098(6) 0.5824(7) 0.8749(6) 0.132(3) Uani 1 1 d . . . . .
H20A H 0.1179 0.5681 0.9393 0.158 Uiso 1 1 calc R U . . .
H20B H 0.1848 0.5811 0.8281 0.158 Uiso 1 1 calc R U . . .
Cl1 Cl 0.0695(3) 0.47631(18) 0.86786(17) 0.1556(9) Uani 1 1 d . . . . .
Cl2 Cl 0.0204(3) 0.7017(2) 0.8546(3) 0.1879(12) Uani 1 1 d . . . . .
loop_
_atom_site_aniso_label
_atom_site_aniso_U_11
_atom_site_aniso_U_22
_atom_site_aniso_U_33
_atom_site_aniso_U_23
_atom_site_aniso_U_13
_atom_site_aniso_U_12
C1 0.0468(19) 0.077(3) 0.0388(19) -0.006(2) -0.0140(15) -0.0085(19)
C2 0.067(2) 0.061(2) 0.050(2) 0.002(2) -0.0139(19) -0.021(2)
C3 0.060(2) 0.0478(19) 0.052(2) -0.0103(18) -0.0169(18) -0.0095(17)
C4 0.0342(15) 0.0493(18) 0.0461(19) -0.0093(16) -0.0188(14) -0.0093(14)
C5 0.0402(16) 0.0487(18) 0.052(2) -0.0138(17) -0.0164(15) -0.0075(15)
C6 0.0444(18) 0.065(2) 0.054(2) -0.022(2) -0.0179(16) -0.0028(17)
C7 0.0378(15) 0.0417(16) 0.0487(19) -0.0130(15) -0.0168(14) -0.0107(14)
C8 0.0313(14) 0.0442(17) 0.050(2) -0.0101(16) -0.0121(14) -0.0045(13)
C9 0.0350(15) 0.0451(17) 0.0488(19) -0.0047(16) -0.0154(14) -0.0081(14)
C10 0.0334(14) 0.0412(16) 0.0469(18) -0.0126(15) -0.0125(13) -0.0140(13)
C11 0.0396(16) 0.0489(19) 0.053(2) -0.0159(17) -0.0187(15) 0.0013(15)
C12 0.0496(19) 0.0490(19) 0.049(2) -0.0108(17) -0.0229(16) 0.0026(16)
C13 0.0313(14) 0.0348(14) 0.0488(18) -0.0116(14) -0.0125(13) -0.0104(12)
C14 0.0246(12) 0.0324(13) 0.0462(17) -0.0050(13) -0.0110(12) -0.0133(11)
C15 0.0297(13) 0.0310(13) 0.0471(18) -0.0040(13) -0.0140(12) -0.0128(12)
C16 0.0293(13) 0.0317(14) 0.0506(18) -0.0081(14) -0.0123(13) -0.0117(12)
C17 0.0338(15) 0.0422(16) 0.052(2) -0.0078(15) -0.0102(14) -0.0174(13)
C18 0.0349(15) 0.0503(19) 0.056(2) -0.0099(17) -0.0041(15) -0.0204(15)
C19 0.0296(15) 0.058(2) 0.077(3) -0.022(2) -0.0062(16) -0.0226(15)
C20 0.0319(15) 0.055(2) 0.070(2) -0.0229(19) -0.0112(16) -0.0182(15)
C21 0.0302(14) 0.0398(16) 0.059(2) -0.0139(16) -0.0118(14) -0.0139(13)
C22 0.0342(15) 0.0488(18) 0.053(2) -0.0156(16) -0.0158(14) -0.0157(14)
C23 0.0283(13) 0.0353(14) 0.0432(17) -0.0071(13) -0.0094(12) -0.0159(12)
C24 0.0281(13) 0.0355(14) 0.0393(16) -0.0032(13) -0.0096(12) -0.0130(12)
C25 0.0325(14) 0.0364(15) 0.0439(17) -0.0066(14) -0.0095(13) -0.0165(12)
C26 0.0344(15) 0.0487(18) 0.0496(19) -0.0086(16) -0.0135(14) -0.0191(14)
C27 0.0286(13) 0.0451(17) 0.0457(18) -0.0004(15) -0.0110(13) -0.0156(13)
C28 0.0381(16) 0.056(2) 0.052(2) 0.0029(17) -0.0182(15) -0.0183(15)
C29 0.0479(19) 0.0485(19) 0.062(2) 0.0136(18) -0.0218(18) -0.0180(16)
C30 0.0453(18) 0.0393(17) 0.072(3) 0.0065(18) -0.0198(18) -0.0177(15)
C31 0.0392(16) 0.0411(17) 0.060(2) -0.0003(16) -0.0172(15) -0.0175(14)
C32 0.0292(13) 0.0380(15) 0.0470(18) -0.0050(14) -0.0110(13) -0.0142(12)
C33 0.0373(15) 0.0418(16) 0.0407(17) -0.0077(14) -0.0095(13) -0.0210(13)
C34 0.0292(15) 0.0459(18) 0.104(3) -0.020(2) -0.0151(18) -0.0155(14)
C35 0.0337(16) 0.0393(17) 0.105(3) -0.020(2) -0.0222(19) -0.0081(14)
C36 0.0360(15) 0.0407(15) 0.0431(17) -0.0086(14) -0.0123(13) -0.0179(13)
C37 0.0371(15) 0.0444(16) 0.054(2) -0.0029(15) -0.0226(14) -0.0198(14)
C38 0.0394(15) 0.0382(15) 0.052(2) -0.0005(15) -0.0251(14) -0.0147(13)
C39 0.0385(15) 0.0391(15) 0.0438(17) -0.0090(14) -0.0127(13) -0.0168(13)
C40 0.055(2) 0.0416(19) 0.141(5) 0.006(2) -0.053(3) -0.0207(18)
C41 0.063(3) 0.042(2) 0.154(5) 0.009(3) -0.055(3) -0.0194(19)
C42 0.058(2) 0.0404(17) 0.069(2) -0.0068(18) -0.0214(19) -0.0239(16)
C43 0.050(2) 0.051(2) 0.107(4) -0.008(2) -0.033(2) -0.0267(18)
C44 0.050(2) 0.0443(18) 0.104(3) -0.001(2) -0.039(2) -0.0227(16)
C45 0.0423(16) 0.062(2) 0.0403(17) -0.0108(16) -0.0061(14) -0.0338(16)
C46 0.061(2) 0.060(2) 0.047(2) -0.0064(18) -0.0107(17) -0.0366(19)
C47 0.083(3) 0.069(3) 0.046(2) -0.012(2) -0.009(2) -0.047(2)
C48 0.065(3) 0.091(3) 0.072(3) -0.021(3) -0.005(2) -0.055(3)
C49 0.049(2) 0.089(3) 0.086(3) -0.027(3) -0.011(2) -0.043(2)
C50A 0.112(7) 0.062(4) 0.075(5) 0.004(4) -0.032(5) -0.042(5)
C50B 0.136(15) 0.088(11) 0.078(11) -0.004(8) -0.024(10) -0.077(11)
N1 0.0344(13) 0.0457(15) 0.0470(16) -0.0021(13) -0.0125(12) -0.0217(12)
N2 0.0417(15) 0.075(2) 0.063(2) -0.0190(17) -0.0093(14) -0.0332(15)
O1 0.0288(10) 0.0430(11) 0.0479(13) -0.0096(10) -0.0082(9) -0.0186(9)
O2 0.0375(10) 0.0322(10) 0.0430(12) -0.0020(9) -0.0137(9) -0.0149(9)
O3 0.0499(13) 0.0498(13) 0.0480(14) 0.0040(11) -0.0197(11) -0.0257(11)
O4 0.115(3) 0.072(2) 0.076(2) -0.0007(17) -0.022(2) -0.063(2)
P1 0.0339(4) 0.0395(4) 0.0405(4) -0.0006(4) -0.0131(3) -0.0197(3)
C101 0.056(2) 0.073(3) 0.086(3) -0.025(3) -0.029(2) -0.014(2)
O101 0.0561(15) 0.0585(15) 0.095(2) -0.0091(15) -0.0418(15) -0.0229(13)
O102 0.0549(16) 0.0634(17) 0.098(2) -0.0331(17) -0.0083(15) -0.0150(14)
O103 0.0495(15) 0.0660(17) 0.118(3) -0.0179(18) -0.0318(16) -0.0271(14)
F101 0.104(2) 0.114(2) 0.114(3) -0.069(2) -0.0255(19) -0.014(2)
F102 0.091(2) 0.118(2) 0.0803(19) -0.0148(18) -0.0144(16) -0.0542(19)
F103 0.102(2) 0.123(3) 0.114(3) -0.007(2) -0.073(2) -0.027(2)
S101 0.0374(4) 0.0525(5) 0.0774(7) -0.0197(5) -0.0192(4) -0.0148(4)
C201 0.072(4) 0.181(8) 0.144(7) -0.053(6) -0.031(4) -0.028(4)
Cl1 0.213(3) 0.1157(14) 0.1338(17) -0.0386(13) -0.0323(16) -0.0536(16)
Cl2 0.162(2) 0.1142(16) 0.303(4) -0.031(2) -0.090(2) -0.0469(16)
loop_
_atom_type_symbol
_atom_type_description
_atom_type_scat_dispersion_real
_atom_type_scat_dispersion_imag
_atom_type_scat_source
C C 0.0033 0.0016 'International Tables Vol C Tables 4.2.6.8 and 6.1.1.4'
H H 0 0 'International Tables Vol C Tables 4.2.6.8 and 6.1.1.4'
N N 0.0061 0.0033 'International Tables Vol C Tables 4.2.6.8 and 6.1.1.4'
O O 0.0106 0.006 'International Tables Vol C Tables 4.2.6.8 and 6.1.1.4'
F F 0.0171 0.0103 'International Tables Vol C Tables 4.2.6.8 and 6.1.1.4'
P P 0.1023 0.0942 'International Tables Vol C Tables 4.2.6.8 and 6.1.1.4'
S S 0.1246 0.1234 'International Tables Vol C Tables 4.2.6.8 and 6.1.1.4'
Cl Cl 0.1484 0.1585 'International Tables Vol C Tables 4.2.6.8 and 6.1.1.4'
loop_
_geom_angle_atom_site_label_1
_geom_angle_atom_site_label_2
_geom_angle_atom_site_label_3
_geom_angle
C6 C1 C2 119.9(4)
C6 C1 H1 120
C2 C1 H1 120
C1 C2 C3 120.2(4)
C1 C2 H2 119.9
C3 C2 H2 119.9
C2 C3 C4 120.4(3)
C2 C3 H3 119.8
C4 C3 H3 119.8
C3 C4 C5 118.8(3)
C3 C4 C7 120.1(3)
C5 C4 C7 121.2(3)
C6 C5 C4 120.3(4)
C6 C5 H5 119.8
C4 C5 H5 119.8
C1 C6 C5 120.4(4)
C1 C6 H6 119.8
C5 C6 H6 119.8
C8 C7 C12 117.9(3)
C8 C7 C4 120.9(3)
C12 C7 C4 121.2(3)
C9 C8 C7 121.0(3)
C9 C8 H8 119.5
C7 C8 H8 119.5
C8 C9 C10 120.5(3)
C8 C9 H9 119.8
C10 C9 H9 119.8
C11 C10 C9 118.7(3)
C11 C10 C13 119.9(3)
C9 C10 C13 121.3(3)
C10 C11 C12 120.7(3)
C10 C11 H11 119.6
C12 C11 H11 119.6
C11 C12 C7 121.1(3)
C11 C12 H12 119.4
C7 C12 H12 119.4
C22 C13 C14 116.9(3)
C22 C13 C10 121.0(3)
C14 C13 C10 122.0(3)
C15 C14 C13 124.6(3)
C15 C14 O1 118.7(3)
C13 C14 O1 116.7(3)
C14 C15 C16 117.8(3)
C14 C15 C23 120.4(2)
C16 C15 C23 121.7(3)
C17 C16 C21 118.8(3)
C17 C16 C15 122.7(3)
C21 C16 C15 118.5(3)
C18 C17 C16 120.1(3)
C18 C17 H17 119.9
C16 C17 H17 119.9
C17 C18 C19 120.9(3)
C17 C18 H18 119.6
C19 C18 H18 119.6
C20 C19 C18 120.8(3)
C20 C19 H19 119.6
C18 C19 H19 119.6
C19 C20 C21 120.4(3)
C19 C20 H20 119.8
C21 C20 H20 119.8
C22 C21 C16 120.0(3)
C22 C21 C20 121.2(3)
C16 C21 C20 118.8(3)
C13 C22 C21 122.0(3)
C13 C22 H22 119
C21 C22 H22 119
C24 C23 C32 117.6(3)
C24 C23 C15 118.8(3)
C32 C23 C15 123.5(3)
C23 C24 C25 123.7(3)
C23 C24 O2 118.3(3)
C25 C24 O2 118.0(3)
C26 C25 C24 118.1(3)
C26 C25 C33 122.2(3)
C24 C25 C33 119.6(3)
C25 C26 C27 121.6(3)
C25 C26 H26 119.2
C27 C26 H26 119.2
C28 C27 C26 121.3(3)
C28 C27 C32 119.5(3)
C26 C27 C32 119.2(3)
C29 C28 C27 121.1(4)
C29 C28 H28 119.5
C27 C28 H28 119.5
C28 C29 C30 119.7(4)
C28 C29 H29 120.1
C30 C29 H29 120.1
C31 C30 C29 121.6(3)
C31 C30 H30 119.2
C29 C30 H30 119.2
C30 C31 C32 120.1(3)
C30 C31 H31 120
C32 C31 H31 120
C27 C32 C23 119.5(3)
C27 C32 C31 118.0(3)
C23 C32 C31 122.4(3)
C38 C33 C34 117.8(3)
C38 C33 C25 122.6(3)
C34 C33 C25 119.6(3)
C35 C34 C33 120.4(3)
C35 C34 H34 119.8
C33 C34 H34 119.8
C34 C35 C36 122.2(3)
C34 C35 H35 118.9
C36 C35 H35 118.9
C37 C36 C35 116.5(3)
C37 C36 C39 123.1(3)
C35 C36 C39 120.4(3)
C36 C37 C38 121.6(3)
C36 C37 H37 119.2
C38 C37 H37 119.2
C33 C38 C37 121.3(3)
C33 C38 H38 119.3
C37 C38 H38 119.3
C40 C39 C44 116.6(3)
C40 C39 C36 121.1(3)
C44 C39 C36 122.3(3)
C39 C40 C41 121.7(4)
C39 C40 H40 119.2
C41 C40 H40 119.2
C42 C41 C40 120.9(4)
C42 C41 H41 119.6
C40 C41 H41 119.6
C43 C42 C41 118.2(3)
C43 C42 H42 120.9
C41 C42 H42 120.9
C42 C43 C44 121.3(3)
C42 C43 H43 119.4
C44 C43 H43 119.4
C39 C44 C43 121.3(4)
C39 C44 H44 119.3
C43 C44 H44 119.3
N2 C45 C46 119.9(3)
N2 C45 N1 115.6(3)
C46 C45 N1 124.4(3)
C45 C46 C47 118.6(4)
C45 C46 H46 120.7
C47 C46 H46 120.7
O4 C47 C46 120.9(4)
O4 C47 C48 120.3(4)
C46 C47 C48 118.7(4)
C49 C48 C47 120.1(4)
C49 C48 H48 119.9
C47 C48 H48 119.9
C48 C49 N2 120.9(4)
C48 C49 H49 119.6
N2 C49 H49 119.6
O4 C50A H50A 109.5
O4 C50A H50B 109.5
H50A C50A H50B 109.5
O4 C50A H50C 109.5
H50A C50A H50C 109.5
H50B C50A H50C 109.5
O4 C50B H50D 109.5
O4 C50B H50E 109.5
H50D C50B H50E 109.5
O4 C50B H50F 109.5
H50D C50B H50F 109.5
H50E C50B H50F 109.5
C45 N1 P1 126.0(3)
C45 N1 H1N 119(2)
P1 N1 H1N 114(2)
C45 N2 C49 121.7(4)
C45 N2 H2N 119.1
C49 N2 H2N 119.1
C14 O1 P1 117.90(18)
C24 O2 P1 117.59(18)
C47 O4 C50A 123.3(4)
C47 O4 C50B 133.1(10)
O3 P1 O1 119.28(14)
O3 P1 O2 110.98(13)
O1 P1 O2 104.19(11)
O3 P1 N1 114.67(14)
O1 P1 N1 97.33(13)
O2 P1 N1 109.12(13)
F103 C101 F102 108.4(4)
F103 C101 F101 106.6(4)
F102 C101 F101 108.4(4)
F103 C101 S101 111.9(3)
F102 C101 S101 111.5(3)
F101 C101 S101 110.0(4)
O102 S101 O101 115.75(18)
O102 S101 O103 115.63(18)
O101 S101 O103 112.45(18)
O102 S101 C101 104.6(2)
O101 S101 C101 103.2(2)
O103 S101 C101 103.1(2)
Cl2 C201 Cl1 113.3(4)
Cl2 C201 H20A 108.9
Cl1 C201 H20A 108.9
Cl2 C201 H20B 108.9
Cl1 C201 H20B 108.9
H20A C201 H20B 107.7
loop_
_geom_bond_atom_site_label_1
_geom_bond_atom_site_label_2
_geom_bond_distance
C1 C6 1.372(6)
C1 C2 1.380(6)
C1 H1 0.95
C2 C3 1.382(5)
C2 H2 0.95
C3 C4 1.391(5)
C3 H3 0.95
C4 C5 1.391(5)
C4 C7 1.481(5)
C5 C6 1.383(5)
C5 H5 0.95
C6 H6 0.95
C7 C8 1.388(5)
C7 C12 1.392(5)
C8 C9 1.387(5)
C8 H8 0.95
C9 C10 1.391(4)
C9 H9 0.95
C10 C11 1.380(5)
C10 C13 1.494(4)
C11 C12 1.382(5)
C11 H11 0.95
C12 H12 0.95
C13 C22 1.372(4)
C13 C14 1.413(4)
C14 C15 1.370(4)
C14 O1 1.414(3)
C15 C16 1.443(4)
C15 C23 1.494(4)
C16 C17 1.416(5)
C16 C21 1.421(5)
C17 C18 1.375(4)
C17 H17 0.95
C18 C19 1.391(5)
C18 H18 0.95
C19 C20 1.359(5)
C19 H19 0.95
C20 C21 1.426(4)
C20 H20 0.95
C21 C22 1.412(5)
C22 H22 0.95
C23 C24 1.388(4)
C23 C32 1.424(5)
C24 C25 1.404(4)
C24 O2 1.408(4)
C25 C26 1.363(5)
C25 C33 1.495(4)
C26 C27 1.422(4)
C26 H26 0.95
C27 C28 1.408(5)
C27 C32 1.424(5)
C28 C29 1.367(5)
C28 H28 0.95
C29 C30 1.400(6)
C29 H29 0.95
C30 C31 1.363(5)
C30 H30 0.95
C31 C32 1.434(4)
C31 H31 0.95
C33 C38 1.381(4)
C33 C34 1.390(5)
C34 C35 1.380(5)
C34 H34 0.95
C35 C36 1.396(4)
C35 H35 0.95
C36 C37 1.382(4)
C36 C39 1.477(4)
C37 C38 1.386(4)
C37 H37 0.95
C38 H38 0.95
C39 C40 1.373(5)
C39 C44 1.379(5)
C40 C41 1.388(6)
C40 H40 0.95
C41 C42 1.366(6)
C41 H41 0.95
C42 C43 1.355(6)
C42 H42 0.95
C43 C44 1.390(5)
C43 H43 0.95
C44 H44 0.95
C45 N2 1.350(5)
C45 C46 1.377(5)
C45 N1 1.378(4)
C46 C47 1.407(5)
C46 H46 0.95
C47 O4 1.314(5)
C47 C48 1.413(7)
C48 C49 1.318(7)
C48 H48 0.95
C49 N2 1.359(5)
C49 H49 0.95
C50A O4 1.349(9)
C50A H50A 0.98
C50A H50B 0.98
C50A H50C 0.98
C50B O4 1.350(14)
C50B H50D 0.98
C50B H50E 0.98
C50B H50F 0.98
N1 P1 1.659(3)
N1 H1N 0.93(4)
N2 H2N 0.88
O1 P1 1.583(2)
O2 P1 1.590(2)
O3 P1 1.444(3)
C101 F103 1.312(5)
C101 F102 1.324(5)
C101 F101 1.330(5)
C101 S101 1.813(5)
O101 S101 1.435(3)
O102 S101 1.421(3)
O103 S101 1.450(3)
C201 Cl2 1.610(8)
C201 Cl1 1.788(9)
C201 H20A 0.99
C201 H20B 0.99
loop_
_geom_hbond_atom_site_label_D
_geom_hbond_atom_site_label_H
_geom_hbond_atom_site_label_A
_geom_hbond_distance_DH
_geom_hbond_distance_HA
_geom_hbond_distance_DA
_geom_hbond_angle_DHA
_geom_hbond_site_symmetry_A
C46 H46 O3 0.95 2.41 3.043(4) 123.5 .
C50B H50E O101 0.98 2.61 3.370(17) 134.5 2_656
N1 H1N O101 0.93(4) 1.84(4) 2.768(4) 174(4) 1_554
N1 H1N S101 0.93(4) 2.91(4) 3.784(3) 157(3) 1_554
N2 H2N O101 0.88 2.85 3.524(4) 134.4 1_554
N2 H2N O103 0.88 1.91 2.779(5) 168.8 1_554
N2 H2N S101 0.88 2.85 3.699(4) 163.5 1_554
C201 H20B O102 0.99 2.51 3.318(7) 138.2 .
C46 H46 O3 0.95 2.41 3.043(4) 123.5 .
C50B H50E O101 0.98 2.61 3.370(17) 134.5 2_656
N1 H1N O101 0.93(4) 1.84(4) 2.768(4) 174(4) 1_554
N1 H1N S101 0.93(4) 2.91(4) 3.784(3) 157(3) 1_554
N2 H2N O101 0.88 2.85 3.524(4) 134.4 1_554
N2 H2N O103 0.88 1.91 2.779(5) 168.8 1_554
N2 H2N S101 0.88 2.85 3.699(4) 163.5 1_554
C201 H20B O102 0.99 2.51 3.318(7) 138.2 .
loop_
_geom_torsion_atom_site_label_1
_geom_torsion_atom_site_label_2
_geom_torsion_atom_site_label_3
_geom_torsion_atom_site_label_4
_geom_torsion
C6 C1 C2 C3 0.1(7)
C1 C2 C3 C4 -0.7(6)
C2 C3 C4 C5 1.7(6)
C2 C3 C4 C7 -177.8(4)
C3 C4 C5 C6 -1.9(5)
C7 C4 C5 C6 177.5(3)
C2 C1 C6 C5 -0.3(6)
C4 C5 C6 C1 1.3(6)
C3 C4 C7 C8 134.8(4)
C5 C4 C7 C8 -44.6(5)
C3 C4 C7 C12 -44.5(5)
C5 C4 C7 C12 136.0(4)
C12 C7 C8 C9 1.9(5)
C4 C7 C8 C9 -177.4(3)
C7 C8 C9 C10 -1.6(5)
C8 C9 C10 C11 -0.3(5)
C8 C9 C10 C13 -177.3(3)
C9 C10 C11 C12 2.0(5)
C13 C10 C11 C12 179.0(3)
C10 C11 C12 C7 -1.7(6)
C8 C7 C12 C11 -0.3(5)
C4 C7 C12 C11 179.0(3)
C11 C10 C13 C22 -57.6(4)
C9 C10 C13 C22 119.3(4)
C11 C10 C13 C14 123.6(3)
C9 C10 C13 C14 -59.5(4)
C22 C13 C14 C15 -1.7(5)
C10 C13 C14 C15 177.1(3)
C22 C13 C14 O1 179.1(3)
C10 C13 C14 O1 -2.0(4)
C13 C14 C15 C16 3.7(4)
O1 C14 C15 C16 -177.1(2)
C13 C14 C15 C23 -178.1(3)
O1 C14 C15 C23 1.0(4)
C14 C15 C16 C17 174.2(3)
C23 C15 C16 C17 -3.9(4)
C14 C15 C16 C21 -3.8(4)
C23 C15 C16 C21 178.1(3)
C21 C16 C17 C18 -3.8(5)
C15 C16 C17 C18 178.1(3)
C16 C17 C18 C19 0.3(5)
C17 C18 C19 C20 2.8(6)
C18 C19 C20 C21 -2.2(6)
C17 C16 C21 C22 -176.0(3)
C15 C16 C21 C22 2.1(4)
C17 C16 C21 C20 4.3(4)
C15 C16 C21 C20 -177.6(3)
C19 C20 C21 C22 179.0(3)
C19 C20 C21 C16 -1.3(5)
C14 C13 C22 C21 -0.2(5)
C10 C13 C22 C21 -179.0(3)
C16 C21 C22 C13 -0.1(5)
C20 C21 C22 C13 179.6(3)
C14 C15 C23 C24 -54.3(4)
C16 C15 C23 C24 123.8(3)
C14 C15 C23 C32 123.9(3)
C16 C15 C23 C32 -58.1(4)
C32 C23 C24 C25 5.1(4)
C15 C23 C24 C25 -176.6(3)
C32 C23 C24 O2 -174.7(2)
C15 C23 C24 O2 3.6(4)
C23 C24 C25 C26 -3.2(4)
O2 C24 C25 C26 176.6(3)
C23 C24 C25 C33 176.1(3)
O2 C24 C25 C33 -4.1(4)
C24 C25 C26 C27 -0.5(4)
C33 C25 C26 C27 -179.8(3)
C25 C26 C27 C28 -177.7(3)
C25 C26 C27 C32 2.1(4)
C26 C27 C28 C29 178.9(3)
C32 C27 C28 C29 -0.9(5)
C27 C28 C29 C30 -0.7(5)
C28 C29 C30 C31 1.1(6)
C29 C30 C31 C32 0.0(5)
C28 C27 C32 C23 179.7(3)
C26 C27 C32 C23 -0.1(4)
C28 C27 C32 C31 1.9(4)
C26 C27 C32 C31 -177.9(3)
C24 C23 C32 C27 -3.3(4)
C15 C23 C32 C27 178.5(3)
C24 C23 C32 C31 174.3(3)
C15 C23 C32 C31 -3.8(4)
C30 C31 C32 C27 -1.5(5)
C30 C31 C32 C23 -179.3(3)
C26 C25 C33 C38 -59.4(4)
C24 C25 C33 C38 121.3(3)
C26 C25 C33 C34 121.9(4)
C24 C25 C33 C34 -57.4(4)
C38 C33 C34 C35 -0.3(6)
C25 C33 C34 C35 178.4(4)
C33 C34 C35 C36 -2.1(7)
C34 C35 C36 C37 3.8(6)
C34 C35 C36 C39 -174.8(4)
C35 C36 C37 C38 -3.2(5)
C39 C36 C37 C38 175.4(3)
C34 C33 C38 C37 0.9(5)
C25 C33 C38 C37 -177.8(3)
C36 C37 C38 C33 0.9(5)
C37 C36 C39 C40 -166.7(4)
C35 C36 C39 C40 11.7(6)
C37 C36 C39 C44 12.9(5)
C35 C36 C39 C44 -168.6(4)
C44 C39 C40 C41 -2.6(7)
C36 C39 C40 C41 177.1(5)
C39 C40 C41 C42 1.3(9)
C40 C41 C42 C43 0.0(8)
C41 C42 C43 C44 0.1(7)
C40 C39 C44 C43 2.7(6)
C36 C39 C44 C43 -176.9(4)
C42 C43 C44 C39 -1.5(7)
N2 C45 C46 C47 1.0(5)
N1 C45 C46 C47 -179.8(3)
C45 C46 C47 O4 178.6(4)
C45 C46 C47 C48 -0.8(5)
O4 C47 C48 C49 -179.6(4)
C46 C47 C48 C49 -0.2(6)
C47 C48 C49 N2 1.1(7)
N2 C45 N1 P1 177.5(2)
C46 C45 N1 P1 -1.8(5)
C46 C45 N2 C49 -0.1(5)
N1 C45 N2 C49 -179.4(3)
C48 C49 N2 C45 -1.0(6)
C15 C14 O1 P1 73.2(3)
C13 C14 O1 P1 -107.6(3)
C23 C24 O2 P1 73.6(3)
C25 C24 O2 P1 -106.2(3)
C46 C47 O4 C50A -2.9(7)
C48 C47 O4 C50A 176.6(5)
C46 C47 O4 C50B -176.4(10)
C48 C47 O4 C50B 3.0(12)
C14 O1 P1 O3 81.2(2)
C14 O1 P1 O2 -43.2(2)
C14 O1 P1 N1 -155.1(2)
C24 O2 P1 O3 -178.35(19)
C24 O2 P1 O1 -48.8(2)
C24 O2 P1 N1 54.4(2)
C45 N1 P1 O3 -35.5(3)
C45 N1 P1 O1 -162.5(3)
C45 N1 P1 O2 89.7(3)
F103 C101 S101 O102 -57.3(4)
F102 C101 S101 O102 64.1(4)
F101 C101 S101 O102 -175.6(3)
F103 C101 S101 O101 -178.8(3)
F102 C101 S101 O101 -57.3(4)
F101 C101 S101 O101 62.9(3)
F103 C101 S101 O103 64.0(4)
F102 C101 S101 O103 -174.5(3)
F101 C101 S101 O103 -54.3(3)
