#------------------------------------------------------------------------------
#$Date: 2016-04-28 05:18:44 +0300 (Thu, 28 Apr 2016) $
#$Revision: 182315 $
#$URL: svn://www.crystallography.net/cod/cif/1/54/31/1543175.cif $
#------------------------------------------------------------------------------
#
# This file is available in the Crystallography Open Database (COD),
# http://www.crystallography.net/. The original data for this entry
# were provided by IUCr Journals, http://journals.iucr.org/.
#
# The file may be used within the scientific community so long as
# proper attribution is given to the journal article from which the
# data were obtained.
#
data_1543175
loop_
_publ_author_name
'Mohamed, Shaaban K.'
'Mague, Joel T.'
'Akkurt, Mehmet'
'Bakhite, Etify A.'
'Albayati, Mustafa R.'
_publ_section_title
;
 3-Phenoxymethyl-6-phenyl-1,2,4-triazolo[3,4-<i>b</i>][1,3,4]thiadiazole
;
_journal_coeditor_code           SU4033
_journal_issue                   4
_journal_name_full               IUCrData
_journal_page_first              x160626
_journal_paper_doi               10.1107/S241431461600626X
_journal_volume                  1
_journal_year                    2016
_chemical_formula_iupac          'C16 H12 N4 O S'
_chemical_formula_moiety         'C16 H12 N4 O S'
_chemical_formula_sum            'C16 H12 N4 O S'
_chemical_formula_weight         308.36
_chemical_name_systematic
;
3-Phenoxymethyl-6-phenyl-1,2,4-triazolo[3,4-<i>b</i>][1,3,4]thiadiazole
;
_space_group_crystal_system      monoclinic
_space_group_IT_number           14
_space_group_name_Hall           '-P 2ybc'
_space_group_name_H-M_alt        'P 1 21/c 1'
_symmetry_space_group_name_Hall  '-P 2ybc'
_symmetry_space_group_name_H-M   'P 1 21/c 1'
_atom_sites_solution_hydrogens   geom
_atom_sites_solution_primary     direct
_atom_sites_solution_secondary   difmap
_audit_creation_method           SHELXL-2014/7
_cell_angle_alpha                90
_cell_angle_beta                 100.423(2)
_cell_angle_gamma                90
_cell_formula_units_Z            4
_cell_length_a                   5.9850(3)
_cell_length_b                   21.0709(10)
_cell_length_c                   11.5617(5)
_cell_measurement_reflns_used    7818
_cell_measurement_temperature    150(2)
_cell_measurement_theta_max      72.5423
_cell_measurement_theta_min      4.1963
_cell_volume                     1433.98(12)
_computing_cell_refinement
;
<i>SAINT</i> (Bruker, 2016)
;
_computing_data_collection
;
<i>APEX3</i> (Bruker, 2016)
;
_computing_data_reduction
;
<i>SAINT</i>  (Bruker, 2016)
;
_computing_molecular_graphics
;
<i>DIAMOND</i> (Brandenburg & Putz, 2012)
;
_computing_publication_material
;
<i>SHELXTL</i> (Sheldrick, 2008)
;
_computing_structure_refinement
;
<i>SHELXL2014</i> (Sheldrick, 2015b)
;
_computing_structure_solution
;
<i>SHELXT</i> (Sheldrick, 2015a)
;
_diffrn_ambient_temperature      150(2)
_diffrn_detector_area_resol_mean 10.4167
_diffrn_measured_fraction_theta_full 0.990
_diffrn_measured_fraction_theta_max 0.980
_diffrn_measurement_device_type  'Bruker D8 VENTURE PHOTON 100 CMOS'
_diffrn_measurement_method       '\w scans'
_diffrn_radiation_monochromator  mirror
_diffrn_radiation_type           CuK\a
_diffrn_radiation_wavelength     1.54178
_diffrn_reflns_av_R_equivalents  0.0376
_diffrn_reflns_limit_h_max       6
_diffrn_reflns_limit_h_min       -7
_diffrn_reflns_limit_k_max       25
_diffrn_reflns_limit_k_min       -22
_diffrn_reflns_limit_l_max       14
_diffrn_reflns_limit_l_min       -14
_diffrn_reflns_number            10736
_diffrn_reflns_theta_full        69.500
_diffrn_reflns_theta_max         72.535
_diffrn_reflns_theta_min         4.196
_exptl_absorpt_coefficient_mu    2.068
_exptl_absorpt_correction_T_max  0.97
_exptl_absorpt_correction_T_min  0.79
_exptl_absorpt_correction_type   multi-scan
_exptl_absorpt_process_details
;
(<i>SADABS</i>; Bruker, 2016)
;
_exptl_crystal_colour            colourless
_exptl_crystal_density_diffrn    1.428
_exptl_crystal_density_method    'not measured'
_exptl_crystal_description       plate
_exptl_crystal_F_000             640
_exptl_crystal_size_max          0.301
_exptl_crystal_size_mid          0.158
_exptl_crystal_size_min          0.016
_refine_diff_density_max         0.199
_refine_diff_density_min         -0.301
_refine_ls_extinction_method     none
_refine_ls_goodness_of_fit_ref   1.030
_refine_ls_hydrogen_treatment    constr
_refine_ls_matrix_type           full
_refine_ls_number_parameters     199
_refine_ls_number_reflns         2799
_refine_ls_number_restraints     0
_refine_ls_restrained_S_all      1.030
_refine_ls_R_factor_all          0.0407
_refine_ls_R_factor_gt           0.0351
_refine_ls_shift/su_max          0.002
_refine_ls_shift/su_mean         0.000
_refine_ls_structure_factor_coef Fsqd
_refine_ls_weighting_details
'w=1/[\s^2^(Fo^2^)+(0.0407P)^2^+0.5423P] where P=(Fo^2^+2Fc^2^)/3'
_refine_ls_weighting_scheme      calc
_refine_ls_wR_factor_gt          0.0856
_refine_ls_wR_factor_ref         0.0889
_reflns_number_gt                2464
_reflns_number_total             2799
_reflns_threshold_expression     'I > 2\s(I)'
_cod_data_source_file            su4033sup1.cif
_cod_data_source_block           I
_cod_database_code               1543175
_shelx_space_group_comment
;
The symmetry employed for this shelxl refinement is uniquely defined
by the following loop, which should always be used as a source of
symmetry information in preference to the above space-group names.
They are only intended as comments.
;
_shelx_estimated_absorpt_t_min   0.575
_shelx_estimated_absorpt_t_max   0.968
_shelx_hkl_file
;
   1   0   0  175.13    8.07
   2   0   0  206.84    9.25
   2   0   0  194.50    9.24
   3   0   0  114.57    5.46
   3   0   0  123.15    5.51
   3   0   0  117.11    5.48
   4   0   0   42.17    1.98
  -4   0   0   42.38    2.12
  -4   0   0   41.04    2.02
   5   0   0    2.58    0.25
  -5   0   0    1.71    0.34
  -6   0   0    2.65    0.32
   6   0   0    1.97    0.26
  -7   0   0   10.78    0.56
   0   1   0    0.02    0.02
   1  -1   0    4.24    0.23
   1   1   0    4.12    0.21
   1   1   0    3.89    0.20
   2  -1   0    0.40    0.09
   2  -1   0    0.52    0.16
   2   1   0    0.76    0.12
   2   1   0    0.58    0.14
   3  -1   0    1.37    0.31
   3  -1   0    1.41    0.40
   3   1   0    1.51    0.17
   3   1   0    1.17    0.35
   3   1   0    1.63    0.27
  -4  -1   0    3.86    0.40
   4  -1   0    3.80    0.27
  -4   1   0    3.08    0.56
   4   1   0    3.73    0.27
  -4   1   0    4.17    0.36
   5  -1   0    1.57    0.24
  -5  -1   0    1.46    0.33
   5   1   0    1.94    0.24
  -5   1   0    1.00    0.26
  -5   1   0    1.08    0.34
   6  -1   0    9.72    0.55
  -6  -1   0   10.11    0.59
   6   1   0   10.08    0.55
  -6   1   0    9.63    0.58
  -7  -1   0    0.62    0.18
  -7   1   0    0.43    0.14
   0  -2   0  359.93   15.61
   0   2   0  318.21   15.60
   1  -2   0  642.40   29.61
   2   2   0    1.31    0.14
   3  -2   0  148.40    6.81
   3  -2   0  148.47    6.78
   3   2   0  141.00    6.73
  -4  -2   0   17.55    0.93
   4  -2   0   17.25    0.86
  -4   2   0   16.74    0.96
   4   2   0   17.24    0.86
  -4   2   0   17.76    0.91
  -5  -2   0   51.16    2.44
   5  -2   0   53.02    2.41
  -5   2   0   50.42    2.43
  -5   2   0   47.72    2.42
   5   2   0   51.84    2.41
  -6  -2   0   34.38    1.49
   6  -2   0   27.46    1.44
   6   2   0   25.96    1.43
  -6   2   0   31.33    1.46
  -7  -2   0    1.38    0.21
  -7   2   0    1.51    0.20
   0  -3   0    0.01    0.03
   0   3   0    0.05    0.04
   1  -3   0    0.78    0.12
   2  -3   0    1.99    0.23
   3  -3   0    1.48    0.39
   3  -3   0    1.40    0.36
   3   3   0    1.86    0.18
   4  -3   0   12.77    0.66
  -4  -3   0   12.96    0.74
   4   3   0   12.42    0.65
  -4   3   0   12.07    0.75
  -4   3   0   12.88    0.71
   5  -3   0   13.16    0.65
  -5  -3   0   11.63    0.70
  -5   3   0   11.33    0.70
  -5   3   0   10.32    0.68
   5   3   0   12.97    0.65
   6  -3   0    7.49    0.45
  -6   3   0    7.00    0.51
   6   3   0    7.56    0.45
  -7  -3   0    0.06    0.16
  -7   3   0    0.20    0.13
   0  -4   0  113.02    5.01
   0   4   0  104.49    5.01
   1  -4   0  146.97    6.79
   2  -4   0    1.56    0.23
   3  -4   0  102.83    4.94
   3  -4   0  105.10    4.89
   3   4   0  104.60    4.82
  -4  -4   0    1.79    0.40
   4   4   0    1.16    0.20
  -4   4   0    1.62    0.38
   5  -4   0    1.02    0.21
  -5  -4   0    0.61    0.27
   5   4   0    0.78    0.23
  -5   4   0    0.80    0.26
  -5   4   0    0.55    0.22
   6  -4   0    2.58    0.26
  -6  -4   0    2.50    0.32
  -6   4   0    2.46    0.33
  -6   4   0    2.26    0.31
   6   4   0    2.00    0.27
  -7  -4   0   -0.05    0.15
  -7   4   0    0.52    0.27
   0  -5   0   -0.08    0.05
   0   5   0    0.01    0.05
   1  -5   0   54.90    2.60
   2  -5   0   52.96    2.45
  -2   5   0   49.67    2.39
   3  -5   0   43.71    2.10
   3   5   0   41.26    1.99
  -4  -5   0   11.82    0.73
   4   5   0   10.15    0.81
   4   5   0   11.60    0.61
  -4   5   0   12.25    0.67
  -4   5   0   12.21    0.69
  -5  -5   0   28.31    1.41
  -5   5   0   27.25    1.39
  -5   5   0   28.36    1.38
   6  -5   0   11.37    0.59
  -6  -5   0   10.86    0.62
  -6   5   0    9.71    0.59
  -6   5   0   10.59    0.59
   6   5   0   10.29    0.59
  -7  -5   0    3.08    0.29
  -7   5   0    3.90    0.27
   0  -6   0   36.56    1.72
   1  -6   0    1.37    0.17
   2  -6   0    6.08    0.41
  -2   6   0    5.52    0.33
   2   6   0    5.47    0.33
   3  -6   0   13.97    0.92
  -3   6   0   14.43    0.76
   3   6   0   14.85    0.72
  -4  -6   0    5.34    0.53
   4   6   0    6.11    0.37
   4   6   0    5.94    0.53
  -4   6   0    5.87    0.43
  -4   6   0    5.46    0.45
   5  -6   0    0.93    0.23
  -5  -6   0    1.82    0.38
  -5   6   0    1.22    0.25
  -5   6   0    1.08    0.31
   5   6   0    0.95    0.24
   6  -6   0    4.27    0.33
  -6  -6   0    4.51    0.39
  -6   6   0    4.62    0.34
   6   6   0    4.34    0.34
  -6   6   0    4.33    0.34
  -7  -6   0    4.88    0.38
  -7   6   0    4.89    0.31
   0  -7   0   -0.10    0.08
  -1  -7   0   12.23    0.62
   1  -7   0   13.05    0.67
   2  -7   0    5.98    0.46
  -2   7   0    6.68    0.37
   2   7   0    6.31    0.36
   3  -7   0   21.93    1.24
  -3   7   0   22.25    1.04
   3   7   0   20.92    1.04
  -3   7   0   19.01    1.06
  -4  -7   0   17.34    0.98
   4   7   0   17.22    0.87
   4   7   0   17.44    0.92
  -4   7   0   17.96    0.92
  -4   7   0   16.72    0.90
   4   7   0   16.64    0.99
  -5  -7   0    5.50    0.48
   5  -7   0    5.13    0.37
  -5   7   0    5.04    0.43
  -5   7   0    5.47    0.41
   5   7   0    4.82    0.37
   6  -7   0   10.72    0.57
  -6  -7   0    9.99    0.59
   6   7   0    9.69    0.59
  -6   7   0    9.87    0.55
  -6   7   0   10.11    0.57
  -7   7   0    3.44    0.26
   0  -8   0   33.96    1.62
   1  -8   0   18.72    0.92
  -1  -8   0   17.99    0.87
  -1   8   0   16.87    0.87
  -2   8   0    0.72    0.18
   2   8   0    0.85    0.17
  -3   8   0   31.58    1.58
  -3   8   0   28.70    1.53
   3   8   0   36.65    1.64
   3   8   0   31.46    1.51
   3   8   0   29.86    1.54
  -3   8   0   32.63    1.53
  -4  -8   0   17.20    1.00
   4   8   0   16.93    0.92
   4   8   0   16.19    0.96
  -4   8   0   18.05    0.93
   4   8   0   18.66    0.89
  -5  -8   0    0.34    0.30
   5  -8   0    0.17    0.18
  -5   8   0    0.06    0.22
   5   8   0   -0.06    0.17
  -5   8   0    0.42    0.21
   5   8   0    0.45    0.28
   6  -8   0    5.90    0.38
  -6  -8   0    5.15    0.44
   6   8   0    5.57    0.41
  -6   8   0    5.78    0.39
  -6   8   0    5.86    0.37
   0  -9   0   -0.09    0.14
   0   9   0    0.27    0.14
   1  -9   0   92.56    4.17
  -1  -9   0   91.05    4.11
  -1   9   0   86.16    4.11
   1   9   0   84.92    4.10
   2   9   0   16.50    0.84
  -2   9   0   17.55    0.84
   3   9   0    6.28    0.47
  -3   9   0    6.52    0.44
   3   9   0    6.05    0.37
  -3   9   0    6.39    0.39
  -3   9   0    5.92    0.54
   3   9   0    5.97    0.46
  -4  -9   0   20.17    1.14
   4   9   0   22.44    1.04
  -4   9   0   20.68    1.05
   4   9   0   19.42    1.18
   4   9   0   21.04    1.12
  -4   9   0   21.03    1.08
   5  -9   0    0.23    0.17
  -5  -9   0    0.87    0.34
   5   9   0    0.14    0.19
   5   9   0    0.15    0.27
  -5   9   0    0.35    0.22
  -5   9   0    0.57    0.22
  -6  -9   0    8.67    0.57
   6   9   0    8.86    0.56
  -6   9   0    9.29    0.52
  -6   9   0    9.40    0.50
   0 -10   0   26.58    1.30
   0  10   0   25.08    1.23
  -1 -10   0    4.29    0.37
   1 -10   0    4.30    0.46
  -1  10   0    4.32    0.29
   1  10   0    4.95    0.30
   2  10   0   25.45    1.22
  -2  10   0   25.24    1.23
  -3  10   0   68.74    3.27
   3  10   0   71.23    3.27
   3  10   0   69.24    3.28
   3  10   0   71.65    3.26
  -3  10   0   64.46    3.29
  -3  10   0   73.70    3.28
  -4 -10   0   14.79    0.93
   4  10   0   13.95    0.83
   4  10   0   15.74    0.79
   4  10   0   16.25    0.81
  -4  10   0   14.64    0.84
  -4  10   0   14.75    0.79
  -5 -10   0    5.64    0.53
   5 -10   0    4.15    0.34
   5  10   0    4.00    0.35
  -5  10   0    4.71    0.38
   5  10   0    4.06    0.58
   5  10   0    4.29    0.42
  -5  10   0    4.27    0.41
   6 -10   0    4.77    0.34
  -6  10   0    4.66    0.31
  -6  10   0    4.79    0.37
   6  10   0    4.62    0.46
   0 -11   0   -0.22    0.26
   0  11   0    0.13    0.13
  -1 -11   0    4.84    0.41
  -1 -11   0    4.56    0.57
   1  11   0    5.58    0.33
  -1  11   0    6.04    0.33
  -2  11   0   16.11    0.89
   2  11   0   16.50    0.86
  -2  11   0   16.48    0.82
   2  11   0   16.17    0.85
   3  11   0    2.92    0.31
   3  11   0    2.39    0.35
  -3  11   0    2.61    0.31
  -3  11   0    2.53    0.26
   3  11   0    2.61    0.27
  -3  11   0    2.06    0.48
  -4 -11   0   21.91    1.36
   4  11   0   26.64    1.24
  -4  11   0   24.53    1.28
   4  11   0   25.15    1.26
   4  11   0   27.40    1.25
  -4  11   0   25.08    1.24
   5 -11   0    0.61    0.20
  -5  11   0    0.66    0.18
   5  11   0    0.54    0.23
   5  11   0    1.55    0.32
  -5  11   0    1.14    0.37
   6 -11   0    1.16    0.23
  -6  11   0    1.45    0.21
  -6  11   0    0.96    0.21
   0 -12   0   63.66    3.26
   0  12   0   71.77    3.16
  -1 -12   0   20.03    1.23
  -1  12   0   22.38    1.06
   1  12   0   22.22    1.05
  -2  12   0    1.70    0.23
  -2  12   0    1.62    0.35
   2  12   0    2.33    0.31
   2  12   0    1.71    0.24
   2  12   0    2.68    0.33
  -3  12   0   47.98    2.28
   3  12   0   50.10    2.28
   3  12   0   51.01    2.28
   3  12   0   50.58    2.27
  -3  12   0   41.67    2.32
  -3  12   0   46.04    2.27
   4  12   0    2.20    0.35
  -4  12   0    2.24    0.31
  -4  12   0    1.97    0.45
   4  12   0    2.75    0.32
   5 -12   0    7.75    0.49
   5  12   0    8.63    0.59
   5  12   0    8.05    0.50
  -5  12   0    7.96    0.56
   5  12   0    7.68    0.53
  -5  12   0    8.94    0.49
   6 -12   0    0.86    0.23
  -6  12   0    0.75    0.18
  -6  12   0    1.02    0.29
   0  13   0    0.01    0.13
   1  13   0    8.91    0.54
  -1  13   0    8.71    0.48
   1  13   0    8.63    0.48
   1  13   0    8.67    0.56
   2  13   0    5.23    0.42
   2  13   0    6.33    0.42
  -2  13   0    5.33    0.46
   2  13   0    5.71    0.38
  -2  13   0    5.60    0.37
  -3  13   0    8.30    1.13
  -3  13   0    9.94    0.57
   3  13   0   11.02    0.59
   3  13   0   10.29    0.57
   3  13   0    9.57    0.59
  -3  13   0    9.90    0.59
  -4  13   0    1.18    0.29
   4  13   0    0.71    0.25
  -4  13   0    0.57    0.36
   4  13   0    0.82    0.25
   4  13   0    0.58    0.19
   5 -13   0    2.00    0.25
  -5  13   0    1.86    0.37
   5  13   0    2.19    0.37
   5  13   0    1.90    0.26
  -5  13   0    1.62    0.23
   5  13   0    1.92    0.36
   6 -13   0    0.52    0.19
  -6  13   0    0.35    0.11
   0 -14   0   57.93    3.12
   0  14   0   66.21    2.90
   0  14   0   60.97    2.91
   1  14   0    1.37    0.25
   1  14   0    1.20    0.26
  -1  14   0    0.78    0.18
   1  14   0    0.88    0.20
  -2  14   0   56.85    2.64
   2  14   0   56.75    2.63
   2  14   0   56.82    2.64
   2  14   0   55.44    2.63
  -2  14   0   53.53    2.64
   3  14   0   26.66    1.31
  -3  14   0   26.49    1.32
   3  14   0   28.54    1.33
  -3  14   0   26.55    1.33
   3  14   0   25.59    1.32
   4  14   0    5.35    0.42
   4  14   0    5.33    0.39
   4  14   0    4.82    0.42
  -4  14   0    5.54    0.58
  -4  14   0    5.29    0.39
   5 -14   0   16.23    0.81
   5  14   0   16.53    0.78
   5  14   0   14.82    0.81
  -5  14   0   14.07    0.86
   5  14   0   14.80    0.84
  -5  14   0   16.64    0.78
  -6  14   0    5.36    0.31
   0  15   0    0.06    0.15
   0  15   0    0.12    0.26
   0  15   0    0.69    0.34
   1  15   0    6.74    0.42
   1  15   0    7.47    0.49
  -1  15   0    6.46    0.43
   1  15   0    7.36    0.47
   2  15   0    2.71    0.30
   2  15   0    3.35    0.32
   2  15   0    3.20    0.32
  -2  15   0    2.76    0.29
  -2  15   0    3.00    0.38
   3  15   0   12.07    0.67
  -3  15   0   13.00    0.74
   3  15   0   12.93    0.70
  -3  15   0   13.13    0.70
   3  15   0   12.13    0.70
   4  15   0    6.70    0.47
   4  15   0    6.50    0.47
  -4  15   0    7.28    0.44
   4  15   0    7.01    0.44
   5  15   0    5.39    0.41
   5  15   0    5.83    0.35
  -5  15   0    6.54    0.36
   0  16   0   25.31    1.50
   0  16   0   30.68    1.39
   0  16   0   29.30    1.41
   1  16   0    0.13    0.19
  -1  16   0    0.03    0.17
   1  16   0    0.27    0.21
  -2  16   0   -0.02    0.19
  -2  16   0    0.36    0.27
   2  16   0    0.18    0.18
   2  16   0    0.00    0.19
   2  16   0   -0.14    0.20
  -3  16   0   12.50    0.73
   3  16   0   14.19    0.73
  -3  16   0   13.91    0.74
   3  16   0   13.00    0.74
   3  16   0   14.04    0.72
   4  16   0    4.39    0.43
   4  16   0    5.11    0.36
   4  16   0    5.04    0.41
  -4  16   0    5.43    0.40
   5 -16   0    4.73    0.35
   5  16   0    4.88    0.37
   5  16   0    5.03    0.31
  -5  16   0    5.50    0.31
   0  17   0   -0.13    0.19
   0  17   0    0.15    0.25
   1  17   0   23.98    1.19
   1  17   0   23.45    1.19
   1  17   0   24.91    1.19
  -1  17   0   23.74    1.19
  -2  17   0    2.41    0.45
  -2  17   0    2.48    0.30
   2  17   0    2.64    0.31
   2  17   0    2.76    0.33
   2  17   0    2.28    0.29
  -3  17   0   15.54    0.86
   3  17   0   16.89    0.87
  -3  17   0   17.81    0.87
   3  17   0   15.79    0.88
   3  17   0   17.12    0.85
   4  17   0    0.78    0.19
   4  17   0    0.90    0.25
   4  17   0    1.24    0.35
  -4  17   0    1.20    0.26
   5 -17   0    0.27    0.18
   5  17   0    0.61    0.19
  -5  17   0    0.69    0.16
   5  17   0    0.32    0.11
   0  18   0   21.99    1.13
   0  18   0   22.62    1.11
   1  18   0    4.15    0.38
   1  18   0    4.39    0.35
  -1  18   0    4.51    0.34
   1  18   0    4.16    0.36
   2  18   0    2.26    0.28
  -2  18   0    2.38    0.42
  -2  18   0    2.11    0.29
   2  18   0    1.89    0.33
   2  18   0    2.71    0.30
   3  18   0    1.70    0.27
   3  18   0    2.26    0.34
  -3  18   0    1.91    0.28
   3  18   0    1.95    0.25
  -3  18   0    1.67    0.31
   4  18   0    0.08    0.11
   4  18   0   -0.05    0.15
  -4  18   0    0.14    0.15
  -5  18   0    1.37    0.17
   5  18   0    1.03    0.20
   0  19   0    0.20    0.24
   0  19   0   -0.17    0.20
   1  19   0    0.35    0.23
  -1  19   0    0.20    0.21
   1  19   0    0.19    0.21
   1  19   0   -0.32    0.20
   2  19   0    4.97    0.41
   2  19   0    6.30    0.39
  -2  19   0    5.25    0.41
   2  19   0    5.87    0.40
   3  19   0    0.92    0.22
   3  19   0    0.69    0.29
   3  19   0    1.26    0.37
  -3  19   0    0.76    0.21
  -3  19   0    0.79    0.21
  -4  19   0    6.50    0.39
   4  19   0    5.78    0.38
   4  19   0    6.28    0.35
   0  20   0    0.49    0.24
   0  20   0    0.44    0.22
   1  20   0    4.67    0.42
   1  20   0    6.45    0.42
  -1  20   0    5.57    0.40
   1  20   0    5.89    0.42
  -2  20   0    0.37    0.19
   2  20   0    0.39    0.17
   2  20   0    0.42    0.26
   2  20   0    0.24    0.18
   3  20   0    1.81    0.24
  -3  20   0    1.47    0.28
  -3  20   0    1.85    0.31
   3  20   0    1.90    0.20
   3  20   0    1.40    0.49
   4  20   0    0.64    0.13
   4  20   0    0.59    0.15
   0  21   0    0.00    0.34
   0  21   0    0.32    0.22
   1  21   0    9.77    0.60
   1  21   0    9.91    0.56
  -1  21   0    9.65    0.58
   1  21   0   10.78    0.59
   2  21   0    5.30    0.34
   2  21   0    5.41    0.37
   2  21   0    5.09    0.46
   3  21   0   10.93    0.55
   3  21   0   10.45    0.57
   4  21   0    2.93    0.23
  -4  21   0    3.57    0.45
   0  22   0    5.02    0.42
   0  22   0    4.83    0.42
  -1  22   0   -0.03    0.24
   1  22   0    0.13    0.18
   1  22   0   -0.05    0.26
   1  22   0    0.00    0.19
  -2  22   0    2.03    0.31
   2  22   0    2.22    0.25
   2  22   0    1.98    0.22
   3  22   0    4.49    0.28
   3  22   0    4.02    0.26
   0  23   0   -0.31    0.24
   0  23   0   -0.21    0.29
   1  23   0    9.54    0.53
   1  23   0    8.90    0.66
  -1  23   0   10.51    0.59
   2  23   0    3.46    0.25
   2  23   0    3.20    0.26
  -2  23   0    3.14    0.40
   3  23   0    4.43    0.34
  -1  24   0    0.87    0.42
   1  24   0    2.01    0.25
   2  24   0    2.82    0.25
   1  25   0   -0.01    0.19
  -7   0   1    0.07    0.13
  -6   0   1   -0.30    0.20
   6   0  -1    0.38    0.19
   5   0  -1   -0.03    0.15
  -5   0   1    0.16    0.35
  -5   0   1    0.19    0.20
  -4   0   1   -0.11    0.23
  -4   0   1   -0.09    0.34
   4   0  -1   -0.12    0.13
   3   0  -1    0.08    0.12
   3   0  -1   -0.02    0.19
   3   0  -1    0.07    0.16
   2   0  -1   -0.01    0.07
   1   0  -1   -0.08    0.04
  -1   0   1    0.00    0.04
   0   0   1    0.06    0.03
   0   0  -1    0.08    0.03
  -1   0  -1   -0.02    0.04
   1   0   1    0.05    0.05
   2   0   1    0.07    0.08
   3   0   1    0.10    0.10
   3   0   1    0.25    0.28
   3   0   1    0.19    0.18
  -4   0  -1   -0.07    0.22
   4   0   1    0.14    0.13
  -5   0  -1   -0.15    0.21
   5   0   1   -0.10    0.15
   6   0   1    0.18    0.15
  -6   0  -1    0.10    0.20
  -7   0  -1    0.88    0.22
  -7  -1   1    8.09    0.45
  -7   1   1    8.08    0.45
  -6  -1   1   13.95    0.73
   6  -1  -1   12.35    0.69
   6   1  -1   11.84    0.68
  -6   1   1   13.60    0.71
   5  -1  -1    4.30    0.33
  -5  -1   1    4.10    0.39
   5   1  -1    4.73    0.34
  -5   1   1    4.37    0.39
  -5   1   1    4.44    0.50
  -4  -1   1   11.97    0.68
   4  -1  -1   11.84    0.60
  -4   1   1   10.51    0.72
  -4   1   1   11.43    0.67
   4   1  -1   11.28    0.60
   3  -1  -1   39.75    1.92
   3  -1  -1   41.73    1.94
   3   1  -1   38.61    1.90
   3   1  -1   40.93    1.90
   3   1  -1   39.57    1.88
   2  -1  -1    4.66    0.28
   2   1  -1    4.27    0.25
   1  -1  -1  106.81    4.94
  -1  -1   1  107.97    4.93
  -1   1   1  104.05    4.94
   1   1  -1  110.13    4.93
   0  -1  -1   72.57    3.19
   0  -1   1   66.60    3.18
   0   1  -1   71.06    3.18
   0   1   1   66.30    3.18
  -1  -1  -1    7.52    0.37
   1  -1   1    7.53    0.38
   1   1   1    7.53    0.37
   2  -1   1  123.50    5.60
   2  -1   1  119.20    5.65
   2   1   1  120.48    5.59
   3  -1   1    1.35    0.34
   3  -1   1    0.74    0.32
   3  -1   1    1.14    0.15
   3   1   1    1.02    0.29
   3   1   1    1.13    0.15
   3   1   1    0.94    0.20
  -4  -1  -1   57.01    2.68
   4  -1   1   58.10    2.65
  -4   1  -1   50.47    2.69
  -4   1  -1   57.97    2.68
   4   1   1   58.45    2.65
   5  -1   1    1.77    0.23
  -5  -1  -1    1.85    0.36
  -5   1  -1    2.45    0.32
   5   1   1    1.47    0.22
  -6  -1  -1    1.09    0.22
   6  -1   1    0.77    0.21
   6   1   1    0.75    0.18
  -6   1  -1    1.06    0.27
  -7  -1  -1   18.58    0.92
  -7   1  -1   18.99    0.92
  -7  -2   1    2.24    0.24
  -7   2   1    2.46    0.22
  -6  -2   1   10.19    0.57
   6  -2  -1    9.20    0.53
  -6   2   1    8.82    0.62
  -6   2   1   10.03    0.55
   6   2  -1    8.19    0.53
   5  -2  -1    2.39    0.27
  -5  -2   1    2.21    0.34
   5   2  -1    2.07    0.25
  -5   2   1    1.85    0.33
  -5   2   1    2.69    0.42
   4  -2  -1    0.11    0.14
  -4  -2   1   -0.07    0.24
  -4   2   1   -0.11    0.28
   4   2  -1    0.10    0.14
  -4   2   1   -0.16    0.23
   3  -2  -1   28.07    1.40
   3   2  -1   26.53    1.29
   2  -2  -1   27.58    1.33
   1  -2  -1    3.41    0.20
  -1   2   1    3.23    0.21
   0  -2   1    6.88    0.34
   0  -2  -1    7.21    0.34
   0   2  -1    6.89    0.34
   0   2   1    6.70    0.34
  -1  -2  -1  105.92    4.80
   1  -2   1  103.09    4.82
   1   2   1  103.94    4.80
   2  -2   1   19.70    0.97
   2  -2   1   20.80    0.98
   2   2   1   18.71    0.94
   3  -2   1  118.46    5.50
   3  -2   1  117.69    5.44
   3   2   1  117.35    5.39
   3   2   1  113.36    5.41
   4  -2   1    0.67    0.17
  -4  -2  -1    1.20    0.33
   4   2   1    0.69    0.17
  -4   2  -1    1.20    0.31
  -4   2  -1    1.35    0.34
   5  -2   1   45.50    2.09
  -5  -2  -1   43.29    2.10
   5   2   1   46.18    2.09
  -5   2  -1   40.37    2.08
  -5   2  -1   41.38    2.08
   6  -2   1    0.27    0.16
  -6  -2  -1   -0.09    0.19
   6   2   1    0.21    0.16
  -6   2  -1    0.28    0.18
  -7  -2  -1    2.24    0.26
  -7   2  -1    2.20    0.23
  -7  -3   1    1.29    0.22
  -7   3   1    1.43    0.19
   6  -3  -1    4.27    0.34
  -6  -3   1    4.58    0.39
  -6   3   1    4.50    0.37
   6   3  -1    4.71    0.36
  -6   3   1    4.29    0.42
  -5  -3   1   56.81    2.64
   5  -3  -1   55.22    2.61
   5   3  -1   56.03    2.60
  -5   3   1   54.40    2.63
  -5   3   1   53.64    2.62
  -4  -3   1    9.59    0.65
  -4   3   1   10.52    0.66
  -4   3   1   10.65    0.62
   4   3  -1   11.07    0.56
   3  -3  -1  114.95    5.42
   3   3  -1  116.35    5.34
   2  -3  -1   22.07    1.09
   1  -3  -1  108.26    4.87
  -1   3   1  102.48    4.87
   0  -3   1   34.04    1.56
   0  -3  -1   34.70    1.57
   0   3   1   32.00    1.56
   1  -3   1  519.03   24.58
  -1  -3  -1  537.46   24.49
   1   3   1  543.44   24.50
   2  -3   1   94.81    4.17
   2  -3   1   86.74    4.14
   2   3   1   85.37    4.11
   3  -3   1   21.19    1.11
   3  -3   1   20.98    1.24
   3   3   1   20.24    1.00
  -4  -3  -1    2.89    0.38
   4  -3   1    2.95    0.24
   4   3   1    2.68    0.23
  -4   3  -1    2.67    0.36
  -4   3  -1    2.54    0.44
  -5  -3  -1    0.18    0.25
  -5   3  -1    0.33    0.22
  -5   3  -1    0.02    0.30
   6  -3   1    3.75    0.29
  -6  -3  -1    3.96    0.37
   6   3   1    3.60    0.30
  -6   3  -1    3.71    0.32
  -7  -3  -1    6.84    0.42
  -7   3  -1    6.43    0.38
  -7  -4   1    2.39    0.26
  -7   4   1    2.78    0.24
  -6  -4   1    1.93    0.33
   6  -4  -1    1.47    0.24
   6   4  -1    1.13    0.27
  -6   4   1    2.16    0.39
  -6   4   1    1.34    0.33
   5  -4  -1    2.20    0.25
  -5  -4   1    1.54    0.30
  -5   4   1    2.27    0.35
  -5   4   1    1.62    0.33
   5   4  -1    1.87    0.27
  -4  -4   1    1.57    0.36
  -4   4   1    1.56    0.37
   4   4  -1    1.53    0.22
  -4   4   1    2.29    0.35
   3  -4  -1   16.48    1.04
  -3   4   1   18.24    0.86
   3   4  -1   17.46    0.85
   2  -4  -1  170.62    7.90
   1  -4  -1   14.44    0.71
  -1   4   1   14.32    0.72
   0  -4   1   58.12    2.67
   0  -4  -1   58.10    2.67
   0   4   1   56.37    2.67
  -1  -4  -1    0.11    0.05
   1  -4   1    0.04    0.05
   1  -4   1    0.04    0.07
   1   4   1    0.07    0.06
   2  -4   1    0.25    0.11
   2  -4   1    0.06    0.11
  -2   4  -1    0.33    0.14
   2   4   1    0.02    0.10
   3  -4   1    4.12    0.51
   3   4   1    4.00    0.26
  -4  -4  -1    8.15    0.59
   4  -4   1    9.44    0.49
  -4   4  -1    8.87    0.57
   4   4   1    8.80    0.48
  -4   4  -1    8.70    0.55
   5  -4   1   17.10    0.89
  -5  -4  -1   18.75    0.95
  -5   4  -1   17.95    0.92
  -5   4  -1   17.72    0.94
   5   4   1   15.84    0.88
  -6  -4  -1    1.04    0.30
   6  -4   1    0.91    0.21
   6   4   1    1.04    0.23
  -6   4  -1    0.74    0.24
  -6   4  -1    1.59    0.39
  -7  -4  -1    0.28    0.23
  -7   4  -1   -0.12    0.14
  -7  -5   1    3.49    0.29
  -7   5   1    3.39    0.40
  -6  -5   1    4.50    0.41
   6  -5  -1    4.56    0.34
  -6   5   1    5.36    0.40
  -6   5   1    4.89    0.39
   6   5  -1    4.09    0.38
  -5  -5   1    0.18    0.24
   5  -5  -1   -0.04    0.16
  -5   5   1    0.33    0.22
   5   5  -1    0.18    0.19
  -5   5   1    0.47    0.24
  -4  -5   1    7.03    0.52
   4   5  -1    6.75    0.40
  -4   5   1    5.79    0.49
   4   5  -1    6.15    0.75
   4   5  -1    5.75    0.67
  -4   5   1    6.92    0.50
   3   5  -1    5.02    0.32
  -3   5   1    5.40    0.33
   2  -5  -1    0.19    0.13
  -2   5   1    0.15    0.12
   1  -5  -1    0.09    0.15
  -1   5   1    0.04    0.07
   0  -5   1  152.87    7.12
   0  -5   1  160.67    7.12
   0  -5  -1  153.89    7.12
   0   5   1  150.71    7.12
  -1  -5  -1  129.41    5.93
   1  -5   1  133.74    5.97
   1  -5   1  126.12    5.96
   1   5   1  125.96    5.93
   2  -5   1   14.21    0.73
   2  -5   1   15.01    0.76
  -2   5  -1   13.61    0.69
   2   5   1   12.60    0.67
   3  -5   1    0.26    0.30
   3   5   1    0.08    0.11
  -4  -5  -1    7.30    0.53
   4  -5   1    6.10    0.39
  -4   5  -1    6.62    0.46
   4   5   1    5.72    0.56
  -4   5  -1    6.45    0.47
   4   5   1    6.49    0.39
   5  -5   1    0.31    0.17
  -5  -5  -1    0.42    0.28
   5   5   1    0.60    0.17
  -5   5  -1    0.51    0.26
  -5   5  -1    0.21    0.21
   6  -5   1    0.26    0.17
  -6  -5  -1    0.30    0.22
  -6   5  -1    0.36    0.16
   6   5   1    0.11    0.17
  -6   5  -1    0.17    0.24
  -7   5  -1    5.37    0.33
  -7  -6   1    1.07    0.24
  -7   6   1    0.97    0.21
   6  -6  -1    1.32    0.25
  -6  -6   1    1.47    0.30
  -6   6   1    1.03    0.26
  -6   6   1    1.15    0.29
   6   6  -1    1.07    0.30
  -5  -6   1   35.29    1.73
  -5   6   1   35.50    1.70
  -5   6   1   34.22    1.70
  -4  -6   1   40.90    1.95
   4   6  -1   37.78    1.96
   4   6  -1   38.44    1.93
  -4   6   1   40.09    1.92
   4   6  -1   42.08    1.90
  -4   6   1   40.55    1.94
   3   6  -1   43.38    2.08
  -3   6   1   45.51    2.10
   2  -6  -1   51.19    2.38
  -2   6   1   48.06    2.32
   1  -6  -1   25.20    1.21
  -1   6   1   24.67    1.21
   0  -6   1  176.83    8.27
   0  -6   1  179.02    8.28
   0  -6  -1  187.53    8.28
   0   6   1  174.66    8.27
  -1  -6  -1    1.09    0.15
   1  -6   1    0.82    0.15
   1   6   1    1.00    0.13
   2  -6   1  156.21    7.10
   2  -6   1  157.24    7.12
   2   6   1  145.70    7.04
  -2   6  -1  152.11    7.05
   3  -6   1   18.24    1.13
   3   6   1   18.69    0.90
  -4  -6  -1    2.45    0.50
  -4   6  -1    3.01    0.36
  -4   6  -1    2.36    0.33
   4   6   1    2.74    0.42
   4   6   1    2.48    0.24
   5  -6   1   20.12    1.05
  -5  -6  -1   21.30    1.11
  -5   6  -1   20.62    1.07
  -5   6  -1   22.12    1.10
   5   6   1   20.65    1.05
   6  -6   1    6.44    0.39
  -6  -6  -1    6.14    0.45
  -6   6  -1    6.33    0.43
  -6   6  -1    5.58    0.40
   6   6   1    6.04    0.39
  -7  -7   1    2.59    0.28
  -7   7   1    2.63    0.25
  -6  -7   1    5.61    0.41
   6  -7  -1    5.50    0.37
  -6   7   1    4.72    0.38
  -6   7   1    5.49    0.37
   6   7  -1    5.07    0.60
   5  -7  -1    1.73    0.25
  -5  -7   1    1.39    0.39
  -5   7   1    1.40    0.30
  -5   7   1    1.83    0.35
   5   7  -1    1.39    0.28
  -4   7   1   44.83    2.10
   4   7  -1   41.94    2.09
  -4   7   1   42.92    2.08
   4   7  -1   44.13    2.06
   4   7  -1   43.83    2.11
  -3   7   1    2.23    0.48
  -3   7   1    1.48    0.19
   3   7  -1    1.32    0.22
   2  -7  -1   54.71    2.61
   2   7  -1   52.36    2.53
  -2   7   1   56.19    2.54
   1  -7  -1   12.72    0.64
  -1   7   1   11.18    0.62
   0  -7  -1   25.45    1.21
   0  -7   1   26.54    1.21
   0  -7   1   23.80    1.19
   0   7   1   24.13    1.20
   1  -7   1    0.39    0.11
   1  -7   1    0.40    0.12
  -1  -7  -1    0.53    0.16
   1   7   1    0.23    0.09
   2  -7   1   72.59    3.35
   2  -7   1   69.97    3.30
  -2   7  -1   69.46    3.24
   2   7   1   66.80    3.23
  -3   7  -1    0.54    0.27
   3   7   1    0.61    0.17
  -3   7  -1    0.36    0.22
   3   7   1    0.38    0.30
  -4  -7  -1    9.84    0.74
   4   7   1    9.96    0.64
  -4   7  -1   11.23    0.64
  -4   7  -1   10.14    0.60
   4   7   1   11.06    0.57
  -5  -7  -1    1.68    0.33
   5  -7   1    1.04    0.23
  -5   7  -1    1.83    0.30
   5   7   1    1.17    0.24
  -5   7  -1    1.62    0.30
  -6  -7  -1    0.20    0.24
   6  -7   1    0.06    0.16
  -6   7  -1    0.11    0.18
  -6   7  -1    0.11    0.19
  -6  -8   1    0.10    0.21
   6  -8  -1    0.15    0.18
  -6   8   1    0.08    0.18
   6   8  -1    0.91    0.30
  -6   8   1    0.30    0.15
   5  -8  -1   27.99    1.37
  -5  -8   1   29.65    1.42
   5   8  -1   25.73    1.36
   5   8  -1   26.34    1.39
  -5   8   1   28.89    1.39
   5   8  -1   26.35    1.42
  -5   8   1   30.38    1.38
  -4  -8   1   20.43    1.11
  -4   8   1   21.11    1.04
   4   8  -1   18.60    1.06
  -4   8   1   20.07    1.08
   4   8  -1   20.86    1.06
   4   8  -1   22.35    1.03
   3   8  -1   70.56    3.23
   3   8  -1   66.01    3.21
  -3   8   1   71.21    3.21
  -3   8   1   64.89    3.21
   3   8  -1   70.26    3.20
  -2   8   1   18.60    0.89
   2   8  -1   17.60    0.89
  -1  -8   1   55.37    2.64
  -1  -8   1   62.16    2.65
   1  -8  -1   60.57    2.70
  -1   8   1   49.38    2.64
   0  -8   1    1.35    0.21
   0  -8   1    1.31    0.18
   0  -8  -1    1.55    0.21
   0   8   1    1.35    0.19
   1  -8   1   78.04    3.46
   1  -8   1   77.74    3.44
  -1  -8  -1   75.28    3.41
   1   8   1   69.38    3.40
  -1   8  -1   70.89    3.40
   1   8   1   68.60    3.39
   2  -8   1    9.37    0.62
   2   8   1    9.60    0.51
  -2   8  -1   10.33    0.53
  -3   8  -1   49.11    2.22
   3   8   1   44.26    2.25
   3   8   1   47.47    2.21
   3   8   1   47.89    2.23
  -3   8  -1   47.18    2.24
  -3   8  -1   45.34    2.22
  -4  -8  -1    5.56    0.59
   4   8   1    5.12    0.62
   4   8   1    6.07    0.50
  -4   8  -1    6.24    0.46
   4   8   1    6.50    0.39
  -4   8  -1    6.08    0.42
   5  -8   1    0.04    0.17
  -5  -8  -1    0.05    0.31
  -5   8  -1    0.29    0.20
   5   8   1    0.15    0.17
  -5   8  -1    0.19    0.20
   5   8   1   -0.46    0.25
  -6  -8  -1   22.39    1.16
  -6   8  -1   22.33    1.14
  -6   8  -1   24.12    1.12
   6   8   1   23.67    1.14
   6  -9  -1   17.88    0.89
  -6  -9   1   17.48    0.90
  -6   9   1   17.33    0.86
  -6   9   1   17.01    0.89
  -5  -9   1    5.81    0.50
   5   9  -1    5.57    0.48
  -5   9   1    5.80    0.40
  -5   9   1    5.17    0.44
   5   9  -1    4.91    0.52
   5   9  -1    5.11    0.41
  -4  -9   1   26.37    1.39
  -4   9   1   26.44    1.45
   4   9  -1   27.32    1.35
   4   9  -1   29.79    1.32
   4   9  -1   25.45    1.38
  -4   9   1   26.28    1.32
   3   9  -1    1.39    0.29
   3   9  -1    1.68    0.24
   3   9  -1    1.17    0.24
  -3   9   1    1.50    0.25
  -3   9   1    1.52    0.22
  -2   9   1    0.03    0.13
   2   9  -1    0.22    0.15
  -1  -9   1    0.08    0.11
  -1  -9   1    0.04    0.13
   1  -9  -1    0.15    0.16
  -1   9   1    0.04    0.13
  -1   9   1    0.15    0.12
   0  -9  -1    3.52    0.32
   0  -9   1    3.24    0.30
   0  -9   1    3.23    0.27
   0   9   1    3.08    0.27
   0   9   1    2.95    0.23
   1  -9   1    2.10    0.34
   1  -9   1    2.31    0.28
  -1  -9  -1    1.88    0.32
   1   9   1    2.15    0.23
   1   9   1    1.95    0.19
  -1   9  -1    1.59    0.23
   2  -9   1   23.36    1.25
  -2   9  -1   24.95    1.16
   2   9   1   23.21    1.15
   3   9   1    6.57    0.53
  -3   9  -1    6.67    0.45
   3   9   1    7.16    0.41
  -3   9  -1    7.38    0.44
  -3   9  -1    7.86    0.53
   3   9   1    7.67    0.49
   4   9   1   11.98    0.91
  -4   9  -1   13.38    0.75
   4   9   1   13.81    0.70
   4   9   1   13.56    0.75
  -4   9  -1   13.28    0.72
  -5  -9  -1   14.58    0.85
   5  -9   1   13.82    0.75
  -5   9  -1   15.13    0.78
   5   9   1   12.69    0.74
   5   9   1   14.06    0.76
  -5   9  -1   14.23    0.75
   6  -9   1    0.21    0.16
  -6   9  -1    0.38    0.14
   6   9   1    0.73    0.21
  -6   9  -1    0.23    0.18
  -6 -10   1    0.23    0.23
   6 -10  -1   -0.13    0.18
  -6  10   1    0.11    0.12
  -6  10   1    0.19    0.21
  -5 -10   1   26.45    1.31
   5  10  -1   25.19    1.26
   5  10  -1   23.03    1.26
  -5  10   1   26.44    1.25
   5  10  -1   25.60    1.29
  -5  10   1   26.21    1.28
  -4 -10   1   -0.07    0.32
   4  10  -1    0.33    0.27
   4  10  -1    0.07    0.21
   4  10  -1    0.25    0.21
  -4  10   1    0.00    0.20
  -4  10   1    0.14    0.30
  -3  10   1    9.19    0.59
   3  10  -1   10.05    0.55
   3  10  -1    9.60    0.59
  -3  10   1   11.04    0.56
  -3  10   1    8.98    0.72
   3  10  -1    9.39    0.58
  -2  10   1   29.29    1.41
   2  10  -1   29.55    1.41
  -1 -10   1    2.62    0.27
  -1 -10   1    2.73    0.33
   1  10  -1    2.61    0.25
  -1  10   1    2.62    0.22
   0 -10  -1    0.14    0.19
   0 -10   1    0.30    0.18
   0 -10   1    0.44    0.16
   0  10   1    0.46    0.13
   0  10   1    0.10    0.14
   0  10  -1    0.33    0.15
   1 -10   1    2.79    0.35
  -1 -10  -1    2.16    0.44
  -1  10  -1    2.39    0.25
   1  10   1    2.76    0.22
   2 -10   1   30.13    1.58
  -2  10  -1   23.23    1.31
  -3  10  -1   26.72    1.25
  -3  10  -1   24.41    1.29
  -3  10  -1   24.18    1.24
   3  10   1   25.83    1.25
   3  10   1   25.47    1.23
   3  10   1   25.51    1.27
  -4  10  -1   13.78    0.78
  -4  10  -1   13.30    0.74
   4  10   1   13.61    0.76
   4  10   1   12.73    0.88
   4  10   1   14.67    0.73
   5 -10   1    1.21    0.24
   5  10   1    0.93    0.23
   5  10   1    1.02    0.24
  -5  10  -1    1.30    0.26
  -5  10  -1    1.03    0.32
   6 -10   1   16.65    0.87
  -6  10  -1   17.65    0.85
  -6  10  -1   17.59    0.89
   6  10   1   17.72    0.90
   6 -11  -1    6.59    0.42
  -6 -11   1    7.22    0.73
  -6  11   1    6.88    0.38
  -6  11   1    6.29    0.46
  -5 -11   1    5.93    0.53
  -5  11   1    5.40    0.49
   5  11  -1    5.75    0.48
  -5  11   1    6.00    0.40
   5  11  -1    4.87    0.46
   5  11  -1    6.25    0.43
  -4 -11   1   13.39    0.83
  -4  11   1   13.09    0.71
   4  11  -1   12.29    0.73
   4  11  -1   13.54    0.72
  -4  11   1   12.41    0.79
   4  11  -1   14.13    0.73
   3  11  -1   24.78    1.21
  -3  11   1   24.58    1.22
   3  11  -1   23.62    1.23
   3  11  -1   25.16    1.22
  -3  11   1   25.15    1.22
   2  11  -1    0.38    0.21
   2  11  -1    0.25    0.18
   2  11  -1    0.36    0.22
  -2  11   1    0.45    0.16
  -1 -11   1  206.89    9.46
   1  11  -1  202.98    9.44
  -1  11   1  205.26    9.45
   0 -11   1    0.32    0.19
   0 -11  -1    0.09    0.29
   0 -11   1    0.04    0.28
   0  11  -1    0.28    0.16
   0  11   1    0.41    0.13
  -1 -11  -1    0.62    0.32
   1 -11   1    1.62    0.40
  -1  11  -1    0.88    0.18
   1  11   1    1.00    0.18
  -2  11  -1   18.16    0.97
  -2  11  -1   19.32    0.95
   2  11   1   18.97    0.96
   2  11   1   18.76    0.97
   2  11   1   19.61    0.94
   3  11   1   26.96    1.28
   3  11   1   26.38    1.26
  -3  11  -1   26.54    1.27
  -3  11  -1   24.60    1.31
  -3  11  -1   25.31    1.26
   3  11   1   24.62    1.25
   4  11   1   10.77    0.61
  -4  11  -1   10.93    0.68
  -4  11  -1   10.86    0.62
   4  11   1   11.54    0.69
   4  11   1   11.66    0.63
   5 -11   1    4.26    0.34
   5  11   1    3.79    0.34
  -5  11  -1    4.71    0.33
  -5  11  -1    5.04    0.53
   6 -11   1    0.58    0.18
  -6  11  -1    0.18    0.18
  -6  11  -1    0.40    0.12
   6 -12  -1    0.20    0.18
  -6  12   1    0.27    0.27
  -6  12   1    0.04    0.12
  -5 -12   1    1.80    0.45
  -5  12   1    1.48    0.40
  -5  12   1    1.66    0.27
   5  12  -1    1.28    0.40
  -4 -12   1    1.41    0.41
   4  12  -1    2.72    0.35
   4  12  -1    1.88    0.30
  -4  12   1    1.63    0.29
   4  12  -1    1.72    0.35
  -4  12   1    2.09    0.50
   3  12  -1    1.48    0.33
  -3  12   1    1.48    0.25
   3  12  -1    1.11    0.29
   3  12  -1    1.17    0.24
  -3  12   1    1.05    0.23
  -2  12   1    2.85    0.46
   2  12  -1    3.42    0.30
   2  12  -1    2.97    0.33
  -2  12   1    3.00    0.26
   2  12  -1    2.27    0.35
   1  12  -1   35.33    1.67
  -1  12   1   35.05    1.69
   0 -12   1    0.27    0.27
   0 -12   1    0.09    0.39
   0 -12  -1    0.30    0.40
   0  12  -1    0.23    0.16
   0  12   1    0.22    0.12
   1 -12   1    0.91    0.31
  -1  12  -1    1.27    0.22
   1  12   1    1.15    0.31
   1  12   1    1.14    0.22
  -2  12  -1   21.07    1.08
   2  12   1   22.68    1.06
  -2  12  -1   17.71    1.18
   2  12   1   22.26    1.06
  -2  12  -1   22.40    1.07
   2  12   1   21.62    1.07
   3  12   1   -0.07    0.16
   3  12   1    0.10    0.22
  -3  12  -1    0.48    0.34
  -3  12  -1    0.41    0.19
  -4  12  -1    3.20    0.32
   4  12   1    3.53    0.30
   4  12   1    3.04    0.43
  -4  12  -1    2.80    0.43
   4  12   1    3.54    0.35
   5 -12   1    0.05    0.18
   5  12   1    0.25    0.17
  -5  12  -1    0.02    0.16
   5  12   1   -0.11    0.21
  -5  12  -1    0.26    0.25
   6 -12   1    1.64    0.25
  -6  12  -1    1.54    0.20
  -6  12  -1    1.91    0.27
   6 -13  -1    1.83    0.26
  -6  13   1    1.98    0.20
  -5  13   1    2.45    0.23
   5  13  -1    2.02    0.36
   5  13  -1    2.16    0.25
  -5  13   1    1.62    0.46
   4  13  -1   15.40    0.81
  -4  13   1   15.86    0.81
   4  13  -1   16.15    0.82
   4  13  -1   14.16    0.83
  -3  13   1   30.00    1.44
   3  13  -1   29.42    1.44
   3  13  -1   29.29    1.44
   3  13  -1   29.54    1.43
  -3  13   1   28.52    1.44
   2  13  -1    8.20    0.51
   2  13  -1    8.78    0.53
   2  13  -1    7.99    0.49
  -2  13   1    8.41    0.58
  -2  13   1    8.79    0.49
   1  13  -1   41.55    1.98
   1  13  -1   39.59    1.97
  -1  13   1   42.93    1.96
   0 -13   1   13.24    0.96
   0  13   1   14.08    0.77
   0  13   1   13.99    0.71
   0  13  -1   14.48    0.72
   1  13   1    6.66    0.49
  -1  13  -1    7.01    0.42
   1  13   1    7.15    0.41
   1  13   1    7.63    0.48
   2  13   1    3.66    0.34
   2  13   1    4.02    0.36
  -2  13  -1    3.89    0.39
   2  13   1    3.84    0.31
  -2  13  -1    4.23    0.33
  -2  13  -1    3.64    0.76
   3  13   1    5.51    0.41
  -3  13  -1    5.68    0.55
  -3  13  -1    6.13    0.42
   3  13   1    6.43    0.41
  -3  13  -1    5.65    0.42
   3  13   1    5.99    0.44
   4  13   1   61.64    2.85
   4  13   1   62.70    2.84
  -4  13  -1   61.63    2.84
  -4  13  -1   59.89    2.88
   4  13   1   55.79    2.84
   5 -13   1    3.08    0.32
   5  13   1    3.11    0.35
   5  13   1    4.00    0.29
   5  13   1    4.34    0.56
  -5  13  -1    3.83    0.28
  -5  13  -1    4.04    0.40
  -6  13  -1    0.49    0.23
  -6  13  -1    0.29    0.12
   5  14  -1    4.17    0.36
  -5  14   1    4.18    0.30
   5  14  -1    3.81    0.30
  -4  14   1    1.10    0.23
   4  14  -1    0.39    0.28
   4  14  -1    1.81    0.30
   4  14  -1    0.90    0.19
   3  14  -1    0.79    0.22
  -3  14   1    1.02    0.21
   3  14  -1    1.81    0.28
  -3  14   1    1.60    0.32
   2  14  -1    3.72    0.35
  -2  14   1    4.07    0.31
   2  14  -1    3.46    0.35
  -2  14   1    3.10    0.44
   2  14  -1    3.34    0.35
  -1  14   1    2.28    0.23
   1  14  -1    2.01    0.34
   1  14  -1    2.56    0.26
   1  14  -1    2.65    0.36
  -1  14   1    1.83    0.48
   0  14   1   20.32    1.19
   0  14  -1   22.81    1.10
   0  14  -1   22.49    1.16
   0  14   1   23.17    1.14
   0  14   1   23.58    1.10
  -1  14  -1   10.03    0.73
  -1  14  -1   11.26    0.59
   1  14   1   10.79    0.57
   1  14   1   10.50    0.63
   1  14   1   11.17    0.62
   2  14   1   39.21    1.84
  -2  14  -1   40.58    1.86
   2  14   1   39.71    1.85
  -2  14  -1   35.42    1.84
   2  14   1   38.18    1.85
   3  14   1    2.56    0.30
  -3  14  -1    2.56    0.31
   3  14   1    2.68    0.34
  -3  14  -1    2.59    0.31
   3  14   1    2.83    0.32
  -3  14  -1    1.85    0.52
  -4  14  -1   13.72    0.72
   4  14   1   13.33    0.73
   4  14   1   14.24    0.71
   4  14   1   12.22    0.74
  -4  14  -1   13.31    0.81
   5 -14   1    3.73    0.32
   5  14   1    3.40    0.43
  -5  14  -1    2.78    0.39
   5  14   1    3.82    0.27
  -5  14  -1    3.86    0.27
   5  14   1    3.88    0.37
  -6  14  -1    1.06    0.16
   5  15  -1    1.11    0.28
   5  15  -1    1.19    0.20
  -5  15   1    1.05    0.20
   4  15  -1   12.00    0.63
   4  15  -1   10.18    0.70
   4  15  -1   11.73    0.65
  -4  15   1   12.61    0.65
   3  15  -1    1.23    0.35
   3  15  -1    0.51    0.17
   3  15  -1    0.81    0.23
  -3  15   1    0.79    0.24
  -3  15   1    1.23    0.34
   2  15  -1   14.24    0.78
   2  15  -1   14.16    0.78
  -2  15   1   15.02    0.77
  -2  15   1   13.50    0.83
   2  15  -1   15.99    0.79
   1  15  -1    5.53    0.42
  -1  15   1    5.11    0.34
   1  15  -1    4.94    0.42
   1  15  -1    4.92    0.38
  -1  15   1    4.89    0.52
   0  15   1   21.19    0.98
   0  15   1   20.96    1.00
   0  15  -1   19.36    1.03
   0  15  -1   20.96    0.99
   0  15   1   17.63    1.02
   0  15  -1   17.86    1.08
   1  15   1   54.55    2.54
   1  15   1   56.31    2.54
  -1  15  -1   48.03    2.55
   1  15   1   55.55    2.55
  -1  15  -1   55.08    2.55
   2  15   1   14.77    0.79
   2  15   1   14.59    0.81
   2  15   1   16.85    0.80
  -2  15  -1   16.03    0.81
  -2  15  -1   14.04    0.82
   3  15   1   10.54    0.61
  -3  15  -1   10.42    0.61
   3  15   1   10.68    0.59
  -3  15  -1   10.08    0.76
   3  15   1   10.33    0.67
  -3  15  -1   11.09    0.64
   4  15   1   30.63    1.39
  -4  15  -1   23.85    1.54
   4  15   1   28.20    1.41
   4  15   1   29.36    1.40
  -4  15  -1   31.14    1.40
   5 -15   1    0.91    0.24
  -5  15  -1    1.10    0.29
   5  15   1    0.98    0.28
   5  15   1    0.97    0.25
  -5  15  -1    0.71    0.18
   5  16  -1    1.44    0.25
  -5  16   1    1.56    0.20
   5  16  -1    1.24    0.20
   4  16  -1   12.66    0.69
  -4  16   1   13.25    0.68
   4  16  -1   12.26    0.67
  -3  16   1   -0.23    0.23
   3  16  -1   -0.08    0.15
   3  16  -1    0.08    0.26
  -3  16   1    0.11    0.20
   3  16  -1    0.06    0.19
   2  16  -1    3.04    0.35
   2  16  -1    3.81    0.35
   2  16  -1    3.27    0.34
  -2  16   1    3.57    0.44
  -2  16   1    2.92    0.29
  -1  16   1    1.89    0.25
   1  16  -1    2.15    0.28
  -1  16   1    2.71    0.46
   1  16  -1    1.74    0.45
   1  16  -1    2.28    0.34
   0  16  -1   18.32    1.18
   0  16   1   21.43    1.01
   0  16  -1   20.49    1.01
   0  16   1   18.69    1.07
   0  16  -1   20.09    1.05
   0  16   1   21.85    1.03
   1  16   1   13.06    0.67
  -1  16  -1   12.79    0.68
   1  16   1   11.53    0.70
   1  16   1   13.01    0.70
   2  16   1    6.65    0.44
  -2  16  -1    7.64    0.48
  -2  16  -1    6.31    0.51
   2  16   1    7.30    0.45
   2  16   1    6.51    0.45
   3  16   1   14.96    0.77
  -3  16  -1   14.17    0.80
   3  16   1   14.34    0.78
   3  16   1   14.89    0.78
  -3  16  -1   15.73    0.79
  -4  16  -1    3.17    0.28
   4  16   1    2.35    0.32
   4  16   1    2.53    0.30
   5 -16   1   19.69    0.93
  -5  16  -1   19.23    0.90
   5  16   1   16.75    0.94
   5 -17  -1    0.46    0.16
   5  17  -1    0.47    0.12
  -5  17   1    0.64    0.17
   5  17  -1    0.37    0.17
  -4  17   1    3.56    0.32
   4  17  -1    3.74    0.29
   4  17  -1    3.73    0.32
   3  17  -1   11.84    0.61
  -3  17   1    9.87    0.60
   3  17  -1   11.13    0.61
  -3  17   1   11.74    0.64
   3  17  -1    9.24    0.64
   2  17  -1    0.53    0.27
   2  17  -1   -0.20    0.17
   2  17  -1    0.04    0.19
  -2  17   1    0.28    0.34
  -2  17   1   -0.10    0.16
   1  17  -1    3.52    0.36
  -1  17   1    3.21    0.46
  -1  17   1    4.02    0.33
   1  17  -1    3.19    0.37
   1  17  -1    4.34    0.38
   0  17   1   14.88    0.74
   0  17   1   13.75    0.77
   0  17  -1   14.11    0.75
   0  17  -1   13.71    0.79
   1  17   1   22.97    1.19
   1  17   1   25.27    1.19
  -1  17  -1   24.61    1.20
   1  17   1   23.25    1.18
  -2  17  -1    1.78    0.36
   2  17   1    1.56    0.28
   2  17   1    1.92    0.28
  -3  17  -1    5.63    0.40
   3  17   1    5.41    0.38
   3  17   1    5.04    0.40
  -3  17  -1    4.65    0.40
   3  17   1    6.05    0.39
  -4  17  -1   10.84    0.56
   4  17   1   10.15    0.54
   4  17   1   10.35    0.57
   4  17   1    9.58    0.60
   5 -17   1    4.14    0.34
  -5  17  -1    4.53    0.28
   5  17   1    5.50    0.60
   5 -18  -1   13.87    0.68
   5  18  -1   13.17    0.65
   5  18  -1   11.52    0.68
  -4  18   1    1.11    0.26
   4  18  -1    0.79    0.23
   4  18  -1    1.01    0.19
  -3  18   1    1.22    0.35
   3  18  -1    0.83    0.22
   3  18  -1    0.94    0.22
  -3  18   1    1.33    0.24
   2  18  -1   39.77    2.07
  -2  18   1   41.15    2.08
   2  18  -1   46.90    2.08
   2  18  -1   46.22    2.07
   1  18  -1    2.13    0.32
   1  18  -1    1.85    0.31
   1  18  -1    1.28    0.33
  -1  18   1    1.92    0.25
  -1  18   1    1.85    0.44
   0  18   1    6.29    0.42
   0  18   1    7.02    0.47
   0  18  -1    6.82    0.47
   0  18  -1    6.17    0.50
  -1  18  -1    3.57    0.38
   1  18   1    3.51    0.33
   1  18   1    3.17    0.35
   1  18   1    2.90    0.32
   2  18   1    8.71    0.51
   2  18   1    9.29    0.53
  -2  18  -1    9.17    0.59
  -2  18  -1    7.90    0.52
   2  18   1    8.27    0.52
   3  18   1    0.22    0.22
   3  18   1    0.12    0.14
  -3  18  -1    0.31    0.22
   3  18   1    0.16    0.18
  -3  18  -1   -0.06    0.20
   4  18   1    1.03    0.23
   4  18   1    0.49    0.27
  -4  18  -1    0.44    0.17
   4  18   1    0.60    0.16
  -5  18  -1   12.30    0.61
  -5  19   1    0.16    0.14
   5  19  -1    0.24    0.15
  -4  19   1    0.46    0.17
   4  19  -1    0.40    0.15
   4  19  -1    0.35    0.11
  -3  19   1    3.34    0.36
  -3  19   1    3.29    0.31
   2  19  -1    0.13    0.17
   2  19  -1   -0.08    0.29
  -2  19   1    0.08    0.18
   2  19  -1   -0.25    0.19
   1  19  -1    1.18    0.30
  -1  19   1    1.34    0.30
  -1  19   1    0.84    0.25
   1  19  -1    1.13    0.31
   1  19  -1    1.26    0.31
   0  19  -1    0.75    0.29
   0  19  -1    0.37    0.23
   0  19   1    0.65    0.24
   0  19   1    0.83    0.24
   1  19   1    3.75    0.36
   1  19   1    3.79    0.35
  -1  19  -1    3.75    0.36
   1  19   1    4.19    0.33
  -2  19  -1    3.06    0.32
   2  19   1    3.72    0.31
  -2  19  -1    2.85    0.42
   2  19   1    3.09    0.35
   2  19   1    3.84    0.32
   3  19   1   -0.10    0.17
   3  19   1    0.41    0.24
  -3  19  -1   -0.15    0.19
   3  19   1   -0.24    0.12
   4  19   1    0.80    0.15
   4  19   1    0.86    0.40
   4  19   1    0.81    0.21
  -4  19  -1    0.87    0.21
   4  20  -1    0.16    0.14
   4  20  -1    0.06    0.10
  -4  20   1    0.16    0.20
  -3  20   1   -0.22    0.25
   3  20  -1    0.45    0.16
   3  20  -1    0.45    0.13
  -3  20   1    0.15    0.18
   2  20  -1   35.38    1.59
   2  20  -1   34.69    1.61
  -2  20   1   30.05    1.61
  -1  20   1   11.91    0.74
   1  20  -1   13.25    0.67
   1  20  -1   12.63    0.68
   1  20  -1   12.00    0.72
  -1  20   1   12.32    0.68
   0  20   1   40.97    1.93
   0  20  -1   39.88    1.93
   0  20  -1   37.25    1.93
   0  20   1   42.75    1.93
   1  20   1   19.18    0.96
   1  20   1   19.16    0.96
   1  20   1   19.16    0.95
  -1  20  -1   17.67    0.97
   2  20   1    8.25    0.56
   2  20   1    7.33    0.50
   2  20   1    8.44    0.49
  -3  20  -1    5.40    0.39
   3  20   1    5.51    0.33
   3  20   1    5.30    0.42
   3  20   1    5.20    0.36
   4 -20   1    0.25    0.24
   4  20   1    0.39    0.13
  -4  20  -1    0.21    0.16
   4  21  -1    0.93    0.14
   3  21  -1    1.17    0.18
   3  21  -1    1.67    0.22
  -3  21   1    1.24    0.27
  -2  21   1    4.54    0.37
   2  21  -1    4.95    0.33
   2  21  -1    5.04    0.35
   1  21  -1    1.26    0.28
  -1  21   1    1.24    0.28
   1  21  -1    1.76    0.39
   0  21   1    0.87    0.26
   0  21  -1    1.31    0.37
   0  21  -1    1.03    0.32
   0  21   1    1.04    0.27
   1  21   1    4.57    0.34
  -1  21  -1    4.27    0.42
   1  21   1    4.41    0.37
   1  21   1    4.77    0.49
  -2  21  -1    0.08    0.24
   2  21   1    0.18    0.14
   2  21   1    0.00    0.23
   2  21   1    0.39    0.16
   3  21   1    1.88    0.43
   3  21   1    1.91    0.22
  -3  21  -1    2.01    0.32
   3  21   1    2.25    0.19
  -4  21  -1    0.47    0.25
   4  21   1    0.28    0.12
   3  22  -1    0.28    0.14
   3  22  -1    0.41    0.12
   2  22  -1    0.57    0.14
   2  22  -1    0.70    0.18
   1  22  -1    3.26    0.32
  -1  22   1    3.01    0.32
   1  22  -1    3.66    0.32
   0  22   1    4.67    0.38
   0  22  -1    4.02    0.45
   0  22  -1    4.86    0.48
   0  22   1    4.80    0.37
   1  22   1   -0.12    0.18
   1  22   1    0.32    0.24
   1  22   1    0.29    0.18
   2  22   1    1.59    0.35
  -2  22  -1    0.87    0.31
   2  22   1    1.21    0.21
   2  22   1    1.10    0.20
   3  22   1    2.45    0.22
   3  23  -1    4.02    0.25
   2  23  -1    0.29    0.14
  -2  23   1    0.40    0.23
   2  23  -1    0.42    0.14
   1  23  -1    0.12    0.18
  -1  23   1    0.30    0.23
   0  23   1   17.16    0.90
   0  23   1   18.75    0.93
   1  23   1    9.15    0.51
   1  23   1    9.19    0.57
   2  23   1    1.37    0.19
   3  23   1    0.56    0.16
   2  24  -1    0.44    0.21
   2  24  -1    0.29    0.16
  -1  24   1    0.32    0.26
   0  24   1   25.19    1.26
   1  24   1    1.78    0.23
   1  25   1    6.39    0.38
  -7   0   2    1.53    0.22
  -6   0   2    7.70    0.48
   6   0  -2    6.82    0.46
   5   0  -2    3.39    0.31
  -5   0   2    2.95    0.37
  -5   0   2    2.44    0.51
   4   0  -2   48.28    2.19
  -4   0   2   45.38    2.22
  -4   0   2   45.55    2.23
   3   0  -2    9.63    0.60
  -2   0   2   22.69    1.10
   2   0  -2   22.74    1.09
  -1   0   2   92.23    4.61
   1   0  -2  107.81    4.62
   0   0  -2   42.29    1.90
   0   0   2   39.33    1.90
  -1   0  -2  124.57    5.63
   1   0   2  119.11    5.62
   2   0   2   69.63    3.03
   2   0   2   59.85    3.00
   3   0   2   59.74    2.89
   3   0   2   58.57    2.81
   3   0   2   58.94    2.76
   4   0   2   25.05    1.20
  -4   0  -2   24.28    1.25
  -5   0  -2   10.58    0.63
   5   0   2   10.56    0.58
  -6   0  -2    0.60    0.20
   6   0   2    0.66    0.21
  -7   0  -2    0.42    0.18
  -7  -1   2    0.08    0.14
  -7   1   2    0.04    0.14
  -6  -1   2    6.40    0.43
   6  -1  -2    4.40    0.38
  -6   1   2    6.35    0.42
   6   1  -2    4.55    0.39
  -5  -1   2    1.34    0.27
   5  -1  -2    0.80    0.24
  -5  -1   2    0.62    0.38
  -5   1   2    1.09    0.31
   5   1  -2    1.01    0.25
  -5   1   2    0.96    0.30
  -4  -1   2   13.61    0.91
   4  -1  -2   15.07    0.74
  -4  -1   2   14.60    0.80
  -4   1   2   14.61    0.81
  -4   1   2   13.83    0.81
   4   1  -2   14.68    0.74
   3  -1  -2    3.49    0.45
   3   1  -2    3.94    0.37
   3   1  -2    3.13    0.26
  -2  -1   2   82.07    3.78
   2  -1  -2   81.28    3.79
   2   1  -2   82.11    3.77
  -2   1   2   80.65    3.79
  -1  -1   2   42.22    2.12
   1  -1  -2   47.28    2.14
  -1   1   2   45.15    2.13
   1   1  -2   48.65    2.13
   0  -1  -2  180.20    8.36
   0  -1   2  176.16    8.36
   0   1  -2  190.66    8.36
   0   1   2  180.02    8.36
  -1  -1  -2   11.77    0.53
   1  -1   2   10.09    0.53
  -1   1  -2   10.07    0.53
   2  -1   2    7.32    0.41
   2  -1   2    8.63    0.45
   2   1   2    7.37    0.41
   2   1   2    8.25    0.44
   3  -1   2    0.15    0.11
   3  -1   2    0.02    0.40
   3  -1   2    0.12    0.24
   3   1   2   -0.04    0.33
   3   1   2    0.23    0.11
   3   1   2   -0.16    0.24
  -4  -1  -2   12.35    0.71
   4  -1   2   11.81    0.62
  -4   1  -2   10.68    0.75
   4   1   2   12.11    0.62
  -4   1  -2   11.86    0.68
  -5  -1  -2   43.01    2.02
   5  -1   2   42.41    1.99
  -5   1  -2   41.02    2.01
   5   1   2   40.04    1.98
  -6  -1  -2    8.22    0.52
   6  -1   2    9.40    0.50
  -6   1  -2    8.19    0.52
   6   1   2    9.02    0.50
  -7  -1  -2   -0.06    0.19
  -7   1  -2   -0.05    0.15
  -7  -2   2    1.82    0.23
  -7   2   2    1.44    0.21
  -6  -2   2    4.91    0.38
   6  -2  -2    3.29    0.32
   6   2  -2    3.61    0.36
  -6   2   2    4.10    0.36
  -5  -2   2   15.30    0.81
   5  -2  -2   14.44    0.76
  -5   2   2   13.50    0.79
  -5   2   2   14.07    0.82
   5   2  -2   15.01    0.76
  -4  -2   2    3.60    0.80
   4  -2  -2    2.60    0.25
  -4   2   2    2.45    0.40
   4   2  -2    2.85    0.27
  -4   2   2    2.37    0.39
   3  -2  -2    0.37    0.25
   3   2  -2    0.70    0.16
   2  -2  -2   35.83    1.72
  -2  -2   2   36.49    1.69
   2   2  -2   37.16    1.69
  -2   2   2   35.27    1.73
   1  -2  -2  315.49   14.06
  -1  -2   2  288.64   14.04
   1   2  -2  318.18   14.04
  -1   2   2  300.52   14.05
   0  -2  -2  136.45    6.29
   0  -2   2  138.53    6.29
   0   2  -2  135.23    6.28
   0   2   2  135.62    6.29
   1  -2   2   18.04    0.89
  -1  -2  -2   18.02    0.88
   1   2   2   18.95    0.89
  -1   2  -2   18.60    0.89
   2  -2   2   55.37    2.50
   2   2   2   50.17    2.46
   2   2   2   53.25    2.48
   3  -2   2   38.61    1.89
   3  -2   2   37.31    1.79
   3   2   2   38.20    1.79
   3   2   2   38.11    1.86
  -4  -2  -2    6.77    0.53
   4  -2   2    7.00    0.41
  -4   2  -2    7.57    0.49
  -4   2  -2    6.12    0.58
   4   2   2    7.17    0.41
   5  -2   2   25.93    1.33
  -5  -2  -2   29.63    1.38
  -5   2  -2   29.92    1.37
  -5   2  -2   25.25    1.37
   5   2   2   25.90    1.33
   6  -2   2    3.37    0.29
  -6  -2  -2    4.07    0.34
   6   2   2    3.23    0.29
  -6   2  -2    3.84    0.31
  -7  -3   2    1.33    0.23
  -7   3   2    1.12    0.19
  -6  -3   2   16.38    0.80
   6  -3  -2   13.98    0.76
  -6   3   2   14.49    0.77
   6   3  -2   13.35    0.78
   5  -3  -2   12.36    0.67
  -5  -3   2   12.80    0.73
  -5   3   2   11.85    0.70
   5   3  -2   12.87    0.68
  -5   3   2   12.16    0.72
  -4   3   2   71.42    3.35
  -4   3   2   72.13    3.34
   4   3  -2   68.47    3.39
   4   3  -2   73.16    3.33
   3  -3  -2   27.01    1.44
   3   3  -2   28.40    1.32
   2  -3  -2   68.18    3.20
  -2   3   2   68.16    3.20
   1  -3  -2  791.29   34.13
  -1  -3   2  715.11   34.02
   1   3  -2  734.03   34.01
  -1   3   2  723.43   34.08
   0  -3  -2    0.20    0.07
   0  -3   2    0.04    0.05
   0   3  -2    0.01    0.06
   0   3   2   -0.02    0.06
  -1  -3  -2    0.43    0.11
   1  -3   2    0.52    0.12
   1   3   2    0.59    0.14
  -2  -3  -2  100.31    4.33
   2   3   2   93.27    4.33
   2   3   2   86.50    4.31
   3  -3   2   64.90    3.09
   3  -3   2   63.57    3.00
   4  -3   2    1.07    0.18
  -4  -3  -2    1.38    0.30
   4   3   2    0.98    0.19
  -4   3  -2    1.24    0.32
  -4   3  -2    1.38    0.34
   5  -3   2   13.93    0.76
  -5  -3  -2   15.40    0.82
  -5   3  -2   14.62    0.81
   5   3   2   13.03    0.75
  -5   3  -2   15.69    0.80
   6  -3   2   18.95    0.95
  -6  -3  -2   18.58    0.97
   6   3   2   19.80    0.95
  -6   3  -2   18.77    0.97
  -7  -4   2    0.13    0.16
  -7   4   2    0.28    0.13
   6  -4  -2    2.21    0.28
  -6  -4   2    3.15    0.34
  -6   4   2    2.69    0.31
   6   4  -2    1.60    0.35
   5  -4  -2   -0.04    0.18
  -5  -4   2   -0.23    0.25
  -5   4   2   -0.12    0.24
   5   4  -2   -0.01    0.21
  -5   4   2   -0.15    0.23
   4   4  -2    4.14    0.55
  -4   4   2    4.70    0.44
  -4   4   2    5.15    0.42
   4   4  -2    5.52    0.36
   3  -4  -2    6.07    0.68
  -3   4   2    7.17    0.40
   3   4  -2    6.75    0.40
   2  -4  -2   12.80    0.66
  -2   4   2   12.10    0.66
  -1  -4   2  911.61   41.00
   1   4  -2  901.07   40.99
  -1   4   2  866.09   41.07
   0  -4  -2  881.01   38.30
   0  -4   2  803.33   38.24
   0   4   2  787.80   38.26
   0   4  -2  854.23   38.24
  -1  -4  -2  205.59    9.46
   1  -4   2  203.33    9.48
   1   4   2  207.88    9.47
  -2  -4  -2    0.64    0.14
   2  -4   2    0.87    0.25
   2  -4   2    0.78    0.21
   2   4   2    0.60    0.14
   2   4   2    0.61    0.14
   3  -4   2   71.52    3.53
   3   4   2   75.67    3.43
  -4  -4  -2    5.93    0.53
   4  -4   2    5.40    0.36
  -4   4  -2    5.48    0.43
  -4   4  -2    5.10    0.49
   4   4   2    5.75    0.35
   5  -4   2   10.96    0.61
  -5  -4  -2   11.21    0.69
  -5   4  -2   11.85    0.65
   5   4   2   10.38    0.60
  -5   4  -2   10.97    0.66
   6  -4   2    0.47    0.16
  -6  -4  -2    0.43    0.20
   6   4   2    0.42    0.16
  -6   4  -2    0.26    0.17
  -7  -5   2    2.64    0.30
   6  -5  -2    8.00    0.48
  -6   5   2    8.65    0.62
  -6   5   2    8.10    0.48
   6   5  -2    6.87    0.52
   5  -5  -2   17.24    0.87
  -5  -5   2   17.73    0.92
  -5   5   2   15.93    0.89
   5   5  -2   16.09    0.87
  -5   5   2   16.50    0.89
   4   5  -2   64.95    3.52
  -4   5   2   75.19    3.51
   4   5  -2   73.30    3.52
   4   5  -2   82.38    3.49
  -4   5   2   77.45    3.50
  -3   5   2    2.17    0.22
   3   5  -2    1.95    0.25
   2  -5  -2   38.47    1.77
  -2   5   2   34.73    1.72
  -1  -5   2  928.62   43.71
   1  -5  -2 1000.00   43.80
  -1   5   2  928.66   43.79
   0  -5  -2  125.81    5.44
   0  -5   2  113.50    5.43
   0   5   2  113.44    5.43
   1  -5   2   70.76    3.28
  -1  -5  -2   69.52    3.25
   1   5   2   69.84    3.26
   2  -5   2  236.19   10.88
   2  -5   2  247.02   10.86
  -2  -5  -2  243.16   10.82
   2   5   2  232.60   10.81
   2   5   2  215.21   10.80
   3  -5   2    0.11    0.33
  -3   5  -2   -0.01    0.23
   3   5   2    0.12    0.11
   4  -5   2   24.14    1.11
  -4  -5  -2   22.04    1.19
   4   5   2   23.55    1.10
   4   5   2   20.28    1.13
  -4   5  -2   21.59    1.13
  -4   5  -2   22.89    1.14
   5  -5   2   20.29    1.05
  -5  -5  -2   21.69    1.10
   5   5   2   19.82    1.04
  -5   5  -2   21.71    1.07
  -5   5  -2   21.16    1.07
  -6  -5  -2    2.22    0.31
   6  -5   2    2.49    0.25
   6   5   2    2.22    0.25
  -6   5  -2    1.93    0.39
  -6   5  -2    2.53    0.27
  -7  -6   2    2.37    0.26
  -7   6   2    2.52    0.24
  -7   6   2    1.92    0.37
  -6  -6   2    0.22    0.22
   6  -6  -2    0.27    0.20
  -6   6   2    0.22    0.17
  -6   6   2    0.25    0.20
  -5  -6   2   17.65    0.94
   5   6  -2   17.12    1.02
  -5   6   2   17.17    0.91
  -5   6   2   17.04    0.90
   5   6  -2   16.33    0.98
   4   6  -2   11.95    0.78
  -4   6   2   12.55    0.70
   4   6  -2   12.35    0.67
   4   6  -2   12.82    0.77
  -4   6   2   13.01    0.75
  -3   6   2    0.79    0.18
   3   6  -2    1.17    0.25
   2  -6  -2    2.62    0.30
  -2   6   2    2.12    0.21
  -2   6   2    1.57    0.25
  -1  -6   2   65.21    3.03
   1  -6  -2   68.04    3.07
  -1   6   2   62.91    3.06
   0  -6   2  265.05   12.18
   0   6   2  264.11   12.18
   1  -6   2  111.53    5.09
  -1  -6  -2  104.43    5.04
   1  -6   2  112.08    5.07
   1   6   2  108.30    5.05
   2  -6   2    2.49    0.31
  -2  -6  -2    1.93    0.29
   2   6   2    2.39    0.26
   2   6   2    1.73    0.18
  -2   6  -2    2.35    0.23
   3   6   2    6.51    0.59
  -3   6  -2    5.61    0.45
  -3   6  -2    5.52    0.46
   3   6   2    7.05    0.37
   4  -6   2    0.78    0.20
  -4  -6  -2    1.21    0.38
   4   6   2    0.63    0.19
   4   6   2    0.70    0.24
  -4   6  -2    1.04    0.23
  -4   6  -2    0.53    0.23
  -5  -6  -2   -0.28    0.30
   5  -6   2    0.15    0.16
   5   6   2    0.01    0.15
  -5   6  -2    0.05    0.21
  -5   6  -2   -0.02    0.19
   6  -6   2    2.08    0.26
  -6  -6  -2    1.58    0.33
  -6   6  -2    2.20    0.26
  -6   6  -2    1.70    0.33
   6   6   2    2.24    0.28
  -7  -7   2    0.25    0.18
  -7   7   2    0.37    0.17
  -7   7   2    0.94    0.27
   6  -7  -2    3.05    0.30
  -6  -7   2    2.50    0.33
  -6   7   2    2.90    0.28
  -6   7   2    2.89    0.31
  -5  -7   2   40.38    1.93
   5  -7  -2   39.93    1.89
   5   7  -2   37.55    1.92
   5   7  -2   38.61    1.88
  -5   7   2   39.83    1.88
  -5   7   2   38.98    1.90
  -4   7   2   88.75    4.16
  -4   7   2   89.36    4.18
   4   7  -2   89.06    4.16
   4   7  -2   89.50    4.15
   4   7  -2   89.14    4.17
   3   7  -2   18.46    0.94
  -3   7   2   20.20    0.94
  -3   7   2   18.01    0.96
   2  -7  -2   17.17    0.93
  -2   7   2   17.38    0.85
   1  -7  -2  265.05   12.11
  -1  -7   2  268.75   12.06
  -1  -7   2  258.29   12.06
  -1   7   2  256.84   12.10
   0  -7   2    3.04    0.24
   0  -7  -2    3.35    0.25
   0  -7   2    3.01    0.24
   0   7   2    2.87    0.24
   1  -7   2   18.71    0.94
  -1  -7  -2   18.26    0.91
   1  -7   2   18.80    0.95
   1   7   2   19.13    0.91
   1   7   2   17.32    0.88
   2  -7   2    9.92    0.60
  -2   7  -2    9.18    0.50
   2   7   2    8.67    0.48
   3   7   2    8.96    0.48
  -3   7  -2    8.38    0.53
   3   7   2    8.93    0.59
  -3   7  -2    9.31    0.55
   4  -7   2   27.10    1.27
  -4  -7  -2   24.66    1.36
  -4   7  -2   26.45    1.30
  -4   7  -2   25.66    1.27
   4   7   2   24.12    1.39
   4   7   2   26.82    1.26
  -5  -7  -2   10.44    0.72
   5  -7   2   10.98    0.62
  -5   7  -2   11.94    0.65
  -5   7  -2   12.80    0.66
   5   7   2   10.42    0.61
   6  -7   2    1.26    0.22
  -6  -7  -2    1.89    0.37
  -6   7  -2    0.78    0.22
   6   7   2    1.46    0.23
  -6   7  -2    1.17    0.23
  -7  -8   2    2.26    0.28
   6  -8  -2    0.79    0.20
  -6  -8   2    0.52    0.22
  -6   8   2    0.67    0.21
  -6   8   2    0.87    0.17
  -5  -8   2    2.74    0.43
   5   8  -2    2.59    0.37
   5   8  -2    3.29    0.48
   5   8  -2    3.35    0.44
  -5   8   2    3.09    0.33
  -5   8   2    2.94    0.40
  -4   8   2   16.86    0.95
   4   8  -2   15.92    0.94
  -4   8   2   16.96    0.90
   4   8  -2   18.43    0.93
   4   8  -2   18.61    0.90
   3   8  -2    1.25    0.27
  -3   8   2    1.69    0.22
   3   8  -2    2.00    0.48
   3   8  -2    1.32    0.35
   3   8  -2    1.82    0.35
  -3   8   2    1.29    0.32
  -2   8   2    0.71    0.18
  -2   8   2    1.11    0.29
  -1  -8   2    0.35    0.11
   1  -8  -2    0.92    0.24
  -1  -8   2    0.69    0.20
  -1   8   2    0.62    0.15
  -1   8   2    0.49    0.15
   0  -8  -2    1.03    0.24
   0  -8   2    1.27    0.20
   0  -8   2    1.45    0.23
   0   8   2    1.26    0.22
   1  -8   2    6.32    0.43
  -1  -8  -2    6.04    0.43
   1  -8   2    6.74    0.46
   1   8   2    6.47    0.35
   1   8   2    6.89    0.41
  -1   8  -2    5.95    0.38
   2  -8   2   14.23    0.83
  -2   8  -2   14.46    0.71
   2   8   2   13.28    0.69
  -3   8  -2    2.03    0.31
   3   8   2    2.31    0.38
   3   8   2    2.60    0.23
   3   8   2    2.00    0.38
  -4   8  -2    0.43    0.22
   4   8   2    0.22    0.23
   4   8   2    0.02    0.15
  -4   8  -2    0.28    0.18
   5  -8   2   -0.07    0.17
  -5  -8  -2    0.39    0.33
  -5   8  -2   -0.37    0.20
  -5   8  -2    0.09    0.20
   5   8   2   -0.23    0.14
   6  -8   2    0.19    0.17
  -6   8  -2    0.32    0.18
  -6   8  -2    0.50    0.18
   6   8   2    0.62    0.19
   6  -9  -2    9.64    0.55
  -6  -9   2    8.94    0.54
  -6   9   2    7.93    0.53
  -6   9   2    9.01    0.49
  -5  -9   2    7.92    0.58
  -5   9   2    7.57    0.49
  -5   9   2    8.40    0.56
   5   9  -2    8.37    0.58
   5   9  -2    8.22    0.55
   5   9  -2    6.68    0.53
  -4   9   2   60.93    3.05
   4   9  -2   65.86    3.08
  -4   9   2   63.33    3.03
   4   9  -2   67.64    3.03
   3   9  -2    2.16    0.63
  -3   9   2    2.45    0.27
   3   9  -2    2.37    0.32
   3   9  -2    2.44    0.37
  -3   9   2    2.32    0.36
   3   9  -2    2.57    0.37
   2   9  -2   31.62    1.62
  -2   9   2   36.07    1.62
  -2   9   2   34.80    1.72
  -1  -9   2   45.77    2.20
   1  -9  -2   46.49    2.27
  -1  -9   2   48.34    2.21
  -1   9   2   47.06    2.20
   0  -9   2    5.83    0.39
   0  -9   2    6.12    0.44
   0  -9  -2    5.74    0.45
   0   9   2    5.87    0.41
   0   9   2    5.41    0.33
  -1  -9  -2   45.31    2.25
   1  -9   2   50.49    2.28
   1  -9   2   45.94    2.30
   1   9   2   46.14    2.23
   1   9   2   46.76    2.20
  -1   9  -2   47.52    2.21
   2  -9   2   18.70    1.13
  -2   9  -2   21.62    1.00
   3   9   2    4.85    0.51
  -3   9  -2    5.38    0.39
   3   9   2    5.32    0.42
   3   9   2    5.18    0.32
  -3   9  -2    4.67    0.43
   4   9   2    3.54    0.38
  -4   9  -2    3.29    0.33
  -4   9  -2    3.73    0.38
   4   9   2    3.91    0.66
   4   9   2    3.84    0.29
   5  -9   2    0.13    0.18
   5   9   2    0.01    0.17
  -5   9  -2    0.46    0.19
  -5   9  -2    0.02    0.22
   6  -9   2    0.15    0.18
  -6   9  -2   -0.02    0.15
  -6   9  -2    0.11    0.15
   6   9   2    0.47    0.21
   6 -10  -2    2.53    0.29
  -6 -10   2    2.21    0.33
  -6  10   2    3.03    0.25
  -6  10   2    2.62    0.37
  -5 -10   2   -0.16    0.27
   5  10  -2    0.33    0.24
   5  10  -2    0.19    0.26
  -5  10   2   -0.06    0.29
  -5  10   2   -0.04    0.18
  -4  10   2    8.31    0.54
   4  10  -2    8.64    0.55
  -4  10   2    9.63    0.54
   4  10  -2    9.05    0.58
   4  10  -2    8.65    0.55
  -4  10   2    8.26    0.65
   3  10  -2    5.75    0.46
   3  10  -2    5.37    0.44
  -3  10   2    5.19    0.37
   3  10  -2    4.60    0.41
   3  10  -2    5.30    0.70
  -3  10   2    5.65    0.44
   2  10  -2   12.78    0.68
  -1 -10   2   70.45    3.42
  -1 -10   2   74.45    3.45
  -1  10   2   77.98    3.41
  -1  10   2   73.21    3.49
   1  10  -2   70.53    3.41
   0 -10  -2    2.86    0.46
   0 -10   2    3.10    0.35
   0 -10   2    3.41    0.45
   0  10  -2    2.87    0.31
   0  10   2    3.70    0.38
   0  10   2    3.11    0.23
  -1 -10  -2   38.68    2.04
   1 -10   2   46.00    2.07
   1  10   2   40.77    1.97
   1  10   2   41.24    2.02
  -1  10  -2   42.37    1.98
  -2  10  -2    0.21    0.22
   2  10   2    0.35    0.19
  -2  10  -2    0.23    0.17
   2  10   2    0.36    0.25
   2  10   2    0.30    0.13
  -3  10  -2    0.62    0.20
   3  10   2    0.94    0.22
  -3  10  -2    1.37    0.36
   3  10   2    0.73    0.20
   3  10   2    0.71    0.30
  -4  10  -2   29.86    1.49
  -4  10  -2   30.08    1.45
   4  10   2   31.76    1.46
   4  10   2   26.88    1.49
   4  10   2   30.37    1.45
   5 -10   2    1.93    0.26
   5  10   2    2.54    0.26
  -5  10  -2    2.81    0.34
  -5  10  -2    2.78    0.30
   6 -10   2   11.14    0.60
   6  10   2   11.59    0.63
  -6  10  -2   10.80    0.57
  -6  10  -2   11.22    0.60
   6 -11  -2    2.96    0.30
  -6  11   2    3.27    0.24
  -6  11   2    3.32    0.49
  -5  11   2    0.98    0.33
  -5  11   2    1.90    0.27
   5  11  -2    1.41    0.34
   5  11  -2    0.95    0.26
   4  11  -2    1.82    0.32
  -4  11   2    2.11    0.62
  -4  11   2    2.55    0.32
  -4  11   2    2.32    0.31
   4  11  -2    2.39    0.35
   4  11  -2    2.18    0.42
  -3  11   2    0.25    0.23
   3  11  -2    0.29    0.23
   3  11  -2    0.08    0.26
   3  11  -2    0.27    0.18
  -3  11   2    0.30    0.20
   2  11  -2    5.06    0.44
   2  11  -2    5.34    0.39
  -2  11   2    4.72    0.33
   2  11  -2    4.98    0.41
  -1 -11   2    6.07    0.48
  -1 -11   2    6.05    0.54
  -1  11   2    6.09    0.34
  -1  11   2    6.15    0.53
   1  11  -2    5.18    0.39
   0 -11   2    0.43    0.22
   0 -11   2    0.74    0.34
   0 -11  -2    0.07    0.30
   0  11   2    0.37    0.24
   0  11  -2    0.38    0.21
   0  11   2    0.38    0.12
   1 -11   2    0.27    0.29
  -1 -11  -2    0.31    0.46
   1  11   2    0.47    0.15
  -1  11  -2    0.21    0.20
   1  11   2    0.07    0.22
   2  11   2    0.43    0.19
  -2  11  -2    0.39    0.20
   2  11   2    0.43    0.14
   2  11   2    0.16    0.22
  -2  11  -2    0.31    0.17
  -2  11  -2   -0.12    0.33
   3  11   2   14.84    0.83
   3  11   2   15.16    0.78
  -3  11  -2   15.01    0.85
  -3  11  -2   15.51    0.81
   3  11   2   15.06    0.80
   4  11   2   38.75    1.85
   4  11   2   39.13    1.82
  -4  11  -2   38.96    1.86
   4  11   2   36.02    1.82
  -4  11  -2   37.43    1.82
   5 -11   2    3.54    0.30
   5  11   2    3.80    0.31
  -5  11  -2    3.74    0.30
  -5  11  -2    2.96    0.36
   6 -11   2    1.11    0.26
  -6  11  -2    0.93    0.28
   6 -12  -2    0.96    0.26
  -6 -12   2    1.49    0.38
  -6  12   2    0.88    0.17
  -5  12   2    1.14    0.25
   5  12  -2    1.39    0.32
   5  12  -2    1.19    0.31
  -5  12   2    1.82    0.47
  -4  12   2   14.77    1.02
  -4  12   2   17.66    0.90
   4  12  -2   18.25    0.92
   4  12  -2   18.21    0.90
   3  12  -2    5.94    0.42
   3  12  -2    5.29    0.43
   3  12  -2    6.24    0.48
  -3  12   2    6.41    0.46
  -3  12   2    5.91    0.41
  -2  12   2    0.67    0.19
   2  12  -2    0.44    0.19
   2  12  -2    0.37    0.24
   2  12  -2    1.23    0.33
  -2  12   2    0.84    0.34
  -1  12   2   11.57    0.58
   1  12  -2   10.55    0.61
   0 -12   2   19.14    1.09
   0  12   2   18.75    1.11
   0  12   2   19.56    0.95
   0  12  -2   19.30    0.96
  -1  12  -2   11.65    0.63
   1  12   2   11.60    0.65
   1  12   2   12.31    0.61
   1  12   2   10.88    0.65
  -2  12  -2    6.20    0.56
   2  12   2    5.69    0.41
   2  12   2    6.33    0.39
  -2  12  -2    6.42    0.41
  -2  12  -2    5.80    0.42
   2  12   2    6.22    0.46
  -3  12  -2    9.02    0.54
  -3  12  -2    8.86    0.64
   3  12   2    9.51    0.53
   3  12   2    9.46    0.56
   3  12   2    9.79    0.59
   4  12   2   18.68    0.94
  -4  12  -2   18.46    0.94
   4  12   2   16.97    0.94
   4  12   2   19.07    0.98
  -4  12  -2   19.48    1.01
   5 -12   2    3.73    0.31
  -5  12  -2    3.98    0.28
  -5  12  -2    3.64    0.36
   5  12   2    4.07    0.32
  -6  12  -2    8.75    0.44
  -6  12  -2    8.08    0.47
   6 -13  -2    0.51    0.20
  -6  13   2    0.91    0.16
  -5 -13   2    0.12    0.31
   5  13  -2    0.12    0.17
   5  13  -2    0.10    0.21
  -5  13   2    0.38    0.15
   4  13  -2    3.02    0.31
   4  13  -2    2.57    0.34
  -4  13   2    3.35    0.34
  -4  13   2    2.58    0.32
   3  13  -2    0.90    0.23
  -3  13   2    1.06    0.26
  -3  13   2    1.27    0.27
   3  13  -2    1.25    0.31
   3  13  -2    1.01    0.20
  -2  13   2    0.61    0.33
   2  13  -2    0.17    0.23
   2  13  -2    0.30    0.19
  -2  13   2    0.08    0.16
   2  13  -2    0.27    0.24
   1  13  -2   43.37    2.09
   1  13  -2   43.68    2.11
   1  13  -2   45.30    2.08
  -1  13   2   42.12    2.11
  -1  13   2   45.70    2.08
   0 -13   2    1.45    0.44
   0  13   2    1.73    0.20
   0  13  -2    1.56    0.27
   0  13   2    1.83    0.32
  -1  13  -2    1.13    0.25
  -1  13  -2    1.43    0.43
  -1  13  -2    0.97    0.28
   1  13   2    1.24    0.30
   1  13   2    1.16    0.19
   1  13   2    1.55    0.30
   2  13   2   30.91    1.49
  -2  13  -2   29.00    1.55
   2  13   2   31.70    1.48
  -2  13  -2   30.60    1.49
   2  13   2   31.94    1.49
  -2  13  -2   29.65    1.48
   3  13   2   18.91    0.97
  -3  13  -2   17.84    0.95
  -3  13  -2   18.63    1.02
   3  13   2   19.27    0.95
   3  13   2   19.16    0.96
   4  13   2   -0.02    0.24
  -4  13  -2    0.02    0.17
   4  13   2    0.31    0.18
  -4  13  -2    0.23    0.27
   4  13   2    0.00    0.18
   5 -13   2    1.26    0.24
  -5  13  -2    1.47    0.30
   5  13   2    1.61    0.39
  -5  13  -2    1.43    0.20
  -6  13  -2    0.28    0.12
  -6  14   2    0.05    0.11
   5  14  -2    5.23    0.35
   5  14  -2    4.43    0.38
  -5  14   2    4.98    0.34
  -4 -14   2   23.86    1.36
  -4  14   2   24.95    1.29
  -4  14   2   27.44    1.28
   4  14  -2   27.02    1.27
   4  14  -2   25.67    1.28
   3  14  -2    6.23    0.43
  -3  14   2    6.53    0.43
  -3  14   2    6.09    0.48
   3  14  -2    6.38    0.46
   2  14  -2   15.92    0.88
   2  14  -2   17.11    0.87
  -2  14   2   16.48    0.94
  -2  14   2   17.36    0.86
   2  14  -2   17.04    0.88
   1  14  -2   10.82    0.61
   1  14  -2   11.29    0.66
  -1  14   2   10.75    0.69
  -1  14   2   10.97    0.58
   1  14  -2   11.22    0.64
   0  14   2   39.15    1.79
   0  14  -2   33.62    1.80
   0  14  -2   35.52    1.81
   0  14  -2   39.96    1.78
   0  14   2   34.39    1.80
   0  14   2   40.07    1.77
   1  14   2    0.15    0.14
   1  14   2    0.31    0.20
  -1  14  -2   -0.15    0.24
  -1  14  -2   -0.03    0.18
   1  14   2    0.05    0.21
  -2  14  -2    1.78    0.36
  -2  14  -2    2.16    0.29
  -2  14  -2    2.14    0.52
   2  14   2    2.14    0.25
  -3  14  -2   15.67    0.93
   3  14   2   18.39    0.87
  -3  14  -2   16.00    0.85
   3  14   2   15.05    0.86
   3  14   2   17.03    0.84
  -4  14  -2    0.50    0.28
  -4  14  -2    0.38    0.19
   4  14   2   -0.20    0.23
   4  14   2    0.45    0.17
   4  14   2    0.14    0.18
   5 -14   2   -0.01    0.17
  -5  14  -2   -0.11    0.20
   5  14   2    0.02    0.20
  -5  14  -2    0.04    0.12
  -6  15   2    0.26    0.10
  -5  15   2    0.60    0.16
   5  15  -2    0.43    0.15
   5  15  -2    0.63    0.20
   4  15  -2    7.36    0.48
  -4  15   2    6.95    0.48
  -4  15   2    8.38    0.50
   4  15  -2    8.11    0.47
  -3  15   2   16.07    0.86
  -3  15   2   17.09    0.87
   3  15  -2   15.87    0.86
   3  15  -2   16.03    0.84
   2  15  -2   22.56    1.10
   2  15  -2   20.79    1.13
  -2  15   2   20.94    1.16
   2  15  -2   22.84    1.12
  -2  15   2   23.71    1.11
   1  15  -2   10.97    0.64
   1  15  -2   11.22    0.65
  -1  15   2   11.07    0.67
  -1  15   2   11.27    0.60
   1  15  -2   11.09    0.64
   0  15  -2    2.02    0.33
   0  15   2    1.93    0.22
   0  15  -2    2.86    0.44
   0  15   2    2.00    0.34
   0  15  -2    1.95    0.46
   0  15   2    1.99    0.39
  -1  15  -2    7.74    0.59
   1  15   2    8.48    0.51
   1  15   2    7.77    0.51
   1  15   2    8.65    0.48
  -1  15  -2    8.43    0.51
   2  15   2    8.78    0.53
  -2  15  -2    8.36    0.53
  -2  15  -2    8.33    0.70
   2  15   2    9.71    0.54
  -2  15  -2    9.53    0.56
   2  15   2    9.61    0.53
   3  15   2    1.52    0.31
  -3  15  -2    1.84    0.31
   3  15   2    1.62    0.26
  -3  15  -2    2.19    0.46
   3  15   2    1.98    0.26
  -4  15  -2    1.92    0.39
   4  15   2    2.59    0.38
  -4  15  -2    2.95    0.27
   4  15   2    3.34    0.26
   4  15   2    2.02    0.29
   5 -15   2    0.16    0.20
   5  15   2   -0.02    0.24
  -5  15  -2    0.07    0.12
  -5  15  -2    0.60    0.26
  -5  16   2    0.34    0.14
   5  16  -2    0.27    0.12
   5  16  -2    0.34    0.17
  -4  16   2    1.22    0.30
  -4  16   2    0.98    0.26
   4  16  -2    1.17    0.27
   4  16  -2    1.15    0.24
  -3  16   2    0.98    0.26
   3  16  -2    0.67    0.20
   3  16  -2    1.17    0.25
  -3  16   2    1.90    0.38
  -2  16   2    5.27    0.59
   2  16  -2    6.10    0.42
  -2  16   2    5.91    0.39
   2  16  -2    5.41    0.41
  -1  16   2    1.51    0.23
   1  16  -2    1.43    0.35
   1  16  -2    2.15    0.42
  -1  16   2    2.46    0.40
   0  16   2    2.06    0.43
   0  16  -2    3.12    0.46
   0  16   2    2.91    0.44
   0  16   2    3.07    0.26
   0  16  -2    3.18    0.36
   0  16  -2    3.11    0.39
  -1  16  -2    0.84    0.46
   1  16   2    0.31    0.17
   1  16   2    0.00    0.20
   1  16   2    0.58    0.21
  -1  16  -2    0.18    0.23
   2  16   2    0.46    0.19
  -2  16  -2    0.52    0.23
   2  16   2    0.48    0.21
   2  16   2    0.34    0.18
  -2  16  -2    0.38    0.20
  -3  16  -2   15.16    0.91
   3  16   2   15.15    0.81
  -3  16  -2   16.41    0.81
   3  16   2   15.32    0.81
   3  16   2   15.85    0.80
   4  16   2    4.44    0.39
   4  16   2    5.80    0.34
  -4  16  -2    5.02    0.47
  -4  16  -2    5.63    0.35
   4  16   2    5.73    0.38
   5 -16   2    0.41    0.20
  -5  16  -2    0.08    0.11
   5  17  -2    6.51    0.40
   5  17  -2    6.55    0.37
  -5  17   2    7.15    0.39
   4  17  -2    0.10    0.19
  -4  17   2    0.22    0.17
   4  17  -2    0.09    0.13
   3  17  -2   35.01    1.66
   3  17  -2   34.87    1.64
  -3  17   2   30.66    1.65
  -3  17   2   36.10    1.66
   2  17  -2    1.22    0.28
   2  17  -2    1.37    0.29
  -1  17   2   23.16    1.25
   1  17  -2   25.46    1.24
  -1  17   2   26.42    1.23
   1  17  -2   24.91    1.23
   1  17  -2   23.93    1.24
   0  17  -2    0.37    0.30
   0  17   2    0.14    0.16
   0  17   2    0.21    0.22
   0  17   2    0.94    0.30
   0  17  -2    0.53    0.27
   1  17   2   17.02    0.84
  -1  17  -2   14.83    0.91
  -1  17  -2   17.08    0.87
   1  17   2   16.27    0.85
   1  17   2   15.35    0.83
  -2  17  -2   85.82    3.84
   2  17   2   83.12    3.85
   2  17   2   81.04    3.84
  -2  17  -2   78.25    3.85
   2  17   2   82.42    3.83
   3  17   2    2.22    0.25
  -3  17  -2    2.34    0.30
   3  17   2    2.08    0.28
   3  17   2    1.52    0.29
   4  17   2   20.66    1.05
  -4  17  -2   22.26    1.05
   4  17   2   21.49    1.04
  -5  17  -2    0.36    0.18
   5 -18  -2    1.96    0.25
   5  18  -2    1.56    0.21
  -5  18   2    1.72    0.21
  -4  18   2    0.93    0.19
   4  18  -2    0.68    0.19
   4  18  -2    1.05    0.24
   3  18  -2    1.19    0.24
  -3  18   2    0.95    0.24
  -3  18   2    1.03    0.31
   3  18  -2    1.01    0.26
   2  18  -2    1.41    0.28
  -2  18   2    2.02    0.25
   2  18  -2    1.96    0.30
  -1  18   2    0.10    0.27
   1  18  -2   -0.02    0.39
   1  18  -2   -0.11    0.25
   0  18   2    3.12    0.36
   0  18  -2    4.52    0.46
   0  18   2    4.20    0.31
   0  18  -2    3.77    0.42
   1  18   2   10.35    0.57
   1  18   2    9.76    0.57
  -1  18  -2    9.77    0.64
   1  18   2    9.80    0.58
  -2  18  -2   -0.17    0.23
   2  18   2    0.11    0.20
   2  18   2    0.26    0.17
  -2  18  -2   -0.11    0.24
   2  18   2    0.23    0.19
   3  18   2   15.30    0.83
  -3  18  -2   15.42    0.82
   3  18   2   17.17    0.83
   4 -18   2    1.84    0.29
  -4  18  -2    2.08    0.22
   4  18   2    2.02    0.25
   4  18   2    1.93    0.32
  -5  19   2    3.87    0.28
   5  19  -2    3.74    0.23
   5  19  -2    3.06    0.26
   4  19  -2    2.07    0.21
   4  19  -2    2.03    0.23
  -4  19   2    2.02    0.27
   3  19  -2    6.10    0.45
  -3  19   2    6.00    0.47
   3  19  -2    5.60    0.42
   2  19  -2    1.45    0.26
  -2  19   2    0.78    0.24
   2  19  -2    0.63    0.22
  -1  19   2   15.29    0.86
   1  19  -2   17.99    0.89
   1  19  -2   17.84    0.88
  -1  19   2   16.90    0.90
   0  19   2   37.80    1.66
   0  19  -2   32.68    1.67
   0  19  -2   33.63    1.67
   0  19   2   33.17    1.66
   1  19   2    0.38    0.19
  -1  19  -2    0.59    0.28
   1  19   2    0.17    0.19
   1  19   2    0.44    0.17
   2  19   2   48.78    2.45
   2  19   2   53.46    2.45
  -2  19  -2   53.31    2.45
   2  19   2   51.83    2.43
   3  19   2    0.79    0.24
   3  19   2    1.25    0.18
  -3  19  -2    1.50    0.26
   3  19   2    1.84    0.28
   4 -19   2    7.51    0.54
   4  19   2    8.33    0.55
   4  19   2    8.81    0.46
  -4  19  -2    9.00    0.46
   4  20  -2    0.95    0.19
   4  20  -2    1.11    0.16
  -4  20   2    1.00    0.23
   3  20  -2    1.74    0.21
  -3  20   2    1.32    0.25
   3  20  -2    1.58    0.24
   2  20  -2    0.29    0.19
  -2  20   2    0.00    0.18
   2  20  -2    0.40    0.18
   1  20  -2    0.03    0.21
  -1  20   2   -0.07    0.18
  -1  20   2    0.20    0.26
   1  20  -2   -0.18    0.23
   0  20   2    0.09    0.18
   0  20  -2    0.62    0.32
   0  20   2   -0.25    0.21
   1  20   2    8.56    0.49
   1  20   2    8.91    0.48
  -1  20  -2    6.72    0.54
   1  20   2    7.80    0.49
   2  20   2    0.34    0.13
   2  20   2    0.33    0.19
  -2  20  -2    0.38    0.24
  -2  20  -2    0.01    0.28
   2  20   2    0.65    0.23
   3  20   2    0.82    0.22
  -3  20  -2    0.48    0.18
   3  20   2    0.60    0.16
   3  20   2    0.45    0.14
   4  20   2    0.06    0.14
  -4  20  -2    0.04    0.13
   4  21  -2    1.30    0.16
   4  21  -2    1.43    0.22
   3  21  -2    1.89    0.23
  -3  21   2    1.87    0.26
   3  21  -2    2.32    0.21
  -2  21   2    1.20    0.25
   2  21  -2    0.85    0.21
   2  21  -2    0.86    0.25
  -1  21   2    7.48    0.54
   1  21  -2    8.79    0.52
  -1  21   2    8.37    0.49
   1  21  -2    8.11    0.49
   0  21   2    4.45    0.36
   1  21   2    4.16    0.33
   1  21   2    4.71    0.38
   1  21   2    4.64    0.36
   2  21   2   16.99    0.87
   2  21   2   16.97    0.85
   2  21   2   16.88    0.83
   3  21   2    0.44    0.14
   3  21   2    0.51    0.27
  -3  21  -2    0.63    0.32
   3  22  -2    0.32    0.14
  -3  22   2   -0.03    0.19
   3  22  -2    0.19    0.11
   2  22  -2    6.05    0.38
   2  22  -2    5.85    0.36
   1  22  -2    1.47    0.32
  -1  22   2    1.53    0.26
   1  22  -2    0.87    0.23
   0  22   2    4.67    0.37
   0  22   2    5.27    0.37
   1  22   2    1.92    0.25
   1  22   2    2.01    0.29
   2  22   2    0.18    0.24
   2  22   2    0.11    0.13
   3  22   2    0.16    0.13
   3  23  -2   -0.02    0.11
   3  23  -2    0.01    0.12
   2  23  -2   -0.03    0.14
  -2  23   2    0.01    0.17
   2  23  -2   -0.08    0.15
   1  23  -2    2.31    0.31
  -1  23   2    2.81    0.32
   0  23   2   -0.02    0.21
   0  23   2    0.01    0.18
   1  23   2   -0.09    0.15
   1  23   2   -0.32    0.23
   2  23   2    3.80    0.26
   2  23   2    3.47    0.49
   3  23   2    0.13    0.11
   2  24  -2    5.60    0.34
   2  24  -2    5.11    0.34
   1  24  -2    2.70    0.37
  -1  24   2    2.82    0.35
   0  24   2    1.24    0.31
   0  24   2    0.44    0.27
   1  24   2    0.71    0.19
   1  24   2    0.77    0.31
   2  24   2    0.11    0.11
   1  25   2    5.90    0.35
  -7   0   3    0.06    0.14
  -6   0   3    0.01    0.20
   6   0  -3    0.14    0.24
   5   0  -3    0.44    0.21
  -5   0   3    0.09    0.27
  -5   0   3    0.05    0.23
  -4   0   3    0.33    0.27
   4   0  -3   -0.26    0.17
   3   0  -3    0.13    0.26
  -3   0   3    0.12    0.18
  -2   0   3   -0.04    0.09
   2   0  -3   -0.05    0.12
   1   0  -3    0.02    0.08
  -1   0   3   -0.02    0.06
   0   0  -3    0.01    0.06
   0   0   3   -0.01    0.07
  -1   0  -3   -0.05    0.07
   1   0   3    0.10    0.08
   2   0   3    0.10    0.11
   3   0   3   -0.05    0.35
   3   0   3    0.09    0.11
   4   0   3    0.29    0.13
  -4   0  -3    0.15    0.22
  -5   0  -3    0.22    0.22
   5   0   3    0.06    0.14
   6   0   3   -0.04    0.14
  -6   0  -3   -0.05    0.18
  -7  -1   3    4.12    0.29
  -7   1   3    3.82    0.29
   6  -1  -3    3.42    0.36
  -6  -1   3    4.01    0.36
  -6   1   3    3.90    0.36
   6   1  -3    3.04    0.39
   5  -1  -3    9.86    0.58
  -5  -1   3    8.96    0.71
  -5  -1   3   10.57    0.63
   5   1  -3   11.70    0.60
  -5   1   3   10.35    0.63
  -5   1   3    9.74    0.62
   4  -1  -3    0.00    0.18
  -4  -1   3    0.47    0.31
   4   1  -3   -0.27    0.44
  -4   1   3    0.07    0.25
  -4   1   3    0.03    0.25
   4   1  -3    0.14    0.18
   3  -1  -3   41.94    2.00
   3   1  -3   39.43    1.95
   3   1  -3   39.33    1.91
  -3   1   3   41.81    1.97
   2  -1  -3    1.07    0.20
  -2  -1   3    1.13    0.19
  -2   1   3    1.18    0.20
   2   1  -3    1.01    0.20
  -1  -1   3   11.04    0.59
   1   1  -3   12.56    0.59
   0  -1   3  119.08    5.63
   0  -1  -3  120.78    5.63
   0   1  -3  125.81    5.63
  -1  -1  -3   18.68    0.94
   1  -1   3   19.73    0.95
  -1   1  -3   19.61    0.95
   1   1   3   19.59    0.95
   2  -1   3   68.18    3.06
   2  -1   3   60.83    3.01
  -2  -1  -3   66.34    3.05
   2   1   3   62.50    3.01
   2   1   3   66.21    3.05
   3  -1   3    6.60    0.68
   3  -1   3    6.34    0.36
   3   1   3    4.95    0.71
   3   1   3    6.17    0.36
  -3   1  -3    7.68    0.55
   4  -1   3   51.09    2.40
  -4  -1  -3   49.54    2.43
   4   1   3   52.25    2.41
  -4   1  -3   50.77    2.43
  -5  -1  -3    0.42    0.23
   5  -1   3    0.02    0.14
  -5   1  -3    0.01    0.19
   5   1   3    0.20    0.15
  -6  -1  -3    0.56    0.20
   6  -1   3    0.72    0.21
   6   1   3    0.49    0.16
  -6   1  -3    0.43    0.20
  -7  -2   3    0.28    0.15
  -7   2   3    0.15    0.14
   6  -2  -3    1.26    0.30
  -6  -2   3    2.58    0.31
  -6   2   3    2.00    0.30
  -5  -2   3    4.71    0.42
  -5  -2   3    4.50    0.53
   5  -2  -3    4.98    0.37
  -5   2   3    4.36    0.42
   5   2  -3    4.78    0.40
  -5   2   3    4.36    0.43
  -4  -2   3   21.62    1.27
   4  -2  -3   25.28    1.19
   4   2  -3   24.02    1.30
  -4   2   3   24.39    1.22
  -4   2   3   25.65    1.24
   4   2  -3   24.65    1.19
   3  -2  -3    3.58    0.54
   3   2  -3    3.81    0.33
  -3   2   3    3.88    0.41
   2  -2  -3    0.29    0.12
  -2  -2   3    0.38    0.11
  -2   2   3    0.32    0.12
   2   2  -3    0.37    0.12
  -1  -2   3  118.91    5.80
   1  -2  -3  139.65    5.86
  -1   2   3  118.90    5.82
   1   2  -3  126.00    5.81
   0  -2  -3  241.89   11.15
   0  -2   3  240.63   11.15
   0   2  -3  249.03   11.15
   0   2   3  237.15   11.15
   1  -2   3  168.45    7.86
  -1  -2  -3  163.75    7.85
  -1   2  -3  176.63    7.87
   1   2   3  172.24    7.86
  -2  -2  -3   34.07    1.62
   2  -2   3   31.98    1.57
   2  -2   3   34.65    1.62
   2   2   3   32.60    1.57
   2   2   3   33.30    1.61
   3  -2   3   22.96    1.38
   3  -2   3   25.70    1.21
   3   2   3   26.71    1.21
  -3   2  -3   24.84    1.26
   4  -2   3    2.10    0.23
  -4  -2  -3    1.80    0.39
  -4   2  -3    1.41    0.40
  -4   2  -3    1.86    0.44
   4   2   3    2.10    0.22
  -5  -2  -3    3.46    0.39
   5  -2   3    3.69    0.30
  -5   2  -3    4.04    0.36
   5   2   3    3.58    0.29
   6  -2   3    3.32    0.28
  -6  -2  -3    2.76    0.33
   6   2   3    3.15    0.28
  -6   2  -3    2.85    0.31
  -7  -3   3    0.19    0.15
  -7   3   3    0.29    0.14
  -6  -3   3   23.36    1.12
   6  -3  -3   19.65    1.08
  -6   3   3   22.41    1.10
  -5  -3   3    6.03    0.46
   5  -3  -3    5.56    0.39
  -5   3   3    5.11    0.44
  -5   3   3    6.05    0.46
   5   3  -3    5.74    0.44
  -4  -3   3    0.18    0.39
  -4   3   3    0.36    0.29
   4   3  -3    0.37    0.21
   4   3  -3    1.25    0.35
  -4   3   3    0.56    0.25
   3  -3  -3   10.39    0.80
   3   3  -3   10.49    0.59
  -3   3   3   11.26    0.58
  -3   3   3   10.91    0.69
  -2  -3   3    1.86    0.19
   2  -3  -3    2.11    0.25
  -2   3   3    1.93    0.23
   2   3  -3    1.89    0.19
  -1  -3   3    5.70    0.33
   1  -3  -3    6.18    0.35
   1   3  -3    6.39    0.33
  -1   3   3    5.46    0.34
   0  -3  -3   25.88    1.24
   0  -3   3   24.50    1.21
   0   3  -3   25.83    1.21
   0   3   3   24.73    1.21
  -1  -3  -3   46.63    2.25
   1  -3   3   46.86    2.26
  -1   3  -3   49.34    2.26
   1   3   3   48.68    2.25
   2  -3   3  116.55    5.29
  -2  -3  -3  114.09    5.27
   2   3   3  110.70    5.26
   2   3   3  111.74    5.23
   3  -3   3    8.22    0.79
   3  -3   3    8.56    0.46
   3   3   3    8.78    0.46
  -3   3  -3    7.95    0.54
  -4  -3  -3    4.65    0.51
   4  -3   3    5.98    0.37
   4   3   3    5.94    0.36
  -4   3  -3    5.59    0.47
  -4   3  -3    6.20    0.53
  -5  -3  -3   14.78    0.80
   5  -3   3   13.21    0.73
  -5   3  -3   13.85    0.80
  -5   3  -3   14.51    0.77
   5   3   3   13.35    0.73
  -6  -3  -3    0.24    0.21
  -6   3  -3    0.13    0.19
  -7  -4   3    5.77    0.36
  -7   4   3    5.91    0.35
  -6  -4   3   10.03    0.57
   6  -4  -3    8.34    0.54
  -5  -4   3   25.28    1.26
   5  -4  -3   25.82    1.22
   5   4  -3   24.51    1.23
   5   4  -3   23.58    1.31
  -5   4   3   23.77    1.24
  -5   4   3   24.34    1.23
   4   4  -3   23.93    1.27
  -4   4   3   24.63    1.26
   4   4  -3   23.71    1.20
  -4   4   3   25.73    1.22
  -3   4   3   70.71    3.25
  -3   4   3   68.95    3.34
   2  -4  -3   52.04    2.48
  -1  -4   3    0.34    0.09
   1  -4  -3    0.30    0.10
  -1   4   3    0.46    0.13
   1   4  -3    0.33    0.09
   0  -4  -3   18.10    0.91
   0  -4   3   18.70    0.91
   0   4  -3   18.96    0.92
   0   4   3   18.76    0.92
  -1  -4  -3   10.31    0.55
   1  -4   3   10.24    0.55
   1   4   3   10.61    0.56
  -2  -4  -3   17.24    0.92
   2  -4   3   17.99    0.92
   2   4   3   16.97    0.84
   2   4   3   17.37    0.91
   3  -4   3   16.92    0.84
  -3   4  -3   17.66    0.89
  -3   4  -3   15.80    0.90
   3   4   3   17.20    0.84
  -4  -4  -3    2.48    0.37
   4  -4   3    1.97    0.24
  -4   4  -3    2.25    0.30
   4   4   3    2.18    0.23
  -4   4  -3    2.11    0.29
  -5  -4  -3    7.58    0.55
   5  -4   3    7.32    0.45
   5   4   3    6.98    0.45
  -5   4  -3    8.19    0.53
  -5   4  -3    7.66    0.50
  -6  -4  -3   57.20    2.77
   6  -4   3   61.33    2.76
   6   4   3   59.02    2.76
  -6   4  -3   57.88    2.77
  -7  -5   3    0.38    0.15
  -7   5   3    0.50    0.21
  -7   5   3    0.14    0.14
   6  -5  -3    2.65    0.33
  -6   5   3    3.03    0.30
  -6   5   3    2.65    0.32
   5  -5  -3   55.83    2.48
  -5  -5   3   52.94    2.49
  -5   5   3   49.64    2.47
   5   5  -3   49.62    2.49
  -5   5   3   50.59    2.45
  -4   5   3    7.48    0.48
   4   5  -3    8.01    0.55
   4   5  -3    7.08    0.49
  -4   5   3    7.14    0.56
   4   5  -3    6.78    0.68
  -3   5   3    0.36    0.27
  -3   5   3    0.32    0.15
   2  -5  -3    3.77    0.33
  -2   5   3    2.87    0.25
  -2   5   3    3.17    0.30
  -1  -5   3    0.13    0.09
   1  -5  -3    0.24    0.11
  -1   5   3    0.18    0.09
   1   5  -3    0.03    0.08
   0  -5   3  162.38    7.49
   0  -5  -3  162.81    7.49
   0   5   3  159.89    7.49
   0   5  -3  163.50    7.49
  -1  -5  -3   71.73    3.32
   1   5   3   74.56    3.32
   1   5   3   66.93    3.29
   2  -5   3    1.33    0.32
  -2  -5  -3    1.42    0.39
   2   5   3    1.69    0.17
   2   5   3    1.45    0.32
   3  -5   3    7.65    0.43
   3   5   3    8.37    0.43
  -3   5  -3    7.80    0.49
  -3   5  -3    6.66    0.51
   3   5   3    7.15    0.50
   4  -5   3    0.90    0.20
  -4  -5  -3    1.73    0.38
  -4   5  -3    1.53    0.29
  -4   5  -3    1.36    0.32
   4   5   3    1.44    0.21
   5  -5   3    6.23    0.42
  -5  -5  -3    6.83    0.53
  -5   5  -3    6.76    0.48
   5   5   3    6.74    0.42
  -5   5  -3    7.69    0.48
   6  -5   3    2.78    0.27
  -6  -5  -3    3.65    0.43
  -6   5  -3    3.02    0.29
   6   5   3    2.47    0.26
  -7  -6   3    6.63    0.40
  -7   6   3    6.97    0.40
  -6  -6   3    3.45    0.34
   6  -6  -3    3.14    0.33
  -6   6   3    3.46    0.34
  -6   6   3    3.40    0.30
  -5  -6   3   18.94    1.01
   5  -6  -3   21.20    1.00
  -5   6   3   17.55    0.99
  -5   6   3   18.97    0.97
   5   6  -3   17.41    1.03
  -4   6   3   37.22    1.75
   4   6  -3   36.27    1.77
   4   6  -3   35.94    1.79
  -4   6   3   36.24    1.79
  -3   6   3   14.62    0.72
  -3   6   3   13.03    0.92
   2  -6  -3  110.26    5.28
  -2   6   3  111.45    5.20
  -2   6   3  116.12    5.27
  -1  -6   3    1.14    0.19
   1  -6  -3    1.67    0.21
  -1   6   3    1.29    0.18
   0  -6  -3    9.43    0.53
   0  -6   3    9.36    0.51
   0   6   3    9.34    0.51
   1  -6   3  173.61    7.88
  -1  -6  -3  169.36    7.86
   1   6   3  160.82    7.83
   1   6   3  176.55    7.87
  -2  -6  -3   63.27    3.04
   2  -6   3   65.41    3.07
   2   6   3   65.17    2.99
   2   6   3   63.52    3.04
   3   6   3   84.41    3.90
  -3   6  -3   85.58    3.92
   3   6   3   83.78    3.90
  -3   6  -3   81.22    3.90
   4  -6   3   21.03    1.02
  -4   6  -3   18.78    1.02
  -4   6  -3   20.40    1.04
   4   6   3   20.78    1.01
  -5  -6  -3    2.84    0.45
   5  -6   3    2.57    0.28
  -5   6  -3    2.84    0.34
   5   6   3    2.65    0.27
   6  -6   3   18.30    0.88
   6   6   3   16.82    0.87
  -6   6  -3   17.29    0.89
  -7  -7   3    0.27    0.16
  -7   7   3    0.54    0.22
  -7   7   3    0.05    0.17
  -6  -7   3    1.61    0.30
   6  -7  -3    1.93    0.30
  -6   7   3    1.86    0.25
  -6   7   3    1.24    0.29
  -5  -7   3    4.91    0.46
  -5   7   3    5.04    0.40
  -5   7   3    5.02    0.46
   5   7  -3    5.63    0.50
   4   7  -3    8.33    0.56
  -4   7   3    7.43    0.62
  -4   7   3    8.30    0.50
   4   7  -3    8.04    0.58
   3   7  -3    1.17    0.28
  -3   7   3    1.54    0.37
   3   7  -3    1.77    0.49
  -3   7   3    1.29    0.23
  -2   7   3   15.22    0.86
  -2   7   3   16.27    0.78
  -1  -7   3   84.58    3.78
   1  -7  -3   84.75    3.82
  -1   7   3   82.55    3.81
  -1   7   3   73.14    3.76
   0  -7  -3    3.03    0.32
   0  -7   3    3.32    0.28
   0   7   3    3.24    0.24
   0   7   3    3.21    0.28
   1  -7   3   24.39    1.20
  -1  -7  -3   23.56    1.20
   1   7   3   25.09    1.20
   1   7   3   23.07    1.14
  -2  -7  -3   59.63    2.97
   2  -7   3   64.09    3.01
   2   7   3   61.91    2.97
   2   7   3   65.02    2.92
  -3   7  -3    1.21    0.25
   3   7   3    0.71    0.23
   3   7   3    1.14    0.18
  -3   7  -3    1.24    0.27
   4  -7   3   -0.10    0.16
  -4   7  -3    0.05    0.21
   4   7   3    0.00    0.14
  -4   7  -3    0.27    0.20
  -5  -7  -3    0.70    0.51
   5  -7   3    0.88    0.23
  -5   7  -3    1.20    0.29
  -5   7  -3    0.61    0.23
   5   7   3    0.48    0.18
   6  -7   3    0.08    0.17
  -6   7  -3    0.21    0.15
   6   7   3    0.32    0.17
  -6   7  -3    0.24    0.25
  -7  -8   3    6.65    0.40
   6  -8  -3    1.85    0.30
  -6  -8   3    2.20    0.30
  -6   8   3    2.17    0.24
  -6   8   3    1.53    0.30
  -5  -8   3    2.27    0.39
   5   8  -3    2.14    0.42
   5   8  -3    2.36    0.38
  -5   8   3    2.23    0.43
  -5   8   3    2.88    0.33
   4   8  -3   15.98    0.84
   4   8  -3   15.68    0.84
  -4   8   3   14.18    0.90
   3   8  -3   29.16    1.47
   3   8  -3   28.71    1.55
  -3   8   3   29.91    1.47
  -3   8   3   32.33    1.46
   3   8  -3   30.23    1.47
  -2   8   3  100.24    4.65
  -1  -8   3   93.18    4.27
   1  -8  -3   90.55    4.33
  -1   8   3   90.24    4.26
  -1   8   3   93.93    4.32
   0  -8  -3    6.71    0.51
   0  -8   3    7.07    0.45
   0   8   3    7.06    0.38
   0   8   3    7.07    0.45
   1  -8   3    1.69    0.30
  -1  -8  -3    1.22    0.40
   1   8   3    1.43    0.32
  -1   8  -3    1.50    0.26
   1   8   3    1.18    0.16
  -2   8  -3   12.13    0.68
   2   8   3   11.70    0.61
  -3   8  -3   22.06    1.09
   3   8   3   20.67    1.16
  -3   8  -3   21.14    1.06
   3   8   3   21.19    1.07
   3   8   3   21.71    1.05
   4  -8   3   18.61    0.91
   4   8   3   17.36    0.90
  -4   8  -3   17.54    0.94
  -4   8  -3   17.52    0.91
   4   8   3   17.08    0.89
   5  -8   3    0.72    0.23
   5   8   3    0.80    0.21
  -5   8  -3    1.08    0.27
  -5   8  -3    0.79    0.23
   6  -8   3   20.92    0.99
  -6   8  -3   18.42    0.98
   6   8   3   20.84    0.99
  -6   8  -3   19.88    0.99
   6  -9  -3    3.17    0.34
  -6  -9   3    3.91    0.34
  -6   9   3    3.06    0.37
  -6   9   3    3.48    0.27
  -5  -9   3    3.30    0.41
   5   9  -3    2.37    0.40
  -5   9   3    3.00    0.45
   5   9  -3    3.52    0.40
  -5   9   3    3.15    0.33
  -4   9   3    8.41    0.71
   4   9  -3    9.98    0.58
  -4   9   3   10.49    0.57
   4   9  -3    9.17    0.60
  -4   9   3    9.21    0.57
   3   9  -3    1.37    0.33
   3   9  -3    0.90    0.25
  -3   9   3    1.09    0.24
   3   9  -3    0.58    0.36
  -3   9   3    0.60    0.22
  -2   9   3   39.70    1.80
  -2   9   3   35.93    1.90
  -1  -9   3    3.73    0.35
  -1  -9   3    4.03    0.36
  -1   9   3    4.56    0.40
  -1   9   3    3.91    0.27
   0  -9   3   17.83    0.97
   0  -9  -3   17.41    1.02
   0  -9   3   18.26    0.94
   0   9   3   17.94    0.87
   0   9   3   17.88    0.95
  -1  -9  -3   92.97    4.57
   1  -9   3  100.43    4.59
   1   9   3  100.44    4.51
   1   9   3   90.72    4.61
  -1   9  -3  102.23    4.52
  -2   9  -3   20.01    1.03
   2   9   3   22.08    1.14
  -2   9  -3   19.76    1.07
   2   9   3   21.83    1.01
   2   9   3   20.27    1.03
   3   9   3    2.40    0.38
  -3   9  -3    1.97    0.28
   3   9   3    2.24    0.32
  -3   9  -3    2.11    0.33
   3   9   3    1.85    0.22
   4  -9   3   35.53    1.69
   4   9   3   33.29    1.59
  -4   9  -3   31.90    1.63
  -4   9  -3   31.66    1.59
   5  -9   3    0.72    0.20
   5   9   3    0.45    0.17
   6  -9   3    1.28    0.25
  -6   9  -3    0.55    0.19
  -6   9  -3    0.51    0.14
   6   9   3    0.78    0.22
   6 -10  -3    5.28    0.41
  -6 -10   3    5.61    0.40
  -6  10   3    5.65    0.49
  -6  10   3    5.60    0.35
  -5 -10   3   -0.24    0.26
   5  10  -3    0.58    0.24
  -5  10   3    0.35    0.32
  -5  10   3    0.13    0.18
   5  10  -3    0.49    0.26
   4  10  -3   40.63    2.01
   4  10  -3   42.53    2.03
  -4  10   3   44.28    2.03
  -4  10   3   40.59    2.01
  -3  10   3    0.38    0.23
   3  10  -3    0.25    0.18
   3  10  -3    0.37    0.24
   3  10  -3    0.18    0.35
  -3  10   3    0.41    0.18
   2  10  -3   78.93    3.58
  -2  10   3   75.57    3.56
   2  10  -3   74.76    3.56
  -1 -10   3    8.07    0.62
  -1 -10   3    7.37    0.56
  -1  10   3    8.74    0.45
  -1  10   3    8.66    0.62
   0 -10  -3   48.85    2.61
   0 -10   3   52.90    2.59
   0 -10   3   53.05    2.55
   0  10   3   54.50    2.48
   0  10   3   55.96    2.57
  -1 -10  -3    1.61    0.42
   1 -10   3    1.82    0.47
   1  10   3    1.39    0.19
  -1  10  -3    1.40    0.30
   1  10   3    1.77    0.51
  -2  10  -3    6.38    0.45
   2  10   3    6.75    0.39
  -2  10  -3    7.07    0.51
   2  10   3    7.24    0.50
  -2  10  -3    7.23    0.45
   2  10   3    6.09    0.44
  -3  10  -3    2.98    0.39
   3  10   3    2.84    0.44
   3  10   3    2.61    0.34
   3  10   3    2.89    0.26
  -3  10  -3    2.36    0.45
   4 -10   3    0.65    0.19
   4  10   3    0.60    0.18
  -4  10  -3    0.83    0.25
   4  10   3    1.08    0.21
  -4  10  -3    0.50    0.19
   5 -10   3    6.68    0.44
   5  10   3    7.25    0.43
  -5  10  -3    6.97    0.47
  -5  10  -3    7.07    0.42
  -6  10  -3    5.83    0.36
  -6  10  -3    5.35    0.36
  -6 -11   3    6.01    0.42
   6 -11  -3    5.29    0.42
  -6  11   3    6.67    0.36
  -5 -11   3    5.70    0.49
   5  11  -3    5.83    0.46
  -5  11   3    6.01    0.41
   5  11  -3    5.56    0.43
   4  11  -3   28.14    1.41
  -4  11   3   30.52    1.44
  -4  11   3   28.33    1.42
   4  11  -3   28.69    1.43
  -3  11   3   43.98    2.05
  -3  11   3   42.70    2.05
   3  11  -3   41.37    2.12
   3  11  -3   42.11    2.03
   3  11  -3   43.76    2.06
   2  11  -3   28.07    1.36
   2  11  -3   27.80    1.47
  -2  11   3   27.50    1.42
  -2  11   3   27.40    1.35
   2  11  -3   28.77    1.38
  -1 -11   3   34.95    1.79
  -1  11   3   37.44    1.76
   0 -11   3   25.71    1.37
   0  11   3   25.24    1.40
   0  11   3   26.48    1.26
  -1  11  -3   75.01    3.66
   1  11   3   79.18    3.66
   1  11   3   82.91    3.66
  -1  11  -3   79.50    3.66
   1  11   3   75.76    3.65
  -2  11  -3    0.12    0.27
   2  11   3    0.24    0.24
   2  11   3    0.16    0.16
  -2  11  -3    0.01    0.20
   2  11   3    0.10    0.13
  -2  11  -3    0.10    0.20
  -3  11  -3    0.66    0.20
   3  11   3    0.65    0.20
   3  11   3    0.94    0.20
  -3  11  -3    1.11    0.28
   3  11   3    0.73    0.34
   4 -11   3   10.16    0.57
  -4  11  -3   10.09    0.58
   4  11   3    9.76    0.55
  -4  11  -3    9.96    0.63
   4  11   3    9.97    0.56
   4  11   3    8.79    0.69
   5 -11   3    0.25    0.18
   5  11   3    0.07    0.17
  -5  11  -3    0.21    0.14
  -5  11  -3   -0.02    0.19
  -6  11  -3    0.02    0.14
  -6  11  -3    0.17    0.15
   6 -12  -3    0.95    0.29
  -6 -12   3    0.46    0.24
  -6  12   3    1.52    0.18
   5  12  -3    0.16    0.29
  -5  12   3    0.28    0.17
  -4  12   3   27.33    1.37
   4  12  -3   27.67    1.38
   4  12  -3   29.78    1.37
  -4  12   3   26.53    1.48
   3  12  -3    0.78    0.32
  -3  12   3    1.26    0.26
  -3  12   3    0.67    0.25
   3  12  -3    1.09    0.41
   2  12  -3    6.32    0.46
   2  12  -3    5.82    0.41
  -2  12   3    5.61    0.37
  -2  12   3    5.01    0.56
   2  12  -3    5.40    0.66
  -2  12   3    4.98    0.57
  -1  12   3    3.21    0.41
   1  12  -3    2.85    0.44
  -1  12   3    2.52    0.22
   1  12  -3    2.23    0.36
   0 -12   3   11.99    0.92
   0  12   3   11.98    0.66
   0  12   3   12.44    0.61
   0  12   3   10.03    0.93
  -1  12  -3    1.27    0.32
  -1  12  -3    0.87    0.32
  -1  12  -3    0.95    0.24
   1  12   3    1.21    0.19
   1  12   3    0.76    0.19
   1  12   3    0.90    0.19
   2  12   3   10.00    0.55
  -2  12  -3    9.73    0.65
  -2  12  -3   10.34    0.59
   2  12   3   10.24    0.59
  -2  12  -3    9.30    0.58
   2  12   3    9.57    0.55
   3  12   3   29.64    1.40
  -3  12  -3   28.08    1.39
   3  12   3   28.70    1.39
   3  12   3   27.96    1.41
  -3  12  -3   28.14    1.44
   4 -12   3   39.84    2.02
   4  12   3   39.53    2.01
  -4  12  -3   42.78    2.01
   4  12   3   42.09    2.03
  -4  12  -3   43.97    2.05
   4  12   3   44.91    2.01
   5 -12   3    7.27    0.51
   5  12   3    7.67    0.46
  -5  12  -3    7.27    0.47
  -5  12  -3    6.96    0.42
   6 -13  -3    6.29    0.51
  -6 -13   3    5.26    0.51
  -6  13   3    6.21    0.33
  -5 -13   3    1.68    0.39
  -5  13   3    1.64    0.24
   5  13  -3    1.53    0.26
   5  13  -3    2.04    0.29
  -4  13   3    0.81    0.23
   4  13  -3    1.07    0.23
  -4  13   3    0.65    0.21
   4  13  -3    0.95    0.20
   3  13  -3   16.91    1.06
   3  13  -3   17.92    0.91
   3  13  -3   18.32    0.94
  -3  13   3   17.56    0.94
  -3  13   3   18.20    0.93
  -2  13   3    1.07    0.36
   2  13  -3    1.90    0.63
  -2  13   3    0.85    0.35
   2  13  -3    2.19    0.35
   2  13  -3    1.88    0.30
  -2  13   3    1.26    0.22
  -1  13   3   -0.22    0.25
   1  13  -3   -0.13    0.28
   1  13  -3   -0.03    0.19
  -1  13   3    0.18    0.14
   1  13  -3    0.13    0.45
   0 -13   3   30.34    1.81
   0  13  -3   30.29    1.56
   0  13   3   30.12    1.53
   0  13  -3   26.77    1.57
   0  13  -3   33.09    1.59
   0  13   3   35.10    1.52
   0  13  -3   29.26    1.54
   0  13   3   33.98    1.50
   1  13   3    5.25    0.33
   1  13   3    4.91    0.38
  -1  13  -3    4.05    0.54
  -1  13  -3    5.44    0.44
   1  13   3    5.69    0.39
  -1  13  -3    4.59    0.43
   2  13   3    6.61    0.44
  -2  13  -3    5.82    0.41
  -2  13  -3    6.99    0.48
   2  13   3    5.89    0.44
  -2  13  -3    7.16    0.55
   2  13   3    6.84    0.42
  -3  13  -3   -0.42    0.26
   3  13   3   -0.13    0.16
  -3  13  -3    0.44    0.19
   3  13   3   -0.10    0.18
   3  13   3    0.11    0.24
   4 -13   3   12.00    0.71
  -4  13  -3   13.94    0.70
   4  13   3   14.03    0.69
   4  13   3   12.07    0.70
   4  13   3   12.87    0.73
  -4  13  -3   13.83    0.75
   5 -13   3    4.71    0.37
   5  13   3    5.08    0.36
  -5  13  -3    4.78    0.31
  -5  13  -3    4.87    0.37
  -5 -14   3    6.79    0.55
   5  14  -3    7.55    0.46
  -5  14   3    7.67    0.44
   5  14  -3    7.70    0.44
  -4  14   3    5.16    0.40
  -4  14   3    4.21    0.37
   4  14  -3    4.19    0.39
   4  14  -3    4.63    0.36
   3  14  -3    6.96    0.50
   3  14  -3    7.82    0.48
  -3  14   3    8.77    0.50
   3  14  -3    7.75    0.77
  -3  14   3    7.53    0.56
   2  14  -3   11.00    0.94
  -2  14   3   11.70    0.83
  -2  14   3   13.41    0.68
   2  14  -3   13.08    0.68
  -2  14   3   11.97    0.79
   2  14  -3   14.07    0.72
  -1  14   3    2.14    0.39
   1  14  -3    1.70    0.40
  -1  14   3    1.39    0.21
   1  14  -3    2.60    0.50
   1  14  -3    2.04    0.33
   0  14  -3    2.59    0.58
   0  14  -3    2.30    0.35
   0  14   3    2.71    0.33
   0  14   3    2.58    0.24
   0  14  -3    2.58    0.48
   0  14   3    2.31    0.42
  -1  14  -3    1.33    0.35
  -1  14  -3    1.32    0.36
   1  14   3    1.39    0.29
   1  14   3    1.12    0.28
   1  14   3    1.40    0.22
  -1  14  -3    1.41    0.37
   2  14   3    0.06    0.16
  -2  14  -3    0.46    0.26
  -2  14  -3    0.11    0.19
  -2  14  -3    0.33    0.29
   2  14   3    0.21    0.16
   2  14   3    0.31    0.20
  -3  14  -3    8.17    0.59
   3  14   3    8.17    0.53
  -3  14  -3    8.07    0.49
   3  14   3    8.56    0.49
   3  14   3    8.32    0.50
   4 -14   3   21.89    1.12
   4  14   3   21.23    1.11
  -4  14  -3   23.68    1.09
   4  14   3   22.06    1.12
   5 -14   3    2.61    0.32
  -5  14  -3    2.72    0.31
   5  14   3    2.42    0.29
  -5  14  -3    2.81    0.22
  -6  15   3    6.23    0.34
  -5  15   3    0.21    0.15
   5  15  -3    0.13    0.18
   5  15  -3   -0.03    0.14
   4  15  -3    0.58    0.17
   4  15  -3    0.29    0.21
  -4  15   3    0.47    0.21
  -4  15   3    0.35    0.20
   3  15  -3    5.42    0.42
   3  15  -3    5.19    0.39
  -3  15   3    5.72    0.47
  -2  15   3   -0.15    0.17
   2  15  -3   -0.14    0.18
   2  15  -3    0.21    0.23
   1  15  -3    2.61    0.69
  -1  15   3    2.92    0.38
   1  15  -3    2.79    0.35
   1  15  -3    2.70    0.40
  -1  15   3    2.90    0.26
   0  15  -3    8.73    0.74
   0  15   3    9.59    0.55
   0  15   3    8.90    0.59
   0  15  -3    7.54    0.61
   0  15   3   10.29    0.52
  -1  15  -3    5.98    0.60
  -1  15  -3    6.55    0.51
   1  15   3    6.63    0.40
  -1  15  -3    5.83    0.46
   1  15   3    5.70    0.43
  -2  15  -3   32.36    1.72
  -2  15  -3   34.31    1.67
   2  15   3   34.29    1.66
   2  15   3   37.08    1.68
   2  15   3   32.98    1.67
  -2  15  -3   36.78    1.70
   3  15   3    7.07    0.46
  -3  15  -3    6.88    0.56
   3  15   3    6.86    0.43
   3  15   3    6.38    0.43
   4 -15   3    1.49    0.30
   4  15   3    1.37    0.32
   4  15   3    1.24    0.24
  -4  15  -3    1.92    0.35
  -4  15  -3    1.61    0.23
   5 -15   3    2.85    0.48
   5  15   3    3.16    0.33
  -5  15  -3    3.05    0.32
  -5  15  -3    2.84    0.23
   5  16  -3    0.54    0.14
   5  16  -3    0.70    0.17
  -5  16   3    0.42    0.14
  -4  16   3   -0.31    0.29
  -4  16   3    0.33    0.20
   4  16  -3    0.06    0.15
   4  16  -3    0.02    0.19
   3  16  -3    2.95    0.30
   3  16  -3    2.91    0.34
  -3  16   3    2.38    0.31
  -3  16   3    3.97    0.41
   2  16  -3   13.94    0.75
  -2  16   3   14.33    0.75
   2  16  -3   14.49    0.78
  -1  16   3   17.49    0.93
   1  16  -3   17.50    0.93
  -1  16   3   18.09    0.90
   1  16  -3   17.51    0.92
   0  16  -3    1.45    0.58
   0  16   3    2.02    0.22
   0  16   3    1.65    0.31
   0  16   3    1.65    0.38
   0  16  -3    1.84    0.32
  -1  16  -3   47.53    2.43
  -1  16  -3   50.37    2.40
   1  16   3   53.44    2.39
  -1  16  -3   48.11    2.38
   1  16   3   52.09    2.38
   1  16   3   49.91    2.37
  -2  16  -3    9.48    0.74
  -2  16  -3   10.27    0.70
   2  16   3    9.82    0.56
   2  16   3    9.71    0.58
  -2  16  -3    9.96    0.58
   2  16   3    9.98    0.56
   3  16   3   24.55    1.20
  -3  16  -3   25.23    1.20
   3  16   3   24.99    1.18
  -3  16  -3   23.64    1.25
   3  16   3   22.46    1.19
  -4  16  -3   11.01    0.56
  -4  16  -3   10.41    0.63
   4  16   3   10.71    0.58
   4  16   3   10.01    0.60
  -5  16  -3    4.31    0.32
  -5  16  -3    4.80    0.57
   5  17  -3    0.07    0.14
  -5  17   3    0.01    0.14
   5  17  -3    0.20    0.12
  -4  17   3    2.23    0.28
   4  17  -3    2.25    0.27
  -4  17   3    2.78    0.31
   4  17  -3    2.40    0.24
   3  17  -3    4.96    0.36
  -3  17   3    4.53    0.38
  -3  17   3    4.32    0.48
   3  17  -3    5.05    0.38
  -2  17   3    0.50    0.18
   2  17  -3    0.81    0.20
   2  17  -3    1.00    0.29
  -1  17   3    0.03    0.17
   1  17  -3   -0.03    0.21
   1  17  -3    0.26    0.25
  -1  17   3    0.07    0.23
   0  17   3    1.22    0.22
   0  17   3    1.10    0.26
   0  17  -3    1.29    0.41
   0  17   3    2.09    0.31
   1  17   3   21.87    1.00
   1  17   3   19.78    0.98
  -1  17  -3   19.31    1.02
   1  17   3   19.10    0.99
  -1  17  -3   19.94    1.03
  -1  17  -3   16.62    1.17
   2  17   3    2.09    0.28
  -2  17  -3    1.90    0.32
   2  17   3    2.71    0.30
   2  17   3    2.45    0.28
  -2  17  -3    2.93    0.52
   3  17   3   12.16    0.60
   3  17   3   10.91    0.62
   3  17   3   11.03    0.63
  -3  17  -3   12.56    0.63
  -3  17  -3   10.26    0.71
   4 -17   3    2.04    0.36
  -4  17  -3    1.53    0.39
   4  17   3    2.03    0.27
   4  17   3    2.35    0.28
  -4  17  -3    2.18    0.22
  -5  17  -3    3.86    0.24
   5  18  -3   11.73    0.61
   5  18  -3   11.55    0.60
  -5  18   3   13.33    0.61
   4  18  -3    7.92    0.44
   4  18  -3    8.02    0.47
  -4  18   3    8.50    0.49
   3  18  -3    2.99    0.30
   3  18  -3    2.79    0.27
  -3  18   3    2.27    0.38
  -3  18   3    2.39    0.28
   2  18  -3    2.22    0.29
  -2  18   3    1.39    0.26
   2  18  -3    2.24    0.31
   1  18  -3   13.40    0.74
   1  18  -3   13.05    0.72
  -1  18   3   12.35    0.70
  -1  18   3   13.53    0.73
   0  18   3    2.92    0.32
   0  18   3    2.14    0.25
   1  18   3    8.92    0.53
   1  18   3    8.38    0.51
  -1  18  -3    9.01    0.59
   1  18   3    9.01    0.52
   2  18   3    9.98    0.57
   2  18   3    9.94    0.55
  -2  18  -3   11.18    0.60
   2  18   3    9.66    0.57
  -3  18  -3   18.06    1.05
   3  18   3   18.12    0.94
  -3  18  -3   19.69    0.94
   3  18   3   18.81    0.92
   3  18   3   18.83    0.95
   4 -18   3    4.01    0.48
   4  18   3    4.52    0.33
   4  18   3    4.01    0.35
  -4  18  -3    4.28    0.29
   5  19  -3    2.03    0.20
   5  19  -3    1.72    0.17
   4  19  -3    0.51    0.13
   4  19  -3    0.12    0.16
  -4  19   3    1.13    0.29
   3  19  -3    1.30    0.25
   3  19  -3    1.26    0.21
  -3  19   3    1.33    0.24
   2  19  -3    0.20    0.18
   2  19  -3    0.39    0.23
  -2  19   3    0.57    0.19
   1  19  -3    1.38    0.38
  -1  19   3    1.79    0.26
  -1  19   3    1.41    0.34
   1  19  -3    1.46    0.25
   0  19   3    6.61    0.44
   0  19   3    5.90    0.40
  -1  19  -3    0.61    0.31
   1  19   3   -0.05    0.16
   1  19   3   -0.11    0.19
   1  19   3    0.23    0.18
   2  19   3   -0.01    0.17
   2  19   3    0.07    0.14
   2  19   3    0.40    0.19
   3  19   3    5.41    0.36
  -3  19  -3    5.05    0.35
   3  19   3    4.22    0.34
  -4  19  -3    0.22    0.11
   4  19   3    0.01    0.16
   4  20  -3    4.10    0.25
   4  20  -3    3.51    0.26
   3  20  -3    1.32    0.24
   3  20  -3    1.68    0.20
  -3  20   3    1.69    0.23
   2  20  -3    0.39    0.17
  -2  20   3    0.22    0.17
   2  20  -3    0.46    0.24
  -1  20   3   30.17    1.62
   1  20  -3   35.73    1.62
   1  20  -3   34.69    1.63
  -1  20   3   34.31    1.63
   0  20   3   38.32    1.90
   0  20   3   40.98    1.90
   1  20   3    7.83    0.46
   1  20   3    7.44    0.46
   2  20   3    2.91    0.28
   2  20   3    3.04    0.28
  -2  20  -3    2.76    0.33
  -3  20  -3   25.23    1.21
   3  20   3   23.60    1.21
   3  20   3   26.90    1.23
  -4  20  -3    2.96    0.24
   4  20   3    3.01    0.29
   4  21  -3    0.45    0.16
   4  21  -3    0.22    0.12
  -3  21   3    0.30    0.18
   3  21  -3    0.71    0.20
   3  21  -3    0.35    0.12
   2  21  -3    7.82    0.46
  -2  21   3    7.32    0.46
   2  21  -3    7.60    0.43
  -1  21   3    0.19    0.17
   1  21  -3    0.59    0.20
  -1  21   3   -0.06    0.22
   1  21  -3   -0.15    0.23
   0  21   3    0.23    0.18
   0  21   3    0.34    0.19
   1  21   3    2.90    0.28
   1  21   3    3.20    0.29
  -2  21  -3    0.55    0.23
   2  21   3    0.81    0.20
   2  21   3    0.68    0.25
  -3  21  -3    4.48    0.33
   3  21   3    4.32    0.35
   3  21   3    3.86    0.28
   3  22  -3    0.35    0.11
  -3  22   3    0.22    0.19
   3  22  -3    0.04    0.14
   2  22  -3    1.55    0.21
   2  22  -3    1.22    0.25
  -2  22   3    1.34    0.26
   1  22  -3   22.22    1.10
  -1  22   3   24.15    1.12
   1  22  -3   20.94    1.11
   0  22   3    6.19    0.41
   0  22   3    6.98    0.43
   1  22   3    0.46    0.25
   1  22   3    0.12    0.16
   2  22   3    2.61    0.30
   2  22   3    2.65    0.24
   3  22   3    5.61    0.32
   3  23  -3   12.56    0.63
   3  23  -3   12.89    0.62
   2  23  -3    1.09    0.18
   2  23  -3    1.14    0.23
  -2  23   3    1.45    0.26
  -1  23   3    2.73    0.29
   0  23   3    4.28    0.34
   0  23   3    4.57    0.33
   1  23   3    3.74    0.35
   1  23   3    3.68    0.28
   2  23   3    0.20    0.12
   2  24  -3    1.81    0.31
   2  24  -3    1.28    0.27
  -1  24   3    0.12    0.22
   0  24   3    1.58    0.31
   1  24   3    0.92    0.19
   2  24   3    1.26    0.17
  -7   0   4    5.42    0.34
  -6   0   4   24.94    1.16
  -6   0   4   20.75    1.15
  -5   0   4  115.47    5.53
   5   0  -4  122.61    5.54
  -5   0   4  118.05    5.52
   4   0  -4    3.97    0.37
  -4   0   4    3.81    0.42
   4   0  -4    3.94    0.53
   3   0  -4    4.44    0.64
   2   0  -4   24.45    1.17
  -2   0   4   22.13    1.14
  -1   0   4   69.08    3.33
   1   0  -4   73.65    3.33
   0   0   4    6.84    0.38
   0   0  -4    6.63    0.38
   1   0   4  104.82    4.81
  -1   0  -4  101.58    4.80
  -2   0  -4    1.42    0.42
   2   0   4    1.35    0.17
   2   0   4    1.92    0.39
   3   0   4   33.67    1.56
  -3   0  -4   31.87    1.61
  -4   0  -4  150.56    7.12
   4   0   4  156.46    7.11
   5   0   4    2.46    0.26
  -5   0  -4    3.63    0.38
   6   0   4   25.94    1.21
  -6   0  -4   23.59    1.22
  -7  -1   4    1.12    0.20
  -7   1   4    0.88    0.21
  -6  -1   4    0.32    0.21
  -6  -1   4    0.48    0.30
  -6   1   4    0.22    0.20
  -6   1   4    0.54    0.38
  -5  -1   4    2.44    0.35
   5  -1  -4    2.26    0.36
  -5  -1   4    2.60    0.40
  -5   1   4    2.63    0.37
  -5   1   4    2.42    0.36
   5   1  -4    1.89    0.43
  -4  -1   4   -0.31    0.24
   4  -1  -4   -0.19    0.22
   4  -1  -4   -0.22    0.36
   4   1  -4   -0.01    0.33
  -4   1   4    0.03    0.23
  -3  -1   4   27.52    1.38
   3  -1  -4   25.23    1.47
  -3   1   4   27.96    1.40
   2  -1  -4   29.33    1.45
  -2  -1   4   29.41    1.43
  -2   1   4   29.08    1.44
   2   1  -4   30.70    1.45
   1  -1  -4    8.84    0.48
  -1  -1   4    8.56    0.47
   1   1  -4    9.24    0.48
  -1   1   4    8.44    0.47
   0  -1  -4    0.58    0.15
   0  -1   4    0.53    0.11
   0   1   4    0.36    0.10
   0   1  -4    0.58    0.14
   1  -1   4    5.70    0.39
  -1  -1  -4    4.55    0.33
  -1   1  -4    4.74    0.34
   1   1   4    5.43    0.35
   2  -1   4    1.02    0.23
  -2  -1  -4    0.94    0.27
   2  -1   4    0.96    0.17
   2   1   4    1.03    0.16
   2   1   4    0.91    0.23
   3  -1   4   31.59    1.53
  -3  -1  -4   32.31    1.58
   3   1   4   31.60    1.53
  -3   1  -4   32.52    1.56
   4  -1   4    0.78    0.20
  -4  -1  -4    0.46    0.23
  -4   1  -4    1.02    0.30
   4   1   4    0.70    0.19
  -5  -1  -4    1.61    0.35
   5  -1   4    0.78    0.18
   5   1   4    0.76    0.21
  -5   1  -4    1.14    0.32
  -6  -1  -4    1.91    0.32
   6  -1   4    2.51    0.26
   6   1   4    2.79    0.26
  -6   1  -4    2.58    0.30
  -7  -2   4    7.32    0.42
  -7   2   4    7.43    0.42
  -6  -2   4   15.67    0.83
  -6   2   4   15.69    0.88
  -5  -2   4   36.37    1.78
  -5  -2   4   34.30    1.77
   5  -2  -4   38.21    1.75
  -5   2   4   38.25    1.76
  -5   2   4   36.01    1.77
   5   2  -4   34.48    1.80
   4  -2  -4   -0.39    0.39
   4  -2  -4    0.35    0.22
  -4  -2   4    0.30    0.27
  -4   2   4    0.12    0.27
  -4   2   4    0.01    0.22
   4   2  -4    0.17    0.30
  -3  -2   4    0.24    0.20
   3  -2  -4   -0.06    0.42
  -3   2   4    0.63    0.30
  -2  -2   4   78.83    3.75
   2  -2  -4   78.67    3.78
  -2   2   4   81.60    3.79
   2   2  -4   82.65    3.75
   1  -2  -4   40.27    1.89
  -1  -2   4   38.33    1.87
  -1   2   4   38.83    1.88
   1   2  -4   41.01    1.88
   0  -2  -4   42.69    1.97
   0  -2   4   41.48    1.97
   0   2  -4   42.28    1.97
   0   2   4   40.14    1.97
  -1  -2  -4   53.56    2.60
   1  -2   4   55.66    2.61
   1   2   4   56.24    2.61
  -1   2  -4   55.17    2.61
  -2  -2  -4    0.81    0.31
   2  -2   4    0.94    0.22
   2  -2   4    0.79    0.17
   2   2   4    0.61    0.16
   2   2   4    0.61    0.24
   3  -2   4    5.04    0.32
  -3  -2  -4    4.97    0.53
  -3   2  -4    4.31    0.46
  -3   2  -4    4.99    0.40
   3   2   4    5.41    0.32
   4  -2   4   28.53    1.43
  -4  -2  -4   30.29    1.48
  -4   2  -4   30.67    1.47
   4   2   4   29.03    1.43
   5  -2   4    3.39    0.29
  -5  -2  -4    4.76    0.42
  -5   2  -4    3.79    0.37
   5   2   4    3.50    0.29
   6  -2   4    7.89    0.44
  -6  -2  -4    7.16    0.49
   6   2   4    6.99    0.43
  -6   2  -4    7.42    0.46
  -7  -3   4    0.31    0.14
  -7   3   4    0.36    0.17
  -6  -3   4    2.42    0.36
  -6   3   4    1.93    0.40
   5  -3  -4    8.76    0.50
  -5  -3   4    6.76    0.60
  -5  -3   4    7.38    0.53
  -5   3   4    7.89    0.50
  -5   3   4    7.01    0.53
   5   3  -4    6.89    0.59
  -4  -3   4    0.49    0.31
   4  -3  -4    0.13    0.40
   4   3  -4    0.63    0.32
  -4   3   4    0.16    0.21
  -4   3   4    0.41    0.29
  -3   3   4    5.59    0.56
  -3   3   4    5.06    0.38
   2  -3  -4  143.13    6.33
  -2  -3   4  136.74    6.29
  -2   3   4  133.52    6.31
   2   3  -4  130.07    6.32
  -1  -3   4   47.79    2.20
   1  -3  -4   45.08    2.21
   1   3  -4   48.46    2.20
  -1   3   4   45.10    2.21
   0  -3   4   89.24    4.17
   0  -3  -4   86.47    4.17
   0   3   4   89.19    4.18
   0   3  -4   93.68    4.18
  -1  -3  -4   19.49    1.02
   1  -3   4   21.86    1.03
  -1   3  -4   19.42    1.03
   1   3   4   21.32    1.04
   2  -3   4    5.34    0.45
   2  -3   4    4.32    0.29
  -2  -3  -4    3.82    0.57
   2   3   4    4.44    0.28
   2   3   4    5.08    0.52
   3  -3   4   15.35    0.73
  -3  -3  -4   12.39    0.87
  -3   3  -4   13.65    0.79
   3   3   4   15.00    0.73
  -3   3  -4   15.02    0.78
   4  -3   4   27.95    1.28
  -4  -3  -4   25.13    1.32
  -4   3  -4   24.13    1.29
   4   3   4   26.81    1.27
  -4   3  -4   25.91    1.30
   5  -3   4    0.13    0.17
  -5  -3  -4    0.40    0.28
  -5   3  -4    0.09    0.21
   5   3   4    0.16    0.16
   6  -3   4    0.10    0.16
  -6  -3  -4    0.75    0.31
   6   3   4    0.13    0.17
  -6   3  -4    0.04    0.18
  -7  -4   4    0.11    0.14
  -7   4   4   -0.08    0.15
  -7   4   4   -0.01    0.22
   6  -4  -4    0.36    0.28
  -6   4   4    0.57    0.19
  -6   4   4    0.64    0.21
   5  -4  -4    1.86    0.36
  -5  -4   4    1.85    0.38
  -5  -4   4    1.08    0.34
  -5   4   4    2.18    0.31
  -5   4   4    1.32    0.35
   5   4  -4    1.52    0.35
  -4  -4   4    1.91    0.50
   4   4  -4    1.59    0.32
  -4   4   4    2.13    0.37
  -4   4   4    1.37    0.32
  -3   4   4    0.76    0.20
  -3   4   4    0.58    0.26
   2  -4  -4   18.84    1.05
  -2  -4   4   20.52    1.00
   2   4  -4   20.56    0.99
  -2   4   4   20.54    1.04
  -1  -4   4    2.14    0.22
   1  -4  -4    1.44    0.25
   1   4  -4    1.90    0.22
  -1   4   4    1.80    0.25
   0  -4  -4   18.73    0.94
   0  -4   4   18.98    0.94
   0   4   4   18.87    0.94
   0   4  -4   18.77    0.94
  -1  -4  -4    0.14    0.15
   1  -4   4    0.13    0.12
  -1   4  -4    0.75    0.24
   1   4   4    0.24    0.12
  -2  -4  -4    9.77    0.78
   2  -4   4   10.46    0.55
   2  -4   4   11.07    0.68
   2   4   4   10.79    0.54
   2   4   4   10.76    0.72
   3  -4   4   14.63    0.71
  -3  -4  -4   11.57    0.92
  -3   4  -4   13.72    0.78
  -3   4  -4   14.30    0.76
   3   4   4   14.76    0.71
   4  -4   4   28.38    1.33
  -4  -4  -4   25.50    1.37
  -4   4  -4   27.41    1.36
   4   4   4   28.51    1.32
  -4   4  -4   25.79    1.34
  -5  -4  -4    3.70    0.46
   5  -4   4    2.55    0.26
  -5   4  -4    1.94    0.49
   5   4   4    2.37    0.26
  -5   4  -4    3.05    0.34
   6  -4   4    2.99    0.27
  -6   4  -4    2.24    0.26
   6   4   4    2.30    0.25
  -7  -5   4    1.01    0.20
  -7   5   4    1.08    0.27
  -7   5   4    1.24    0.22
   6  -5  -4    1.04    0.29
  -6  -5   4    1.37    0.28
  -6   5   4    1.16    0.28
  -6   5   4    1.26    0.26
  -5  -5   4   48.50    2.21
   5  -5  -4   44.37    2.21
  -5   5   4   44.04    2.19
  -5   5   4   46.02    2.17
   5   5  -4   44.82    2.19
  -4  -5   4    0.33    0.37
  -4   5   4    1.20    0.31
  -4   5   4    0.79    0.34
   4   5  -4    0.92    0.29
   4   5  -4    0.42    0.32
   3   5  -4    6.21    0.59
  -3   5   4    5.16    0.69
   3   5  -4    7.84    0.54
  -3   5   4    6.48    0.47
  -3   5   4    6.74    0.40
  -2  -5   4   37.09    1.79
   2  -5  -4   35.94    1.85
   2   5  -4   38.19    1.79
  -2   5   4   38.45    1.84
  -2   5   4   38.40    1.78
   1  -5  -4   16.30    0.89
  -1  -5   4   17.60    0.87
   1   5  -4   17.79    0.87
  -1   5   4   16.63    0.87
   0  -5   4  136.75    6.36
   0  -5  -4  135.45    6.37
   0   5  -4  139.31    6.36
  -1  -5  -4    4.48    0.41
   1  -5   4    5.29    0.37
   1   5   4    5.75    0.30
   1   5   4    4.80    0.39
  -2  -5  -4   54.21    2.79
   2  -5   4   56.46    2.68
   2  -5   4   58.04    2.78
   2   5   4   59.65    2.68
   2   5   4   58.56    2.76
   3  -5   4   26.90    1.26
  -3   5  -4   24.48    1.28
   3   5   4   25.94    1.25
  -3   5  -4   26.23    1.29
   4  -5   4    3.78    0.30
  -4  -5  -4    3.27    0.48
   4   5   4    3.42    0.28
  -4   5  -4    3.07    0.36
  -4   5  -4    2.90    0.35
   5  -5   4    0.60    0.20
  -5   5  -4    0.22    0.21
   5   5   4    0.43    0.16
   6  -5   4    7.06    0.44
  -6   5  -4    7.04    0.43
   6   5   4    7.47    0.43
  -7  -6   4    0.23    0.14
  -7   6   4    0.94    0.29
  -7   6   4    0.25    0.17
   6  -6  -4    1.90    0.59
  -6  -6   4    2.66    0.32
  -6   6   4    2.24    0.32
  -6   6   4    2.39    0.27
   5  -6  -4   11.46    0.64
   5   6  -4   11.36    0.70
  -5   6   4   10.94    0.68
  -5   6   4   11.43    0.64
  -4   6   4    4.13    0.54
  -4   6   4    4.61    0.40
   4   6  -4    4.60    0.41
   4   6  -4    5.11    0.49
  -3   6   4   11.29    0.67
   3   6  -4   11.96    0.69
   3   6  -4   12.28    0.77
   3   6  -4   12.09    0.74
  -3   6   4   11.62    0.63
  -2  -6   4    5.81    0.41
  -2   6   4    5.99    0.46
  -2   6   4    5.76    0.36
  -1  -6   4   50.28    2.24
   1  -6  -4   48.19    2.28
  -1   6   4   43.09    2.21
   1   6  -4   47.20    2.23
  -1   6   4   47.35    2.26
   0  -6   4    4.12    0.33
   0  -6  -4    3.21    0.35
   0   6   4    3.94    0.31
   0   6   4    3.31    0.27
  -1  -6  -4  151.68    7.52
   1  -6   4  168.68    7.54
   1   6   4  165.88    7.53
  -2  -6  -4   37.56    2.07
   2   6   4   40.30    1.89
   2   6   4   38.86    2.00
  -2   6  -4   42.94    1.97
   3  -6   4   11.24    0.59
  -3   6  -4   10.82    0.64
   3   6   4   11.17    0.58
  -3   6  -4   10.67    0.64
   4  -6   4    1.18    0.24
  -4   6  -4    1.31    0.31
   4   6   4    1.68    0.23
  -4   6  -4    1.23    0.30
   5  -6   4    0.09    0.17
   5   6   4    0.13    0.14
  -5   6  -4    0.30    0.21
  -5   6  -4    0.21    0.22
   6  -6   4    0.02    0.20
  -6   6  -4   -0.16    0.14
   6   6   4    0.14    0.18
  -7  -7   4    0.29    0.14
  -7   7   4    0.40    0.14
  -6  -7   4    1.21    0.28
   6  -7  -4    0.79    0.28
  -6   7   4    1.03    0.23
  -6   7   4    0.77    0.24
   5  -7  -4   39.24    1.83
  -5   7   4   39.09    1.85
   5   7  -4   32.55    1.92
   5   7  -4   38.30    1.85
  -5   7   4   39.76    1.83
   4   7  -4    4.43    0.41
  -4   7   4    3.47    0.56
   4   7  -4    4.64    0.44
   3   7  -4    0.34    0.22
   3   7  -4    0.32    0.32
   3   7  -4    0.32    0.24
  -3   7   4    0.26    0.20
  -3   7   4   -0.13    0.22
  -2   7   4  139.24    6.53
  -2   7   4  139.98    6.45
  -1  -7   4   36.31    1.67
   1  -7  -4   33.39    1.71
  -1   7   4   33.09    1.63
  -1   7   4   34.91    1.69
   0  -7   4   10.66    0.60
   0  -7  -4    9.66    0.64
   0   7   4    9.61    0.52
   0   7   4   10.30    0.59
   1  -7   4  107.71    4.86
  -1  -7  -4   95.93    4.85
   1   7   4  103.48    4.78
   1   7   4  106.62    4.85
   2   7   4    2.75    0.21
  -2   7  -4    2.69    0.35
   2   7   4    2.66    0.29
  -2   7  -4    2.28    0.32
   3  -7   4   48.95    2.33
   3   7   4   50.88    2.33
  -3   7  -4   47.96    2.34
  -3   7  -4   49.93    2.36
  -4   7  -4    3.04    0.35
  -4   7  -4    2.98    0.32
   5  -7   4   26.90    1.28
   5   7   4   25.56    1.27
  -5   7  -4   25.40    1.26
   6  -7   4    3.48    0.33
  -6   7  -4    3.68    0.27
   6   7   4    3.60    0.29
  -6  -8   4    1.48    0.29
   6  -8  -4    0.93    0.28
   6   8  -4    1.31    0.35
  -6   8   4    1.38    0.32
  -6   8   4    1.30    0.22
  -5   8   4   13.59    0.72
   5   8  -4   12.68    0.75
   5   8  -4   13.63    0.76
  -5   8   4   12.44    0.79
  -4   8   4   52.43    2.39
   4   8  -4   49.76    2.39
  -4   8   4   48.23    2.38
   3  -8  -4    2.98    0.53
  -3   8   4    2.15    0.39
   3   8  -4    2.05    0.49
   3   8  -4    2.61    0.35
  -3   8   4    2.87    0.29
  -2   8   4  116.43    5.17
  -2   8   4  106.41    5.26
  -1  -8   4   88.63    4.16
  -1   8   4   88.50    4.13
  -1   8   4   89.82    4.20
   0  -8   4    6.39    0.46
   0  -8  -4    5.05    0.57
   0   8   4    5.86    0.48
   0   8   4    6.20    0.35
   1  -8   4    0.81    0.24
  -1  -8  -4    0.52    0.32
   1   8   4    0.92    0.17
   1   8   4    1.24    0.29
  -2   8  -4   81.70    3.86
   2   8   4   85.42    3.90
  -2   8  -4   82.87    3.89
   2   8   4   83.93    3.86
   2   8   4   81.05    3.86
   3  -8   4    8.31    0.49
   3   8   4    8.55    0.47
  -3   8  -4    8.05    0.51
   3   8   4    8.17    0.49
  -3   8  -4    8.86    0.54
   4  -8   4    7.18    0.44
   4   8   4    6.22    0.41
  -4   8  -4    6.93    0.45
  -4   8  -4    7.11    0.49
   5  -8   4   -0.08    0.18
  -5   8  -4    0.31    0.18
  -5   8  -4   -0.01    0.20
   5   8   4   -0.06    0.16
  -6   8  -4    0.23    0.14
   6  -9  -4    0.12    0.26
  -6  -9   4    0.27    0.20
  -6   9   4    0.04    0.13
  -6   9   4   -0.73    0.36
   6   9  -4    0.73    0.29
   5   9  -4   21.70    1.09
  -5   9   4   21.55    1.08
  -5   9   4   19.97    1.15
   5   9  -4   22.96    1.11
   4   9  -4    7.05    0.49
  -4   9   4    6.90    0.46
  -4   9   4    6.29    0.44
   4   9  -4    5.52    0.46
   3  -9  -4    0.19    0.42
   3   9  -4    0.08    0.32
   3   9  -4    0.22    0.20
  -3   9   4    0.27    0.19
  -3   9   4    0.18    0.22
   3   9  -4    0.15    0.24
   2   9  -4  267.59   13.39
   2   9  -4  282.63   13.40
   2   9  -4  322.76   13.47
  -1  -9   4  322.51   15.08
  -1  -9   4  327.25   15.07
  -1   9   4  323.55   15.12
  -1   9   4  333.99   15.04
   0  -9   4    3.62    0.45
   0   9   4    4.01    0.47
   0   9   4    4.16    0.27
   1  -9   4    1.55    0.51
   1   9   4    2.62    0.58
   2   9   4   33.49    1.79
  -2   9  -4   36.36    1.76
   2   9   4   39.96    1.76
   2   9   4   38.44    1.76
  -2   9  -4   36.76    1.80
   3  -9   4   10.20    0.58
  -3   9  -4   10.76    0.60
  -3   9  -4   10.99    0.65
   3   9   4   10.83    0.58
   3   9   4   10.56    0.59
   3   9   4    9.94    0.71
   4  -9   4    0.31    0.20
   4   9   4    0.28    0.15
  -4   9  -4    0.00    0.20
  -4   9  -4    0.19    0.24
   5  -9   4    4.29    0.34
  -5  -9  -4    3.76    0.32
  -5   9  -4    3.98    0.35
   5   9   4    4.46    0.31
  -5   9  -4    4.61    0.33
  -6   9  -4    0.75    0.18
   6 -10  -4    1.38    0.37
  -6 -10   4    1.17    0.29
  -6  10   4    1.57    0.20
   6  10  -4    1.58    0.35
   5  10  -4    0.76    0.23
  -5  10   4    0.65    0.20
   5  10  -4    1.31    0.33
  -4  10   4    0.74    0.24
   4  10  -4    0.53    0.23
  -4  10   4    1.01    0.24
   4  10  -4    1.18    0.33
  -3  10   4    3.89    0.39
   3  10  -4    4.08    0.54
  -3  10   4    4.11    0.34
   3  10  -4    3.06    0.38
   3  10  -4    4.33    0.35
   2  10  -4  112.35    4.86
   2  10  -4  104.95    4.89
  -2  10   4  101.72    4.91
   2  10  -4  101.31    4.84
  -2  10   4  101.79    4.85
  -1 -10   4   29.18    1.52
  -1  10   4   28.91    1.54
   0 -10   4   -0.07    0.27
   0  10   4    0.38    0.13
   0  10   4    0.52    0.33
   1  10   4   46.10    2.37
   1  10   4   48.76    2.19
  -1  10  -4   46.10    2.23
   1  10   4   45.31    2.20
   1  10   4   46.08    2.19
  -2  10  -4   13.80    0.76
   2  10   4   13.92    0.70
   2  10   4   13.38    0.71
   2  10   4   13.01    0.77
   3  10   4    4.07    0.33
   3  10   4    3.47    0.47
   3  10   4    4.86    0.32
  -3  10  -4    3.75    0.40
  -3  10  -4    3.84    0.32
   4 -10   4    2.85    0.30
  -4  10  -4    2.63    0.29
  -4  10  -4    2.25    0.33
   4  10   4    2.29    0.25
   5 -10   4   -0.05    0.18
  -5 -10  -4    0.10    0.15
  -5  10  -4    0.21    0.15
   5  10   4   -0.06    0.15
  -5  10  -4    0.10    0.17
  -6  10  -4    0.81    0.19
  -6 -11   4    0.16    0.19
   6 -11  -4    0.52    0.28
  -6  11   4    0.07    0.12
   6  11  -4    0.08    0.28
  -5 -11   4    8.63    0.62
   5  11  -4    9.89    0.57
  -5  11   4    9.90    0.57
   5  11  -4   11.13    0.60
   4  11  -4    0.25    0.26
  -4  11   4    0.35    0.23
   4  11  -4    0.39    0.21
  -4  11   4    0.36    0.22
   3  11  -4   15.62    0.83
   3  11  -4   15.62    0.85
  -3  11   4   16.03    0.85
  -3  11   4   16.09    0.83
   2  11  -4   83.71    3.98
  -2  11   4   82.48    4.01
   2  11  -4   89.75    4.00
  -2  11   4   84.80    3.99
   2  11  -4   87.28    4.04
   1  11  -4   14.79    0.84
   1  11  -4   16.06    0.96
   1  11  -4   13.06    0.75
  -1  11   4   14.34    0.72
  -1  11   4   13.16    0.77
   0 -11   4    5.11    0.71
   0  11   4    5.41    0.83
   0  11   4    5.69    0.44
   0  11   4    6.54    0.36
   0  11  -4    6.03    0.50
   0  11  -4    5.58    0.66
  -1  11  -4    0.32    0.21
  -1  11  -4    0.39    0.27
   1  11   4    0.29    0.15
   1  11   4    0.21    0.20
   1  11   4    0.40    0.19
  -2  11  -4    9.79    0.62
   2  11   4    9.68    0.56
   2  11   4   10.36    0.60
   2  11   4    9.38    0.54
   3  11   4    2.03    0.24
  -3  11  -4    1.08    0.33
   3  11   4    1.30    0.25
   3  11   4    1.28    0.30
  -3  11  -4    1.39    0.25
   4 -11   4    0.27    0.19
  -4  11  -4    0.27    0.19
  -4  11  -4    0.27    0.25
   4  11   4    0.17    0.17
   5 -11   4    4.45    0.36
  -5 -11  -4    3.57    0.29
  -5  11  -4    4.85    0.31
  -5  11  -4    4.24    0.34
  -6 -12   4    3.25    0.31
   6  12  -4    2.58    0.36
  -6  12   4    3.34    0.24
  -5 -12   4    7.04    0.48
   5  12  -4    6.55    0.41
   5  12  -4    5.91    0.61
  -4  12   4   24.75    1.34
   4  12  -4   27.63    1.33
  -4  12   4   28.00    1.35
   4  12  -4   28.12    1.35
  -3  12   4   18.53    1.00
  -3  12   4   19.76    1.02
   3  12  -4   20.51    1.11
   3  12  -4   19.15    0.99
   3  12  -4   20.07    1.01
   2  12  -4   25.16    1.30
  -2  12   4   22.86    1.30
   2  12  -4   25.43    1.22
  -2  12   4   25.44    1.22
   2  12  -4   25.23    1.25
  -1  12   4    4.05    0.28
   1  12  -4    3.58    0.36
   1  12  -4    3.93    0.51
  -1  12   4    3.33    0.38
   1  12  -4    4.19    0.65
   1  12  -4    3.97    0.49
   0 -12   4   -0.17    0.79
   0  12  -4   -0.18    0.25
   0  12   4   -0.03    0.23
   0  12   4    0.15    0.15
   0  12  -4    0.26    0.26
   0  12  -4    0.00    0.29
   0  12   4    0.18    0.22
   1  12   4   49.10    2.20
   1  12   4   45.88    2.19
  -1  12  -4   44.51    2.19
  -1  12  -4   45.21    2.23
   1  12   4   47.19    2.20
   2  12   4   12.81    0.66
   2  12   4   11.92    0.67
  -2  12  -4   11.54    0.73
   3  12   4   79.38    3.72
  -3  12  -4   79.36    3.73
  -3  12  -4   79.99    3.77
   3  12   4   80.50    3.74
   4 -12   4    0.23    0.20
  -4  12  -4   -0.04    0.22
   4  12   4    0.22    0.17
  -4  12  -4    0.29    0.20
   5 -12   4    3.47    0.35
  -5 -12  -4    3.09    0.25
  -5  12  -4    3.08    0.29
  -5  12  -4    3.30    0.27
   5  12   4    3.34    0.30
  -6 -13   4    0.00    0.21
  -6  13   4    0.30    0.12
   6  13  -4    0.24    0.23
  -5 -13   4    1.08    0.33
  -5  13   4    0.59    0.16
   5  13  -4    0.63    0.18
   5  13  -4    0.94    0.27
  -4  13   4   22.31    1.29
   4  13  -4   26.21    1.30
  -4  13   4   27.89    1.29
   4  13  -4   27.57    1.28
  -3  13   4    4.36    0.36
  -3  13   4    4.38    0.44
   3  13  -4    4.04    0.35
   3  13  -4    3.47    0.39
   3  13  -4    3.65    0.54
   2  13  -4   24.86    1.26
  -2  13   4   23.30    1.32
   2  13  -4   25.79    1.33
   2  13  -4   24.27    1.23
  -2  13   4   27.50    1.25
  -1  13   4    1.86    0.34
   1  13  -4    1.60    0.32
  -1  13   4    2.26    0.22
   1  13  -4    2.26    0.44
   1  13  -4    2.20    0.49
   0  13  -4    1.13    0.28
   0  13   4    0.83    0.24
   0  13  -4    0.91    0.31
   0  13   4    0.81    0.20
   0  13   4    1.05    0.23
   0  13  -4    0.91    0.28
   1  13   4    2.00    0.28
  -1  13  -4    1.93    0.42
   1  13   4    2.01    0.31
  -1  13  -4    2.14    0.32
   1  13   4    2.25    0.23
  -2  13  -4    6.34    0.43
   2  13   4    6.34    0.41
  -2  13  -4    6.67    0.51
   2  13   4    5.80    0.40
   2  13   4    6.20    0.45
   3  13   4    5.26    0.42
  -3  13  -4    5.06    0.45
   3  13   4    4.72    0.35
   3  13   4    4.60    0.36
  -3  13  -4    5.23    0.38
   4 -13   4    3.98    0.36
  -4  13  -4    4.69    0.34
   4  13   4    4.29    0.55
   4  13   4    3.64    0.32
  -5 -13  -4    2.00    0.25
   5 -13   4    2.97    0.37
  -5  13  -4    2.93    0.28
  -5  13  -4    2.75    0.23
   5  13   4    2.91    0.28
  -6  14   4    2.05    0.18
  -5 -14   4    1.20    0.37
  -5  14   4    1.91    0.23
   5  14  -4    1.61    0.25
   5  14  -4    1.60    0.23
  -4  14   4    3.62    0.38
   4  14  -4    3.65    0.35
  -4  14   4    3.87    0.36
   4  14  -4    4.04    0.34
   3  14  -4    3.27    0.55
   3  14  -4    3.91    0.35
  -3  14   4    4.33    0.44
   3  14  -4    3.81    0.38
  -3  14   4    3.98    0.36
   2  14  -4   12.14    0.66
   2  14  -4   11.21    0.69
  -2  14   4   12.13    0.65
   1  14  -4    8.78    0.61
  -1  14   4    8.75    0.55
   1  14  -4    8.84    0.70
   1  14  -4    8.49    0.54
  -1  14   4    8.88    0.50
   0  14  -4    2.76    0.44
   0  14   4    3.34    0.27
   0  14  -4    3.38    0.43
   0  14   4    3.50    0.35
   0  14  -4    1.90    0.47
   1  14   4   78.75    3.51
  -1  14  -4   68.51    3.53
   1  14   4   78.39    3.51
  -1  14  -4   73.45    3.53
  -2  14  -4   15.43    0.89
   2  14   4   16.08    0.82
   2  14   4   16.52    0.85
  -2  14  -4   15.78    0.83
   2  14   4   17.11    0.84
   3  14   4    5.64    0.43
   3  14   4    4.95    0.38
   3  14   4    5.68    0.37
  -3  14  -4    5.56    0.39
  -3  14  -4    5.85    0.48
   4 -14   4   21.23    1.07
  -4  14  -4   21.44    1.08
   4  14   4   20.26    1.10
   4  14   4   22.93    1.07
  -4  14  -4   20.57    1.04
  -5 -14  -4    0.00    0.11
   5  14   4    0.02    0.19
  -5  14  -4    0.20    0.19
  -5  14  -4    0.08    0.12
  -5 -15   4   -0.10    0.26
   5  15  -4    0.06    0.14
   5  15  -4   -0.04    0.17
  -5  15   4    0.03    0.15
  -4  15   4    2.06    0.30
   4  15  -4    2.51    0.28
  -4  15   4    2.49    0.33
   4  15  -4    2.70    0.32
   3  15  -4    0.37    0.21
   3  15  -4    0.57    0.19
  -3  15   4    0.94    0.26
   3  15  -4    0.51    0.38
  -3  15   4    0.43    0.29
   2  15  -4    6.87    0.48
  -2  15   4    6.98    0.43
   2  15  -4    6.62    0.44
   2  15  -4    5.34    0.67
   1  15  -4    0.15    0.49
  -1  15   4    0.54    0.23
  -1  15   4    0.36    0.16
   1  15  -4    0.19    0.20
   0  15   4   27.11    1.27
   0  15  -4   25.61    1.40
   0  15  -4   24.61    1.30
   0  15  -4   24.73    1.30
   0  15   4   26.81    1.27
   1  15   4   32.76    1.63
   1  15   4   35.50    1.65
  -1  15  -4   33.81    1.70
   1  15   4   35.27    1.65
  -1  15  -4   33.47    1.65
   2  15   4    3.28    0.29
   2  15   4    3.61    0.40
  -2  15  -4    3.45    0.44
   2  15   4    3.04    0.33
  -2  15  -4    3.40    0.33
  -3  15  -4    4.08    0.34
   3  15   4    4.74    0.38
  -3  15  -4    4.31    0.43
   3  15   4    3.55    0.32
   4 -15   4    2.80    0.39
  -4  15  -4    3.31    0.35
  -4  15  -4    3.55    0.27
   4  15   4    3.48    0.43
   4  15   4    3.29    0.29
  -5 -15  -4   10.90    0.54
  -5  15  -4   10.62    0.55
  -5  15  -4   11.18    0.58
  -5  16   4    2.12    0.25
   5  16  -4    1.98    0.23
   5  16  -4    1.91    0.21
  -4  16   4    9.11    0.54
   4  16  -4    9.08    0.57
  -4  16   4    8.56    0.55
   4  16  -4   10.10    0.58
  -3  16   4    0.53    0.22
   3  16  -4    0.71    0.22
  -3  16   4    0.56    0.29
   3  16  -4    1.06    0.26
  -2  16   4    3.05    0.38
   2  16  -4    2.89    0.36
   2  16  -4    3.05    0.66
   2  16  -4    2.71    0.32
   1  16  -4   23.87    1.21
  -1  16   4   24.61    1.23
   1  16  -4   22.78    1.32
   1  16  -4   24.76    1.24
  -1  16   4   26.40    1.22
   0  16   4    0.54    0.20
   0  16  -4    0.05    0.27
   0  16  -4    1.04    0.36
   0  16  -4    0.86    0.31
   0  16   4    0.69    0.16
   1  16   4    0.22    0.19
   1  16   4    0.41    0.19
  -1  16  -4    0.27    0.33
   1  16   4   -0.03    0.17
  -1  16  -4    0.14    0.23
  -2  16  -4   -0.07    0.21
   2  16   4    0.13    0.15
   2  16   4   -0.05    0.16
  -2  16  -4    0.63    0.30
   2  16   4   -0.01    0.19
   3  16   4    0.17    0.21
   3  16   4    0.08    0.17
  -3  16  -4    0.27    0.17
   4 -16   4   10.60    0.71
  -4  16  -4   12.18    0.66
  -4  16  -4   12.48    0.61
   4  16   4   12.31    0.63
   4  16   4   10.81    0.66
   5  17  -4   18.58    0.91
   5  17  -4   18.33    0.92
  -5  17   4   20.06    0.98
   4  17  -4    0.42    0.14
  -4  17   4    1.03    0.27
  -4  17   4    0.57    0.21
   4  17  -4    0.58    0.19
  -3  17   4    3.23    0.32
  -3  17   4    2.86    0.47
   3  17  -4    3.26    0.31
   3  17  -4    3.87    0.34
   2  17  -4    0.24    0.22
   2  17  -4    1.38    0.47
  -2  17   4    0.40    0.20
   2  17  -4    0.32    0.18
   1  17  -4    3.11    0.57
   1  17  -4    3.57    0.38
   1  17  -4    4.66    0.44
  -1  17   4    4.01    0.38
   0  17   4    0.42    0.21
   0  17  -4    0.76    0.40
   0  17  -4   -0.17    0.30
   0  17  -4    0.74    0.33
   1  17   4    1.32    0.24
  -1  17  -4    1.67    0.49
  -1  17  -4    0.93    0.25
   1  17   4    1.47    0.29
  -2  17  -4   19.13    1.05
  -2  17  -4   20.18    0.99
   2  17   4   18.38    0.98
   2  17   4   20.19    0.99
  -3  17  -4    1.02    0.23
   3  17   4    0.88    0.25
  -3  17  -4    0.83    0.28
   3  17   4    0.97    0.23
  -4  17  -4    2.93    0.40
   4  17   4    2.77    0.39
  -4  17  -4    2.77    0.23
   4  17   4    3.36    0.29
   5  18  -4    0.12    0.13
  -5  18   4    0.35    0.17
   5  18  -4    0.01    0.10
  -4  18   4    0.11    0.20
   4  18  -4    0.06    0.15
   4  18  -4    0.11    0.12
   3  18  -4    2.86    0.40
  -3  18   4    2.62    0.29
   3  18  -4    2.99    0.28
  -2  18   4   -0.04    0.18
   2  18  -4   -0.08    0.21
   2  18  -4    0.01    0.17
   1  18  -4   13.17    0.68
   1  18  -4   12.29    0.71
  -1  18   4   11.64    0.66
  -1  18   4   11.78    0.68
   0  18  -4   12.15    0.90
   0  18   4   11.62    0.65
   0  18   4   12.46    0.67
  -1  18  -4    6.16    0.48
   1  18   4    6.16    0.42
   1  18   4    6.16    0.42
  -1  18  -4    6.90    0.63
   2  18   4    3.75    0.31
  -2  18  -4    3.61    0.35
  -2  18  -4    2.78    0.45
   2  18   4    4.10    0.34
   3  18   4    3.86    0.31
  -3  18  -4    2.87    0.41
   3  18   4    3.44    0.30
  -3  18  -4    3.87    0.29
   4  18   4    1.02    0.26
   4  18   4    0.38    0.24
  -4  18  -4    0.87    0.17
   4  19  -4    0.08    0.14
   4  19  -4    0.21    0.11
   3  19  -4    7.50    0.45
  -3  19   4    7.09    0.46
   3  19  -4    7.58    0.42
   2  19  -4    0.89    0.24
   2  19  -4    0.50    0.22
  -2  19   4    0.86    0.23
  -1  19   4    4.91    0.39
   1  19  -4    4.93    0.39
   1  19  -4    4.97    0.45
  -1  19   4    4.17    0.35
   0  19   4    7.44    0.45
   0  19   4    6.31    0.42
  -1  19  -4   14.52    0.92
   1  19   4   17.73    0.82
   1  19   4   14.63    0.81
  -2  19  -4    4.27    0.53
  -2  19  -4    4.08    0.34
   2  19   4    4.27    0.32
   2  19   4    4.27    0.33
   3  19   4    1.24    0.23
   3  19   4    1.44    0.25
  -3  19  -4    1.59    0.22
  -4  19  -4    0.15    0.11
   4  20  -4    2.87    0.21
   4  20  -4    2.80    0.23
   3  20  -4   -0.06    0.12
  -3  20   4   -0.23    0.20
   3  20  -4    0.04    0.17
   2  20  -4    3.65    0.30
   2  20  -4    4.51    0.36
  -2  20   4    3.91    0.32
  -1  20   4    0.02    0.16
  -1  20   4   -0.14    0.33
   1  20  -4    0.07    0.19
   1  20  -4    0.22    0.26
   0  20   4    4.65    0.35
   0  20   4    5.31    0.38
   1  20   4    9.05    0.51
   1  20   4    9.06    0.51
  -1  20  -4    8.32    0.57
   2  20   4    7.48    0.45
  -2  20  -4    7.88    0.47
   2  20   4    7.98    0.46
   3  20   4    0.21    0.18
  -3  20  -4    0.13    0.15
   3  20   4   -0.03    0.14
   4  21  -4    0.28    0.10
   4  21  -4    0.32    0.11
   3  21  -4    8.84    0.51
   3  21  -4    9.85    0.49
  -3  21   4    9.53    0.53
  -2  21   4    0.69    0.19
   2  21  -4    1.11    0.26
   2  21  -4    0.57    0.15
   1  21  -4    1.36    0.37
   1  21  -4    1.23    0.29
   0  21   4    0.20    0.17
   0  21   4    0.14    0.18
   1  21   4    3.89    0.32
   1  21   4    3.97    0.31
  -2  21  -4    7.41    0.47
   2  21   4    7.45    0.43
   2  21   4    7.73    0.45
   3  21   4    2.72    0.21
  -3  21  -4    2.62    0.26
   3  22  -4    0.28    0.16
  -3  22   4    0.12    0.20
   3  22  -4    0.18    0.11
  -2  22   4    5.74    0.38
   2  22  -4    5.46    0.37
   2  22  -4    5.35    0.33
   1  22  -4    2.27    0.35
   0  22   4    0.57    0.17
   0  22   4    0.66    0.21
   1  22   4   11.87    0.63
   1  22   4   12.54    0.65
   2  22   4    0.86    0.26
   2  22   4    0.74    0.17
   3  23  -4    1.27    0.21
   3  23  -4    1.99    0.18
   2  23  -4   -0.20    0.19
  -2  23   4    0.01    0.21
   2  23  -4    0.03    0.15
  -1  23   4    0.47    0.19
   0  23   4    0.44    0.19
   1  23   4    1.16    0.19
   1  23   4    1.17    0.28
   2  23   4    4.24    0.27
  -1  24   4    2.60    0.31
   0  24   4   -0.04    0.23
  -7   0   5    0.00    0.15
  -6   0   5   -0.04    0.23
  -6   0   5   -0.20    0.23
  -5   0   5    0.24    0.23
   5   0  -5    0.20    0.38
  -5   0   5    0.48    0.25
   4   0  -5   -0.25    0.27
  -4   0   5   -0.04    0.21
  -3   0   5    0.04    0.36
  -3   0   5    0.28    0.25
  -2   0   5    0.10    0.16
   2   0  -5    0.28    0.26
   1   0  -5   -0.02    0.13
  -1   0   5   -0.03    0.11
   0   0   5    0.01    0.12
   0   0  -5   -0.17    0.13
   1   0   5   -0.16    0.16
  -1   0  -5   -0.17    0.17
   2   0   5    0.31    0.35
   2   0   5    0.02    0.13
  -3   0  -5    0.17    0.27
   3   0   5   -0.17    0.14
   4   0   5    0.12    0.15
  -4   0  -5   -0.07    0.23
   5   0   5    0.34    0.16
  -5   0  -5    0.59    0.29
  -6   0  -5    0.86    0.28
   6   0   5   -0.03    0.18
  -7  -1   5    8.11    0.46
  -7   1   5    9.18    0.57
  -6  -1   5   20.74    1.09
  -6  -1   5   19.76    1.04
  -6   1   5   20.33    1.03
  -6   1   5   20.18    1.03
   5  -1  -5   10.87    0.79
  -5  -1   5   10.66    0.66
  -5  -1   5   10.67    0.65
  -5   1   5   10.85    0.66
  -5   1   5   10.66    0.65
   5   1  -5   11.11    0.72
  -4  -1   5    0.70    0.23
   4  -1  -5    0.86    0.31
  -4   1   5    0.73    0.21
   4   1  -5    0.77    0.28
  -3  -1   5   33.57    1.79
  -3   1   5   35.47    1.81
  -3   1   5   35.18    1.67
  -2  -1   5    2.92    0.34
   2  -1  -5    3.26    0.46
  -2   1   5    2.82    0.33
   2   1  -5    2.76    0.45
   1  -1  -5   -0.05    0.14
  -1   1   5    0.18    0.13
   1   1  -5   -0.03    0.14
   0  -1  -5  136.53    6.61
   0  -1   5  145.22    6.61
   0   1  -5  140.91    6.61
   0   1   5  146.82    6.61
  -1  -1  -5   65.96    3.40
   1  -1   5   77.08    3.41
   1   1   5   69.07    3.34
   1   1   5   76.48    3.41
   2  -1   5   87.35    4.10
   2  -1   5   87.18    4.21
   2   1   5   91.28    4.10
   2   1   5   87.95    4.21
   3  -1   5    8.02    0.44
  -3  -1  -5    8.20    0.59
  -3  -1  -5    6.80    0.50
  -3   1  -5    7.86    0.53
   3   1   5    7.33    0.43
   4  -1   5   20.48    1.01
  -4  -1  -5   19.45    1.06
   4   1   5   20.48    1.01
  -4   1  -5   20.39    1.06
   5  -1   5   60.42    2.91
  -5  -1  -5   61.66    2.94
  -5   1  -5   66.11    3.08
   5   1   5   60.36    2.91
   6  -1   5   12.65    0.62
  -6  -1  -5   11.54    0.66
   6   1   5   12.09    0.62
  -6   1  -5   10.12    0.62
  -7  -2   5    0.29    0.14
  -7   2   5    0.25    0.16
  -6  -2   5    1.87    0.44
  -6  -2   5    2.04    0.30
  -6   2   5    1.78    0.29
  -6   2   5    2.01    0.32
   5  -2  -5    2.18    0.61
  -5  -2   5    2.13    0.43
  -5  -2   5    2.28    0.36
  -5   2   5    2.39    0.38
   5   2  -5    1.87    0.47
  -5   2   5    2.45    0.34
   4  -2  -5    0.21    0.32
  -4  -2   5    0.34    0.25
   4   2  -5   -0.07    0.27
  -4   2   5    0.53    0.20
   3   2  -5   66.81    3.09
   3   2  -5   68.67    3.07
  -3   2   5   60.54    3.16
  -3   2   5   64.08    3.05
   2  -2  -5   73.41    3.65
  -2  -2   5   76.92    3.62
  -2   2   5   77.17    3.63
   2   2  -5   80.32    3.63
   1  -2  -5   -0.02    0.15
  -1   2   5    0.21    0.13
   1   2  -5    0.13    0.16
   0  -2   5   12.85    0.70
   0  -2  -5   12.70    0.70
   0   2   5   14.05    0.71
   0   2  -5   12.88    0.70
  -1  -2  -5    0.19    0.20
   1  -2   5    0.05    0.17
   1   2   5   -0.14    0.19
   1   2   5    0.38    0.15
   2  -2   5    4.26    0.66
   2  -2   5    4.56    0.30
   2   2   5    4.50    0.29
   2   2   5    4.20    0.64
  -3  -2  -5   -0.35    0.32
   3  -2   5   -0.17    0.14
  -3  -2  -5    0.04    0.17
  -3   2  -5    0.00    0.27
  -3   2  -5   -0.04    0.23
   3   2   5    0.18    0.13
   4  -2   5    1.59    0.24
  -4  -2  -5    1.30    0.31
   4   2   5    1.46    0.23
  -4   2  -5    1.16    0.34
  -5  -2  -5    3.63    0.42
   5  -2   5    2.87    0.28
  -5   2  -5    3.88    0.52
   5   2   5    2.62    0.27
   6  -2   5    0.57    0.22
   6   2   5    0.44    0.19
  -7  -3   5    0.59    0.19
  -7   3   5    0.88    0.23
  -7   3   5    0.63    0.25
  -6  -3   5    4.39    0.38
  -6   3   5    5.11    0.37
  -6   3   5    4.57    0.38
  -5  -3   5   21.48    1.15
   5   3  -5   22.02    1.13
  -5   3   5   23.35    1.10
  -5   3   5   20.60    1.12
  -4  -3   5    0.58    0.26
   4  -3  -5    0.09    0.35
  -4   3   5    0.31    0.21
  -4   3   5   -0.14    0.31
   4   3  -5    0.30    0.24
  -3   3   5   42.23    2.31
   3   3  -5   47.66    2.18
  -3   3   5   45.92    2.16
   3   3  -5   46.47    2.22
  -2  -3   5    4.63    0.41
  -2   3   5    4.10    0.40
   2   3  -5    4.38    0.48
   1  -3  -5   -0.09    0.16
  -1  -3   5    0.22    0.17
   1   3  -5    0.26    0.18
  -1   3   5    0.68    0.20
   0  -3  -5    1.37    0.28
   0  -3   5    1.39    0.24
   0   3   5    1.97    0.23
   0   3  -5    1.76    0.27
   1  -3   5   46.24    2.11
  -1  -3  -5   41.31    2.12
   1   3   5   41.27    2.03
   1   3   5   45.12    2.11
   2  -3   5   19.26    0.97
   2   3   5   19.86    1.00
  -2   3  -5   21.32    1.11
   2   3   5   19.08    1.22
  -3  -3  -5   35.45    1.89
   3  -3   5   40.15    1.82
  -3   3  -5   36.24    1.83
  -3   3  -5   39.92    1.86
   3   3   5   39.31    1.82
  -4  -3  -5    0.58    0.33
  -4   3  -5    0.19    0.29
  -4   3  -5    0.57    0.24
   5  -3   5   21.83    1.08
  -5  -3  -5   20.78    1.12
   5   3   5   21.09    1.07
  -5   3  -5   23.08    1.14
   6   3   5    4.34    0.33
  -7  -4   5    0.93    0.30
  -7   4   5    1.54    0.30
  -7   4   5    1.18    0.24
  -6  -4   5    6.97    0.46
  -6   4   5    6.81    0.43
  -6   4   5    5.97    0.44
  -5  -4   5    1.97    0.51
   5   4  -5    1.62    0.39
  -5   4   5    1.19    0.37
  -5   4   5    1.60    0.30
   4  -4  -5    1.52    0.38
  -4  -4   5    1.57    0.31
  -4   4   5    1.79    0.30
   4   4  -5    2.00    0.52
  -4   4   5    2.17    0.47
   4   4  -5    1.93    0.38
   3  -4  -5   23.83    1.21
  -3   4   5   23.36    1.17
  -3   4   5   23.62    1.17
  -3   4   5   21.88    1.43
   3   4  -5   24.84    1.19
   3   4  -5   24.61    1.25
  -2  -4   5    0.51    0.21
  -2   4   5    0.40    0.21
  -2   4   5    0.90    0.26
   2   4  -5    0.58    0.25
   1  -4  -5    5.62    0.47
  -1   4   5    6.96    0.42
   1   4  -5    6.61    0.47
   0  -4   5    7.99    0.48
   0  -4  -5    6.63    0.48
   0   4   5    7.65    0.47
   0   4  -5    6.98    0.50
   1  -4   5   22.15    1.15
   1   4   5   21.54    1.06
   1   4   5   22.60    1.16
   2  -4   5   23.58    1.21
   2   4   5   25.45    1.21
  -2   4  -5   26.63    1.26
  -2   4  -5   25.55    1.27
   2   4   5   25.34    1.46
   3  -4   5    5.35    0.35
   3   4   5    5.62    0.34
  -3   4  -5    4.50    0.41
  -3   4  -5    4.64    0.42
  -4  -4  -5    2.80    0.33
   4  -4   5    2.54    0.33
  -4  -4  -5    2.74    0.52
  -4   4  -5    2.73    0.38
   4   4   5    2.38    0.25
  -4   4  -5    3.13    0.35
  -5  -4  -5    1.12    0.36
   5  -4   5    0.98    0.23
   5   4   5    0.76    0.21
  -5   4  -5    1.44    0.29
   6   4   5   18.31    0.97
  -7  -5   5    0.35    0.14
  -7   5   5    0.51    0.20
  -6  -5   5    8.01    0.49
  -6   5   5    6.84    0.48
  -6   5   5    7.70    0.46
   6   5  -5    7.42    0.59
   5  -5  -5    1.47    0.37
  -5  -5   5    2.56    0.55
   5   5  -5    1.27    0.36
  -5   5   5    1.38    0.29
  -5   5   5    1.58    0.40
  -4  -5   5    7.55    0.58
   4  -5  -5    6.70    0.64
   4   5  -5    7.38    0.60
  -4   5   5    7.22    0.65
   4   5  -5    8.03    0.54
   3  -5  -5   22.29    1.15
   3   5  -5   22.96    1.18
  -3   5   5   21.87    1.10
   3   5  -5   21.60    1.13
  -3   5   5   22.19    1.11
   3   5  -5   23.11    1.13
  -2  -5   5    0.25    0.24
  -2   5   5    0.69    0.20
   2   5  -5    0.51    0.29
  -2   5   5    0.28    0.20
  -1  -5   5   26.43    1.29
   1   5  -5   24.99    1.30
  -1   5   5   25.26    1.28
   0  -5  -5    0.05    0.20
   0   5   5    0.38    0.17
   0   5   5    0.33    0.13
   0   5  -5    0.16    0.20
   1  -5   5   56.08    2.64
   1   5   5   57.19    2.65
   1   5   5   51.25    2.55
   2  -5   5    0.00    0.16
  -2   5  -5   -0.22    0.24
   2   5   5    0.24    0.13
   2   5   5    0.24    0.48
  -2   5  -5   -0.07    0.20
   3  -5   5    2.53    0.27
  -3   5  -5    2.58    0.34
   3   5   5    2.86    0.25
  -3   5  -5    2.70    0.34
  -4  -5  -5    2.20    0.29
   4  -5   5    2.07    0.26
  -4   5  -5    2.87    0.35
   4   5   5    2.00    0.24
  -4   5  -5    1.96    0.35
   5  -5   5    0.01    0.18
  -5   5  -5    0.00    0.26
  -5   5  -5    0.32    0.21
   5   5   5    0.10    0.14
  -6   5  -5    3.26    0.26
  -7  -6   5    0.63    0.15
  -7   6   5    1.19    0.23
  -6  -6   5    7.98    0.49
  -6   6   5    6.59    0.49
  -6   6   5    7.48    0.45
   6   6  -5    7.73    0.58
   5  -6  -5    5.87    0.48
  -5   6   5    5.95    0.43
   5   6  -5    6.85    0.50
  -5   6   5    6.65    0.54
  -4  -6   5   15.69    0.93
   4  -6  -5   16.08    0.97
   4   6  -5   16.46    0.90
   4   6  -5   17.10    0.90
  -4   6   5   16.28    0.84
  -4   6   5   15.06    0.97
   3  -6  -5    1.68    0.40
  -3   6   5    1.01    0.29
   3   6  -5    0.85    0.24
  -3   6   5    0.77    0.21
   3   6  -5    0.73    0.23
   3   6  -5    0.84    0.36
  -2  -6   5    6.22    0.58
  -2   6   5    7.08    0.56
  -2   6   5    7.30    0.43
  -1  -6   5  109.72    4.83
  -1   6   5   97.05    4.77
   1   6  -5  100.47    4.82
  -1   6   5  105.26    4.84
   0  -6   5   73.75    3.47
   0   6   5   74.45    3.48
   0   6   5   71.80    3.41
   1  -6   5   86.25    4.08
   1   6   5   84.28    4.08
   1   6   5   87.33    3.99
   2  -6   5   19.06    0.95
  -2   6  -5   19.78    1.00
   2   6   5   19.50    0.94
  -2   6  -5   17.89    0.96
   3  -6   5   49.50    2.20
  -3   6  -5   43.51    2.20
   3   6   5   47.97    2.20
  -3   6  -5   44.20    2.25
   4  -6   5    5.25    0.37
  -4   6  -5    4.96    0.40
  -4   6  -5    5.50    0.43
   4   6   5    4.59    0.34
   5  -6   5   11.76    0.62
  -5   6  -5   10.46    0.63
   5   6   5   11.23    0.60
  -5   6  -5   11.05    0.63
  -6   6  -5    0.71    0.19
  -7  -7   5    0.31    0.14
  -7   7   5    0.16    0.15
  -6  -7   5    0.03    0.19
  -6   7   5    0.19    0.26
   6   7  -5    0.64    0.28
  -6   7   5   -0.11    0.14
   5  -7  -5    0.62    0.26
  -5   7   5    0.83    0.35
   5   7  -5    0.72    0.32
   5   7  -5    1.06    0.26
  -5   7   5    1.13    0.28
  -4  -7   5    4.09    0.59
   4  -7  -5    5.06    0.63
   4   7  -5    5.25    0.42
  -4   7   5    5.02    0.42
   4   7  -5    4.45    0.46
   3  -7  -5    0.12    0.29
   3   7  -5    0.24    0.35
   3   7  -5    0.00    0.25
   3   7  -5    0.22    0.19
  -3   7   5   -0.12    0.23
  -3   7   5    0.02    0.22
   2   7  -5    0.23    0.25
   2   7  -5   -0.16    0.34
  -2   7   5   -0.04    0.17
  -1  -7   5    1.21    0.29
  -1   7   5    1.12    0.24
  -1   7   5    2.17    0.36
   0  -7   5   59.32    2.81
   0   7   5   57.93    2.73
   0   7   5   58.21    2.82
   1  -7   5    0.00    0.27
   1   7   5    0.27    0.13
   1   7   5    0.61    0.32
   2  -7   5    1.65    0.29
  -2   7  -5    1.63    0.30
  -2   7  -5    1.72    0.29
   2   7   5    1.91    0.21
   2   7   5    1.97    0.34
   3  -7   5   16.29    0.82
  -3   7  -5   15.34    0.84
  -3   7  -5   15.26    0.87
   3   7   5   16.74    0.81
   4  -7   5    2.66    0.29
   4   7   5    2.86    0.27
  -4   7  -5    2.74    0.33
  -4   7  -5    3.80    0.38
   5  -7   5    1.07    0.27
  -5   7  -5    0.66    0.19
   5   7   5    0.79    0.20
  -5   7  -5    1.05    0.28
  -6   7  -5    0.00    0.13
  -6  -8   5    0.84    0.27
  -6   8   5    0.88    0.20
   6   8  -5    0.52    0.27
   5   8  -5    1.91    0.37
   5   8  -5    2.43    0.43
  -5   8   5    2.76    0.32
   4  -8  -5   55.82    3.04
   4   8  -5   64.13    2.95
   4   8  -5   65.59    2.97
  -4   8   5   64.77    2.95
   3  -8  -5    5.31    0.53
  -3   8   5    6.09    0.47
   3   8  -5    6.60    0.46
   3   8  -5    6.18    0.43
   3   8  -5    6.00    0.58
  -3   8   5    6.36    0.44
   2   8  -5    1.47    0.38
   2   8  -5    2.44    0.51
  -2   8   5    2.05    0.27
   2   8  -5    1.69    0.32
  -1  -8   5   65.96    3.11
  -1   8   5   63.04    3.12
  -1   8   5   65.34    3.02
   0  -8   5    0.19    0.28
   0   8   5    0.26    0.13
   0   8   5    0.37    0.31
   1   8   5   12.51    0.95
   1   8   5   12.69    0.76
  -1   8  -5   11.48    0.69
  -1   8  -5   11.03    0.66
   1   8   5   12.62    0.62
   2  -8   5    0.05    0.20
   2   8   5    0.23    0.28
   2   8   5    0.09    0.13
  -2   8  -5    0.55    0.20
  -2   8  -5    0.21    0.20
   3  -8   5   88.24    4.12
  -3   8  -5   86.27    4.15
  -3   8  -5   86.11    4.11
   3   8   5   92.29    4.12
   4  -8   5    6.93    0.46
   4   8   5    6.53    0.42
  -4   8  -5    7.14    0.48
  -4   8  -5    7.01    0.46
   5  -8   5    3.47    0.35
   5   8   5    3.84    0.30
  -5   8  -5    3.59    0.32
  -5   8  -5    4.02    0.32
  -6  -9   5   -0.02    0.19
  -6   9   5    0.06    0.13
   6   9  -5   -0.18    0.24
   5   9  -5    7.62    0.54
  -5   9   5    8.06    0.50
   5   9  -5    7.91    0.54
  -4   9   5   30.67    1.51
  -4   9   5   33.90    1.53
   4   9  -5   29.56    1.51
   4   9  -5   29.89    1.53
   3  -9  -5   12.77    0.76
   3   9  -5   11.48    0.69
   3   9  -5   12.25    0.67
  -3   9   5   13.03    0.68
  -3   9   5   12.31    0.73
   3   9  -5   11.65    0.81
  -2   9   5   24.08    1.29
   2   9  -5   27.29    1.32
   2   9  -5   25.81    1.25
  -2   9   5   25.84    1.24
   2   9  -5   21.75    1.31
   2   9  -5   27.03    1.27
  -1  -9   5    1.78    0.43
   1   9  -5    1.43    0.31
  -1   9   5    2.13    0.28
   1   9  -5    2.40    0.40
  -1   9   5    1.94    0.22
   0  -9   5   47.59    2.43
   0   9   5   47.81    2.46
   0   9  -5   50.24    2.34
   0   9  -5   51.10    2.32
   0   9   5   48.83    2.31
   0   9   5   47.27    2.33
  -1   9  -5    0.76    0.21
   1   9   5    0.52    0.15
   1   9   5    0.77    0.51
   1   9   5    0.58    0.23
  -1   9  -5    0.57    0.24
   2  -9   5    7.83    0.50
   2   9   5    8.33    0.47
   2   9   5    8.33    0.56
  -2   9  -5    8.48    0.49
  -2   9  -5    8.58    0.54
   3  -9   5   20.37    1.02
  -3   9  -5   19.38    1.04
  -3   9  -5   19.81    1.01
   3   9   5   20.12    1.00
   4  -9   5    3.85    0.37
  -4   9  -5    4.60    0.36
   4   9   5    4.33    0.32
  -4   9  -5    4.71    0.39
   5  -9   5    2.17    0.32
  -5   9  -5    2.28    0.26
  -5   9  -5    2.23    0.27
   5   9   5    2.49    0.36
  -6 -10   5    0.12    0.19
  -6  10   5    0.20    0.13
   6  10  -5    0.34    0.22
   5  10  -5    1.59    0.27
   5  10  -5    2.63    0.34
  -5  10   5    2.02    0.29
   4  10  -5    0.01    0.22
  -4  10   5    0.11    0.19
  -4  10   5   -0.09    0.25
   4  10  -5    0.12    0.20
   3 -10  -5   19.42    1.07
  -3  10   5   20.87    1.00
  -3  10   5   19.10    1.00
   3  10  -5   19.26    1.02
   3  10  -5   18.55    1.09
   3  10  -5   19.28    0.98
  -2  10   5    2.73    0.54
   2  10  -5    2.73    0.44
   2  10  -5    2.07    0.52
  -2  10   5    1.75    0.28
   2  10  -5    2.18    0.30
   2  10  -5    2.69    0.35
   1  10  -5    0.36    0.27
   1  10  -5    1.00    0.35
   1  10  -5    0.72    0.19
   1  10  -5    0.84    0.30
  -1  10   5    0.12    0.21
   0 -10   5    7.63    0.90
   0  10   5    6.93    0.48
   0  10  -5    7.83    0.50
   0  10  -5    7.20    0.50
   0  10  -5    6.10    0.50
   0  10   5    7.39    0.41
   1  10   5   21.62    1.13
  -1  10  -5   22.92    1.13
  -1  10  -5   22.46    1.16
   1  10   5   23.43    1.11
  -2  10  -5   93.21    4.33
   2  10   5   94.80    4.30
  -2  10  -5   90.30    4.29
   2  10   5   90.57    4.30
   3 -10   5    3.52    0.37
   3  10   5    3.48    0.50
   3  10   5    3.51    0.30
  -3  10  -5    3.60    0.38
  -3  10  -5    3.38    0.33
   4 -10   5    4.49    0.38
  -4  10  -5    3.29    0.37
  -4  10  -5    4.65    0.35
   4  10   5    4.42    0.32
   5 -10   5    6.96    0.49
  -5 -10  -5    6.58    0.50
  -5  10  -5    7.22    0.42
  -5  10  -5    7.16    0.43
   5  10   5    7.25    0.43
  -6 -11   5    4.52    0.35
   6  11  -5    5.01    0.39
  -6  11   5    4.83    0.30
  -5  11   5    3.53    0.40
   5  11  -5    3.37    0.32
   4  11  -5    0.08    0.23
  -4  11   5   -0.07    0.22
   4  11  -5    0.28    0.21
  -4  11   5   -0.06    0.21
  -3  11   5   35.38    1.71
   3  11  -5   34.01    1.71
   3  11  -5   35.50    1.70
  -3  11   5   36.29    1.72
   3  11  -5   35.24    1.77
   2  11  -5   12.16    0.74
  -2  11   5   11.65    0.63
  -2  11   5   11.30    0.75
   2  11  -5   12.33    0.67
   2  11  -5    9.97    0.74
   2  11  -5   10.72    0.62
   1  11  -5    0.22    0.29
   1  11  -5   -0.07    0.20
  -1  11   5   -0.13    0.21
  -1  11   5    0.00    0.13
   1  11  -5    0.13    0.26
   1  11  -5    0.08    0.33
   0  11  -5   30.55    1.46
   0  11   5   29.56    1.45
   0  11  -5   27.84    1.46
   0  11   5   30.70    1.44
   0  11  -5   30.69    1.49
  -1  11  -5   15.22    0.83
   1  11   5   14.89    0.81
  -1  11  -5   15.35    0.80
   1  11   5   15.33    0.78
   2  11   5   13.35    0.68
  -2  11  -5   12.59    0.68
  -2  11  -5   11.74    0.72
   3  11   5   46.47    2.25
  -3  11  -5   49.17    2.28
  -3  11  -5   47.72    2.24
   3  11   5   45.79    2.26
   4 -11   5    0.52    0.26
  -4  11  -5    0.43    0.18
  -4  11  -5   -0.18    0.19
   4  11   5    0.03    0.16
  -5 -11  -5   10.71    0.58
   5 -11   5   11.47    0.69
  -5  11  -5   11.70    0.58
   5  11   5   11.77    0.61
  -5  11  -5   10.92    0.60
  -6 -12   5    0.05    0.19
   6  12  -5   -0.18    0.20
  -6  12   5   -0.08    0.11
   5  12  -5    0.20    0.17
  -5  12   5    0.02    0.15
   5  12  -5    0.39    0.21
   4  12  -5    7.72    0.49
  -4  12   5    6.47    0.49
   4  12  -5    7.70    0.51
  -4  12   5    7.89    0.50
   3  12  -5    8.30    0.51
  -3  12   5    9.20    0.58
  -3  12   5    7.86    0.54
   3  12  -5    8.50    0.55
   3  12  -5    8.10    0.65
   2  12  -5    2.29    0.29
   2  12  -5    2.38    0.38
  -2  12   5    2.64    0.51
   2  12  -5    2.52    0.44
  -2  12   5    2.20    0.28
   1  12  -5    9.19    0.54
   1  12  -5    8.73    0.61
  -1  12   5    8.50    0.54
  -1  12   5    9.35    0.50
   1  12  -5    8.48    0.64
   1  12  -5    8.38    0.62
   0  12  -5    0.44    0.25
   0  12  -5    1.08    0.30
   0  12   5    1.24    0.30
   0  12  -5    0.46    0.24
   0  12   5    0.79    0.21
   1  12   5    1.07    0.21
  -1  12  -5    1.40    0.30
   1  12   5    1.54    0.31
  -1  12  -5    1.79    0.37
  -2  12  -5    5.97    0.42
  -2  12  -5    6.71    0.50
   2  12   5    6.20    0.41
   2  12   5    6.63    0.46
   3 -12   5    2.42    0.38
  -3  12  -5    1.75    0.34
  -3  12  -5    2.20    0.28
   3  12   5    2.07    0.27
   3  12   5    2.63    0.41
   4 -12   5   -0.06    0.25
  -4  12  -5    0.13    0.16
   4  12   5    0.09    0.17
  -4  12  -5    0.08    0.18
  -5 -12  -5    1.28    0.23
   5  12   5    0.40    0.18
  -5  12  -5    0.70    0.19
  -5  12  -5    0.79    0.19
  -6 -13   5    2.56    0.30
   6  13  -5    3.04    0.30
  -5 -13   5    6.69    0.45
  -5  13   5    6.62    0.39
   5  13  -5    5.94    0.42
   5  13  -5    6.04    0.39
   4  13  -5    2.42    0.33
  -4  13   5    2.67    0.35
  -4  13   5    1.87    0.33
   4  13  -5    2.10    0.30
  -3  13   5    1.36    0.31
   3  13  -5    1.63    0.29
   3  13  -5    1.78    0.28
  -3  13   5    1.18    0.30
   3  13  -5    1.44    0.39
   2  13  -5   27.71    1.38
   2  13  -5   27.54    1.42
   2  13  -5   26.95    1.35
  -2  13   5   28.74    1.36
   1  13  -5    1.22    0.31
  -1  13   5    1.91    0.32
   1  13  -5    2.03    0.47
   1  13  -5    2.07    0.45
  -1  13   5    1.81    0.23
   1  13  -5    2.43    0.46
   0  13  -5   20.35    1.08
   0  13  -5   21.14    1.08
   0  13   5   21.25    1.06
   0  13  -5   21.05    1.11
   0  13   5   21.81    1.05
  -1  13  -5   32.47    1.63
  -1  13  -5   31.38    1.59
   1  13   5   31.93    1.59
   1  13   5   35.86    1.59
   2  13   5    0.01    0.16
  -2  13  -5   -0.03    0.23
  -2  13  -5    0.15    0.19
   2  13   5    0.41    0.21
   3 -13   5   35.11    1.84
  -3  13  -5   40.49    1.86
   3  13   5   35.40    1.83
   3  13   5   39.81    1.84
  -3  13  -5   39.20    1.82
   4 -13   5   -0.53    0.30
  -4  13  -5    0.18    0.19
   4  13   5    0.10    0.17
  -4  13  -5    0.05    0.13
  -5 -13  -5   21.00    1.02
   5  13   5   21.47    1.04
  -6  14   5    1.83    0.18
  -5 -14   5    7.05    0.48
  -5  14   5    7.87    0.43
   5  14  -5    6.89    0.42
   5  14  -5    7.80    0.45
  -4  14   5   16.72    0.96
   4  14  -5   19.02    0.94
  -4  14   5   19.47    0.96
   4  14  -5   18.94    0.96
   3  14  -5    7.54    0.48
   3  14  -5    8.32    0.52
   3  14  -5    6.81    0.62
  -3  14   5    8.86    0.57
  -3  14   5    7.57    0.50
   2  14  -5    0.18    0.26
  -2  14   5   -0.02    0.18
   2  14  -5    0.27    0.17
   2  14  -5    0.30    0.33
   1  14  -5    1.39    0.35
  -1  14   5    1.54    0.23
   1  14  -5    0.80    0.21
   1  14  -5    1.63    0.46
   1  14  -5    1.23    0.45
  -1  14   5    2.01    0.32
   0  14  -5    4.38    0.44
   0  14   5    4.66    0.37
   0  14   5    4.66    0.34
   0  14  -5    4.71    0.48
  -1  14  -5    8.37    0.58
  -1  14  -5    7.97    0.51
   1  14   5    8.09    0.48
   1  14   5    8.12    0.51
  -2  14  -5    1.17    0.27
  -2  14  -5    0.95    0.27
   2  14   5    0.51    0.18
   2  14   5    1.18    0.29
   3  14   5    0.69    0.18
  -3  14  -5    1.05    0.32
   3  14   5    0.61    0.25
  -3  14  -5    0.96    0.27
  -4  14  -5    0.57    0.18
  -4  14  -5    0.88    0.19
   4  14   5    0.46    0.16
  -5  14  -5   -0.05    0.11
  -5  14  -5    0.02    0.14
  -5 -15   5   19.33    1.01
   5  15  -5   20.50    0.98
  -5  15   5   20.76    0.98
   5  15  -5   19.56    0.98
  -4  15   5    0.11    0.22
   4  15  -5    0.48    0.27
   4  15  -5    0.02    0.20
  -4  15   5    0.09    0.21
   3 -15  -5   21.79    1.18
  -3  15   5   21.17    1.12
   3  15  -5   22.71    1.11
  -3  15   5   22.54    1.16
   3  15  -5   22.49    1.12
   2  15  -5   49.96    2.43
   2  15  -5   51.77    2.45
  -2  15   5   52.67    2.44
   2  15  -5   51.18    2.49
   1  15  -5   45.94    2.22
   1  15  -5   46.44    2.29
   1  15  -5   46.59    2.25
   1  15  -5   45.30    2.26
  -1  15   5   49.75    2.24
  -1  15   5   47.69    2.24
   0  15  -5   16.74    0.93
   0  15   5   18.98    0.90
   0  15  -5   16.49    0.96
   0  15  -5   17.24    0.93
   0  15   5   18.04    0.91
   1  15   5    4.71    0.40
   1  15   5    5.86    0.38
  -1  15  -5    5.12    0.40
  -1  15  -5    5.54    0.49
   2  15   5   36.17    1.75
   2  15   5   35.14    1.75
  -2  15  -5   37.35    1.79
  -2  15  -5   37.22    1.75
  -3  15  -5    1.11    0.24
   3  15   5    0.94    0.34
   3  15   5    1.04    0.22
  -4  15  -5    0.14    0.19
  -4  15  -5    0.03    0.12
  -5 -16   5    0.19    0.27
   5  16  -5    0.02    0.14
  -5  16   5    0.25    0.14
   5  16  -5    0.05    0.12
  -4  16   5    0.97    0.21
   4  16  -5    0.95    0.21
   4  16  -5    1.07    0.25
  -4  16   5    0.78    0.24
   3 -16  -5    2.36    0.46
   3  16  -5    3.08    0.33
   3  16  -5    3.21    0.30
   3  16  -5    2.98    0.52
  -3  16   5    3.40    0.45
  -3  16   5    2.20    0.32
  -2  16   5    5.67    0.39
   2  16  -5    5.14    0.39
   2  16  -5    5.39    0.61
   2  16  -5    5.41    0.44
   1  16  -5   36.38    1.80
   1  16  -5   37.64    1.83
  -1  16   5   37.93    1.82
   1  16  -5   36.79    1.88
  -1  16   5   39.37    1.84
   0  16   5   10.57    0.59
   0  16  -5   10.36    0.68
   0  16   5   10.15    0.59
   0  16  -5    9.48    0.63
   0  16  -5    9.57    0.62
  -1  16  -5    0.41    0.21
   1  16   5    0.41    0.16
   1  16   5    0.02    0.20
  -1  16  -5   -0.04    0.28
   2  16   5    3.53    0.33
  -2  16  -5    3.69    0.42
  -2  16  -5    3.13    0.33
   2  16   5    2.88    0.29
   3  16   5    0.50    0.21
   3  16   5    0.31    0.17
  -3  16  -5    0.73    0.20
  -3  16  -5    0.33    0.23
  -4  16  -5    3.50    0.24
  -4  16  -5    3.14    0.32
   4  16   5    3.59    0.29
  -5  17   5    3.10    0.27
   5  17  -5    2.37    0.23
   5  17  -5    2.81    0.24
  -4  17   5    2.71    0.51
   4  17  -5    1.91    0.24
   4  17  -5    1.59    0.20
  -4  17   5    1.28    0.32
   3 -17  -5    0.50    0.34
  -3  17   5    0.21    0.20
   3  17  -5    0.04    0.20
   3  17  -5    0.13    0.16
   2  17  -5    5.33    0.42
   2  17  -5    4.82    0.38
   2  17  -5    5.26    0.62
  -2  17   5    3.96    0.35
   1  17  -5    1.39    0.33
  -1  17   5    1.26    0.30
  -1  17   5    1.19    0.23
   1  17  -5    1.17    0.37
   1  17  -5    1.15    0.30
   0  17   5    1.59    0.23
   0  17  -5    1.79    0.43
   0  17   5    1.93    0.30
   0  17  -5    1.91    0.42
   0  17  -5    2.16    0.49
   1  17   5   16.92    0.86
   1  17   5   15.88    0.85
  -1  17  -5   17.00    0.87
  -1  17  -5   16.48    0.93
   2  17   5   15.98    0.88
   2  17   5   17.77    0.88
  -2  17  -5   17.97    0.88
  -2  17  -5   16.95    1.05
  -3  17  -5    1.31    0.32
  -3  17  -5    0.97    0.20
   3  17   5    1.39    0.24
   3  17   5    1.33    0.27
  -4 -17  -5    0.80    0.13
  -4  17  -5    0.78    0.15
  -4  17  -5    0.44    0.20
   4  17   5    1.14    0.25
   5  18  -5    0.12    0.11
   5  18  -5    0.01    0.12
   4  18  -5    2.29    0.21
   4  18  -5    2.69    0.25
   3  18  -5    0.53    0.15
   3  18  -5    0.17    0.18
  -3  18   5    0.66    0.20
   2  18  -5    0.14    0.23
  -2  18   5    0.04    0.19
   2  18  -5    0.23    0.17
   1  18  -5   17.97    1.05
  -1  18   5   20.15    0.96
   1  18  -5   19.01    0.95
   1  18  -5   19.38    0.99
  -1  18   5   17.11    0.95
   0  18   5    4.82    0.38
   0  18   5    4.64    0.35
   0  18  -5    5.27    0.60
   0  18  -5    5.37    0.51
  -1  18  -5    0.51    0.32
   1  18   5    0.12    0.16
   1  18   5    0.47    0.20
  -1  18  -5    0.18    0.22
   2  18   5    7.44    0.46
  -2  18  -5    7.05    0.45
  -2  18  -5    7.70    0.54
   2  18   5    7.89    0.46
   3  18   5    0.18    0.17
  -3  18  -5    0.01    0.23
   3  18   5    0.09    0.17
  -3  18  -5   -0.06    0.14
  -4 -18  -5    2.66    0.17
  -4  18  -5    2.53    0.20
   4  19  -5    0.45    0.11
   4  19  -5    0.91    0.20
  -3  19   5    0.24    0.21
   3  19  -5    0.66    0.18
   3  19  -5    0.78    0.20
   2  19  -5    2.85    0.26
  -2  19   5    2.03    0.27
   2  19  -5    2.09    0.32
  -1  19   5    1.09    0.29
   1  19  -5    1.64    0.33
   1  19  -5    1.95    0.42
   1  19  -5    1.94    0.57
  -1  19   5    1.05    0.25
   0  19   5    2.33    0.26
   0  19   5    2.34    0.28
   0  19  -5    2.10    0.52
   1  19   5    1.60    0.23
  -1  19  -5    2.12    0.32
  -1  19  -5    1.39    0.35
  -2  19  -5    2.99    0.28
   2  19   5    3.21    0.29
  -2  19  -5    2.85    0.43
   2  19   5    3.00    0.28
   3  19   5    4.56    0.32
  -3  19  -5    4.26    0.47
   3  19   5    5.04    0.35
  -3  19  -5    4.75    0.31
   4  20  -5    3.56    0.25
  -3  20   5    3.53    0.30
   3  20  -5    3.10    0.29
   3  20  -5    3.55    0.25
   2  20  -5    0.29    0.22
  -2  20   5    0.34    0.19
   2  20  -5    0.99    0.22
   1  20  -5    1.32    0.29
  -1  20   5    1.29    0.23
   0  20   5    1.14    0.24
   0  20   5    1.52    0.24
  -1  20  -5    0.33    0.23
   1  20   5    1.11    0.22
   1  20   5    0.78    0.18
  -2  20  -5    9.54    0.53
   2  20   5    9.86    0.54
   2  20   5    9.80    0.52
  -3  20  -5    1.75    0.20
   3  20   5    1.50    0.21
   3  20   5    1.61    0.37
   3  21  -5    0.14    0.11
  -3  21   5    0.48    0.21
   3  21  -5    0.08    0.15
   2  21  -5    0.19    0.14
  -2  21   5    0.55    0.20
   2  21  -5    0.66    0.20
  -1  21   5    1.01    0.23
   1  21  -5    1.14    0.21
   0  21   5   12.04    0.65
   0  21   5   12.64    0.66
   1  21   5    0.19    0.14
   1  21   5    0.26    0.18
   2  21   5    3.14    0.25
  -2  21  -5    3.18    0.32
   2  21   5    3.26    0.29
  -3 -21  -5    1.09    0.14
   3  22  -5    0.17    0.11
   3  22  -5   -0.02    0.14
   2  22  -5    2.38    0.22
  -2  22   5    2.28    0.29
   2  22  -5    1.60    0.31
  -1  22   5    2.28    0.27
   0  22   5    0.19    0.17
  -1 -22  -5   -0.07    0.17
   1  22   5    0.31    0.19
   1  22   5   -0.09    0.12
  -2 -22  -5   10.15    0.49
   2  22   5    9.06    0.51
   2  23  -5   11.07    0.57
  -1  23   5    0.20    0.19
  -7   0   6    0.83    0.21
  -6   0   6   14.77    0.79
  -6   0   6   15.35    0.80
   5   0  -6    3.97    0.50
  -5   0   6    3.87    0.40
  -5   0   6    4.07    0.42
   4   0  -6   10.62    0.68
  -4   0   6   11.83    0.74
   3   0  -6   63.77    3.01
   3   0  -6   66.84    2.97
  -3   0   6   57.43    3.17
  -2   0   6    0.31    0.27
  -1   0   6   73.69    3.49
   0   0   6    0.67    0.21
   1   0   6    8.47    0.62
   1   0   6    8.31    0.49
  -2   0  -6   43.18    2.15
   2   0   6   45.65    2.07
  -2   0  -6   43.25    2.08
   3   0   6   13.60    0.65
  -3   0  -6   11.47    0.67
  -3   0  -6   11.36    0.75
  -4   0  -6   30.13    1.47
   4   0   6   28.24    1.41
   5   0   6    9.80    0.55
  -5   0  -6    9.45    0.59
  -7  -1   6    0.69    0.20
  -7   1   6    0.27    0.17
  -6  -1   6    0.38    0.20
  -6  -1   6    0.35    0.23
  -6   1   6    0.28    0.21
  -6   1   6    0.29    0.21
  -5  -1   6   -0.05    0.25
   5  -1  -6    0.60    0.33
  -5  -1   6   -0.12    0.24
  -5   1   6    0.34    0.25
  -5   1   6    0.01    0.22
   5   1  -6    0.26    0.31
   4  -1  -6    0.49    0.26
  -4  -1   6    0.33    0.23
   4   1  -6    0.50    0.25
   3  -1  -6    0.01    0.23
   3  -1  -6    1.16    0.41
   3   1  -6    0.09    0.25
  -3   1   6    0.24    0.55
  -3   1   6   -0.11    0.19
   3   1  -6    0.37    0.34
  -2  -1   6    1.01    0.27
  -2   1   6    0.47    0.25
  -1  -1   6    1.47    0.32
  -1   1   6    1.51    0.29
   0  -1   6   48.69    2.34
   0   1   6   47.96    2.33
   1  -1   6   13.32    0.84
   1   1   6   14.18    0.71
   1   1   6   12.99    0.86
   2  -1   6    4.33    0.30
  -2  -1  -6    4.35    0.58
  -2  -1  -6    4.36    0.34
  -2   1  -6    3.65    0.47
   2   1   6    4.44    0.30
  -2   1  -6    3.74    0.45
  -2   1  -6    3.98    0.36
  -3  -1  -6    9.97    0.61
   3  -1   6   11.18    0.59
  -3  -1  -6   11.50    0.73
   3   1   6   11.49    0.60
   4  -1   6   -0.23    0.16
  -4  -1  -6    0.24    0.32
   4   1   6    0.09    0.15
  -4   1  -6    0.06    0.27
   5  -1   6    0.24    0.18
  -5  -1  -6    0.33    0.25
  -5   1  -6    0.38    0.21
   5   1   6    0.39    0.18
  -7  -2   6    2.44    0.24
  -7   2   6    2.70    0.29
  -6  -2   6   45.56    2.23
  -6  -2   6   47.93    2.24
  -6   2   6   49.35    2.23
  -6   2   6   45.49    2.23
   5  -2  -6    3.18    0.49
  -5  -2   6    3.28    0.41
   5   2  -6    2.47    0.41
  -5   2   6    2.82    0.35
  -5   2   6    2.67    0.41
   4  -2  -6    2.24    0.42
   4   2  -6    1.78    0.48
  -4   2   6    2.45    0.30
   3  -2  -6   37.83    1.76
   3   2  -6   34.65    1.76
   3   2  -6   38.14    1.76
   3   2  -6   36.29    1.81
  -3   2   6   34.61    1.73
  -2  -2   6   34.85    1.72
  -2   2   6   33.05    1.72
  -1  -2   6   65.08    3.11
  -1   2   6   65.46    3.11
   0  -2   6    5.05    0.43
   0   2   6    5.23    0.43
   1  -2   6    2.46    0.34
   1   2   6    2.68    0.26
   1   2   6    2.03    0.52
   2  -2   6   63.06    3.15
  -2  -2  -6   68.95    3.14
  -2   2  -6   68.27    3.19
  -2   2  -6   66.81    3.15
   2   2   6   70.96    3.15
  -2   2  -6   66.61    3.16
   3  -2   6    1.49    0.24
  -3  -2  -6    1.53    0.49
  -3   2  -6    1.09    0.30
   3   2   6    1.35    0.24
  -3   2  -6    1.23    0.35
  -4  -2  -6    0.76    0.35
   4  -2   6    0.34    0.17
  -4   2  -6    0.73    0.28
   4   2   6    0.45    0.17
   5  -2   6    5.64    0.38
  -5  -2  -6    5.22    0.49
   5   2   6    5.17    0.36
  -5   2  -6    5.61    0.41
  -7  -3   6    0.65    0.20
  -7   3   6    0.34    0.29
  -7   3   6    0.73    0.24
  -6  -3   6    4.36    0.37
  -6  -3   6    4.34    0.48
  -6   3   6    4.80    0.35
   6   3  -6    4.34    0.54
  -6   3   6    4.29    0.37
  -5  -3   6    7.75    0.57
   5  -3  -6    7.31    0.66
   5   3  -6    8.67    0.57
  -5   3   6    7.56    0.56
  -5   3   6    8.15    0.52
   4  -3  -6    1.24    0.32
  -4   3   6    1.20    0.30
   4   3  -6    1.48    0.28
   4   3  -6    0.20    0.60
  -4   3   6    1.01    0.35
   3  -3  -6    6.26    0.48
   3   3  -6    5.84    0.46
   3   3  -6    6.07    0.57
   3   3  -6    5.58    0.48
  -3   3   6    5.85    0.42
  -2  -3   6   43.76    2.08
  -2   3   6   41.03    2.08
   2   3  -6   40.75    2.16
  -1  -3   6    0.09    0.23
   0   3   6    2.20    0.34
   1   3   6    7.76    0.70
   1   3   6    8.31    0.47
  -2  -3  -6    2.66    0.26
   2  -3   6    2.48    0.31
   2   3   6    2.56    0.25
  -2   3  -6    2.84    0.36
  -2   3  -6    2.72    0.38
  -2   3  -6    2.56    0.35
  -3  -3  -6   38.48    1.92
   3  -3   6   42.87    1.94
  -3   3  -6   41.11    1.98
   3   3   6   41.87    1.94
  -3   3  -6   38.75    2.02
  -4  -3  -6   -0.19    0.39
   4  -3   6    0.12    0.17
  -4   3  -6    0.29    0.26
  -4   3  -6   -0.02    0.34
   4   3   6   -0.07    0.15
   5   3   6    6.84    0.42
  -5   3  -6    7.01    0.46
  -7  -4   6    1.47    0.21
  -7   4   6    1.37    0.28
  -6  -4   6   15.20    0.78
  -6   4   6   13.37    0.77
   6   4  -6   14.57    0.84
  -6   4   6   15.27    0.76
   5  -4  -6    7.54    0.66
  -5  -4   6    6.37    0.55
   5   4  -6    6.95    0.50
  -5   4   6    6.26    0.54
  -5   4   6    7.07    0.46
  -4  -4   6    0.06    0.26
   4   4  -6   -0.12    0.24
  -4   4   6    0.58    0.37
   4   4  -6    0.44    0.32
  -4   4   6    0.01    0.19
   3  -4  -6   34.23    1.64
   3   4  -6   33.68    1.68
   3   4  -6   34.76    1.63
  -3   4   6   32.74    1.61
   3   4  -6   32.33    1.62
   2  -4  -6    0.61    0.34
  -2  -4   6    0.18    0.32
  -2   4   6    0.35    0.30
  -1  -4   6    5.45    0.57
  -1   4   6    6.90    0.49
   0  -4   6   23.26    1.25
   0   4   6   25.08    1.23
   0   4   6   22.18    1.15
   1   4   6    2.25    0.56
   1   4   6    1.20    0.21
   2  -4   6   19.72    1.01
  -2   4  -6   20.46    1.04
   2   4   6   20.76    1.00
  -2   4  -6   21.34    1.06
  -2   4  -6   19.65    1.04
   3  -4   6    0.49    0.21
  -3  -4  -6    0.26    0.15
  -3   4  -6    0.56    0.27
   3   4   6    0.65    0.17
  -3   4  -6    0.50    0.25
  -4  -4  -6   16.16    0.84
   4  -4   6   16.57    0.85
  -4   4  -6   15.59    0.87
  -4   4  -6   17.48    0.90
   4   4   6   16.15    0.83
   5  -4   6   11.96    0.65
  -5   4  -6   11.54    0.65
   5   4   6   11.86    0.65
  -7  -5   6    5.48    0.34
  -7   5   6    6.02    0.37
  -6  -5   6    1.55    0.28
  -6   5   6    1.40    0.33
   6   5  -6    1.28    0.30
  -6   5   6    1.50    0.24
   5  -5  -6    5.35    0.63
  -5  -5   6    5.41    0.55
  -5   5   6    4.95    0.39
   5   5  -6    5.83    0.46
  -5   5   6    5.28    0.52
  -4  -5   6   -0.35    0.25
   4  -5  -6   -0.57    0.29
   4   5  -6    0.09    0.35
   4   5  -6    0.36    0.24
  -4   5   6    0.15    0.19
   3  -5  -6    6.28    0.49
   3   5  -6    6.23    0.47
  -3   5   6    6.10    0.44
   3   5  -6    6.77    0.47
   3   5  -6    7.33    0.58
  -2  -5   6   41.46    2.20
   2   5  -6   44.09    2.08
   2   5  -6   43.50    2.08
   2   5  -6   43.31    2.06
  -2   5   6   46.13    2.18
   2   5  -6   43.39    2.13
  -1  -5   6   47.34    2.21
  -1   5   6   44.52    2.18
  -1   5   6   41.38    2.09
   0  -5   6   74.80    3.63
   0   5   6   77.47    3.54
   0   5   6   76.00    3.64
  -1   5  -6    1.10    0.21
   1   5   6    0.95    0.21
  -1   5  -6    1.43    0.28
   2  -5   6    1.87    0.30
  -2   5  -6    1.28    0.33
  -2   5  -6    1.13    0.31
   2   5   6    1.81    0.21
   3  -5   6   21.06    1.06
  -3  -5  -6   21.36    1.04
  -3   5  -6   20.82    1.09
  -3   5  -6   21.22    1.07
   3   5   6   21.36    1.05
  -4  -5  -6   -0.19    0.16
   4  -5   6    0.10    0.18
   4   5   6    0.24    0.17
  -4   5  -6    0.10    0.21
  -4   5  -6   -0.23    0.24
   5  -5   6    2.77    0.32
  -5   5  -6    2.10    0.29
   5   5   6    2.41    0.32
  -6  -6   6    7.00    0.44
  -6   6   6    7.08    0.40
  -6   6   6    5.26    0.51
   6   6  -6    6.74    0.49
  -5  -6   6   11.14    0.77
  -5   6   6   11.40    0.62
   5   6  -6   11.60    0.66
  -5   6   6   10.02    0.73
   4  -6  -6    0.18    0.32
  -4  -6   6    0.21    0.28
   4   6  -6    0.31    0.26
  -4   6   6   -0.08    0.20
   4   6  -6    0.24    0.32
   4   6  -6   -0.20    0.21
   3  -6  -6    1.29    0.29
   3   6  -6    1.29    0.33
   3   6  -6    0.99    0.25
  -3   6   6    0.98    0.26
  -3   6   6    1.37    0.23
   3   6  -6    1.77    0.45
   2   6  -6    0.87    0.36
   2   6  -6    1.18    0.26
   2   6  -6    0.84    0.25
   2   6  -6    0.85    0.19
  -2   6   6    1.46    0.39
  -2   6   6    1.06    0.31
  -1  -6   6    4.03    0.63
  -1   6   6    5.04    0.36
   0   6   6    2.04    0.25
  -1   6  -6    1.00    0.23
  -1   6  -6    1.01    0.33
  -1   6  -6    1.11    0.27
   1   6   6    1.17    0.21
   2   6   6   14.41    0.71
  -2   6  -6   12.89    0.73
  -2   6  -6   13.75    0.76
   3  -6   6   14.34    0.77
   3   6   6   14.96    0.76
  -3   6  -6   14.47    0.80
  -3   6  -6   14.13    0.77
  -4  -6  -6    8.75    0.48
   4  -6   6    7.59    0.51
  -4   6  -6    8.80    0.54
  -4   6  -6    8.69    0.53
   4   6   6    7.61    0.48
   5  -6   6    0.47    0.24
  -5   6  -6   -0.04    0.16
   5   6   6    0.26    0.17
  -6  -7   6    6.16    0.43
   6   7  -6    6.27    0.45
  -6   7   6    6.67    0.39
   5   7  -6    1.04    0.31
  -5   7   6    1.32    0.27
   5   7  -6    0.85    0.25
  -4  -7   6    0.84    0.33
   4  -7  -6    1.73    0.48
   4   7  -6    0.81    0.25
   4   7  -6    1.15    0.25
   4   7  -6    1.09    0.35
  -4   7   6    0.97    0.22
   3  -7  -6    6.87    0.50
   3   7  -6    6.90    0.59
   3   7  -6    6.06    0.45
  -3   7   6    5.84    0.48
   3   7  -6    6.67    0.48
  -3   7   6    6.86    0.47
   2   7  -6    0.73    0.18
  -2   7   6    0.49    0.27
   2   7  -6    0.75    0.32
   2   7  -6    0.67    0.26
   2   7  -6    1.12    0.27
  -2   7   6    0.76    0.22
  -1  -7   6   48.69    2.44
   1   7  -6   47.96    2.29
   1   7  -6   50.94    2.35
   1   7  -6   48.95    2.30
  -1   7   6   46.46    2.29
   0  -7   6   11.43    0.95
   0   7  -6   12.14    0.66
   0   7   6   12.45    0.63
   0   7  -6   12.22    0.71
   0   7  -6   12.21    0.64
   0   7   6   10.67    0.65
  -1   7  -6   46.63    2.17
  -1   7  -6   40.72    2.13
   1   7   6   46.66    2.16
  -1   7  -6   45.20    2.14
   1   7   6   46.36    2.13
   2   7   6    1.78    0.47
   2   7   6    1.32    0.21
  -2   7  -6    1.63    0.32
  -2   7  -6    1.06    0.28
   3  -7   6   35.73    1.77
  -3   7  -6   37.08    1.78
   3   7   6   38.22    1.77
  -3   7  -6   36.36    1.80
  -4  -7  -6    2.45    0.26
   4  -7   6    2.31    0.32
  -4   7  -6    2.32    0.31
  -4   7  -6    1.97    0.33
   4   7   6    2.12    0.25
   5  -7   6   11.21    0.65
  -5   7  -6   10.95    0.59
  -5   7  -6    9.58    0.60
   5   7   6   11.66    0.59
  -6  -8   6    0.84    0.26
   6   8  -6    1.40    0.30
  -6   8   6    0.86    0.20
   5   8  -6    0.13    0.27
   5   8  -6    0.03    0.23
  -5   8   6    0.02    0.18
   4  -8  -6    8.66    0.65
  -4  -8   6    7.13    0.63
   4   8  -6    7.91    0.65
   4   8  -6    8.69    0.55
   4   8  -6    8.40    0.54
  -4   8   6    8.09    0.52
   3  -8  -6   21.68    1.09
  -3   8   6   22.00    1.09
  -3   8   6   20.66    1.07
   3   8  -6   20.16    1.15
  -2   8   6    4.99    0.38
   2   8  -6    4.06    0.37
   2   8  -6    4.88    0.52
  -2   8   6    4.96    0.49
   2   8  -6    5.15    0.46
   2   8  -6    5.31    0.45
  -1  -8   6    4.46    0.88
   1   8  -6    4.88    0.37
  -1   8   6    4.87    0.35
   1   8  -6    4.31    0.42
   1   8  -6    5.20    0.45
   1   8  -6    7.29    0.73
   0   8  -6   56.03    2.58
   0   8  -6   52.96    2.55
   0   8  -6   50.46    2.54
   0   8   6   55.83    2.55
   0   8   6   55.22    2.54
  -1   8  -6    5.17    0.41
   1   8   6    6.11    0.46
  -1   8  -6    4.99    0.46
  -1   8  -6    5.67    0.45
   1   8   6    6.07    0.38
   2   8   6   10.86    0.72
   2   8   6   11.91    0.61
  -2   8  -6   10.90    0.68
   3  -8   6   51.12    2.42
  -3   8  -6   49.46    2.44
  -3   8  -6   52.30    2.42
   4  -8   6    0.21    0.24
  -4   8  -6    0.45    0.20
   4   8   6   -0.01    0.16
  -4   8  -6    0.17    0.21
   5   8   6    0.24    0.18
  -5   8  -6   -0.06    0.15
  -5   8  -6   -0.27    0.19
  -6  -9   6    2.52    0.29
   6   9  -6    2.14    0.31
  -6   9   6    2.38    0.23
   5   9  -6   14.41    0.79
  -5   9   6   14.54    0.77
   4  -9  -6    0.85    0.35
   4   9  -6   -0.26    0.30
   4   9  -6    0.10    0.22
   4   9  -6    0.18    0.21
  -4   9   6    0.18    0.21
   3  -9  -6   26.26    1.33
   3   9  -6   25.32    1.30
  -3   9   6   27.67    1.32
   3   9  -6   26.49    1.39
   3   9  -6   25.81    1.31
  -2   9   6    2.26    0.30
  -2   9   6    2.32    0.50
   2   9  -6    1.37    0.28
   2   9  -6    1.64    0.38
   2   9  -6    1.79    0.36
   2   9  -6    1.44    0.40
   1  -9  -6    1.93    0.38
  -1   9   6    2.00    0.31
   1   9  -6    1.85    0.39
   1   9  -6    2.04    0.29
   1   9  -6    1.77    0.36
   1   9  -6    2.16    0.50
  -1   9   6    2.65    0.26
   0   9   6   19.04    0.90
   0   9  -6   17.82    0.93
   0   9  -6   17.92    0.92
   0   9  -6   18.16    0.96
   0   9   6   17.10    0.92
  -1   9  -6    0.59    0.26
  -1   9  -6    0.81    0.20
   1   9   6    0.69    0.24
   1   9   6    1.32    0.23
  -1   9  -6    0.47    0.22
   2   9   6   27.51    1.30
  -2   9  -6   26.48    1.33
  -2   9  -6   25.87    1.30
   2   9   6   25.85    1.33
   3  -9   6   13.24    0.82
  -3   9  -6   14.13    0.74
  -3   9  -6   13.25    0.77
   3   9   6   13.95    0.72
  -4  -9  -6    4.60    0.30
   4  -9   6    4.51    0.43
  -4   9  -6    4.06    0.39
   4   9   6    4.45    0.33
  -5   9  -6    0.13    0.14
   5   9   6    0.19    0.19
  -6 -10   6    4.72    0.35
   6  10  -6    4.57    0.36
  -6  10   6    4.55    0.29
   5  10  -6    3.03    0.34
   4 -10  -6    7.76    0.67
   4  10  -6    8.30    0.54
   4  10  -6    8.41    0.52
  -4  10   6    8.36    0.52
   4  10  -6    8.76    0.66
   3 -10  -6    5.17    0.47
  -3  10   6    5.37    0.49
   3  10  -6    5.05    0.43
  -3  10   6    6.21    0.46
   3  10  -6    5.54    0.58
   3  10  -6    5.66    0.40
   2  10  -6    1.56    0.36
  -2  10   6    1.06    0.29
  -2  10   6    1.59    0.35
   2  10  -6    1.28    0.39
   2  10  -6    1.50    0.39
   2  10  -6    1.08    0.20
   1 -10  -6   27.66    1.45
   1  10  -6   30.32    1.44
  -1  10   6   30.81    1.44
   1  10  -6   30.05    1.47
   1  10  -6   30.21    1.49
  -1  10   6   30.30    1.45
   1  10  -6   29.07    1.49
   0  10   6   63.55    2.99
   0  10  -6   65.44    3.01
   0  10   6   65.77    3.01
   0  10  -6   60.70    2.99
   0  10  -6   64.41    3.03
  -1  10  -6   71.69    3.66
   1  10   6   78.58    3.65
  -1  10  -6   79.68    3.65
   1  10   6   80.74    3.66
  -1  10  -6   79.83    3.68
  -2  10  -6   58.93    2.83
   2  10   6   60.67    2.81
   2  10   6   58.72    2.81
  -2  10  -6   59.57    2.80
  -3  10  -6   18.55    0.93
   3  10   6   17.91    0.93
  -3  10  -6   18.18    0.96
  -4 -10  -6   16.53    0.83
  -4  10  -6   16.76    0.87
   4  10   6   16.30    0.86
  -4  10  -6   17.22    0.85
  -5  10  -6   10.20    0.54
  -5  10  -6    9.35    0.53
   5  10   6   10.73    0.56
  -6 -11   6    0.21    0.17
  -6  11   6    0.21    0.11
   6  11  -6    0.32    0.18
  -5  11   6    3.29    0.29
   5  11  -6    3.37    0.33
   5  11  -6    3.16    0.31
   4 -11  -6    0.64    0.38
   4  11  -6    1.48    0.32
   4  11  -6    1.38    0.29
  -4  11   6    1.52    0.32
  -4  11   6    1.55    0.36
   3 -11  -6    3.45    0.46
  -3  11   6    4.64    0.42
   3  11  -6    4.16    0.38
   3  11  -6    3.44    0.34
   3  11  -6    3.69    0.52
  -3  11   6    3.39    0.40
  -2  11   6   36.61    1.86
   2  11  -6   37.19    1.84
  -2  11   6   37.23    1.82
   2  11  -6   39.41    1.83
   2  11  -6   38.60    1.90
   1 -11  -6    4.78    0.49
   1  11  -6    5.55    0.57
  -1  11   6    5.63    0.42
   1  11  -6    6.08    0.48
   1  11  -6    5.99    0.42
   1  11  -6    6.02    0.49
  -1  11   6    6.56    0.39
   0  11   6    1.08    0.24
   0  11   6    1.14    0.23
   0  11  -6    1.31    0.29
   0  11  -6    1.14    0.35
   0  11  -6    1.00    0.22
   1  11   6   16.48    0.80
  -1  11  -6   13.74    0.87
   1  11   6   16.37    0.87
   2  11   6    0.51    0.18
   2  11   6   -0.13    0.25
  -2  11  -6    0.33    0.22
  -2  11  -6    0.64    0.20
  -3  11  -6    3.83    0.33
   3  11   6    3.38    0.32
  -3  11  -6    3.86    0.37
   3  11   6    4.38    0.47
  -4 -11  -6    3.25    0.25
   4  11   6    3.16    0.29
  -4  11  -6    2.89    0.30
  -4  11  -6    3.53    0.28
   5  11   6    0.84    0.29
  -5  11  -6    0.95    0.21
  -5  11  -6    0.74    0.19
  -6 -12   6   18.58    0.92
   6  12  -6   16.26    0.91
  -6  12   6   21.42    0.96
   5  12  -6    0.24    0.17
   5  12  -6    0.19    0.19
  -5  12   6    0.22    0.16
   4 -12  -6   29.89    1.58
  -4  12   6   27.53    1.53
  -4  12   6   32.77    1.52
   4  12  -6   33.11    1.54
   4  12  -6   32.07    1.51
   3 -12  -6  144.83    6.97
   3  12  -6  157.52    7.01
   3  12  -6  154.81    6.97
  -3  12   6  148.97    6.95
  -3  12   6  146.06    6.96
   3  12  -6  147.96    6.95
   2  12  -6   10.55    0.61
  -2  12   6   10.67    0.63
   2  12  -6   12.00    0.67
   1 -12  -6   36.87    1.93
   1  12  -6   40.93    1.94
   1  12  -6   39.74    1.97
   1  12  -6   39.27    1.97
   1  12  -6   41.66    1.92
  -1  12   6   44.52    1.93
  -1  12   6   38.50    1.94
   0  12  -6   10.24    0.57
   0  12  -6    7.63    0.65
   0  12   6   10.30    0.54
   0  12  -6    8.96    0.58
  -1  12  -6   18.43    0.94
   1  12   6   17.82    0.95
  -1  12  -6   17.97    0.98
   1  12   6   19.42    0.94
  -2  12  -6   16.14    0.82
   2  12   6   15.00    0.84
  -2  12  -6   15.26    0.85
  -3  12  -6    2.39    0.29
   3  12   6    2.42    0.40
   3  12   6    1.93    0.27
  -3  12  -6    2.63    0.34
  -4 -12  -6   12.09    0.61
  -4  12  -6   12.65    0.65
   4  12   6   11.60    0.64
  -4  12  -6   11.61    0.62
  -5  12  -6    6.63    0.37
  -5  12  -6    6.52    0.38
  -6 -13   6    0.44    0.17
   6  13  -6   -0.01    0.18
  -6  13   6   -0.05    0.12
   5  13  -6    1.24    0.24
  -5  13   6    1.58    0.23
   5  13  -6    1.25    0.22
  -4  13   6    2.44    0.34
  -4  13   6    1.96    0.37
   4  13  -6    1.65    0.29
   4  13  -6    1.84    0.32
   3 -13  -6   53.15    2.60
  -3  13   6   50.56    2.58
   3  13  -6   53.95    2.57
   3  13  -6   57.46    2.64
   3  13  -6   57.08    2.60
  -3  13   6   54.58    2.59
   2  13  -6   61.81    3.11
   2  13  -6   66.36    3.09
   2  13  -6   65.73    3.11
   2  13  -6   66.44    3.14
  -2  13   6   68.91    3.11
   1  13  -6    3.87    0.47
   1  13  -6    3.96    0.45
  -1  13   6    4.21    0.37
  -1  13   6    4.24    0.34
   1  13  -6    4.49    0.36
   0  13  -6    0.67    0.25
   0  13  -6    0.20    0.21
   0  13   6    0.36    0.21
   0  13  -6    0.43    0.24
   0  13   6    0.11    0.18
  -1  13  -6    5.86    0.48
   1  13   6    6.12    0.44
   1  13   6    6.14    0.41
  -1  13  -6    6.31    0.43
   2  13   6    8.23    0.47
  -2  13  -6    7.48    0.54
   2  13   6    7.64    0.51
  -2  13  -6    7.85    0.49
  -3  13  -6   11.24    0.61
   3  13   6    8.35    0.71
   3  13   6    9.15    0.56
  -3  13  -6   10.68    0.57
  -4 -13  -6   -0.06    0.10
   4  13   6   -0.16    0.16
  -4  13  -6    0.03    0.16
  -4  13  -6    0.20    0.13
  -5 -14   6    0.30    0.19
   5  14  -6    0.01    0.16
  -5  14   6    0.12    0.14
   5  14  -6    0.02    0.14
  -4  14   6    5.11    0.39
   4  14  -6    5.89    0.49
   4  14  -6    5.44    0.41
  -4  14   6    4.19    0.44
   3 -14  -6   11.24    0.68
   3  14  -6   11.01    0.62
   3  14  -6   12.04    0.75
  -3  14   6   10.06    0.64
  -3  14   6   10.92    0.69
   3  14  -6   11.62    0.66
   2  14  -6   29.39    1.47
   2  14  -6   27.34    1.39
  -2  14   6   28.93    1.41
   2  14  -6   29.02    1.43
   1  14  -6    1.30    0.29
   1  14  -6    1.60    0.40
   1  14  -6    1.57    0.43
  -1  14   6    1.43    0.25
   1  14  -6    1.67    0.47
  -1  14   6    1.56    0.30
   0  14  -6   11.49    0.67
   0  14  -6   12.22    0.71
   0  14   6   12.16    0.64
   0  14   6   11.64    0.65
   0  14  -6   10.36    0.67
  -1  14  -6   27.62    1.41
   1  14   6   28.22    1.38
  -1  14  -6   28.10    1.37
  -2  14  -6   45.33    2.12
   2  14   6   46.17    2.14
   2  14   6   42.18    2.13
  -2  14  -6   45.02    2.16
  -3  14  -6    3.19    0.36
   3  14   6    2.45    0.27
  -3  14  -6    3.01    0.34
   3  14   6    2.55    0.37
  -4 -14  -6   12.13    0.58
  -4  14  -6   10.62    0.61
   4  14   6   11.71    0.61
  -4  14  -6   11.46    0.59
  -5 -15   6    0.20    0.20
  -5  15   6    0.21    0.15
   5  15  -6   -0.07    0.13
   5  15  -6   -0.09    0.14
  -4  15   6    4.00    0.37
   4  15  -6    4.39    0.30
  -4  15   6    3.92    0.41
   4  15  -6    4.42    0.34
   3 -15  -6   25.48    1.29
   3  15  -6   25.47    1.24
   3  15  -6   26.17    1.27
   3  15  -6   26.10    1.33
  -3  15   6   25.95    1.29
  -3  15   6   23.10    1.27
   2  15  -6   17.12    0.98
   2  15  -6   18.08    0.93
   2  15  -6   17.89    0.90
  -2  15   6   16.92    0.90
   1  15  -6    0.84    0.35
   1  15  -6    0.35    0.28
  -1  15   6    0.48    0.21
   1  15  -6    0.16    0.19
   1  15  -6    0.62    0.34
   0  15   6    4.10    0.35
   0  15  -6    2.80    0.42
   0  15  -6    3.37    0.45
   0  15  -6    3.91    0.39
  -1  15  -6    0.41    0.25
   1  15   6    0.70    0.21
   1  15   6    0.58    0.18
  -1  15  -6    0.42    0.20
   2  15   6    1.59    0.24
  -2  15  -6    1.46    0.34
   2  15   6    1.22    0.30
  -2  15  -6    1.17    0.26
  -3  15  -6    3.83    0.29
   3  15   6    3.08    0.37
   3  15   6    3.84    0.31
  -3  15  -6    4.23    0.36
  -4 -15  -6   -0.03    0.10
  -4  15  -6    0.24    0.12
  -4  15  -6    0.27    0.15
   4  15   6    0.18    0.18
  -5 -16   6    1.13    0.32
   5  16  -6    0.64    0.16
   4  16  -6    1.27    0.21
  -4  16   6    1.10    0.29
   4  16  -6    1.32    0.25
  -3  16   6   12.91    0.75
   3  16  -6   13.51    0.72
   3  16  -6   14.39    0.74
   3  16  -6   14.38    1.02
  -2  16   6    0.35    0.19
   2  16  -6   -0.07    0.35
   2  16  -6    0.29    0.25
   2  16  -6    0.43    0.18
  -1  16   6    0.98    0.21
   1  16  -6    1.63    0.37
   1  16  -6    1.12    0.29
   1  16  -6    1.63    0.46
  -1  16   6    1.24    0.30
   1  16  -6    1.11    0.30
   0  16  -6   15.02    0.83
   0  16  -6   15.80    0.82
   0  16  -6   15.32    0.87
   0  16   6   16.40    0.81
   0  16   6   13.94    0.79
   1  16   6    0.96    0.28
   1  16   6    1.16    0.24
  -1  16  -6    1.72    0.29
  -1  16  -6    0.77    0.28
   2  16   6    7.58    0.49
  -2  16  -6    8.35    0.49
   2  16   6    9.09    0.53
   3  16   6    0.76    0.22
  -3  16  -6    1.03    0.28
  -3  16  -6    0.54    0.14
   3  16   6    0.46    0.21
  -4  16  -6    3.75    0.27
  -4  16  -6    3.70    0.29
   5  17  -6    0.98    0.19
   5  17  -6    1.01    0.17
  -4  17   6    1.01    0.25
   4  17  -6    0.80    0.22
   4  17  -6    0.88    0.18
   3 -17  -6    8.99    0.60
   3  17  -6    9.76    0.56
   3  17  -6    9.65    0.52
  -3  17   6    9.90    0.57
   3  17  -6    9.64    0.67
  -2  17   6    6.09    0.43
   2  17  -6    6.94    0.61
   2  17  -6    6.92    0.48
   2  17  -6    6.34    0.42
  -1  17   6    0.06    0.18
   1  17  -6    0.45    0.31
   1  17  -6    1.20    0.30
   1  17  -6    0.46    0.36
   0 -17  -6    2.07    0.29
   0  17  -6    1.61    0.39
   0  17  -6    2.77    0.37
   0  17   6    1.71    0.24
   0  17  -6    1.80    0.43
   0  17   6    2.16    0.28
  -1  17  -6    1.17    0.28
   1  17   6    0.86    0.24
  -1  17  -6    0.69    0.28
   1  17   6    1.36    0.25
   2  17   6    0.71    0.18
  -2  17  -6    0.55    0.23
  -2  17  -6    1.24    0.23
   2  17   6    0.73    0.19
  -3  17  -6    4.22    0.35
   3  17   6    4.04    0.34
   3  17   6    4.32    0.32
  -3  17  -6    4.23    0.28
  -4 -17  -6    0.50    0.12
  -4  17  -6    0.17    0.24
  -4  17  -6    0.16    0.10
   4  18  -6    1.47    0.21
   4  18  -6    1.82    0.18
   3 -18  -6    1.96    0.41
   3  18  -6    1.72    0.21
   3  18  -6    1.66    0.27
  -3  18   6    2.02    0.30
   2  18  -6    3.40    0.39
   2  18  -6    3.30    0.36
   2  18  -6    3.64    0.48
  -2  18   6    3.39    0.31
   1  18  -6   -0.58    0.53
  -1  18   6   -0.02    0.19
   0  18   6    3.43    0.31
   0  18   6    2.76    0.29
   0  18  -6    3.79    0.69
  -1  18  -6    0.21    0.19
   1  18   6    0.19    0.17
  -1  18  -6    0.45    0.26
  -2  18  -6   -0.14    0.15
   2  18   6    0.01    0.16
   2  18   6    0.00    0.17
  -2  18  -6    0.01    0.24
  -3 -18  -6   -0.09    0.08
  -3  18  -6    0.00    0.11
   3  18   6   -0.09    0.18
   4  19  -6    1.57    0.21
   4  19  -6    1.63    0.17
  -3  19   6    1.16    0.26
   3  19  -6    0.93    0.24
   3  19  -6    0.74    0.19
  -2  19   6    6.22    0.41
   2  19  -6    5.34    0.56
   2  19  -6    6.13    0.44
   2  19  -6    6.48    0.38
   1  19  -6    1.62    0.28
  -1  19   6    1.80    0.26
   1  19  -6    1.58    0.35
   0 -19  -6   15.19    0.78
   0  19   6   16.10    0.79
   0  19  -6   13.36    0.81
   0  19   6   15.78    0.79
   0  19  -6   15.60    0.87
  -1 -19  -6    3.22    0.25
   1  19   6    3.30    0.29
   1  19   6    3.89    0.30
  -1  19  -6    3.76    0.44
  -1  19  -6    3.62    0.33
  -2 -19  -6    1.14    0.15
  -2  19  -6    1.80    0.35
   2  19   6    1.37    0.22
   2  19   6    1.12    0.22
  -2  19  -6    1.30    0.23
  -3  19  -6    6.53    0.51
  -3  19  -6    7.20    0.38
   4  20  -6   -0.12    0.09
   4  20  -6    0.01    0.13
   3  20  -6    1.55    0.25
   3  20  -6    1.44    0.18
  -3  20   6    1.85    0.30
  -2  20   6    0.84    0.23
   2  20  -6    1.23    0.32
   2  20  -6    0.87    0.21
  -1  20   6   -0.16    0.18
   1  20  -6    0.47    0.37
   1  20  -6    0.18    0.19
   0  20  -6    2.11    0.43
   0  20   6    1.79    0.25
  -1 -20  -6    2.04    0.21
  -1  20  -6    1.47    0.29
   1  20   6    1.64    0.22
   1  20   6    1.92    0.24
  -1  20  -6    1.00    0.33
  -2 -20  -6   -0.02    0.09
  -2  20  -6    0.10    0.16
   2  20   6   -0.15    0.13
   2  20   6    0.04    0.17
  -2  20  -6    0.29    0.32
   3  21  -6    1.68    0.23
   2 -21  -6    7.40    0.45
  -2  21   6    8.26    0.47
   2  21  -6    6.06    0.48
   2  21  -6    7.26    0.41
  -1  21   6   -0.08    0.18
   1  21  -6   -0.15    0.21
   0  21   6    3.67    0.32
   1  21   6    1.21    0.23
  -2 -21  -6    2.87    0.20
  -2  21  -6    2.54    0.29
   2 -22  -6    0.41    0.24
   2  22  -6    0.14    0.14
  -2  22   6    0.69    0.29
  -1  22   6    0.69    0.20
   0  22   6    5.77    0.38
   1  22   6    5.58    0.40
  -7   0   7   -0.05    0.24
  -6   0   7   -0.20    0.17
  -6   0   7    0.08    0.20
  -5   0   7   -0.16    0.21
  -5   0   7    0.33    0.26
   5   0  -7   -0.15    0.27
  -4   0   7    0.10    0.20
   4   0  -7   -0.10    0.24
   3   0  -7   -0.32    0.37
   3   0  -7   -0.02    0.27
   3   0  -7   -0.05    0.21
   2   0  -7    0.12    0.22
   2   0  -7   -0.05    0.19
  -1   0   7    0.20    0.29
   1   0  -7    0.02    0.15
   0   0  -7   -0.01    0.12
  -1   0  -7   -0.21    0.25
  -1   0  -7   -0.07    0.13
   2   0   7    0.08    0.21
  -2   0  -7   -0.03    0.14
  -2   0  -7   -0.16    0.34
  -3   0  -7    0.07    0.17
   3   0   7   -0.06    0.19
  -3   0  -7   -0.13    0.28
   4   0   7    0.10    0.19
  -4   0  -7    0.01    0.28
  -5   0  -7    0.59    0.41
   5   0   7    0.09    0.24
  -7  -1   7    2.40    0.26
  -6  -1   7    4.66    0.37
  -6  -1   7    5.13    0.39
   6   1  -7    4.83    0.51
  -6   1   7    4.83    0.38
  -6   1   7    5.17    0.36
  -5  -1   7    2.92    0.37
  -5  -1   7    2.70    0.39
   5  -1  -7    3.18    0.41
   5   1  -7    2.78    0.42
  -5   1   7    3.19    0.40
  -5   1   7    2.89    0.35
   4  -1  -7   58.43    2.71
  -4  -1   7   57.39    2.70
   4   1  -7   56.51    2.71
  -4   1   7   55.64    2.69
   3  -1  -7    3.95    0.59
   3  -1  -7    3.61    0.53
   3  -1  -7    4.31    0.40
   3   1  -7    4.31    0.39
   3   1  -7    4.16    0.45
   3   1  -7    4.57    0.54
  -2  -1   7   28.32    1.63
   2  -1  -7   29.34    1.40
   2  -1  -7   26.99    1.38
   2   1  -7   27.69    1.58
   2   1  -7   30.96    1.41
   2   1  -7   27.44    1.37
  -1  -1   7   21.22    1.24
   1   1  -7   22.75    1.14
   1   1  -7   23.09    1.09
   0  -1  -7   16.95    0.84
   0   1  -7   16.79    0.84
  -1  -1  -7   25.77    1.24
  -1   1  -7   26.22    1.25
  -1   1  -7   25.17    1.33
  -1   1  -7   25.87    1.28
   2  -1   7    0.43    0.23
  -2  -1  -7    0.19    0.42
  -2  -1  -7    0.48    0.14
   2   1   7    0.39    0.21
  -2   1  -7    0.17    0.25
  -2   1  -7    0.36    0.16
  -2   1  -7    0.46    0.32
  -3  -1  -7    0.44    0.17
   3  -1   7    0.41    0.22
  -3  -1  -7    0.27    0.32
   3   1   7    0.43    0.20
  -3   1  -7    0.42    0.19
  -3   1  -7    0.62    0.28
   4  -1   7   24.52    1.28
  -4  -1  -7   28.65    1.41
   4   1   7   24.64    1.28
  -4   1  -7   27.48    1.33
   5  -1   7   -0.16    0.24
  -5   1  -7    0.10    0.23
   5   1   7    0.34    0.23
  -6  -2   7    0.77    0.22
  -6  -2   7    1.24    0.27
  -6   2   7    0.93    0.25
   6   2  -7    1.79    0.43
  -6   2   7    1.15    0.28
  -5  -2   7    4.16    0.43
   5  -2  -7    4.13    0.47
  -5   2   7    4.47    0.46
  -5   2   7    3.85    0.37
   5   2  -7    4.80    0.45
  -4  -2   7   27.35    1.33
   4  -2  -7   27.81    1.36
   4   2  -7   26.85    1.34
  -4   2   7   25.72    1.32
   3  -2  -7    1.46    0.33
   3   2  -7    1.19    0.25
   3   2  -7    1.94    0.34
  -3   2   7    1.06    0.23
   3   2  -7    2.29    0.41
   2  -2  -7    0.15    0.20
   2  -2  -7    0.02    0.19
  -2  -2   7    0.18    0.47
   2   2  -7    0.48    0.20
   2   2  -7    0.06    0.16
   2   2  -7    0.23    0.24
   2   2  -7    0.05    0.37
  -1  -2   7   44.86    2.30
   1   2  -7   45.86    2.16
   1   2  -7   46.33    2.15
   0  -2  -7    2.29    0.25
   0   2  -7    2.61    0.31
   0   2  -7    2.67    0.26
  -1  -2  -7   12.56    0.63
  -1   2  -7   12.26    0.64
  -1   2  -7   11.87    0.77
  -1   2  -7   11.62    0.67
  -2  -2  -7   24.09    1.16
  -2   2  -7   23.54    1.17
  -2   2  -7   24.43    1.19
   2   2   7   24.10    1.17
  -2   2  -7   23.27    1.23
  -3  -2  -7   15.38    0.79
   3  -2   7   15.98    0.82
  -3   2  -7   14.61    0.85
   3   2   7   16.54    0.81
  -3   2  -7   14.54    0.86
   4  -2   7    2.01    0.31
   4   2   7    2.21    0.27
  -4   2  -7    2.96    0.38
   5  -2   7    2.26    0.39
   5   2   7    2.27    0.31
  -5   2  -7    2.17    0.32
  -6  -3   7    0.31    0.19
  -6  -3   7   -0.09    0.23
  -6   3   7    0.10    0.21
  -6   3   7    0.01    0.16
   6   3  -7    0.25    0.28
  -5  -3   7    3.68    0.42
   5  -3  -7    3.23    0.48
  -5   3   7    3.70    0.35
   5   3  -7    3.55    0.39
  -5   3   7    2.96    0.45
  -4  -3   7    1.42    0.33
   4  -3  -7    1.89    0.37
  -4   3   7    1.57    0.51
   4   3  -7    1.73    0.34
  -4   3   7    1.52    0.29
   4   3  -7    1.59    0.35
   3  -3  -7   11.03    0.64
   3   3  -7   10.79    0.64
   3   3  -7   10.75    0.63
   3   3  -7   10.13    0.72
  -3   3   7   10.56    0.60
   2  -3  -7   20.82    1.06
   2  -3  -7   21.34    1.07
  -2  -3   7   18.81    1.41
   2   3  -7   21.24    1.05
   2   3  -7   21.45    1.13
   2   3  -7   22.36    1.09
   2   3  -7   21.69    1.06
   1  -3  -7    8.64    0.50
  -1  -3   7    7.93    0.80
   1   3  -7    9.10    0.53
   1   3  -7    9.21    0.50
   0  -3  -7    0.68    0.13
   0   3  -7    0.92    0.20
   0   3  -7    0.71    0.15
  -1  -3  -7   45.42    2.15
  -1   3  -7   45.69    2.17
  -1   3  -7   45.78    2.21
  -1   3  -7   46.14    2.16
   1   3   7   45.70    2.16
  -2  -3  -7   18.15    0.92
  -2   3  -7   18.23    0.94
   2   3   7   19.65    0.94
  -2   3  -7   18.84    1.00
  -2   3  -7   18.63    0.95
  -3  -3  -7   19.65    1.01
   3  -3   7   20.53    1.05
   3   3   7   21.29    1.03
  -3   3  -7   20.67    1.05
  -3   3  -7   21.03    1.08
   4  -3   7   10.32    0.62
   4   3   7    9.97    0.60
  -4   3  -7   12.31    0.66
   5  -3   7    3.58    0.48
  -5   3  -7    2.89    0.32
   5   3   7    3.56    0.33
  -6  -4   7   -0.07    0.29
  -6  -4   7    0.22    0.19
  -6   4   7    0.03    0.15
  -6   4   7    0.06    0.24
   6   4  -7    0.45    0.25
   5  -4  -7    4.39    0.50
  -5  -4   7    5.01    0.47
  -5   4   7    4.35    0.50
   5   4  -7    4.42    0.43
  -5   4   7    4.27    0.39
  -4  -4   7   10.71    0.63
   4  -4  -7   10.76    0.66
  -4   4   7    9.85    0.96
  -4   4   7   10.39    0.61
   4   4  -7   10.52    0.68
   4   4  -7   10.40    0.62
   3  -4  -7    6.42    0.46
   3   4  -7    5.82    0.58
   3   4  -7    5.82    0.45
  -3   4   7    6.31    0.44
   3   4  -7    6.10    0.45
   2  -4  -7   41.54    2.08
  -2  -4   7   42.87    2.53
   2  -4  -7   43.71    2.09
   2   4  -7   44.71    2.08
   2   4  -7   44.00    2.13
   2   4  -7   45.47    2.10
  -1  -4   7   58.54    2.81
   1  -4  -7   50.59    2.54
   1   4  -7   54.47    2.56
   1   4  -7   54.38    2.60
   1   4  -7   54.14    2.55
   0  -4  -7   76.13    3.53
   0   4  -7   72.95    3.58
   0   4  -7   76.50    3.55
   0   4  -7   78.25    3.54
  -1  -4  -7   34.73    1.66
  -1   4  -7   35.29    1.67
  -1   4  -7   35.29    1.68
  -1   4  -7   34.97    1.71
   1   4   7   34.72    1.67
  -2  -4  -7   82.46    4.48
  -2   4  -7   99.89    4.49
  -2   4  -7   95.03    4.45
  -2   4  -7  101.26    4.46
   2   4   7  100.27    4.46
   3  -4   7    4.11    0.40
  -3  -4  -7    3.72    0.31
  -3   4  -7    3.74    0.37
  -3   4  -7    4.12    0.41
  -4  -4  -7   18.00    0.94
   4  -4   7   18.91    0.99
  -4   4  -7   19.21    1.04
   4   4   7   18.37    0.96
  -4   4  -7   21.44    1.01
  -5   4  -7    5.09    0.36
   5   4   7    4.62    0.38
  -6  -5   7    1.00    0.26
   6   5  -7    0.91    0.26
  -6   5   7    0.79    0.22
   5  -5  -7   17.64    0.98
  -5  -5   7   17.96    0.95
   5   5  -7   18.05    0.93
  -5   5   7   15.77    1.10
  -5   5   7   18.14    0.91
   4  -5  -7    0.27    0.27
  -4  -5   7   -0.15    0.23
   4   5  -7    0.07    0.22
   4   5  -7   -0.12    0.31
  -4   5   7    0.23    0.19
   4   5  -7   -0.17    0.25
   3  -5  -7    2.01    0.36
  -3   5   7    2.06    0.31
   3   5  -7    2.29    0.33
   3   5  -7    2.70    0.34
   3   5  -7    1.95    0.47
   2  -5  -7    2.80    0.35
   2  -5  -7    2.40    0.39
   2   5  -7    3.17    0.31
   2   5  -7    3.21    0.38
   2   5  -7    2.98    0.35
  -2   5   7    2.60    0.41
   2   5  -7    3.76    0.47
   1  -5  -7    7.72    0.47
   1   5  -7    8.00    0.49
   1   5  -7    8.28    0.63
   1   5  -7    7.28    0.59
   1   5  -7    8.03    0.46
   0  -5  -7    2.59    0.26
   0   5   7    2.41    0.35
   0   5  -7    2.14    0.37
   0   5  -7    2.52    0.32
   0   5  -7    2.34    0.27
  -1  -5  -7    9.71    0.53
  -1   5  -7    8.90    0.59
   1   5   7   10.86    0.59
  -1   5  -7    9.59    0.56
  -1   5  -7    9.72    0.55
  -2  -5  -7   34.13    1.60
   2   5   7   34.31    1.62
  -2   5  -7   36.17    1.79
  -2   5  -7   30.32    1.62
  -3  -5  -7    1.31    0.22
  -3   5  -7    1.45    0.33
   3   5   7    0.98    0.23
  -3   5  -7    1.46    0.26
   4  -5   7   32.89    1.57
  -4  -5  -7   31.40    1.53
  -4   5  -7   32.65    1.56
   4   5   7   32.01    1.55
  -5   5  -7    0.76    0.24
   5   5   7    0.98    0.28
  -6  -6   7    1.31    0.26
   6   6  -7    1.84    0.34
  -6   6   7    1.38    0.21
  -5  -6   7    2.19    0.47
   5  -6  -7    2.99    0.51
   5   6  -7    3.08    0.35
  -5   6   7    3.34    0.32
   4  -6  -7    6.85    0.53
  -4  -6   7    6.14    0.50
  -4   6   7    6.44    0.44
   4   6  -7    6.07    0.48
   4   6  -7    6.35    0.57
   4   6  -7    6.00    0.50
   3  -6  -7    4.05    0.39
   3   6  -7    3.75    0.80
  -3   6   7    3.50    0.37
   3   6  -7    4.07    0.36
   2   6  -7    4.67    0.42
   2   6  -7    4.19    0.34
   2   6  -7    4.20    0.37
   2   6  -7    2.81    0.51
  -2   6   7    4.26    0.42
   1  -6  -7   37.90    1.84
   1   6  -7   38.61    1.90
   1   6  -7   38.70    1.91
   1   6  -7   39.78    1.86
   1   6  -7   39.43    1.85
   0  -6  -7   12.64    0.67
   0   6  -7   13.82    0.74
   0   6   7   12.34    0.70
   0   6  -7   13.20    0.70
   0   6  -7   12.44    0.67
  -1  -6  -7    7.13    0.39
  -1   6  -7    6.07    0.42
   1   6   7    6.51    0.44
  -1   6  -7    6.38    0.43
  -1   6  -7    6.12    0.47
  -2  -6  -7   41.55    2.00
  -2   6  -7   43.52    2.06
   2   6   7   42.65    2.02
  -2   6  -7   42.01    2.02
  -3  -6  -7    4.43    0.32
  -3   6  -7    4.40    0.39
  -3   6  -7    4.81    0.40
   3   6   7    4.31    0.33
  -4  -6  -7   21.80    1.08
  -4   6  -7   21.40    1.10
  -4   6  -7   22.84    1.13
   4   6   7   23.22    1.11
   5   6   7   25.92    1.25
  -5   6  -7   25.07    1.23
  -6  -7   7    0.19    0.17
  -6   7   7    0.32    0.13
   6   7  -7    0.31    0.21
  -5  -7   7    0.88    0.31
   5  -7  -7    1.14    0.38
   5   7  -7    1.21    0.31
   5   7  -7    0.39    0.28
  -5   7   7    1.06    0.26
  -4  -7   7    6.99    0.56
   4  -7  -7    8.35    0.59
   4   7  -7    7.87    0.63
  -4   7   7    7.21    0.49
   4   7  -7    8.02    0.52
   4   7  -7    7.76    0.52
   3  -7  -7    1.75    0.35
   3   7  -7    2.46    0.31
   3   7  -7    2.06    0.35
  -3   7   7    2.25    0.34
   3   7  -7    3.16    0.48
   2   7  -7   23.80    1.16
   2   7  -7   20.50    1.21
   2   7  -7   23.11    1.15
  -2   7   7   22.35    1.16
   2   7  -7   23.78    1.12
   1  -7  -7    0.38    0.17
   1   7  -7    0.30    0.25
  -1   7   7    0.14    0.27
   1   7  -7    0.19    0.14
   1   7  -7    0.30    0.34
   1   7  -7    0.33    0.20
   0  -7  -7    0.34    0.14
   0   7  -7    0.15    0.22
   0   7   7   -0.04    0.21
   0   7  -7    0.05    0.16
   0   7  -7    0.03    0.18
  -1  -7  -7    0.20    0.12
  -1   7  -7    0.14    0.18
  -1   7  -7   -0.07    0.16
   1   7   7    0.04    0.26
  -1   7  -7   -0.09    0.22
   1   7   7    0.01    0.19
  -2  -7  -7    0.02    0.12
  -2   7  -7    0.03    0.22
  -2   7  -7    0.13    0.18
   2   7   7   -0.28    0.17
  -3  -7  -7   11.52    0.61
  -3   7  -7   12.40    0.68
   3   7   7   11.18    0.63
  -3   7  -7   11.10    0.65
  -4  -7  -7    2.44    0.24
  -4   7  -7    2.67    0.29
  -4   7  -7    2.61    0.29
   4   7   7    2.39    0.27
  -5   7  -7    0.07    0.14
   5   7   7    0.18    0.34
  -6  -8   7    9.76    0.55
   6   8  -7    9.29    0.55
  -6   8   7   10.29    0.52
  -5   8   7    0.87    0.28
   5   8  -7    0.65    0.29
   5   8  -7    1.24    0.26
  -4  -8   7   11.45    0.73
   4  -8  -7   12.50    0.75
   4   8  -7   12.32    0.69
  -4   8   7   12.30    0.69
   4   8  -7   12.57    0.69
   4   8  -7   11.23    0.78
   3  -8  -7   46.48    2.16
   3   8  -7   44.52    2.14
   3   8  -7   45.30    2.16
  -3   8   7   45.82    2.15
   3   8  -7   42.39    2.21
   2   8  -7    0.37    0.26
   2   8  -7   -0.24    0.22
   2   8  -7   -0.05    0.31
  -2   8   7    0.43    0.29
  -2   8   7    0.27    0.29
   2   8  -7    0.18    0.16
   1  -8  -7   10.18    0.60
  -1   8   7    9.24    0.59
   1   8  -7   11.49    0.58
   1   8  -7   10.91    0.62
   1   8  -7   11.00    0.65
   1   8  -7    9.91    0.73
   0  -8  -7    7.20    0.43
   0   8  -7    7.60    0.50
   0   8  -7    6.89    0.45
   0   8  -7    7.08    0.46
   0   8   7    6.88    0.46
   0   8   7    7.04    0.48
   1   8   7   -0.04    0.24
  -1   8  -7    0.12    0.19
  -1   8  -7   -0.10    0.23
  -1   8  -7   -0.03    0.20
   1   8   7   -0.12    0.19
  -2   8  -7   20.95    1.08
  -2   8  -7   20.13    1.05
   2   8   7   20.98    1.12
   2   8   7   21.34    1.05
  -3  -8  -7    1.41    0.21
   3   8   7    1.10    0.24
  -3   8  -7    1.16    0.29
  -3   8  -7    1.44    0.30
  -4  -8  -7    6.57    0.38
   4   8   7    6.55    0.42
  -4   8  -7    6.53    0.43
  -4   8  -7    6.14    0.41
  -5   8  -7   11.81    0.64
  -6  -9   7    0.72    0.23
   6   9  -7    0.23    0.19
  -6   9   7    0.31    0.12
   5   9  -7    7.92    0.50
  -5   9   7    7.29    0.46
   5   9  -7    7.85    0.49
   4  -9  -7    1.20    0.33
  -4  -9   7    1.08    0.33
   4   9  -7    1.68    0.32
   4   9  -7    1.22    0.32
   4   9  -7    1.86    0.38
  -4   9   7    1.07    0.30
   3  -9  -7    4.11    0.40
   3   9  -7    3.68    0.34
  -3   9   7    4.00    0.40
  -3   9   7    4.08    0.49
   3   9  -7    3.91    0.39
   3   9  -7    3.42    0.51
   2   9  -7   12.24    0.83
  -2   9   7   11.96    0.70
  -2   9   7   10.80    0.77
   2   9  -7   11.62    0.68
   2   9  -7   12.39    0.70
   1  -9  -7    0.26    0.19
   1   9  -7    0.02    0.16
  -1   9   7    0.10    0.22
   1   9  -7    0.11    0.35
   1   9  -7    0.42    0.23
   1   9  -7    0.31    0.22
   0  -9  -7    0.62    0.16
   0   9   7    0.85    0.22
   0   9  -7    0.75    0.19
   0   9  -7    0.50    0.20
   0   9   7    0.59    0.22
   0   9  -7    0.85    0.26
  -1   9  -7    2.72    0.38
  -1   9  -7    2.62    0.38
   1   9   7    3.15    0.42
  -1   9  -7    2.75    0.31
   1   9   7    3.32    0.30
   2   9   7    9.26    0.54
  -2   9  -7    9.18    0.58
  -2   9  -7    9.17    0.54
   2   9   7    8.52    0.61
  -3  -9  -7    4.94    0.32
  -3   9  -7    4.51    0.37
  -3   9  -7    4.86    0.40
   3   9   7    4.48    0.36
  -4  -9  -7    6.37    0.36
  -4   9  -7    6.21    0.39
   4   9   7    5.92    0.41
  -4   9  -7    6.11    0.41
  -5   9  -7    2.80    0.24
  -6 -10   7    0.05    0.16
  -6  10   7   -0.02    0.11
   6  10  -7    0.25    0.18
  -5  10   7    0.51    0.17
   5  10  -7    0.82    0.22
   5  10  -7    1.03    0.28
  -4 -10   7    9.19    0.71
   4 -10  -7   10.38    0.71
   4  10  -7   10.92    0.72
   4  10  -7   11.37    0.64
  -4  10   7   11.10    0.62
   4  10  -7   10.74    0.61
   3 -10  -7    3.48    0.41
   3  10  -7    4.49    0.52
   3  10  -7    3.61    0.38
   3  10  -7    3.26    0.34
  -3  10   7    4.12    0.47
  -3  10   7    3.93    0.45
   2  10  -7    0.31    0.24
   2  10  -7    0.45    0.18
  -2  10   7    0.03    0.27
  -2  10   7    0.38    0.33
   2  10  -7    0.49    0.28
   2  10  -7    0.45    0.29
   1 -10  -7    3.05    0.35
   1  10  -7    3.49    0.51
   1  10  -7    3.37    0.31
  -1  10   7    3.43    0.34
   1  10  -7    3.28    0.38
   1  10  -7    3.01    0.40
   0 -10  -7   41.62    2.03
   0  10   7   44.02    2.07
   0  10   7   44.86    2.05
   0  10  -7   41.19    2.04
   1  10   7   15.75    0.86
  -1  10  -7   15.96    0.88
   1  10   7   17.11    0.84
  -1  10  -7   15.84    0.88
  -1  10  -7   16.69    0.85
  -2  10  -7   55.02    2.64
  -2  10  -7   55.10    2.67
   2  10   7   57.81    2.66
  -3 -10  -7    0.78    0.20
  -3  10  -7    0.14    0.17
   3  10   7    0.46    0.18
  -3  10  -7    0.52    0.20
  -4 -10  -7    2.53    0.22
  -4  10  -7    2.29    0.25
   4  10   7    2.54    0.31
  -4  10  -7    2.11    0.26
  -5  10  -7    2.19    0.21
  -6 -11   7    0.69    0.21
  -6  11   7    0.89    0.16
   6  11  -7    0.45    0.17
   5  11  -7    6.69    0.43
   5  11  -7    6.74    0.44
  -5  11   7    6.98    0.41
   4 -11  -7    0.07    0.31
  -4  11   7   -0.11    0.20
   4  11  -7   -0.07    0.17
   4  11  -7    0.22    0.22
   4  11  -7    0.70    0.33
   3 -11  -7   11.70    0.70
  -3  11   7   11.72    0.69
   3  11  -7   11.73    0.68
   3  11  -7   11.87    0.78
   3  11  -7   11.58    0.65
   2  11  -7   53.55    2.46
  -2  11   7   51.53    2.45
   2  11  -7   54.48    2.51
   2  11  -7   51.96    2.46
  -2  11   7   44.33    2.61
   2  11  -7   52.98    2.44
   1 -11  -7    0.72    0.21
  -1  11   7    1.23    0.28
   1  11  -7    1.32    0.39
   1  11  -7    1.12    0.36
   1  11  -7    0.82    0.20
   1  11  -7    1.22    0.32
   0 -11  -7    8.37    0.51
   0  11  -7    8.22    0.54
   0  11  -7    8.94    0.58
   0  11  -7    9.09    0.55
   0  11   7    8.94    0.53
   0  11   7    9.38    0.54
  -1  11  -7    9.90    0.61
   1  11   7    9.52    0.56
  -1  11  -7   10.96    0.58
  -1  11  -7    9.07    0.65
   1  11   7    9.56    0.58
  -2  11  -7   25.61    1.24
  -2  11  -7   25.05    1.28
   2  11   7   25.61    1.25
   2  11   7   24.23    1.26
  -3 -11  -7    4.75    0.31
  -3  11  -7    5.07    0.39
   3  11   7    4.24    0.35
  -3  11  -7    4.69    0.36
  -4 -11  -7    6.16    0.34
  -4  11  -7    5.78    0.38
   4  11   7    5.25    0.38
  -4  11  -7    6.08    0.36
  -6 -12   7    0.65    0.20
   6  12  -7    0.27    0.16
  -6  12   7    0.07    0.12
   5  12  -7    0.14    0.16
  -5  12   7   -0.17    0.15
   5  12  -7    0.11    0.17
   4  12  -7    6.79    0.43
   4  12  -7    6.61    0.47
  -4  12   7    7.50    0.48
   3 -12  -7   13.62    0.78
  -3  12   7   13.89    0.77
   3  12  -7   14.24    0.73
   3  12  -7   13.36    0.84
  -3  12   7   13.10    0.78
   3  12  -7   13.85    0.76
   2  12  -7    9.53    0.66
   2  12  -7   10.91    0.64
   2  12  -7    8.94    0.63
  -2  12   7   10.69    0.62
   1 -12  -7    5.29    0.45
  -1  12   7    6.66    0.43
   1  12  -7    5.75    0.52
   1  12  -7    5.45    0.45
   1  12  -7    6.14    0.42
   1  12  -7    6.22    0.62
   0 -12  -7   11.10    0.60
   0  12   7   11.70    0.62
   0  12  -7   10.01    0.63
   0  12  -7   12.05    0.64
   0  12   7    9.88    0.62
   0  12  -7   11.14    0.68
  -1  12  -7    1.81    0.33
   1  12   7    1.90    0.30
   1  12   7    2.05    0.28
  -1  12  -7    2.00    0.31
   2  12   7    2.26    0.26
  -2  12  -7    2.47    0.30
  -2  12  -7    2.01    0.35
   2  12   7    2.56    0.37
  -3 -12  -7    3.76    0.27
   3  12   7    4.04    0.31
  -3  12  -7    4.09    0.36
  -3  12  -7    3.14    0.32
  -4 -12  -7    0.11    0.11
  -4  12  -7   -0.02    0.12
   4  12   7    0.06    0.17
  -4  12  -7   -0.08    0.15
   5  13  -7    2.41    0.25
   5  13  -7    3.27    0.27
  -5  13   7    2.87    0.27
   4 -13  -7    2.23    0.47
  -4  13   7    2.39    0.30
   4  13  -7    1.84    0.28
   3 -13  -7   12.03    0.72
  -3  13   7   11.80    0.73
  -3  13   7   10.35    0.72
   3  13  -7   13.32    0.78
   3  13  -7   13.20    0.70
   3  13  -7   12.41    0.66
   2  13  -7   16.66    0.94
   2  13  -7   16.93    0.92
   2  13  -7   17.31    0.93
   2  13  -7   17.18    0.88
   1 -13  -7    3.52    0.41
   1  13  -7    3.88    0.56
  -1  13   7    3.63    0.35
   1  13  -7    3.25    0.35
   1  13  -7    4.45    0.46
   1  13  -7    3.96    0.40
   0 -13  -7    0.13    0.16
   0  13   7   -0.07    0.20
   0  13  -7   -0.07    0.21
   0  13   7    0.16    0.19
   0  13  -7    0.10    0.24
   0  13  -7    0.20    0.22
   1  13   7   70.05    3.25
   1  13   7   65.70    3.24
  -1  13  -7   70.06    3.24
  -1  13  -7   70.36    3.28
  -2  13  -7    1.04    0.31
   2  13   7    1.57    0.33
  -2  13  -7    1.27    0.26
   2  13   7    1.20    0.25
  -3 -13  -7    2.11    0.20
   3  13   7    1.65    0.24
  -3  13  -7    1.75    0.28
  -3  13  -7    2.05    0.23
  -4 -13  -7    8.46    0.44
  -4  13  -7    8.43    0.47
   4  13   7    8.70    0.49
  -4  13  -7    8.04    0.44
  -5 -14   7    0.46    0.18
   5  14  -7    0.34    0.16
   5  14  -7    0.52    0.14
  -5  14   7    0.38    0.15
   4 -14  -7    1.64    0.36
   4  14  -7    1.38    0.22
  -4  14   7    1.10    0.22
   4  14  -7    1.37    0.26
   3 -14  -7   11.52    0.68
   3  14  -7   11.40    0.73
   3  14  -7   11.68    0.66
  -3  14   7    9.87    0.68
   3  14  -7   11.77    0.63
  -3  14   7   11.52    0.70
  -2  14   7    4.44    0.38
   2  14  -7    4.99    0.49
   2  14  -7    4.78    0.47
   2  14  -7    4.38    0.45
   2  14  -7    4.21    0.36
   1  14  -7   25.97    1.28
   1  14  -7   26.22    1.35
  -1  14   7   25.44    1.28
   1  14  -7   25.47    1.37
   1  14  -7   27.14    1.30
   0 -14  -7    0.52    0.17
   0  14   7    0.28    0.19
   0  14   7    0.13    0.19
   0  14  -7    0.26    0.22
   0  14  -7    0.37    0.26
   0  14  -7    0.45    0.23
   1  14   7    0.36    0.18
   1  14   7    0.48    0.21
  -1  14  -7    0.35    0.22
  -1  14  -7    0.17    0.18
   2  14   7    0.88    0.19
   2  14   7    1.39    0.31
  -2  14  -7    0.78    0.19
  -2  14  -7    1.22    0.30
  -3 -14  -7    4.68    0.28
  -3  14  -7    4.37    0.30
   3  14   7    4.51    0.34
  -3  14  -7    3.95    0.35
  -4 -14  -7    2.90    0.21
  -4  14  -7    2.87    0.26
  -4  14  -7    3.01    0.23
  -5 -15   7    4.01    0.32
   5  15  -7    3.58    0.27
   5  15  -7    4.00    0.28
  -5  15   7    4.46    0.31
   4  15  -7    1.72    0.22
   4  15  -7    2.42    0.26
  -4  15   7    1.61    0.32
  -3  15   7    7.40    0.54
   3  15  -7    8.72    0.47
   3  15  -7    7.56    0.68
   3  15  -7    7.85    0.51
   2  15  -7   11.41    0.68
   2  15  -7   12.42    0.63
   2  15  -7   11.36    0.72
   2  15  -7   11.99    0.74
  -2  15   7   10.62    0.65
  -1  15   7    0.21    0.20
   1  15  -7    0.60    0.30
   1  15  -7   -0.34    0.22
   1  15  -7   -0.36    0.19
   0 -15  -7   -0.11    0.16
   0  15  -7    0.33    0.22
   0  15  -7    0.33    0.25
   0  15  -7   -0.09    0.24
   0  15   7    0.33    0.20
   0  15   7    0.23    0.17
  -1 -15  -7   11.74    0.62
  -1  15  -7   12.04    0.71
   1  15   7   10.42    0.63
  -1  15  -7   11.73    0.64
   1  15   7   12.68    0.65
  -2 -15  -7    1.16    0.18
   2  15   7    1.05    0.24
  -2  15  -7    1.09    0.21
   2  15   7    0.79    0.21
  -2  15  -7    0.79    0.24
  -3 -15  -7    0.80    0.14
  -3  15  -7    0.15    0.17
  -3  15  -7    0.43    0.13
   3  15   7    0.85    0.25
  -4 -15  -7    2.23    0.17
  -4  15  -7    2.28    0.20
  -4  15  -7    2.43    0.23
  -5 -16   7    1.51    0.30
   5  16  -7    1.93    0.20
   5  16  -7    2.40    0.20
   4  16  -7    2.10    0.21
  -4  16   7    1.34    0.37
   4  16  -7    2.24    0.26
   3 -16  -7    8.20    0.52
   3  16  -7    7.42    0.45
   3  16  -7    7.36    0.56
   3  16  -7    8.32    0.49
  -3  16   7    7.77    0.53
   2  16  -7    5.30    0.43
   2  16  -7    4.31    0.35
   2  16  -7    4.29    0.49
  -2  16   7    3.69    0.37
   1  16  -7    6.85    0.55
   1  16  -7    6.74    0.49
   1  16  -7    6.94    0.44
  -1  16   7    6.37    0.44
   0 -16  -7    0.31    0.17
   0  16   7    0.53    0.21
   0  16  -7    0.03    0.24
   0  16  -7   -0.37    0.20
   0  16   7    0.09    0.18
   0  16  -7    0.32    0.26
  -1 -16  -7    0.19    0.13
  -1  16  -7   -0.01    0.23
  -1  16  -7    0.11    0.19
   1  16   7    0.03    0.18
   1  16   7   -0.13    0.18
  -2 -16  -7   12.82    0.64
   2  16   7   13.31    0.67
  -2  16  -7   12.31    0.65
   2  16   7   12.10    0.67
  -2  16  -7   12.30    0.70
  -3 -16  -7    5.35    0.29
  -3  16  -7    4.20    0.35
   3  16   7    5.14    0.36
  -3  16  -7    5.04    0.30
   4  17  -7    2.00    0.23
   4  17  -7    2.10    0.20
   3 -17  -7    5.72    0.43
   3  17  -7    4.64    0.34
   3  17  -7    5.80    0.48
   3  17  -7    6.06    0.40
   2  17  -7    0.79    0.21
  -2  17   7    1.24    0.29
   2  17  -7    1.34    0.41
   2  17  -7    1.22    0.34
   1  17  -7    0.92    0.26
  -1  17   7    1.39    0.29
   1  17  -7    1.49    0.39
   0 -17  -7    1.20    0.27
   0  17  -7    1.00    0.46
   0  17   7    0.77    0.19
   0  17  -7    1.13    0.34
   0  17  -7    0.98    0.24
  -1 -17  -7    3.40    0.26
   1  17   7    3.20    0.29
   1  17   7    3.49    0.31
  -1  17  -7    3.86    0.31
  -1  17  -7    4.16    0.38
  -2 -17  -7    0.85    0.16
  -2  17  -7    1.21    0.21
  -2  17  -7    1.21    0.28
   2  17   7    0.79    0.30
  -3 -17  -7    9.22    0.45
   3  17   7    8.75    0.51
  -3  17  -7    9.43    0.58
  -3  17  -7    8.47    0.47
   4  18  -7    7.41    0.42
   4  18  -7    7.47    0.39
   3 -18  -7    9.55    0.57
   3  18  -7   10.01    0.53
  -3  18   7    8.60    0.57
   3  18  -7    8.95    0.49
   2  18  -7    3.23    0.41
  -2  18   7    2.51    0.32
   2  18  -7    2.19    0.36
   2  18  -7    2.54    0.26
   1  18  -7   19.03    0.92
  -1  18   7   17.77    0.94
   1  18  -7   18.69    0.99
   0 -18  -7    0.45    0.17
   0  18   7    0.76    0.23
   0  18  -7    0.22    0.27
   0  18  -7    0.14    0.20
  -1 -18  -7    5.51    0.32
  -1  18  -7    5.50    0.36
   1  18   7    4.53    0.34
  -1  18  -7    5.10    0.43
  -2 -18  -7    3.55    0.24
  -2  18  -7    3.55    0.27
  -2  18  -7    3.49    0.34
   2  18   7    3.54    0.29
  -3 -18  -7    0.81    0.13
  -3  18  -7    1.05    0.17
  -3  18  -7    1.05    0.27
   4  19  -7    0.34    0.15
   4  19  -7    0.18    0.10
   3 -19  -7   -0.18    0.25
   3  19  -7    0.25    0.17
  -3  19   7    0.62    0.30
   3  19  -7    0.12    0.12
   2  19  -7    4.89    0.46
  -2  19   7    6.12    0.44
   2  19  -7    6.03    0.36
   2  19  -7    5.87    0.50
   1  19  -7    0.49    0.18
   1  19  -7    0.82    0.29
  -1  19   7    0.81    0.21
   0  19  -7    3.47    0.42
   0  19  -7    3.71    0.35
   0  19   7    4.36    0.33
  -1 -19  -7    0.79    0.18
   1  19   7    0.47    0.19
  -1  19  -7    0.50    0.26
  -1  19  -7    0.44    0.16
  -2  19  -7    0.40    0.14
  -2  19  -7    0.34    0.23
   2  19   7    0.91    0.25
   3  20  -7    1.77    0.27
   3  20  -7    1.31    0.18
   2 -20  -7    0.06    0.17
  -2  20   7    0.22    0.26
   2  20  -7    0.06    0.14
   1  20  -7   10.82    0.69
  -1  20   7   10.60    0.58
   1  20  -7    9.57    0.57
   0  20   7    1.61    0.28
   0  20  -7    1.01    0.29
  -1 -20  -7    3.92    0.36
  -1  20  -7    2.76    0.41
  -1  20  -7    3.24    0.35
   1  20   7    3.89    0.32
  -2 -20  -7    0.94    0.15
  -2  20  -7    1.35    0.21
   3  21  -7    1.06    0.16
   2 -21  -7    0.33    0.17
   2  21  -7    0.35    0.15
  -1  21   7    0.41    0.21
   0  21   7    0.38    0.20
  -6   0   8    3.04    0.33
   6   0  -8    3.49    0.44
  -6   0   8    3.34    0.29
  -5   0   8    2.77    0.35
  -5   0   8    2.82    0.40
   5   0  -8    3.13    0.39
  -4   0   8    6.63    0.44
   4   0  -8    5.77    0.47
   3   0  -8   22.46    1.30
   3   0  -8   25.07    1.22
   3   0  -8   25.16    1.22
   2   0  -8    0.25    0.16
   2   0  -8    0.04    0.22
   2   0  -8   -0.10    0.46
   1   0  -8   14.49    0.70
   1   0  -8   10.81    1.20
   1   0  -8   13.56    0.77
   1   0  -8   13.63    0.73
   0   0  -8   18.94    0.98
   0   0  -8   20.06    0.94
   0   0  -8   18.24    1.08
  -1   0  -8    1.74    0.37
  -1   0  -8    2.48    0.56
  -2   0  -8   27.25    1.38
  -2   0  -8   26.34    1.29
  -3   0  -8    4.97    0.35
  -3   0  -8    5.08    0.55
   3   0   8    4.34    0.45
  -4   0  -8    1.82    0.41
   6  -1  -8    0.17    0.32
  -6  -1   8    0.14    0.17
  -6  -1   8    0.13    0.20
   6   1  -8    0.08    0.26
  -6   1   8   -0.15    0.16
  -6   1   8    0.24    0.22
   5  -1  -8    3.23    0.39
  -5  -1   8    3.85    0.38
  -5  -1   8    3.24    0.41
   5   1  -8    3.80    0.41
  -5   1   8    3.63    0.46
  -5   1   8    3.99    0.36
   4  -1  -8    0.22    0.22
  -4  -1   8    0.23    0.21
   4   1  -8   -0.09    0.22
  -4   1   8    0.30    0.18
   3  -1  -8    0.07    0.26
   3  -1  -8    0.49    0.42
   3  -1  -8   -0.03    0.23
   3   1  -8    0.53    0.23
   3   1  -8   -0.16    0.22
   3   1  -8   -0.34    0.33
   2  -1  -8    3.67    0.37
   2  -1  -8    2.59    0.32
   2   1  -8    3.85    0.39
   2   1  -8    3.66    0.59
   2   1  -8    3.39    0.31
   1  -1  -8    8.47    0.55
   1  -1  -8    8.54    0.47
   1  -1  -8    8.06    0.52
   1   1  -8    7.85    0.50
   1   1  -8    9.01    0.60
   1   1  -8    8.49    0.47
   1   1  -8    7.05    0.73
   0  -1  -8    8.53    0.46
   0  -1  -8    7.38    0.61
   0  -1  -8    7.70    0.53
   0   1  -8    8.01    0.52
   0   1  -8    8.10    0.68
   0   1  -8    8.68    0.46
  -1  -1  -8   60.67    3.10
  -1  -1  -8   68.88    3.08
  -1   1  -8   65.19    3.14
  -1   1  -8   65.94    3.10
  -1   1  -8   69.14    3.08
  -2  -1  -8    4.68    0.32
  -2   1  -8    4.16    0.45
  -2   1  -8    4.72    0.33
  -2   1  -8    4.17    0.46
  -3  -1  -8   -0.14    0.14
  -3   1  -8   -0.12    0.29
  -3   1  -8    0.28    0.16
   3   1   8   -0.02    0.25
  -4   1  -8    0.32    0.23
  -6  -2   8   10.00    0.58
  -6  -2   8   11.74    0.60
   6   2  -8   10.76    0.63
  -6   2   8    9.62    0.60
  -6   2   8   10.94    0.57
   5  -2  -8    1.72    0.38
  -5  -2   8    2.02    0.35
  -5   2   8    2.29    0.31
   5   2  -8    1.93    0.36
  -4  -2   8    0.02    0.20
   4  -2  -8    0.78    0.26
   4   2  -8    0.04    0.22
   4   2  -8    0.67    0.32
  -4   2   8    0.27    0.19
   3  -2  -8   24.79    1.34
   3  -2  -8   28.31    1.33
   3   2  -8   27.31    1.32
   3   2  -8   26.54    1.32
  -3   2   8   25.30    1.30
   2  -2  -8    7.58    0.49
   2  -2  -8    7.22    0.51
   2   2  -8    8.25    0.53
   2   2  -8    9.06    0.66
   2   2  -8    7.82    0.47
   1  -2  -8   15.47    0.82
   1  -2  -8   15.47    0.77
   1   2  -8   15.36    0.80
   1   2  -8   15.25    0.92
   1   2  -8   15.45    0.78
   1   2  -8   14.63    0.86
   0  -2  -8    1.76    0.31
   0  -2  -8    1.87    0.22
   0  -2  -8    1.54    0.43
   0   2  -8    1.12    0.30
   0   2  -8    2.14    0.22
   0   2  -8    1.75    0.36
  -1  -2  -8    0.56    0.13
  -1   2  -8    1.10    0.30
  -1   2  -8    0.68    0.34
  -1   2  -8    0.63    0.14
  -2  -2  -8   12.78    0.65
  -2   2  -8   12.42    0.66
   2   2   8   13.06    0.79
  -2   2  -8   11.64    0.71
  -2   2  -8   12.58    0.75
  -3  -2  -8    3.37    0.28
   3   2   8    2.71    0.36
  -3   2  -8    2.61    0.43
  -4   2  -8    2.82    0.36
  -6  -3   8    0.22    0.20
  -6  -3   8    0.17    0.19
  -6   3   8   -0.11    0.15
   6   3  -8    0.22    0.25
   5  -3  -8    9.26    0.57
  -5  -3   8    8.15    0.52
  -5   3   8    6.34    0.57
   5   3  -8    7.61    0.51
  -5   3   8    7.54    0.48
  -4  -3   8   11.07    0.63
   4  -3  -8   10.32    0.64
   4   3  -8   10.36    0.67
  -4   3   8   10.76    0.60
   4   3  -8   10.00    0.63
   3  -3  -8    0.24    0.23
   3   3  -8    0.14    0.31
  -3   3   8    0.32    0.19
   3   3  -8    0.44    0.22
   3   3  -8    0.22    0.21
   2  -3  -8    0.38    0.19
   2  -3  -8    0.18    0.19
   2   3  -8    0.06    0.19
   2   3  -8    0.40    0.33
   2   3  -8    0.38    0.25
   2   3  -8    0.18    0.15
   1  -3  -8    4.63    0.33
   1  -3  -8    4.83    0.41
   1   3  -8    4.71    0.33
   1   3  -8    5.73    0.53
   1   3  -8    4.06    0.36
   1   3  -8    3.97    0.50
   0  -3  -8   11.60    0.62
   0  -3  -8   12.01    0.72
   0  -3  -8   10.73    0.72
   0   3  -8   11.53    0.66
   0   3  -8   11.70    0.62
   0   3  -8   13.51    0.74
  -1  -3  -8   20.94    1.03
  -1   3  -8   21.39    1.04
  -1   3  -8   21.12    1.13
  -1   3  -8   21.05    1.05
  -2  -3  -8   11.10    0.57
  -2   3  -8   10.68    0.63
  -2   3  -8   11.00    0.59
   2   3   8   10.46    0.64
  -2   3  -8   10.78    0.67
  -3  -3  -8    0.99    0.23
  -3   3  -8    1.16    0.29
  -3   3  -8    1.06    0.27
   3   3   8    0.79    0.24
  -4   3  -8    6.03    0.42
  -5   3  -8    1.13    0.29
  -6  -4   8    2.79    0.30
  -6   4   8    2.84    0.26
   6   4  -8    2.65    0.35
  -5   4   8    0.10    0.19
   5   4  -8    0.14    0.22
  -4  -4   8    0.08    0.22
   4  -4  -8    0.66    0.26
   4   4  -8    0.26    0.23
   4   4  -8    0.42    0.27
  -4   4   8    0.26    0.20
   3  -4  -8    0.24    0.22
  -3   4   8    0.40    0.20
   3   4  -8    0.27    0.19
   3   4  -8   -0.05    0.29
   3   4  -8    0.38    0.22
   2  -4  -8    0.08    0.18
   2  -4  -8   -0.04    0.20
   2   4  -8    0.54    0.34
   2   4  -8   -0.15    0.15
   2   4  -8   -0.03    0.19
   2   4  -8   -0.01    0.23
   1  -4  -8   37.51    1.82
   1  -4  -8   37.06    1.79
   1   4  -8   37.94    1.85
   1   4  -8   36.89    1.86
   1   4  -8   38.62    1.81
   1   4  -8   38.09    1.79
   0  -4  -8   13.93    0.70
   0   4  -8   14.41    0.71
   0   4  -8   13.50    0.73
   0   4  -8   13.04    0.80
  -1   4  -8   -0.16    0.17
  -1   4  -8    0.16    0.13
  -1   4  -8   -0.23    0.28
  -2  -4  -8    2.10    0.23
  -2   4  -8    1.56    0.31
   2   4   8    1.97    0.36
  -2   4  -8    1.71    0.33
  -2   4  -8    2.47    0.28
  -3  -4  -8    0.94    0.21
  -3   4  -8    1.34    0.27
   3   4   8    0.62    0.22
  -3   4  -8    1.48    0.34
  -4  -4  -8    0.07    0.15
   4   4   8    0.22    0.25
  -4   4  -8    0.33    0.18
  -5   4  -8    0.57    0.22
  -6  -5   8    6.35    0.41
   6   5  -8    5.75    0.44
  -6   5   8    6.42    0.37
  -5  -5   8    2.95    0.37
   5  -5  -8    2.83    0.42
  -5   5   8    3.62    0.45
  -4  -5   8   23.38    1.15
   4  -5  -8   22.68    1.16
   4   5  -8   21.73    1.14
   4   5  -8   23.39    1.22
  -4   5   8   22.12    1.13
   4   5  -8   21.67    1.14
   3  -5  -8    9.42    0.58
  -3   5   8    8.62    0.55
   3   5  -8    9.33    0.55
   3   5  -8    9.10    0.58
   3   5  -8    9.74    0.69
   2  -5  -8   41.72    2.01
   2  -5  -8   41.15    2.00
  -2   5   8   40.21    2.01
   2   5  -8   42.04    2.06
   2   5  -8   43.99    2.03
   2   5  -8   42.17    1.99
   2   5  -8   42.66    2.01
   1  -5  -8    1.19    0.24
   1   5  -8    1.12    0.23
   1   5  -8    2.16    0.41
   1   5  -8    1.07    0.27
   1   5  -8    1.98    0.45
   0  -5  -8   10.94    0.59
   0   5  -8   11.62    0.61
   0   5  -8   11.44    0.69
   0   5  -8   11.00    0.62
  -1  -5  -8   36.29    1.71
   1   5   8   36.40    1.75
  -1   5  -8   35.25    1.91
  -2  -5  -8    4.66    0.32
   2   5   8    5.63    0.43
  -2   5  -8    4.70    0.38
  -2   5  -8    4.58    0.38
  -2   5  -8    4.75    0.42
  -3  -5  -8   15.09    0.72
   3   5   8   12.91    0.75
  -3   5  -8   13.89    0.79
  -3   5  -8   14.22    0.76
  -4  -5  -8    7.90    0.45
   4   5   8    8.34    0.52
  -4   5  -8    8.46    0.50
  -5   5  -8    0.85    0.28
  -6  -6   8    0.08    0.17
   6   6  -8    0.17    0.21
  -6   6   8    0.16    0.13
   5  -6  -8    0.52    0.28
  -5  -6   8    0.65    0.24
  -5   6   8    0.75    0.17
   5   6  -8    0.90    0.22
  -4  -6   8    0.74    0.25
   4  -6  -8    1.18    0.28
  -4   6   8    0.79    0.21
   4   6  -8    0.66    0.23
   4   6  -8    1.02    0.33
   4   6  -8    0.63    0.24
   3  -6  -8   21.28    1.08
   3   6  -8   20.87    1.08
   3   6  -8   20.28    1.06
   3   6  -8   22.47    1.16
  -3   6   8   20.40    1.06
   2  -6  -8   -0.18    0.21
   2   6  -8    0.53    0.31
   2   6  -8    0.25    0.26
  -2   6   8    0.20    0.24
   1  -6  -8   21.87    1.06
  -1   6   8   19.65    1.15
   1   6  -8   23.23    1.09
   1   6  -8   22.18    1.07
   1   6  -8   21.28    1.14
   1   6  -8   21.05    1.14
   0  -6  -8    0.90    0.21
   0   6  -8    1.14    0.26
   0   6  -8    1.39    0.35
   0   6  -8    0.95    0.23
  -1  -6  -8    0.09    0.12
   1   6   8    0.32    0.25
  -1   6  -8    0.10    0.25
  -1   6  -8    0.25    0.19
  -1   6  -8    0.25    0.16
  -2  -6  -8    0.49    0.13
  -2   6  -8    0.38    0.20
  -2   6  -8    0.24    0.22
   2   6   8    0.31    0.25
  -2   6  -8    0.58    0.22
  -3  -6  -8   28.30    1.33
  -3   6  -8   28.98    1.35
  -3   6  -8   28.44    1.38
   3   6   8   24.89    1.35
  -4  -6  -8    0.22    0.13
   4   6   8    0.04    0.23
  -4   6  -8   -0.01    0.17
  -4   6  -8   -0.48    0.21
  -5   6  -8    6.52    0.40
  -6  -7   8    0.12    0.17
   6   7  -8    0.13    0.21
  -6   7   8    0.08    0.12
  -5  -7   8    0.96    0.26
   5  -7  -8    1.04    0.30
   5   7  -8    0.86    0.21
   5   7  -8    0.87    0.28
  -5   7   8    1.19    0.23
   4  -7  -8   36.21    1.70
  -4  -7   8   34.09    1.68
   4   7  -8   34.66    1.68
   4   7  -8   34.96    1.67
  -4   7   8   32.83    1.66
   4   7  -8   34.49    1.75
   3  -7  -8   19.10    0.99
   3   7  -8   19.74    0.99
   3   7  -8   18.33    1.06
  -3   7   8   18.72    0.98
   3   7  -8   18.46    0.96
   2  -7  -8   56.01    2.60
   2  -7  -8   51.63    2.58
   2   7  -8   56.78    2.61
   2   7  -8   51.53    2.64
   2   7  -8   55.32    2.58
   2   7  -8   57.06    2.60
   1  -7  -8   33.74    1.64
   1   7  -8   34.23    1.65
   1   7  -8   35.61    1.67
   1   7  -8   34.63    1.71
   1   7  -8   33.76    1.70
   0  -7  -8    9.58    0.52
   0   7   8    9.22    0.72
   0   7  -8    9.73    0.62
   0   7  -8    9.07    0.58
  -1  -7  -8   19.88    0.99
  -1   7  -8   20.34    1.02
  -1   7  -8   20.40    1.06
  -1   7  -8   19.88    1.01
   1   7   8   19.88    1.03
  -2  -7  -8   20.05    0.95
  -2   7  -8   19.90    1.01
  -2   7  -8   19.63    0.97
   2   7   8   16.71    1.05
  -3  -7  -8   29.25    1.36
  -3   7  -8   29.99    1.41
   3   7   8   25.08    1.38
  -3   7  -8   28.72    1.38
  -4  -7  -8   13.79    0.70
   4   7   8   15.02    0.77
  -4   7  -8   14.64    0.75
  -4   7  -8   13.27    0.73
  -6  -8   8   -0.12    0.15
   6   8  -8    0.02    0.17
  -6   8   8   -0.03    0.12
   5  -8  -8    1.07    0.33
  -5  -8   8    0.88    0.29
   5   8  -8    0.43    0.24
  -5   8   8    0.83    0.21
   5   8  -8    0.88    0.26
  -4  -8   8    3.19    0.42
   4  -8  -8    3.92    0.43
   4   8  -8    3.83    0.35
   4   8  -8    2.74    0.49
  -4   8   8    3.09    0.37
   4   8  -8    2.41    0.35
   3  -8  -8    3.27    0.37
   3   8  -8    3.25    0.50
   3   8  -8    3.91    0.39
  -3   8   8    2.97    0.40
   3   8  -8    2.56    0.32
   2  -8  -8    6.71    0.48
   2   8  -8    6.25    0.42
   2   8  -8    6.32    0.51
   2   8  -8    6.30    0.47
   2   8  -8    7.22    0.58
  -2   8   8    6.13    0.52
   1  -8  -8   18.20    0.93
   1   8  -8   17.94    1.05
   1   8  -8   18.26    0.96
   1   8  -8   18.59    0.93
   1   8  -8   19.15    1.01
   0  -8  -8    3.67    0.31
   0   8   8    3.65    0.43
   0   8  -8    3.91    0.40
   0   8  -8    4.31    0.36
   0   8  -8    3.98    0.33
  -1  -8  -8    1.55    0.22
  -1   8  -8    1.83    0.32
   1   8   8    2.31    0.33
  -1   8  -8    1.88    0.29
  -1   8  -8    1.72    0.33
  -2  -8  -8    3.18    0.27
  -2   8  -8    3.41    0.39
  -2   8  -8    3.47    0.33
   2   8   8    2.90    0.34
  -3  -8  -8    1.52    0.20
   3   8   8    0.96    0.29
  -3   8  -8    1.66    0.28
  -3   8  -8    1.65    0.31
  -4  -8  -8    0.34    0.13
  -4   8  -8    0.56    0.18
  -4   8  -8    0.46    0.17
   4   8   8    0.59    0.24
   6   9  -8    0.02    0.16
  -6   9   8    0.00    0.16
   5  -9  -8    0.27    0.33
   5   9  -8    0.28    0.21
  -5   9   8    0.19    0.15
   5   9  -8    0.18    0.18
   4  -9  -8    2.17    0.39
  -4  -9   8    1.78    0.41
   4   9  -8    2.05    0.31
  -4   9   8    2.21    0.31
   4   9  -8    1.98    0.32
   4   9  -8    1.79    0.45
   3  -9  -8    2.21    0.36
   3   9  -8    2.94    0.30
   3   9  -8    2.64    0.48
  -3   9   8    2.41    0.37
   3   9  -8    2.37    0.36
   2   9  -8   23.25    1.20
  -2   9   8   21.17    1.19
   2   9  -8   23.29    1.12
   2   9  -8   21.65    1.14
   2   9  -8   22.67    1.15
   1  -9  -8   11.22    0.63
   1   9  -8   12.02    0.63
   1   9  -8   11.95    0.71
  -1   9   8   10.54    0.72
   1   9  -8   11.05    0.65
   0  -9  -8    9.26    0.54
   0   9   8    9.89    0.62
   0   9  -8   10.45    0.63
   0   9  -8   10.35    0.57
   0   9  -8    9.19    0.58
  -1  -9  -8    7.34    0.42
  -1   9  -8    7.13    0.50
   1   9   8    7.27    0.49
  -1   9  -8    6.70    0.49
  -1   9  -8    6.99    0.46
  -2  -9  -8    6.02    0.39
  -2   9  -8    7.48    0.44
  -2   9  -8    7.76    0.50
   2   9   8    5.21    0.43
  -3  -9  -8   22.01    1.05
  -3   9  -8   21.36    1.07
   3   9   8   21.36    1.08
  -4  -9  -8   12.29    0.61
  -4   9  -8   11.82    0.63
   4   9   8   11.83    0.67
  -4   9  -8   12.72    0.65
  -6 -10   8    0.15    0.15
  -6  10   8    0.18    0.11
   6  10  -8    0.18    0.16
   5  10  -8    0.51    0.19
  -5  10   8    0.41    0.16
   5  10  -8    1.07    0.27
   4 -10  -8    1.32    0.30
   4  10  -8    1.30    0.43
  -4  10   8    0.69    0.21
   4  10  -8    1.07    0.28
   4  10  -8    1.16    0.29
   3 -10  -8    0.18    0.22
  -3  10   8    0.76    0.28
   3  10  -8    0.50    0.31
   3  10  -8    0.80    0.25
   3  10  -8    0.35    0.18
   2  10  -8   -0.24    0.22
   2  10  -8    0.26    0.25
  -2  10   8    0.42    0.33
   2  10  -8   -0.06    0.27
   2  10  -8    0.20    0.17
   1 -10  -8    0.41    0.18
   1  10  -8    0.26    0.21
   1  10  -8    0.42    0.17
   1  10  -8    0.43    0.38
  -1  10   8    0.31    0.30
   1  10  -8    0.20    0.25
   0 -10  -8    0.35    0.16
   0  10   8    0.68    0.27
   0  10  -8    0.35    0.18
   0  10  -8    0.45    0.25
   0  10  -8    0.51    0.19
  -1 -10  -8    0.82    0.20
  -1  10  -8    0.47    0.23
  -1  10  -8    0.77    0.24
  -1  10  -8    0.36    0.18
  -2 -10  -8   49.25    2.27
  -2  10  -8   50.12    2.29
  -2  10  -8   50.21    2.32
   2  10   8   43.30    2.28
  -3 -10  -8    1.03    0.17
   3  10   8    0.74    0.21
  -3  10  -8    0.80    0.26
  -3  10  -8    1.29    0.22
  -4 -10  -8    2.06    0.20
   4  10   8    2.00    0.32
  -4  10  -8    1.51    0.22
  -4  10  -8    2.02    0.23
   5  11  -8    2.83    0.29
  -5  11   8    2.97    0.26
   5  11  -8    2.62    0.28
   4 -11  -8    2.90    0.41
  -4 -11   8    2.05    0.45
   4  11  -8    3.43    0.45
   4  11  -8    3.09    0.61
  -4  11   8    3.06    0.31
   3 -11  -8   -0.12    0.22
   3  11  -8    0.09    0.18
  -3  11   8    0.38    0.25
   3  11  -8    0.25    0.32
   3  11  -8    0.15    0.22
   2  11  -8    1.04    0.20
   2  11  -8    1.20    0.38
  -2  11   8    0.86    0.41
   2  11  -8    0.92    0.26
   2  11  -8    1.64    0.37
   1 -11  -8    7.80    0.51
   1  11  -8    8.67    0.53
   1  11  -8    8.32    0.70
  -1  11   8    8.43    0.57
   1  11  -8    7.89    0.58
   1  11  -8    7.54    0.50
   0 -11  -8    3.85    0.32
   0  11  -8    4.07    0.37
   0  11  -8    4.43    0.43
   0  11  -8    4.07    0.37
   0  11   8    3.99    0.40
  -1 -11  -8    4.40    0.32
  -1  11  -8    4.14    0.36
   1  11   8    4.30    0.36
  -1  11  -8    4.62    0.45
  -1  11  -8    4.21    0.41
  -2 -11  -8   32.82    1.51
   2  11   8   29.26    1.53
  -2  11  -8   32.24    1.53
  -2  11  -8   31.95    1.56
  -3 -11  -8    2.95    0.23
  -3  11  -8    3.45    0.31
  -3  11  -8    2.83    0.26
   3  11   8    3.13    0.31
  -4 -11  -8    1.99    0.19
  -4  11  -8    2.40    0.23
   5  12  -8    0.78    0.21
   5  12  -8    1.21    0.23
  -5  12   8    1.11    0.22
   4 -12  -8    9.34    0.62
   4  12  -8    9.47    0.51
  -4  12   8    9.27    0.54
   4  12  -8    9.31    0.56
   3 -12  -8    5.63    0.46
  -3  12   8    6.10    0.48
   3  12  -8    5.68    0.46
   3  12  -8    6.02    0.41
   3  12  -8    6.24    0.53
   2  12  -8    0.55    0.27
   2  12  -8    0.59    0.28
   2  12  -8    1.06    0.25
   2  12  -8    0.68    0.25
  -2  12   8    0.70    0.33
   1 -12  -8    0.18    0.20
   1  12  -8    0.32    0.20
   1  12  -8   -0.11    0.18
   1  12  -8    0.47    0.29
   0 -12  -8    5.46    0.37
   0  12  -8    6.12    0.41
   0  12  -8    5.30    0.48
   0  12   8    4.59    0.38
   0  12  -8    5.37    0.42
  -1 -12  -8   11.46    0.59
   1  12   8    9.46    0.61
  -1  12  -8   11.44    0.66
  -1  12  -8   10.71    0.68
  -1  12  -8   11.23    0.62
  -2 -12  -8   18.85    0.90
  -2  12  -8   17.98    0.95
   2  12   8   16.74    0.92
  -2  12  -8   18.66    0.92
  -3 -12  -8    0.61    0.15
  -3  12  -8    0.54    0.17
   3  12   8    0.76    0.21
  -3  12  -8    0.79    0.19
  -4 -12  -8    0.76    0.15
  -4  12  -8    0.70    0.14
  -5  13   8    0.22    0.16
   5  13  -8    0.28    0.14
   4 -13  -8   -0.12    0.25
   4  13  -8   -0.03    0.18
   4  13  -8    0.02    0.14
  -4  13   8    0.15    0.20
   3 -13  -8    2.25    0.34
  -3  13   8    2.13    0.39
   3  13  -8    1.52    0.32
   3  13  -8    2.24    0.41
   3  13  -8    1.29    0.26
   2  13  -8    6.99    0.55
   2  13  -8    7.28    0.49
  -2  13   8    6.25    0.54
   2  13  -8    7.25    0.53
   2  13  -8    6.51    0.45
   1 -13  -8    3.04    0.36
   1  13  -8    2.87    0.44
  -1  13   8    2.18    0.35
   1  13  -8    2.45    0.30
   1  13  -8    3.18    0.34
   0 -13  -8    0.08    0.15
   0  13  -8    0.11    0.24
   0  13  -8    0.26    0.22
   0  13  -8    0.06    0.18
   0  13   8    0.30    0.19
  -1 -13  -8    0.11    0.14
  -1  13  -8    0.44    0.20
  -1  13  -8    0.27    0.22
   1  13   8    0.28    0.20
  -2 -13  -8    2.70    0.25
  -2  13  -8    2.91    0.36
   2  13   8    2.57    0.31
  -2  13  -8    2.62    0.28
  -3 -13  -8    7.28    0.37
  -3  13  -8    6.47    0.42
   3  13   8    7.06    0.44
  -3  13  -8    6.33    0.39
  -4 -13  -8    0.56    0.15
  -4  13  -8    0.66    0.17
  -4  13  -8    0.85    0.19
  -5 -14   8    1.27    0.35
   5  14  -8    0.90    0.19
   5  14  -8    0.72    0.19
  -5  14   8    1.01    0.22
   4 -14  -8    0.16    0.26
   4  14  -8   -0.12    0.16
   4  14  -8    0.04    0.13
  -4  14   8    0.13    0.21
   3 -14  -8    1.57    0.32
   3  14  -8    1.09    0.31
   3  14  -8    0.82    0.39
   2  14  -8    0.64    0.30
  -2  14   8    0.52    0.28
   2  14  -8    0.79    0.29
   2  14  -8    0.55    0.26
   2  14  -8    0.57    0.18
   1 -14  -8    5.46    0.41
  -1  14   8    4.99    0.42
   1  14  -8    4.53    0.48
   1  14  -8    5.46    0.41
   1  14  -8    4.62    0.38
   0 -14  -8   12.09    0.65
   0  14   8   10.63    0.65
   0  14  -8   12.72    0.69
   0  14  -8   12.76    0.68
   0  14  -8   12.75    0.73
  -1 -14  -8    3.51    0.28
  -1  14  -8    4.23    0.34
  -1  14  -8    3.54    0.39
   1  14   8    2.83    0.32
  -2 -14  -8   11.16    0.56
  -2  14  -8   11.17    0.62
   2  14   8   10.13    0.60
  -2  14  -8   10.88    0.58
  -3 -14  -8    0.01    0.09
  -3  14  -8   -0.08    0.12
   3  14   8    0.72    0.23
  -3  14  -8    0.04    0.15
  -5 -15   8    0.13    0.16
   5  15  -8    0.00    0.12
   5  15  -8    0.02    0.13
   4 -15  -8   16.68    1.03
   4  15  -8   16.87    0.84
   4  15  -8   16.72    0.82
   3 -15  -8    2.27    0.33
   3  15  -8    2.12    0.37
   3  15  -8    2.48    0.24
   3  15  -8    2.02    0.30
   2  15  -8   -0.04    0.16
  -2  15   8    0.63    0.27
   2  15  -8    0.35    0.28
   2  15  -8    0.20    0.27
   1  15  -8    9.10    0.52
  -1  15   8    7.56    0.55
   1  15  -8    9.32    0.61
   1  15  -8    8.43    0.54
   0 -15  -8   21.98    1.05
   0  15   8   18.59    1.07
   0  15  -8   23.29    1.13
   0  15  -8   22.01    1.08
  -1 -15  -8    0.75    0.18
  -1  15  -8    0.65    0.17
   1  15   8    0.86    0.20
  -1  15  -8    0.95    0.30
  -2 -15  -8    0.33    0.10
   2  15   8    0.47    0.23
  -2  15  -8    0.23    0.18
  -2  15  -8    0.36    0.14
  -3 -15  -8    6.57    0.35
  -3  15  -8    6.43    0.36
  -3  15  -8    6.31    0.40
   3  15   8    6.75    0.47
   4  16  -8    2.30    0.20
   4  16  -8    1.85    0.24
   3 -16  -8   28.19    1.39
   3  16  -8   28.50    1.39
   3  16  -8   29.58    1.42
   3  16  -8   27.99    1.37
   2  16  -8    2.38    0.26
   2  16  -8    2.41    0.41
   2  16  -8    2.37    0.39
  -2  16   8    2.74    0.39
   1  16  -8    3.04    0.32
   1  16  -8    4.09    0.30
  -1  16   8    2.98    0.35
   1  16  -8    2.70    0.57
   0 -16  -8   10.99    0.57
   0  16  -8   10.62    0.62
   0  16  -8   10.99    0.66
   0  16   8   10.65    0.61
   0  16  -8   10.76    0.59
  -1 -16  -8    6.04    0.34
  -1  16  -8    5.44    0.42
   1  16   8    5.21    0.38
  -1  16  -8    5.55    0.36
  -2 -16  -8    2.89    0.20
  -2  16  -8    2.53    0.23
   2  16   8    2.31    0.30
  -2  16  -8    2.71    0.30
  -3 -16  -8    0.79    0.18
  -3  16  -8    0.63    0.17
  -3  16  -8    0.32    0.16
   4  17  -8   12.90    0.64
   3 -17  -8   16.13    0.82
   3  17  -8   16.17    0.85
   3  17  -8   15.37    0.79
   3  17  -8   15.98    0.81
   2 -17  -8    7.42    0.48
   2  17  -8    7.91    0.43
   2  17  -8    7.49    0.54
   2  17  -8    6.98    0.51
  -2  17   8    7.64    0.55
   1  17  -8   21.26    0.99
   1  17  -8   20.04    1.04
   1  17  -8   19.02    1.00
  -1  17   8   19.46    1.01
   0 -17  -8    7.94    0.46
   0  17  -8    8.45    0.59
   0  17   8    8.15    0.50
   0  17  -8    8.86    0.55
   0  17  -8    7.81    0.47
  -1 -17  -8    1.91    0.20
   1  17   8    2.01    0.28
  -1  17  -8    1.51    0.30
  -1  17  -8    2.35    0.24
  -2 -17  -8    1.69    0.16
  -2  17  -8    1.94    0.27
   2  17   8    1.42    0.27
  -2  17  -8    1.86    0.20
   4  18  -8    1.64    0.17
   4  18  -8    2.08    0.21
   3  18  -8   13.36    0.71
   3  18  -8   13.86    0.68
   2 -18  -8   10.81    0.58
   2  18  -8   10.08    0.63
   2  18  -8   11.25    0.56
  -2  18   8   10.39    0.67
   1  18  -8    1.33    0.32
  -1  18   8    1.36    0.31
   1  18  -8    0.72    0.25
   1  18  -8    1.03    0.25
   0 -18  -8    0.04    0.16
   0  18  -8    0.10    0.22
   0  18   8    0.59    0.22
   0  18  -8    0.29    0.17
  -1 -18  -8    0.02    0.10
   1  18   8    0.36    0.21
  -1  18  -8    0.18    0.13
  -1  18  -8    0.59    0.22
  -2 -18  -8    0.73    0.14
  -2  18  -8    0.93    0.26
  -2  18  -8    1.22    0.27
   3 -19  -8    2.14    0.35
   3  19  -8    2.30    0.31
   3  19  -8    2.31    0.26
   2 -19  -8    0.31    0.17
   2  19  -8    0.29    0.13
   2  19  -8    0.42    0.24
  -2  19   8    0.76    0.44
   1  19  -8    3.47    0.41
  -1  19   8    3.57    0.38
   1  19  -8    2.52    0.30
   0  19  -8    3.92    0.36
   0  19   8    4.29    0.37
   0  19  -8    4.06    0.34
  -1 -19  -8    5.53    0.34
  -1  19  -8    5.60    0.50
   1  19   8    6.28    0.42
  -2 -19  -8    0.12    0.09
  -2  19  -8    0.11    0.23
  -2  19  -8    0.05    0.11
   3  20  -8    1.71    0.18
   2 -20  -8    0.11    0.15
   2  20  -8    0.26    0.14
   1  20  -8    0.40    0.27
   0  20  -8    0.28    0.25
  -1 -20  -8   -0.02    0.17
  -1  20  -8    0.19    0.17
  -1  20  -8    0.27    0.26
   2 -21  -8    1.24    0.26
   1 -21  -8    6.49    0.37
  -6   0   9    0.24    0.23
   6   0  -9    0.29    0.26
  -6   0   9    0.19    0.15
  -5   0   9    0.15    0.17
  -5   0   9    0.45    0.27
   5   0  -9    0.03    0.21
   4   0  -9    0.01    0.21
  -4   0   9    0.36    0.20
   3   0  -9   -0.17    0.21
   3   0  -9   -0.61    0.38
   3   0  -9    0.07    0.21
   2   0  -9    0.59    0.48
   2   0  -9   -0.08    0.15
   2   0  -9   -0.24    0.22
   1   0  -9   -0.03    0.19
   1   0  -9    0.31    0.25
   0   0  -9   -0.13    0.11
   0   0  -9    0.27    0.19
   0   0  -9    0.21    0.40
  -1   0  -9    0.05    0.12
  -1   0  -9    0.09    0.24
  -2   0  -9    0.18    0.13
  -3   0  -9    0.00    0.13
   6  -1  -9    9.13    0.61
  -6  -1   9    9.53    0.57
  -6  -1   9    9.95    0.53
  -6   1   9   10.70    0.53
   6   1  -9    9.98    0.57
  -5  -1   9   15.08    0.82
   5  -1  -9   14.99    0.80
  -5  -1   9   15.99    0.78
  -5   1   9   13.04    0.83
  -5   1   9   14.81    0.77
   5   1  -9   15.30    0.80
   4  -1  -9    4.72    0.43
  -4  -1   9    6.09    0.41
   4   1  -9    4.31    0.42
  -4   1   9    5.52    0.40
   3  -1  -9    5.36    0.42
   3  -1  -9    4.96    0.45
   3   1  -9    5.34    0.43
   3   1  -9    5.50    0.42
   3   1  -9    3.44    0.60
  -3   1   9    5.04    0.41
   2  -1  -9   23.10    1.11
   2  -1  -9   22.87    1.14
   2   1  -9   21.76    1.10
   2   1  -9   22.71    1.14
   2   1  -9   21.19    1.25
   1  -1  -9   11.24    0.64
   1   1  -9    9.42    0.66
   1   1  -9   11.00    0.59
   1   1  -9    9.06    0.80
   0  -1  -9    1.45    0.21
   0  -1  -9    1.78    0.47
   0   1  -9    1.54    0.21
   0   1  -9    1.54    0.45
   0   1  -9    1.33    0.27
  -1  -1  -9  110.70    5.05
  -1  -1  -9  103.79    5.06
  -1   1  -9  108.81    5.05
  -1   1  -9  111.29    5.11
  -1   1  -9  109.85    5.06
  -2  -1  -9   24.35    1.18
  -2   1  -9   23.84    1.18
  -2   1  -9   24.93    1.27
  -2   1  -9   24.00    1.23
  -3  -1  -9    1.50    0.20
  -3   1  -9    1.67    0.44
  -3   1  -9    1.33    0.24
   6  -2  -9    1.24    0.42
  -6  -2   9    1.63    0.37
  -6   2   9    1.66    0.23
   6   2  -9    1.88    0.36
  -5  -2   9    0.55    0.19
  -5  -2   9    0.30    0.25
   5  -2  -9    0.64    0.24
  -5   2   9    0.37    0.17
   5   2  -9    0.58    0.21
  -5   2   9    0.01    0.45
   4  -2  -9    1.36    0.32
  -4  -2   9    1.55    0.31
   4   2  -9    1.97    0.32
   4   2  -9    1.07    0.30
  -4   2   9    0.93    0.21
   3  -2  -9    0.09    0.25
   3  -2  -9    0.08    0.22
   3   2  -9    0.24    0.20
   3   2  -9    0.13    0.21
  -3   2   9   -0.21    0.18
   3   2  -9    0.34    0.34
   2  -2  -9    0.69    0.18
   2  -2  -9    0.71    0.22
   2   2  -9    0.96    0.24
   2   2  -9    1.03    0.26
   1  -2  -9    3.56    0.42
   1   2  -9    3.17    0.48
   1   2  -9    3.32    0.28
   1   2  -9    3.05    0.45
   0  -2  -9    0.12    0.12
   0  -2  -9    0.01    0.26
   0  -2  -9   -0.22    0.30
   0   2  -9   -0.04    0.11
   0   2  -9   -0.13    0.35
   0   2  -9   -0.10    0.23
  -1  -2  -9    4.68    0.33
  -1   2  -9    5.59    0.41
  -1   2  -9    5.77    0.53
  -1   2  -9    5.04    0.34
  -2  -2  -9   22.78    1.09
  -2   2  -9   22.28    1.13
  -2   2  -9   21.45    1.17
  -2   2  -9   22.32    1.09
  -3  -2  -9   15.45    0.78
  -3   2  -9   15.95    0.87
  -6  -3   9    1.87    0.29
   6   3  -9    1.93    0.32
  -6   3   9    1.68    0.23
   5  -3  -9    0.91    0.24
  -5  -3   9    0.47    0.20
  -5   3   9    0.31    0.17
   5   3  -9    0.33    0.19
   4  -3  -9    4.08    0.42
  -4  -3   9    4.38    0.39
  -4   3   9    4.14    0.35
   4   3  -9    3.83    0.39
   4   3  -9    4.62    0.45
   3  -3  -9    3.48    0.46
   3   3  -9    2.21    0.51
   3   3  -9    2.61    0.35
   3   3  -9    2.43    0.32
  -3   3   9    2.89    0.33
   2  -3  -9   85.08    4.07
   2  -3  -9   86.94    4.05
   2   3  -9   87.17    4.05
   2   3  -9   88.48    4.07
   2   3  -9   86.86    4.11
   1  -3  -9    6.60    0.41
   1   3  -9    7.36    0.63
   1   3  -9    6.19    0.43
   1   3  -9    6.76    0.58
   1   3  -9    6.62    0.40
   0  -3  -9    1.85    0.23
   0   3  -9    1.89    0.23
   0   3  -9    2.18    0.29
  -1  -3  -9   40.26    1.93
  -1   3  -9   41.42    1.93
  -1   3  -9   39.52    1.99
  -1   3  -9   41.38    1.95
  -2  -3  -9    6.48    0.37
  -2   3  -9    5.27    0.49
  -2   3  -9    5.63    0.45
  -2   3  -9    6.13    0.39
  -3  -3  -9    0.78    0.18
  -3   3  -9    1.26    0.36
  -4   3  -9    0.29    0.25
  -6  -4   9    0.05    0.25
  -6   4   9    0.22    0.13
   6   4  -9    0.18    0.21
   5  -4  -9    8.25    0.54
  -5  -4   9    7.75    0.50
   5   4  -9    7.76    0.50
  -5   4   9    8.92    0.49
  -4  -4   9    6.64    0.47
   4  -4  -9    6.55    0.47
  -4   4   9    6.10    0.45
   4   4  -9    6.39    0.51
   4   4  -9    6.22    0.46
   3  -4  -9   13.62    0.80
   3   4  -9   15.47    0.89
   3   4  -9   14.06    0.76
   3   4  -9   14.85    0.80
  -3   4   9   14.37    0.78
   2  -4  -9    5.07    0.43
   2  -4  -9    5.57    0.40
  -2   4   9    4.97    0.44
   2   4  -9    5.18    0.38
   2   4  -9    5.36    0.56
   2   4  -9    5.94    0.42
   2   4  -9    5.70    0.45
   1  -4  -9    2.66    0.34
   1  -4  -9    2.39    0.25
   1   4  -9    2.45    0.56
   1   4  -9    2.53    0.31
   1   4  -9    2.48    0.25
   0  -4  -9   16.92    0.91
   0  -4  -9   16.85    0.84
   0   4  -9   16.91    0.87
   0   4  -9   16.32    0.94
   0   4  -9   16.18    0.84
  -1  -4  -9    0.40    0.13
  -1   4  -9    0.83    0.22
  -1   4  -9    0.47    0.14
  -1   4  -9    0.36    0.27
  -2  -4  -9    2.66    0.25
  -2   4  -9    3.07    0.39
  -2   4  -9    3.15    0.35
  -2   4  -9    2.81    0.30
  -3  -4  -9   32.78    1.50
  -3   4  -9   30.85    1.53
  -3   4  -9   31.14    1.55
  -4   4  -9    0.77    0.22
  -6  -5   9    0.30    0.27
  -6   5   9   -0.25    0.12
   6   5  -9    0.08    0.19
  -5  -5   9    6.71    0.44
   5  -5  -9    6.25    0.47
   5   5  -9    6.16    0.43
  -5   5   9    6.83    0.40
   4  -5  -9   19.91    1.04
  -4  -5   9   19.78    1.03
   4   5  -9   20.13    1.04
   4   5  -9   20.15    1.03
  -4   5   9   20.57    1.02
   3  -5  -9    9.53    0.59
   3   5  -9    9.37    0.56
  -3   5   9    9.56    0.57
   3   5  -9    9.30    0.60
   3   5  -9    9.82    0.69
   2  -5  -9    4.50    0.39
   2  -5  -9    4.37    0.37
   2   5  -9    4.19    0.34
   2   5  -9    4.55    0.43
  -2   5   9    4.11    0.41
   2   5  -9    4.53    0.52
   2   5  -9    4.52    0.38
   1  -5  -9    1.30    0.32
   1  -5  -9    0.62    0.15
   1   5  -9    0.41    0.18
   1   5  -9    0.52    0.14
   1   5  -9    0.51    0.35
   1   5  -9    0.66    0.32
   0  -5  -9    1.72    0.22
   0  -5  -9    1.44    0.36
   0   5  -9    1.65    0.41
   0   5  -9    1.96    0.29
   0   5  -9    2.03    0.24
  -1  -5  -9    6.03    0.36
  -1   5  -9    5.67    0.42
  -1   5  -9    5.78    0.38
  -1   5  -9    5.07    0.48
  -2  -5  -9    0.11    0.12
  -2   5  -9    0.27    0.18
  -2   5  -9    0.14    0.20
  -2   5  -9    0.25    0.25
  -3  -5  -9    7.63    0.41
  -3   5  -9    7.85    0.50
  -3   5  -9    6.51    0.47
  -4   5  -9    5.39    0.39
  -6  -6   9    1.61    0.24
   6   6  -9    1.51    0.27
  -5  -6   9    2.79    0.33
   5  -6  -9    2.99    0.37
  -5   6   9    2.75    0.26
   5   6  -9    2.52    0.29
   4  -6  -9    0.27    0.23
  -4  -6   9   -0.46    0.22
  -4   6   9    0.02    0.19
   4   6  -9    0.00    0.18
   4   6  -9    0.09    0.21
   3  -6  -9   14.35    0.80
   3   6  -9   14.37    0.79
   3   6  -9   15.27    0.77
  -3   6   9   14.34    0.78
   3   6  -9   13.78    0.88
   2  -6  -9   -0.08    0.19
   2  -6  -9    0.05    0.18
   2   6  -9    0.17    0.16
   2   6  -9    0.29    0.20
  -2   6   9    0.11    0.25
   2   6  -9   -0.01    0.31
   2   6  -9    0.29    0.27
   1  -6  -9    9.29    0.52
   1  -6  -9    9.13    0.57
  -1   6   9    8.81    0.66
   1   6  -9    9.67    0.53
   1   6  -9    9.33    0.65
   1   6  -9    9.42    0.69
   1   6  -9    9.60    0.56
   0  -6  -9   47.47    2.23
   0   6  -9   46.78    2.29
   0   6  -9   46.85    2.23
   0   6  -9   47.79    2.25
  -1  -6  -9    8.80    0.50
  -1  -6  -9    8.87    0.67
  -1   6  -9   10.43    0.61
  -1   6  -9    9.27    0.55
  -1   6  -9    8.68    0.52
  -2  -6  -9    1.76    0.21
  -2   6  -9    1.72    0.32
  -2   6  -9    1.50    0.30
  -2   6  -9    1.14    0.34
  -3  -6  -9    7.13    0.41
  -3   6  -9    7.80    0.48
  -3   6  -9    7.04    0.45
  -4  -6  -9    2.63    0.27
  -4   6  -9    2.34    0.28
  -6  -7   9    1.47    0.24
  -6   7   9    1.82    0.19
   6   7  -9    1.72    0.24
  -5  -7   9    2.95    0.36
   5  -7  -9    2.69    0.37
   5   7  -9    2.48    0.29
  -5   7   9    2.74    0.25
  -4  -7   9    1.71    0.34
   4  -7  -9    1.27    0.34
  -4   7   9    1.84    0.29
   4   7  -9    1.37    0.32
   4   7  -9    1.70    0.31
   4   7  -9    1.93    0.46
   3  -7  -9   52.08    2.46
  -3   7   9   51.50    2.45
   3   7  -9   51.44    2.44
   3   7  -9   50.12    2.51
   3   7  -9   52.61    2.47
   2  -7  -9    3.31    0.35
   2  -7  -9    3.35    0.36
   2   7  -9    3.51    0.42
   2   7  -9    2.92    0.45
  -2   7   9    3.61    0.43
   2   7  -9    3.38    0.35
   2   7  -9    3.09    0.30
   1  -7  -9    0.93    0.23
   1  -7  -9    1.18    0.32
   1   7  -9    1.62    0.29
   1   7  -9    0.50    0.28
   1   7  -9    1.03    0.36
   1   7  -9    0.87    0.17
   0  -7  -9    3.54    0.30
   0   7  -9    4.23    0.33
   0   7  -9    4.23    0.45
   0   7  -9    4.35    0.35
  -1  -7  -9    6.08    0.36
  -1   7  -9    5.59    0.40
  -1   7  -9    5.32    0.41
  -1   7  -9    5.25    0.46
  -2  -7  -9    4.08    0.29
  -2   7  -9    3.86    0.39
  -2   7  -9    4.30    0.36
   2   7   9    4.13    0.54
  -2   7  -9    4.35    0.52
  -3  -7  -9   15.10    0.75
  -3   7  -9   15.40    0.80
   3   7   9   14.79    0.88
  -3   7  -9   14.87    0.77
  -4  -7  -9    1.80    0.22
  -4   7  -9    1.90    0.25
  -6  -8   9    3.36    0.27
   6   8  -9    2.98    0.27
  -6   8   9    3.15    0.23
  -5  -8   9    4.35    0.42
   5  -8  -9    3.12    0.40
  -5   8   9    4.00    0.28
   5   8  -9    3.56    0.31
   5   8  -9    3.32    0.39
   4  -8  -9   -0.37    0.22
   4   8  -9    0.13    0.21
   4   8  -9    0.04    0.29
  -4   8   9    0.22    0.30
   3  -8  -9    9.33    0.58
   3   8  -9    9.40    0.58
   3   8  -9    8.51    0.68
   3   8  -9    9.66    0.55
  -3   8   9    9.44    0.58
   2  -8  -9    0.07    0.21
   2  -8  -9    0.30    0.20
  -2   8   9   -0.12    0.28
   2   8  -9    0.20    0.21
   2   8  -9   -0.05    0.27
   2   8  -9   -0.06    0.28
   2   8  -9   -0.07    0.16
   1  -8  -9    8.24    0.50
   1   8  -9    8.69    0.51
   1   8  -9    8.98    0.54
   1   8  -9    8.44    0.68
   1   8  -9    8.73    0.61
   0  -8  -9   59.67    2.72
   0   8  -9   55.44    2.73
   0   8  -9   58.98    2.72
   0   8  -9   57.17    2.77
  -1  -8  -9    0.98    0.20
  -1   8  -9    1.10    0.28
  -1   8  -9    0.40    0.19
  -1   8  -9    0.76    0.26
  -2  -8  -9    5.42    0.33
  -2   8  -9    4.47    0.42
   2   8   9    5.05    0.47
  -2   8  -9    5.27    0.38
  -3  -8  -9   37.85    1.71
   3   8   9   35.77    1.75
  -3   8  -9   36.31    1.75
  -3   8  -9   34.73    1.72
  -4  -8  -9    0.17    0.12
  -4   8  -9    0.19    0.17
   5  -9  -9    1.49    0.38
   5   9  -9    2.01    0.26
   5   9  -9    1.66    0.31
  -5   9   9    1.78    0.23
  -4  -9   9    1.31    0.33
   4  -9  -9    1.09    0.25
   4   9  -9    1.69    0.50
   4   9  -9    1.33    0.25
  -4   9   9    1.22    0.26
   4   9  -9    0.50    0.33
   3  -9  -9    0.55    0.23
   3   9  -9    0.10    0.24
   3   9  -9    0.43    0.17
  -3   9   9    0.39    0.24
   3   9  -9   -0.35    0.31
   2  -9  -9   20.07    1.20
   2  -9  -9   21.06    1.09
   2   9  -9   20.90    1.14
  -2   9   9   20.67    1.12
   2   9  -9   22.10    1.06
   2   9  -9   21.79    1.11
   2   9  -9   21.25    1.08
   1  -9  -9    1.97    0.28
   1   9  -9    2.52    0.72
   1   9  -9    2.18    0.43
   1   9  -9    2.59    0.28
   1   9  -9    2.80    0.32
   0  -9  -9    5.75    0.37
   0   9  -9    5.72    0.50
   0   9  -9    5.78    0.41
   0   9  -9    6.05    0.43
  -1  -9  -9   12.16    0.66
  -1   9  -9   12.71    0.73
  -1   9  -9   12.88    0.70
  -1   9  -9   13.28    0.71
   1   9   9   12.59    0.80
  -2  -9  -9   11.26    0.57
  -2   9  -9   10.78    0.60
   2   9   9    9.32    0.65
  -2   9  -9   11.09    0.63
  -3  -9  -9    2.72    0.21
   3   9   9    2.47    0.42
  -3   9  -9    2.26    0.26
  -3   9  -9    2.63    0.28
  -4  -9  -9    0.50    0.13
  -4   9  -9    0.74    0.19
   5 -10  -9    1.19    0.33
   5  10  -9    1.18    0.23
  -5  10   9    1.29    0.20
   4 -10  -9    0.06    0.23
  -4 -10   9    0.38    0.22
  -4  10   9    0.06    0.17
   4  10  -9   -0.18    0.16
   4  10  -9    0.28    0.19
   3 -10  -9    7.38    0.52
  -3  10   9    7.72    0.55
   3  10  -9    7.90    0.48
   3  10  -9    7.76    0.60
   3  10  -9    7.55    0.52
   2 -10  -9    1.09    0.31
   2  10  -9    1.06    0.27
   2  10  -9    0.43    0.29
   2  10  -9    0.79    0.29
   1 -10  -9    0.47    0.18
   1  10  -9    0.71    0.29
   1  10  -9    0.59    0.21
   1  10  -9    0.65    0.18
   0 -10  -9   19.92    1.00
   0  10  -9   20.39    1.08
   0  10  -9   19.94    1.03
   0  10  -9   20.93    1.02
  -1 -10  -9    6.33    0.39
   1  10   9    5.91    0.50
  -1  10  -9    6.39    0.46
  -1  10  -9    6.18    0.47
  -1  10  -9    6.76    0.44
   2  10   9    1.42    0.36
  -3 -10  -9    4.96    0.29
  -3  10  -9    4.51    0.32
  -3  10  -9    4.91    0.35
   3  10   9    4.95    0.47
  -4  10  -9    0.10    0.13
   5  11  -9   -0.31    0.17
  -5  11   9    0.06    0.14
   5  11  -9   -0.05    0.15
  -4 -11   9   16.51    1.07
   4 -11  -9   16.41    0.88
   4  11  -9   16.69    0.87
  -4  11   9   16.76    0.85
   4  11  -9   17.35    0.84
   3 -11  -9    0.01    0.22
  -3  11   9    0.07    0.24
   3  11  -9   -0.11    0.23
   3  11  -9   -0.21    0.24
   3  11  -9    0.26    0.17
   2 -11  -9    9.96    0.61
   2  11  -9   11.22    0.62
   2  11  -9   10.36    0.66
   2  11  -9   10.26    0.68
   2  11  -9   10.19    0.59
   1 -11  -9   -0.15    0.17
   1  11  -9    0.18    0.29
   1  11  -9   -0.12    0.16
   1  11  -9    0.39    0.20
   0 -11  -9    2.06    0.24
   0  11  -9    2.02    0.30
   0  11   9    3.19    0.59
   0  11  -9    2.03    0.36
   0  11  -9    1.56    0.31
  -1 -11  -9    9.45    0.50
  -1  11  -9    9.78    0.54
  -1  11  -9    7.90    0.60
   1  11   9    7.72    0.59
  -1  11  -9    9.89    0.58
  -2 -11  -9    0.70    0.15
   2  11   9    0.54    0.27
  -2  11  -9    0.74    0.16
  -2  11  -9    0.55    0.19
  -3 -11  -9   10.79    0.52
  -3  11  -9    9.22    0.55
   3  11   9    9.91    0.66
  -3  11  -9   10.33    0.53
   5  12  -9   -0.14    0.16
   5  12  -9    0.05    0.14
  -5  12   9    0.02    0.15
   4 -12  -9    0.12    0.22
   4  12  -9   -0.07    0.13
   4  12  -9    0.22    0.19
  -4  12   9    0.12    0.19
   3  12  -9    0.40    0.23
  -3  12   9    0.31    0.27
   2 -12  -9    0.86    0.23
   2  12  -9    0.77    0.22
   2  12  -9    1.27    0.38
   2  12  -9    0.24    0.16
   2  12  -9    0.38    0.30
   1 -12  -9   -0.15    0.18
   1  12  -9   -0.13    0.18
   1  12  -9   -0.24    0.27
   1  12  -9    0.27    0.18
   0 -12  -9    4.20    0.31
   0  12  -9    4.39    0.41
   0  12   9    2.89    0.43
   0  12  -9    4.20    0.35
   0  12  -9    4.15    0.36
  -1 -12  -9    0.42    0.13
   1  12   9    0.80    0.29
  -1  12  -9    0.84    0.27
  -1  12  -9    0.72    0.24
  -1  12  -9    1.01    0.25
  -2 -12  -9    0.54    0.15
  -2  12  -9    0.22    0.14
   2  12   9    0.65    0.27
  -2  12  -9    0.37    0.17
  -3 -12  -9    1.14    0.15
  -3  12  -9    1.14    0.19
  -3  12  -9    1.37    0.21
  -5 -13   9    2.48    0.23
   5  13  -9    2.01    0.25
   5  13  -9    1.81    0.21
  -5  13   9    2.35    0.27
   4 -13  -9    7.16    0.48
   4  13  -9    7.84    0.42
  -4  13   9    6.91    0.48
   4  13  -9    7.91    0.45
   3 -13  -9    1.45    0.31
   3  13  -9    1.22    0.25
   3  13  -9    1.11    0.35
   3  13  -9    1.43    0.21
   2 -13  -9    6.53    0.45
   2  13  -9    6.52    0.52
   2  13  -9    6.47    0.42
   2  13  -9    5.91    0.52
   1 -13  -9    5.48    0.41
   1  13  -9    5.83    0.44
   1  13  -9    7.40    0.53
   1  13  -9    6.42    0.41
   0 -13  -9    0.38    0.14
   0  13  -9   -0.13    0.32
   0  13  -9   -0.24    0.16
   0  13  -9    0.00    0.22
   0  13   9    0.05    0.29
  -1 -13  -9    6.96    0.38
  -1  13  -9    6.55    0.46
  -1  13  -9    7.08    0.42
   1  13   9    5.91    0.45
  -2 -13  -9    5.44    0.31
  -2  13  -9    5.25    0.34
  -2  13  -9    5.38    0.39
   2  13   9    5.23    0.45
  -3 -13  -9    4.69    0.27
  -3  13  -9    4.57    0.32
  -3  13  -9    4.65    0.29
   4 -14  -9   -0.10    0.22
   4  14  -9   -0.09    0.12
   4  14  -9    0.29    0.17
   3 -14  -9    3.17    0.33
   3  14  -9    3.05    0.26
   3  14  -9    3.19    0.34
   3  14  -9    3.02    0.36
   2 -14  -9    1.18    0.28
   2  14  -9    2.22    0.24
   2  14  -9    1.70    0.36
   2  14  -9    1.55    0.39
   1 -14  -9    6.66    0.46
   1  14  -9    7.87    0.55
   1  14  -9    7.76    0.56
   1  14  -9    7.96    0.58
   0 -14  -9    3.11    0.26
   0  14   9    2.53    0.41
   0  14  -9    2.82    0.28
   0  14  -9    3.19    0.33
  -1 -14  -9    2.14    0.20
  -1  14  -9    2.37    0.25
  -1  14  -9    2.24    0.31
  -2 -14  -9    6.49    0.34
  -2  14  -9    6.11    0.36
   2  14   9    5.44    0.44
  -2  14  -9    5.91    0.40
  -3 -14  -9    0.18    0.08
  -3  14  -9    0.36    0.14
  -3  14  -9    0.29    0.11
   4 -15  -9   -0.14    0.26
   4  15  -9   -0.15    0.11
   4  15  -9   -0.05    0.15
   3 -15  -9   -0.14    0.18
   3  15  -9    0.22    0.12
   3  15  -9    0.15    0.20
   3  15  -9    0.21    0.22
   2 -15  -9   10.99    0.61
   2  15  -9    9.13    0.65
   2  15  -9   11.23    0.66
   2  15  -9   11.71    0.58
   1  15  -9    4.93    0.33
   1  15  -9    3.57    0.39
   1  15  -9    4.18    0.33
   0 -15  -9    3.06    0.25
   0  15  -9    2.96    0.33
   0  15  -9    3.12    0.27
   0  15  -9    2.58    0.36
  -1 -15  -9   10.29    0.52
  -1  15  -9    9.91    0.54
   1  15   9   10.05    0.61
  -1  15  -9   10.38    0.59
  -2 -15  -9    0.53    0.13
  -2  15  -9    0.71    0.22
  -2  15  -9    0.72    0.18
   4  16  -9    0.63    0.15
   4  16  -9    0.32    0.14
   3 -16  -9    0.10    0.17
   3  16  -9    0.18    0.19
   3  16  -9    0.17    0.20
   3  16  -9    0.20    0.12
   2 -16  -9    1.93    0.27
   2  16  -9    1.92    0.22
   2  16  -9    2.30    0.35
   1  16  -9    0.11    0.16
   1  16  -9    0.33    0.16
   1  16  -9    0.16    0.20
   0 -16  -9    3.01    0.24
   0  16  -9    2.45    0.34
   0  16   9    3.06    0.45
   0  16  -9    2.84    0.27
   0  16  -9    3.32    0.35
  -1 -16  -9   -0.06    0.09
  -1  16  -9   -0.15    0.12
   1  16   9    0.45    0.30
  -1  16  -9    0.22    0.19
  -2 -16  -9    2.04    0.16
  -2  16  -9    2.05    0.19
  -2  16  -9    2.17    0.25
   3  17  -9    2.65    0.22
   3  17  -9    3.21    0.31
   2 -17  -9    0.01    0.15
   2  17  -9    0.04    0.13
   2  17  -9   -0.13    0.20
   1  17  -9    1.96    0.28
   1  17  -9    2.96    0.27
   1  17  -9    2.27    0.32
   0 -17  -9    0.01    0.14
   0  17  -9    0.10    0.15
   0  17   9   -0.34    0.33
   0  17  -9   -0.03    0.21
  -1 -17  -9    3.03    0.21
  -1  17  -9    2.66    0.31
  -1  17  -9    2.47    0.22
  -2 -17  -9    1.39    0.14
  -2  17  -9    1.54    0.16
  -2  17  -9    1.59    0.27
   3 -18  -9    8.91    0.54
   3  18  -9   10.33    0.49
   2 -18  -9   15.90    0.78
   2  18  -9   14.98    0.81
   2  18  -9   16.04    0.77
   1 -18  -9    1.09    0.21
   1  18  -9    1.22    0.30
   0  18  -9    8.24    0.48
   0  18  -9    7.85    0.45
  -1 -18  -9    0.68    0.16
  -1  18  -9    0.63    0.21
  -1  18  -9    0.80    0.18
   2 -19  -9   -0.14    0.14
   2  19  -9    0.11    0.14
   2  19  -9    0.47    0.22
   1 -19  -9    0.09    0.13
   1  19  -9    0.05    0.23
   1  19  -9    0.32    0.24
   0  19  -9    0.18    0.18
   0  19  -9    0.36    0.21
  -1 -19  -9    3.81    0.25
  -1  19  -9    3.32    0.32
  -1  19  -9    2.44    0.27
   1 -20  -9    4.72    0.29
   6   0 -10    0.32    0.26
  -6   0  10   -0.28    0.15
   5   0 -10   10.91    0.59
  -5   0  10    8.36    0.67
  -5   0  10   11.37    0.57
   4   0 -10    0.71    0.23
  -4   0  10    0.50    0.19
   3   0 -10    3.31    0.37
  -3   0  10    3.07    0.34
   3   0 -10    3.04    0.36
   2   0 -10    0.71    0.24
   2   0 -10    0.80    0.17
   1   0 -10   73.60    3.38
   1   0 -10   71.07    3.41
   0   0 -10   16.97    0.86
   0   0 -10   17.39    0.90
  -1   0 -10    0.42    0.12
  -1   0 -10    0.63    0.27
  -2   0 -10   13.29    0.68
  -3   0 -10    6.10    0.37
  -6  -1  10    0.24    0.17
   6   1 -10   -0.32    0.23
  -6   1  10   -0.06    0.15
  -5  -1  10    4.13    0.33
  -5  -1  10    4.05    0.44
   5  -1 -10    4.33    0.35
   5   1 -10    3.64    0.35
  -5   1  10    4.42    0.32
   4  -1 -10    0.33    0.20
  -4  -1  10    0.22    0.20
  -4   1  10    0.56    0.19
   4   1 -10   -0.20    0.20
   3  -1 -10   12.64    0.73
   3  -1 -10   13.32    0.73
   3   1 -10   13.47    0.74
   3   1 -10   12.31    0.87
  -3   1  10   13.59    0.72
   3   1 -10   13.37    0.72
   2  -1 -10   10.05    0.57
   2  -1 -10   10.65    0.62
   2   1 -10   10.60    0.62
   2   1 -10   10.45    0.80
   2   1 -10    9.39    0.56
   1  -1 -10    8.00    0.47
   1  -1 -10    8.20    0.56
   1   1 -10    8.33    0.47
   1   1 -10    8.59    0.73
   1   1 -10    7.98    0.58
   1   1 -10    8.07    0.51
   0  -1 -10    7.66    0.54
   0  -1 -10    8.55    0.66
   0  -1 -10    8.12    0.45
   0   1 -10    7.91    0.51
   0   1 -10    8.05    0.46
  -1  -1 -10    0.51    0.39
  -1  -1 -10    0.13    0.11
  -1   1 -10    0.02    0.12
  -1   1 -10    0.29    0.21
  -2  -1 -10    5.25    0.33
  -2   1 -10    5.34    0.34
  -3  -1 -10    2.59    0.23
  -3   1 -10    1.80    0.40
  -6  -2  10    1.55    0.28
   6   2 -10    1.39    0.31
  -6   2  10    1.84    0.22
  -5  -2  10    3.56    0.31
   5  -2 -10    3.59    0.34
  -5  -2  10    3.41    0.39
   5   2 -10    3.80    0.31
  -5   2  10    3.76    0.30
   4  -2 -10    3.08    0.35
  -4  -2  10    3.31    0.34
   4   2 -10    3.06    0.34
  -4   2  10    3.44    0.32
   4   2 -10    2.69    0.41
   3  -2 -10   26.36    1.33
   3  -2 -10   27.22    1.33
   3   2 -10   26.83    1.33
   3   2 -10   28.11    1.31
   3   2 -10   25.94    1.42
  -3   2  10   25.67    1.31
   2  -2 -10   69.72    3.21
   2  -2 -10   69.78    3.23
   2   2 -10   66.84    3.21
   2   2 -10   67.00    3.28
   2   2 -10   69.21    3.23
   1  -2 -10    1.64    0.36
   1  -2 -10    1.58    0.22
   1   2 -10    1.94    0.45
   1   2 -10    1.97    0.30
   1   2 -10    1.85    0.55
   1   2 -10    1.90    0.23
   0  -2 -10   16.11    0.97
   0  -2 -10   17.73    0.87
   0   2 -10   17.88    0.87
   0   2 -10   17.02    1.02
   0   2 -10   17.91    0.90
  -1  -2 -10    9.29    0.50
  -1   2 -10    9.58    0.50
  -1   2 -10    8.84    0.55
  -1   2 -10    8.27    0.68
  -2  -2 -10   10.78    0.56
  -2   2 -10   10.77    0.60
  -3  -2 -10    3.01    0.23
   6   3 -10    0.48    0.21
  -6   3  10    0.64    0.18
  -5  -3  10   -0.10    0.23
   5  -3 -10   -0.19    0.19
  -5  -3  10    0.06    0.16
  -5   3  10   -0.30    0.15
   5   3 -10    0.19    0.17
   4  -3 -10    2.31    0.33
  -4  -3  10    2.56    0.32
   4   3 -10    2.72    0.37
   4   3 -10    1.99    0.30
  -4   3  10    2.16    0.28
   3  -3 -10   17.95    1.00
   3  -3 -10   19.37    0.99
   3   3 -10   19.47    0.97
   3   3 -10   19.76    1.00
   3   3 -10   18.79    1.07
  -3   3  10   19.40    0.98
   2  -3 -10    2.74    0.36
   2  -3 -10    3.54    0.32
   2   3 -10    3.59    0.30
   2   3 -10    2.89    0.58
   2   3 -10    3.15    0.41
   1  -3 -10    8.37    0.48
   1  -3 -10    8.50    0.55
   1   3 -10    7.84    0.63
   1   3 -10    9.49    0.70
   1   3 -10    8.37    0.48
   1   3 -10    8.18    0.52
   0  -3 -10    0.66    0.18
   0  -3 -10    0.31    0.28
   0   3 -10    0.46    0.20
   0   3 -10   -0.01    0.36
   0   3 -10    0.55    0.14
  -1  -3 -10    4.91    0.32
  -1   3 -10    4.39    0.39
  -1   3 -10    4.56    0.52
  -1   3 -10    5.20    0.33
  -2  -3 -10   17.38    0.86
  -3  -3 -10    0.33    0.11
  -3   3 -10    0.28    0.26
   6   4 -10    0.85    0.20
  -6   4  10    0.99    0.18
  -5  -4  10    0.25    0.22
  -5  -4  10    0.03    0.17
   5  -4 -10    0.38    0.21
  -5   4  10    0.01    0.15
   5   4 -10    0.26    0.16
   4  -4 -10    5.62    0.44
   4   4 -10    4.71    0.40
   4   4 -10    4.58    0.41
   3  -4 -10    0.15    0.20
   3  -4 -10    0.34    0.29
  -3   4  10    0.21    0.20
   3   4 -10    0.02    0.23
   3   4 -10    0.03    0.18
   3   4 -10    0.22    0.34
   2  -4 -10    1.44    0.31
   2  -4 -10    1.03    0.28
   2   4 -10    1.95    0.51
   2   4 -10    1.32    0.25
   2   4 -10    1.62    0.29
  -2   4  10    0.97    0.24
   1  -4 -10    1.09    0.24
   1  -4 -10    0.83    0.21
   1   4 -10    1.25    0.39
   1   4 -10    0.53    0.21
   1   4 -10    0.82    0.34
   1   4 -10    0.76    0.16
   0  -4 -10    4.27    0.29
   0  -4 -10    3.80    0.47
   0   4 -10    3.77    0.51
   0   4 -10    4.00    0.30
   0   4 -10    4.64    0.36
  -1  -4 -10    7.69    0.45
  -1   4 -10    7.68    0.46
  -1   4 -10    8.58    0.51
  -1   4 -10    8.72    0.60
  -2  -4 -10    7.24    0.39
  -2   4 -10    6.32    0.40
  -2   4 -10    6.05    0.49
  -3  -4 -10   17.79    0.83
  -3   4 -10   16.26    0.88
  -5  -5  10    0.98    0.26
   5  -5 -10    0.96    0.22
  -5   5  10    0.88    0.20
   5   5 -10    0.89    0.24
  -4  -5  10    0.38    0.18
   4  -5 -10    0.12    0.34
   4   5 -10    0.40    0.20
  -4   5  10   -0.09    0.16
   3  -5 -10    1.25    0.31
   3   5 -10    1.28    0.21
   3   5 -10    1.49    0.49
   3   5 -10    1.55    0.31
  -3   5  10    1.52    0.30
   2  -5 -10    0.09    0.20
   2  -5 -10    0.13    0.18
   2   5 -10    0.14    0.16
   2   5 -10    0.13    0.26
   2   5 -10    0.04    0.44
  -2   5  10   -0.07    0.23
   1  -5 -10   10.33    0.55
   1  -5 -10    9.93    0.61
   1   5 -10    9.73    0.71
  -1   5  10    9.02    0.67
   1   5 -10   10.25    0.55
   1   5 -10    9.67    0.70
   1   5 -10   10.15    0.58
   0  -5 -10    6.81    0.41
   0  -5 -10    7.39    0.53
   0   5 -10    6.59    0.42
   0   5 -10    7.14    0.56
   0   5 -10    7.38    0.47
  -1  -5 -10   24.15    1.17
  -1   5 -10   23.28    1.24
  -1   5 -10   24.38    1.20
  -1   5 -10   24.39    1.18
  -2   5 -10    9.00    0.51
  -2   5 -10    8.70    0.54
  -2   5 -10    8.17    0.49
  -3  -5 -10    0.84    0.15
  -3   5 -10    0.76    0.21
  -5  -6  10    0.28    0.18
   5  -6 -10    0.02    0.21
  -5   6  10    0.03    0.12
   5   6 -10    0.22    0.16
  -4  -6  10    4.51    0.36
   4  -6 -10    4.95    0.39
   4   6 -10    5.12    0.37
  -4   6  10    4.11    0.34
   4   6 -10    3.91    0.37
   3  -6 -10    5.91    0.44
  -3   6  10    5.59    0.43
   3   6 -10    5.05    0.55
   3   6 -10    5.48    0.39
   3   6 -10    5.49    0.45
   2  -6 -10   14.95    0.78
   2  -6 -10   14.83    0.80
   2   6 -10   15.00    0.89
  -2   6  10   13.89    0.81
   2   6 -10   14.71    0.77
   2   6 -10   15.08    0.82
   1  -6 -10    2.85    0.34
   1  -6 -10    2.12    0.25
   1   6 -10    2.54    0.53
   1   6 -10    2.26    0.27
   1   6 -10    2.45    0.46
   1   6 -10    2.53    0.30
   0  -6 -10    0.31    0.24
   0  -6 -10    0.59    0.14
   0   6 -10    0.35    0.15
   0   6 -10    1.05    0.29
  -1  -6 -10    1.85    0.21
  -1   6 -10    2.09    0.30
  -1   6 -10    2.07    0.26
  -1   6 -10    1.79    0.38
  -2  -6 -10    0.07    0.10
  -2   6 -10    0.08    0.20
  -2   6 -10    0.13    0.18
  -2   6 -10    0.02    0.16
  -3  -6 -10    1.41    0.16
  -3   6 -10    1.22    0.26
  -3   6 -10    1.31    0.22
   5  -7 -10    1.24    0.31
  -5  -7  10    1.21    0.22
   5   7 -10    1.34    0.22
  -5   7  10    1.00    0.19
   4  -7 -10   11.12    0.63
  -4  -7  10   11.68    0.62
   4   7 -10   11.19    0.63
   4   7 -10   10.84    0.60
  -4   7  10   10.97    0.61
   3  -7 -10    0.34    0.21
  -3   7  10    0.17    0.22
   3   7 -10    0.41    0.24
   3   7 -10    0.36    0.17
   3   7 -10    0.68    0.32
   2  -7 -10    0.81    0.21
   2  -7 -10    0.77    0.22
   2   7 -10    0.83    0.29
   2   7 -10    1.34    0.25
   2   7 -10    1.31    0.35
  -2   7  10    0.86    0.28
   1  -7 -10    0.37    0.22
   1  -7 -10    0.37    0.14
   1   7 -10    0.25    0.15
   1   7 -10    0.07    0.31
   1   7 -10    0.25    0.20
   0  -7 -10   13.93    0.79
   0  -7 -10   14.11    0.73
   0   7 -10   14.20    0.77
   0   7 -10   14.64    0.83
   0   7 -10   14.38    0.75
  -1  -7 -10    8.93    0.50
  -1   7 -10    9.16    0.54
  -1   7 -10    9.43    0.61
  -1   7 -10    9.33    0.53
  -2  -7 -10    0.14    0.10
  -2   7 -10    0.39    0.19
  -2   7 -10    0.16    0.15
  -3  -7 -10    0.18    0.09
  -3   7 -10    0.15    0.17
  -3   7 -10    0.25    0.17
  -5  -8  10    7.65    0.47
  -5   8  10    7.09    0.40
   5   8 -10    6.43    0.41
   4  -8 -10    1.25    0.28
  -4  -8  10    1.13    0.27
   4   8 -10    1.21    0.24
   4   8 -10    0.66    0.19
  -4   8  10    1.12    0.25
   3  -8 -10   10.48    0.61
   3   8 -10   10.44    0.61
   3   8 -10    9.13    0.56
   3   8 -10   10.23    0.69
   2  -8 -10    3.58    0.37
   2  -8 -10    2.81    0.36
   2   8 -10    4.07    0.49
   2   8 -10    3.49    0.32
  -2   8  10    4.40    0.49
   2   8 -10    4.41    0.44
   1  -8 -10    0.05    0.15
   1  -8 -10    0.41    0.22
   1   8 -10    0.04    0.15
   1   8 -10   -0.04    0.29
   1   8 -10    0.46    0.19
   0  -8 -10    3.45    0.39
   0  -8 -10    4.40    0.30
   0   8 -10    3.67    0.44
   0   8 -10    3.58    0.34
   0   8 -10    4.23    0.33
  -1  -8 -10    0.74    0.31
  -1  -8 -10    0.78    0.18
  -1   8 -10    0.91    0.25
  -1   8 -10    1.34    0.31
  -1   8 -10    1.15    0.26
  -2  -8 -10    1.96    0.19
  -2   8 -10    2.27    0.30
  -2   8 -10    2.25    0.24
  -3  -8 -10    1.22    0.14
  -3   8 -10    1.43    0.22
  -3   8 -10    0.97    0.24
  -5   9  10    1.01    0.20
   5   9 -10    0.58    0.16
   4  -9 -10    1.27    0.29
  -4  -9  10    1.32    0.28
  -4   9  10    1.22    0.24
   4   9 -10    1.53    0.26
   4   9 -10    1.36    0.23
   3  -9 -10    0.72    0.22
  -3   9  10    0.38    0.24
   3   9 -10    0.15    0.30
   2  -9 -10    7.88    0.52
   2  -9 -10    7.54    0.51
   2   9 -10    7.96    0.56
   2   9 -10    8.52    0.48
   2   9 -10    7.93    0.61
   1  -9 -10    1.16    0.24
   1  -9 -10    1.73    0.31
   1   9 -10    1.34    0.28
   1   9 -10    1.54    0.25
   1   9 -10    1.46    0.42
   0  -9 -10    0.33    0.13
   0  -9 -10    0.56    0.22
   0   9 -10   -0.07    0.24
   0   9 -10    0.53    0.17
   0   9 -10    0.20    0.18
  -1  -9 -10    9.39    0.48
  -1  -9 -10    7.89    0.59
  -1   9 -10    8.59    0.51
  -1   9 -10    8.30    0.51
  -1   9 -10    8.95    0.57
  -2  -9 -10    0.58    0.14
  -2   9 -10    0.48    0.14
  -2   9 -10    0.51    0.19
  -3  -9 -10    0.13    0.08
  -3   9 -10    0.22    0.16
   5 -10 -10    9.28    0.61
  -5  10  10    7.46    0.42
   5  10 -10    6.60    0.43
  -4 -10  10   -0.16    0.19
   4 -10 -10    0.20    0.19
   4  10 -10    0.29    0.17
   4  10 -10   -0.02    0.14
  -4  10  10    0.40    0.17
   3 -10 -10    6.76    0.47
   3  10 -10    6.72    0.53
   3  10 -10    7.69    0.43
   3  10 -10    7.30    0.48
  -3  10  10    6.57    0.48
   2 -10 -10   10.69    0.62
   2  10 -10   10.11    0.69
   2  10 -10   11.46    0.60
   1 -10 -10    0.97    0.23
   1 -10 -10    1.02    0.23
   1  10 -10    1.30    0.28
   1  10 -10    0.84    0.18
   1  10 -10    1.63    0.40
   0 -10 -10    6.71    0.40
   0 -10 -10    6.81    0.48
   0  10 -10    7.41    0.44
   0  10 -10    6.76    0.51
   0  10 -10    6.27    0.44
  -1 -10 -10    0.47    0.12
  -1 -10 -10    0.91    0.27
  -1  10 -10    0.80    0.21
  -1  10 -10    0.73    0.20
  -1  10 -10    0.61    0.23
  -2 -10 -10    2.40    0.20
  -2  10 -10    2.32    0.23
  -2  10 -10    2.62    0.30
  -3 -10 -10    5.59    0.33
  -3  10 -10    5.58    0.34
  -3  10 -10    6.21    0.38
  -5 -11  10    0.34    0.15
  -5  11  10    0.31    0.17
   5  11 -10    0.26    0.13
   4 -11 -10    1.51    0.35
  -4 -11  10    1.90    0.31
   4  11 -10    1.62    0.21
  -4  11  10    1.73    0.28
   4  11 -10    1.46    0.25
   3 -11 -10    0.95    0.21
   3  11 -10    0.81    0.21
  -3  11  10    0.48    0.27
   3  11 -10    0.43    0.25
   3  11 -10    0.60    0.22
   2 -11 -10    2.91    0.35
   2  11 -10    3.81    0.45
   2  11 -10    3.17    0.36
   2  11 -10    2.29    0.43
   1 -11 -10    0.58    0.20
   1  11 -10    0.17    0.17
   1  11 -10    0.24    0.17
   1  11 -10    1.26    0.38
   0  11 -10    3.66    0.40
   0  11 -10    3.14    0.30
   0  11 -10    3.69    0.33
  -1 -11 -10    0.04    0.10
  -1 -11 -10    0.07    0.23
  -1  11 -10    0.03    0.14
  -1  11 -10   -0.06    0.21
  -1  11 -10   -0.25    0.20
  -2 -11 -10    0.99    0.14
  -2  11 -10    1.25    0.19
  -2  11 -10    1.16    0.25
  -3 -11 -10    0.81    0.12
  -3  11 -10    0.78    0.21
  -3  11 -10    0.60    0.14
   4 -12 -10    1.70    0.27
   4  12 -10    1.59    0.25
   4  12 -10    1.60    0.20
  -4  12  10    1.78    0.34
   3 -12 -10    1.78    0.28
   3  12 -10    2.14    0.33
   3  12 -10    1.79    0.31
   3  12 -10    1.81    0.22
   2 -12 -10   11.97    0.66
   2  12 -10   10.43    0.71
   2  12 -10   12.79    0.63
   2  12 -10   12.22    0.72
   1 -12 -10    5.28    0.44
   1 -12 -10    4.81    0.33
   1  12 -10    4.98    0.33
   1  12 -10    4.14    0.34
   0 -12 -10   25.61    1.26
   0 -12 -10   25.66    1.22
   0  12 -10   24.37    1.28
   0  12 -10   25.56    1.24
   0  12 -10   25.54    1.23
  -1 -12 -10    6.81    0.38
  -1 -12 -10    6.29    0.47
  -1  12 -10    7.05    0.45
  -1  12 -10    7.21    0.42
  -2 -12 -10    8.40    0.43
  -2  12 -10    8.30    0.45
  -2  12 -10    8.16    0.48
  -3 -12 -10    6.70    0.33
  -3  12 -10    6.36    0.37
  -3  12 -10    5.91    0.35
   4 -13 -10    0.88    0.24
   4  13 -10    1.08    0.21
   4  13 -10    1.18    0.18
   3 -13 -10    0.12    0.17
   3  13 -10    0.07    0.13
   3  13 -10    0.31    0.22
   3  13 -10    0.20    0.19
   2 -13 -10    0.21    0.17
   2  13 -10    0.38    0.24
   2  13 -10    0.43    0.14
   2  13 -10    0.18    0.29
   1 -13 -10    0.48    0.16
   1 -13 -10    0.70    0.19
   1  13 -10    0.58    0.23
   1  13 -10    0.43    0.15
   1  13 -10    0.46    0.17
   0 -13 -10    3.24    0.25
   0 -13 -10    3.13    0.33
   0  13 -10    3.08    0.36
   0  13 -10    2.91    0.28
   0  13 -10    3.22    0.30
  -1 -13 -10    1.21    0.16
  -1 -13 -10    1.15    0.30
  -1  13 -10    1.23    0.26
  -1  13 -10    1.58    0.21
  -2 -13 -10    0.14    0.08
  -2  13 -10    0.32    0.15
  -2  13 -10   -0.02    0.11
   4 -14 -10    0.36    0.19
   4  14 -10    0.37    0.11
   4  14 -10    0.25    0.16
   3 -14 -10    9.85    0.56
   3  14 -10   11.00    0.60
   3  14 -10   10.52    0.52
   3  14 -10    9.00    0.56
   2 -14 -10    9.79    0.55
   2  14 -10    9.66    0.52
   2  14 -10    9.60    0.60
   1 -14 -10    1.67    0.26
   1  14 -10    1.84    0.30
   1  14 -10    2.07    0.24
   1  14 -10    1.89    0.24
   0 -14 -10    1.06    0.21
   0 -14 -10    1.49    0.18
   0  14 -10    1.06    0.29
   0  14 -10    1.27    0.21
   0  14 -10    1.10    0.28
  -1 -14 -10    3.98    0.35
  -1 -14 -10    3.87    0.25
  -1  14 -10    4.14    0.28
  -1  14 -10    4.33    0.34
  -2 -14 -10    1.99    0.16
  -2  14 -10    1.80    0.23
  -2  14 -10    1.84    0.18
   4  15 -10    1.32    0.21
   3 -15 -10    2.60    0.28
   3  15 -10    2.81    0.22
   3  15 -10    3.23    0.30
   3  15 -10    2.84    0.33
   2 -15 -10    0.29    0.16
   2  15 -10    0.31    0.13
   2  15 -10   -0.10    0.19
   1 -15 -10    0.61    0.17
   1  15 -10    0.79    0.16
   1  15 -10    0.78    0.21
   1  15 -10    0.91    0.27
   0 -15 -10    0.07    0.11
   0 -15 -10    0.40    0.16
   0  15 -10   -0.23    0.18
   0  15 -10    0.20    0.14
   0  15 -10    0.15    0.22
  -1 -15 -10   11.15    0.55
  -1 -15 -10   10.83    0.62
  -1  15 -10   11.12    0.61
  -1  15 -10   10.73    0.56
  -2 -15 -10    1.86    0.15
  -2  15 -10    1.91    0.23
  -2  15 -10    1.91    0.17
   3 -16 -10    0.22    0.15
   3  16 -10    0.16    0.18
   3  16 -10    0.34    0.37
   2 -16 -10    3.70    0.29
   2  16 -10    3.79    0.26
   2  16 -10    3.40    0.33
   1 -16 -10    0.28    0.15
   1  16 -10    0.50    0.19
   1  16 -10   -0.02    0.15
   0 -16 -10    2.31    0.24
   0 -16 -10    2.08    0.21
   0  16 -10    2.06    0.22
   0  16 -10    2.05    0.28
  -1 -16 -10    3.81    0.24
  -1 -16 -10    4.04    0.32
  -1  16 -10    4.60    0.30
  -1  16 -10    3.55    0.32
   3 -17 -10    0.22    0.15
   3  17 -10   -0.06    0.10
   2 -17 -10    0.53    0.14
   2  17 -10    0.39    0.13
   2  17 -10    0.79    0.29
   1 -17 -10    7.69    0.44
   1  17 -10    8.30    0.50
   1  17 -10    7.75    0.45
   0 -17 -10    0.44    0.18
   0  17 -10    0.24    0.13
   0  17 -10    0.22    0.16
  -1 -17 -10    3.88    0.24
  -1  17 -10    3.49    0.30
  -1  17 -10    4.09    0.25
   2 -18 -10    0.05    0.12
   2  18 -10    0.10    0.18
   2  18 -10    0.07    0.13
   1 -18 -10    1.14    0.18
   1  18 -10    0.61    0.20
   0 -18 -10    0.70    0.19
   0  18 -10    1.09    0.25
  -5   0  11   -0.02    0.14
   5   0 -11    0.22    0.16
  -4   0  11    0.23    0.15
   4   0 -11   -0.17    0.17
   3   0 -11   -0.10    0.20
  -3   0  11    0.11    0.18
   3   0 -11    0.00    0.25
   2   0 -11    0.14    0.15
   2   0 -11    0.12    0.23
   1   0 -11    0.23    0.28
   1   0 -11   -0.09    0.12
   0   0 -11   -0.08    0.11
  -1   0 -11    0.11    0.11
  -2   0 -11   -0.02    0.10
  -5  -1  11    8.16    0.44
   5  -1 -11    7.36    0.46
  -5   1  11    8.12    0.43
   5   1 -11    7.17    0.44
   4  -1 -11    0.83    0.21
  -4  -1  11    1.68    0.24
  -4   1  11    1.59    0.23
   4   1 -11    0.99    0.21
   3  -1 -11   10.80    0.64
  -3  -1  11   10.94    0.63
  -3   1  11   10.93    0.63
   3   1 -11   12.52    0.68
   3   1 -11   10.84    0.63
   2  -1 -11    8.92    0.57
   2  -1 -11    9.56    0.53
   2   1 -11    9.07    0.59
   2   1 -11    9.63    0.53
   1  -1 -11   17.50    0.98
   1  -1 -11   19.18    0.93
   1   1 -11   18.90    0.93
   1   1 -11   18.36    0.99
   0  -1 -11   29.59    1.39
   0   1 -11   28.59    1.41
   0   1 -11   28.51    1.39
  -1  -1 -11    5.39    0.33
  -1   1 -11    4.97    0.47
  -1   1 -11    5.24    0.33
  -2  -1 -11   23.80    1.14
  -2   1 -11   23.84    1.14
   5  -2 -11    1.04    0.25
  -5  -2  11    0.86    0.22
   5   2 -11    0.94    0.23
  -5   2  11    1.07    0.21
   4  -2 -11    5.56    0.40
  -4  -2  11    5.95    0.38
  -4   2  11    5.76    0.38
   4   2 -11    5.59    0.47
   4   2 -11    5.79    0.40
   3  -2 -11   11.51    0.68
   3  -2 -11   10.70    0.66
  -3  -2  11   12.26    0.67
   3   2 -11   11.68    0.67
   3   2 -11   14.40    0.73
  -3   2  11   11.55    0.66
   2  -2 -11    0.45    0.22
   2  -2 -11    0.49    0.17
   2   2 -11    0.31    0.24
   2   2 -11    0.51    0.16
   2   2 -11    0.74    0.44
  -2   2  11    0.70    0.23
   1  -2 -11    5.53    0.47
   1  -2 -11    5.90    0.37
   1   2 -11    5.84    0.69
   1   2 -11    6.13    0.53
   1   2 -11    6.24    0.38
   0  -2 -11   17.04    0.86
   0   2 -11   17.21    0.86
   0   2 -11   17.04    0.88
  -1  -2 -11    1.05    0.17
  -1   2 -11    1.07    0.23
  -1   2 -11    0.84    0.20
  -2  -2 -11    1.84    0.18
  -2   2 -11    1.87    0.21
  -3  -2 -11    1.89    0.23
  -5  -3  11    0.45    0.28
   5  -3 -11    0.68    0.19
  -5  -3  11    0.78    0.16
   5   3 -11    0.67    0.17
  -5   3  11    0.98    0.19
  -4  -3  11   10.22    0.53
   4  -3 -11    9.25    0.55
   4   3 -11    8.45    0.56
   4   3 -11    9.25    0.54
  -4   3  11    9.63    0.53
   3  -3 -11    0.85    0.24
   3  -3 -11    0.80    0.22
  -3   3  11    1.12    0.31
   3   3 -11    0.76    0.38
   3   3 -11    0.33    0.22
   2  -3 -11    0.08    0.16
   2  -3 -11    0.41    0.22
   2   3 -11   -0.06    0.14
   2   3 -11    0.03    0.24
  -2   3  11    0.28    0.21
   2   3 -11    0.77    0.40
   1  -3 -11    7.05    0.41
   1  -3 -11    6.75    0.49
   1   3 -11    7.58    0.42
   1   3 -11    5.45    0.66
   1   3 -11    6.83    0.58
   0  -3 -11    1.21    0.32
   0   3 -11    1.08    0.29
   0   3 -11    1.65    0.40
   0   3 -11    1.61    0.22
  -1  -3 -11    1.24    0.19
  -1   3 -11    1.45    0.27
  -1   3 -11    1.85    0.52
  -2  -3 -11    5.50    0.31
  -2   3 -11    4.99    0.33
  -3  -3 -11    3.02    0.24
   5  -4 -11    0.99    0.26
  -5  -4  11    0.99    0.26
  -5  -4  11    1.02    0.24
  -5   4  11    0.78    0.18
   5   4 -11    0.97    0.20
  -4  -4  11    8.39    0.48
   4  -4 -11    8.07    0.50
   4   4 -11    8.36    0.50
  -4   4  11    7.81    0.47
   4   4 -11    8.08    0.50
   3  -4 -11   20.47    1.12
   3  -4 -11   23.56    1.14
  -3   4  11   23.72    1.12
   3   4 -11   20.70    1.16
   2  -4 -11    0.13    0.21
   2  -4 -11    0.10    0.16
   2   4 -11    0.09    0.15
   2   4 -11    0.26    0.25
   2   4 -11    0.16    0.36
  -2   4  11   -0.17    0.22
   1  -4 -11    1.27    0.32
   1  -4 -11    1.12    0.21
   1   4 -11    1.21    0.22
   1   4 -11    0.67    0.21
  -1   4  11    1.00    0.29
   1   4 -11    1.29    0.37
   1   4 -11    0.89    0.34
   0  -4 -11   42.34    2.02
   0  -4 -11   41.53    1.99
   0   4 -11   42.81    2.01
   0   4 -11   42.43    1.99
   0   4 -11   40.71    2.07
  -1   4 -11    6.34    0.38
  -1   4 -11    5.67    0.54
  -1   4 -11    6.76    0.40
  -2  -4 -11    0.50    0.11
  -2   4 -11    0.79    0.21
  -2   4 -11    0.38    0.30
  -2   4 -11    0.79    0.22
  -3  -4 -11   13.47    0.66
  -5  -5  11   -0.15    0.22
  -5  -5  11    0.35    0.21
   5   5 -11    0.09    0.14
  -5   5  11   -0.04    0.12
   4  -5 -11    0.58    0.19
  -4  -5  11    0.55    0.17
  -4   5  11    0.73    0.17
   4   5 -11    0.76    0.19
   4   5 -11    0.30    0.19
   3   5 -11    2.28    0.26
   3   5 -11    2.95    0.46
   3   5 -11    2.38    0.33
  -3   5  11    1.99    0.29
   2  -5 -11    4.41    0.36
   2  -5 -11    4.26    0.39
   2   5 -11    5.04    0.44
   2   5 -11    4.75    0.34
   2   5 -11    4.81    0.59
   1  -5 -11   21.36    1.05
   1  -5 -11   21.71    1.08
  -1   5  11   18.81    1.21
   1   5 -11   21.02    1.14
   1   5 -11   21.51    1.07
   1   5 -11   22.61    1.06
   0  -5 -11    3.15    0.25
   0   5 -11    3.20    0.33
   0   5 -11    3.28    0.28
   0   5 -11    3.41    0.51
  -1  -5 -11   15.17    0.77
  -1   5 -11   15.35    0.86
  -1   5 -11   16.35    0.80
  -1   5 -11   15.40    0.78
  -2  -5 -11    0.18    0.09
  -2   5 -11    0.35    0.17
  -2   5 -11    0.23    0.17
  -2   5 -11    0.14    0.25
  -3  -5 -11    0.10    0.10
  -5  -6  11    5.00    0.34
  -5  -6  11    4.85    0.37
   5  -6 -11    4.59    0.36
  -5   6  11    4.58    0.38
   5   6 -11    4.37    0.31
  -4  -6  11    0.44    0.17
   4  -6 -11    0.40    0.18
   4   6 -11    0.24    0.17
  -4   6  11    0.29    0.16
   4   6 -11    0.47    0.17
   3  -6 -11   16.27    0.86
   3   6 -11   16.38    0.86
   3   6 -11   16.70    0.93
  -3   6  11   16.60    0.86
   3   6 -11   16.47    0.83
   2  -6 -11    0.73    0.21
   2   6 -11    0.99    0.45
  -2   6  11    1.35    0.36
   2   6 -11    1.38    0.23
   2   6 -11   -0.16    0.34
   1  -6 -11    1.51    0.31
   1  -6 -11    1.17    0.21
   1   6 -11    1.44    0.23
   1   6 -11    1.46    0.46
   1   6 -11    1.38    0.28
   0  -6 -11   19.51    1.15
   0  -6 -11   23.25    1.09
   0   6 -11   21.81    1.18
   0   6 -11   23.21    1.12
   0   6 -11   23.70    1.10
  -1  -6 -11    7.65    0.42
  -1   6 -11    7.92    0.46
  -1   6 -11    7.73    0.44
  -1   6 -11    7.54    0.54
  -2  -6 -11    4.90    0.28
  -2   6 -11    4.19    0.40
  -2   6 -11    4.88    0.33
  -3  -6 -11    0.08    0.10
  -5  -7  11    1.14    0.30
  -5  -7  11    1.15    0.27
   5  -7 -11    1.31    0.28
   5   7 -11    0.99    0.22
  -4  -7  11    2.04    0.26
   4  -7 -11    2.53    0.27
   4   7 -11    2.19    0.26
  -4   7  11    2.11    0.26
   4   7 -11    1.94    0.27
   3  -7 -11    0.24    0.19
   3   7 -11    0.42    0.23
   3   7 -11    0.11    0.14
   3   7 -11    0.32    0.27
  -3   7  11    0.13    0.19
   2  -7 -11   -0.15    0.18
   2  -7 -11    0.14    0.17
   2   7 -11   -0.09    0.14
  -2   7  11   -0.38    0.25
   2   7 -11    0.32    0.43
   2   7 -11    0.05    0.27
   1  -7 -11   -0.06    0.21
   1  -7 -11   -0.05    0.13
   1   7 -11   -0.02    0.29
   1   7 -11   -0.18    0.17
   1   7 -11    0.24    0.15
   0  -7 -11    0.11    0.22
   0  -7 -11    0.03    0.12
   0   7 -11    0.01    0.17
  -1  -7 -11   10.34    0.53
  -1   7 -11   10.37    0.56
  -1   7 -11   10.33    0.55
  -1   7 -11    9.76    0.62
  -2  -7 -11    9.90    0.48
  -2   7 -11    8.46    0.55
  -2   7 -11    9.67    0.52
  -3  -7 -11    0.75    0.14
  -5  -8  11    0.49    0.18
   5  -8 -11    1.37    0.32
   5   8 -11    0.48    0.14
  -5   8  11    0.40    0.14
  -4  -8  11    5.01    0.34
   4  -8 -11    4.98    0.35
  -4   8  11    4.44    0.33
   4   8 -11    4.89    0.33
   4   8 -11    4.82    0.34
   3  -8 -11    1.39    0.28
   3   8 -11    1.24    0.30
   3   8 -11    1.58    0.22
   3   8 -11    1.68    0.36
  -3   8  11    1.85    0.33
   2  -8 -11    0.05    0.19
   2  -8 -11    0.12    0.20
   2   8 -11   -0.17    0.28
   2   8 -11   -0.09    0.27
   2   8 -11   -0.10    0.13
   1  -8 -11    0.88    0.21
   1   8 -11    1.41    0.31
   1   8 -11    1.43    0.25
   0  -8 -11   12.09    0.69
   0  -8 -11   11.27    0.62
   0   8 -11   12.18    0.65
   0   8 -11   13.24    0.65
   0   8 -11   12.41    0.73
  -1  -8 -11    2.09    0.18
  -1   8 -11    2.20    0.25
  -1   8 -11    1.65    0.25
  -1   8 -11    2.33    0.34
  -2  -8 -11    1.83    0.16
  -2   8 -11    1.47    0.29
  -2   8 -11    2.08    0.24
  -3  -8 -11    5.42    0.30
  -4  -9  11    0.63    0.17
   4  -9 -11    0.65    0.18
   4   9 -11    0.32    0.14
  -4   9  11    0.40    0.19
   4   9 -11    0.33    0.16
   3  -9 -11    1.38    0.27
   3   9 -11    1.66    0.22
  -3   9  11    1.56    0.33
   3   9 -11    1.59    0.30
   3   9 -11    1.65    0.35
   2  -9 -11    1.30    0.27
   2  -9 -11    1.18    0.23
   2   9 -11    1.23    0.40
   2   9 -11    1.09    0.29
   2   9 -11    1.12    0.21
   1  -9 -11    8.81    0.52
   1  -9 -11    7.96    0.46
   1   9 -11    7.84    0.48
   1   9 -11    9.10    0.48
   1   9 -11    7.75    0.55
   0  -9 -11    0.68    0.23
   0  -9 -11    0.81    0.16
   0   9 -11    0.68    0.16
   0   9 -11    0.55    0.16
   0   9 -11    1.26    0.36
  -1  -9 -11    0.54    0.13
  -1   9 -11    0.32    0.22
  -1   9 -11    1.02    0.25
  -1   9 -11    0.37    0.15
  -2  -9 -11   10.89    0.56
  -2   9 -11   11.75    0.59
  -2   9 -11   11.53    0.62
  -4 -10  11   -0.05    0.17
   4 -10 -11    0.21    0.16
   4  10 -11    0.49    0.16
   4  10 -11    0.24    0.13
  -4  10  11    0.29    0.21
   3 -10 -11    8.44    0.51
   3  10 -11    8.94    0.47
   3  10 -11    9.03    0.56
   3  10 -11    8.01    0.52
   2 -10 -11    0.10    0.17
   2  10 -11    0.17    0.13
   2  10 -11    0.30    0.26
   2  10 -11   -0.20    0.30
   1 -10 -11    3.03    0.30
   1 -10 -11    1.91    0.22
   1  10 -11    2.09    0.34
   1  10 -11    2.33    0.24
   1  10 -11    2.07    0.25
   0 -10 -11    1.22    0.30
   0  10 -11    0.44    0.15
   0  10 -11    0.93    0.23
   0  10 -11    0.80    0.24
  -1 -10 -11    1.98    0.18
  -1  10 -11    2.17    0.31
  -1  10 -11    1.97    0.30
  -1  10 -11    2.61    0.24
  -2  10 -11    0.77    0.19
  -2  10 -11    0.03    0.17
  -4 -11  11   -0.07    0.20
   4 -11 -11    0.06    0.22
   4  11 -11   -0.44    0.28
   4  11 -11    0.00    0.12
   3 -11 -11    4.50    0.36
   3  11 -11    5.79    0.41
   3  11 -11    5.20    0.31
   3  11 -11    4.39    0.38
   2 -11 -11   -0.05    0.16
   2  11 -11    0.30    0.13
   2  11 -11   -0.02    0.24
   1 -11 -11   14.30    0.73
   1 -11 -11   14.59    0.77
   1  11 -11   13.85    0.79
   1  11 -11   15.45    0.74
   1  11 -11   14.87    0.75
   0 -11 -11    0.45    0.20
   0 -11 -11    0.40    0.11
   0  11 -11    0.41    0.17
   0  11 -11    0.73    0.20
   0  11 -11    0.37    0.22
  -1 -11 -11    2.77    0.20
  -1  11 -11    2.68    0.31
  -1  11 -11    3.24    0.25
  -2 -11 -11   10.68    0.55
  -2  11 -11   11.01    0.59
  -2  11 -11   11.44    0.57
   4 -12 -11    0.01    0.16
   4  12 -11   -0.10    0.15
   4  12 -11    0.26    0.12
   3 -12 -11    0.15    0.16
  -3 -12  11    0.26    0.16
   3  12 -11    0.13    0.24
   3  12 -11    0.07    0.21
   3  12 -11    0.24    0.11
   2 -12 -11    0.22    0.16
   2  12 -11    0.18    0.13
   2  12 -11    0.22    0.23
   1 -12 -11   -0.08    0.16
   1 -12 -11   -0.11    0.14
   1  12 -11   -0.19    0.14
   1  12 -11    0.16    0.20
   1  12 -11    0.32    0.14
   0 -12 -11    3.28    0.32
   0 -12 -11    3.59    0.24
   0  12 -11    3.03    0.28
   0  12 -11    3.10    0.34
   0  12 -11    3.63    0.27
  -1 -12 -11   -0.05    0.08
  -1  12 -11    0.20    0.18
  -1  12 -11    0.07    0.12
  -2 -12 -11    1.77    0.14
  -2  12 -11    1.54    0.18
  -2  12 -11    1.87    0.27
   3 -13 -11    9.79    0.52
  -3 -13  11    9.53    0.52
   3  13 -11    7.92    0.54
   3  13 -11    9.70    0.49
   3  13 -11    9.92    0.54
   2 -13 -11    0.23    0.15
   2  13 -11    0.39    0.12
   2  13 -11    0.11    0.20
   1 -13 -11   14.43    0.74
   1  13 -11   15.01    0.73
   1  13 -11   14.50    0.72
   1  13 -11   13.50    0.76
   0 -13 -11    4.90    0.35
   0 -13 -11    4.76    0.29
   0  13 -11    4.92    0.32
   0  13 -11    5.03    0.36
   0  13 -11    5.12    0.35
  -1 -13 -11    0.58    0.12
  -1  13 -11    0.54    0.16
  -1  13 -11    0.53    0.17
   3 -14 -11    0.47    0.16
   3  14 -11    0.17    0.15
   3  14 -11    0.16    0.31
   2 -14 -11    0.47    0.14
   2  14 -11    0.20    0.17
   2  14 -11    0.63    0.17
   1 -14 -11    2.06    0.24
   1  14 -11    2.12    0.23
   1  14 -11    2.09    0.28
   0 -14 -11    0.10    0.17
   0 -14 -11    0.13    0.12
   0  14 -11    0.05    0.21
   0  14 -11    0.09    0.16
   0  14 -11    0.10    0.11
  -1 -14 -11    3.68    0.22
  -1  14 -11    3.60    0.24
  -1  14 -11    3.33    0.29
   3 -15 -11    0.85    0.20
   3  15 -11    1.13    0.16
   2 -15 -11    0.15    0.13
   2  15 -11    0.10    0.16
   2  15 -11   -0.08    0.17
   1 -15 -11    1.13    0.21
   1  15 -11    1.45    0.27
   1  15 -11    0.91    0.21
   0 -15 -11    0.81    0.19
   0 -15 -11    0.95    0.23
   0  15 -11    0.71    0.18
   0  15 -11    0.95    0.22
   2 -16 -11    2.06    0.22
   2  16 -11    2.41    0.26
   2  16 -11    2.38    0.21
   1 -16 -11    0.41    0.13
   1  16 -11    0.65    0.18
   1  16 -11    0.41    0.17
   0 -16 -11    0.53    0.15
   0  16 -11    0.61    0.17
   5   0 -12    0.03    0.13
  -5   0  12    0.07    0.13
   4   0 -12    5.94    0.39
  -4   0  12    6.30    0.38
  -3   0  12    0.42    0.16
   3   0 -12    0.39    0.17
   3   0 -12    0.11    0.18
  -2   0  12    3.30    0.32
   2   0 -12    2.55    0.26
   2   0 -12    2.78    0.33
   1   0 -12    1.59    0.20
   1   0 -12    1.93    0.39
   0   0 -12    0.24    0.11
  -1   0 -12    8.81    0.47
  -2   0 -12    2.90    0.22
  -5  -1  12    0.77    0.20
   5  -1 -12    0.33    0.15
  -5   1  12    0.28    0.12
   5   1 -12    0.21    0.14
  -4  -1  12    1.56    0.21
   4  -1 -12    1.33    0.23
   4   1 -12    1.38    0.23
  -4   1  12    1.49    0.22
   3  -1 -12    1.14    0.27
   3  -1 -12    0.88    0.25
  -3  -1  12    1.30    0.24
   3   1 -12    0.60    0.17
  -3   1  12    0.84    0.17
   3   1 -12    0.88    0.20
   2  -1 -12    0.98    0.21
   2  -1 -12    0.95    0.23
  -2   1  12    1.14    0.27
   2   1 -12    0.56    0.22
   2   1 -12    1.06    0.20
   1  -1 -12    2.49    0.40
   1  -1 -12    3.58    0.24
   1   1 -12    2.84    0.24
   1   1 -12    2.15    0.44
   0  -1 -12    1.89    0.19
   0   1 -12    2.17    0.20
  -1  -1 -12    2.11    0.19
  -1   1 -12    2.41    0.20
  -2  -1 -12    0.50    0.10
  -2   1 -12    0.16    0.17
   5  -2 -12    0.27    0.16
  -5  -2  12    0.25    0.14
   5   2 -12   -0.11    0.13
  -5   2  12    0.07    0.12
   4  -2 -12    9.01    0.51
  -4  -2  12    9.26    0.49
  -4   2  12    9.27    0.49
   4   2 -12    8.26    0.50
   3  -2 -12   -0.26    0.19
   3  -2 -12    0.23    0.18
  -3  -2  12    0.00    0.15
  -3   2  12    0.18    0.15
   3   2 -12   -0.01    0.15
   3   2 -12   -0.12    0.17
   2  -2 -12   38.06    1.83
   2  -2 -12   38.23    1.81
   2   2 -12   37.78    1.81
  -2   2  12   38.91    1.82
   2   2 -12   37.67    1.83
   1  -2 -12   25.57    1.18
   1  -2 -12   22.89    1.21
  -1   2  12   23.91    1.20
   1   2 -12   24.62    1.18
   0  -2 -12    0.25    0.10
   0   2 -12    0.36    0.11
  -1  -2 -12   18.03    0.89
  -1   2 -12   18.45    0.89
  -2  -2 -12   -0.06    0.09
  -2   2 -12    0.00    0.13
   5  -3 -12    0.32    0.16
   5   3 -12    0.79    0.19
   4  -3 -12   10.96    0.60
  -4  -3  12   11.54    0.59
   4   3 -12   11.52    0.80
  -4   3  12   11.32    0.58
   4   3 -12   10.89    0.59
   3  -3 -12    0.73    0.18
   3  -3 -12    0.69    0.23
  -3  -3  12    1.15    0.23
  -3   3  12    0.90    0.24
   3   3 -12    0.42    0.15
   3   3 -12    0.52    0.19
   2  -3 -12    4.80    0.38
   2  -3 -12    4.79    0.32
  -2   3  12    4.14    0.37
   2   3 -12    4.33    0.40
   2   3 -12    5.12    0.32
   2   3 -12    4.77    0.71
   1  -3 -12   -0.04    0.22
   1  -3 -12    0.20    0.11
  -1   3  12    0.51    0.23
   1   3 -12    0.06    0.12
   0  -3 -12    9.05    0.47
   0   3 -12    8.62    0.48
  -1  -3 -12    1.28    0.15
  -1   3 -12    1.29    0.18
  -2  -3 -12    1.17    0.15
  -2   3 -12    1.14    0.24
   4  -4 -12    0.93    0.22
  -4  -4  12    1.24    0.21
   4   4 -12    0.89    0.22
   4   4 -12    1.37    0.32
  -4   4  12    1.05    0.21
  -3  -4  12    1.93    0.26
   3  -4 -12    2.05    0.26
   3   4 -12    2.43    0.31
   3   4 -12    2.03    0.24
  -3   4  12    1.86    0.28
   2  -4 -12    0.02    0.18
   2  -4 -12   -0.23    0.14
   2   4 -12    0.30    0.34
   2   4 -12   -0.06    0.24
  -2   4  12    0.01    0.20
   2   4 -12    0.06    0.12
   1  -4 -12    0.29    0.22
   1  -4 -12    0.39    0.12
   1   4 -12    0.97    0.41
   1   4 -12    0.43    0.12
   0  -4 -12    3.24    0.23
   0   4 -12    4.23    0.55
   0   4 -12    3.17    0.25
  -1  -4 -12    2.49    0.19
  -1   4 -12    2.34    0.21
  -2  -4 -12    2.30    0.18
  -4  -5  12    0.25    0.14
   4  -5 -12    0.34    0.15
   4   5 -12    1.05    0.28
  -4   5  12    0.45    0.15
   4   5 -12    0.39    0.16
  -3  -5  12   15.44    0.73
   3  -5 -12   13.79    0.74
   3   5 -12   14.34    0.72
   3   5 -12   13.88    0.74
  -3   5  12   13.25    0.73
   2  -5 -12   -0.03    0.14
   2  -5 -12   -0.07    0.18
   2   5 -12   -0.05    0.12
   2   5 -12    0.19    0.24
  -2   5  12    0.02    0.21
   2   5 -12   -0.02    0.31
   1  -5 -12    5.59    0.43
   1  -5 -12    6.35    0.36
   1   5 -12    6.30    0.57
   1   5 -12    5.96    0.36
   0  -5 -12    1.12    0.16
   0   5 -12    1.31    0.23
   0   5 -12    1.20    0.33
   0   5 -12    1.02    0.19
  -1  -5 -12    6.00    0.33
  -1   5 -12    5.91    0.35
  -1   5 -12    5.79    0.37
  -1   5 -12    5.25    0.57
  -2  -5 -12    7.73    0.41
  -4  -6  12    0.84    0.21
   4  -6 -12    0.60    0.17
   4   6 -12    0.41    0.15
   4   6 -12    1.02    0.26
  -4   6  12    0.68    0.24
   3  -6 -12    0.18    0.18
  -3  -6  12    0.33    0.16
   3   6 -12    0.06    0.13
   3   6 -12    0.26    0.20
  -3   6  12    0.13    0.18
   2  -6 -12    0.49    0.18
   2  -6 -12    0.38    0.16
   2   6 -12    0.54    0.26
  -2   6  12    0.36    0.27
   2   6 -12    0.26    0.28
   2   6 -12    0.46    0.13
   1  -6 -12    0.92    0.18
   1  -6 -12    1.14    0.22
   1   6 -12    0.95    0.30
   1   6 -12    0.97    0.18
   0  -6 -12    0.18    0.09
   0   6 -12    0.03    0.14
   0   6 -12    0.44    0.13
   0   6 -12   -0.07    0.27
  -1  -6 -12   -0.06    0.08
  -1   6 -12    0.18    0.15
  -1   6 -12    0.10    0.12
  -1   6 -12   -0.15    0.28
  -2  -6 -12    2.66    0.20
   4  -7 -12    3.83    0.30
   4   7 -12    4.37    0.31
  -4   7  12    4.32    0.30
   4   7 -12    3.87    0.32
   3  -7 -12   17.60    0.88
  -3  -7  12   18.24    0.87
   3   7 -12   18.44    0.85
  -3   7  12   16.44    0.88
   3   7 -12   17.50    0.93
   3   7 -12   15.83    0.87
   2  -7 -12    1.10    0.26
   2  -7 -12    1.68    0.26
   2   7 -12    1.57    0.20
   2   7 -12    0.94    0.29
   2   7 -12    1.30    0.29
   1  -7 -12   12.88    0.65
   1  -7 -12   12.80    0.69
   1   7 -12   13.12    0.65
   1   7 -12   11.94    0.74
   0  -7 -12    3.28    0.40
   0  -7 -12    2.38    0.19
   0   7 -12    2.33    0.23
   0   7 -12    2.20    0.24
   0   7 -12    1.64    0.38
  -1  -7 -12    0.30    0.09
  -1   7 -12    0.29    0.14
  -1   7 -12    0.20    0.14
  -1   7 -12    0.29    0.26
  -2  -7 -12    3.16    0.20
  -4  -8  12    1.36    0.22
   4  -8 -12    1.52    0.29
  -4   8  12    1.41    0.31
   4   8 -12    1.38    0.23
   4   8 -12    1.55    0.23
  -3  -8  12    0.63    0.15
   3  -8 -12    0.38    0.16
   3   8 -12    0.54    0.26
   3   8 -12    0.37    0.20
  -3   8  12    0.13    0.39
   3   8 -12    0.35    0.13
   2  -8 -12    1.29    0.30
   2  -8 -12    2.11    0.26
   2   8 -12    1.22    0.35
   2   8 -12    1.31    0.19
   1  -8 -12   -0.03    0.17
   1  -8 -12   -0.06    0.11
   1   8 -12    0.22    0.25
   1   8 -12    0.01    0.12
   0  -8 -12    0.54    0.14
   0  -8 -12    0.66    0.25
   0   8 -12    0.79    0.19
   0   8 -12    0.47    0.14
   0   8 -12    0.67    0.24
  -1  -8 -12    2.35    0.17
  -1   8 -12    1.50    0.27
  -1   8 -12    1.70    0.21
  -1   8 -12    2.18    0.26
  -2  -8 -12    0.24    0.08
  -4  -9  12    0.27    0.16
   4  -9 -12    0.03    0.14
   4   9 -12    0.21    0.16
   4   9 -12    0.18    0.14
   3  -9 -12    1.56    0.23
  -3  -9  12    2.38    0.24
   3   9 -12    1.67    0.34
   3   9 -12    2.09    0.20
   2  -9 -12    0.13    0.16
   2   9 -12    0.27    0.12
   2   9 -12   -0.10    0.24
   1  -9 -12    2.83    0.31
   1  -9 -12    3.04    0.24
   1   9 -12    3.39    0.37
   1   9 -12    3.15    0.25
   0  -9 -12    1.24    0.15
   0  -9 -12    1.97    0.51
   0   9 -12    1.18    0.29
   0   9 -12    1.06    0.19
   0   9 -12    1.13    0.20
  -1  -9 -12    2.09    0.16
  -1   9 -12    2.07    0.20
  -1   9 -12    2.44    0.49
  -3 -10  12    0.97    0.20
   3 -10 -12    1.10    0.21
   3  10 -12    1.19    0.31
   3  10 -12    0.75    0.23
   3  10 -12    0.66    0.17
   2 -10 -12    4.96    0.34
   2  10 -12    5.12    0.30
   2  10 -12    4.37    0.39
   1 -10 -12    2.60    0.28
   1 -10 -12    2.42    0.23
   1  10 -12    2.40    0.22
   1  10 -12    2.76    0.34
   0 -10 -12    2.41    0.34
   0 -10 -12    2.48    0.19
   0  10 -12    2.31    0.23
   0  10 -12    2.25    0.30
   0  10 -12    2.42    0.22
  -1 -10 -12    0.14    0.07
  -1  10 -12    0.04    0.19
  -3 -11  12    7.13    0.40
   3 -11 -12    6.38    0.40
   2 -11 -12    0.23    0.15
   2  11 -12    0.01    0.19
   2  11 -12    0.10    0.11
   1 -11 -12    0.23    0.14
   1 -11 -12    0.20    0.16
   1  11 -12    0.26    0.21
   1  11 -12    0.13    0.12
   0 -11 -12    2.63    0.20
   0 -11 -12    1.84    0.33
   0  11 -12    2.86    0.26
   0  11 -12    3.00    0.29
   0  11 -12    2.90    0.22
  -1 -11 -12    0.51    0.11
  -1  11 -12    0.17    0.17
  -1  11 -12    0.31    0.11
   3 -12 -12    0.53    0.14
  -3 -12  12    0.56    0.17
   3  12 -12    0.35    0.11
   2 -12 -12   -0.01    0.14
   2  12 -12    0.25    0.18
   2  12 -12    0.21    0.11
   1 -12 -12    2.28    0.26
   1  12 -12    2.34    0.22
   1  12 -12    2.20    0.31
   0 -12 -12    5.59    0.43
   0 -12 -12    6.44    0.33
   0  12 -12    6.09    0.39
   2 -13 -12    6.30    0.38
   2  13 -12    6.90    0.36
   1 -13 -12    1.22    0.22
   1  13 -12    1.19    0.26
   1  13 -12    1.09    0.19
   0 -13 -12    0.03    0.12
   0  13 -12   -0.01    0.17
   1 -14 -12    3.25    0.26
   1  14 -12    3.25    0.28
   1  14 -12    3.25    0.28
  -4   0  13    0.16    0.13
   4   0 -13   -0.10    0.13
   3   0 -13    0.09    0.15
   3   0 -13    0.08    0.18
  -3   0  13    0.04    0.13
   2   0 -13   -0.08    0.12
   2   0 -13    0.18    0.20
  -2   0  13    0.27    0.16
   1   0 -13   -0.06    0.10
  -1   0  13    0.28    0.19
   0   0 -13   -0.16    0.09
  -1   0 -13   -0.08    0.09
   4  -1 -13    6.74    0.41
  -4  -1  13    7.45    0.39
   4   1 -13    6.49    0.40
  -4   1  13    7.65    0.39
  -3  -1  13    0.39    0.14
   3  -1 -13    0.38    0.22
   3  -1 -13    0.65    0.17
  -3   1  13    0.14    0.14
   3   1 -13    0.34    0.17
   2  -1 -13    7.61    0.48
  -2  -1  13    8.05    0.45
   2  -1 -13    8.44    0.47
   2   1 -13    7.97    0.43
   2   1 -13    6.92    0.48
  -2   1  13    7.42    0.45
   1  -1 -13   22.54    1.07
  -1  -1  13   22.18    1.09
   1   1 -13   22.71    1.08
  -1   1  13   21.83    1.10
   0  -1 -13    0.23    0.10
   0   1 -13    0.19    0.09
  -1  -1 -13    0.12    0.09
  -1   1 -13   -0.09    0.10
   4  -2 -13    0.22    0.15
  -4  -2  13    0.53    0.14
   4   2 -13    0.68    0.20
  -4   2  13    0.22    0.14
   3  -2 -13    1.60    0.25
  -3  -2  13    1.87    0.22
  -3   2  13    2.03    0.25
   3   2 -13    2.17    0.26
   3   2 -13    1.86    0.27
  -2  -2  13    3.47    0.27
   2  -2 -13    2.97    0.31
   2  -2 -13    2.85    0.25
  -2   2  13    2.60    0.29
   2   2 -13    3.03    0.24
   2   2 -13    2.40    0.36
   1  -2 -13    0.16    0.11
   1   2 -13    0.23    0.10
   0  -2 -13    0.56    0.14
   0   2 -13    0.52    0.11
  -1  -2 -13    1.16    0.14
  -1   2 -13    1.04    0.24
  -4  -3  13    2.61    0.23
   4  -3 -13    2.29    0.23
  -4   3  13    2.70    0.24
   4   3 -13    2.53    0.24
   3  -3 -13    2.08    0.25
  -3  -3  13    2.60    0.23
   3   3 -13    2.38    0.27
   3   3 -13    2.65    0.26
   2  -3 -13    6.23    0.39
   2  -3 -13    6.49    0.42
  -2  -3  13    7.33    0.41
  -2   3  13    6.44    0.43
   2   3 -13    6.67    0.38
   1  -3 -13    1.50    0.18
   1   3 -13    1.44    0.18
   0  -3 -13    0.52    0.13
   0   3 -13    0.49    0.11
  -1  -3 -13    0.04    0.08
  -1   3 -13    0.00    0.11
   4  -4 -13    1.17    0.20
  -4  -4  13    1.65    0.20
  -4   4  13    1.37    0.23
   4   4 -13    1.43    0.21
   3  -4 -13    0.91    0.22
  -3  -4  13    0.80    0.20
  -3   4  13    0.78    0.18
   3   4 -13    0.59    0.20
   3   4 -13    0.13    0.24
   2  -4 -13    3.60    0.29
   2  -4 -13    3.96    0.33
  -2  -4  13    4.25    0.30
   2   4 -13    2.73    0.47
  -2   4  13    3.79    0.41
   2   4 -13    4.56    0.27
   1  -4 -13    8.08    0.44
   1   4 -13    8.19    0.44
   0  -4 -13    0.16    0.09
   0   4 -13    0.14    0.10
  -1  -4 -13   18.28    0.86
  -1   4 -13   16.22    0.83
   3  -5 -13    0.19    0.14
  -3  -5  13    0.22    0.13
   3   5 -13    0.07    0.18
  -3   5  13   -0.11    0.22
   2  -5 -13    0.04    0.17
   2   5 -13    0.10    0.11
   1  -5 -13   -0.01    0.32
   1  -5 -13    0.43    0.11
   1   5 -13    0.33    0.10
   0  -5 -13   11.89    0.58
   0   5 -13   11.29    0.58
  -1  -5 -13    0.40    0.09
  -1   5 -13    0.46    0.14
  -3  -6  13    0.05    0.12
   3  -6 -13   -0.12    0.14
   3   6 -13    0.21    0.20
   3   6 -13   -0.25    0.12
   2  -6 -13    1.93    0.25
   2  -6 -13    2.33    0.28
   2   6 -13    2.11    0.54
   2   6 -13    2.31    0.21
   1  -6 -13    4.23    0.39
   1  -6 -13    4.82    0.30
   1   6 -13    5.25    0.30
   0  -6 -13    0.62    0.13
   0   6 -13    0.67    0.16
  -1  -6 -13   10.48    0.52
   3  -7 -13    0.65    0.19
  -3  -7  13    0.73    0.18
   3   7 -13    0.82    0.18
   3   7 -13    1.22    0.34
   2  -7 -13    0.23    0.16
   2   7 -13    0.09    0.10
   2   7 -13    0.39    0.32
   1  -7 -13    6.63    0.46
   1  -7 -13    7.23    0.40
   1   7 -13    7.79    0.40
   1   7 -13    7.58    0.59
   0  -7 -13    0.82    0.14
   0   7 -13    0.92    0.19
  -1  -7 -13    0.05    0.08
  -3  -8  13   -0.05    0.12
   3  -8 -13    0.21    0.13
   3   8 -13   -0.01    0.12
   2   8 -13    6.83    0.51
   2   8 -13    7.04    0.37
   1  -8 -13   10.51    0.64
   1  -8 -13   13.07    0.60
   1   8 -13   10.74    0.69
   1   8 -13   12.54    0.59
   0  -8 -13   11.76    0.56
   0   8 -13   11.42    0.57
   0   8 -13   10.58    0.72
   2  -9 -13    0.61    0.17
   2   9 -13    0.95    0.26
   2   9 -13    0.81    0.15
   1  -9 -13   -0.28    0.21
   1  -9 -13    0.60    0.14
   1   9 -13    0.48    0.26
   1   9 -13    0.35    0.11
   0  -9 -13    2.56    0.20
   0   9 -13    2.80    0.24
  -2 -10  13    0.80    0.19
   2 -10 -13    0.78    0.22
   2  10 -13    0.41    0.11
   2  10 -13    0.33    0.25
   1 -10 -13    3.71    0.37
   1  10 -13    5.30    0.28
   1  10 -13    4.38    0.41
  -2   0  14    0.58    0.20
   2   0 -14    0.86    0.20
   1   0 -14    1.74    0.17
   0   0 -14    0.00    0.09
   2  -1 -14    4.77    0.32
  -2  -1  14    5.33    0.34
   2   1 -14    5.10    0.31
   1  -1 -14    0.16    0.10
   1   1 -14   -0.05    0.09
   0  -1 -14    0.21    0.09
   0   1 -14    0.37    0.09
  -2  -2  14    1.70    0.23
   2   2 -14    1.32    0.19
   1  -2 -14    5.75    0.32
   1   2 -14    5.73    0.32
  -2  -3  14    2.02    0.22
   2  -3 -14    2.25    0.43
   2   3 -14    1.65    0.19
   1  -3 -14    4.80    0.29
  -1  -3  14    5.15    0.37
   1   3 -14    5.23    0.29
  -2  -4  14    0.17    0.14
   2   4 -14    0.17    0.11
  -1  -4  14    0.43    0.17
   1  -4 -14    0.00    0.10
   1   4 -14   -0.03    0.09
  -1  -5  14    0.01    0.16
   0   0   0    0.00    0.00
;
_shelx_hkl_checksum              52011
_shelx_res_file
;
    SKM189_0m.res created by SHELXL-2014/7
TITL SKM189_0m_a.res in P2(1)/c
REM Old TITL SKM189_0m in P2(1)/c
REM SHELXT solution in P2(1)/c
REM R1 0.105,  Rweak 0.005,  Alpha 0.023,  Orientation as input
REM Formula found by SHELXT:  C16 N4 O S
CELL  1.54178   5.9850  21.0709  11.5617   90.000  100.423   90.000
ZERR    4.000   0.0003   0.0010   0.0005    0.000    0.002    0.000
LATT  1
SYMM -X, 1/2+Y, 1/2-Z
SFAC C H N O S
UNIT 64 48 16 4 4
TEMP -123
SIZE 0.016 0.158 0.301
L.S. 5
ACTA 139
BOND $H
LIST 4
FMAP 2
PLAN 5
CONF
OMIT 4 1 4
MPLA C2 > C7
MPLA S1 C1 C8 C9 N1 > N4
MPLA C11 > C16
WGHT    0.040700    0.542300
FVAR       0.21095
S1    5    0.806392    0.539010    0.803409    11.00000    0.02384    0.03286 =
         0.03077   -0.00098   -0.00293   -0.00024
O1    4    0.273879    0.329893    0.830391    11.00000    0.03132    0.03771 =
         0.03941   -0.01349    0.01196   -0.00969
N1    3    0.406906    0.483866    0.746360    11.00000    0.02437    0.03395 =
         0.02684   -0.00462   -0.00306    0.00487
N2    3    0.521252    0.459187    0.850758    11.00000    0.02205    0.02830 =
         0.02909   -0.00394   -0.00212    0.00182
N3    3    0.812008    0.455775    0.998875    11.00000    0.02636    0.03170 =
         0.03361   -0.00083   -0.00188    0.00068
N4    3    0.645030    0.412844    1.018799    11.00000    0.03000    0.03139 =
         0.03485   -0.00196    0.00073    0.00163
C1    1    0.538903    0.526242    0.712084    11.00000    0.02463    0.03060 =
         0.02892   -0.00707    0.00009    0.00516
C2    1    0.472996    0.562915    0.603100    11.00000    0.03077    0.03248 =
         0.02748   -0.00578    0.00080    0.00810
C3    1    0.628625    0.602942    0.564074    11.00000    0.03340    0.04540 =
         0.03349    0.00030    0.00288    0.00643
AFIX  43
H3    2    0.778421    0.606659    0.607928    11.00000   -1.20000
AFIX   0
C4    1    0.565195    0.637502    0.460995    11.00000    0.04895    0.05023 =
         0.03826    0.00691    0.01088    0.00954
AFIX  43
H4    2    0.672202    0.664489    0.434075    11.00000   -1.20000
AFIX   0
C5    1    0.346740    0.632700    0.397539    11.00000    0.05562    0.05301 =
         0.03108    0.00385    0.00220    0.02084
AFIX  43
H5    2    0.303452    0.656624    0.327418    11.00000   -1.20000
AFIX   0
C6    1    0.190768    0.592976    0.436196    11.00000    0.04223    0.05489 =
         0.03314   -0.00477   -0.00744    0.01620
AFIX  43
H6    2    0.040940    0.589623    0.392238    11.00000   -1.20000
AFIX   0
C7    1    0.252368    0.558209    0.538482    11.00000    0.03283    0.04280 =
         0.03281   -0.00585   -0.00408    0.00718
AFIX  43
H7    2    0.144847    0.531156    0.564801    11.00000   -1.20000
AFIX   0
C8    1    0.731012    0.482424    0.896599    11.00000    0.02207    0.02838 =
         0.03121   -0.00525   -0.00143    0.00177
C9    1    0.473455    0.415345    0.929627    11.00000    0.02749    0.02845 =
         0.03132   -0.00443    0.00235    0.00269
C10   1    0.264493    0.376802    0.917919    11.00000    0.03018    0.03443 =
         0.03481   -0.00911    0.00633   -0.00281
AFIX  23
H10A  2    0.254517    0.356316    0.993876    11.00000   -1.20000
H10B  2    0.129032    0.404031    0.894581    11.00000   -1.20000
AFIX   0
C11   1    0.100459    0.286026    0.812650    11.00000    0.02568    0.02986 =
         0.02724    0.00130    0.00210   -0.00267
C12   1   -0.078137    0.285036    0.874183    11.00000    0.03214    0.04069 =
         0.02829   -0.00244    0.00634   -0.00304
AFIX  43
H12   2   -0.086059    0.315475    0.933922    11.00000   -1.20000
AFIX   0
C13   1   -0.245605    0.238797    0.847139    11.00000    0.03343    0.04853 =
         0.03703    0.00620    0.00897   -0.00858
AFIX  43
H13   2   -0.367877    0.237568    0.889274    11.00000   -1.20000
AFIX   0
C14   1   -0.236134    0.194744    0.759897    11.00000    0.03963    0.03600 =
         0.03789    0.00477    0.00100   -0.01110
AFIX  43
H14   2   -0.352033    0.163644    0.741465    11.00000   -1.20000
AFIX   0
C15   1   -0.056779    0.196147    0.699426    11.00000    0.04294    0.03031 =
         0.03263   -0.00165    0.00141   -0.00370
AFIX  43
H15   2   -0.050044    0.165882    0.639249    11.00000   -1.20000
AFIX   0
C16   1    0.113023    0.241260    0.725802    11.00000    0.03434    0.03457 =
         0.03077   -0.00253    0.00812   -0.00306
AFIX  43
H16   2    0.237080    0.241604    0.684865    11.00000   -1.20000
AFIX   0
HKLF 4
REM  SKM189_0m_a.res in P2(1)/c
REM R1 =  0.0351 for    2464 Fo > 4sig(Fo)  and  0.0407 for all    2799 data
REM    199 parameters refined using      0 restraints
END
WGHT      0.0402      0.5459
REM Highest difference peak  0.199,  deepest hole -0.301,  1-sigma level  0.044
Q1    1   0.6295  0.5757  0.7906  11.00000  0.05    0.20
Q2    1   0.9935  0.5755  0.8174  11.00000  0.05    0.16
Q3    1   0.7335  0.5593  0.8946  11.00000  0.05    0.16
Q4    1   0.4980  0.5429  0.6533  11.00000  0.05    0.16
Q5    1   0.3813  0.3524  0.7596  11.00000  0.05    0.15
;
_shelx_res_checksum              82991
loop_
_space_group_symop_operation_xyz
'x, y, z'
'-x, y+1/2, -z+1/2'
'-x, -y, -z'
'x, -y-1/2, z-1/2'
loop_
_atom_site_type_symbol
_atom_site_label
_atom_site_fract_x
_atom_site_fract_y
_atom_site_fract_z
_atom_site_U_iso_or_equiv
_atom_site_adp_type
_atom_site_calc_flag
_atom_site_occupancy
S S1 0.80639(6) 0.53901(2) 0.80341(3) 0.03014(13) Uani d 1
O O1 0.27388(19) 0.32989(6) 0.83039(10) 0.0355(3) Uani d 1
N N1 0.4069(2) 0.48387(6) 0.74636(11) 0.0293(3) Uani d 1
N N2 0.5213(2) 0.45919(6) 0.85076(11) 0.0273(3) Uani d 1
N N3 0.8120(2) 0.45577(6) 0.99887(12) 0.0315(3) Uani d 1
N N4 0.6450(2) 0.41284(6) 1.01880(12) 0.0327(3) Uani d 1
C C1 0.5389(3) 0.52624(7) 0.71208(14) 0.0286(3) Uani d 1
C C2 0.4730(3) 0.56291(8) 0.60310(13) 0.0308(3) Uani d 1
C C3 0.6286(3) 0.60294(9) 0.56407(15) 0.0378(4) Uani d 1
H H3 0.7784 0.6067 0.6079 0.045 Uiso calc 1
C C4 0.5652(4) 0.63750(10) 0.46100(17) 0.0454(5) Uani d 1
H H4 0.6722 0.6645 0.4341 0.055 Uiso calc 1
C C5 0.3467(4) 0.63270(10) 0.39754(16) 0.0473(5) Uani d 1
H H5 0.3035 0.6566 0.3274 0.057 Uiso calc 1
C C6 0.1908(3) 0.59298(10) 0.43620(16) 0.0452(5) Uani d 1
H H6 0.0409 0.5896 0.3922 0.054 Uiso calc 1
C C7 0.2524(3) 0.55821(9) 0.53848(15) 0.0374(4) Uani d 1
H H7 0.1448 0.5312 0.5648 0.045 Uiso calc 1
C C8 0.7310(2) 0.48242(7) 0.89660(14) 0.0280(3) Uani d 1
C C9 0.4735(3) 0.41535(7) 0.92963(14) 0.0295(3) Uani d 1
C C10 0.2645(3) 0.37680(8) 0.91792(15) 0.0331(4) Uani d 1
H H10A 0.2545 0.3563 0.9939 0.040 Uiso calc 1
H H10B 0.1290 0.4040 0.8946 0.040 Uiso calc 1
C C11 0.1005(3) 0.28603(7) 0.81265(13) 0.0279(3) Uani d 1
C C12 -0.0781(3) 0.28504(8) 0.87418(14) 0.0336(4) Uani d 1
H H12 -0.0861 0.3155 0.9339 0.040 Uiso calc 1
C C13 -0.2456(3) 0.23880(9) 0.84714(15) 0.0393(4) Uani d 1
H H13 -0.3679 0.2376 0.8893 0.047 Uiso calc 1
C C14 -0.2361(3) 0.19474(8) 0.75990(15) 0.0386(4) Uani d 1
H H14 -0.3520 0.1636 0.7415 0.046 Uiso calc 1
C C15 -0.0568(3) 0.19615(8) 0.69943(15) 0.0360(4) Uani d 1
H H15 -0.0500 0.1659 0.6392 0.043 Uiso calc 1
C C16 0.1130(3) 0.24126(8) 0.72580(14) 0.0329(4) Uani d 1
H H16 0.2371 0.2416 0.6849 0.040 Uiso calc 1
loop_
_atom_site_aniso_label
_atom_site_aniso_U_11
_atom_site_aniso_U_22
_atom_site_aniso_U_33
_atom_site_aniso_U_12
_atom_site_aniso_U_13
_atom_site_aniso_U_23
S1 0.0238(2) 0.0329(2) 0.0308(2) -0.00024(14) -0.00293(15) -0.00098(15)
O1 0.0313(6) 0.0377(6) 0.0394(6) -0.0097(5) 0.0120(5) -0.0135(5)
N1 0.0244(6) 0.0340(7) 0.0268(6) 0.0049(5) -0.0031(5) -0.0046(5)
N2 0.0220(6) 0.0283(7) 0.0291(6) 0.0018(5) -0.0021(5) -0.0039(5)
N3 0.0264(6) 0.0317(7) 0.0336(7) 0.0007(5) -0.0019(5) -0.0008(5)
N4 0.0300(7) 0.0314(7) 0.0348(7) 0.0016(5) 0.0007(6) -0.0020(6)
C1 0.0246(7) 0.0306(8) 0.0289(8) 0.0052(6) 0.0001(6) -0.0071(6)
C2 0.0308(8) 0.0325(8) 0.0275(7) 0.0081(6) 0.0008(6) -0.0058(6)
C3 0.0334(9) 0.0454(10) 0.0335(8) 0.0064(7) 0.0029(7) 0.0003(7)
C4 0.0489(11) 0.0502(11) 0.0383(10) 0.0095(8) 0.0109(8) 0.0069(8)
C5 0.0556(12) 0.0530(12) 0.0311(9) 0.0208(9) 0.0022(8) 0.0039(8)
C6 0.0422(10) 0.0549(12) 0.0331(9) 0.0162(9) -0.0074(8) -0.0048(8)
C7 0.0328(9) 0.0428(10) 0.0328(8) 0.0072(7) -0.0041(7) -0.0058(7)
C8 0.0221(7) 0.0284(8) 0.0312(8) 0.0018(6) -0.0014(6) -0.0052(6)
C9 0.0275(8) 0.0284(8) 0.0313(8) 0.0027(6) 0.0024(6) -0.0044(6)
C10 0.0302(8) 0.0344(9) 0.0348(8) -0.0028(6) 0.0063(7) -0.0091(7)
C11 0.0257(7) 0.0299(8) 0.0272(7) -0.0027(6) 0.0021(6) 0.0013(6)
C12 0.0321(8) 0.0407(9) 0.0283(8) -0.0030(7) 0.0063(6) -0.0024(7)
C13 0.0334(9) 0.0485(11) 0.0370(9) -0.0086(7) 0.0090(7) 0.0062(8)
C14 0.0396(9) 0.0360(9) 0.0379(9) -0.0111(7) 0.0010(7) 0.0048(7)
C15 0.0429(9) 0.0303(9) 0.0326(8) -0.0037(7) 0.0014(7) -0.0017(7)
C16 0.0343(9) 0.0346(9) 0.0308(8) -0.0031(7) 0.0081(7) -0.0025(6)
loop_
_atom_type_symbol
_atom_type_description
_atom_type_scat_dispersion_real
_atom_type_scat_dispersion_imag
_atom_type_scat_source
C C 0.0181 0.0091 'International Tables Vol C Tables 4.2.6.8 and 6.1.1.4'
H H 0.0000 0.0000 'International Tables Vol C Tables 4.2.6.8 and 6.1.1.4'
N N 0.0311 0.0180 'International Tables Vol C Tables 4.2.6.8 and 6.1.1.4'
O O 0.0492 0.0322 'International Tables Vol C Tables 4.2.6.8 and 6.1.1.4'
S S 0.3331 0.5567 'International Tables Vol C Tables 4.2.6.8 and 6.1.1.4'
loop_
_geom_angle_atom_site_label_1
_geom_angle_atom_site_label_2
_geom_angle_atom_site_label_3
_geom_angle
C8 S1 C1 87.53(7)
C11 O1 C10 116.52(12)
C1 N1 N2 107.06(12)
C8 N2 C9 105.86(13)
C8 N2 N1 118.82(13)
C9 N2 N1 135.27(13)
C8 N3 N4 105.39(13)
C9 N4 N3 108.93(13)
N1 C1 C2 122.58(14)
N1 C1 S1 117.12(12)
C2 C1 S1 120.30(12)
C3 C2 C7 119.53(16)
C3 C2 C1 120.35(15)
C7 C2 C1 120.12(16)
C4 C3 C2 120.06(17)
C4 C3 H3 120.0
C2 C3 H3 120.0
C5 C4 C3 120.15(19)
C5 C4 H4 119.9
C3 C4 H4 119.9
C4 C5 C6 120.02(17)
C4 C5 H5 120.0
C6 C5 H5 120.0
C7 C6 C5 120.29(18)
C7 C6 H6 119.9
C5 C6 H6 119.9
C6 C7 C2 119.95(18)
C6 C7 H7 120.0
C2 C7 H7 120.0
N3 C8 N2 111.04(14)
N3 C8 S1 139.50(12)
N2 C8 S1 109.45(11)
N4 C9 N2 108.78(14)
N4 C9 C10 125.22(15)
N2 C9 C10 125.99(14)
O1 C10 C9 107.79(13)
O1 C10 H10A 110.1
C9 C10 H10A 110.1
O1 C10 H10B 110.1
C9 C10 H10B 110.1
H10A C10 H10B 108.5
O1 C11 C12 124.31(14)
O1 C11 C16 115.17(14)
C12 C11 C16 120.52(15)
C11 C12 C13 119.05(16)
C11 C12 H12 120.5
C13 C12 H12 120.5
C14 C13 C12 120.80(16)
C14 C13 H13 119.6
C12 C13 H13 119.6
C13 C14 C15 119.57(16)
C13 C14 H14 120.2
C15 C14 H14 120.2
C14 C15 C16 120.60(16)
C14 C15 H15 119.7
C16 C15 H15 119.7
C15 C16 C11 119.45(16)
C15 C16 H16 120.3
C11 C16 H16 120.3
loop_
_geom_bond_atom_site_label_1
_geom_bond_atom_site_label_2
_geom_bond_distance
S1 C8 1.7210(17)
S1 C1 1.7716(15)
O1 C11 1.3772(18)
O1 C10 1.4229(19)
N1 C1 1.301(2)
N1 N2 1.3772(18)
N2 C8 1.362(2)
N2 C9 1.364(2)
N3 C8 1.320(2)
N3 N4 1.3976(19)
N4 C9 1.318(2)
C1 C2 1.470(2)
C2 C3 1.391(3)
C2 C7 1.398(2)
C3 C4 1.390(3)
C3 H3 0.9500
C4 C5 1.382(3)
C4 H4 0.9500
C5 C6 1.387(3)
C5 H5 0.9500
C6 C7 1.383(3)
C6 H6 0.9500
C7 H7 0.9500
C9 C10 1.477(2)
C10 H10A 0.9900
C10 H10B 0.9900
C11 C12 1.387(2)
C11 C16 1.390(2)
C12 C13 1.392(2)
C12 H12 0.9500
C13 C14 1.379(3)
C13 H13 0.9500
C14 C15 1.383(3)
C14 H14 0.9500
C15 C16 1.385(2)
C15 H15 0.9500
C16 H16 0.9500
loop_
_geom_hbond_atom_site_label_D
_geom_hbond_atom_site_label_H
_geom_hbond_atom_site_label_A
_geom_hbond_site_symmetry_A
_geom_hbond_distance_DH
_geom_hbond_distance_HA
_geom_hbond_distance_DA
_geom_hbond_angle_DHA
C5 H5 Cg 3_566 0.95 2.79 3.633(2) 148
loop_
_geom_torsion_atom_site_label_1
_geom_torsion_atom_site_label_2
_geom_torsion_atom_site_label_3
_geom_torsion_atom_site_label_4
_geom_torsion
C1 N1 N2 C8 1.29(18)
C1 N1 N2 C9 178.30(16)
C8 N3 N4 C9 -0.08(17)
N2 N1 C1 C2 -179.93(13)
N2 N1 C1 S1 -0.27(16)
C8 S1 C1 N1 -0.54(13)
C8 S1 C1 C2 179.13(13)
N1 C1 C2 C3 -173.41(15)
S1 C1 C2 C3 6.9(2)
N1 C1 C2 C7 7.2(2)
S1 C1 C2 C7 -172.46(12)
C7 C2 C3 C4 -0.6(3)
C1 C2 C3 C4 -179.97(16)
C2 C3 C4 C5 0.6(3)
C3 C4 C5 C6 -0.5(3)
C4 C5 C6 C7 0.3(3)
C5 C6 C7 C2 -0.2(3)
C3 C2 C7 C6 0.4(2)
C1 C2 C7 C6 179.76(15)
N4 N3 C8 N2 0.43(17)
N4 N3 C8 S1 178.84(15)
C9 N2 C8 N3 -0.62(17)
N1 N2 C8 N3 177.19(12)
C9 N2 C8 S1 -179.52(10)
N1 N2 C8 S1 -1.71(17)
C1 S1 C8 N3 -177.26(19)
C1 S1 C8 N2 1.16(11)
N3 N4 C9 N2 -0.30(17)
N3 N4 C9 C10 179.72(14)
C8 N2 C9 N4 0.55(17)
N1 N2 C9 N4 -176.72(15)
C8 N2 C9 C10 -179.47(15)
N1 N2 C9 C10 3.3(3)
C11 O1 C10 C9 175.43(13)
N4 C9 C10 O1 -106.96(18)
N2 C9 C10 O1 73.1(2)
C10 O1 C11 C12 -0.2(2)
C10 O1 C11 C16 179.35(14)
O1 C11 C12 C13 179.05(15)
C16 C11 C12 C13 -0.4(2)
C11 C12 C13 C14 -0.5(3)
C12 C13 C14 C15 0.7(3)
C13 C14 C15 C16 0.1(3)
C14 C15 C16 C11 -1.0(3)
O1 C11 C16 C15 -178.35(14)
C12 C11 C16 C15 1.2(2)

_cod_database_fobs_code 1543175
