#------------------------------------------------------------------------------
#$Date: 2016-04-06 04:59:11 +0300 (Wed, 06 Apr 2016) $
#$Revision: 181834 $
#$URL: svn://www.crystallography.net/cod/cif/1/54/30/1543041.cif $
#------------------------------------------------------------------------------
#
# This file is available in the Crystallography Open Database (COD),
# http://www.crystallography.net/
#
# All data on this site have been placed in the public domain by the
# contributors.
#
data_1543041
loop_
_publ_author_name
'Mague, Joel T.'
'Mohamed, Shaaban K.'
'Akkurt, Mehmet'
'Bakhite, Etify A.'
'Albayati, Mustafa R.'
_publ_section_title
;
 Ethyl
 4-(4-chlorophenyl)-5-cyano-2-methyl-6-sulfanylidene-1,6-dihydropyridine-3-carboxylate
;
_journal_coeditor_code           SU4024
_journal_issue                   4
_journal_name_full               IUCrData
_journal_page_first              x160531
_journal_paper_doi               10.1107/S2414314616005319
_journal_volume                  1
_journal_year                    2016
_chemical_formula_moiety         'C16 H13 Cl N2 O2 S'
_chemical_formula_sum            'C16 H13 Cl N2 O2 S'
_chemical_formula_weight         332.79
_chemical_name_systematic
'Ethyl 4-(4-chlorophenyl)-5-cyano-2-methyl-6-sulfanylidene-1,6-dihydropyridine-3-carboxylate'
_space_group_crystal_system      triclinic
_space_group_IT_number           2
_space_group_name_Hall           '-P 1'
_space_group_name_H-M_alt        'P -1'
_symmetry_space_group_name_Hall  '-P 1'
_symmetry_space_group_name_H-M   'P -1'
_atom_sites_solution_hydrogens   mixed
_atom_sites_solution_primary     direct
_atom_sites_solution_secondary   difmap
_audit_creation_method           SHELXL-2014/7
_cell_angle_alpha                85.9900(10)
_cell_angle_beta                 81.4100(10)
_cell_angle_gamma                82.2940(10)
_cell_formula_units_Z            2
_cell_length_a                   5.9498(2)
_cell_length_b                   8.0999(2)
_cell_length_c                   16.3919(4)
_cell_measurement_reflns_used    4687
_cell_measurement_temperature    150(2)
_cell_measurement_theta_max      72.1276
_cell_measurement_theta_min      2.7298
_cell_volume                     773.05(4)
_computing_cell_refinement
;
<i>SAINT</i> (Bruker, 2016)
;
_computing_data_collection
;
<i>APEX3</i> (Bruker, 2016)
;
_computing_data_reduction
;
<i>SAINT</i>  (Bruker, 2016)
;
_computing_molecular_graphics
;
<i>DIAMOND</i> (Brandenburg & Putz, 2012)
;
_computing_publication_material
;
<i>SHELXTL</i> (Sheldrick, 2008)
;
_computing_structure_refinement
;
<i>SHELXL2014/7</i> (Sheldrick, 2015b)
;
_computing_structure_solution
;
<i>SHELXT</i> (Sheldrick, 2015a)
;
_diffrn_ambient_temperature      150(2)
_diffrn_detector_area_resol_mean 10.4167
_diffrn_measured_fraction_theta_full 0.956
_diffrn_measured_fraction_theta_max 0.929
_diffrn_measurement_device_type  'Bruker D8 VENTURE PHOTON 100 CMOS'
_diffrn_measurement_method       '\w scans'
_diffrn_radiation_monochromator  mirror
_diffrn_radiation_type           CuK\a
_diffrn_radiation_wavelength     1.54178
_diffrn_reflns_av_R_equivalents  0.0267
_diffrn_reflns_limit_h_max       6
_diffrn_reflns_limit_h_min       -7
_diffrn_reflns_limit_k_max       9
_diffrn_reflns_limit_k_min       -9
_diffrn_reflns_limit_l_max       19
_diffrn_reflns_limit_l_min       -20
_diffrn_reflns_number            5834
_diffrn_reflns_theta_full        67.000
_diffrn_reflns_theta_max         72.120
_diffrn_reflns_theta_min         2.730
_exptl_absorpt_coefficient_mu    3.521
_exptl_absorpt_correction_T_max  0.90
_exptl_absorpt_correction_T_min  0.69
_exptl_absorpt_correction_type   multi-scan
_exptl_absorpt_process_details
;
(<i>SADABS</i>; Bruker, 2016)
;
_exptl_crystal_colour            yellow
_exptl_crystal_density_diffrn    1.430
_exptl_crystal_density_method    'not measured'
_exptl_crystal_description       plate
_exptl_crystal_F_000             344
_exptl_crystal_size_max          0.251
_exptl_crystal_size_mid          0.203
_exptl_crystal_size_min          0.030
_refine_diff_density_max         0.303
_refine_diff_density_min         -0.367
_refine_ls_extinction_method     none
_refine_ls_goodness_of_fit_ref   1.050
_refine_ls_hydrogen_treatment    constr
_refine_ls_matrix_type           full
_refine_ls_number_parameters     201
_refine_ls_number_reflns         2833
_refine_ls_number_restraints     0
_refine_ls_restrained_S_all      1.050
_refine_ls_R_factor_all          0.0408
_refine_ls_R_factor_gt           0.0373
_refine_ls_shift/su_max          0.001
_refine_ls_shift/su_mean         0.000
_refine_ls_structure_factor_coef Fsqd
_refine_ls_weighting_details
'w=1/[\s^2^(Fo^2^)+(0.0667P)^2^+0.2083P] where P=(Fo^2^+2Fc^2^)/3'
_refine_ls_weighting_scheme      calc
_refine_ls_wR_factor_gt          0.1018
_refine_ls_wR_factor_ref         0.1052
_reflns_number_gt                2591
_reflns_number_total             2833
_reflns_threshold_expression     'I > 2\s(I)'
_cod_data_source_file            su4024sup1.cif
_cod_data_source_block           I
_cod_database_code               1543041
_shelx_space_group_comment
;
The symmetry employed for this shelxl refinement is uniquely defined
by the following loop, which should always be used as a source of
symmetry information in preference to the above space-group names.
They are only intended as comments.
;
_shelx_estimated_absorpt_t_min   0.472
_shelx_estimated_absorpt_t_max   0.902
_shelx_hkl_file
;
  -1   0   0   34.14    1.25
   1   0   0   32.37    1.25
  -2   0   0   43.88    1.63
   2   0   0   42.31    1.63
   3   0   0   16.51    0.68
   3   0   0   16.77    0.67
   4   0   0    0.40    0.14
   4   0   0    0.55    0.15
   5   0   0   19.87    0.84
   6   0   0   12.16    0.56
  -7   1   0    3.28    0.43
   6  -1   0    0.28    0.14
   5  -1   0    5.77    0.33
   4  -1   0   12.21    0.56
   4  -1   0   12.46    0.54
   3  -1   0   11.45    0.49
   3  -1   0   11.33    0.49
   2  -1   0    4.51    0.20
  -2   1   0    4.52    0.20
   1  -1   0  147.85    5.55
  -1   1   0  149.39    5.55
   0  -1   0  100.32    3.74
  -1  -1   0  123.61    4.53
   1   1   0  119.29    4.53
  -2  -1   0   35.90    1.35
   2   1   0   34.96    1.34
   3   1   0   13.97    0.57
   3   1   0   14.03    0.59
   4   1   0   71.66    2.75
   4   1   0   72.57    2.75
   5   1   0   42.36    1.61
   5   1   0   38.76    1.58
  -6  -1   0    2.73    0.34
   6   1   0    2.70    0.26
   6  -2   0    5.35    0.32
   5  -2   0   30.89    1.29
   5  -2   0   33.71    1.28
   4  -2   0    0.95    0.17
   4  -2   0    0.87    0.20
   3  -2   0   39.59    1.53
   2  -2   0    1.33    0.12
   2  -2   0    1.15    0.10
  -2   2   0    1.16    0.10
   1  -2   0    0.05    0.02
  -1   2   0    0.03    0.02
  -1  -2   0   90.93    3.40
  -2  -2   0   12.83    0.51
   2   2   0   12.74    0.51
   3   2   0   31.67    1.25
   3   2   0   32.13    1.24
   4   2   0   18.34    0.76
   4   2   0   17.69    0.75
  -5  -2   0    0.82    0.32
   5   2   0    0.96    0.23
   5   2   0    0.53    0.15
   6   2   0   48.21    1.86
   6   2   0   48.98    1.89
   6  -3   0    5.52    0.32
   5  -3   0    2.62    0.21
   5  -3   0    2.56    0.23
   4  -3   0   58.82    2.31
   4  -3   0   59.36    2.29
   4  -3   0   62.29    2.32
   3  -3   0    3.03    0.25
   3  -3   0    2.95    0.24
   3  -3   0    3.08    0.20
   2  -3   0   18.35    0.71
   2  -3   0   18.78    0.73
  -2   3   0   17.84    0.72
   1  -3   0  271.97   10.14
  -1  -3   0  450.69   17.47
  -1  -3   0  486.87   17.46
  -2  -3   0    0.57    0.11
   2   3   0    0.84    0.17
   3   3   0   49.45    1.90
   4   3   0    6.26    0.33
   4   3   0    6.36    0.36
   5   3   0   36.23    1.42
   6   3   0   15.93    0.72
   6   3   0   17.31    0.68
   5  -4   0   21.81    0.89
   5  -4   0   22.48    0.92
   4  -4   0   39.36    1.57
   4  -4   0   40.15    1.56
   4  -4   0   39.83    1.53
   3  -4   0   22.95    0.93
   3  -4   0   22.78    0.93
   3  -4   0   23.04    0.92
   2  -4   0    2.26    0.17
   2  -4   0    2.09    0.25
   1  -4   0    2.67    0.16
   0  -4   0    0.30    0.08
  -1  -4   0  120.45    4.35
  -1  -4   0  121.79    4.36
  -1  -4   0  106.87    4.35
  -2  -4   0  157.54    5.90
   3   4   0   37.10    1.46
   3   4   0   38.02    1.46
   4   4   0    8.22    0.38
   4   4   0    7.20    0.43
   5   4   0   10.24    0.46
   6   4   0    2.19    0.18
   5  -5   0    0.41    0.12
   5  -5   0    0.23    0.08
   4  -5   0   51.92    1.93
   4  -5   0   48.10    1.95
   3  -5   0   13.52    0.60
   3  -5   0   13.00    0.57
   3  -5   0   14.08    0.60
   2  -5   0    3.80    0.25
   2  -5   0    3.46    0.27
   2  -5   0    3.51    0.24
   1  -5   0    0.81    0.13
   1  -5   0    1.24    0.21
   1  -5   0    0.98    0.20
   0  -5   0    6.63    0.31
  -1  -5   0    0.64    0.13
   1   5   0    0.86    0.15
  -2  -5   0   67.36    2.53
   2   5   0   68.55    2.55
   2   5   0   64.25    2.54
   3   5   0    0.10    0.11
   3   5   0    0.24    0.12
   4   5   0   43.34    1.71
   4   5   0   45.12    1.71
   5   5   0    8.39    0.39
  -6  -5   0    0.96    0.24
   5  -6   0   16.47    0.66
  -5   6   0   17.23    0.66
   4  -6   0    0.47    0.13
   4  -6   0    0.69    0.14
   3  -6   0   25.21    1.06
   3  -6   0   26.51    1.03
   3  -6   0   26.17    1.04
   2  -6   0    2.55    0.25
   2  -6   0    2.27    0.20
   2  -6   0    2.67    0.22
   1  -6   0    0.24    0.12
   1  -6   0    0.21    0.10
   1  -6   0    0.12    0.16
   0  -6   0   39.56    1.55
   0  -6   0   39.77    1.54
   0   6   0   39.98    1.55
  -1  -6   0   16.20    0.67
   1   6   0   15.73    0.67
  -2  -6   0    1.73    0.18
   2   6   0    1.66    0.25
   2   6   0    1.09    0.26
  -3  -6   0   33.16    1.29
   3   6   0   31.77    1.28
   3   6   0   32.68    1.28
  -4  -6   0    1.51    0.25
   4   6   0    1.19    0.18
   4   6   0    1.31    0.18
  -5  -6   0    8.99    0.47
   5   6   0    9.14    0.40
   6   6   0    0.48    0.10
   4  -7   0    7.94    0.35
   4  -7   0    8.24    0.39
   3  -7   0   22.36    0.89
   3  -7   0   22.26    0.91
   2  -7   0   18.83    0.82
   2  -7   0   19.90    0.82
   2  -7   0   20.57    0.80
   1  -7   0    3.37    0.33
   1  -7   0    3.25    0.24
   1  -7   0    3.28    0.24
   0  -7   0    0.58    0.16
   0  -7   0    0.63    0.15
   0   7   0    0.68    0.15
  -1  -7   0    1.27    0.20
   1   7   0    0.68    0.13
  -2  -7   0   64.24    2.46
   2   7   0   64.06    2.45
  -3  -7   0    0.11    0.14
   3   7   0    0.05    0.12
   3   7   0   -0.04    0.10
  -4  -7   0   10.84    0.53
   4   7   0   11.85    0.50
   4   7   0   11.83    0.49
   5   7   0    0.21    0.15
   5   7   0   -0.01    0.07
   3  -8   0   15.42    0.66
   1  -8   0    0.00    0.12
   0  -8   0    1.61    0.20
   0   8   0    1.13    0.21
  -1  -8   0    2.88    0.22
   1   8   0    3.25    0.22
  -2  -8   0   12.71    0.59
   2   8   0   13.89    0.57
  -3  -8   0   48.94    1.88
   3   8   0   48.03    1.86
   4   8   0   -0.12    0.11
   4   8   0    0.10    0.08
   5   8   0    0.34    0.11
  -2   9   0    2.83    0.21
   1  -9   0    1.92    0.27
   0  -9   0    0.61    0.16
  -1  -9   0    0.19    0.16
   1   9   0    0.17    0.09
  -2  -9   0    7.74    0.46
   2   9   0    8.92    0.37
   3   9   0    7.61    0.33
   3   9  -1    0.06    0.07
   2   9  -1    0.31    0.08
  -2  -9   1    0.29    0.16
   1   9  -1    9.16    0.40
  -1  -9   1    8.98    0.44
   0  -9   1   11.49    0.52
   1  -9   1    0.45    0.15
   4   8  -1   -0.09    0.08
   4   8  -1    0.12    0.11
  -4  -8   1    0.28    0.23
   3   8  -1    1.73    0.15
  -3  -8   1    1.88    0.25
   2   8  -1    1.68    0.16
  -2  -8   1    1.92    0.23
   1   8  -1    8.11    0.38
  -1  -8   1    7.84    0.40
   0   8  -1   16.68    0.68
   0  -8   1   14.49    0.66
   1  -8   1   18.55    0.78
   2  -8   1   -0.24    0.18
   3  -8   1    2.72    0.25
   5   7  -1   -0.04    0.14
   5   7  -1    0.07    0.07
   4   7  -1   -0.08    0.09
   4   7  -1    0.08    0.09
  -4  -7   1    0.10    0.14
   3   7  -1    0.36    0.10
   3   7  -1    0.52    0.14
  -3  -7   1    0.37    0.13
   2   7  -1   15.15    0.64
  -2  -7   1   15.29    0.66
   1   7  -1   66.87    2.60
  -1  -7   1   69.39    2.64
   0   7  -1    5.22    0.31
   0  -7   1    5.05    0.33
   1  -7   1   11.29    0.48
   1  -7   1   10.46    0.49
   2  -7   1   20.27    0.87
   2  -7   1   22.09    0.85
   2  -7   1   21.05    0.87
   3  -7   1    2.47    0.20
   3  -7   1    2.30    0.23
   4  -7   1    0.07    0.13
   4  -7   1    0.17    0.12
   5   6  -1    8.00    0.42
   5   6  -1    7.39    0.34
  -5  -6   1    6.97    0.43
   4   6  -1   20.19    0.80
   4   6  -1   19.99    0.81
  -4  -6   1   19.10    0.83
   3   6  -1   25.16    1.02
   3   6  -1   25.08    1.02
  -3  -6   1   26.46    1.04
   2   6  -1   43.22    1.77
   2   6  -1   46.01    1.77
  -2  -6   1   48.25    1.77
   1   6  -1   18.66    0.78
  -1  -6   1   19.40    0.78
   0   6  -1    0.77    0.21
   0  -6   1    0.66    0.17
   0  -6   1    0.66    0.15
   1  -6   1   11.32    0.50
   1  -6   1   11.43    0.56
   1  -6   1   10.94    0.54
   2  -6   1   24.06    0.97
   2  -6   1   23.31    0.99
   2  -6   1   25.19    0.99
   3  -6   1    0.99    0.19
   3  -6   1    1.12    0.15
   3  -6   1    1.00    0.18
   4  -6   1    3.57    0.22
   4  -6   1    3.79    0.26
  -5   6  -1    0.17    0.07
   6   5  -1   12.56    0.49
  -6  -5   1   11.31    0.57
   5   5  -1   16.81    0.69
   4   5  -1    6.91    0.37
   4   5  -1    6.75    0.34
   3   5  -1   22.72    0.90
   3   5  -1   21.87    0.90
   2   5  -1   22.44    0.95
   2   5  -1   24.24    0.95
  -2  -5   1   23.80    0.94
   1   5  -1   43.62    1.70
  -1  -5   1   44.25    1.68
   0  -5   1   51.54    1.97
   1  -5   1    1.98    0.15
   1  -5   1    1.20    0.33
   1  -5   1    2.25    0.24
   2  -5   1   17.14    0.75
   2  -5   1   17.53    0.73
   2  -5   1   17.96    0.72
   3  -5   1    1.81    0.18
   3  -5   1    1.79    0.20
   3  -5   1    1.97    0.21
   4  -5   1    6.35    0.36
   4  -5   1    7.17    0.35
   5  -5   1    0.62    0.14
   5  -5   1    0.60    0.13
   6   4  -1   26.51    1.04
   5   4  -1   17.59    0.73
   4   4  -1   51.09    1.85
   4   4  -1   44.55    1.93
   3   4  -1    2.14    0.25
   3   4  -1    2.03    0.20
  -2  -4   1   58.77    2.18
  -2  -4   1   56.22    2.20
  -1  -4   1    4.99    0.24
  -1  -4   1    4.69    0.23
  -1  -4   1    4.65    0.25
   0  -4   1    1.87    0.15
   1  -4   1    2.87    0.18
   2  -4   1    3.98    0.22
   2  -4   1    3.93    0.26
   2  -4   1    3.43    0.30
   3  -4   1   -0.01    0.09
   3  -4   1   -0.02    0.09
   3  -4   1    0.13    0.12
   4  -4   1   11.05    0.52
   4  -4   1   11.11    0.50
   5  -4   1   33.41    1.33
   5  -4   1   33.01    1.30
   6  -4   1    2.39    0.26
   6   3  -1   67.83    2.54
   6   3  -1   66.14    2.57
   5   3  -1   90.02    3.33
   5   3  -1   85.92    3.36
   4   3  -1   42.87    1.71
   4   3  -1   45.67    1.73
   3   3  -1   95.43    3.73
   3   3  -1  102.32    3.74
   2   3  -1   24.29    0.95
  -2  -3   1   23.99    0.94
  -1  -3   1  134.51    4.83
  -1  -3   1  123.94    4.82
   0  -3   1   22.92    0.86
  -1   3  -1    4.42    0.19
   1  -3   1    4.46    0.19
   1  -3   1    4.18    0.22
  -2   3  -1    2.87    0.18
   2  -3   1    2.96    0.18
   2  -3   1    3.09    0.18
   3  -3   1   78.64    3.00
   3  -3   1   77.19    3.02
   3  -3   1   82.43    3.02
   4  -3   1   28.53    1.16
   4  -3   1   29.92    1.18
   5  -3   1   26.46    1.11
   5  -3   1   28.11    1.09
   6  -3   1    0.21    0.13
   6   2  -1   13.54    0.59
   6   2  -1   12.49    0.57
   5   2  -1   35.88    1.42
   5   2  -1   37.01    1.45
   4   2  -1   45.02    1.79
   4   2  -1   47.01    1.78
   3   2  -1   12.90    0.56
   3   2  -1   13.49    0.56
   2   2  -1   55.79    2.17
  -2  -2   1   58.41    2.16
  -1  -2   1  231.35    8.62
   0  -2   1  497.13   18.53
  -1   2  -1   72.56    2.71
   1  -2   1   72.72    2.71
  -2   2  -1  104.39    4.17
   2  -2   1  114.36    4.19
   2  -2   1  115.84    4.18
   3  -2   1    4.60    0.27
   3  -2   1    4.26    0.29
   4  -2   1    0.38    0.11
   4  -2   1    0.54    0.12
   5  -2   1    0.47    0.12
   5  -2   1    0.27    0.13
   6  -2   1    3.92    0.28
   6   1  -1    0.52    0.15
  -6  -1   1    0.05    0.23
   5   1  -1   14.70    0.62
   5   1  -1   12.60    0.62
   4   1  -1    0.26    0.16
   4   1  -1    0.55    0.20
   4   1  -1    0.30    0.11
   3   1  -1   23.75    0.94
   3   1  -1   23.90    0.94
   2   1  -1   96.14    3.61
  -2  -1   1   96.76    3.62
   1   1  -1   50.79    1.88
  -1  -1   1   49.74    1.88
   0   1  -1   24.02    0.85
   0  -1   1   21.19    0.85
  -1   1  -1    0.03    0.02
   1  -1   1    0.04    0.02
  -2   1  -1  156.81    5.80
   2  -1   1  153.90    5.80
   3  -1   1   61.59    2.34
   3  -1   1   61.35    2.34
   4  -1   1   -0.01    0.11
   4  -1   1   -0.05    0.10
   5  -1   1    3.28    0.27
   5  -1   1    2.99    0.24
   6  -1   1    3.18    0.28
  -7   1  -1    0.54    0.14
   6   0  -1   29.02    1.17
   5   0  -1   39.19    1.47
   5   0  -1   34.97    1.46
   4   0  -1    9.65    0.43
   4   0  -1    8.70    0.46
   3   0  -1   69.41    2.57
   3   0  -1   66.12    2.57
   2   0  -1  310.20   11.64
  -2   0   1  314.12   11.63
   1   0  -1   10.64    0.43
  -1   0   1   11.88    0.43
   0   0  -1   23.51    0.88
  -1   0  -1  151.88    5.47
   1   0   1  140.85    5.46
  -2   0  -1  209.15    7.69
   2   0   1  203.30    7.69
   3   0   1    3.07    0.18
   3   0   1    3.09    0.21
   4   0   1   38.59    1.55
   4   0   1   41.32    1.56
   5   0   1    2.25    0.23
   6   0   1    2.20    0.27
  -7   0  -1   11.99    0.54
   6  -1  -1    0.07    0.14
   5  -1  -1   39.52    1.59
   5  -1  -1   40.63    1.57
   4  -1  -1   43.10    1.70
   4  -1  -1   44.55    1.71
   3  -1  -1   80.35    3.05
   3  -1  -1   80.96    3.05
   2  -1  -1    3.74    0.17
  -2   1   1    3.64    0.17
   1  -1  -1    2.25    0.10
  -1   1   1    2.22    0.10
  -1  -1  -1  142.10    5.17
   1   1   1  135.15    5.17
  -2  -1  -1  238.81    8.79
   2   1   1  232.39    8.78
   3   1   1   32.99    1.29
   3   1   1   33.63    1.29
   4   1   1    3.15    0.23
   4   1   1    2.86    0.33
   5   1   1    1.77    0.31
   5   1   1    2.57    0.27
   6   1   1    0.02    0.15
   6  -2  -1   -0.05    0.13
   5  -2  -1    0.26    0.12
   5  -2  -1    0.28    0.12
   4  -2  -1   52.83    2.02
   4  -2  -1   54.09    2.02
   4  -2  -1   49.88    2.00
   3  -2  -1   10.34    0.49
   3  -2  -1   11.05    0.47
   3  -2  -1   10.96    0.50
   2  -2  -1    1.78    0.14
   2  -2  -1    1.61    0.10
  -2   2   1    1.49    0.11
   1  -2  -1  165.09    6.02
  -1   2   1  157.95    6.02
  -1  -2  -1  188.89    7.07
   1   2   1  191.01    7.08
  -2  -2  -1    3.91    0.18
   2   2   1    3.79    0.18
   3   2   1   18.05    0.71
   3   2   1   16.96    0.72
   4   2   1   11.95    0.55
   4   2   1   12.54    0.55
  -5  -2  -1    0.58    0.28
   5   2   1    0.16    0.12
   5   2   1    0.21    0.15
  -6  -2  -1    3.27    0.39
   6   2   1    2.92    0.27
   6   2   1    3.30    0.30
   6  -3  -1    0.76    0.20
   5  -3  -1    1.44    0.19
   5  -3  -1    1.55    0.19
   4  -3  -1   38.96    1.50
   4  -3  -1   37.64    1.49
   4  -3  -1   37.25    1.47
   3  -3  -1   56.94    2.22
   3  -3  -1   60.04    2.23
   3  -3  -1   57.15    2.21
   2  -3  -1   43.83    1.68
   2  -3  -1   45.08    1.70
   1  -3  -1   58.88    2.22
  -1  -3  -1  138.01    5.15
  -2  -3  -1   12.31    0.50
   2   3   1   12.35    0.49
   2   3   1   12.53    0.52
   3   3   1  140.38    5.24
   3   3   1  138.91    5.24
  -4  -3  -1    0.71    0.33
   4   3   1    0.83    0.16
   4   3   1    0.86    0.20
  -5  -3  -1    1.83    0.32
   5   3   1    2.14    0.21
   5   3   1    1.95    0.29
   6   3   1    9.62    0.48
   6   3   1    9.60    0.43
   5  -4  -1    4.70    0.26
   5  -4  -1    4.85    0.29
   4  -4  -1   73.83    2.85
   4  -4  -1   73.18    2.84
   4  -4  -1   76.32    2.82
   3  -4  -1    5.58    0.30
   3  -4  -1    5.49    0.30
   3  -4  -1    5.59    0.32
   2  -4  -1    7.65    0.38
   2  -4  -1    7.54    0.35
   2  -4  -1    7.21    0.38
   1  -4  -1  199.19    7.45
   0  -4  -1   13.44    0.55
  -1  -4  -1   33.34    1.28
  -2  -4  -1   33.22    1.28
   3   4   1   26.88    1.07
   3   4   1   26.36    1.06
   4   4   1    0.20    0.19
   5   4   1   11.43    0.50
   6   4   1    0.70    0.14
   5  -5  -1    2.55    0.17
   5  -5  -1    2.89    0.22
   4  -5  -1    6.57    0.31
   4  -5  -1    6.48    0.33
   4  -5  -1    6.52    0.36
   3  -5  -1   22.65    0.96
   3  -5  -1   23.50    0.94
   3  -5  -1   24.30    0.97
   2  -5  -1   37.74    1.48
   2  -5  -1   36.49    1.48
   2  -5  -1   38.86    1.47
   1  -5  -1    0.14    0.08
   1  -5  -1    0.27    0.13
   1  -5  -1    0.27    0.16
   0  -5  -1    1.58    0.16
  -2  -5  -1   33.84    1.32
   2   5   1   33.29    1.34
   2   5   1   34.73    1.33
  -3  -5  -1    7.58    0.36
   3   5   1    6.79    0.36
   3   5   1    7.13    0.36
   4   5   1    0.57    0.12
   4   5   1    0.54    0.15
   5   5   1    5.06    0.28
   6   5   1    2.64    0.17
   5  -6  -1    0.14    0.07
  -5   6   1    0.18    0.09
   4  -6  -1    1.00    0.20
   4  -6  -1    1.12    0.15
   3  -6  -1   11.36    0.53
   3  -6  -1   11.91    0.50
   3  -6  -1   11.38    0.52
   2  -6  -1   16.02    0.69
   2  -6  -1   16.02    0.67
   2  -6  -1   16.32    0.69
   1  -6  -1   74.49    2.81
   1  -6  -1   72.88    2.81
   0  -6  -1    0.42    0.11
   0  -6  -1    0.38    0.19
   0  -6  -1    0.37    0.15
   0   6   1    0.09    0.16
  -1  -6  -1    1.95    0.20
   1   6   1    1.95    0.22
  -2  -6  -1  100.41    3.60
   2   6   1   89.74    3.59
  -3  -6  -1    0.00    0.13
   3   6   1    0.32    0.12
   3   6   1    0.25    0.11
  -4  -6  -1    2.01    0.26
   4   6   1    2.12    0.19
   4   6   1    1.72    0.21
   5   6   1   20.78    0.83
   6   6   1    0.30    0.07
   4  -7  -1    0.19    0.08
   4  -7  -1    0.16    0.14
   3  -7  -1    1.65    0.14
   3  -7  -1    1.87    0.21
   3  -7  -1    1.61    0.17
   2  -7  -1    5.37    0.27
   2  -7  -1    5.03    0.31
   2  -7  -1    5.11    0.31
   1  -7  -1    3.29    0.25
   1  -7  -1    3.31    0.29
   1  -7  -1    3.53    0.23
   0  -7  -1   38.28    1.51
   0  -7  -1   40.63    1.52
   0   7   1   37.39    1.51
  -1  -7  -1    5.57    0.32
   1   7   1    5.31    0.31
  -2  -7  -1   28.70    1.17
   2   7   1   29.86    1.17
  -3  -7  -1    0.48    0.16
   3   7   1    0.12    0.13
   3   7   1    0.17    0.10
  -4  -7  -1   26.06    1.09
   4   7   1   28.04    1.07
   4   7   1   27.12    1.06
   5   7   1    1.07    0.13
   3  -8  -1    8.02    0.36
   2  -8  -1    1.70    0.20
   2  -8  -1    1.43    0.22
   1  -8  -1   10.17    0.43
   1  -8  -1    9.97    0.47
   0  -8  -1    0.18    0.12
   0   8   1    0.50    0.14
  -1  -8  -1    0.99    0.21
   1   8   1    0.81    0.17
  -2  -8  -1    4.55    0.32
   2   8   1    4.60    0.26
   3   8   1   12.58    0.53
   4   8   1    0.80    0.18
   4   8   1    0.83    0.13
   1  -9  -1    2.66    0.38
   0  -9  -1    6.37    0.39
  -1  -9  -1    0.66    0.20
   1   9   1    0.42    0.10
   2   9   1    3.34    0.20
   3   9   1    1.68    0.14
   4   9   1    1.81    0.14
   3   9  -2    4.88    0.23
   2   9  -2    4.22    0.22
  -2  -9   2    4.10    0.30
   1   9  -2    2.69    0.19
  -1  -9   2    2.36    0.24
   0  -9   2    9.98    0.46
   1  -9   2    1.34    0.22
   4   8  -2    2.39    0.16
   4   8  -2    1.55    0.29
  -4  -8   2    2.78    0.32
   3   8  -2    9.24    0.41
  -3  -8   2    9.81    0.54
  -2  -8   2   13.06    0.58
   1   8  -2    8.41    0.37
  -1  -8   2    7.26    0.39
   0  -8   2    1.18    0.18
   1  -8   2   13.79    0.61
  -3   8  -2    2.77    0.17
   3  -8   2    2.69    0.25
   5   7  -2    0.02    0.07
   5   7  -2   -0.03    0.16
   4   7  -2    1.33    0.16
   4   7  -2    1.33    0.17
  -4  -7   2    1.52    0.22
   3   7  -2    1.05    0.21
   3   7  -2    0.77    0.15
  -3  -7   2    0.43    0.14
   2   7  -2    1.82    0.18
  -2  -7   2    1.71    0.21
   1   7  -2   20.36    0.86
  -1  -7   2   22.16    0.93
   0   7  -2   24.13    0.94
   0  -7   2   22.51    0.99
   1  -7   2   17.99    0.76
   2  -7   2   12.40    0.56
   3  -7   2    0.90    0.19
   3  -7   2    1.34    0.20
  -4   7  -2    2.06    0.14
   4  -7   2    2.03    0.23
   6   6  -2    7.69    0.33
   5   6  -2    0.65    0.13
   4   6  -2   10.66    0.48
   4   6  -2   10.94    0.48
  -4  -6   2   10.50    0.51
   3   6  -2   14.59    0.61
   3   6  -2   14.64    0.61
  -3  -6   2   13.37    0.70
   2   6  -2   56.37    2.10
   2   6  -2   51.40    2.09
  -2  -6   2   55.80    2.10
   1   6  -2  139.94    5.38
  -1  -6   2  146.03    5.38
   0   6  -2   26.60    1.06
   0  -6   2   27.72    1.06
   0  -6   2   24.96    1.06
   1  -6   2    9.07    0.43
   2  -6   2    1.87    0.20
   2  -6   2    1.44    0.25
   2  -6   2    1.47    0.18
   3  -6   2    1.33    0.21
   3  -6   2    1.33    0.20
   4  -6   2    0.27    0.09
   4  -6   2    0.25    0.13
  -5   6  -2    0.37    0.07
   6   5  -2    0.25    0.08
  -6  -5   2    0.19    0.18
   5   5  -2    0.66    0.15
   4   5  -2    0.29    0.10
   4   5  -2    0.21    0.14
   3   5  -2    3.60    0.34
   2   5  -2   36.27    1.42
   2   5  -2   35.47    1.42
  -2  -5   2   37.28    1.42
   1   5  -2   97.94    3.68
  -1  -5   2   97.07    3.68
   0   5  -2   -0.15    0.15
   0  -5   2    0.05    0.08
   1  -5   2    0.95    0.15
   1  -5   2    0.84    0.14
   2  -5   2   59.62    2.23
   2  -5   2   57.22    2.24
   2  -5   2   58.35    2.25
   3  -5   2    0.14    0.09
   3  -5   2   -0.05    0.11
   3  -5   2   -0.01    0.11
   4  -5   2    8.38    0.39
   4  -5   2    7.86    0.41
  -5   5  -2    6.78    0.31
   5  -5   2    6.52    0.36
   5  -5   2    6.70    0.31
   6   4  -2    1.60    0.16
   5   4  -2    8.72    0.41
   4   4  -2    4.29    0.34
   4   4  -2    4.43    0.26
   3   4  -2   13.76    0.58
   3   4  -2   13.67    0.60
  -2  -4   2    1.32    0.20
  -1  -4   2   14.20    0.57
  -1  -4   2   14.27    0.57
  -1  -4   2   13.73    0.57
   0  -4   2   34.13    1.33
   0  -4   2   36.17    1.34
   0  -4   2   35.54    1.35
   1  -4   2   54.26    2.04
   1  -4   2   52.87    2.02
   2  -4   2   41.29    1.55
   2  -4   2   40.59    1.55
   2  -4   2   38.39    1.56
   3  -4   2   20.99    0.85
   3  -4   2   21.34    0.83
   3  -4   2   19.56    0.84
   4  -4   2    0.72    0.19
   4  -4   2    1.13    0.19
   5  -4   2   14.60    0.64
   5  -4   2   14.27    0.60
   6  -4   2    5.81    0.43
   6   3  -2    1.69    0.19
   5   3  -2   24.20    0.95
   5   3  -2   22.66    0.97
   4   3  -2   11.50    0.53
   4   3  -2   12.42    0.55
   3   3  -2   15.10    0.65
   3   3  -2   16.23    0.66
   2   3  -2  189.22    6.95
  -2  -3   2  182.35    6.95
  -1  -3   2  104.28    4.01
  -1  -3   2  110.22    4.02
   0  -3   2    0.20    0.03
   0  -3   2    0.11    0.07
  -1   3  -2    8.93    0.36
   1  -3   2    8.88    0.35
   1  -3   2    8.61    0.38
  -2   3  -2   29.69    1.16
   2  -3   2   29.50    1.17
   2  -3   2   30.97    1.16
   3  -3   2    5.72    0.30
   3  -3   2    5.15    0.30
   3  -3   2    5.36    0.29
   4  -3   2   71.42    2.69
   4  -3   2   68.53    2.67
   5  -3   2  106.60    4.03
   5  -3   2  106.80    4.06
   6  -3   2    6.03    0.34
   6   2  -2    0.16    0.14
   6   2  -2    0.27    0.14
   5   2  -2   28.76    1.34
   5   2  -2   34.90    1.27
   4   2  -2   19.57    0.81
   4   2  -2   19.89    0.82
   3   2  -2   17.49    0.72
   2   2  -2   10.28    0.43
  -2  -2   2   10.02    0.42
  -1  -2   2    8.88    0.35
  -1  -2   2    8.80    0.35
   0   2  -2  416.48   15.00
   0  -2   2  388.07   15.00
  -1   2  -2    0.33    0.05
   1  -2   2    0.37    0.05
  -2   2  -2    0.65    0.10
   2  -2   2    0.97    0.10
   2  -2   2    0.82    0.14
   3  -2   2    4.75    0.31
   4  -2   2   34.54    1.36
   4  -2   2   34.91    1.38
  -5   2  -2    4.44    0.34
   5  -2   2    4.26    0.27
   5  -2   2    4.43    0.30
   6  -2   2    1.35    0.24
   6   1  -2    3.11    0.26
   5   1  -2    0.67    0.19
   5   1  -2    0.64    0.19
   4   1  -2   12.50    0.55
   4   1  -2   12.06    0.56
   3   1  -2    0.51    0.13
  -2  -1   2    5.94    0.26
  -1  -1   2    0.44    0.04
   0   1  -2   18.32    0.69
   0  -1   2   18.41    0.70
  -1   1  -2    5.29    0.21
   1  -1   2    5.27    0.21
  -2   1  -2  110.85    4.23
   2  -1   2  115.69    4.24
   3  -1   2   28.03    1.10
   3  -1   2   28.22    1.10
   4  -1   2   81.61    3.19
   4  -1   2   86.94    3.21
   5  -1   2   33.59    1.35
   5  -1   2   34.90    1.37
   6  -1   2   -0.04    0.15
  -7   1  -2    3.61    0.24
   6   0  -2   27.25    1.10
   5   0  -2   14.98    0.66
   4   0  -2    0.54    0.15
   4   0  -2    0.90    0.18
   3   0  -2   39.24    1.51
   2   0  -2  114.81    4.40
  -2   0   2  120.29    4.40
  -1   0   2   19.56    0.74
   0   0  -2   47.72    1.73
   0   0   2   44.61    1.72
  -1   0  -2   52.99    1.90
   1   0   2   48.82    1.90
  -2   0  -2    9.59    0.38
   2   0   2    9.38    0.38
   4   0   2   45.78    1.75
   4   0   2   44.10    1.74
   5   0   2    7.65    0.41
   6   0   2   15.58    0.70
  -7   0  -2   -0.06    0.14
   6  -1  -2   18.34    0.77
   5  -1  -2    1.54    0.23
   5  -1  -2    1.49    0.19
   4  -1  -2   13.39    0.59
   4  -1  -2   13.95    0.62
   3  -1  -2   31.22    1.21
   3  -1  -2   31.10    1.21
   2  -1  -2    4.15    0.23
   2  -1  -2    4.60    0.20
  -2   1   2    4.68    0.21
  -1   1   2  171.97    6.42
   0  -1  -2   58.67    2.20
   0   1   2   59.22    2.20
  -1  -1  -2    9.08    0.34
   1   1   2    8.44    0.34
  -2  -1  -2   57.61    2.13
   2   1   2   55.55    2.13
   3   1   2   39.22    1.53
   3   1   2   39.77    1.52
   4   1   2    1.40    0.32
   4   1   2    1.70    0.20
   5   1   2    9.28    0.49
   5   1   2    9.37    0.48
  -6  -1  -2    2.39    0.29
   6   1   2    1.64    0.27
  -7  -1  -2    5.61    0.37
   6  -2  -2   11.48    0.56
   5  -2  -2    6.80    0.37
   5  -2  -2    7.56    0.38
   4  -2  -2   17.62    0.72
   4  -2  -2   16.48    0.73
   3  -2  -2    0.33    0.09
   3  -2  -2    0.63    0.15
   2  -2  -2    7.69    0.35
   2  -2  -2    8.30    0.33
  -2   2   2    7.78    0.33
  -1   2   2    0.40    0.04
  -1  -2  -2  446.78   16.39
   1   2   2  433.08   16.40
  -2  -2  -2    6.93    0.29
   2   2   2    6.85    0.29
   3   2   2    7.89    0.41
   3   2   2    8.99    0.38
   4   2   2   24.21    0.96
   4   2   2   23.19    0.97
  -5  -2  -2   14.94    0.73
   5   2   2   15.36    0.70
   5   2   2   16.60    0.68
  -6  -2  -2   20.55    0.91
   6   2   2   19.90    0.87
   6   2   2   21.24    0.84
   6  -3  -2    3.92    0.27
   5  -3  -2    3.23    0.24
   5  -3  -2    3.66    0.25
   4  -3  -2    7.14    0.36
   4  -3  -2    6.92    0.36
   4  -3  -2    6.78    0.36
   3  -3  -2    2.50    0.19
   3  -3  -2    2.07    0.22
   3  -3  -2    2.07    0.23
   2  -3  -2   47.81    1.79
  -2   3   2   45.95    1.77
   1  -3  -2   44.03    1.67
  -1  -3  -2   31.39    1.18
  -2  -3  -2   82.45    3.15
   2   3   2   85.20    3.15
   3   3   2    6.47    0.34
   3   3   2    6.35    0.33
  -4  -3  -2    2.09    0.46
   4   3   2    2.98    0.28
   4   3   2    2.40    0.23
  -5  -3  -2   33.03    1.44
   5   3   2   35.41    1.39
   5   3   2   37.61    1.42
  -6  -3  -2    2.94    0.63
   6   3   2    3.72    0.23
   6   3   2    3.09    0.33
   5  -4  -2    8.20    0.37
   5  -4  -2    7.71    0.39
   4  -4  -2   62.00    2.43
   4  -4  -2   61.88    2.42
   4  -4  -2   64.98    2.40
   3  -4  -2   49.37    1.98
   3  -4  -2   52.40    1.97
   2  -4  -2    1.47    0.15
   2  -4  -2    1.57    0.23
   2  -4  -2    1.19    0.21
   1  -4  -2   17.26    0.69
   0  -4  -2   11.16    0.47
  -1  -4  -2   70.89    2.67
  -2  -4  -2    7.33    0.36
   3   4   2    8.18    0.43
   3   4   2    8.44    0.41
  -4  -4  -2    3.15    0.67
   4   4   2    3.59    0.33
   4   4   2    3.81    0.26
   5   4   2    0.31    0.11
   6   4   2   15.41    0.63
   5  -5  -2    2.94    0.18
   5  -5  -2    3.27    0.24
   4  -5  -2    3.94    0.25
   4  -5  -2    4.17    0.23
   4  -5  -2    3.73    0.27
   3  -5  -2   55.86    2.17
   3  -5  -2   56.09    2.15
   3  -5  -2   56.94    2.18
   2  -5  -2    1.38    0.17
   2  -5  -2    1.22    0.20
   2  -5  -2    1.05    0.20
   1  -5  -2    0.33    0.14
   1  -5  -2    0.56    0.14
   1  -5  -2    0.49    0.14
  -1  -5  -2   42.63    1.63
  -2  -5  -2   75.91    2.84
   2   5   2   74.01    2.85
  -3  -5  -2    4.47    0.29
   3   5   2    4.50    0.28
   3   5   2    4.72    0.29
   4   5   2   15.20    0.63
   4   5   2   14.26    0.64
  -5  -5  -2    4.80    0.36
   5   5   2    5.09    0.27
   6   5   2    0.30    0.08
   5  -6  -2    1.29    0.12
  -5   6   2    1.35    0.17
   4  -6  -2    0.38    0.12
   4  -6  -2    0.43    0.10
   3  -6  -2    0.81    0.19
   3  -6  -2    0.66    0.14
   3  -6  -2    0.87    0.19
   2  -6  -2   32.34    1.29
   2  -6  -2   32.80    1.29
   2  -6  -2   32.31    1.27
   1  -6  -2    0.99    0.18
   1  -6  -2    0.15    0.12
   0  -6  -2    0.01    0.20
   0  -6  -2    0.09    0.13
   0  -6  -2    0.06    0.08
   0   6   2    0.13    0.14
  -1  -6  -2   31.47    1.19
  -1  -6  -2   28.61    1.24
   1   6   2   30.33    1.20
  -2  -6  -2    0.97    0.20
   2   6   2    0.88    0.18
  -3  -6  -2   31.44    1.25
   3   6   2   32.05    1.26
   3   6   2   32.15    1.26
  -4  -6  -2    1.32    0.26
   4   6   2    1.44    0.20
   4   6   2    1.35    0.18
   5   6   2    0.08    0.08
   6   6   2    1.94    0.14
   4  -7  -2    6.10    0.28
   3  -7  -2    1.85    0.14
   3  -7  -2    1.92    0.17
   3  -7  -2    1.75    0.22
   2  -7  -2    2.92    0.24
   2  -7  -2    2.54    0.24
   2  -7  -2    2.74    0.20
   1  -7  -2    6.38    0.36
   1  -7  -2    7.02    0.39
   1  -7  -2    7.24    0.35
   0  -7  -2   27.92    1.17
   0  -7  -2   29.82    1.15
   0  -7  -2   29.93    1.17
   0   7   2   28.46    1.16
  -1  -7  -2   29.30    1.16
   1   7   2   28.68    1.16
  -2  -7  -2   82.49    3.29
   2   7   2   89.73    3.28
  -3  -7  -2   34.53    1.43
   3   7   2   37.27    1.42
   3   7   2   37.31    1.42
   4   7   2    0.53    0.11
   4   7   2    0.41    0.11
   5   7   2    9.09    0.39
   3  -8  -2    0.15    0.09
   2  -8  -2    1.19    0.12
   2  -8  -2    1.09    0.23
   2  -8  -2    1.24    0.18
   1  -8  -2    2.54    0.26
   1  -8  -2    2.92    0.19
   1  -8  -2    2.78    0.26
   0  -8  -2    0.14    0.14
   0  -8  -2    0.20    0.18
   0   8   2    0.32    0.13
  -1  -8  -2    9.61    0.47
   1   8   2   10.17    0.45
  -2  -8  -2    3.04    0.32
   2   8   2    3.64    0.23
   3   8   2   12.23    0.52
   4   8   2    0.39    0.09
   4   8   2    0.47    0.11
   5   8   2    1.43    0.17
   1   9   2    0.04    0.09
   2   9   2    6.94    0.32
   3   9   2    2.26    0.15
   4   9   2    2.54    0.16
   3   9  -3    0.77    0.13
   2   9  -3    1.22    0.13
  -2  -9   3    1.37    0.23
   1   9  -3    1.71    0.16
  -1  -9   3    1.27    0.22
   0  -9   3    0.37    0.13
   1  -9   3    0.06    0.14
   4   8  -3    0.45    0.09
   4   8  -3    0.45    0.13
  -4  -8   3    0.50    0.27
   3   8  -3   13.37    0.55
  -3  -8   3   13.18    0.59
   2   8  -3   10.99    0.47
  -2  -8   3   10.87    0.50
  -1  -8   3   11.34    0.52
   0   8  -3    1.05    0.21
   0  -8   3    0.62    0.17
   1  -8   3    3.19    0.24
   2  -8   3    0.30    0.12
   3  -8   3    1.55    0.22
   5   7  -3    5.11    0.25
   4   7  -3    0.27    0.10
   4   7  -3    0.10    0.09
  -4  -7   3    0.23    0.13
   3   7  -3    1.70    0.22
   3   7  -3    1.29    0.17
  -3  -7   3    0.85    0.20
   2   7  -3    0.65    0.16
  -2  -7   3    0.14    0.12
   1   7  -3   18.17    0.74
  -1  -7   3   17.80    0.76
   0   7  -3   75.53    2.85
   0  -7   3   74.11    2.86
   1  -7   3    0.25    0.12
   2  -7   3    1.17    0.19
   3  -7   3    4.00    0.26
   3  -7   3    3.68    0.38
  -4   7  -3    6.48    0.28
   4  -7   3    6.35    0.34
   5   6  -3    6.39    0.30
  -5  -6   3    6.87    0.36
   4   6  -3    0.31    0.13
   4   6  -3    0.45    0.11
  -4  -6   3    0.42    0.15
   3   6  -3    6.06    0.33
   3   6  -3    5.84    0.31
  -3  -6   3    6.07    0.34
   2   6  -3    3.66    0.24
   2   6  -3    3.36    0.30
  -2  -6   3    3.59    0.25
  -1  -6   3   57.52    2.21
   0   6  -3   44.11    1.74
   0  -6   3   45.69    1.74
   1  -6   3   53.35    2.00
   1  -6   3   49.87    1.97
   2  -6   3    1.27    0.30
   3  -6   3    0.16    0.14
   3  -6   3    0.08    0.12
   4  -6   3    4.28    0.24
   4  -6   3    4.12    0.28
  -5   6  -3    6.66    0.29
   6   5  -3   22.71    0.87
  -6  -5   3   21.85    0.90
   5   5  -3    4.12    0.24
   4   5  -3   38.50    1.50
   4   5  -3   38.84    1.51
   3   5  -3    1.42    0.19
   3   5  -3    1.48    0.20
   2   5  -3    0.05    0.14
   2   5  -3   -0.18    0.11
  -2  -5   3    0.07    0.09
   1   5  -3    5.91    0.32
  -1  -5   3    6.11    0.30
   0   5  -3   86.89    3.36
   0  -5   3   90.78    3.36
   1  -5   3    9.76    0.44
   1  -5   3   10.02    0.46
   2  -5   3    5.16    0.30
   2  -5   3    5.58    0.29
   2  -5   3    5.40    0.35
   3  -5   3    2.08    0.25
   3  -5   3    2.52    0.22
   4  -5   3    0.07    0.11
   4  -5   3   -0.03    0.12
  -5   5  -3    3.34    0.19
   5  -5   3    3.32    0.19
   5  -5   3    2.85    0.26
   6   4  -3   31.57    1.22
   5   4  -3    7.05    0.35
   4   4  -3    4.17    0.34
   4   4  -3    4.67    0.27
   3   4  -3    0.37    0.12
   3   4  -3    0.59    0.15
   2   4  -3   21.91    0.89
  -2  -4   3   22.10    0.90
  -1  -4   3  100.52    3.69
  -1  -4   3   96.84    3.69
  -1  -4   3   96.60    3.69
   0  -4   3    0.12    0.07
   0  -4   3    0.13    0.08
   0  -4   3    0.35    0.09
  -1   4  -3   90.17    3.33
   1  -4   3   86.19    3.32
   1  -4   3   88.81    3.33
   2  -4   3    5.02    0.26
   2  -4   3    4.87    0.28
   2  -4   3    4.40    0.35
   3  -4   3    0.62    0.17
   3  -4   3    0.85    0.14
   4  -4   3    5.47    0.31
   4  -4   3    5.39    0.33
  -5   4  -3    4.17    0.25
   5  -4   3    4.27    0.24
   5  -4   3    3.86    0.30
   6   3  -3    0.04    0.10
   5   3  -3    0.74    0.18
   5   3  -3    0.57    0.15
   4   3  -3    1.80    0.20
   4   3  -3    1.41    0.21
   3   3  -3    7.04    0.34
   3   3  -3    6.75    0.34
   3   3  -3    6.14    0.39
   2   3  -3   34.13    1.30
  -2  -3   3   33.24    1.30
  -1  -3   3  106.71    4.06
  -1  -3   3  110.14    4.07
   0  -3   3   76.33    2.90
   0  -3   3   78.23    2.91
  -1   3  -3   19.45    0.74
   1  -3   3   18.15    0.75
   1  -3   3   19.07    0.73
  -2   3  -3  282.73   10.94
   2  -3   3  294.41   10.95
   2  -3   3  302.21   10.94
   3  -3   3    6.86    0.34
   3  -3   3    7.35    0.35
   3  -3   3    6.67    0.36
   4  -3   3    6.89    0.37
   4  -3   3    6.36    0.34
  -5   3  -3    1.79    0.22
   5  -3   3    2.04    0.24
   5  -3   3    2.11    0.19
   6  -3   3    7.36    0.39
   6   2  -3    7.68    0.40
   6   2  -3    7.44    0.38
   5   2  -3   22.40    0.97
   5   2  -3   24.66    0.95
   4   2  -3   70.18    2.70
   4   2  -3   71.95    2.72
   3   2  -3   28.76    1.13
   2   2  -3  105.65    4.03
  -2  -2   3  109.11    4.04
  -1  -2   3    0.26    0.07
  -1  -2   3    0.23    0.05
   0   2  -3   24.05    0.95
   0  -2   3   26.19    0.96
  -1   2  -3   38.95    1.50
   1  -2   3   40.33    1.49
  -2   2  -3  138.24    5.34
   2  -2   3  147.22    5.35
   3  -2   3    0.61    0.14
   3  -2   3    0.60    0.13
   4  -2   3    5.69    0.34
   4  -2   3    6.06    0.32
  -5   2  -3   12.11    0.55
   5  -2   3   11.86    0.57
   5  -2   3   12.55    0.54
   6  -2   3    0.09    0.15
   6   1  -3    0.12    0.13
   5   1  -3   64.00    2.51
   5   1  -3   66.15    2.49
   4   1  -3    2.13    0.29
   4   1  -3    2.35    0.21
   3   1  -3   57.68    2.20
   2   1  -3    9.01    0.39
  -2  -1   3    8.73    0.37
  -1  -1   3    2.53    0.13
  -1  -1   3    2.60    0.12
   0   1  -3  152.19    5.61
   0  -1   3  149.02    5.61
  -1   1  -3  151.09    5.51
   1  -1   3  144.42    5.51
  -2   1  -3   76.01    2.84
   2  -1   3   75.09    2.84
   3  -1   3   10.49    0.46
   3  -1   3   10.00    0.45
   4  -1   3    3.55    0.25
   4  -1   3    3.28    0.24
   5  -1   3    8.89    0.45
   6  -1   3    4.38    0.33
  -7   1  -3    1.86    0.19
   6   0  -3    1.39    0.20
   5   0  -3    6.82    0.36
   4   0  -3  108.12    4.29
   4   0  -3  118.82    4.29
   3   0  -3  138.05    5.18
   2   0  -3    1.04    0.14
  -2   0   3    0.87    0.10
  -1   0   3    4.10    0.17
   0   0  -3    1.34    0.07
   0   0   3    1.32    0.07
  -1   0  -3 1000.00   36.09
   1   0   3  937.80   36.10
  -2   0  -3  117.31    4.25
   2   0   3  109.68    4.25
   3   0   3    1.58    0.15
   3   0   3    1.59    0.18
   4   0   3   27.50    1.09
   4   0   3   26.93    1.08
   5   0   3    1.32    0.23
   6   0   3    0.67    0.19
  -7   0  -3    4.36    0.27
   6  -1  -3    1.26    0.19
   5  -1  -3    1.93    0.20
   5  -1  -3    1.93    0.25
   4  -1  -3   15.44    0.66
   4  -1  -3   15.74    0.69
   2  -1  -3  144.49    5.47
  -2   1   3  148.00    5.47
  -1   1   3   14.57    0.56
   0  -1  -3  114.53    4.11
   0   1   3  106.25    4.11
  -1  -1  -3  815.73   28.89
   1   1   3  735.35   28.89
  -2  -1  -3  298.31   10.73
   2   1   3  277.25   10.72
   3   1   3  190.84    6.97
   3   1   3  181.64    6.97
   4   1   3   44.74    1.74
   4   1   3   44.68    1.74
   5   1   3    6.36    0.39
   5   1   3    5.58    0.39
  -6  -1  -3   -0.19    0.16
   6   1   3    0.29    0.18
  -7  -1  -3    9.45    0.45
   6  -2  -3    0.31    0.13
   5  -2  -3   -0.01    0.11
   5  -2  -3    0.17    0.13
   4  -2  -3   65.47    2.57
   4  -2  -3   68.66    2.57
   3  -2  -3   39.35    1.53
   3  -2  -3   39.01    1.52
   2  -2  -3   44.15    1.65
  -2   2   3   42.42    1.64
  -1   2   3    7.83    0.30
  -1   2   3    7.53    0.30
  -1  -2  -3  133.62    4.85
   1   2   3  126.37    4.85
  -2  -2  -3   72.91    2.70
   2   2   3   70.63    2.70
   3   2   3   26.22    1.02
   3   2   3   25.63    1.03
   4   2   3   34.58    1.37
   4   2   3   35.03    1.37
  -5  -2  -3    1.22    0.30
   5   2   3    1.37    0.27
   5   2   3    1.31    0.23
   6   2   3   10.88    0.54
   6   2   3   10.63    0.49
   6  -3  -3    1.45    0.22
   5  -3  -3    6.88    0.36
   5  -3  -3    7.02    0.36
   4  -3  -3   29.78    1.18
   4  -3  -3   28.77    1.17
   4  -3  -3   29.30    1.16
   3  -3  -3  107.00    3.94
   3  -3  -3  103.09    3.93
   3  -3  -3  101.96    3.92
   2  -3  -3   59.15    2.29
  -2   3   3   61.35    2.26
   1  -3  -3    0.58    0.14
  -1  -3  -3    0.46    0.06
   1   3   3    0.44    0.05
  -2  -3  -3    0.74    0.13
   2   3   3    0.66    0.09
   3   3   3   54.79    2.13
   3   3   3   56.83    2.13
  -4  -3  -3   16.41    0.77
   4   3   3   16.59    0.69
   4   3   3   16.18    0.71
  -5  -3  -3    0.20    0.23
   5   3   3    0.01    0.10
   5   3   3   -0.04    0.19
  -6  -3  -3    3.91    0.36
   6   3   3    4.29    0.26
   5  -4  -3    2.80    0.20
   5  -4  -3    2.59    0.23
   4  -4  -3   27.97    1.09
   4  -4  -3   27.77    1.11
   4  -4  -3   27.04    1.11
   3  -4  -3  221.45    8.24
   3  -4  -3  219.93    8.22
   3  -4  -3  217.30    8.24
   2  -4  -3   15.59    0.65
   2  -4  -3   15.88    0.66
   1  -4  -3  137.16    5.14
   0  -4  -3    3.25    0.22
  -1  -4  -3    5.11    0.28
  -2  -4  -3   70.88    2.68
  -3  -4  -3   13.53    0.68
   3   4   3   14.02    0.58
   3   4   3   12.19    0.62
  -4  -4  -3   97.87    3.79
   4   4   3  100.93    3.76
   4   4   3   99.56    3.77
  -5  -4  -3   27.87    1.19
   5   4   3   29.27    1.14
   6   4   3    8.82    0.40
   5  -5  -3    0.40    0.14
   5  -5  -3    0.45    0.12
   4  -5  -3   11.02    0.49
   4  -5  -3   11.12    0.48
   4  -5  -3   10.25    0.50
   3  -5  -3    0.04    0.10
   3  -5  -3    0.07    0.11
   2  -5  -3    6.57    0.33
   2  -5  -3    5.74    0.38
   2  -5  -3    6.05    0.34
   1  -5  -3    1.24    0.21
   1  -5  -3    1.17    0.22
   1  -5  -3    1.19    0.17
   0  -5  -3    2.88    0.26
   0  -5  -3    2.67    0.33
   0  -5  -3    2.95    0.32
  -1  -5  -3    3.29    0.24
  -2  -5  -3    3.10    0.42
  -2  -5  -3    3.48    0.25
   2   5   3    3.51    0.32
  -3  -5  -3   34.37    1.37
  -3  -5  -3   34.41    1.43
   3   5   3   36.01    1.38
   3   5   3   35.78    1.38
  -4  -5  -3   48.04    1.88
   4   5   3   49.87    1.88
   4   5   3   48.16    1.88
   5   5   3   19.85    0.81
   6   5   3    0.16    0.08
   5  -6  -3    4.52    0.22
   4  -6  -3    1.75    0.16
   4  -6  -3    1.92    0.23
   3  -6  -3   28.63    1.11
   3  -6  -3   26.95    1.14
   3  -6  -3   29.10    1.13
   2  -6  -3    2.50    0.24
   2  -6  -3    2.27    0.19
   1  -6  -3   11.48    0.52
   1  -6  -3   11.27    0.53
   1  -6  -3   11.60    0.51
   0  -6  -3   19.81    0.79
   0  -6  -3   18.79    0.82
   0  -6  -3   19.12    0.80
  -1  -6  -3   -0.04    0.20
  -1  -6  -3    0.16    0.13
  -1  -6  -3    0.07    0.26
  -2  -6  -3    0.11    0.15
  -2  -6  -3    0.43    0.24
   2   6   3    0.10    0.17
   2   6   3    0.16    0.12
  -3  -6  -3    7.72    0.42
   3   6   3    8.91    0.42
   3   6   3    8.55    0.41
   4   6   3   13.36    0.56
   4   6   3   12.21    0.55
   5   6   3   13.57    0.57
   6   6   3    0.00    0.07
   4  -7  -3    5.13    0.26
   3  -7  -3    0.19    0.07
   3  -7  -3    0.10    0.15
   3  -7  -3    0.06    0.09
   2  -7  -3   66.55    2.69
   2  -7  -3   72.69    2.68
   2  -7  -3   71.34    2.67
   1  -7  -3    2.29    0.21
   1  -7  -3    2.43    0.25
   1  -7  -3    2.34    0.24
   0  -7  -3   33.96    1.34
   0  -7  -3   33.05    1.32
   0   7   3   33.86    1.33
  -1  -7  -3   -0.07    0.13
  -1  -7  -3    0.21    0.21
   1   7   3   -0.03    0.12
  -2  -7  -3   38.93    1.58
   2   7   3   42.16    1.59
   3   7   3    3.47    0.26
   3   7   3    3.11    0.23
   4   7   3   12.10    0.52
   4   7   3   11.91    0.53
   5   7   3    2.87    0.18
   3  -8  -3    0.51    0.13
   2  -8  -3    3.40    0.32
   2  -8  -3    2.91    0.18
   2  -8  -3    3.32    0.22
   1  -8  -3   20.81    0.83
   1  -8  -3   19.40    0.84
   1  -8  -3   20.60    0.81
   0  -8  -3   39.44    1.61
   0   8   3   43.06    1.64
   1   8   3    4.82    0.28
   2   8   3    1.12    0.16
   3   8   3    1.15    0.16
   4   8   3    6.37    0.30
   4   8   3    6.41    0.32
   5   8   3    4.04    0.23
   1   9   3   15.49    0.63
   2   9   3    1.32    0.14
   3   9   3   -0.06    0.06
   4   9   3    8.38    0.36
   2   9  -4    2.06    0.15
  -2  -9   4    2.19    0.24
   1   9  -4    4.90    0.26
  -1  -9   4    5.13    0.30
   0  -9   4    2.30    0.22
   1  -9   4   12.72    0.56
   4   8  -4    1.20    0.22
   4   8  -4    1.12    0.16
   3   8  -4   11.80    0.49
  -3  -8   4   11.76    0.53
   2   8  -4    2.65    0.19
  -2  -8   4    2.71    0.23
   1   8  -4    1.19    0.17
  -1  -8   4    1.48    0.20
   0   8  -4    7.64    0.38
   0  -8   4    7.36    0.38
   1  -8   4    0.07    0.11
  -2   8  -4    0.36    0.09
   2  -8   4    0.50    0.13
  -3   8  -4   10.23    0.42
   5   7  -4    0.67    0.12
   4   7  -4    2.20    0.18
   4   7  -4    1.97    0.17
   3   7  -4   -0.01    0.09
  -3  -7   4   -0.04    0.12
   2   7  -4   22.39    0.87
  -2  -7   4   20.32    0.88
   1   7  -4    0.11    0.11
  -1  -7   4    0.18    0.11
   0   7  -4   14.52    0.61
   0  -7   4   13.13    0.61
   1  -7   4    1.09    0.18
   2  -7   4   19.62    0.82
   3  -7   4    2.36    0.21
  -4   7  -4    9.73    0.39
   4  -7   4    9.30    0.45
   5   6  -4   12.36    0.52
  -5  -6   4   12.83    0.55
   4   6  -4    7.12    0.33
  -4  -6   4    6.29    0.36
   3   6  -4   37.76    1.47
   3   6  -4   37.89    1.47
  -3  -6   4   37.35    1.48
   2   6  -4    0.35    0.18
   2   6  -4    0.60    0.16
  -2  -6   4    0.37    0.11
   1   6  -4    0.67    0.16
  -1  -6   4    0.61    0.17
   0  -6   4    4.93    0.29
   1  -6   4    0.12    0.09
   2  -6   4   13.44    0.60
   3  -6   4   72.79    2.64
   3  -6   4   65.50    2.66
  -4   6  -4   -0.06    0.08
   4  -6   4    0.00    0.12
   4  -6   4   -0.02    0.10
  -5   6  -4    3.15    0.17
   5   5  -4    0.20    0.08
   4   5  -4   36.94    1.44
   4   5  -4   37.05    1.45
   3   5  -4    5.01    0.29
   3   5  -4    4.99    0.30
   2   5  -4   20.35    0.82
   2   5  -4   19.71    0.83
  -2  -5   4   20.19    0.82
   1   5  -4    9.66    0.44
   1   5  -4    9.24    0.56
  -1  -5   4    9.83    0.43
   0   5  -4    0.18    0.14
   0  -5   4    0.05    0.09
   1  -5   4    0.12    0.10
   2  -5   4    0.37    0.20
   2  -5   4    0.24    0.09
   3  -5   4    1.17    0.32
   3  -5   4    0.85    0.23
   4  -5   4   19.86    0.77
   4  -5   4   17.47    0.79
  -5   5  -4    0.57    0.12
   5  -5   4    0.84    0.22
   6   4  -4    1.33    0.16
   5   4  -4    2.95    0.21
   4   4  -4    0.13    0.11
   4   4  -4    0.33    0.18
   3   4  -4   52.55    2.04
   3   4  -4   53.89    2.05
   2   4  -4    6.57    0.36
   2   4  -4    7.14    0.35
  -1  -4   4    6.07    0.35
  -1  -4   4    7.26    0.34
   0  -4   4   43.33    1.67
   0  -4   4   44.44    1.68
   1  -4   4   14.97    0.63
   1  -4   4   15.37    0.63
   2  -4   4    0.71    0.15
   2  -4   4    0.62    0.19
   2  -4   4    0.70    0.17
   3  -4   4   28.34    1.14
   3  -4   4   28.33    1.14
   4  -4   4    3.03    0.26
   4  -4   4    3.22    0.23
  -5   4  -4   15.16    0.61
   5  -4   4   13.47    0.65
   5  -4   4   15.58    0.62
   6   3  -4    0.27    0.11
   5   3  -4   74.82    3.03
   5   3  -4   84.04    3.02
   4   3  -4  194.10    7.18
   4   3  -4  188.22    7.16
   3   3  -4    7.58    0.37
   3   3  -4    8.01    0.37
   3   3  -4    7.36    0.43
   2   3  -4   20.84    0.81
  -2  -3   4   19.43    0.81
  -1  -3   4  104.89    3.95
  -1  -3   4  105.23    3.95
   0  -3   4    4.74    0.21
   0  -3   4    4.41    0.23
  -1   3  -4   15.05    0.60
   1  -3   4   15.03    0.59
   1  -3   4   14.31    0.60
  -2   3  -4    9.43    0.48
   2  -3   4   11.24    0.46
   2  -3   4   10.49    0.45
   3  -3   4    1.31    0.23
   3  -3   4    0.99    0.18
   4  -3   4   38.72    1.53
   4  -3   4   39.81    1.56
  -5   3  -4    8.51    0.38
   5  -3   4    8.00    0.38
   5  -3   4    6.97    0.42
   6  -3   4   10.23    0.50
   6   2  -4   23.13    0.92
   6   2  -4   22.40    0.91
   5   2  -4   37.30    1.55
   5   2  -4   41.65    1.54
   4   2  -4   14.72    0.63
   4   2  -4   14.28    0.62
   3   2  -4   57.05    2.25
   3   2  -4   61.20    2.26
   2   2  -4  167.47    6.27
  -1  -2   4  132.91    4.97
  -1  -2   4  132.72    4.97
   0   2  -4   14.18    0.56
   0  -2   4   14.63    0.56
  -1   2  -4    0.19    0.04
   1  -2   4    0.18    0.04
  -2   2  -4    0.93    0.13
   2  -2   4    1.05    0.15
   2  -2   4    0.96    0.12
   3  -2   4    7.02    0.41
   3  -2   4    8.05    0.43
   3  -2   4    7.12    0.38
   4  -2   4    2.51    0.22
   4  -2   4    2.59    0.25
  -5   2  -4    4.20    0.29
   5  -2   4    4.15    0.25
   5  -2   4    3.74    0.30
   6   1  -4    0.71    0.14
   5   1  -4    0.54    0.18
   5   1  -4    0.69    0.19
   4   1  -4   16.36    0.68
   4   1  -4   15.48    0.68
   3   1  -4    6.62    0.32
   2   1  -4   81.83    3.11
  -2  -1   4   83.48    3.12
  -1  -1   4  489.51   17.60
  -1  -1   4  455.76   17.62
   0   1  -4   24.99    0.96
   0  -1   4   25.48    0.96
  -1   1  -4   42.50    1.64
   1  -1   4   44.75    1.64
  -2   1  -4  112.96    4.34
   2  -1   4  118.81    4.35
   3  -1   4    0.29    0.11
   3  -1   4    0.30    0.10
  -4   1  -4    4.88    0.35
   4  -1   4    5.02    0.31
   4  -1   4    5.14    0.28
  -5   1  -4   18.46    0.79
   5  -1   4   18.65    0.85
   6  -1   4    4.05    0.35
  -7   1  -4    1.14    0.16
   6   0  -4    4.34    0.27
   5   0  -4   -0.02    0.11
   4   0  -4   18.82    0.94
   4   0  -4   20.35    0.81
   3   0  -4    6.97    0.34
   2   0  -4    6.72    0.32
  -2   0   4    7.57    0.32
  -1   0   4    7.71    0.32
  -1   0   4    8.34    0.33
   0   0  -4    1.26    0.07
   0   0   4    1.33    0.07
  -1   0  -4   31.51    1.19
   1   0   4   31.42    1.19
  -2   0  -4    3.54    0.17
   2   0   4    3.51    0.17
   3   0   4  154.65    5.71
   3   0   4  149.91    5.71
  -4   0  -4    7.98    0.51
   4   0   4    9.04    0.43
   5   0   4    0.94    0.24
   6   0   4    6.76    0.42
   6  -1  -4    5.22    0.31
   5  -1  -4   21.26    0.90
   5  -1  -4   22.35    0.90
   4  -1  -4    2.94    0.21
   4  -1  -4    2.40    0.31
   3  -1  -4    1.63    0.16
   2  -1  -4  136.85    5.10
  -2   1   4  135.19    5.09
  -1   1   4  494.04   19.61
  -1   1   4  558.47   19.63
   0  -1  -4   65.76    2.38
   0   1   4   61.62    2.38
  -1  -1  -4  736.96   26.50
   1   1   4  685.31   26.50
  -2  -1  -4  134.89    4.93
   2   1   4  128.82    4.93
   3   1   4   58.58    2.25
   3   1   4   59.30    2.24
   4   1   4    8.14    0.47
   4   1   4    8.30    0.42
   5   1   4   16.78    0.74
   5   1   4   16.96    0.75
  -6  -1  -4    0.91    0.23
   6   1   4    1.05    0.22
  -7  -1  -4    0.58    0.16
   6  -2  -4    6.23    0.34
   5  -2  -4   12.95    0.57
   5  -2  -4   12.47    0.56
   4  -2  -4    6.91    0.38
   4  -2  -4    6.84    0.35
   3  -2  -4    6.27    0.42
   3  -2  -4    6.73    0.33
   3  -2  -4    7.08    0.39
   2  -2  -4  118.56    4.40
  -2   2   4  116.02    4.39
  -1   2   4   51.63    1.91
  -1   2   4   50.05    1.91
   0   2   4  317.62   11.82
  -1  -2  -4   54.61    1.96
   1   2   4   50.09    1.96
  -2  -2  -4   17.01    0.65
   2   2   4   16.23    0.65
   3   2   4   53.20    2.06
   3   2   4   54.43    2.06
   4   2   4    3.63    0.29
   4   2   4    3.61    0.29
  -5  -2  -4    1.20    0.28
   5   2   4    0.84    0.21
   5   2   4    1.09    0.23
   6   2   4   30.34    1.29
   6   2   4   32.52    1.24
  -7  -2  -4    1.58    0.27
   6  -3  -4   12.78    0.63
   5  -3  -4    2.23    0.21
   5  -3  -4    1.98    0.21
   4  -3  -4    2.92    0.25
   4  -3  -4    3.16    0.27
   3  -3  -4    6.68    0.34
   3  -3  -4    7.14    0.37
   3  -3  -4    6.60    0.38
   2  -3  -4    1.28    0.17
   2  -3  -4    0.81    0.17
   1  -3  -4   68.45    2.58
  -1  -3  -4   41.66    1.52
   1   3   4   39.42    1.52
  -2  -3  -4   12.51    0.52
   2   3   4   13.00    0.51
   3   3   4    8.18    0.40
   3   3   4    8.05    0.41
   3   3   4    7.90    0.42
  -4  -3  -4   33.25    1.34
   4   3   4   33.45    1.31
   4   3   4   32.48    1.30
  -5  -3  -4    4.50    0.39
   5   3   4    4.26    0.28
   5   3   4    4.96    0.39
  -6  -3  -4    4.86    0.35
   6   3   4    4.75    0.27
   5  -4  -4   18.81    0.77
   4  -4  -4    0.21    0.13
   4  -4  -4    0.22    0.12
   4  -4  -4    0.28    0.12
   3  -4  -4    0.68    0.15
   3  -4  -4    0.29    0.11
   3  -4  -4    0.45    0.13
   2  -4  -4   51.34    1.97
   2  -4  -4   50.28    1.96
   2  -4  -4   51.29    1.95
   1  -4  -4    0.71    0.12
   0  -4  -4  102.19    3.84
   2   4   4    1.58    0.17
  -3  -4  -4    3.08    0.39
   3   4   4    3.01    0.26
  -4  -4  -4   25.60    1.08
   4   4   4   24.94    1.05
   4   4   4   26.27    1.03
  -5  -4  -4    9.88    0.55
   5   4   4   10.10    0.46
  -6  -4  -4   18.65    0.83
   6   4   4   20.15    0.78
   5  -5  -4    0.44    0.15
   5  -5  -4    0.16    0.08
   4  -5  -4   24.24    0.98
   4  -5  -4   25.38    1.01
   3  -5  -4   10.45    0.46
   3  -5  -4   10.30    0.49
   2  -5  -4    3.61    0.28
   2  -5  -4    3.99    0.26
   2  -5  -4    4.14    0.26
   1  -5  -4   91.49    3.46
   1  -5  -4   91.25    3.45
   1  -5  -4   90.93    3.45
   0  -5  -4    7.88    0.37
   0  -5  -4    7.69    0.41
   0  -5  -4    7.60    0.43
  -1  -5  -4    0.07    0.13
  -1  -5  -4    0.00    0.21
  -2  -5  -4    0.27    0.22
   2   5   4    0.78    0.19
  -3  -5  -4    2.22    0.37
   3   5   4    2.34    0.24
  -4  -5  -4    4.00    0.43
   4   5   4    3.83    0.30
   4   5   4    3.95    0.26
  -5  -5  -4    0.10    0.29
   5   5   4    0.27    0.10
   6   5   4    6.69    0.31
   4  -6  -4   21.64    0.88
   4  -6  -4   22.29    0.90
   3  -6  -4   15.96    0.65
   3  -6  -4   16.01    0.68
   3  -6  -4   15.26    0.69
   2  -6  -4    3.05    0.27
   2  -6  -4    3.22    0.22
   2  -6  -4    2.81    0.26
   1  -6  -4    2.13    0.26
   1  -6  -4    2.28    0.25
   1  -6  -4    2.65    0.22
   0  -6  -4   31.26    1.26
   0  -6  -4   32.20    1.24
   0  -6  -4   30.84    1.24
  -1  -6  -4    1.71    0.34
  -1  -6  -4    1.13    0.26
  -1  -6  -4    1.39    0.33
  -2  -6  -4    1.83    0.34
   2   6   4    1.64    0.29
  -3  -6  -4    1.94    0.41
   3   6   4    2.20    0.23
   3   6   4    1.87    0.21
   4   6   4    4.45    0.27
   4   6   4    4.45    0.27
   5   6   4    1.41    0.15
   6   6   4    2.97    0.17
   4  -7  -4   24.78    0.96
   3  -7  -4    1.93    0.15
   3  -7  -4    1.94    0.17
   3  -7  -4    1.75    0.28
   2  -7  -4    0.33    0.10
   2  -7  -4    0.22    0.16
   2  -7  -4    0.19    0.12
   1  -7  -4   10.81    0.54
   1  -7  -4   12.13    0.54
   1  -7  -4   12.02    0.51
   0  -7  -4   29.47    1.12
   0  -7  -4   28.48    1.14
   0  -7  -4   26.13    1.14
   0   7   4   28.76    1.13
  -1  -7  -4    1.26    0.30
  -1  -7  -4    1.06    0.21
   1   7   4    1.22    0.20
  -2  -7  -4    8.38    0.51
   2   7   4    8.62    0.42
   3   7   4    0.18    0.10
   3   7   4    0.19    0.14
   4   7   4   10.33    0.47
   4   7   4   11.17    0.48
   5   7   4   12.33    0.47
   5   7   4    9.94    0.51
   3  -8  -4    0.77    0.14
   2  -8  -4    0.41    0.11
   2  -8  -4    0.66    0.12
   1  -8  -4    0.17    0.12
   1  -8  -4    0.15    0.09
   0  -8  -4    8.17    0.47
   0  -8  -4    8.25    0.42
   0   8   4    8.11    0.45
  -1  -8  -4    3.28    0.50
   1   8   4    4.81    0.27
   2   8   4    5.97    0.32
   3   8   4   16.45    0.68
   4   8   4    0.35    0.09
   4   8   4    0.33    0.12
   5   8   4    2.33    0.19
   1   9   4   -0.10    0.09
   2   9   4    5.23    0.26
   3   9   4    2.17    0.15
   4   9   4    0.06    0.08
   2   9  -5    6.52    0.30
   1   9  -5    3.77    0.23
  -1  -9   5    3.79    0.26
   0  -9   5   14.59    0.62
   4   8  -5    1.69    0.14
   3   8  -5    4.06    0.22
  -3  -8   5    3.86    0.27
   2   8  -5    4.80    0.25
  -2  -8   5    5.01    0.29
   1   8  -5    3.11    0.21
  -1  -8   5    2.98    0.24
   0   8  -5    2.55    0.24
   0  -8   5    1.94    0.20
   1  -8   5    6.47    0.34
  -2   8  -5    1.06    0.16
   2  -8   5    1.22    0.19
  -3   8  -5    2.42    0.16
   5   7  -5    3.90    0.20
   4   7  -5    6.92    0.32
   4   7  -5    6.29    0.31
  -4  -7   5    7.00    0.35
   3   7  -5    0.18    0.13
   3   7  -5    0.01    0.09
  -3  -7   5    0.05    0.11
   2   7  -5   16.76    0.67
  -2  -7   5   15.21    0.68
   1   7  -5    1.65    0.21
  -1  -7   5    1.56    0.20
   0   7  -5    4.58    0.30
   0  -7   5    3.87    0.27
   1  -7   5    0.15    0.11
   2  -7   5    1.85    0.21
  -3   7  -5    0.17    0.08
   3  -7   5    0.14    0.23
  -4   7  -5    0.73    0.15
   5   6  -5    0.69    0.13
  -5  -6   5    0.90    0.19
   4   6  -5    4.38    0.27
   4   6  -5    4.39    0.25
  -4  -6   5    4.46    0.28
   3   6  -5    1.23    0.19
   3   6  -5    1.62    0.21
  -3  -6   5    1.53    0.19
   2   6  -5    4.10    0.33
   2   6  -5    4.96    0.28
  -2  -6   5    5.05    0.29
   1   6  -5   16.72    0.70
  -1  -6   5   16.72    0.71
   0   6  -5   95.63    3.60
   0  -6   5   94.40    3.61
   1  -6   5   37.86    1.49
   2  -6   5    0.12    0.11
   3  -6   5   30.05    1.21
  -4   6  -5    0.08    0.07
   4  -6   5   -0.07    0.17
  -5   6  -5    4.83    0.23
   6   5  -5    0.45    0.11
   5   5  -5   12.52    0.54
  -5  -5   5   13.32    0.57
   4   5  -5    9.92    0.45
   4   5  -5    9.79    0.47
   3   5  -5    1.80    0.21
   3   5  -5    1.74    0.21
   2   5  -5   42.84    1.70
   2   5  -5   42.66    1.69
  -2  -5   5   45.62    1.70
   1   5  -5   12.89    0.67
   1   5  -5   14.95    0.61
  -1  -5   5   15.32    0.61
   0   5  -5   11.57    0.54
   0  -5   5   12.50    0.53
   1  -5   5   42.01    1.63
   2  -5   5    2.26    0.21
   3  -5   5    0.86    0.20
   3  -5   5    0.59    0.16
   4  -5   5    1.80    0.22
   4  -5   5    1.76    0.22
  -5   5  -5    0.40    0.08
   5  -5   5    0.11    0.15
   6   4  -5    9.18    0.39
   4   4  -5   32.34    1.30
   4   4  -5   32.84    1.28
   3   4  -5    4.04    0.28
   2   4  -5    0.04    0.11
   2   4  -5   -0.03    0.12
   1   4  -5   70.39    2.90
  -1  -4   5   78.74    2.92
  -1  -4   5   81.28    2.91
   0  -4   5    1.80    0.23
   1  -4   5    0.34    0.10
   1  -4   5    0.52    0.15
   2  -4   5   29.23    1.09
   2  -4   5   24.85    1.25
   3  -4   5    9.25    0.45
   4  -4   5    0.71    0.16
   4  -4   5    0.80    0.19
  -5   4  -5    4.33    0.23
   5  -4   5    3.70    0.30
  -6   4  -5   -0.03    0.14
   6   3  -5    2.40    0.20
   5   3  -5    7.25    0.39
   5   3  -5    8.17    0.39
   4   3  -5   11.40    0.51
   4   3  -5   11.43    0.50
   4   3  -5   10.14    0.56
   3   3  -5    6.57    0.33
   3   3  -5    6.28    0.37
   3   3  -5    6.42    0.33
  -2  -3   5   30.32    1.20
  -1  -3   5   71.47    2.66
  -1  -3   5   67.64    2.63
   0  -3   5   85.13    3.20
   0  -3   5   85.26    3.21
  -1   3  -5   38.54    1.45
   1  -3   5   38.32    1.44
   1  -3   5   35.70    1.44
   2  -3   5    8.12    0.41
   2  -3   5    7.64    0.37
   3  -3   5    4.64    0.30
   3  -3   5    5.31    0.31
   4  -3   5   33.42    1.36
   4  -3   5   34.58    1.34
  -5   3  -5   16.96    0.67
   5  -3   5   15.34    0.71
  -6   3  -5   34.77    1.37
   6  -3   5   35.80    1.40
   6   2  -5    4.60    0.27
   5   2  -5   10.58    0.48
   5   2  -5    9.36    0.47
   4   2  -5  164.41    6.16
   4   2  -5  163.75    6.18
   3   2  -5   69.29    2.73
   3   2  -5   71.38    2.70
   3   2  -5   73.09    2.71
   2   2  -5    1.30    0.16
  -2  -2   5    1.31    0.15
  -1  -2   5    1.03    0.10
  -1  -2   5    1.03    0.13
   0   2  -5    6.92    0.30
   0  -2   5    7.15    0.30
  -1   2  -5   10.10    0.41
   1  -2   5    9.64    0.43
  -2   2  -5   45.52    1.81
   2  -2   5   50.45    1.81
   2  -2   5   46.42    1.81
   3  -2   5    0.24    0.13
   3  -2   5   -0.09    0.12
   4  -2   5    3.01    0.27
   4  -2   5    2.73    0.27
  -5   2  -5   47.69    1.79
   5  -2   5   45.33    1.82
   6  -2   5   13.55    0.64
   6   1  -5    9.49    0.47
   5   1  -5   32.23    1.32
   5   1  -5   34.12    1.32
   4   1  -5    1.77    0.26
   4   1  -5    1.99    0.20
   3   1  -5   17.41    0.69
   3   1  -5   15.89    0.70
   2   1  -5   47.76    1.94
  -2  -1   5   54.28    1.94
  -1  -1   5    2.49    0.13
   0   1  -5  109.27    4.04
   0  -1   5  106.42    4.04
  -1   1  -5   84.28    3.12
   1  -1   5   82.01    3.12
  -2   1  -5   20.62    0.82
   2  -1   5   21.60    0.82
   3  -1   5   85.00    3.18
   3  -1   5   82.62    3.18
  -4   1  -5    9.60    0.45
   4  -1   5    9.70    0.47
   4  -1   5    9.61    0.44
  -5   1  -5    5.10    0.36
   6  -1   5    3.59    0.36
  -7   1  -5    2.69    0.19
   6   0  -5    6.23    0.33
   5   0  -5    8.74    0.43
   4   0  -5   17.75    0.74
   3   0  -5    6.16    0.31
   2   0  -5   82.14    3.29
  -2   0   5   89.34    3.30
  -2   0   5   90.82    3.29
  -1   0   5    1.46    0.09
  -1   0   5    1.77    0.11
   0   0   5   10.70    0.42
  -1   0  -5  185.50    7.05
   1   0   5  192.37    7.05
  -2   0  -5  103.34    3.81
   2   0   5   99.74    3.81
   3   0   5    1.17    0.22
   3   0   5    0.86    0.16
  -4   0  -5    0.69    0.20
   4   0   5    0.70    0.16
   5   0   5   20.54    0.87
   6   0   5   -0.09    0.23
  -7   0  -5    2.28    0.27
   6  -1  -5    7.59    0.37
   5  -1  -5   46.87    1.75
   5  -1  -5   43.54    1.76
   4  -1  -5   12.22    0.52
   4  -1  -5   10.93    0.60
   3  -1  -5   13.04    0.54
   3  -1  -5   12.10    0.64
   2  -1  -5    0.38    0.10
  -2   1   5    0.26    0.08
  -2   1   5    0.43    0.10
  -1   1   5   37.67    1.47
  -1   1   5   40.01    1.47
   0  -1  -5   36.92    1.36
   0   1   5   35.10    1.36
  -1  -1  -5  227.46    8.50
   1   1   5  228.40    8.49
  -2  -1  -5   22.45    0.87
   3   1   5   30.33    1.24
   3   1   5   32.77    1.23
   4   1   5    4.27    0.34
   4   1   5    3.65    0.31
   5   1   5    0.30    0.17
   5   1   5    0.23    0.20
  -6  -1  -5   10.69    0.50
   6  -2  -5    6.54    0.35
   5  -2  -5    0.70    0.19
   4  -2  -5   14.09    0.66
   4  -2  -5   16.00    0.65
   3  -2  -5    4.95    0.38
   3  -2  -5    5.15    0.39
   3  -2  -5    5.43    0.29
   2  -2  -5    2.57    0.19
  -2   2   5    2.55    0.21
  -2   2   5    2.73    0.19
  -1   2   5  106.99    3.99
  -1   2   5  106.42    3.99
   0   2   5   96.09    3.59
  -1  -2  -5    5.31    0.22
   1   2   5    5.08    0.22
  -2  -2  -5   44.74    1.66
   2   2   5   42.72    1.67
   3   2   5    1.69    0.20
  -4  -2  -5    5.82    0.36
   4   2   5    5.08    0.37
   4   2   5    5.58    0.34
  -5  -2  -5    2.86    0.29
   5   2   5    2.88    0.39
   5   2   5    3.10    0.27
   6   2   5   -0.02    0.13
  -7  -2  -5    3.26    0.26
   5  -3  -5   14.16    0.62
   5  -3  -5   14.25    0.60
   4  -3  -5    0.96    0.19
   4  -3  -5    0.79    0.21
   4  -3  -5    1.27    0.26
   3  -3  -5    2.28    0.26
   3  -3  -5    2.62    0.27
   3  -3  -5    2.39    0.21
   2  -3  -5    7.91    0.42
   2  -3  -5    7.92    0.43
   1  -3  -5   49.12    1.87
  -1  -3  -5   87.33    3.20
   1   3   5   83.64    3.19
  -2  -3  -5    3.14    0.20
   2   3   5    2.97    0.18
  -3  -3  -5    1.30    0.31
   3   3   5    1.93    0.23
   3   3   5    1.53    0.26
  -4  -3  -5    3.78    0.35
   4   3   5    3.86    0.28
  -5  -3  -5    1.96    0.31
   5   3   5    1.95    0.22
  -6  -3  -5    3.37    0.30
   6   3   5    3.68    0.24
   5  -4  -5    0.18    0.09
   5  -4  -5    0.34    0.14
   4  -4  -5   15.60    0.68
   4  -4  -5   16.01    0.66
   4  -4  -5   15.80    0.68
   3  -4  -5    0.24    0.12
   3  -4  -5    0.13    0.13
   3  -4  -5    0.38    0.13
   2  -4  -5    3.18    0.25
   2  -4  -5    3.52    0.26
   2  -4  -5    4.18    0.28
   1  -4  -5    3.26    0.30
   1  -4  -5    3.42    0.24
   1  -4  -5    3.84    0.28
  -2  -4  -5   80.77    3.11
  -3  -4  -5    2.45    0.34
   3   4   5    2.39    0.23
  -4  -4  -5    0.73    0.21
   4   4   5    1.10    0.23
   4   4   5    0.87    0.19
  -5  -4  -5    8.73    0.49
   5   4   5    8.71    0.42
  -6  -4  -5    0.45    0.18
   6   4   5    0.37    0.09
   5  -5  -5    5.48    0.26
   4  -5  -5    0.31    0.10
   4  -5  -5    0.16    0.10
   4  -5  -5    0.38    0.14
   3  -5  -5   15.00    0.68
   3  -5  -5   15.92    0.66
   3  -5  -5   16.02    0.69
   2  -5  -5  172.94    6.39
   2  -5  -5  170.25    6.41
   2  -5  -5  167.92    6.41
   1  -5  -5    8.14    0.43
   1  -5  -5    8.10    0.41
   1  -5  -5    8.26    0.41
   0  -5  -5    7.81    0.43
   0  -5  -5    7.90    0.41
   0  -5  -5    7.61    0.41
   0  -5  -5    7.88    0.44
  -1  -5  -5    2.15    0.34
  -1  -5  -5    2.12    0.32
  -1  -5  -5    2.20    0.26
  -2  -5  -5    1.79    0.33
   2   5   5    2.45    0.30
  -3  -5  -5   19.45    0.84
   3   5   5   19.35    0.80
  -4  -5  -5   19.46    0.85
   4   5   5   19.37    0.80
   4   5   5   18.78    0.81
  -5  -5  -5   10.03    0.54
   5   5   5    9.94    0.45
   6   5   5    2.04    0.16
   4  -6  -5    0.23    0.19
   4  -6  -5    0.09    0.08
   4  -6  -5    0.07    0.07
   3  -6  -5    8.88    0.47
   3  -6  -5    9.45    0.45
   3  -6  -5    9.83    0.43
   2  -6  -5    4.37    0.32
   2  -6  -5    4.36    0.29
   2  -6  -5    4.14    0.27
   1  -6  -5    2.87    0.27
   1  -6  -5    3.58    0.26
   1  -6  -5    3.40    0.31
   0  -6  -5   10.61    0.53
  -1  -6  -5    0.12    0.17
  -1  -6  -5    0.29    0.18
  -2  -6  -5   72.73    2.69
   2   6   5   66.46    2.68
  -3  -6  -5    9.88    0.54
   3   6   5   10.09    0.47
   3   6   5   10.47    0.48
  -4  -6  -5    2.39    0.39
   4   6   5    2.16    0.21
   4   6   5    1.91    0.23
   6   6   5    0.07    0.06
   4  -7  -5    0.29    0.07
   3  -7  -5    1.78    0.14
   3  -7  -5    1.78    0.16
   2  -7  -5   10.02    0.55
   2  -7  -5   11.59    0.50
   2  -7  -5   11.90    0.59
   1  -7  -5    6.52    0.34
   1  -7  -5    6.72    0.50
   1  -7  -5    5.50    0.34
   0  -7  -5    1.42    0.22
   0  -7  -5    1.18    0.26
   0   7   5    1.85    0.23
  -1  -7  -5    0.22    0.18
  -1  -7  -5    0.16    0.17
  -2  -7  -5    0.31    0.20
   2   7   5    0.44    0.13
  -3  -7  -5   29.25    1.17
   3   7   5   28.24    1.14
   3   7   5   27.79    1.13
   4   7   5   22.95    0.91
   4   7   5   22.36    0.91
   5   7   5    3.95    0.22
   3  -8  -5    6.02    0.27
   2  -8  -5    0.39    0.10
   2  -8  -5    0.55    0.11
   1  -8  -5    8.84    0.40
   1  -8  -5    9.39    0.43
   0  -8  -5    0.52    0.14
   0  -8  -5    0.55    0.13
   0   8   5    0.88    0.20
  -1  -8  -5    1.26    0.28
   1   8   5    1.46    0.19
   3   8   5   49.85    1.92
   4   8   5   11.88    0.49
   4   8   5   11.55    0.50
   5   8   5    4.10    0.24
   1  -9  -5    3.18    0.26
   1  -9  -5    3.75    0.20
   1   9   5   -0.03    0.09
   2   9   5    0.55    0.13
   3   9   5    0.60    0.12
   2   9  -6   15.45    0.61
   1   9  -6    1.80    0.19
   3   8  -6    0.74    0.12
  -3  -8   6    1.11    0.20
   2   8  -6    0.10    0.09
  -2  -8   6    0.10    0.13
   1   8  -6    1.07    0.17
  -1  -8   6    0.95    0.19
   0   8  -6    1.78    0.24
   0  -8   6    1.46    0.19
  -2   8  -6    5.68    0.30
   2  -8   6    5.46    0.31
  -3   8  -6    0.47    0.12
   4   7  -6   29.64    1.21
   4   7  -6   31.30    1.21
  -4  -7   6   33.37    1.23
   3   7  -6    6.03    0.33
   3   7  -6    6.30    0.31
  -3  -7   6    5.98    0.32
   2   7  -6    2.22    0.20
  -2  -7   6    1.93    0.21
   1   7  -6   13.12    0.55
  -1  -7   6   11.66    0.55
   0   7  -6   10.33    0.48
   0  -7   6    9.85    0.47
   1  -7   6    1.49    0.20
  -2   7  -6    2.58    0.20
   2  -7   6    2.50    0.23
  -3   7  -6    0.27    0.08
   3  -7   6    0.28    0.13
  -4   7  -6    1.95    0.14
   5   6  -6    4.19    0.22
  -5  -6   6    4.61    0.26
   4   6  -6    1.66    0.19
   4   6  -6    2.14    0.18
  -4  -6   6    1.87    0.20
   3   6  -6    9.07    0.42
   3   6  -6    8.82    0.43
  -3  -6   6    8.65    0.43
   2   6  -6    1.75    0.29
   2   6  -6    1.87    0.20
  -2  -6   6    1.77    0.19
   1   6  -6    1.50    0.20
  -1  -6   6    1.92    0.20
   0   6  -6   61.67    2.39
   0  -6   6   63.17    2.40
   1  -6   6  126.93    4.82
   2  -6   6    2.50    0.22
  -3   6  -6    7.59    0.34
   3  -6   6    6.12    0.37
  -4   6  -6    3.73    0.21
   4  -6   6    3.89    0.28
   5   5  -6    1.77    0.17
  -5  -5   6    2.29    0.21
   4   5  -6   17.35    0.73
   4   5  -6   17.15    0.72
  -4  -5   6   17.35    0.73
   3   5  -6    0.39    0.12
   3   5  -6    0.35    0.12
   2   5  -6    8.49    0.41
   2   5  -6    8.04    0.43
  -2  -5   6    9.24    0.42
   1   5  -6    8.99    0.52
   1   5  -6    9.56    0.44
  -1  -5   6    9.80    0.43
   0   5  -6   55.95    2.15
   0  -5   6   55.97    2.15
   1  -5   6    0.22    0.11
   2  -5   6    5.37    0.31
   3  -5   6    5.62    0.36
   3  -5   6    5.57    0.33
  -4   5  -6    0.86    0.17
   4  -5   6    1.03    0.22
  -5   5  -6    0.27    0.08
   5  -5   6    0.40    0.19
   6   4  -6    4.58    0.23
   5   4  -6    2.46    0.20
   4   4  -6   13.96    0.59
   4   4  -6   13.12    0.62
   3   4  -6   60.88    2.35
   3   4  -6   62.26    2.36
   2   4  -6   70.96    2.74
   2   4  -6   73.22    2.74
   1   4  -6    1.02    0.20
   1   4  -6    1.39    0.20
  -1  -4   6    1.15    0.16
   0   4  -6    0.19    0.15
   0  -4   6   -0.02    0.15
   0  -4   6    0.02    0.08
   1  -4   6   13.09    0.76
   1  -4   6   14.67    0.59
   2  -4   6    0.66    0.13
   3  -4   6   20.61    0.85
   3  -4   6   19.93    0.84
  -4   4  -6   14.03    0.60
   4  -4   6   13.69    0.64
   4  -4   6   15.03    0.62
  -5   4  -6    0.17    0.08
   5  -4   6    0.29    0.16
  -6   4  -6   -0.03    0.10
  -6   4  -6    0.24    0.22
   6   3  -6    0.17    0.10
   5   3  -6    0.13    0.16
   4   3  -6    0.35    0.11
   4   3  -6    0.33    0.20
   3   3  -6   30.75    1.16
   3   3  -6   28.31    1.17
   3   3  -6   28.72    1.15
   2   3  -6   71.34    2.67
   2   3  -6   69.10    2.66
  -1  -3   6    0.21    0.10
   0  -3   6    0.23    0.08
   0  -3   6    0.09    0.07
   1  -3   6    8.18    0.37
   1  -3   6    7.73    0.38
   2  -3   6   21.96    0.87
   2  -3   6   20.91    0.90
   3  -3   6    1.00    0.21
   3  -3   6    1.09    0.23
  -4   3  -6    7.54    0.37
   4  -3   6    7.39    0.38
   4  -3   6    7.75    0.42
  -5   3  -6   10.98    0.46
   5  -3   6    9.66    0.51
  -6   3  -6   11.05    0.49
   5   2  -6    1.55    0.20
   5   2  -6    2.06    0.25
   4   2  -6    8.20    0.41
   4   2  -6    8.04    0.39
   3   2  -6    9.73    0.43
   3   2  -6    9.40    0.43
   3   2  -6    9.04    0.49
   2   2  -6   52.73    2.04
  -2  -2   6   54.22    2.05
  -1  -2   6   84.01    3.17
   0   2  -6    3.63    0.19
   0  -2   6    3.39    0.18
  -1   2  -6    9.72    0.41
   1  -2   6    9.92    0.40
   1  -2   6    9.05    0.43
   2  -2   6   14.20    0.57
   2  -2   6   12.90    0.57
   3  -2   6  106.78    3.90
   3  -2   6   99.13    3.88
  -4   2  -6   70.08    2.76
   4  -2   6   70.86    2.77
   4  -2   6   77.36    2.80
  -5   2  -6   -0.05    0.12
   5  -2   6    0.08    0.17
   6   1  -6    1.81    0.20
   5   1  -6   11.69    0.55
   5   1  -6   13.17    0.58
   4   1  -6    8.63    0.44
   4   1  -6    8.88    0.43
   3   1  -6  107.59    4.03
   3   1  -6  105.64    4.02
   2   1  -6   17.22    0.70
  -2  -1   6   17.40    0.70
  -1  -1   6   72.82    2.75
   0   1  -6   20.85    0.80
   0  -1   6   20.20    0.80
  -1   1  -6    0.35    0.09
   1  -1   6    0.48    0.08
  -2   1  -6    2.19    0.19
   2  -1   6    1.95    0.16
  -3   1  -6    6.62    0.36
   3  -1   6    7.60    0.38
   3  -1   6    6.84    0.36
  -4   1  -6    6.92    0.37
   4  -1   6    7.55    0.40
  -5   1  -6   29.83    1.20
   5  -1   6   31.04    1.23
  -7   1  -6    4.39    0.23
   6   0  -6    0.30    0.13
   5   0  -6    4.04    0.28
   4   0  -6   10.50    0.57
   4   0  -6   11.49    0.51
   3   0  -6    1.68    0.32
   3   0  -6    1.54    0.18
   2   0  -6  150.49    5.89
  -2   0   6  164.36    5.90
  -1   0   6   26.05    1.00
  -1   0   6   25.46    1.00
   0   0  -6   10.55    0.41
   0   0   6    9.98    0.41
  -1   0  -6   26.62    1.02
   1   0   6   26.49    1.02
  -2   0  -6    0.94    0.11
   2   0   6    1.12    0.11
   3   0   6   13.09    0.57
   3   0   6   13.49    0.59
  -4   0  -6   46.93    1.86
   4   0   6   49.53    1.87
  -5   0  -6   12.83    0.67
   5   0   6   14.62    0.66
  -6   0  -6   12.49    0.55
  -7   0  -6    1.25    0.23
   6  -1  -6   11.82    0.52
   5  -1  -6    4.41    0.28
   4  -1  -6    1.21    0.20
   4  -1  -6    1.19    0.32
   3  -1  -6   26.60    1.17
   3  -1  -6   30.06    1.12
   2  -1  -6    7.66    0.35
  -2   1   6    7.67    0.34
  -2   1   6    6.98    0.38
  -1   1   6  123.33    4.54
  -1   1   6  119.14    4.54
   0  -1  -6    5.67    0.24
   0   1   6    5.63    0.24
  -1  -1  -6  102.38    3.71
   1   1   6   95.57    3.71
  -2  -1  -6   17.04    0.68
   2   1   6   17.41    0.68
   3   1   6   76.66    2.91
  -4  -1  -6   23.76    1.05
   4   1   6   26.35    1.03
  -5  -1  -6   48.97    1.89
   5   1   6   47.93    1.88
   5  -2  -6   14.44    0.64
   5  -2  -6   15.10    0.63
   4  -2  -6    1.40    0.25
   3  -2  -6   13.84    0.66
   3  -2  -6   14.39    0.59
   3  -2  -6   13.36    0.65
   2  -2  -6  159.49    6.07
  -2   2   6  164.57    6.07
  -1   2   6   51.50    1.96
  -1   2   6   52.16    1.95
   0   2   6    0.60    0.08
  -1  -2  -6   27.15    1.02
   1   2   6   26.41    1.02
  -2  -2  -6    1.98    0.16
   2   2   6    2.28    0.15
  -3  -2  -6    6.82    0.40
   3   2   6    6.73    0.36
  -4  -2  -6   33.97    1.34
   4   2   6   33.21    1.32
  -5  -2  -6    1.45    0.25
   5   2   6    0.93    0.24
  -6  -2  -6    0.47    0.14
   6   2   6    0.40    0.14
  -7  -2  -6    0.30    0.13
   5  -3  -6    0.46    0.11
   5  -3  -6    0.49    0.15
   4  -3  -6    4.55    0.29
   4  -3  -6    3.98    0.28
   4  -3  -6    4.07    0.33
   3  -3  -6   20.99    0.92
   3  -3  -6   23.31    0.90
   3  -3  -6   21.44    0.91
   2  -3  -6    3.42    0.33
   2  -3  -6    3.65    0.25
   2  -3  -6    4.02    0.31
   1  -3  -6   54.80    2.09
  -1  -3  -6    4.50    0.22
   1   3   6    4.53    0.21
  -2  -3  -6    0.59    0.11
   2   3   6    0.74    0.14
  -3  -3  -6   30.27    1.17
   3   3   6   28.93    1.15
   3   3   6   27.89    1.18
  -4  -3  -6    6.01    0.39
   4   3   6    6.42    0.35
  -5  -3  -6   26.13    1.09
   5   3   6   26.58    1.06
  -6  -3  -6   -0.05    0.15
   6   3   6    0.01    0.10
  -7  -3  -6    1.42    0.37
   5  -4  -6    6.62    0.31
   5  -4  -6    6.71    0.39
   4  -4  -6    4.17    0.29
   4  -4  -6    4.56    0.28
   4  -4  -6    4.21    0.30
   3  -4  -6   42.53    1.56
   3  -4  -6   36.10    1.56
   3  -4  -6   40.20    1.54
   2  -4  -6   55.64    2.30
   2  -4  -6   61.95    2.29
   2  -4  -6   61.80    2.29
   1  -4  -6   65.56    2.48
   1  -4  -6   60.98    2.48
   1  -4  -6   74.19    2.62
   1  -4  -6   60.71    2.50
   0  -4  -6   72.76    2.78
  -2  -4  -6   28.47    1.10
  -2  -4  -6   25.55    1.09
  -3  -4  -6    2.43    0.31
   3   4   6    2.89    0.25
  -4  -4  -6   26.48    1.05
   4   4   6   23.92    1.05
   4   4   6   25.60    1.02
  -5  -4  -6    0.36    0.18
   5   4   6    0.26    0.12
  -6  -4  -6    4.08    0.29
   6   4   6    3.61    0.23
   5  -5  -6    1.90    0.14
   4  -5  -6    6.83    0.33
   4  -5  -6    7.73    0.35
   4  -5  -6    6.35    0.50
   3  -5  -6   18.15    0.78
   3  -5  -6   18.76    0.75
   3  -5  -6   17.56    0.77
   2  -5  -6   33.15    1.39
   2  -5  -6   36.36    1.40
   2  -5  -6   35.79    1.38
   1  -5  -6    2.68    0.35
   1  -5  -6    2.54    0.25
   1  -5  -6    2.46    0.26
   1  -5  -6    2.09    0.27
   0  -5  -6  199.10    7.54
   0  -5  -6  210.37    7.57
   0  -5  -6  194.59    7.55
  -1  -5  -6    5.49    0.39
  -1  -5  -6    6.63    0.40
  -2  -5  -6    1.20    0.28
  -2  -5  -6    1.68    0.28
   2   5   6    1.00    0.28
   3   5   6    0.49    0.14
  -4  -5  -6    0.29    0.20
   4   5   6    0.26    0.16
   4   5   6    0.31    0.13
  -5  -5  -6   17.48    0.78
   5   5   6   16.86    0.72
   6   5   6    4.74    0.24
   4  -6  -6    0.20    0.08
   4  -6  -6    0.23    0.07
   3  -6  -6    0.19    0.20
   3  -6  -6    0.04    0.08
   3  -6  -6    0.11    0.10
   2  -6  -6    0.58    0.13
   2  -6  -6    0.52    0.12
   2  -6  -6    0.70    0.20
   1  -6  -6    6.54    0.35
   1  -6  -6    6.39    0.37
   0  -6  -6   20.38    0.84
   0  -6  -6   20.10    0.86
  -1  -6  -6   48.21    1.88
  -2  -6  -6    1.98    0.32
   2   6   6    1.17    0.21
  -3  -6  -6    0.09    0.19
   3   6   6    0.25    0.14
  -4  -6  -6    3.89    0.37
   4   6   6    4.13    0.27
   4   6   6    4.11    0.29
  -5  -6  -6    0.27    0.24
   5   6   6    0.15    0.08
   6   6   6    3.13    0.18
   3  -7  -6    1.93    0.14
   3  -7  -6    1.96    0.16
   2  -7  -6    1.35    0.15
   2  -7  -6    1.29    0.17
   1  -7  -6    0.41    0.12
   1  -7  -6    1.02    0.21
   0  -7  -6   10.27    0.50
   0  -7  -6   11.21    0.50
  -1  -7  -6    0.38    0.18
  -1  -7  -6    0.19    0.17
  -2  -7  -6    8.38    0.49
   2   7   6    8.55    0.42
  -3  -7  -6    2.17    0.35
   3   7   6    2.17    0.22
   3   7   6    2.24    0.26
   4   7   6    0.68    0.16
   4   7   6    0.35    0.11
   5   7   6    1.04    0.14
   2  -8  -6    0.18    0.07
   2  -8  -6    0.24    0.09
   1  -8  -6    9.41    0.43
   1  -8  -6    9.15    0.41
   0  -8  -6    0.09    0.10
   0  -8  -6    0.15    0.12
   0   8   6    0.19    0.13
  -1  -8  -6  101.92    4.02
  -1  -8  -6  106.31    4.03
   1   8   6  111.93    4.09
  -2  -8  -6    0.63    0.19
   2   8   6    0.43    0.11
   3   8   6   10.97    0.48
   4   8   6   28.51    1.08
   4   8   6   26.17    1.06
   1  -9  -6    1.06    0.18
   1  -9  -6    1.12    0.14
   0  -9  -6   10.95    0.49
   0  -9  -6   10.88    0.47
   1   9   6    2.87    0.20
   2   9   6    8.23    0.37
   3   9   6    0.50    0.12
   3   8  -7    0.30    0.08
  -3  -8   7    0.41    0.14
   2   8  -7    0.90    0.14
  -2  -8   7    0.85    0.18
   1   8  -7    8.55    0.38
  -1  -8   7    7.84    0.42
   0   8  -7    0.32    0.15
   0  -8   7    0.02    0.14
   1  -8   7    0.04    0.13
   2  -8   7    2.76    0.26
   4   7  -7    1.96    0.16
   4   7  -7    2.26    0.19
  -4  -7   7    2.31    0.21
   3   7  -7    0.09    0.09
   3   7  -7    0.03    0.11
  -3  -7   7    0.11    0.12
  -2  -7   7   23.97    0.97
   1   7  -7    0.64    0.14
  -1  -7   7    0.70    0.17
   0   7  -7    2.68    0.25
   0  -7   7    2.24    0.22
   1  -7   7    4.12    0.27
  -2   7  -7    1.18    0.17
   2  -7   7    1.27    0.20
  -3   7  -7    8.32    0.36
   3  -7   7    8.29    0.41
  -4   7  -7    1.23    0.12
   5   6  -7    7.99    0.35
   4   6  -7    0.90    0.16
   4   6  -7    0.85    0.15
  -4  -6   7    1.05    0.18
   3   6  -7    3.30    0.24
   3   6  -7    3.09    0.25
  -3  -6   7    2.40    0.22
   2   6  -7    6.91    0.40
   2   6  -7    7.64    0.37
  -2  -6   7    6.92    0.36
   1   6  -7   53.87    2.06
  -1  -6   7   52.91    2.06
   0   6  -7    1.25    0.22
  -1   6  -7   23.40    0.94
   1  -6   7   23.57    0.96
  -2   6  -7    3.25    0.24
   2  -6   7    3.07    0.24
  -3   6  -7    3.04    0.20
   3  -6   7    2.69    0.26
  -4   6  -7    8.56    0.37
   4  -6   7    8.38    0.43
   5   5  -7    4.61    0.24
  -5  -5   7    4.51    0.27
   4   5  -7    3.58    0.24
   4   5  -7    3.68    0.26
  -4  -5   7    3.56    0.25
   3   5  -7   10.21    0.48
   3   5  -7   10.35    0.48
  -3  -5   7   10.33    0.48
   2   5  -7   13.68    0.61
   2   5  -7   13.76    0.63
  -2  -5   7   15.50    0.62
   1   5  -7    6.03    0.32
   1   5  -7    4.58    0.40
  -1  -5   7    6.61    0.31
   0   5  -7   97.51    3.80
   0  -5   7  103.32    3.80
  -1   5  -7   41.45    1.89
  -1   5  -7   46.83    1.85
   1  -5   7   53.51    1.84
   2  -5   7    2.54    0.23
  -3   5  -7   11.37    0.49
   3  -5   7   10.66    0.52
  -4   5  -7   16.72    0.68
   4  -5   7   16.43    0.72
  -5   5  -7    1.00    0.18
  -5   5  -7    1.05    0.12
   5   4  -7    5.51    0.29
   4   4  -7    0.06    0.16
   4   4  -7    0.17    0.10
   3   4  -7    2.49    0.25
   3   4  -7    1.85    0.20
   2   4  -7    0.04    0.11
   2   4  -7    0.16    0.13
   1   4  -7   15.07    0.69
   1   4  -7   14.68    0.65
  -1  -4   7   17.00    0.65
   0   4  -7   47.96    1.88
   0  -4   7   50.00    1.88
  -1   4  -7   26.09    1.18
  -1   4  -7   29.46    1.15
   1  -4   7   31.61    1.15
   2  -4   7    8.39    0.41
  -3   4  -7    1.10    0.19
   3  -4   7    1.22    0.23
   3  -4   7    1.34    0.27
  -4   4  -7    2.20    0.19
   4  -4   7    1.98    0.26
  -5   4  -7    8.88    0.39
   5  -4   7    8.57    0.47
  -6   4  -7    0.27    0.12
   6   3  -7    3.69    0.23
   5   3  -7   21.05    0.86
   4   3  -7    5.99    0.32
   4   3  -7    5.62    0.37
   2   3  -7    0.94    0.19
   2   3  -7    1.16    0.19
   1   3  -7   15.08    0.64
   0  -3   7  136.78    5.12
   0  -3   7  135.66    5.10
   1  -3   7   25.63    0.95
   1  -3   7   22.40    0.97
   2  -3   7    1.82    0.20
  -3   3  -7    0.27    0.11
   3  -3   7    0.15    0.14
   3  -3   7    0.31    0.15
  -4   3  -7    1.93    0.19
   5  -3   7    2.12    0.29
  -6   3  -7    4.47    0.24
  -6   3  -7    3.95    0.25
   5   2  -7    1.59    0.22
   5   2  -7    1.44    0.19
   4   2  -7   10.70    0.50
   3   2  -7   50.71    1.87
   3   2  -7   45.83    1.87
   3   2  -7   48.75    1.87
   2   2  -7    0.02    0.15
   2   2  -7   -0.01    0.11
   2   2  -7   -0.10    0.11
   0  -2   7  265.90    9.52
   0  -2   7  243.74    9.50
   1  -2   7   60.45    2.32
   1  -2   7   61.66    2.31
   2  -2   7   14.10    0.58
   2  -2   7   13.12    0.61
  -3   2  -7   23.09    0.93
   3  -2   7   23.70    0.95
  -4   2  -7    0.71    0.18
   4  -2   7    1.08    0.28
  -5   2  -7    2.94    0.24
   5  -2   7    2.99    0.33
  -6   2  -7    2.16    0.25
  -6   2  -7    2.19    0.19
   5   1  -7   18.92    0.81
   5   1  -7   20.75    0.82
   4   1  -7   23.40    0.94
   4   1  -7   22.29    0.94
   3   1  -7   27.34    1.05
   3   1  -7   24.03    1.07
   3   1  -7   27.72    1.06
   2   1  -7    8.56    0.40
   1   1  -7   21.96    0.92
  -1  -1   7   24.86    0.92
   0   1  -7    3.85    0.20
  -1   1  -7   38.33    1.49
   1  -1   7   39.24    1.48
   2  -1   7    1.37    0.18
  -3   1  -7   11.61    0.51
   3  -1   7   11.77    0.55
  -4   1  -7    1.54    0.23
   4  -1   7    1.66    0.29
  -5   1  -7    1.80    0.26
  -6   1  -7    6.45    0.33
   6   0  -7    8.11    0.39
   5   0  -7    5.15    0.31
   4   0  -7   34.24    1.42
   4   0  -7   37.79    1.43
   3   0  -7   13.71    0.63
   3   0  -7   13.64    0.59
   2   0  -7    1.06    0.18
  -2   0   7    1.09    0.20
  -1   0   7   44.14    1.61
  -1   0   7   39.92    1.61
   0   0  -7  191.50    7.15
  -1   0  -7    0.06    0.06
   1   0   7    0.10    0.05
   2   0   7   11.19    0.48
  -3   0  -7    2.01    0.32
  -4   0  -7    3.67    0.31
  -5   0  -7    0.03    0.18
  -6   0  -7   15.64    0.66
  -7   0  -7    2.74    0.19
   5  -1  -7   21.71    0.89
   3  -1  -7    4.26    0.27
   2  -1  -7    0.04    0.12
  -2   1   7    0.08    0.11
  -1   1   7   19.07    0.72
  -1   1   7   17.08    0.72
   0  -1  -7  295.04   11.09
   0   1   7  300.05   11.09
  -1  -1  -7   42.37    1.62
   1   1   7   42.82    1.62
  -2  -1  -7  100.88    3.87
   2   1   7  104.68    3.87
  -3  -1  -7   52.68    2.03
  -4  -1  -7    0.34    0.19
  -4  -1  -7    0.11    0.18
   4   1   7    0.00    0.17
  -5  -1  -7   34.44    1.37
   5   1   7   34.86    1.38
  -6  -1  -7    0.21    0.12
  -7  -1  -7    2.13    0.18
   5  -2  -7    5.56    0.33
   5  -2  -7    5.57    0.33
   4  -2  -7   22.36    0.96
   4  -2  -7   24.82    0.97
   3  -2  -7   59.15    2.22
   3  -2  -7   58.48    2.24
   3  -2  -7   55.88    2.23
   2  -2  -7    1.05    0.23
   2  -2  -7    0.91    0.21
   2  -2  -7    0.69    0.14
  -1   2   7   61.29    2.27
  -1   2   7   59.11    2.28
   0   2   7   21.00    0.81
  -1  -2  -7    3.75    0.21
   1   2   7    4.04    0.20
  -2  -2  -7  259.93    9.79
   2   2   7  264.30    9.79
  -3  -2  -7  217.27    8.14
  -4  -2  -7    0.85    0.17
   4   2   7    0.96    0.24
  -5  -2  -7    0.06    0.14
   5   2   7   -0.17    0.15
  -6  -2  -7   -0.01    0.13
   6   2   7    0.14    0.14
  -7  -2  -7    3.13    0.22
   5  -3  -7   28.19    1.12
   5  -3  -7   27.57    1.08
   4  -3  -7   20.47    0.81
   4  -3  -7   18.10    0.81
   3  -3  -7   13.51    0.60
   3  -3  -7   13.87    0.62
   3  -3  -7   13.29    0.60
   2  -3  -7   62.91    2.33
   2  -3  -7   61.83    2.33
   2  -3  -7   58.19    2.35
   1  -3  -7   12.95    0.61
   1  -3  -7   12.37    0.58
  -1  -3  -7   18.95    0.76
   1   3   7   20.06    0.76
   2   3   7   59.80    2.27
  -3  -3  -7   21.61    0.95
  -3  -3  -7   23.18    0.93
  -4  -3  -7   16.12    0.72
   4   3   7   16.57    0.69
  -5  -3  -7    9.84    0.50
   5   3   7   10.28    0.48
  -6  -3  -7    1.54    0.22
   6   3   7    1.50    0.19
  -7  -3  -7   18.05    0.73
   5  -4  -7    0.73    0.20
   4  -4  -7    3.19    0.26
   4  -4  -7    2.62    0.28
   4  -4  -7    2.55    0.23
   3  -4  -7   17.91    0.76
   3  -4  -7   17.75    0.74
   3  -4  -7   17.42    0.75
   2  -4  -7    9.84    0.57
   2  -4  -7   10.51    0.54
   2  -4  -7   11.20    0.51
   1  -4  -7   15.22    0.73
   1  -4  -7   15.63    0.69
   1  -4  -7   16.03    0.67
   0  -4  -7    5.57    0.36
   0  -4  -7    5.82    0.35
   0  -4  -7    5.61    0.39
  -1  -4  -7   11.28    0.55
  -1  -4  -7   11.75    0.56
  -1  -4  -7   12.86    0.58
  -2  -4  -7   44.93    1.78
  -2  -4  -7   47.73    1.78
  -2  -4  -7   43.95    1.76
  -3  -4  -7   24.81    1.01
   3   4   7   24.71    1.00
  -4  -4  -7   -0.01    0.16
   4   4   7    0.02    0.11
  -5  -4  -7    1.01    0.27
   5   4   7    1.53    0.21
  -6  -4  -7    7.70    0.39
   6   4   7    8.07    0.37
   5  -5  -7   26.24    1.00
   4  -5  -7   36.10    1.36
   4  -5  -7   34.11    1.35
   3  -5  -7    8.27    0.41
   3  -5  -7    7.92    0.45
   3  -5  -7    8.81    0.40
   2  -5  -7   70.51    2.63
   2  -5  -7   67.37    2.65
   1  -5  -7   10.70    0.55
   1  -5  -7   11.55    0.50
   1  -5  -7   10.33    0.52
   0  -5  -7    0.90    0.20
   0  -5  -7    0.97    0.18
   0  -5  -7    0.51    0.14
  -1  -5  -7    2.82    0.29
  -1  -5  -7    2.08    0.30
  -1  -5  -7    2.30    0.30
  -2  -5  -7   22.91    0.92
  -2  -5  -7   21.66    0.90
  -2  -5  -7   21.87    0.92
   2   5   7   20.18    0.90
  -3  -5  -7   15.83    0.69
   3   5   7   14.74    0.66
  -4  -5  -7   23.60    0.97
   4   5   7   22.94    0.94
   4   5   7   22.65    0.95
  -5  -5  -7    7.44    0.60
   5   5   7    9.64    0.43
   6   5   7    0.69    0.13
   4  -6  -7   14.51    0.59
   3  -6  -7   32.59    1.26
   3  -6  -7   31.13    1.24
   2  -6  -7    0.78    0.20
   2  -6  -7    0.81    0.13
   1  -6  -7    0.81    0.20
   1  -6  -7    0.84    0.21
   0  -6  -7    7.89    0.43
   0  -6  -7    7.88    0.41
  -1  -6  -7    0.18    0.16
  -1  -6  -7    0.09    0.16
  -2  -6  -7    1.09    0.29
  -2  -6  -7    1.01    0.24
   2   6   7    1.14    0.22
  -3  -6  -7   45.97    1.82
   3   6   7   47.11    1.81
  -4  -6  -7   11.19    0.55
   4   6   7   11.14    0.52
   4   6   7   11.40    0.51
  -5  -6  -7    5.53    0.38
   5   6   7    6.02    0.30
   3  -7  -7    0.29    0.08
   3  -7  -7    0.47    0.10
   2  -7  -7    2.45    0.20
   2  -7  -7    2.47    0.18
   1  -7  -7   19.12    0.81
   1  -7  -7   19.82    0.80
   0  -7  -7    0.13    0.13
   0  -7  -7    0.13    0.12
  -1  -7  -7    4.65    0.34
  -1  -7  -7    5.51    0.36
  -2  -7  -7    0.40    0.19
  -3  -7  -7    0.37    0.19
   3   7   7    0.10    0.11
   3   7   7    0.16    0.15
  -4  -7  -7    9.91    0.53
   4   7   7   11.34    0.48
   4   7   7   10.86    0.48
   5   7   7    0.93    0.14
   2  -8  -7    8.27    0.36
   2  -8  -7    8.03    0.35
   1  -8  -7    9.12    0.39
   1  -8  -7    8.82    0.41
   0  -8  -7   -0.10    0.12
   0  -8  -7    0.13    0.10
   0   8   7   -0.04    0.11
  -1  -8  -7    6.46    0.36
  -1  -8  -7    6.31    0.35
   1   8   7    6.44    0.34
  -2  -8  -7    0.20    0.16
   2   8   7    0.38    0.11
  -3  -8  -7   23.57    1.01
   3   8   7   25.79    0.99
   4   8   7    0.00    0.09
   4   8   7   -0.03    0.13
   1  -9  -7    1.32    0.18
   1  -9  -7    1.11    0.13
   0  -9  -7    2.28    0.22
   0  -9  -7    1.38    0.21
  -1  -9  -7    0.18    0.18
   1   9   7    0.40    0.10
   2   9   7    3.81    0.21
   3   8  -8   11.77    0.47
   2   8  -8   10.48    0.43
  -2  -8   8    9.76    0.45
   1   8  -8   -0.02    0.10
  -1  -8   8    0.24    0.10
   0  -8   8   15.28    0.64
   1  -8   8    0.55    0.14
   4   7  -8   15.47    0.61
   3   7  -8    0.40    0.12
   3   7  -8    0.33    0.11
  -3  -7   8    0.28    0.12
   2   7  -8    4.12    0.24
  -2  -7   8    4.22    0.26
   1   7  -8    2.38    0.21
  -1  -7   8    2.50    0.21
   0   7  -8    1.83    0.23
   0  -7   8    1.39    0.20
   1  -7   8   16.68    0.70
  -2   7  -8    3.69    0.24
  -3   7  -8    0.09    0.08
   3  -7   8    0.22    0.16
   4   6  -8    1.68    0.16
   4   6  -8    1.64    0.16
  -4  -6   8    1.45    0.18
   3   6  -8   11.09    0.47
   3   6  -8   10.19    0.46
  -3  -6   8    9.62    0.46
   2   6  -8    0.61    0.17
   2   6  -8    0.45    0.13
  -2  -6   8    0.27    0.12
   1   6  -8    0.47    0.13
  -1  -6   8    0.51    0.13
   0   6  -8    0.18    0.14
   0  -6   8    0.06    0.12
  -1   6  -8    1.24    0.19
   1  -6   8    1.23    0.20
  -2   6  -8    1.53    0.19
   2  -6   8    1.52    0.21
  -3   6  -8   14.42    0.59
   3  -6   8   14.27    0.62
  -4   6  -8    2.26    0.16
   4  -6   8    2.78    0.34
   5   5  -8    0.55    0.11
  -5  -5   8    0.75    0.19
   4   5  -8   18.69    0.76
   4   5  -8   18.38    0.76
  -4  -5   8   18.46    0.76
   3   5  -8    3.72    0.27
   3   5  -8    3.65    0.26
  -3  -5   8    3.33    0.25
   2   5  -8   17.56    0.74
   2   5  -8   17.46    0.75
   1   5  -8    3.81    0.33
   1   5  -8    3.87    0.26
  -1  -5   8    4.26    0.25
   0   5  -8    0.47    0.15
   0  -5   8    0.55    0.13
  -1   5  -8   11.82    0.56
  -1   5  -8   11.57    0.60
   1  -5   8   14.38    0.57
  -2   5  -8   43.06    1.66
  -3   5  -8   -0.11    0.09
   3  -5   8    0.11    0.14
  -4   5  -8   25.51    1.05
   4  -5   8   28.22    1.11
  -5   5  -8    2.78    0.17
   5   4  -8   21.07    0.82
  -5  -4   8   20.00    0.83
   4   4  -8    2.46    0.27
   4   4  -8    2.36    0.22
   3   4  -8   15.74    0.67
   3   4  -8   15.59    0.68
   2   4  -8    5.03    0.33
   2   4  -8    5.40    0.31
  -2  -4   8    5.58    0.30
   1   4  -8    8.37    0.41
   1   4  -8    8.45    0.45
  -1  -4   8    9.14    0.40
   0   4  -8    2.36    0.25
   0   4  -8    1.86    0.37
   0  -4   8    2.16    0.20
  -1   4  -8   10.46    0.55
  -1   4  -8   10.59    0.51
   1  -4   8   11.38    0.49
  -2   4  -8    2.20    0.21
   2  -4   8    2.61    0.23
  -3   4  -8    6.26    0.33
   3  -4   8    6.68    0.38
  -4   4  -8    0.00    0.09
   4  -4   8   -0.04    0.16
  -5   4  -8    0.03    0.08
   5   3  -8    9.84    0.44
   4   3  -8   26.81    1.06
   4   3  -8   25.61    1.06
   3   3  -8   14.72    0.65
   3   3  -8   14.89    0.64
   2   3  -8    5.54    0.32
   2   3  -8    5.34    0.32
   1   3  -8    8.05    0.43
   1   3  -8    8.51    0.41
  -1  -3   8    8.44    0.39
   0   3  -8    3.93    0.28
   0  -3   8    3.73    0.23
  -1   3  -8    9.05    0.45
   1  -3   8    8.88    0.42
  -2   3  -8   36.54    1.43
   2  -3   8   37.46    1.44
  -3   3  -8    0.23    0.10
   3  -3   8    0.12    0.16
  -4   3  -8    5.05    0.27
   4  -3   8    4.46    0.36
  -5   3  -8    0.17    0.10
  -6   3  -8   -0.08    0.12
  -6   3  -8    0.17    0.11
   5   2  -8   31.07    1.22
   4   2  -8   20.11    0.82
   4   2  -8   19.33    0.82
   3   2  -8  140.53    5.04
   3   2  -8  124.83    5.04
   3   2  -8  136.05    5.04
   2   2  -8  103.77    3.98
   2   2  -8  107.36    3.99
   0  -2   8   12.11    0.50
   0  -2   8   11.21    0.49
   1  -2   8   35.48    1.37
   1  -2   8   35.44    1.38
  -2   2  -8   16.75    0.70
   2  -2   8   17.20    0.71
  -3   2  -8   23.28    0.94
   3  -2   8   23.79    0.97
  -4   2  -8    0.26    0.11
   4  -2   8    0.68    0.20
  -5   2  -8   12.88    0.55
  -6   2  -8    2.24    0.19
  -6   2  -8    2.36    0.24
   5   1  -8    0.53    0.14
   5   1  -8    0.54    0.16
   4   1  -8   84.85    3.40
   4   1  -8   94.18    3.40
   3   1  -8   57.24    2.22
   3   1  -8   54.80    2.22
   3   1  -8   61.68    2.22
   2   1  -8   39.82    1.59
   2   1  -8   40.16    1.58
   2   1  -8   42.67    1.59
  -1  -1   8   36.61    1.42
   0  -1   8   15.47    0.62
   1  -1   8   31.44    1.22
   2  -1   8   71.89    2.74
  -3   1  -8    5.28    0.31
  -4   1  -8    0.05    0.12
  -5   1  -8    0.62    0.15
  -6   1  -8    0.17    0.10
   5   0  -8    1.13    0.22
   4   0  -8    2.66    0.24
   4   0  -8    2.03    0.30
   3   0  -8   15.67    0.66
   3   0  -8   15.18    0.68
   2   0  -8  179.59    6.85
   2   0  -8  169.12    6.85
   2   0  -8  200.33    6.90
  -1   0   8   60.23    2.29
   0   0  -8   57.18    2.26
   0   0   8   62.26    2.26
  -1   0  -8   15.47    0.65
   1   0   8   16.13    0.64
   2   0   8    5.32    0.31
  -3   0  -8   43.75    1.69
  -4   0  -8    1.44    0.25
   4   0   8    1.11    0.24
  -5   0  -8    4.69    0.30
  -5   0  -8    3.99    0.30
  -6   0  -8    0.06    0.11
  -7   0  -8    1.78    0.15
   5  -1  -8    5.70    0.34
   4  -1  -8   12.72    0.58
   3  -1  -8   21.20    0.87
   2  -1  -8    3.69    0.29
   2  -1  -8    4.59    0.44
   2  -1  -8    2.72    0.63
  -2   1   8    3.53    0.37
  -1   1   8    3.38    0.27
  -1   1   8    3.52    0.22
   0   1   8    5.13    0.25
  -1  -1  -8   11.03    0.48
   1   1   8   11.20    0.47
   2   1   8  311.76   11.64
  -3  -1  -8  105.75    3.98
  -3  -1  -8  104.96    3.97
  -4  -1  -8    9.37    0.49
   4   1   8   10.71    0.51
  -5  -1  -8    9.97    0.48
   5   1   8    9.81    0.51
  -6  -1  -8    0.26    0.11
  -7  -1  -8    0.07    0.09
   5  -2  -8    0.62    0.18
   4  -2  -8    3.96    0.32
   4  -2  -8    4.70    0.34
   3  -2  -8    1.99    0.25
   3  -2  -8    2.61    0.30
   2  -2  -8   12.94    0.60
   2  -2  -8   15.04    0.64
   2  -2  -8   12.98    0.69
   2  -2  -8   12.16    0.63
  -1   2   8   19.77    0.91
  -1   2   8   24.11    0.88
   0   2   8  171.56    6.41
  -1  -2  -8    1.82    0.20
   1   2   8    2.11    0.17
   2   2   8    6.13    0.34
  -3  -2  -8   10.85    0.51
  -3  -2  -8   10.65    0.54
  -4  -2  -8    0.68    0.23
  -4  -2  -8    1.10    0.24
   4   2   8    1.23    0.25
  -5  -2  -8    7.91    0.44
   5   2   8    9.08    0.44
  -6  -2  -8    0.09    0.11
   6   2   8    0.13    0.14
  -7  -2  -8    0.96    0.15
   5  -3  -8    1.96    0.37
   4  -3  -8    2.22    0.28
   4  -3  -8    2.25    0.24
   3  -3  -8   37.20    1.40
   3  -3  -8   33.03    1.38
   3  -3  -8   35.29    1.39
   2  -3  -8    2.32    0.30
   2  -3  -8    2.13    0.28
   1  -3  -8   73.87    2.85
   1  -3  -8   74.09    2.83
   1  -3  -8   74.66    2.82
   0  -3  -8   33.39    1.32
   1   3   8   21.93    0.87
  -2  -3  -8    3.66    0.30
  -2  -3  -8    4.30    0.35
  -2  -3  -8    4.22    0.36
   2   3   8    3.49    0.33
  -3  -3  -8    0.29    0.21
  -3  -3  -8    0.18    0.22
  -3  -3  -8   -0.02    0.15
  -4  -3  -8    5.51    0.35
   4   3   8    5.48    0.33
  -5  -3  -8   11.97    0.56
   5   3   8   12.15    0.55
  -6  -3  -8    8.10    0.40
   6   3   8    8.43    0.39
  -7  -3  -8    0.43    0.14
   5  -4  -8   -0.01    0.11
   4  -4  -8    0.95    0.18
   4  -4  -8    1.26    0.21
   4  -4  -8    1.09    0.29
   3  -4  -8    0.43    0.14
   3  -4  -8    0.24    0.19
   3  -4  -8    0.33    0.14
   2  -4  -8   14.94    0.64
   2  -4  -8   13.83    0.63
   1  -4  -8    6.47    0.46
   1  -4  -8    7.07    0.39
   1  -4  -8    7.20    0.39
   0  -4  -8   16.59    0.71
   0  -4  -8   17.11    0.75
   0  -4  -8   17.16    0.73
  -1  -4  -8    2.43    0.27
  -1  -4  -8    3.13    0.30
  -1  -4  -8    2.31    0.29
  -2  -4  -8   18.33    0.81
  -2  -4  -8   19.03    0.81
  -2  -4  -8   18.84    0.79
  -3  -4  -8    6.50    0.52
  -3  -4  -8    7.39    0.43
  -3  -4  -8    7.07    0.39
   3   4   8    7.26    0.39
  -4  -4  -8   16.10    0.70
   4   4   8   15.69    0.68
  -5  -4  -8    4.06    0.30
   5   4   8    4.21    0.28
  -6  -4  -8    4.12    0.27
   6   4   8    3.98    0.24
   4  -5  -8    0.78    0.16
   4  -5  -8    1.03    0.14
   3  -5  -8    0.25    0.11
   3  -5  -8    0.32    0.11
   2  -5  -8    9.09    0.45
   2  -5  -8    8.64    0.43
   1  -5  -8   60.37    2.32
   1  -5  -8   60.30    2.31
   1  -5  -8   60.14    2.34
   0  -5  -8   10.72    0.71
   0  -5  -8   12.06    0.57
   0  -5  -8   12.49    0.57
  -1  -5  -8    0.97    0.26
  -1  -5  -8    0.72    0.17
  -1  -5  -8    1.00    0.25
  -2  -5  -8   30.16    1.18
  -2  -5  -8   28.83    1.18
  -2  -5  -8   28.06    1.16
   2   5   8   27.23    1.16
  -3  -5  -8    6.48    0.38
   3   5   8    6.29    0.37
  -4  -5  -8    1.58    0.28
   4   5   8    1.72    0.23
   4   5   8    1.93    0.28
  -5  -5  -8   28.80    1.12
   5   5   8   26.94    1.11
  -6  -5  -8   11.64    0.64
   6   5   8   12.05    0.50
   4  -6  -8    4.05    0.21
   3  -6  -8    4.23    0.23
   3  -6  -8    4.70    0.26
   2  -6  -8   47.55    1.82
   2  -6  -8   46.00    1.80
   1  -6  -8   22.23    0.89
   1  -6  -8   21.35    0.91
   0  -6  -8    0.37    0.14
   0  -6  -8    0.15    0.15
  -1  -6  -8   18.88    0.80
  -1  -6  -8   18.53    0.79
  -2  -6  -8    1.22    0.23
  -2  -6  -8    1.56    0.27
   2   6   8    1.57    0.23
  -3  -6  -8    3.76    0.32
   3   6   8    3.80    0.30
  -4  -6  -8    6.17    0.37
   4   6   8    4.92    0.40
   4   6   8    5.70    0.33
  -5  -6  -8   18.84    0.77
   5   6   8   18.18    0.75
   6   6   8    1.21    0.13
   3  -7  -8    2.41    0.15
   3  -7  -8    2.54    0.16
   2  -7  -8    1.97    0.16
   2  -7  -8    2.34    0.19
   1  -7  -8   14.17    0.63
   1  -7  -8   13.55    0.64
  -1   7   8   13.32    0.70
   0  -7  -8    6.48    0.33
   0  -7  -8    5.54    0.33
  -1  -7  -8    2.20    0.28
  -1  -7  -8    2.50    0.27
  -2  -7  -8    0.17    0.17
   3   7   8    4.30    0.27
   3   7   8    3.21    0.29
  -4  -7  -8    1.19    0.27
   4   7   8    1.34    0.18
   4   7   8    1.61    0.19
   5   7   8    9.55    0.41
   2  -8  -8   -0.07    0.11
   2  -8  -8    0.08    0.06
   1  -8  -8    5.98    0.29
   1  -8  -8    6.32    0.31
   0  -8  -8    0.11    0.10
   0  -8  -8    0.13    0.11
   0   8   8    0.02    0.12
  -1  -8  -8    7.02    0.38
  -1  -8  -8    6.93    0.36
   1   8   8    7.48    0.36
  -2  -8  -8    3.51    0.29
   2   8   8    3.60    0.24
  -3  -8  -8    0.67    0.17
   3   8   8    0.59    0.14
   4   8   8   17.14    0.67
   4   8   8   16.16    0.68
   0  -9  -8    7.99    0.38
   0  -9  -8    8.72    0.38
  -1  -9  -8    1.11    0.23
   1   9   8    0.90    0.16
   2   9   8    0.93    0.13
   3   9   8    3.28    0.19
   2   8  -9    3.64    0.21
   1   8  -9   30.54    1.16
  -1  -8   9   29.70    1.18
   0  -8   9    0.07    0.12
   3   7  -9    1.53    0.19
   3   7  -9    1.52    0.14
  -3  -7   9    1.80    0.21
   2   7  -9    4.28    0.24
   1   7  -9    1.84    0.18
  -1  -7   9    1.57    0.19
   0   7  -9    4.80    0.29
   0  -7   9    4.37    0.27
   1  -7   9    0.01    0.12
  -2   7  -9    3.64    0.25
   2  -7   9    4.31    0.29
  -3   7  -9    1.35    0.15
   4   6  -9    0.42    0.10
   4   6  -9    0.40    0.09
  -4  -6   9    0.12    0.12
   3   6  -9   13.61    0.58
   3   6  -9   14.04    0.57
  -3  -6   9   13.51    0.58
   2   6  -9    0.45    0.12
  -2  -6   9    0.64    0.18
   1   6  -9    1.64    0.21
  -1  -6   9    1.25    0.20
   0   6  -9    1.92    0.24
   0  -6   9    1.72    0.20
   1  -6   9   18.33    0.77
  -2   6  -9    0.12    0.12
   2  -6   9    0.08    0.14
  -3   6  -9    0.19    0.10
   3  -6   9    0.27    0.16
  -4   6  -9   -0.03    0.07
   5   5  -9    5.46    0.25
   4   5  -9    1.16    0.17
   4   5  -9    1.18    0.15
  -4  -5   9    0.80    0.20
   3   5  -9    0.25    0.12
   3   5  -9   -0.02    0.11
  -3  -5   9    0.24    0.12
   2   5  -9   32.04    1.24
   2   5  -9   31.93    1.25
  -2  -5   9   29.63    1.23
   1   5  -9    1.10    0.27
   1   5  -9    1.54    0.20
  -1  -5   9    1.39    0.19
   0   5  -9    5.66    0.35
   0  -5   9    6.31    0.34
  -1   5  -9   49.29    1.91
  -1   5  -9   47.63    1.92
   1  -5   9   51.96    1.92
  -2   5  -9   35.19    1.35
   2  -5   9   34.23    1.37
  -3   5  -9    7.09    0.34
   3  -5   9    6.52    0.39
  -4   5  -9   21.88    0.91
   4  -5   9   24.86    1.07
  -5   5  -9    2.58    0.16
   5   4  -9    1.74    0.15
  -5  -4   9    1.94    0.21
   4   4  -9    0.21    0.14
   4   4  -9    0.14    0.10
  -4  -4   9    0.04    0.12
   3   4  -9    9.87    0.46
   3   4  -9    9.30    0.45
  -3  -4   9    9.38    0.45
   2   4  -9    4.75    0.31
   2   4  -9    4.60    0.30
  -2  -4   9    4.71    0.28
   1   4  -9   34.53    1.41
   1   4  -9   35.56    1.41
  -1  -4   9   37.60    1.40
   0   4  -9    4.61    0.31
   0   4  -9    4.65    0.37
   0  -4   9    4.67    0.28
  -1   4  -9    0.62    0.16
  -1   4  -9    0.99    0.28
   1  -4   9    0.58    0.14
  -2   4  -9    5.18    0.30
   2  -4   9    5.62    0.33
  -3   4  -9    8.70    0.40
   3  -4   9    8.28    0.45
  -4   4  -9   -0.12    0.09
   4  -4   9    0.27    0.21
  -5   4  -9    1.96    0.16
   5   3  -9   19.02    0.76
   4   3  -9   13.55    0.58
   4   3  -9   12.75    0.60
   3   3  -9    0.95    0.19
   3   3  -9    0.59    0.16
   1   3  -9    0.86    0.23
   1   3  -9    0.67    0.14
  -1  -3   9    0.66    0.19
   0   3  -9    7.80    0.39
   0   3  -9    7.21    0.40
   0  -3   9    7.13    0.36
  -1   3  -9   11.75    0.54
  -1   3  -9   11.21    0.55
  -1   3  -9   11.23    0.76
   1  -3   9   11.82    0.51
  -2   3  -9   11.48    0.51
   2  -3   9   11.65    0.53
  -3   3  -9   12.78    0.56
   3  -3   9   13.45    0.61
  -4   3  -9   11.67    0.51
  -5   3  -9    5.19    0.27
  -5   3  -9    5.51    0.32
  -6   3  -9    0.66    0.17
  -6   3  -9    1.21    0.18
   5   2  -9    1.90    0.20
   4   2  -9    7.83    0.39
   3   2  -9   45.98    1.76
   3   2  -9   44.45    1.75
   2   2  -9    6.57    0.35
   2   2  -9    6.58    0.35
   1   2  -9   68.30    2.60
   0   2  -9   12.95    0.56
   0  -2   9   12.34    0.53
  -1   2  -9    0.07    0.16
  -2   2  -9    0.08    0.12
  -4   2  -9    0.35    0.11
  -5   2  -9   36.86    1.45
  -6   2  -9    0.76    0.15
  -6   2  -9    0.29    0.12
   5   1  -9   25.80    1.02
   4   1  -9   -0.26    0.13
   4   1  -9    0.21    0.14
   3   1  -9    2.51    0.25
   3   1  -9    1.61    0.25
   3   1  -9    2.16    0.24
   2   1  -9    0.59    0.15
   2   1  -9    0.56    0.13
   2   1  -9    0.65    0.15
   1   1  -9    0.44    0.14
   1   1  -9    0.45    0.14
   0  -1   9   37.60    1.46
   1  -1   9   36.49    1.42
  -2   1  -9    6.03    0.34
  -3   1  -9    5.94    0.32
  -4   1  -9   21.30    0.87
  -5   1  -9    4.79    0.31
  -5   1  -9    4.50    0.28
  -6   1  -9    3.46    0.23
   5   0  -9   -0.16    0.16
   4   0  -9   20.77    0.87
   4   0  -9   21.39    0.87
   3   0  -9    2.45    0.27
   3   0  -9    2.09    0.34
   3   0  -9    2.12    0.26
   2   0  -9    1.63    0.26
   2   0  -9    2.15    0.28
   2   0  -9    1.86    0.24
  -1   0   9    0.39    0.12
   0   0   9   26.73    1.05
   1   0   9   34.85    1.36
  -2   0  -9   51.86    1.98
  -3   0  -9    9.92    0.47
  -3   0  -9   10.09    0.50
  -4   0  -9    0.12    0.14
  -4   0  -9   -0.03    0.14
   4   0   9    0.16    0.22
  -5   0  -9   24.50    0.99
  -5   0  -9   23.93    0.97
  -6   0  -9    2.17    0.20
   5  -1  -9   26.29    1.06
   4  -1  -9    4.72    0.32
   3  -1  -9    2.27    0.33
   3  -1  -9    2.69    0.28
   2  -1  -9    0.70    0.22
   2  -1  -9    0.36    0.17
   1  -1  -9    0.25    0.20
  -1   1   9    0.03    0.11
   0   1   9   41.16    1.58
   1   1   9   18.61    0.76
  -2  -1  -9    5.05    0.39
   2   1   9    4.84    0.34
  -3  -1  -9    2.76    0.26
  -3  -1  -9    2.39    0.29
  -4  -1  -9    0.09    0.14
  -4  -1  -9    0.14    0.14
   4   1   9    0.00    0.15
  -5  -1  -9    1.30    0.30
  -5  -1  -9    1.37    0.22
   5   1   9    1.48    0.31
  -6  -1  -9    7.14    0.36
   5  -2  -9    0.51    0.41
   4  -2  -9   16.30    0.71
   3  -2  -9   12.70    0.60
   3  -2  -9   12.88    0.60
   2  -2  -9    0.13    0.24
   2  -2  -9   -0.49    0.20
   2  -2  -9   -0.08    0.20
   1  -2  -9   34.24    1.46
   1  -2  -9   33.37    1.34
   1  -2  -9   32.15    1.31
   0   2   9   41.72    1.60
   1   2   9   16.48    0.69
  -2  -2  -9   30.29    1.22
  -2  -2  -9   31.78    1.20
  -2  -2  -9   30.94    1.22
   2   2   9   28.96    1.23
  -3  -2  -9    0.49    0.31
  -3  -2  -9    0.24    0.15
  -3  -2  -9    0.39    0.16
  -4  -2  -9   17.16    0.74
  -4  -2  -9   16.52    0.75
   4   2   9   17.86    0.74
  -5  -2  -9   -0.10    0.14
   5   2   9    0.33    0.16
  -6  -2  -9    5.09    0.29
   6   2   9    5.45    0.32
   4  -3  -9   20.40    0.83
   3  -3  -9    2.37    0.26
   3  -3  -9    2.53    0.27
   2  -3  -9    1.61    0.32
   2  -3  -9    1.69    0.39
   1  -3  -9   10.67    0.57
   1  -3  -9   10.76    0.54
   1  -3  -9   10.47    0.51
   0  -3  -9   26.34    1.17
   0  -3  -9   26.40    1.08
   0  -3  -9   27.95    1.10
   0  -3  -9   27.82    1.12
  -1  -3  -9  100.92    3.81
  -1  -3  -9   96.35    3.82
  -1  -3  -9   99.19    3.80
  -1  -3  -9  106.49    3.83
  -2  -3  -9    7.33    0.40
  -2  -3  -9    6.93    0.39
  -2  -3  -9    7.57    0.43
  -3  -3  -9    0.15    0.21
  -3  -3  -9   -0.07    0.15
  -3  -3  -9    0.42    0.18
  -4  -3  -9    0.82    0.24
  -4  -3  -9    1.22    0.25
   4   3   9    0.74    0.15
  -5  -3  -9    1.00    0.23
   5   3   9    0.66    0.15
  -6  -3  -9    0.21    0.11
   6   3   9    0.17    0.11
   4  -4  -9    7.97    0.37
   3  -4  -9    9.69    0.47
   3  -4  -9   10.03    0.47
   2  -4  -9   30.79    1.19
   2  -4  -9   28.15    1.17
   1  -4  -9    5.73    0.42
   1  -4  -9    6.15    0.45
   0  -4  -9   41.21    1.64
   0  -4  -9   40.98    1.61
   0  -4  -9   42.29    1.62
  -1  -4  -9    3.60    0.33
  -1  -4  -9    3.87    0.31
  -1  -4  -9    4.00    0.30
  -2  -4  -9   11.48    0.57
  -2  -4  -9   11.81    0.56
  -2  -4  -9   11.44    0.53
  -3  -4  -9   10.48    0.53
  -3  -4  -9   10.31    0.50
  -3  -4  -9   10.15    0.56
  -4  -4  -9    0.00    0.14
   4   4   9    0.01    0.13
  -5  -4  -9    0.20    0.13
   5   4   9    0.02    0.12
  -6  -4  -9    2.28    0.21
   6   4   9    2.63    0.19
   4  -5  -9    7.64    0.35
   4  -5  -9    8.25    0.35
   3  -5  -9   -0.03    0.10
   3  -5  -9   -0.10    0.10
   2  -5  -9   13.94    0.60
   2  -5  -9   13.12    0.59
   1  -5  -9   18.15    0.77
   1  -5  -9   18.02    0.82
   1  -5  -9   19.30    0.79
   0  -5  -9    2.14    0.27
   0  -5  -9    2.51    0.28
   0  -5  -9    1.84    0.27
  -1  -5  -9  103.58    3.95
  -1  -5  -9  102.45    3.96
  -1  -5  -9  107.62    3.99
  -2  -5  -9   34.15    1.34
  -2  -5  -9   34.87    1.36
  -2  -5  -9   33.84    1.33
   2   5   9   31.77    1.34
  -3  -5  -9    7.33    0.40
  -3  -5  -9    6.93    0.51
   3   5   9    6.71    0.40
  -4  -5  -9    0.22    0.15
   4   5   9   -0.27    0.12
  -5  -5  -9    2.92    0.25
   5   5   9    2.51    0.21
  -6  -5  -9    4.85    0.28
   6   5   9    4.07    0.23
   3  -6  -9   20.23    0.82
   3  -6  -9   21.71    0.84
   1  -6  -9   33.09    1.34
   1  -6  -9   34.96    1.36
   0  -6  -9    3.04    0.28
   0  -6  -9    2.85    0.26
  -1  -6  -9    0.35    0.15
  -1  -6  -9    0.78    0.16
  -2  -6  -9    0.98    0.17
  -2  -6  -9    0.66    0.20
   2   6   9    1.13    0.22
  -3  -6  -9    0.88    0.25
   3   6   9    1.46    0.26
  -4  -6  -9    0.06    0.18
   4   6   9    0.52    0.14
  -5  -6  -9    1.77    0.24
   5   6   9    1.31    0.16
   3  -7  -9    1.00    0.12
   3  -7  -9    1.18    0.12
   2  -7  -9    7.43    0.35
   1  -7  -9    1.63    0.19
   1  -7  -9    1.82    0.18
   0  -7  -9    0.33    0.12
   0  -7  -9    0.84    0.20
  -1  -7  -9   14.47    0.64
  -1  -7  -9   14.40    0.64
  -2  -7  -9   19.02    0.81
  -3  -7  -9    5.35    0.33
   3   7   9    4.97    0.32
   3   7   9    5.19    0.30
  -4  -7  -9    2.99    0.26
   4   7   9    2.76    0.22
   4   7   9    2.70    0.22
   2  -8  -9    0.16    0.07
   2  -8  -9    0.12    0.06
   1  -8  -9    0.09    0.09
   1  -8  -9    0.12    0.08
   0  -8  -9   -0.03    0.10
   0  -8  -9   -0.07    0.10
   0   8   9    0.00    0.13
  -1  -8  -9    1.65    0.21
  -1  -8  -9    1.62    0.19
   1   8   9    1.19    0.19
  -2  -8  -9   13.72    0.60
   2   8   9   14.18    0.60
  -3  -8  -9    1.61    0.24
   3   8   9    1.77    0.17
   4   8   9   -0.10    0.09
   0  -9  -9    0.14    0.10
  -1  -9  -9    3.26    0.24
   1   9   9    3.46    0.20
   2   9   9    5.57    0.26
   1   8 -10   21.34    0.83
   3   7 -10    0.35    0.08
   3   7 -10    0.23    0.14
   2   7 -10    2.35    0.17
  -2  -7  10    2.59    0.23
   1   7 -10    7.81    0.36
  -1  -7  10    7.71    0.39
   0   7 -10   11.88    0.50
   0  -7  10   11.20    0.52
   1  -7  10    0.93    0.22
   2  -7  10    6.76    0.42
  -3   7 -10    2.62    0.22
   4   6 -10    6.37    0.28
   4   6 -10    6.05    0.28
   3   6 -10    9.45    0.41
   3   6 -10    9.46    0.41
  -3  -6  10    9.67    0.44
   2   6 -10    5.98    0.32
   2   6 -10    6.05    0.31
  -2  -6  10    6.44    0.34
   1   6 -10    7.54    0.37
  -1  -6  10    6.90    0.37
   0   6 -10    0.04    0.14
   0  -6  10   -0.01    0.12
   1  -6  10   12.47    0.56
  -2   6 -10    7.00    0.35
   2  -6  10    7.16    0.39
  -3   6 -10    0.37    0.09
  -4   6 -10    0.99    0.12
   4   5 -10   16.68    0.66
   4   5 -10   16.68    0.66
  -4  -5  10   15.86    0.68
   3   5 -10   22.13    0.86
   3   5 -10   21.06    0.85
  -3  -5  10   20.43    0.86
   2   5 -10    0.68    0.17
   2   5 -10    1.08    0.21
  -2  -5  10    0.77    0.18
   1   5 -10    4.68    0.29
   1   5 -10    4.47    0.32
  -1  -5  10    4.54    0.29
   0   5 -10   56.52    2.05
   0  -5  10   49.47    2.04
  -1   5 -10    4.01    0.33
  -1   5 -10    4.81    0.35
   1  -5  10    4.81    0.30
  -2   5 -10  128.82    4.77
   2  -5  10  124.90    4.79
  -3   5 -10    1.20    0.20
   3  -5  10    1.43    0.29
  -4   5 -10    2.42    0.19
   5   4 -10    8.91    0.43
   4   4 -10    0.96    0.19
   4   4 -10    0.82    0.15
  -4  -4  10    0.74    0.20
   3   4 -10    1.29    0.20
   3   4 -10    1.89    0.21
  -3  -4  10    1.65    0.21
   2   4 -10    7.94    0.40
   2   4 -10    8.20    0.40
   1   4 -10    9.52    0.46
   1   4 -10    9.74    0.46
  -1  -4  10    9.60    0.44
   0   4 -10    8.50    0.44
   0  -4  10    9.29    0.43
  -1   4 -10   56.18    2.20
  -1   4 -10   55.91    2.21
   1  -4  10   60.63    2.21
  -2   4 -10   42.15    1.66
   2  -4  10   43.62    1.68
  -3   4 -10    2.91    0.23
   3  -4  10    2.97    0.33
  -4   4 -10    0.70    0.15
  -5   4 -10    1.98    0.15
   5   3 -10    8.74    0.37
  -5  -3  10    8.37    0.42
   4   3 -10    8.89    0.41
   4   3 -10    8.22    0.42
   3   3 -10   60.53    2.28
   3   3 -10   58.26    2.28
   2   3 -10    2.54    0.22
   2   3 -10    2.37    0.24
  -2  -3  10    2.47    0.25
   1   3 -10    3.14    0.23
   1   3 -10    3.15    0.26
  -1  -3  10    3.16    0.23
   0   3 -10    5.68    0.36
   0   3 -10    6.27    0.33
   0  -3  10    6.10    0.34
  -1   3 -10    7.70    0.42
  -1   3 -10    7.33    0.47
  -1   3 -10    7.54    0.42
   1  -3  10    7.94    0.41
  -2   3 -10   24.39    0.98
  -3   3 -10   25.00    1.00
  -4   3 -10    0.88    0.21
  -4   3 -10    0.48    0.11
  -5   3 -10    0.23    0.09
  -5   3 -10    0.24    0.15
   5   2 -10    4.45    0.25
   4   2 -10   27.66    1.10
   3   2 -10    2.42    0.26
   3   2 -10    2.61    0.22
   1   2 -10    9.89    0.46
   1   2 -10   10.68    0.46
  -1  -2  10    9.73    0.47
   0   2 -10    5.18    0.31
   0   2 -10    5.09    0.32
   0   2 -10    5.03    0.39
  -1   2 -10   64.51    2.40
  -1   2 -10   61.34    2.41
  -1   2 -10   62.72    2.40
  -2   2 -10   10.20    0.64
  -2   2 -10   11.27    0.49
  -3   2 -10   21.86    1.11
  -3   2 -10   28.22    1.01
  -4   2 -10    0.77    0.19
  -4   2 -10    0.85    0.20
  -5   2 -10    2.29    0.19
  -5   2 -10    2.49    0.23
  -6   2 -10    0.13    0.12
   4   1 -10    0.49    0.15
   4   1 -10    0.32    0.16
   3   1 -10   36.11    1.39
   3   1 -10   34.77    1.38
   3   1 -10   34.56    1.39
   2   1 -10    7.70    0.38
   2   1 -10    7.91    0.39
   1   1 -10    2.96    0.24
   1   1 -10    2.85    0.24
   0   1 -10    4.17    0.29
   0   1 -10    4.15    0.29
  -1   1 -10   29.23    1.20
  -1   1 -10   32.53    1.18
  -1   1 -10   28.43    1.19
  -2   1 -10    6.76    0.35
  -2   1 -10    5.65    0.46
  -3   1 -10   57.17    2.25
  -3   1 -10   60.08    2.24
  -4   1 -10   35.23    1.37
  -4   1 -10   35.15    1.39
  -5   1 -10   29.88    1.16
  -5   1 -10   28.02    1.13
  -6   1 -10    1.46    0.18
  -6   1 -10    1.03    0.23
   4   0 -10   61.71    2.49
   4   0 -10   68.48    2.48
   3   0 -10    0.49    0.20
   3   0 -10    0.50    0.19
   3   0 -10    0.83    0.16
   2   0 -10   25.91    1.02
   2   0 -10   24.66    1.01
   1   0 -10   25.21    1.00
   1   0 -10   24.15    0.99
   0   0 -10    0.19    0.15
   0   0  10    1.55    0.39
  -1   0 -10    0.10    0.17
  -1   0 -10    0.18    0.13
  -2   0 -10    0.89    0.26
  -2   0 -10    0.68    0.19
  -2   0 -10    0.81    0.19
  -3   0 -10    0.07    0.18
  -3   0 -10    0.46    0.12
  -4   0 -10   70.13    2.70
  -4   0 -10   71.12    2.68
  -5   0 -10    1.59    0.21
  -5   0 -10    2.14    0.24
  -6   0 -10    2.19    0.20
   4  -1 -10    1.76    0.31
   3  -1 -10   96.33    3.56
   3  -1 -10   91.04    3.55
   2  -1 -10   12.68    0.58
   2  -1 -10   12.75    0.59
   1  -1 -10    9.56    0.47
   1  -1 -10    8.65    0.50
   1  -1 -10    9.46    0.46
   0  -1 -10    1.38    0.25
   0  -1 -10    1.44    0.26
   0  -1 -10    1.07    0.26
   0   1  10    1.15    0.26
  -1  -1 -10    0.48    0.18
  -1  -1 -10    0.18    0.14
  -1  -1 -10    0.27    0.18
   1   1  10    0.30    0.15
  -2  -1 -10    0.46    0.21
  -2  -1 -10   -0.15    0.24
  -2  -1 -10    0.13    0.17
  -2  -1 -10    0.57    0.13
  -3  -1 -10    8.82    0.47
  -3  -1 -10    8.58    0.41
  -4  -1 -10    5.74    0.33
  -4  -1 -10    5.96    0.36
  -5  -1 -10   13.62    0.61
  -5  -1 -10   13.84    0.60
   5   1  10   13.77    0.64
  -6  -1 -10    0.62    0.16
   2  -2 -10   30.86    1.22
   2  -2 -10   29.62    1.20
   2  -2 -10   30.47    1.22
   2  -2 -10   28.33    1.33
   1  -2 -10   64.93    2.45
   1  -2 -10   65.77    2.47
   1  -2 -10   63.23    2.46
   1  -2 -10   62.57    2.47
   0  -2 -10    0.30    0.17
   0  -2 -10    0.31    0.14
   0  -2 -10    0.28    0.18
   0  -2 -10    0.15    0.22
   0   2  10    0.40    0.18
  -1  -2 -10    6.09    0.41
  -1  -2 -10    6.75    0.40
  -1  -2 -10    6.57    0.36
  -1  -2 -10    6.74    0.41
   1   2  10    6.13    0.43
  -2  -2 -10   24.98    0.98
  -2  -2 -10   24.49    0.95
  -2  -2 -10   22.65    1.00
  -2  -2 -10   23.15    0.98
  -3  -2 -10   21.33    1.00
  -3  -2 -10   22.21    0.92
  -3  -2 -10   23.11    0.91
  -4  -2 -10  150.70    5.80
  -4  -2 -10  153.51    5.77
   4   2  10  157.14    5.80
  -5  -2 -10    3.94    0.28
   5   2  10    3.53    0.31
  -6  -2 -10   10.00    0.43
   6   2  10    8.85    0.44
   3  -3 -10   14.33    0.63
   3  -3 -10   14.46    0.63
   2  -3 -10   10.17    0.58
   2  -3 -10   10.64    0.51
   2  -3 -10   10.81    0.51
   1  -3 -10    6.32    0.38
   1  -3 -10    6.35    0.42
   1  -3 -10    6.16    0.40
   0  -3 -10   38.74    1.52
   0  -3 -10   36.39    1.54
   0  -3 -10   40.03    1.54
   0  -3 -10   39.16    1.50
  -1  -3 -10   18.87    0.81
  -1  -3 -10   18.78    0.78
  -1  -3 -10   18.73    0.77
  -1  -3 -10   17.87    0.81
  -2  -3 -10    4.19    0.31
  -2  -3 -10    4.58    0.37
  -2  -3 -10    4.69    0.31
  -3  -3 -10   64.47    2.42
  -3  -3 -10   64.06    2.43
  -3  -3 -10   60.97    2.45
  -4  -3 -10   24.82    1.02
  -4  -3 -10   23.94    1.02
   4   3  10   26.07    1.03
  -5  -3 -10   14.61    0.64
   5   3  10   15.03    0.65
  -6  -3 -10    0.38    0.11
   6   3  10    0.40    0.11
   4  -4 -10    2.92    0.22
   3  -4 -10    1.13    0.28
   2  -4 -10   38.24    1.49
   2  -4 -10   37.25    1.48
   1  -4 -10   27.04    1.17
   1  -4 -10   28.51    1.14
   1  -4 -10   29.90    1.15
   0  -4 -10   15.51    0.83
   0  -4 -10   17.24    0.72
   0  -4 -10   17.54    0.77
   0  -4 -10   16.19    0.76
  -1  -4 -10   18.47    0.82
  -1  -4 -10   18.34    0.78
  -1  -4 -10   19.30    0.79
  -2  -4 -10    5.24    0.36
  -2  -4 -10    5.01    0.35
  -3  -4 -10    1.20    0.28
  -3  -4 -10    1.33    0.23
  -3  -4 -10    1.60    0.24
  -4  -4 -10    8.90    0.44
   4   4  10    8.90    0.45
  -5  -4 -10   23.15    0.94
   5   4  10   22.60    0.94
  -6  -4 -10    3.88    0.23
   6   4  10    3.66    0.23
   4  -5 -10   12.93    0.53
   3  -5 -10   12.66    0.53
   3  -5 -10   11.90    0.51
   2  -5 -10    0.85    0.20
   2  -5 -10    0.37    0.13
   1  -5 -10   55.05    2.10
   1  -5 -10   54.40    2.09
   1  -5 -10   53.39    2.12
   0  -5 -10   91.08    3.56
   0  -5 -10   90.24    3.52
   0  -5 -10   97.15    3.54
  -1  -5 -10    0.88    0.23
  -1  -5 -10    0.70    0.16
  -1  -5 -10    1.00    0.26
  -2  -5 -10   -0.03    0.13
  -2  -5 -10    0.09    0.17
  -2  -5 -10    0.01    0.17
  -3  -5 -10   13.05    0.58
  -3  -5 -10   12.59    0.64
   3   5  10   13.15    0.60
  -4  -5 -10    0.39    0.15
   4   5  10    0.97    0.22
  -5  -5 -10    8.33    0.40
   5   5  10    7.87    0.39
  -6  -5 -10   -0.03    0.12
   6   5  10   -0.05    0.07
   3  -6 -10    0.10    0.08
   3  -6 -10    0.00    0.08
   2  -6 -10    5.47    0.29
   2  -6 -10    5.56    0.30
   1  -6 -10   85.80    3.32
   1  -6 -10   89.43    3.34
   0  -6 -10   50.39    1.95
   0  -6 -10   47.09    1.91
   0  -6 -10   51.18    1.93
  -1  -6 -10   30.02    1.23
  -1  -6 -10   31.63    1.27
  -1  -6 -10   31.09    1.24
  -2  -6 -10    2.55    0.25
  -2  -6 -10    1.75    0.31
   2   6  10    2.02    0.34
  -3  -6 -10    0.69    0.16
   3   6  10    0.48    0.16
  -4  -6 -10   14.45    0.59
   4   6  10   12.52    0.59
   4   6  10   13.33    0.59
  -5  -6 -10    6.04    0.32
   5   6  10    5.76    0.29
   2  -7 -10    3.36    0.20
   2  -7 -10    3.31    0.18
   1  -7 -10    0.29    0.10
   1  -7 -10    0.19    0.09
   0  -7 -10   23.45    0.95
   0  -7 -10   23.18    0.93
  -1  -7 -10    2.05    0.38
  -1  -7 -10    3.22    0.28
  -2  -7 -10    4.99    0.36
  -2  -7 -10    6.12    0.35
  -3  -7 -10    0.16    0.13
   3   7  10    0.07    0.14
   3   7  10   -0.09    0.11
  -4  -7 -10    4.89    0.29
   4   7  10    4.52    0.26
   4   7  10    4.16    0.26
   5   7  10   -0.11    0.07
   1  -8 -10    9.44    0.40
   1  -8 -10    9.44    0.39
   0  -8 -10    0.08    0.10
   0  -8 -10    0.04    0.10
   0   8  10    0.13    0.13
  -1  -8 -10    0.12    0.11
  -1  -8 -10    0.20    0.12
   1   8  10    0.16    0.10
  -2  -8 -10    0.49    0.14
   2   8  10    0.38    0.11
  -3  -8 -10    0.00    0.13
   3   8  10    0.09    0.09
   4   8  10    6.11    0.29
  -1  -9 -10    2.08    0.23
   1   9  10    2.03    0.18
   2   7 -11   14.44    0.58
   1   7 -11   -0.02    0.09
  -1  -7  11    0.17    0.13
   0   7 -11    3.31    0.23
   0  -7  11    2.79    0.29
   1  -7  11   12.94    0.62
   3   6 -11   10.00    0.43
   3   6 -11   10.27    0.43
  -3  -6  11   10.09    0.48
   2   6 -11    0.49    0.13
   2   6 -11    0.46    0.12
  -2  -6  11    0.25    0.14
   1   6 -11    7.12    0.34
  -1  -6  11    6.44    0.36
   0   6 -11    8.92    0.41
   0  -6  11    7.90    0.40
   1  -6  11    1.36    0.24
  -2   6 -11    7.97    0.37
  -3   6 -11    4.32    0.23
   4   5 -11   10.25    0.42
   4   5 -11   10.03    0.43
   3   5 -11    8.10    0.37
   3   5 -11    8.01    0.37
   2   5 -11    7.13    0.35
   2   5 -11    7.60    0.36
  -2  -5  11    6.56    0.36
   1   5 -11    0.23    0.13
   1   5 -11    0.29    0.15
  -1  -5  11   -0.14    0.14
   0   5 -11    9.52    0.44
   0  -5  11    8.73    0.44
  -1   5 -11    0.74    0.17
  -1   5 -11    0.54    0.19
   1  -5  11    0.90    0.24
  -2   5 -11    0.93    0.20
   2  -5  11    0.68    0.22
  -3   5 -11    6.69    0.32
  -4   5 -11    3.70    0.20
   4   4 -11    2.67    0.18
   4   4 -11    2.99    0.22
  -4  -4  11    2.57    0.27
   3   4 -11   40.56    1.53
  -3  -4  11   38.18    1.53
   2   4 -11   11.78    0.51
   2   4 -11   11.36    0.51
  -2  -4  11   10.62    0.51
   1   4 -11   35.09    1.42
   1   4 -11   36.51    1.42
  -1  -4  11   36.74    1.42
   0   4 -11   15.84    0.71
   0   4 -11   16.18    0.69
   0  -4  11   17.08    0.71
  -1   4 -11   22.14    0.90
  -1   4 -11   21.83    0.91
   1  -4  11   22.05    0.91
  -2   4 -11    8.05    0.39
  -3   4 -11    0.12    0.10
  -4   4 -11    1.60    0.16
  -5   4 -11    4.95    0.23
   5   3 -11    1.68    0.16
   4   3 -11    6.91    0.37
   4   3 -11    6.99    0.33
   3   3 -11   -0.05    0.10
   3   3 -11   -0.01    0.13
  -3  -3  11    0.00    0.15
   2   3 -11   22.88    0.93
   2   3 -11   22.82    0.94
  -2  -3  11   23.51    0.94
   1   3 -11   27.78    1.11
   1   3 -11   28.27    1.11
  -1  -3  11   27.47    1.10
   0   3 -11   49.57    1.84
   0   3 -11   45.94    1.80
   0  -3  11   43.34    1.79
  -1   3 -11    9.30    0.46
  -1   3 -11    9.99    0.52
  -2   3 -11   15.84    0.67
  -3   3 -11   20.99    0.85
  -4   3 -11    1.75    0.19
  -5   3 -11    0.69    0.13
   5   2 -11    2.21    0.20
   4   2 -11    0.10    0.10
   3   2 -11    1.68    0.22
   3   2 -11    1.81    0.20
   2   2 -11    0.40    0.12
   2   2 -11    0.55    0.14
   1   2 -11   26.42    1.05
   1   2 -11   26.24    1.06
   0   2 -11    7.75    0.40
   0   2 -11    7.46    0.45
   0   2 -11    8.13    0.39
  -1   2 -11   16.98    0.70
  -1   2 -11   15.98    0.70
  -1   2 -11   16.87    0.72
  -2   2 -11    8.24    0.54
  -2   2 -11    8.88    0.50
  -3   2 -11    5.72    0.32
  -4   2 -11    4.89    0.37
  -4   2 -11    5.38    0.29
  -5   2 -11    4.84    0.25
  -5   2 -11    5.24    0.32
  -6   2 -11    0.46    0.12
  -6   2 -11    0.30    0.12
   4   1 -11    1.04    0.20
   3   1 -11   21.90    0.88
   3   1 -11   21.39    0.90
   2   1 -11  204.77    7.78
   2   1 -11  210.21    7.77
   1   1 -11   96.15    3.64
   1   1 -11   96.24    3.63
   0   1 -11   43.60    1.67
   0   1 -11   41.92    1.67
   0   1 -11   43.90    1.67
  -1   1 -11   52.08    2.00
  -1   1 -11   51.11    2.00
  -1   1 -11   52.77    1.99
  -2   1 -11    0.71    0.20
  -2   1 -11    0.84    0.26
  -3   1 -11    0.12    0.21
  -3   1 -11   -0.15    0.11
  -4   1 -11    1.45    0.26
  -4   1 -11    0.78    0.18
  -5   1 -11    5.54    0.32
  -5   1 -11    5.52    0.28
  -6   1 -11    0.74    0.16
  -6   1 -11    0.58    0.13
   4   0 -11    0.49    0.16
   3   0 -11    0.07    0.14
   3   0 -11    0.02    0.18
   2   0 -11   72.01    2.73
   2   0 -11   71.73    2.75
   1   0 -11  104.08    3.86
   1   0 -11  103.43    3.85
   1   0 -11   98.55    3.86
   0   0 -11   22.66    0.93
   0   0 -11   22.51    0.93
   0   0 -11   23.66    0.93
  -1   0 -11   -0.03    0.13
  -1   0 -11   -0.01    0.16
  -1   0 -11    0.05    0.14
  -2   0 -11    2.05    0.22
  -2   0 -11    2.42    0.30
  -2   0 -11    2.34    0.39
  -2   0 -11    3.12    0.45
  -3   0 -11   38.45    1.46
  -3   0 -11   35.68    1.51
  -3   0 -11   38.73    1.53
  -4   0 -11    3.95    0.30
  -4   0 -11    2.91    0.24
  -5   0 -11    0.16    0.13
  -6   0 -11    1.04    0.16
   3  -1 -11    0.02    0.18
   2  -1 -11    9.72    0.49
   2  -1 -11   10.02    0.49
   1  -1 -11   85.19    3.18
   1  -1 -11   83.02    3.16
   1  -1 -11   81.96    3.16
   0  -1 -11    0.27    0.14
   0  -1 -11    0.36    0.14
   0  -1 -11    0.34    0.15
  -1  -1 -11   60.82    2.24
  -1  -1 -11   53.20    2.26
  -1  -1 -11   60.64    2.25
  -1  -1 -11   58.56    2.22
  -2  -1 -11    3.39    0.26
  -2  -1 -11    3.04    0.35
  -2  -1 -11    3.62    0.31
  -2  -1 -11    3.80    0.38
  -4  -1 -11   25.85    1.06
  -4  -1 -11   26.29    1.04
  -5  -1 -11    2.23    0.36
  -5  -1 -11    2.04    0.23
   5   1  11    2.17    0.33
  -6  -1 -11    1.73    0.17
   2  -2 -11    0.46    0.20
   2  -2 -11    0.53    0.20
   2  -2 -11    0.64    0.21
   1  -2 -11   42.05    1.60
   1  -2 -11   39.78    1.62
   1  -2 -11   40.45    1.61
   1  -2 -11   42.03    1.62
   0  -2 -11   44.37    1.69
   0  -2 -11   46.38    1.72
   0  -2 -11   43.53    1.71
   0  -2 -11   41.28    1.72
  -1  -2 -11   21.90    0.89
  -1  -2 -11   20.79    0.85
  -1  -2 -11   20.32    0.88
  -1  -2 -11   21.01    0.89
  -2  -2 -11    2.43    0.29
  -2  -2 -11    3.59    0.25
  -2  -2 -11    3.39    0.34
  -2  -2 -11    3.46    0.31
  -3  -2 -11   10.55    0.49
  -3  -2 -11    8.62    0.60
  -3  -2 -11   10.01    0.45
  -4  -2 -11  105.99    4.01
  -4  -2 -11  105.57    3.99
  -5  -2 -11    1.20    0.30
  -5  -2 -11    1.93    0.23
  -6  -2 -11   18.71    0.77
   6   2  11   20.03    0.82
   2  -3 -11    4.22    0.33
   2  -3 -11    3.82    0.39
   2  -3 -11    4.15    0.32
   1  -3 -11   21.76    0.92
   1  -3 -11   22.85    0.90
   1  -3 -11   21.02    0.91
   1  -3 -11   22.12    1.02
   0  -3 -11   57.76    2.16
   0  -3 -11   54.22    2.13
   0  -3 -11   55.70    2.12
   0  -3 -11   53.46    2.14
  -1  -3 -11   39.23    1.51
  -1  -3 -11   39.42    1.55
  -1  -3 -11   38.29    1.52
  -1  -3 -11   38.94    1.55
  -2  -3 -11   14.89    0.71
  -2  -3 -11   15.50    0.65
  -2  -3 -11   14.35    0.69
  -2  -3 -11   16.45    0.67
  -3  -3 -11    1.53    0.24
  -3  -3 -11    1.80    0.23
  -3  -3 -11    1.18    0.23
  -4  -3 -11    6.43    0.38
  -4  -3 -11    5.47    0.34
   4   3  11    5.54    0.36
   5   3  11    0.72    0.14
  -6  -3 -11    0.53    0.10
   6   3  11    0.61    0.17
   3  -4 -11   35.05    1.36
   3  -4 -11   34.51    1.35
   2  -4 -11    0.45    0.15
   2  -4 -11    0.31    0.14
   1  -4 -11    2.86    0.27
   1  -4 -11    2.85    0.34
   1  -4 -11    3.34    0.28
   0  -4 -11   87.77    3.17
   0  -4 -11   83.19    3.19
   0  -4 -11   84.50    3.15
   0  -4 -11   76.58    3.18
  -1  -4 -11    0.44    0.16
  -1  -4 -11    0.42    0.19
  -1  -4 -11    0.40    0.14
  -2  -4 -11    6.48    0.36
  -2  -4 -11    5.81    0.35
  -2  -4 -11    5.25    0.36
  -3  -4 -11   18.14    0.77
  -3  -4 -11   17.62    0.75
  -3  -4 -11   17.34    0.80
  -4  -4 -11    5.14    0.41
  -4  -4 -11    5.12    0.32
   4   4  11    4.54    0.32
  -5  -4 -11   13.54    0.56
   5   4  11   12.40    0.57
  -6  -4 -11    1.17    0.16
   6   4  11    1.38    0.25
   3  -5 -11    0.22    0.11
   3  -5 -11    0.33    0.09
   1  -5 -11   12.76    0.64
   1  -5 -11   13.73    0.59
   1  -5 -11   13.71    0.60
   0  -5 -11    0.13    0.13
   0  -5 -11    0.44    0.15
   0  -5 -11    0.05    0.16
  -1  -5 -11   23.95    0.99
  -1  -5 -11   24.93    1.00
  -1  -5 -11   24.35    1.03
  -2  -5 -11   14.49    0.64
  -2  -5 -11   14.44    0.65
  -2  -5 -11   14.63    0.68
  -3  -5 -11   21.70    0.92
  -3  -5 -11   22.05    0.90
   3   5  11   21.88    0.92
  -4  -5 -11    0.74    0.20
   4   5  11    0.94    0.22
  -5  -5 -11   12.00    0.50
   5   5  11   11.10    0.50
  -6  -5 -11   10.77    0.45
   3  -6 -11   19.40    0.75
   3  -6 -11   19.41    0.76
   2  -6 -11    0.16    0.09
   2  -6 -11    0.16    0.10
   0  -6 -11    0.28    0.14
   0  -6 -11    0.29    0.16
  -1  -6 -11    3.00    0.27
  -1  -6 -11    2.39    0.28
  -1  -6 -11    2.40    0.25
  -2  -6 -11    3.62    0.27
  -2  -6 -11    3.21    0.31
   2   6  11    3.12    0.35
  -3  -6 -11   11.16    0.60
  -3  -6 -11   12.91    0.55
  -4  -6 -11    0.20    0.12
   4   6  11    0.07    0.12
   4   6  11    0.18    0.14
  -5  -6 -11    1.03    0.18
   5   6  11    0.80    0.14
   2  -7 -11    8.94    0.38
   2  -7 -11    9.11    0.38
   1  -7 -11    0.50    0.13
   1  -7 -11    0.23    0.09
   0  -7 -11    4.53    0.27
   0  -7 -11    4.66    0.26
  -1  -7 -11   14.53    0.61
  -1  -7 -11   13.90    0.60
  -2  -7 -11    9.64    0.48
  -2  -7 -11   10.78    0.47
  -3  -7 -11    0.02    0.12
   3   7  11    0.00    0.14
   3   7  11    0.01    0.11
  -4  -7 -11    1.03    0.18
   4   7  11    0.96    0.17
   4   7  11    1.24    0.18
   1  -8 -11    0.01    0.07
   1  -8 -11    0.01    0.06
   0  -8 -11    0.48    0.13
   0  -8 -11    0.33    0.08
   0   8  11    0.13    0.12
  -1  -8 -11   11.65    0.52
  -1  -8 -11   13.10    0.52
   1   8  11   12.44    0.53
  -2  -8 -11   11.69    0.49
   2   8  11   11.01    0.49
  -3  -8 -11    3.70    0.24
   3   8  11    3.74    0.21
   2   7 -12    0.63    0.10
   0   7 -12    6.28    0.35
   3   6 -12    0.02    0.09
   2   6 -12    0.11    0.11
   2   6 -12   -0.02    0.09
  -2  -6  12    0.21    0.19
   1   6 -12    0.75    0.15
  -1  -6  12    0.64    0.18
   0   6 -12    6.83    0.33
   0  -6  12    5.83    0.41
  -2   6 -12    7.85    0.41
  -3   6 -12    4.78    0.24
   4   5 -12    9.71    0.40
   3   5 -12    0.12    0.09
   3   5 -12    0.09    0.08
  -3  -5  12   -0.25    0.19
   2   5 -12    2.18    0.18
   2   5 -12    1.98    0.19
  -2  -5  12    1.96    0.28
   1   5 -12    2.19    0.20
  -1  -5  12    1.92    0.27
   0   5 -12    0.04    0.13
   0  -5  12    0.09    0.19
  -2   5 -12    4.56    0.27
  -3   5 -12    1.61    0.16
  -4   5 -12    0.72    0.12
   4   4 -12   10.84    0.45
   4   4 -12   11.17    0.48
   3   4 -12    1.48    0.17
   3   4 -12    1.09    0.15
   2   4 -12    2.24    0.20
   2   4 -12    2.54    0.21
  -2  -4  12    2.19    0.26
   1   4 -12    4.89    0.30
   1   4 -12    3.89    0.26
  -1  -4  12    4.22    0.35
   0   4 -12    0.40    0.13
   0   4 -12    0.38    0.16
  -1   4 -12    7.59    0.40
  -1   4 -12    7.15    0.40
  -2   4 -12    0.67    0.13
  -4   4 -12    1.16    0.14
  -5   4 -12    2.64    0.15
   4   3 -12   11.33    0.48
   4   3 -12   11.47    0.46
  -4  -3  12    8.98    0.54
   3   3 -12   -0.02    0.09
  -3  -3  12    0.27    0.20
   2   3 -12    0.87    0.19
   2   3 -12    0.40    0.11
  -2  -3  12    0.74    0.18
   1   3 -12    1.30    0.19
   1   3 -12    1.11    0.20
   0   3 -12    5.20    0.31
   0   3 -12    4.99    0.33
  -1   3 -12   13.53    0.57
  -1   3 -12   12.35    0.60
  -1   3 -12   12.18    0.56
  -2   3 -12    5.94    0.32
  -3   3 -12    6.16    0.32
  -4   3 -12    7.04    0.33
  -5   3 -12    0.02    0.07
   4   2 -12   27.76    1.09
   3   2 -12   -0.05    0.09
   3   2 -12   -0.05    0.13
   2   2 -12   41.14    1.62
   2   2 -12   41.99    1.61
   1   2 -12   18.29    0.76
   1   2 -12   18.27    0.76
   0   2 -12   -0.09    0.19
   0   2 -12    0.26    0.11
   0   2 -12    0.22    0.13
  -1   2 -12   16.94    0.74
  -1   2 -12   16.06    0.80
  -2   2 -12    0.54    0.12
  -2   2 -12    0.46    0.21
  -3   2 -12    4.88    0.28
  -4   2 -12    3.15    0.37
  -4   2 -12    3.78    0.23
  -5   2 -12    0.05    0.15
  -5   2 -12    0.10    0.08
   4   1 -12   39.57    1.52
   3   1 -12   12.50    0.57
   3   1 -12   12.55    0.55
   2   1 -12   10.66    0.49
   2   1 -12   10.43    0.48
   1   1 -12   31.37    1.24
   1   1 -12   30.91    1.23
   0   1 -12   17.74    0.77
   0   1 -12   18.55    0.77
   0   1 -12   19.08    0.77
  -1   1 -12   30.33    1.21
  -1   1 -12   30.90    1.20
  -1   1 -12   30.37    1.22
  -2   1 -12    9.09    0.68
  -2   1 -12   10.02    0.44
  -2   1 -12    9.50    0.52
  -3   1 -12    2.19    0.39
  -3   1 -12    2.74    0.21
  -4   1 -12    0.85    0.19
  -4   1 -12    1.06    0.17
  -5   1 -12    2.05    0.17
  -5   1 -12    2.50    0.24
  -6   1 -12    1.20    0.17
   4   0 -12    8.14    0.41
   3   0 -12    6.81    0.36
   3   0 -12    6.40    0.40
   2   0 -12   11.18    0.51
   2   0 -12   11.24    0.52
   1   0 -12   58.80    2.42
   1   0 -12   66.49    2.48
   1   0 -12   65.05    2.47
   0   0 -12    0.61    0.14
   0   0 -12    0.52    0.13
   0   0 -12    0.33    0.15
  -1   0 -12   36.22    1.42
  -1   0 -12   35.51    1.40
  -1   0 -12   36.68    1.43
  -2   0 -12   19.96    0.83
  -2   0 -12   19.01    0.79
  -2   0 -12   19.56    0.84
  -2   0 -12   18.47    1.04
  -3   0 -12    8.60    0.40
  -3   0 -12    8.90    0.48
  -4   0 -12    0.72    0.17
  -4   0 -12    0.54    0.17
  -5   0 -12    0.19    0.11
  -5   0 -12    0.04    0.12
  -6   0 -12    0.02    0.09
   3  -1 -12   11.99    0.60
   3  -1 -12   12.77    0.58
   2  -1 -12   11.94    0.56
   2  -1 -12   11.72    0.54
   1  -1 -12    0.11    0.15
   1  -1 -12    0.40    0.18
   1  -1 -12   -0.01    0.13
   0  -1 -12   26.50    1.06
   0  -1 -12   25.80    1.05
   0  -1 -12   25.81    1.04
  -1  -1 -12    0.21    0.16
  -1  -1 -12    0.24    0.13
  -1  -1 -12    0.56    0.13
  -1  -1 -12    0.53    0.35
  -2  -1 -12    2.41    0.27
  -2  -1 -12    2.72    0.33
  -2  -1 -12    2.47    0.23
  -2  -1 -12    2.66    0.33
  -3  -1 -12    7.44    0.42
  -3  -1 -12    7.80    0.37
  -3  -1 -12    6.35    0.87
  -4  -1 -12    9.83    0.46
  -4  -1 -12   10.54    0.50
  -5  -1 -12   -0.03    0.11
  -5  -1 -12    0.01    0.12
   5   1  12    0.13    0.17
  -6  -1 -12    0.03    0.09
   2  -2 -12   52.92    2.05
   2  -2 -12   51.80    2.03
   2  -2 -12   53.08    2.03
   1  -2 -12    1.66    0.26
   1  -2 -12    2.08    0.27
   1  -2 -12    1.96    0.27
   0  -2 -12   17.85    0.83
   0  -2 -12   19.88    0.82
   0  -2 -12   19.06    0.81
   0  -2 -12   19.85    0.79
  -1  -2 -12   39.13    1.49
  -1  -2 -12   38.85    1.49
  -1  -2 -12   35.83    1.48
  -1  -2 -12   36.21    1.45
  -2  -2 -12   37.72    1.51
  -2  -2 -12   38.77    1.52
  -2  -2 -12   37.47    1.48
  -2  -2 -12   38.20    1.52
  -3  -2 -12   35.77    1.36
  -3  -2 -12   31.13    1.40
  -3  -2 -12   35.92    1.34
  -4  -2 -12   10.43    0.46
  -4  -2 -12    9.47    0.48
  -5  -2 -12   37.40    1.42
  -5  -2 -12   36.74    1.41
   5   2  12   34.78    1.43
  -6  -2 -12    0.76    0.13
   2  -3 -12   20.99    0.85
   2  -3 -12   20.20    0.89
   2  -3 -12   20.69    0.86
   1  -3 -12    2.32    0.31
   1  -3 -12    2.47    0.27
   1  -3 -12    1.95    0.38
   1  -3 -12    2.98    0.27
   0  -3 -12    1.31    0.29
   0  -3 -12    2.04    0.24
   0  -3 -12    1.82    0.28
   0  -3 -12    1.45    0.23
  -1  -3 -12   21.56    0.91
  -1  -3 -12   22.16    0.88
  -1  -3 -12   21.55    0.90
  -2  -3 -12   11.67    0.53
  -2  -3 -12   11.85    0.54
  -2  -3 -12   11.66    0.58
  -3  -3 -12   10.21    0.47
  -3  -3 -12   10.37    0.48
  -3  -3 -12    9.29    0.54
  -4  -3 -12   13.11    0.58
  -4  -3 -12   12.94    0.57
   4   3  12   12.04    0.59
  -5  -3 -12    5.14    0.28
   5   3  12    4.72    0.30
  -6  -3 -12    0.09    0.09
   6   3  12    0.35    0.11
   3  -4 -12    7.14    0.36
   3  -4 -12    6.75    0.33
   2  -4 -12    5.51    0.43
   2  -4 -12    7.05    0.37
   2  -4 -12    7.77    0.37
   1  -4 -12   13.65    0.60
   1  -4 -12   13.55    0.60
   1  -4 -12   13.40    0.64
   0  -4 -12    1.66    0.38
   0  -4 -12    1.77    0.27
   0  -4 -12    1.38    0.25
   0  -4 -12    1.15    0.23
  -1  -4 -12    1.54    0.23
  -1  -4 -12    0.99    0.26
  -1  -4 -12    1.01    0.23
  -2  -4 -12    5.25    0.32
  -2  -4 -12    5.15    0.32
  -2  -4 -12    4.73    0.34
  -3  -4 -12    1.77    0.23
  -3  -4 -12    1.59    0.31
  -3  -4 -12    1.83    0.28
  -4  -4 -12    4.09    0.28
   4   4  12    4.10    0.30
  -5  -4 -12    2.71    0.21
   5   4  12    2.43    0.21
  -6  -4 -12    0.30    0.08
   6   4  12    0.21    0.09
   2  -5 -12    9.95    0.44
   2  -5 -12    9.91    0.45
   1  -5 -12    0.36    0.13
   1  -5 -12    0.37    0.12
   1  -5 -12    0.26    0.18
   0  -5 -12   20.45    0.87
   0  -5 -12   22.21    0.89
   0  -5 -12   21.00    0.91
  -1  -5 -12    0.32    0.14
  -1  -5 -12    0.35    0.17
  -1  -5 -12    1.01    0.22
  -2  -5 -12    8.19    0.42
  -2  -5 -12    7.97    0.41
  -2  -5 -12    7.66    0.45
  -3  -5 -12   11.04    0.51
  -3  -5 -12   10.32    0.48
   3   5  12    9.36    0.50
  -4  -5 -12    7.41    0.36
   4   5  12    6.86    0.37
  -5  -5 -12    0.08    0.10
   5   5  12   -0.08    0.08
   2  -6 -12    9.33    0.41
   2  -6 -12    9.29    0.40
   1  -6 -12    4.89    0.28
   1  -6 -12    5.52    0.28
   0  -6 -12   20.10    0.82
   0  -6 -12   17.75    0.84
   0  -6 -12   21.02    0.92
  -1  -6 -12    9.30    0.48
  -1  -6 -12    9.62    0.45
  -1  -6 -12    9.23    0.45
  -2  -6 -12    1.28    0.20
   2   6  12    0.71    0.21
  -3  -6 -12    9.60    0.45
  -3  -6 -12    9.97    0.50
   3   6  12    9.62    0.47
  -4  -6 -12    0.35    0.11
   4   6  12    0.44    0.12
   4   6  12    0.80    0.21
  -5  -6 -12    0.35    0.10
   2  -7 -12   18.23    0.69
   2  -7 -12   17.52    0.70
   1  -7 -12    1.14    0.14
   1  -7 -12    1.11    0.14
   0  -7 -12   13.69    0.57
   0  -7 -12   13.22    0.56
  -1  -7 -12    3.78    0.25
  -1  -7 -12    3.72    0.24
  -2  -7 -12    0.33    0.11
  -2  -7 -12    0.43    0.15
  -3  -7 -12    2.23    0.20
   3   7  12    2.04    0.24
   3   7  12    1.87    0.19
   4   7  12    0.07    0.10
   4   7  12    0.08    0.11
   0  -8 -12    0.53    0.12
   0  -8 -12    0.69    0.12
  -1  -8 -12    1.77    0.19
  -1  -8 -12    1.64    0.15
   1   8  12    1.78    0.22
   2   8  12    1.41    0.15
  -3  -8 -12    0.62    0.17
   1   7 -13    1.52    0.16
   2   6 -13    2.77    0.17
   2   6 -13    2.82    0.24
   1   6 -13   11.07    0.47
   0   6 -13    4.49    0.26
   3   5 -13    3.30    0.19
   3   5 -13    3.44    0.19
   2   5 -13   20.38    0.82
   2   5 -13   20.53    0.82
   1   5 -13    8.45    0.41
   1   5 -13    8.76    0.40
   0   5 -13    0.30    0.12
  -1   5 -13    2.01    0.28
  -2   5 -13    0.29    0.11
  -3   5 -13   11.15    0.46
  -4   5 -13    6.98    0.30
   4   4 -13    0.15    0.07
   3   4 -13    6.86    0.32
   3   4 -13    6.74    0.32
   2   4 -13   25.01    0.97
   2   4 -13   23.69    0.97
   1   4 -13    4.34    0.28
   1   4 -13    4.92    0.29
   0   4 -13    2.40    0.28
   0   4 -13    3.02    0.23
  -1   4 -13    0.73    0.18
  -1   4 -13    0.51    0.17
  -2   4 -13    0.70    0.16
  -3   4 -13   67.91    2.57
  -4   4 -13   13.54    0.55
   4   3 -13   10.39    0.43
   3   3 -13    0.08    0.09
   3   3 -13    0.24    0.12
   2   3 -13   63.34    2.43
   2   3 -13   64.11    2.44
   1   3 -13    6.09    0.34
   0   3 -13    1.74    0.24
   0   3 -13    1.52    0.20
  -1   3 -13    0.71    0.19
  -1   3 -13    0.68    0.15
  -1   3 -13    0.64    0.17
  -2   3 -13    8.32    0.40
  -3   3 -13    6.62    0.32
  -4   3 -13    6.96    0.32
  -5   3 -13    1.35    0.13
   4   2 -13    0.53    0.15
   3   2 -13    0.03    0.10
   3   2 -13    0.67    0.18
   2   2 -13   38.77    1.53
   2   2 -13   40.24    1.55
   1   2 -13   28.47    1.15
   1   2 -13   29.10    1.14
   0   2 -13    4.84    0.29
   0   2 -13    4.68    0.30
   0   2 -13    4.48    0.37
  -1   2 -13    9.98    0.49
  -1   2 -13    9.93    0.46
  -1   2 -13    9.88    0.47
  -2   2 -13    1.70    0.21
  -2   2 -13    2.10    0.35
  -2   2 -13    1.69    0.32
  -3   2 -13   22.50    0.90
  -4   2 -13    2.67    0.20
  -5   2 -13    0.70    0.12
   4   1 -13    1.34    0.19
   3   1 -13    2.46    0.28
   3   1 -13    1.92    0.23
   2   1 -13   14.81    0.64
   2   1 -13   14.38    0.62
   1   1 -13   62.46    2.40
   1   1 -13   62.35    2.39
   0   1 -13    2.75    0.23
   0   1 -13    2.21    0.29
   0   1 -13    2.24    0.23
  -1   1 -13   23.84    0.95
  -1   1 -13   23.61    0.97
  -1   1 -13   23.71    0.97
  -2   1 -13    2.17    0.28
  -2   1 -13    2.63    0.22
  -2   1 -13    2.45    0.34
  -3   1 -13    2.76    0.21
  -4   1 -13   22.45    1.02
  -4   1 -13   25.52    0.95
  -5   1 -13    1.64    0.16
  -5   1 -13    1.85    0.23
   3   0 -13   18.17    0.77
   2   0 -13   -0.05    0.11
   2   0 -13    0.28    0.13
   1   0 -13    0.40    0.12
   1   0 -13    0.25    0.13
   1   0 -13    0.28    0.21
   0   0 -13   39.58    1.54
   0   0 -13   39.31    1.53
   0   0 -13   39.00    1.54
  -1   0 -13    0.56    0.15
  -1   0 -13    0.58    0.15
  -1   0 -13    0.94    0.20
  -2   0 -13    3.86    0.35
  -2   0 -13    4.37    0.31
  -2   0 -13    4.42    0.27
  -3   0 -13   -0.17    0.10
  -3   0 -13    0.18    0.20
  -4   0 -13   11.41    0.49
  -4   0 -13   10.84    0.53
  -5   0 -13   22.74    0.89
  -5   0 -13   22.48    0.90
  -6   0 -13    9.62    0.41
   3  -1 -13    4.08    0.31
   3  -1 -13    3.61    0.36
   2  -1 -13    2.45    0.27
   2  -1 -13    2.32    0.26
   1  -1 -13   35.94    1.39
   1  -1 -13   35.12    1.40
   1  -1 -13   35.06    1.39
   0  -1 -13    7.01    0.39
   0  -1 -13    7.00    0.38
   0  -1 -13    7.65    0.38
  -1  -1 -13   11.69    0.54
  -1  -1 -13   11.96    0.55
  -1  -1 -13   11.83    0.52
  -2  -1 -13    9.88    0.48
  -2  -1 -13    9.08    0.53
  -2  -1 -13    9.42    0.50
  -2  -1 -13    9.18    0.43
  -3  -1 -13   -0.02    0.29
  -3  -1 -13    0.10    0.11
  -3  -1 -13    0.15    0.17
  -4  -1 -13    5.17    0.33
  -4  -1 -13    5.35    0.29
  -5  -1 -13    1.50    0.17
  -5  -1 -13    1.15    0.19
   5   1  13    0.98    0.26
  -6  -1 -13    0.77    0.14
   2  -2 -13    6.34    0.42
   2  -2 -13    7.16    0.40
   2  -2 -13    6.52    0.42
   1  -2 -13   14.69    0.64
   1  -2 -13   14.24    0.65
   1  -2 -13   14.83    0.65
   0  -2 -13   91.20    3.38
   0  -2 -13   91.12    3.35
   0  -2 -13   83.50    3.37
   0  -2 -13   88.52    3.37
  -1  -2 -13    0.70    0.16
  -1  -2 -13    0.55    0.13
  -1  -2 -13    0.41    0.20
  -1  -2 -13    0.86    0.20
  -2  -2 -13   12.60    0.59
  -2  -2 -13   12.76    0.60
  -2  -2 -13   12.34    0.59
  -2  -2 -13   13.01    0.55
  -3  -2 -13    0.24    0.15
  -3  -2 -13    0.43    0.12
  -3  -2 -13    0.77    0.25
  -4  -2 -13    1.19    0.20
  -4  -2 -13    0.84    0.21
  -5  -2 -13   12.12    0.52
  -5  -2 -13   12.16    0.52
   5   2  13   11.63    0.54
   2  -3 -13    0.42    0.21
   2  -3 -13    0.22    0.15
   1  -3 -13    2.19    0.32
   1  -3 -13    2.00    0.26
   1  -3 -13    2.43    0.25
   1  -3 -13    1.97    0.29
   0  -3 -13   40.38    1.60
   0  -3 -13   41.85    1.59
   0  -3 -13   40.86    1.62
   0  -3 -13   39.94    1.60
  -1  -3 -13   41.28    1.61
  -1  -3 -13   41.36    1.63
  -1  -3 -13   40.80    1.62
  -1  -3 -13   41.01    1.60
  -2  -3 -13   21.50    0.91
  -2  -3 -13   21.41    0.86
  -2  -3 -13   20.73    0.88
  -3  -3 -13    7.65    0.38
  -3  -3 -13    7.27    0.40
  -3  -3 -13    7.51    0.46
  -4  -3 -13    3.54    0.26
  -4  -3 -13    3.34    0.29
   4   3  13    3.66    0.29
  -5  -3 -13    6.93    0.33
   5   3  13    6.26    0.34
  -6  -3 -13    0.19    0.08
   6   3  13    0.26    0.20
   2  -4 -13    0.00    0.11
   2  -4 -13   -0.07    0.21
   2  -4 -13   -0.20    0.14
   1  -4 -13    2.73    0.30
   1  -4 -13    2.72    0.27
   1  -4 -13    3.37    0.25
   0  -4 -13   22.70    0.97
   0  -4 -13   23.13    0.98
   0  -4 -13   22.84    0.93
   0  -4 -13   23.04    0.94
  -1  -4 -13   66.39    2.54
  -1  -4 -13   65.23    2.50
  -1  -4 -13   64.45    2.50
  -2  -4 -13    1.88    0.26
  -2  -4 -13    2.74    0.25
  -2  -4 -13    2.15    0.24
  -3  -4 -13    0.04    0.13
  -3  -4 -13    0.07    0.19
  -3  -4 -13    0.12    0.14
  -4  -4 -13    0.99    0.25
  -4  -4 -13    0.49    0.13
   4   4  13    0.33    0.13
  -5  -4 -13    1.98    0.18
   5   4  13    1.67    0.19
   2  -5 -13   -0.03    0.11
   2  -5 -13   -0.03    0.08
   1  -5 -13    0.97    0.25
   1  -5 -13    1.33    0.20
   1  -5 -13    1.48    0.18
   0  -5 -13    2.07    0.24
   0  -5 -13    2.08    0.21
   0  -5 -13    2.22    0.27
  -1  -5 -13   35.19    1.39
  -1  -5 -13   34.72    1.38
  -1  -5 -13   35.53    1.42
  -2  -5 -13    5.06    0.31
  -2  -5 -13    4.80    0.35
  -2  -5 -13    5.37    0.31
  -3  -5 -13    0.08    0.13
  -3  -5 -13    0.31    0.15
  -4  -5 -13    0.25    0.11
   4   5  13    0.04    0.11
  -5  -5 -13    0.43    0.10
   5   5  13    0.31    0.09
   2  -6 -13    0.73    0.15
   2  -6 -13    0.54    0.11
   1  -6 -13    3.21    0.21
   1  -6 -13    3.34    0.20
   0  -6 -13   53.86    2.05
   0  -6 -13   53.64    2.06
  -1  -6 -13  105.86    4.04
  -1  -6 -13  106.60    4.07
  -1  -6 -13  108.22    4.03
  -2  -6 -13    9.75    0.44
  -2  -6 -13   10.00    0.45
   2   6  13    9.13    0.48
  -3  -6 -13   13.01    0.58
  -3  -6 -13   12.96    0.56
   3   6  13   13.24    0.58
  -4  -6 -13    1.64    0.17
   4   6  13    1.48    0.34
   4   6  13    1.51    0.18
  -5  -6 -13   -0.08    0.09
   5   6  13    0.10    0.07
   1  -7 -13    1.29    0.12
   1  -7 -13    1.17    0.21
   0  -7 -13    5.50    0.27
   0  -7 -13    5.34    0.26
  -1  -7 -13    5.06    0.27
  -1  -7 -13    5.19    0.27
  -2  -7 -13   12.34    0.54
  -2  -7 -13   13.05    0.54
  -3  -7 -13    3.62    0.21
   3   7  13    3.20    0.29
   3   7  13    3.52    0.22
  -4  -7 -13    0.11    0.09
   4   7  13    0.03    0.11
  -1  -8 -13    1.02    0.23
  -1  -8 -13    1.00    0.13
   1   8  13    1.07    0.14
  -2  -8 -13    0.89    0.13
   2   8  13    0.76    0.12
   2   6 -14    3.93    0.20
   1   6 -14   26.57    1.04
   0   6 -14    0.29    0.12
   3   5 -14    0.28    0.08
   3   5 -14    0.51    0.12
   2   5 -14    1.52    0.14
   2   5 -14    1.46    0.17
   1   5 -14    0.99    0.20
   1   5 -14    1.09    0.14
   0   5 -14    5.91    0.30
  -2   5 -14    0.06    0.12
  -3   5 -14    5.34    0.26
   3   4 -14   21.26    0.84
   3   4 -14   21.82    0.85
   2   4 -14    7.42    0.35
   2   4 -14    7.21    0.34
   1   4 -14    1.12    0.15
   1   4 -14    1.19    0.19
   0   4 -14   13.68    0.62
   0   4 -14   11.17    0.55
  -1   4 -14   41.36    1.58
  -1   4 -14   40.01    1.60
  -2   4 -14    0.37    0.11
  -3   4 -14    2.42    0.17
  -4   4 -14    1.70    0.13
   4   3 -14    7.53    0.33
   3   3 -14   15.26    0.64
   3   3 -14   16.49    0.66
   2   3 -14    9.33    0.43
   2   3 -14    9.65    0.43
   1   3 -14    3.29    0.25
   1   3 -14    3.06    0.23
   0   3 -14   82.50    3.09
   0   3 -14   80.30    3.10
  -1   3 -14    0.63    0.16
  -1   3 -14    1.25    0.27
  -1   3 -14    0.39    0.16
  -2   3 -14   13.02    0.55
  -3   3 -14    5.88    0.28
  -4   3 -14    0.05    0.07
   4   2 -14   14.98    0.60
   3   2 -14   -0.03    0.09
   3   2 -14   -0.04    0.13
   2   2 -14   10.00    0.46
   2   2 -14   10.71    0.48
   1   2 -14    3.20    0.25
   1   2 -14    3.45    0.25
   0   2 -14    1.64    0.21
   0   2 -14    1.74    0.23
  -1   2 -14   22.90    0.94
  -1   2 -14   23.90    0.93
  -1   2 -14   22.38    0.95
  -2   2 -14    4.26    0.39
  -2   2 -14    4.33    0.27
  -2   2 -14    4.76    0.36
  -3   2 -14    3.13    0.21
  -4   2 -14    1.69    0.15
  -5   2 -14    0.71    0.12
   4   1 -14    1.20    0.20
   3   1 -14   19.11    0.77
   3   1 -14   18.83    0.78
   2   1 -14    0.58    0.15
   2   1 -14    0.38    0.12
   1   1 -14   19.70    0.83
   1   1 -14   20.13    0.82
   0   1 -14   31.10    1.28
   0   1 -14   32.31    1.27
   0   1 -14   33.04    1.27
  -1   1 -14    4.93    0.31
  -1   1 -14    4.42    0.30
  -1   1 -14    4.58    0.29
  -2   1 -14   22.87    0.91
  -2   1 -14   21.82    0.94
  -2   1 -14   23.09    0.94
  -3   1 -14   21.11    0.85
  -4   1 -14    0.12    0.08
  -5   1 -14    0.26    0.16
   3   0 -14    1.05    0.21
   3   0 -14    1.38    0.24
   2   0 -14   14.20    0.61
   2   0 -14   13.69    0.61
   1   0 -14  110.10    4.12
   1   0 -14  108.01    4.13
   0   0 -14    0.01    0.13
   0   0 -14    0.24    0.16
   0   0 -14    0.05    0.12
  -1   0 -14   16.29    0.71
  -1   0 -14   16.81    0.69
  -1   0 -14   16.64    0.71
  -2   0 -14   31.24    1.22
  -2   0 -14   29.52    1.22
  -2   0 -14   30.28    1.19
  -3   0 -14   -0.08    0.10
  -3   0 -14   -0.05    0.22
  -4   0 -14    2.03    0.25
  -4   0 -14    2.08    0.20
  -5   0 -14    0.42    0.12
  -5   0 -14    0.51    0.13
   3  -1 -14   45.27    1.76
   3  -1 -14   46.17    1.82
   2  -1 -14   10.79    0.52
   2  -1 -14   11.41    0.51
   1  -1 -14    6.14    0.35
   1  -1 -14    5.97    0.35
   1  -1 -14    6.59    0.38
   0  -1 -14   19.53    0.83
   0  -1 -14   19.93    0.81
   0  -1 -14   19.35    0.82
  -1  -1 -14   10.00    0.50
  -1  -1 -14   10.00    0.47
  -1  -1 -14   10.77    0.50
  -2  -1 -14    7.89    0.39
  -2  -1 -14    8.64    0.46
  -2  -1 -14    8.95    0.45
  -2  -1 -14    8.12    0.49
  -3  -1 -14    3.85    0.24
  -3  -1 -14    2.98    0.32
  -3  -1 -14    4.79    0.45
  -4  -1 -14    0.35    0.10
  -5  -1 -14    5.20    0.28
  -5  -1 -14    5.17    0.27
   5   1  14    5.13    0.32
   2  -2 -14    4.48    0.34
   2  -2 -14    4.79    0.34
   1  -2 -14    1.70    0.26
   1  -2 -14    1.48    0.24
   1  -2 -14    1.75    0.25
   0  -2 -14    0.26    0.14
   0  -2 -14    0.14    0.14
  -1  -2 -14    2.12    0.24
  -1  -2 -14    2.52    0.27
  -1  -2 -14    1.96    0.22
  -1  -2 -14    2.49    0.35
  -2  -2 -14    9.56    0.49
  -2  -2 -14    9.33    0.43
  -2  -2 -14    9.65    0.48
  -2  -2 -14    8.73    0.48
  -3  -2 -14    2.53    0.28
  -3  -2 -14    2.61    0.38
  -3  -2 -14    2.74    0.23
  -5  -2 -14   14.77    0.62
  -5  -2 -14   15.42    0.62
   5   2  14   15.26    0.64
   2  -3 -14   22.19    0.87
   2  -3 -14   21.11    0.90
   1  -3 -14   -0.12    0.18
   1  -3 -14    0.06    0.15
   1  -3 -14    0.42    0.19
   1  -3 -14   -0.13    0.14
   0  -3 -14   10.70    0.52
   0  -3 -14   11.09    0.49
   0  -3 -14   10.35    0.52
   0  -3 -14   10.68    0.52
  -1  -3 -14    0.80    0.18
  -1  -3 -14    0.73    0.18
  -1  -3 -14    1.22    0.24
  -1  -3 -14    0.92    0.20
  -2  -3 -14    4.74    0.32
  -2  -3 -14    4.87    0.35
  -2  -3 -14    4.43    0.29
  -3  -3 -14   23.85    0.96
  -3  -3 -14   24.49    1.01
  -3  -3 -14   23.63    0.97
  -4  -3 -14    0.85    0.14
  -4  -3 -14    0.83    0.20
   4   3  14    0.61    0.14
  -5  -3 -14   23.67    0.94
   5   3  14   24.38    0.95
   2  -4 -14   12.60    0.57
   2  -4 -14   13.11    0.54
   1  -4 -14   10.28    0.50
   1  -4 -14    9.41    0.47
   0  -4 -14    8.12    0.44
   0  -4 -14    7.79    0.42
   0  -4 -14    8.56    0.40
  -1  -4 -14   17.20    0.73
  -1  -4 -14   16.70    0.71
  -1  -4 -14   17.54    0.76
  -2  -4 -14   18.86    0.81
  -2  -4 -14   18.12    0.77
  -2  -4 -14   18.72    0.78
  -3  -4 -14    0.18    0.15
  -3  -4 -14    0.50    0.13
  -3  -4 -14    0.35    0.13
  -4  -4 -14    9.02    0.44
  -4  -4 -14    9.96    0.43
   4   4  14    9.75    0.45
  -5  -4 -14    0.22    0.09
   5   4  14    0.18    0.10
   2  -5 -14   19.13    0.72
   2  -5 -14   17.40    0.73
   1  -5 -14    5.25    0.33
   1  -5 -14    5.83    0.30
   1  -5 -14    5.62    0.29
   0  -5 -14   11.64    0.49
   0  -5 -14   11.06    0.52
   0  -5 -14   11.03    0.51
  -1  -5 -14    4.14    0.27
  -1  -5 -14    4.37    0.30
  -1  -5 -14    4.09    0.38
  -3  -5 -14   26.73    1.06
  -3  -5 -14   26.28    1.06
   3   5  14   27.25    1.07
  -4  -5 -14    0.24    0.10
   4   5  14   -0.08    0.10
  -5  -5 -14   -0.06    0.09
   5   5  14    0.11    0.08
   2  -6 -14   12.27    0.49
   1  -6 -14    5.99    0.30
   1  -6 -14    6.41    0.29
   0  -6 -14    4.51    0.25
   0  -6 -14    4.42    0.26
  -1  -6 -14   13.97    0.59
  -1  -6 -14   14.56    0.60
  -2  -6 -14    6.49    0.32
  -2  -6 -14    6.37    0.32
   2   6  14    6.01    0.37
  -3  -6 -14    2.97    0.21
  -3  -6 -14    3.08    0.27
   3   6  14    3.65    0.25
  -4  -6 -14    5.33    0.26
   4   6  14    5.34    0.27
   4   6  14    4.66    0.29
   0  -7 -14   14.95    0.61
   0  -7 -14   15.91    0.63
  -1  -7 -14    0.66    0.14
  -2  -7 -14    4.16    0.25
  -2  -7 -14    4.57    0.24
  -3  -7 -14    4.54    0.26
   3   7  14    4.87    0.24
   2   5 -15    7.21    0.31
   2   5 -15    6.21    0.34
   1   5 -15    2.52    0.23
   1   5 -15    2.48    0.17
   0   5 -15    0.45    0.12
   3   4 -15    9.69    0.41
   2   4 -15    5.81    0.28
   2   4 -15    5.89    0.28
   1   4 -15    7.63    0.36
   1   4 -15    7.12    0.34
   0   4 -15    0.35    0.14
   0   4 -15    0.36    0.11
  -1   4 -15    3.06    0.26
  -2   4 -15    1.03    0.17
  -3   4 -15    4.20    0.22
   3   3 -15    1.32    0.13
   3   3 -15    1.21    0.16
   2   3 -15    0.65    0.14
   2   3 -15    0.57    0.14
   1   3 -15    3.62    0.24
   1   3 -15    3.35    0.23
   0   3 -15    0.95    0.19
   0   3 -15    1.23    0.23
  -1   3 -15    8.37    0.41
  -1   3 -15    8.44    0.48
  -2   3 -15    8.91    0.40
  -3   3 -15    2.28    0.17
  -4   3 -15    2.64    0.16
   3   2 -15   28.06    1.09
   3   2 -15   27.89    1.09
   2   2 -15    2.37    0.19
   2   2 -15    2.50    0.20
   1   2 -15    0.21    0.10
   1   2 -15    0.36    0.11
   0   2 -15   10.09    0.48
   0   2 -15   10.28    0.47
  -1   2 -15    4.02    0.30
  -1   2 -15    4.24    0.29
  -1   2 -15    4.40    0.29
  -2   2 -15    0.28    0.17
  -2   2 -15    0.31    0.11
  -3   2 -15    2.02    0.17
  -4   2 -15    0.16    0.08
  -5   2 -15    0.33    0.07
   3   1 -15    0.28    0.10
   3   1 -15    0.49    0.13
   2   1 -15    1.07    0.17
   2   1 -15    0.61    0.11
   1   1 -15    0.95    0.19
   1   1 -15    1.22    0.19
   0   1 -15   15.03    0.67
   0   1 -15   15.76    0.68
   0   1 -15   15.93    0.67
  -1   1 -15    3.97    0.28
  -1   1 -15    4.34    0.29
  -1   1 -15    3.90    0.29
  -2   1 -15   10.14    0.46
  -2   1 -15   10.67    0.51
  -2   1 -15   10.57    0.52
  -3   1 -15    1.96    0.18
  -4   1 -15    1.99    0.16
  -5   1 -15    0.07    0.08
   3   0 -15   15.48    0.63
   3   0 -15   15.11    0.65
   2   0 -15    8.07    0.40
   2   0 -15    7.80    0.38
   1   0 -15   21.87    0.90
   1   0 -15   21.90    0.89
   0   0 -15   93.31    3.42
   0   0 -15   89.88    3.44
   0   0 -15   88.34    3.44
  -1   0 -15    0.07    0.14
  -1   0 -15    0.22    0.13
  -1   0 -15    0.14    0.14
  -2   0 -15    4.64    0.28
  -2   0 -15    5.23    0.33
  -2   0 -15    4.62    0.34
  -3   0 -15   -0.08    0.09
  -4   0 -15    0.90    0.13
  -4   0 -15    0.89    0.18
   4   0  15    0.80    0.16
  -5   0 -15    0.17    0.15
  -5   0 -15    0.17    0.08
   2  -1 -15   23.44    0.92
   2  -1 -15   22.29    0.93
   1  -1 -15   33.49    1.30
   1  -1 -15   32.24    1.31
   1  -1 -15   32.88    1.30
   0  -1 -15    4.37    0.30
   0  -1 -15    4.20    0.29
   0  -1 -15    4.34    0.29
  -1  -1 -15    0.14    0.14
  -1  -1 -15    0.39    0.13
  -1  -1 -15    0.51    0.13
  -2  -1 -15    0.14    0.11
  -2  -1 -15   -0.11    0.14
  -2  -1 -15   -0.03    0.16
  -3  -1 -15    3.14    0.22
  -3  -1 -15    3.32    0.33
  -3  -1 -15    4.00    0.40
  -4  -1 -15    5.60    0.34
  -4  -1 -15    5.89    0.29
   4   1  15    6.22    0.33
  -5  -1 -15    5.59    0.29
  -5  -1 -15    5.38    0.26
   2  -2 -15    5.55    0.32
   2  -2 -15    5.60    0.35
   1  -2 -15   13.08    0.57
   1  -2 -15   12.32    0.58
   1  -2 -15   12.87    0.58
   0  -2 -15    4.77    0.31
   0  -2 -15    5.07    0.31
   0  -2 -15    4.59    0.32
  -1  -2 -15   14.72    0.65
  -1  -2 -15   14.82    0.73
  -1  -2 -15   14.79    0.63
  -1  -2 -15   14.55    0.65
  -2  -2 -15   17.58    0.73
  -2  -2 -15   18.85    0.78
  -2  -2 -15   16.22    0.77
  -2  -2 -15   18.79    0.77
  -3  -2 -15    0.99    0.18
  -3  -2 -15    1.14    0.29
  -3  -2 -15    1.06    0.25
  -4  -2 -15   -0.04    0.12
  -4  -2 -15   -0.11    0.09
   4   2  15    0.07    0.12
  -5  -2 -15    2.13    0.18
  -5  -2 -15    1.85    0.21
   5   2  15    1.85    0.21
   2  -3 -15    5.73    0.35
   2  -3 -15    5.57    0.31
   1  -3 -15   44.67    1.67
   1  -3 -15   42.15    1.70
   1  -3 -15   42.94    1.68
   0  -3 -15    0.15    0.14
   0  -3 -15    0.19    0.15
   0  -3 -15   -0.09    0.11
   0  -3 -15    0.25    0.19
  -1  -3 -15    0.04    0.18
  -1  -3 -15    0.54    0.15
  -1  -3 -15    0.46    0.17
  -1  -3 -15    0.23    0.12
  -2  -3 -15    6.77    0.35
  -2  -3 -15    6.89    0.39
  -2  -3 -15    6.64    0.39
  -3  -3 -15    0.28    0.17
  -3  -3 -15    0.73    0.14
  -4  -3 -15    2.52    0.20
  -4  -3 -15    1.67    0.20
   4   3  15    2.57    0.22
  -5  -3 -15   50.89    1.98
   5   3  15   53.74    1.99
   2  -4 -15    5.02    0.26
   1  -4 -15    1.45    0.20
   1  -4 -15    1.68    0.18
   1  -4 -15    1.73    0.24
   0  -4 -15   11.23    0.52
  -1  -4 -15    2.64    0.27
  -1  -4 -15    2.30    0.22
  -2  -4 -15    1.07    0.19
  -2  -4 -15    0.98    0.24
  -3  -4 -15    0.32    0.12
  -3  -4 -15    0.28    0.14
  -3  -4 -15    0.23    0.11
  -4  -4 -15    5.63    0.31
  -4  -4 -15    6.06    0.30
   4   4  15    6.55    0.32
  -5  -4 -15    0.59    0.13
   5   4  15    0.83    0.13
   2  -5 -15    0.22    0.09
   1  -5 -15    5.05    0.31
   1  -5 -15    5.96    0.30
   1  -5 -15    5.66    0.27
   0  -5 -15    0.06    0.12
   0  -5 -15    0.04    0.09
   0  -5 -15    0.11    0.12
  -1  -5 -15    3.76    0.26
  -1  -5 -15    3.38    0.26
  -1  -5 -15    3.68    0.23
  -2  -5 -15    4.88    0.27
  -2  -5 -15    4.85    0.29
  -2  -5 -15    5.19    0.28
   2   5  15    4.77    0.31
  -3  -5 -15    2.37    0.21
  -3  -5 -15    2.77    0.20
   3   5  15    2.43    0.22
  -4  -5 -15    0.44    0.10
   4   5  15    0.58    0.15
   1  -6 -15    0.24    0.07
   1  -6 -15    0.17    0.10
   0  -6 -15   10.83    0.45
   0  -6 -15   10.53    0.46
  -1  -6 -15    0.35    0.11
  -1  -6 -15    0.69    0.14
  -2  -6 -15    0.16    0.10
  -2  -6 -15    0.01    0.09
  -3  -6 -15    0.32    0.14
  -3  -6 -15    0.04    0.09
  -4  -6 -15    2.21    0.16
   4   6  15    2.22    0.17
  -1  -7 -15    1.52    0.15
  -2  -7 -15    1.56    0.13
  -2  -7 -15    1.32    0.20
   1   5 -16    0.25    0.09
   0   5 -16   14.05    0.57
   2   4 -16    0.17    0.08
   2   4 -16    0.31    0.12
   1   4 -16    4.67    0.25
   1   4 -16    5.15    0.27
   0   4 -16    2.78    0.25
   0   4 -16    2.97    0.21
  -1   4 -16    1.12    0.25
  -2   4 -16    0.17    0.12
  -3   4 -16    0.21    0.09
   3   3 -16    0.58    0.11
   3   3 -16    0.59    0.16
   2   3 -16    0.07    0.09
   2   3 -16    0.15    0.07
   1   3 -16   -0.04    0.09
   1   3 -16    0.05    0.09
   0   3 -16    1.66    0.20
   0   3 -16    1.81    0.18
  -1   3 -16    3.14    0.26
  -1   3 -16    3.05    0.28
  -1   3 -16    3.52    0.25
  -2   3 -16    3.09    0.20
  -3   3 -16    1.89    0.15
  -4   3 -16    8.62    0.35
   3   2 -16    0.82    0.16
   3   2 -16    1.06    0.18
   2   2 -16    0.85    0.15
   2   2 -16    0.98    0.14
   1   2 -16   24.18    0.97
   1   2 -16   24.48    0.97
  -1   2 -16    5.40    0.37
  -1   2 -16    6.42    0.34
  -1   2 -16    5.98    0.33
  -2   2 -16    7.34    0.35
  -2   2 -16    7.81    0.40
  -2   2 -16    7.56    0.45
  -3   2 -16    3.96    0.21
  -4   2 -16    0.07    0.06
   3   1 -16    0.36    0.13
   3   1 -16    0.37    0.14
   2   1 -16    6.33    0.31
   2   1 -16    6.43    0.33
   1   1 -16    7.32    0.38
   1   1 -16    7.58    0.38
   0   1 -16   16.26    0.66
   0   1 -16   15.56    0.66
   0   1 -16   14.56    0.66
  -1   1 -16   34.83    1.37
  -1   1 -16   34.78    1.39
  -1   1 -16   36.41    1.40
  -2   1 -16    9.96    0.45
  -2   1 -16    9.67    0.48
  -3   1 -16    1.64    0.15
  -4   1 -16    0.20    0.07
   3   0 -16    0.10    0.12
   2   0 -16    0.00    0.12
   2   0 -16    0.05    0.10
   1   0 -16    4.70    0.35
   0   0 -16   40.85    1.59
   0   0 -16   41.20    1.58
   0   0 -16   40.66    1.60
  -1   0 -16    0.25    0.13
  -1   0 -16    0.14    0.12
  -1   0 -16    0.22    0.13
  -2   0 -16   37.63    1.45
  -2   0 -16   36.30    1.44
  -2   0 -16   36.08    1.42
  -3   0 -16    0.08    0.08
  -4   0 -16    1.11    0.13
   4   0  16    1.13    0.24
  -5   0 -16    0.31    0.08
   2  -1 -16    0.70    0.19
   1  -1 -16    3.16    0.24
   1  -1 -16    3.06    0.31
   0  -1 -16    6.92    0.37
   0  -1 -16    7.02    0.37
   0  -1 -16    6.80    0.37
  -1  -1 -16   15.90    0.68
  -1  -1 -16   15.87    0.66
  -1  -1 -16   15.43    0.68
  -2  -1 -16    3.90    0.28
  -2  -1 -16    3.55    0.23
  -2  -1 -16    3.00    0.27
  -3  -1 -16   11.72    0.49
  -3  -1 -16   11.15    0.60
  -3  -1 -16   11.62    0.61
  -4  -1 -16    0.14    0.09
  -4  -1 -16    0.36    0.14
   4   1  16    0.38    0.12
  -5  -1 -16    0.72    0.16
  -5  -1 -16    0.53    0.10
   2  -2 -16    0.53    0.14
   2  -2 -16    0.46    0.18
   1  -2 -16    1.50    0.23
   1  -2 -16    1.24    0.19
   1  -2 -16    0.96    0.21
   0  -2 -16    5.55    0.33
   0  -2 -16    6.15    0.34
   0  -2 -16    6.35    0.33
  -1  -2 -16    2.24    0.23
  -1  -2 -16    2.30    0.22
  -1  -2 -16    1.69    0.22
  -2  -2 -16    9.57    0.43
  -2  -2 -16   10.18    0.47
  -2  -2 -16    8.50    0.50
  -2  -2 -16   10.15    0.48
  -3  -2 -16    0.11    0.15
  -3  -2 -16    0.14    0.17
  -3  -2 -16    0.12    0.10
  -4  -2 -16    0.51    0.13
  -4  -2 -16    0.34    0.09
   4   2  16    0.38    0.11
  -5  -2 -16    0.02    0.12
  -5  -2 -16   -0.19    0.11
   5   2  16    0.14    0.12
   2  -3 -16    3.62    0.27
   1  -3 -16    2.83    0.30
   1  -3 -16    2.47    0.23
   1  -3 -16    2.53    0.22
   0  -3 -16    0.41    0.15
   0  -3 -16    0.72    0.18
   0  -3 -16    0.26    0.13
  -1  -3 -16   14.50    0.61
  -1  -3 -16   13.57    0.58
  -1  -3 -16   12.49    0.61
  -2  -3 -16    1.34    0.24
  -2  -3 -16    1.61    0.27
  -3  -3 -16   34.13    1.35
  -3  -3 -16   34.37    1.34
  -3  -3 -16   35.45    1.37
  -4  -3 -16    0.16    0.11
  -4  -3 -16   -0.10    0.09
   4   3  16    0.12    0.09
  -5  -3 -16    0.03    0.10
   5   3  16   -0.01    0.09
   1  -4 -16    3.84    0.23
   1  -4 -16    3.60    0.24
   0  -4 -16    0.00    0.13
   0  -4 -16    0.25    0.16
   0  -4 -16    0.02    0.09
  -1  -4 -16    5.80    0.34
  -1  -4 -16    5.20    0.31
  -1  -4 -16    5.69    0.29
  -2  -4 -16   15.92    0.66
  -2  -4 -16   16.24    0.68
  -2  -4 -16   16.00    0.67
  -3  -4 -16    7.35    0.35
  -3  -4 -16    7.73    0.37
  -3  -4 -16    7.73    0.38
   3   4  16    7.95    0.37
  -4  -4 -16    2.75    0.24
  -4  -4 -16    2.90    0.20
   4   4  16    3.44    0.20
   1  -5 -16    1.03    0.15
   0  -5 -16    0.17    0.11
   0  -5 -16    0.19    0.09
   0  -5 -16    0.26    0.13
  -1  -5 -16    5.28    0.28
  -1  -5 -16    4.61    0.25
  -1  -5 -16    5.13    0.28
   1   5  16    4.37    0.32
  -2  -5 -16   -0.11    0.09
  -2  -5 -16    0.01    0.11
  -2  -5 -16    0.08    0.10
   2   5  16    0.03    0.11
  -3  -5 -16    0.67    0.15
  -3  -5 -16    0.53    0.12
   3   5  16    0.93    0.16
  -4  -5 -16    5.44    0.26
   4   5  16    5.55    0.26
   0  -6 -16    0.18    0.10
   0  -6 -16    0.30    0.08
  -1  -6 -16    9.53    0.40
  -2  -6 -16   14.44    0.59
  -3  -6 -16    2.91    0.17
   3   6  16    2.37    0.22
   1   4 -17    1.27    0.18
   1   4 -17    1.29    0.13
   0   4 -17    1.17    0.22
   0   4 -17    2.03    0.26
   2   3 -17    5.19    0.25
   2   3 -17    5.15    0.25
   1   3 -17    3.33    0.21
   1   3 -17    3.07    0.19
   0   3 -17    0.28    0.10
   0   3 -17    0.30    0.12
  -1   3 -17   21.39    0.86
  -1   3 -17   21.21    0.85
  -3   3 -17    2.58    0.16
   2   2 -17   11.19    0.46
   2   2 -17   10.34    0.45
   1   2 -17    1.90    0.18
   1   2 -17    2.00    0.17
   0   2 -17    1.90    0.18
   0   2 -17    1.98    0.20
  -1   2 -17    4.69    0.29
  -1   2 -17    4.73    0.28
  -1   2 -17    4.80    0.28
  -2   2 -17    0.47    0.15
  -2   2 -17    0.28    0.10
  -3   2 -17    6.58    0.29
  -4   2 -17   10.42    0.42
   2   1 -17    6.79    0.32
   2   1 -17    6.91    0.33
   1   1 -17    5.39    0.29
   1   1 -17    5.76    0.29
   0   1 -17    1.91    0.19
   0   1 -17    2.09    0.19
  -1   1 -17    2.71    0.24
  -1   1 -17    2.69    0.22
  -1   1 -17    2.56    0.22
  -2   1 -17    1.34    0.17
  -2   1 -17    1.75    0.24
  -2   1 -17    1.60    0.21
  -3   1 -17   -0.04    0.07
  -4   1 -17    7.03    0.31
   2   0 -17   11.89    0.50
   2   0 -17   11.75    0.51
   1   0 -17    0.12    0.10
   1   0 -17    0.21    0.10
   0   0 -17    3.08    0.24
   0   0 -17    3.29    0.26
   0   0 -17    3.18    0.23
  -1   0 -17    0.12    0.12
  -1   0 -17    0.19    0.11
  -1   0 -17    0.12    0.12
  -2   0 -17    1.07    0.20
  -2   0 -17    1.08    0.21
  -2   0 -17    1.11    0.16
  -3   0 -17   13.78    0.56
  -4   0 -17    7.23    0.32
   2  -1 -17   10.33    0.46
   2  -1 -17   10.67    0.46
   1  -1 -17   16.02    0.68
   1  -1 -17   16.55    0.68
   0  -1 -17    1.24    0.18
   0  -1 -17    1.93    0.20
   0  -1 -17    1.51    0.21
  -1  -1 -17    9.02    0.41
  -1  -1 -17    8.86    0.45
  -1  -1 -17    9.16    0.44
  -2  -1 -17    7.86    0.36
  -2  -1 -17    7.52    0.38
  -2  -1 -17    7.87    0.40
  -3  -1 -17    0.74    0.14
  -4  -1 -17    0.20    0.08
   4   1  17    0.28    0.11
   2  -2 -17   12.73    0.55
   1  -2 -17    3.34    0.25
   1  -2 -17    3.61    0.24
   1  -2 -17    3.31    0.27
   0  -2 -17    4.98    0.28
   0  -2 -17    4.79    0.28
   0  -2 -17    4.70    0.29
  -1  -2 -17    6.09    0.33
  -1  -2 -17    6.26    0.34
  -1  -2 -17    6.24    0.32
  -2  -2 -17    1.71    0.22
  -2  -2 -17    1.99    0.18
  -3  -2 -17    4.18    0.30
  -3  -2 -17    3.79    0.30
  -3  -2 -17    4.03    0.22
  -4  -2 -17   -0.03    0.15
  -4  -2 -17    0.24    0.09
   4   2  17    0.30    0.10
   1  -3 -17   32.61    1.23
   1  -3 -17   30.25    1.21
   0  -3 -17   10.76    0.49
   0  -3 -17   10.91    0.47
  -1  -3 -17    0.83    0.18
  -1  -3 -17    0.94    0.15
  -2  -3 -17    0.22    0.09
  -2  -3 -17    0.05    0.17
  -2  -3 -17    0.28    0.12
  -3  -3 -17    2.11    0.22
  -3  -3 -17    2.24    0.23
  -3  -3 -17    2.23    0.17
  -4  -3 -17    1.85    0.19
   4   3  17    1.92    0.16
   1  -4 -17    2.88    0.21
   1  -4 -17    2.94    0.19
   0  -4 -17    1.07    0.17
   0  -4 -17    1.24    0.15
  -1  -4 -17    5.14    0.28
  -1  -4 -17    5.07    0.26
  -1  -4 -17    5.01    0.31
  -2  -4 -17    4.27    0.26
  -2  -4 -17    4.34    0.23
  -2  -4 -17    3.99    0.26
  -3  -4 -17    3.66    0.20
  -3  -4 -17    3.11    0.22
   3   4  17    3.56    0.22
  -4  -4 -17    0.77    0.15
  -4  -4 -17    0.69    0.13
   4   4  17    0.96    0.13
   0  -5 -17    9.47    0.49
   0  -5 -17   10.88    0.42
  -1  -5 -17    2.95    0.18
  -1  -5 -17    3.24    0.23
  -1  -5 -17    2.96    0.20
  -2  -5 -17    2.42    0.17
   2   5  17    2.68    0.25
  -3  -5 -17    2.10    0.17
  -3  -5 -17    2.39    0.18
   3   5  17    2.12    0.18
   1   3 -18    0.22    0.09
   1   3 -18    0.22    0.08
   0   3 -18    6.83    0.32
  -1   3 -18    0.23    0.17
  -1   3 -18    0.25    0.16
   1   2 -18   15.58    0.64
   1   2 -18   16.22    0.64
   0   2 -18    0.29    0.09
   0   2 -18    0.22    0.09
  -1   2 -18    9.90    0.45
  -1   2 -18   10.27    0.45
  -3   2 -18    0.36    0.08
   2   1 -18    1.31    0.14
   2   1 -18    1.15    0.16
   1   1 -18    5.29    0.27
   1   1 -18    5.14    0.26
   0   1 -18    6.77    0.34
   0   1 -18    7.46    0.34
  -1   1 -18    0.13    0.11
  -1   1 -18    0.02    0.12
  -1   1 -18    0.06    0.10
  -2   1 -18    0.04    0.09
  -2   1 -18    0.00    0.21
  -3   1 -18    2.42    0.15
   2   0 -18    0.01    0.09
   2   0 -18    0.16    0.10
   1   0 -18    2.54    0.19
   1   0 -18    2.66    0.19
   0   0 -18    4.29    0.30
   0   0 -18    4.57    0.25
   0   0 -18    4.60    0.25
  -1   0 -18   20.57    0.87
  -1   0 -18   21.53    0.87
  -1   0 -18   23.11    0.89
  -2   0 -18    1.17    0.22
  -2   0 -18    1.07    0.15
  -3   0 -18    3.32    0.19
  -4   0 -18    9.59    0.39
   2  -1 -18    1.07    0.20
   1  -1 -18    0.12    0.09
   1  -1 -18    0.12    0.09
   0  -1 -18   26.14    1.04
   0  -1 -18   26.30    1.03
   0  -1 -18   25.81    1.02
  -1  -1 -18   15.10    0.64
  -1  -1 -18   15.50    0.62
  -1  -1 -18   15.02    0.64
  -2  -1 -18    1.16    0.20
  -2  -1 -18    1.29    0.15
  -3  -1 -18    6.84    0.31
   4   1  18    0.92    0.19
   1  -2 -18    0.59    0.15
   1  -2 -18    0.33    0.11
   0  -2 -18   10.17    0.45
   0  -2 -18    9.85    0.45
   0  -2 -18    9.97    0.44
  -1  -2 -18    2.55    0.21
  -1  -2 -18    2.54    0.19
  -1  -2 -18    2.50    0.21
  -2  -2 -18    3.42    0.20
  -2  -2 -18    3.27    0.25
  -3  -2 -18    1.71    0.14
  -4  -2 -18    2.22    0.15
   4   2  18    2.22    0.17
   1  -3 -18    2.25    0.34
   1  -3 -18    1.72    0.17
   0  -3 -18    2.08    0.18
   0  -3 -18    1.89    0.19
  -1  -3 -18   11.19    0.49
  -1  -3 -18   11.29    0.47
  -2  -3 -18    0.72    0.16
  -2  -3 -18    0.60    0.13
  -3  -3 -18    0.10    0.07
   3   3  18    0.07    0.08
  -4  -3 -18    0.09    0.09
   4   3  18   -0.09    0.08
   0  -4 -18    0.29    0.10
   0  -4 -18    0.25    0.10
  -1  -4 -18    0.67    0.14
  -1  -4 -18    0.55    0.13
  -2  -4 -18    5.58    0.47
  -2  -4 -18    4.60    0.25
  -2  -4 -18    4.97    0.24
   2   4  18    5.09    0.26
  -3  -4 -18    0.59    0.13
  -3  -4 -18    0.53    0.16
   3   4  18    0.62    0.13
  -1  -5 -18    6.93    0.30
  -2  -5 -18    1.48    0.14
   0   2 -19   -0.01    0.08
   0   2 -19    0.05    0.09
  -1   2 -19    6.76    0.32
  -1   2 -19    6.44    0.33
   1   1 -19    5.03    0.24
   1   1 -19    5.31    0.25
   0   1 -19    0.08    0.09
   0   1 -19    0.19    0.08
  -1   1 -19    0.84    0.15
  -1   1 -19    0.71    0.19
  -2   1 -19    4.09    0.22
  -3   1 -19    0.17    0.08
   1   0 -19    0.02    0.08
   1   0 -19    0.18    0.09
   0   0 -19   14.14    0.59
   0   0 -19   14.75    0.59
  -1   0 -19   26.92    1.08
  -1   0 -19   28.12    1.08
  -2   0 -19    0.88    0.25
  -2   0 -19    0.93    0.14
  -3   0 -19    5.65    0.25
   1  -1 -19   13.52    0.56
   1  -1 -19   13.78    0.56
   0  -1 -19    8.10    0.53
   0  -1 -19    7.70    0.35
   0  -1 -19    7.78    0.35
  -1  -1 -19    3.68    0.23
  -1  -1 -19    4.30    0.23
  -1  -1 -19    3.89    0.23
  -2  -1 -19    0.24    0.08
   1  -2 -19    0.08    0.11
   0  -2 -19    1.99    0.21
   0  -2 -19    2.11    0.17
  -1  -2 -19    0.26    0.10
  -1  -2 -19    0.21    0.09
  -2  -2 -19    1.07    0.13
  -3  -2 -19    1.66    0.13
   0  -3 -19    0.08    0.10
   0  -3 -19    0.03    0.08
  -1  -3 -19    1.34    0.15
  -1  -3 -19    1.74    0.22
  -2  -3 -19    0.12    0.08
  -2  -3 -19    0.32    0.10
  -3  -3 -19    0.17    0.08
   3   3  19    0.24    0.08
  -1  -4 -19    0.10    0.08
  -1  -4 -19   -0.07    0.07
  -1   0 -20    5.97    0.29
  -2   0 -20    3.64    0.21
  -1  -1 -20   25.77    0.96
  -1  -1 -20   23.38    0.96
  -2  -1 -20    3.11    0.18
  -1  -2 -20    0.07    0.08
   0   0   0    0.00    0.00
;
_shelx_hkl_checksum              81802
_shelx_res_file
;
    SKM194_0m.res created by SHELXL-2014/7
TITL SKM194_0m_a.res in P-1
REM Old TITL SKM194_0m in P-1
REM SHELXT solution in P-1
REM R1 0.127,  Rweak 0.006,  Alpha 0.034,  Orientation as input
REM Formula found by SHELXT:  C16 N2 O2 Cl2
CELL  1.54178   5.9498   8.0999  16.3919   85.990   81.410   82.294
ZERR    2.000   0.0002   0.0002   0.0004    0.001    0.001    0.001
LATT  1
SFAC C H N O S CL
UNIT 32 26 4 4 2 2
TEMP -123
SIZE 0.03 0.203 0.251
L.S. 5
BOND $H
LIST 4
CONF
EQIV $1 -x+3, -y+1, -z+1
HTAB N1 S1_$1
HTAB C6 O1
EQIV $2 x+1, y-1, z
HTAB C6 N2_$2
EQIV $3 x-1, y, z
HTAB C15 O1_$3
MPLA C8 > C13
MPLA N1 C1 > C5
ACTA 134
FMAP 2
PLAN 5
WGHT    0.066700    0.208300
FVAR       0.29090
CL1   6    0.091709    0.765720    0.955705    11.00000    0.03858    0.05529 =
         0.03850   -0.01941    0.01718   -0.00614
S1    5    1.257791    0.711586    0.506495    11.00000    0.02465    0.02279 =
         0.02514    0.00094    0.00473   -0.00264
O1    4    0.960462    0.107921    0.790033    11.00000    0.02566    0.04287 =
         0.04524    0.01773   -0.00422   -0.00289
O2    4    0.618185    0.218821    0.756326    11.00000    0.02038    0.02356 =
         0.02743   -0.00013    0.00093   -0.00476
N1    3    1.216254    0.411195    0.580059    11.00000    0.01903    0.02174 =
         0.02276   -0.00280    0.00202   -0.00197
AFIX   3
H1    2    1.351278    0.382131    0.547253    11.00000   -1.50000
AFIX   0
N2    3    0.769375    0.933206    0.633774    11.00000    0.03183    0.02689 =
         0.04588   -0.00161    0.00761    0.00045
C1    1    1.131016    0.576300    0.574998    11.00000    0.02088    0.02205 =
         0.02054   -0.00370   -0.00263   -0.00270
C2    1    0.933636    0.621630    0.632928    11.00000    0.02115    0.02062 =
         0.02105   -0.00418   -0.00127   -0.00215
C3    1    0.841613    0.507856    0.691793    11.00000    0.01854    0.02624 =
         0.01861   -0.00361   -0.00199   -0.00349
C4    1    0.940520    0.339018    0.691199    11.00000    0.01974    0.02300 =
         0.02210   -0.00148   -0.00193   -0.00347
C5    1    1.128857    0.292431    0.633409    11.00000    0.02081    0.02286 =
         0.02356   -0.00166   -0.00151   -0.00382
C6    1    1.246400    0.119914    0.619751    11.00000    0.02621    0.02057 =
         0.03480   -0.00076    0.00365   -0.00035
AFIX 137
H6A   2    1.177533    0.042023    0.661551    11.00000   -1.50000
H6B   2    1.409488    0.116296    0.624122    11.00000   -1.50000
H6C   2    1.229373    0.088127    0.564611    11.00000   -1.50000
AFIX   0
C7    1    0.841238    0.794676    0.632931    11.00000    0.02181    0.02468 =
         0.02414   -0.00227    0.00343   -0.00253
C8    1    0.651957    0.569347    0.756894    11.00000    0.02275    0.02053 =
         0.02085   -0.00351    0.00154   -0.00548
C9    1    0.689864    0.558961    0.839139    11.00000    0.02832    0.02576 =
         0.02231   -0.00217   -0.00157   -0.00282
AFIX  43
H9    2    0.833027    0.508103    0.853464    11.00000   -1.20000
AFIX   0
C10   1    0.519157    0.622668    0.900089    11.00000    0.03796    0.03099 =
         0.01996   -0.00357    0.00204   -0.00872
AFIX  43
H10   2    0.546000    0.618560    0.955932    11.00000   -1.20000
AFIX   0
C11   1    0.309208    0.692310    0.878612    11.00000    0.02931    0.02793 =
         0.02678   -0.00934    0.01004   -0.00720
C12   1    0.268754    0.706200    0.797372    11.00000    0.02360    0.02868 =
         0.03366   -0.00497    0.00101   -0.00306
AFIX  43
H12   2    0.124849    0.756532    0.783507    11.00000   -1.20000
AFIX   0
C13   1    0.441887    0.645384    0.736348    11.00000    0.02344    0.02950 =
         0.02246   -0.00442   -0.00003   -0.00520
AFIX  43
H13   2    0.417026    0.655657    0.680201    11.00000   -1.20000
AFIX   0
C14   1    0.844784    0.208971    0.751455    11.00000    0.02251    0.02451 =
         0.02566   -0.00115    0.00063   -0.00360
C15   1    0.508544    0.096479    0.813135    11.00000    0.02717    0.02791 =
         0.03052    0.00072    0.00369   -0.01131
AFIX  23
H15A  2    0.613993   -0.008778    0.815009    11.00000   -1.20000
H15B  2    0.368400    0.072368    0.792815    11.00000   -1.20000
AFIX   0
C16   1    0.447008    0.159859    0.898073    11.00000    0.06722    0.05271 =
         0.03367   -0.00702    0.01538   -0.02747
AFIX 137
H16A  2    0.368763    0.077725    0.934505    11.00000   -1.50000
H16B  2    0.345288    0.265314    0.896047    11.00000   -1.50000
H16C  2    0.586621    0.178100    0.919367    11.00000   -1.50000
AFIX   0
HKLF 4
REM  SKM194_0m_a.res in P-1
REM R1 =  0.0373 for    2591 Fo > 4sig(Fo)  and  0.0408 for all    2833 data
REM    201 parameters refined using      0 restraints
END
WGHT      0.0667      0.2083
REM Highest difference peak  0.303,  deepest hole -0.367,  1-sigma level  0.062
Q1    1   1.2021  0.6829  0.4374  11.00000  0.05    0.30
Q2    1   0.6654  0.1319  0.9434  11.00000  0.05    0.17
Q3    1   0.0459  0.7440  0.8785  11.00000  0.05    0.17
Q4    1   1.2728  0.7349  0.5889  11.00000  0.05    0.17
Q5    1   0.0852  0.8642  1.0215  11.00000  0.05    0.17
;
_shelx_res_checksum              98600
loop_
_space_group_symop_operation_xyz
'x, y, z'
'-x, -y, -z'
loop_
_atom_site_type_symbol
_atom_site_label
_atom_site_fract_x
_atom_site_fract_y
_atom_site_fract_z
_atom_site_U_iso_or_equiv
_atom_site_adp_type
_atom_site_calc_flag
_atom_site_occupancy
Cl Cl1 0.09171(9) 0.76572(7) 0.95570(3) 0.04561(17) Uani d 1
S S1 1.25779(7) 0.71159(5) 0.50649(2) 0.02518(14) Uani d 1
O O1 0.9605(2) 0.10792(18) 0.79003(9) 0.0391(3) Uani d 1
O O2 0.6182(2) 0.21882(14) 0.75633(7) 0.0241(3) Uani d 1
N N1 1.2163(2) 0.41120(16) 0.58006(8) 0.0217(3) Uani d 1
H H1 1.3513 0.3821 0.5473 0.032 Uiso d 1
N N2 0.7694(3) 0.93321(19) 0.63377(11) 0.0366(4) Uani d 1
C C1 1.1310(3) 0.5763(2) 0.57500(10) 0.0211(3) Uani d 1
C C2 0.9336(3) 0.62163(19) 0.63293(10) 0.0210(3) Uani d 1
C C3 0.8416(3) 0.5079(2) 0.69179(10) 0.0210(3) Uani d 1
C C4 0.9405(3) 0.3390(2) 0.69120(10) 0.0216(3) Uani d 1
C C5 1.1289(3) 0.2924(2) 0.63341(10) 0.0225(3) Uani d 1
C C6 1.2464(3) 0.1199(2) 0.61975(12) 0.0283(4) Uani d 1
H H6A 1.1775 0.0420 0.6616 0.042 Uiso calc 1
H H6B 1.4095 0.1163 0.6241 0.042 Uiso calc 1
H H6C 1.2294 0.0881 0.5646 0.042 Uiso calc 1
C C7 0.8412(3) 0.7947(2) 0.63293(10) 0.0242(4) Uani d 1
C C8 0.6520(3) 0.56935(19) 0.75689(10) 0.0215(3) Uani d 1
C C9 0.6899(3) 0.5590(2) 0.83914(10) 0.0257(4) Uani d 1
H H9 0.8330 0.5081 0.8535 0.031 Uiso calc 1
C C10 0.5192(3) 0.6227(2) 0.90009(11) 0.0298(4) Uani d 1
H H10 0.5460 0.6186 0.9559 0.036 Uiso calc 1
C C11 0.3092(3) 0.6923(2) 0.87861(11) 0.0287(4) Uani d 1
C C12 0.2688(3) 0.7062(2) 0.79737(11) 0.0290(4) Uani d 1
H H12 0.1248 0.7565 0.7835 0.035 Uiso calc 1
C C13 0.4419(3) 0.6454(2) 0.73635(10) 0.0251(4) Uani d 1
H H13 0.4170 0.6557 0.6802 0.030 Uiso calc 1
C C14 0.8448(3) 0.2090(2) 0.75146(10) 0.0246(4) Uani d 1
C C15 0.5085(3) 0.0965(2) 0.81314(11) 0.0287(4) Uani d 1
H H15A 0.6140 -0.0088 0.8150 0.034 Uiso calc 1
H H15B 0.3684 0.0724 0.7928 0.034 Uiso calc 1
C C16 0.4470(5) 0.1599(3) 0.89807(13) 0.0514(6) Uani d 1
H H16A 0.3688 0.0777 0.9345 0.077 Uiso calc 1
H H16B 0.3453 0.2653 0.8960 0.077 Uiso calc 1
H H16C 0.5866 0.1781 0.9194 0.077 Uiso calc 1
loop_
_atom_site_aniso_label
_atom_site_aniso_U_11
_atom_site_aniso_U_22
_atom_site_aniso_U_33
_atom_site_aniso_U_12
_atom_site_aniso_U_13
_atom_site_aniso_U_23
Cl1 0.0386(3) 0.0553(3) 0.0385(3) -0.0061(2) 0.0172(2) -0.0194(2)
S1 0.0246(2) 0.0228(2) 0.0251(2) -0.00264(15) 0.00473(17) 0.00094(15)
O1 0.0257(7) 0.0429(8) 0.0452(8) -0.0029(5) -0.0042(6) 0.0177(6)
O2 0.0204(6) 0.0236(6) 0.0274(6) -0.0048(4) 0.0009(5) -0.0001(5)
N1 0.0190(7) 0.0217(7) 0.0228(7) -0.0020(5) 0.0020(6) -0.0028(5)
N2 0.0318(9) 0.0269(8) 0.0459(10) 0.0004(6) 0.0076(7) -0.0016(7)
C1 0.0209(8) 0.0221(8) 0.0205(7) -0.0027(6) -0.0026(6) -0.0037(6)
C2 0.0211(8) 0.0206(8) 0.0210(7) -0.0022(6) -0.0013(6) -0.0042(6)
C3 0.0185(8) 0.0262(8) 0.0186(7) -0.0035(6) -0.0020(6) -0.0036(6)
C4 0.0197(8) 0.0230(8) 0.0221(7) -0.0035(6) -0.0019(6) -0.0015(6)
C5 0.0208(8) 0.0229(8) 0.0236(8) -0.0038(6) -0.0015(7) -0.0017(6)
C6 0.0262(9) 0.0206(8) 0.0348(9) -0.0003(6) 0.0036(7) -0.0008(7)
C7 0.0218(9) 0.0247(9) 0.0241(8) -0.0025(6) 0.0034(7) -0.0023(6)
C8 0.0227(8) 0.0205(8) 0.0209(8) -0.0055(6) 0.0015(6) -0.0035(6)
C9 0.0283(9) 0.0258(8) 0.0223(8) -0.0028(6) -0.0016(7) -0.0022(6)
C10 0.0380(10) 0.0310(9) 0.0200(8) -0.0087(7) 0.0020(7) -0.0036(7)
C11 0.0293(10) 0.0279(9) 0.0268(8) -0.0072(7) 0.0100(7) -0.0093(7)
C12 0.0236(9) 0.0287(9) 0.0337(9) -0.0031(6) 0.0010(7) -0.0050(7)
C13 0.0234(9) 0.0295(9) 0.0225(8) -0.0052(6) 0.0000(7) -0.0044(6)
C14 0.0225(9) 0.0245(8) 0.0257(8) -0.0036(6) 0.0006(7) -0.0011(6)
C15 0.0272(9) 0.0279(9) 0.0305(9) -0.0113(7) 0.0037(7) 0.0007(7)
C16 0.0672(16) 0.0527(13) 0.0337(11) -0.0275(12) 0.0154(11) -0.0070(10)
loop_
_atom_type_symbol
_atom_type_description
_atom_type_scat_dispersion_real
_atom_type_scat_dispersion_imag
_atom_type_scat_source
C C 0.0181 0.0091 'International Tables Vol C Tables 4.2.6.8 and 6.1.1.4'
H H 0.0000 0.0000 'International Tables Vol C Tables 4.2.6.8 and 6.1.1.4'
N N 0.0311 0.0180 'International Tables Vol C Tables 4.2.6.8 and 6.1.1.4'
O O 0.0492 0.0322 'International Tables Vol C Tables 4.2.6.8 and 6.1.1.4'
S S 0.3331 0.5567 'International Tables Vol C Tables 4.2.6.8 and 6.1.1.4'
Cl Cl 0.3639 0.7018 'International Tables Vol C Tables 4.2.6.8 and 6.1.1.4'
loop_
_geom_angle_atom_site_label_1
_geom_angle_atom_site_label_2
_geom_angle_atom_site_label_3
_geom_angle
C14 O2 C15 115.95(13)
C5 N1 C1 126.21(14)
C5 N1 H1 118.0
C1 N1 H1 115.5
N1 C1 C2 114.40(14)
N1 C1 S1 121.52(13)
C2 C1 S1 124.07(12)
C3 C2 C1 122.33(14)
C3 C2 C7 120.41(15)
C1 C2 C7 117.08(14)
C2 C3 C4 118.89(14)
C2 C3 C8 119.03(14)
C4 C3 C8 121.95(14)
C5 C4 C3 119.21(15)
C5 C4 C14 119.27(14)
C3 C4 C14 121.52(14)
N1 C5 C4 118.84(15)
N1 C5 C6 114.21(14)
C4 C5 C6 126.90(15)
C5 C6 H6A 109.5
C5 C6 H6B 109.5
H6A C6 H6B 109.5
C5 C6 H6C 109.5
H6A C6 H6C 109.5
H6B C6 H6C 109.5
N2 C7 C2 179.0(2)
C13 C8 C9 119.50(16)
C13 C8 C3 121.05(14)
C9 C8 C3 119.35(15)
C10 C9 C8 120.20(17)
C10 C9 H9 119.9
C8 C9 H9 119.9
C11 C10 C9 119.25(16)
C11 C10 H10 120.4
C9 C10 H10 120.4
C12 C11 C10 121.55(17)
C12 C11 Cl1 119.24(15)
C10 C11 Cl1 119.20(14)
C11 C12 C13 118.94(17)
C11 C12 H12 120.5
C13 C12 H12 120.5
C12 C13 C8 120.49(16)
C12 C13 H13 119.8
C8 C13 H13 119.8
O1 C14 O2 124.50(16)
O1 C14 C4 123.73(16)
O2 C14 C4 111.76(13)
O2 C15 C16 110.94(14)
O2 C15 H15A 109.5
C16 C15 H15A 109.5
O2 C15 H15B 109.5
C16 C15 H15B 109.5
H15A C15 H15B 108.0
C15 C16 H16A 109.5
C15 C16 H16B 109.5
H16A C16 H16B 109.5
C15 C16 H16C 109.5
H16A C16 H16C 109.5
H16B C16 H16C 109.5
loop_
_geom_bond_atom_site_label_1
_geom_bond_atom_site_label_2
_geom_bond_distance
Cl1 C11 1.7422(17)
S1 C1 1.6814(17)
O1 C14 1.204(2)
O2 C14 1.331(2)
O2 C15 1.4620(19)
N1 C5 1.357(2)
N1 C1 1.367(2)
N1 H1 0.9099
N2 C7 1.146(2)
C1 C2 1.420(2)
C2 C3 1.390(2)
C2 C7 1.435(2)
C3 C4 1.415(2)
C3 C8 1.491(2)
C4 C5 1.384(2)
C4 C14 1.502(2)
C5 C6 1.492(2)
C6 H6A 0.9800
C6 H6B 0.9800
C6 H6C 0.9800
C8 C13 1.395(2)
C8 C9 1.395(2)
C9 C10 1.387(3)
C9 H9 0.9500
C10 C11 1.385(3)
C10 H10 0.9500
C11 C12 1.383(3)
C12 C13 1.389(3)
C12 H12 0.9500
C13 H13 0.9500
C15 C16 1.494(3)
C15 H15A 0.9900
C15 H15B 0.9900
C16 H16A 0.9800
C16 H16B 0.9800
C16 H16C 0.9800
loop_
_geom_hbond_atom_site_label_D
_geom_hbond_atom_site_label_H
_geom_hbond_atom_site_label_A
_geom_hbond_site_symmetry_A
_geom_hbond_distance_DH
_geom_hbond_distance_HA
_geom_hbond_distance_DA
_geom_hbond_angle_DHA
N1 H1 S1 2_866 0.91 2.40 3.2911(14) 166
C6 H6A O1 . 0.98 2.36 3.047(2) 127
C6 H6B N2 1_645 0.98 2.45 3.305(2) 145
C15 H15B O1 1_455 0.99 2.41 3.327(2) 153
loop_
_geom_torsion_atom_site_label_1
_geom_torsion_atom_site_label_2
_geom_torsion_atom_site_label_3
_geom_torsion_atom_site_label_4
_geom_torsion
C5 N1 C1 C2 0.7(2)
C5 N1 C1 S1 179.31(12)
N1 C1 C2 C3 2.4(2)
S1 C1 C2 C3 -176.18(12)
N1 C1 C2 C7 177.60(14)
S1 C1 C2 C7 -1.0(2)
C1 C2 C3 C4 -3.5(2)
C7 C2 C3 C4 -178.47(14)
C1 C2 C3 C8 172.56(14)
C7 C2 C3 C8 -2.4(2)
C2 C3 C4 C5 1.4(2)
C8 C3 C4 C5 -174.47(14)
C2 C3 C4 C14 -178.12(14)
C8 C3 C4 C14 6.0(2)
C1 N1 C5 C4 -2.6(2)
C1 N1 C5 C6 174.96(15)
C3 C4 C5 N1 1.4(2)
C14 C4 C5 N1 -179.01(14)
C3 C4 C5 C6 -175.77(15)
C14 C4 C5 C6 3.8(3)
C2 C3 C8 C13 62.4(2)
C4 C3 C8 C13 -121.73(17)
C2 C3 C8 C9 -114.02(17)
C4 C3 C8 C9 61.9(2)
C13 C8 C9 C10 0.5(2)
C3 C8 C9 C10 176.94(15)
C8 C9 C10 C11 1.8(3)
C9 C10 C11 C12 -2.7(3)
C9 C10 C11 Cl1 177.79(13)
C10 C11 C12 C13 1.4(3)
Cl1 C11 C12 C13 -179.14(13)
C11 C12 C13 C8 0.9(3)
C9 C8 C13 C12 -1.9(2)
C3 C8 C13 C12 -178.24(15)
C15 O2 C14 O1 0.1(2)
C15 O2 C14 C4 179.63(13)
C5 C4 C14 O1 47.2(2)
C3 C4 C14 O1 -133.26(19)
C5 C4 C14 O2 -132.40(16)
C3 C4 C14 O2 47.2(2)
C14 O2 C15 C16 88.8(2)

_cod_database_fobs_code 1543041
