#------------------------------------------------------------------------------
#$Date: 2017-02-04 15:19:30 +0200 (Sat, 04 Feb 2017) $
#$Revision: 191453 $
#$URL: file:///home/coder/svn-repositories/cod/cif/1/54/47/1544776.cif $
#------------------------------------------------------------------------------
#
# This file is available in the Crystallography Open Database (COD),
# http://www.crystallography.net/
#
# All data on this site have been placed in the public domain by the
# contributors.
#
data_1544776
loop_
_publ_author_name
'Su, Wei'
'Younus, Hussein A.'
'Zhou, Kui'
'Khattak, Zafar A. K.'
'Chaemcheun, Somboon'
'Chen, Cheng'
'Verpoort, Francis'
_publ_section_title
;
 Chemical and photochemical water oxidation catalyzed by novel ruthenium
 complexes comprising a negatively charged NCNHCO ligand
;
_journal_issue                   2
_journal_name_full               'Catal. Sci. Technol.'
_journal_page_first              387
_journal_paper_doi               10.1039/C6CY02333A
_journal_volume                  7
_journal_year                    2017
_chemical_formula_moiety         '2(C19 H23 Cl N4 O3 Ru S), 3(C H2 Cl2)'
_chemical_formula_sum            'C41 H52 Cl8 N8 O6 Ru2 S2'
_chemical_formula_weight         1302.76
_chemical_name_common            RuCl(NCO)(DMSO)(Pic)
_chemical_name_systematic        'Ru WOCs'
_chemical_properties_physical
', Moisture-sensitive,Hygroscopic,Oxygen-sensitive'
_space_group_crystal_system      monoclinic
_space_group_IT_number           15
_space_group_name_Hall           '-C 2yc'
_space_group_name_H-M_alt        'C 1 2/c 1'
_symmetry_space_group_name_Hall  '-C 2yc'
_symmetry_space_group_name_H-M   'C 1 2/c 1'
_atom_sites_solution_hydrogens   geom
_audit_creation_date             2016-09-30
_audit_creation_method
;
Olex2 1.2
(compiled 2016.09.09 svn.r3337 for OlexSys, GUI svn.r5227)
;
_audit_update_record
;
2016-10-02 deposited with the CCDC.
2016-12-12 downloaded from the CCDC.
;
_cell_angle_alpha                90
_cell_angle_beta                 147.193(8)
_cell_angle_gamma                90
_cell_formula_units_Z            4
_cell_length_a                   31.425(6)
_cell_length_b                   9.0156(18)
_cell_length_c                   34.410(5)
_cell_measurement_reflns_used    9898
_cell_measurement_temperature    297
_cell_measurement_theta_max      29.49
_cell_measurement_theta_min      2.35
_cell_volume                     5282(2)
_computing_cell_refinement       'Bruker SAINT'
_computing_data_collection       'Bruker APEX2'
_computing_data_reduction        'Bruker SAINT'
_computing_molecular_graphics    'Olex2 (Dolomanov et al., 2009)'
_computing_publication_material  'Olex2 (Dolomanov et al., 2009)'
_computing_structure_refinement  'ShelXL (Sheldrick, 2015)'
_computing_structure_solution    'SHELXS-97 (Sheldrick, 1990)'
_diffrn_ambient_temperature      297
_diffrn_measured_fraction_theta_full 0.990
_diffrn_measured_fraction_theta_max 0.991
_diffrn_measurement_device_type  'Bruker APEX-II CCD'
_diffrn_measurement_method       '\f and \w scans'
_diffrn_radiation_type           MoK\a
_diffrn_radiation_wavelength     0.71073
_diffrn_reflns_av_R_equivalents  0.0270
_diffrn_reflns_av_unetI/netI     0.0263
_diffrn_reflns_Laue_measured_fraction_full 0.990
_diffrn_reflns_Laue_measured_fraction_max 0.991
_diffrn_reflns_limit_h_max       38
_diffrn_reflns_limit_h_min       -38
_diffrn_reflns_limit_k_max       10
_diffrn_reflns_limit_k_min       -11
_diffrn_reflns_limit_l_max       42
_diffrn_reflns_limit_l_min       -42
_diffrn_reflns_number            19249
_diffrn_reflns_point_group_measured_fraction_full 0.990
_diffrn_reflns_point_group_measured_fraction_max 0.991
_diffrn_reflns_theta_full        25.242
_diffrn_reflns_theta_max         25.997
_diffrn_reflns_theta_min         1.308
_exptl_absorpt_coefficient_mu    1.107
_exptl_absorpt_correction_T_max  0.8974
_exptl_absorpt_correction_T_min  0.8787
_exptl_absorpt_correction_type   multi-scan
_exptl_absorpt_process_details
'SADABS-2008/1 (Bruker,2008) was used for absorption correction.'
_exptl_crystal_colour            yellow
_exptl_crystal_colour_primary    yellow
_exptl_crystal_density_diffrn    1.638
_exptl_crystal_density_method    'not measured'
_exptl_crystal_description       block
_exptl_crystal_F_000             2632
_exptl_crystal_size_max          0.12
_exptl_crystal_size_mid          0.1
_exptl_crystal_size_min          0.1
_refine_diff_density_max         1.198
_refine_diff_density_min         -1.320
_refine_diff_density_rms         0.106
_refine_ls_extinction_method     none
_refine_ls_goodness_of_fit_ref   1.233
_refine_ls_hydrogen_treatment    constr
_refine_ls_matrix_type           full
_refine_ls_number_parameters     306
_refine_ls_number_reflns         5148
_refine_ls_number_restraints     0
_refine_ls_restrained_S_all      1.233
_refine_ls_R_factor_all          0.0683
_refine_ls_R_factor_gt           0.0636
_refine_ls_shift/su_max          0.001
_refine_ls_shift/su_mean         0.000
_refine_ls_structure_factor_coef Fsqd
_refine_ls_weighting_details
'w=1/[\s^2^(Fo^2^)+(0.0314P)^2^+55.0782P] where P=(Fo^2^+2Fc^2^)/3'
_refine_ls_weighting_scheme      calc
_refine_ls_wR_factor_gt          0.1487
_refine_ls_wR_factor_ref         0.1517
_reflns_Friedel_coverage         0.000
_reflns_number_gt                4704
_reflns_number_total             5148
_reflns_threshold_expression     'I > 2\s(I)'
_cod_data_source_file            c6cy02333a2.cif
_cod_data_source_block           mo_160912d_0m
_cod_depositor_comments          'Adding full bibliography for 1544776.cif.'
_cod_database_code               1544776
_shelx_space_group_comment
;
The symmetry employed for this shelxl refinement is uniquely defined
by the following loop, which should always be used as a source of
symmetry information in preference to the above space-group names.
They are only intended as comments.
;
_shelx_estimated_absorpt_t_max   0.897
_shelx_estimated_absorpt_t_min   0.879
_olex2_refinement_description
;
1. Fixed Uiso
 At 1.2 times of:
  All C(H) groups, All C(H,H) groups
 At 1.5 times of:
  All C(H,H,H) groups
2. Others
 Fixed Sof: H21A(0.5) H21B(0.5)
3.a Secondary CH2 refined with riding coordinates:
 C4(H4A,H4B), C10(H10A,H10B), C20(H20A,H20B), C21(H21A,H21B)
3.b Aromatic/amide H refined with riding coordinates:
 C2(H2), C3(H3), C6(H6), C7(H7), C8(H8), C9(H9), C14(H14), C15(H15), C17(H17),
 C18(H18)
3.c Idealised Me refined as rotating group:
 C12(H12A,H12B,H12C), C13(H13A,H13B,H13C), C19(H19A,H19B,H19C)
;
_shelx_res_file
;
    mo_160912d_0m.res created by SHELXL-2014/7

TITL 160912d IN C2/c
CELL 0.71073 31.425 9.0156 34.41 90 147.193 90
ZERR 4 0.006 0.0018 0.005 0 0.008 0
LATT 7
SYMM -X,+Y,0.5-Z
SFAC C H Cl N O Ru S
UNIT 164 208 32 32 24 8 8

L.S. 40
PLAN  20
SIZE 0.1 0.1 0.12
TEMP 23.85
BOND $H
HTAB
CONF
fmap 2
acta
OMIT -3 52
OMIT -8 0 12
OMIT -10 0 14
OMIT -9 7 3
OMIT 2 6 2
OMIT -1 5 9
OMIT -7 7 13
OMIT -4 6 4
OMIT -2 6 12
OMIT -7 5 5
OMIT -6 2 1
OMIT -8 6 6
OMIT -15 5 19
OMIT -3 3 2
OMIT -8 2 7
OMIT -5 7 1
OMIT 1 5 5
OMIT -6 6 2
OMIT -7 7 3
OMIT -3 5 11
OMIT -19 1 9
OMIT -6 0 10
OMIT 2 6 8
OMIT 0 6 0
OMIT -1 5 1
OMIT -17 7 17
OMIT 5 7 7
OMIT 3 5 5
OMIT 0 2 3
OMIT -11 7 17
OMIT -12 8 18
OMIT -5 5 5
REM <olex2.extras>
REM <HklSrc "%.\\mo_160912d_0m.hkl">
REM </olex2.extras>

WGHT    0.031400   55.078197
FVAR       0.14739
RU1   6    0.438184    0.212192    0.567658    11.00000    0.03423    0.03335 =
         0.03937    0.00081    0.03062    0.00000
CL1   3    0.560962    0.079311    0.639652    11.00000    0.04703    0.05119 =
         0.06926    0.00703    0.04822    0.00957
S1    7    0.489780    0.222024    0.666634    11.00000    0.03651    0.05542 =
         0.03590   -0.00101    0.02827   -0.00388
O1    5    0.387599    0.005896    0.543583    11.00000    0.04013    0.03379 =
         0.04819    0.00333    0.03505    0.00000
O2    5    0.290069   -0.149233    0.479299    11.00000    0.05989    0.03820 =
         0.09152   -0.00164    0.05865   -0.00704
O3    5    0.446048    0.294209    0.665138    11.00000    0.05960    0.08628 =
         0.05356   -0.00683    0.04830   -0.00102
N0AA  4    0.385305    0.188423    0.471281    11.00000    0.04584    0.02853 =
         0.04971    0.00012    0.04152   -0.00027
N1    4    0.478998    0.419016    0.580363    11.00000    0.04156    0.03698 =
         0.04212   -0.00041    0.03429   -0.00301
N2    4    0.334197    0.453568    0.515291    11.00000    0.04378    0.03837 =
         0.04748    0.00264    0.03885    0.00436
N3    4    0.271224    0.247911    0.461977    11.00000    0.03766    0.02903 =
         0.04207    0.00474    0.03379    0.00272
C1    1    0.342658    0.310115    0.512634    11.00000    0.04233    0.03117 =
         0.03845    0.00009    0.03499   -0.00097
C2    1    0.218368    0.354422    0.433864    11.00000    0.03959    0.05948 =
         0.05441    0.00824    0.03911    0.00732
AFIX  43
H2    2    0.165333    0.339268    0.398260    11.00000   -1.20000
AFIX   0
C3    1    0.257145    0.483538    0.467053    11.00000    0.05318    0.05045 =
         0.06373    0.01301    0.05108    0.01511
AFIX  43
H3    2    0.236705    0.574188    0.459368    11.00000   -1.20000
AFIX   0
C4    1    0.400588    0.554528    0.569307    11.00000    0.05669    0.03859 =
         0.05358   -0.00051    0.04626    0.00236
AFIX  23
H4A   2    0.430971    0.528901    0.615510    11.00000   -1.20000
H4B   2    0.380991    0.654669    0.557758    11.00000   -1.20000
AFIX   0
C5    1    0.453891    0.551229    0.575110    11.00000    0.04221    0.03872 =
         0.03885   -0.00356    0.03144   -0.00780
C6    1    0.477756    0.684537    0.577427    11.00000    0.05395    0.03359 =
         0.06140   -0.00031    0.04470   -0.00395
AFIX  43
H6    2    0.460013    0.773344    0.574390    11.00000   -1.20000
AFIX   0
C7    1    0.527120    0.686589    0.584136    11.00000    0.06801    0.05412 =
         0.08522    0.00095    0.06327   -0.01460
AFIX  43
H7    2    0.544072    0.775761    0.586459    11.00000   -1.20000
AFIX   0
C8    1    0.551041    0.553517    0.587357    11.00000    0.05519    0.06207 =
         0.07500    0.00321    0.05457   -0.00664
AFIX  43
H8    2    0.583407    0.551434    0.590437    11.00000   -1.20000
AFIX   0
C9    1    0.526920    0.421557    0.586021    11.00000    0.04945    0.05104 =
         0.06503    0.00047    0.04828   -0.00398
AFIX  43
H9    2    0.544446    0.332180    0.589136    11.00000   -1.20000
AFIX   0
C10   1    0.251698    0.095083    0.437782    11.00000    0.04010    0.03936 =
         0.04469    0.00115    0.03358   -0.00266
AFIX  23
H10A  2    0.234937    0.091772    0.397989    11.00000   -1.20000
H10B  2    0.206841    0.067118    0.419109    11.00000   -1.20000
AFIX   0
C11   1    0.315066   -0.023198    0.491945    11.00000    0.04505    0.04107 =
         0.04712   -0.00057    0.03866    0.00058
C12   1    0.513497    0.040413    0.701724    11.00000    0.08980    0.06162 =
         0.07067    0.01679    0.06645    0.01299
AFIX 137
H12A  2    0.544844    0.047650    0.748898    11.00000   -1.50000
H12B  2    0.542420   -0.011483    0.704210    11.00000   -1.50000
H12C  2    0.465993   -0.012674    0.670951    11.00000   -1.50000
AFIX   0
C13   1    0.585536    0.300140    0.741012    11.00000    0.04646    0.12358 =
         0.04751   -0.01656    0.03203   -0.02251
AFIX 137
H13A  2    0.582778    0.402895    0.731707    11.00000   -1.50000
H13B  2    0.618580    0.248140    0.748338    11.00000   -1.50000
H13C  2    0.607003    0.291603    0.783191    11.00000   -1.50000
AFIX   0
C14   1    0.396680    0.065401    0.458873    11.00000    0.05843    0.03961 =
         0.06001   -0.00376    0.05030    0.00163
AFIX  43
H14   2    0.432051   -0.005150    0.495104    11.00000   -1.20000
AFIX   0
C15   1    0.358435    0.038745    0.395014    11.00000    0.07675    0.05221 =
         0.07246   -0.01346    0.06566   -0.00670
AFIX  43
H15   2    0.369359   -0.047220    0.389473    11.00000   -1.20000
AFIX   0
C16   1    0.304280    0.137931    0.339391    11.00000    0.05301    0.07029 =
         0.05255   -0.01315    0.04543   -0.01245
C17   1    0.292504    0.264205    0.352106    11.00000    0.05824    0.06194 =
         0.05224    0.00433    0.04724   -0.00177
AFIX  43
H17   2    0.256848    0.335638    0.316436    11.00000   -1.20000
AFIX   0
C18   1    0.333479    0.284529    0.417527    11.00000    0.06067    0.04664 =
         0.05874    0.00531    0.05279    0.00422
AFIX  43
H18   2    0.324342    0.370913    0.424576    11.00000   -1.20000
AFIX   0
C19   1    0.260171    0.112416    0.268266    11.00000    0.08767    0.12107 =
         0.06540   -0.01405    0.06439   -0.00573
AFIX 137
H19A  2    0.296087    0.116068    0.274350    11.00000   -1.50000
H19B  2    0.220953    0.188003    0.235069    11.00000   -1.50000
H19C  2    0.235314    0.016887    0.249973    11.00000   -1.50000
AFIX   0

CL2   3    0.305805    0.670019    0.387283    11.00000    0.17176    0.09111 =
         0.12882    0.02665    0.11030    0.01918
CL3   3    0.161393    0.824535    0.271516    11.00000    0.18073    0.28294 =
         0.16310    0.08793    0.14047    0.11026
C20   1    0.214751    0.699685    0.334636    11.00000    0.14227    0.29226 =
         0.17741    0.05658    0.13501    0.06004
AFIX  23
H20A  2    0.186512    0.606289    0.312165    11.00000   -1.20000
H20B  2    0.219222    0.728250    0.365155    11.00000   -1.20000
AFIX   0

CL4   3    0.086221    0.794366    0.320627    11.00000    0.19930    0.19881 =
         0.26375   -0.07277    0.20040   -0.04681
C21   1    0.000000    0.895969    0.250000    10.50000    0.10026    0.16419 =
         0.05651    0.00000    0.02584    0.00000
AFIX  23
H21A  2    0.004757    0.959706    0.231063    10.50000   -1.20000
H21B  2   -0.004758    0.959697    0.268938    10.50000   -1.20000
AFIX   0
HKLF 4 1 1 0 0 0 -1 0 -1 0 -1

REM  160912d IN C2/c
REM R1 =  0.0636 for    4704 Fo > 4sig(Fo)  and  0.0683 for all    5148 data
REM    306 parameters refined using      0 restraints

END

WGHT      0.0313     55.1142

REM Instructions for potential hydrogen bonds
EQIV $1 -x+1/2, -y+1/2, -z+1
HTAB C2 O3_$1
HTAB C4 S1
HTAB C4 O3
EQIV $2 x, y+1, z
HTAB C4 O2_$2
HTAB C6 O1_$2
HTAB C9 Cl1
HTAB C12 Cl1
EQIV $3 x+1/2, -y+3/2, z+1/2
HTAB C13 Cl3_$3
HTAB C13 Cl1
HTAB C14 Cl1
HTAB C18 Cl2
HTAB C20 O2_$2
EQIV $4 x-1/2, -y+3/2, z-1/2
HTAB C21 O3_$4
EQIV $5 -x+1/2, -y+3/2, -z+1
HTAB C21 O3_$5

REM Highest difference peak  1.198,  deepest hole -1.320,  1-sigma level  0.106
Q1    1   0.4313  0.2901  0.5577  11.00000  0.05    1.20
Q2    1   0.4396  0.4273  0.5706  11.00000  0.05    0.75
Q3    1   0.4386  0.0662  0.5664  11.00000  0.05    0.59
Q4    1   0.1693  0.6864  0.2770  11.00000  0.05    0.54
Q5    1   0.3914  0.1884  0.5257  11.00000  0.05    0.51
Q6    1   0.1508  0.7943  0.3960  11.00000  0.05    0.46
Q7    1   0.5599  0.4095  0.6356  11.00000  0.05    0.45
Q8    1   0.0711  0.7754  0.2729  11.00000  0.05    0.40
Q9    1  -0.0604  0.8456  0.2482  11.00000  0.05    0.40
Q10   1   0.4886  0.4278  0.6690  11.00000  0.05    0.40
Q11   1   0.4805  0.0781  0.6600  11.00000  0.05    0.39
Q12   1   0.4009  0.2452  0.5614  11.00000  0.05    0.37
Q13   1   0.1607  0.7518  0.3090  11.00000  0.05    0.36
Q14   1   0.5679  0.1303  0.6304  11.00000  0.05    0.36
Q15   1   0.5613  0.5651  0.6394  11.00000  0.05    0.36
Q16   1   0.4792  0.2399  0.5798  11.00000  0.05    0.36
Q17   1   0.2690  0.8028  0.3737  11.00000  0.05    0.35
Q18   1   0.5593 -0.0683  0.6384  11.00000  0.05    0.34
Q19   1   0.2907  0.6759  0.4753  11.00000  0.05    0.34
Q20   1   0.5201  0.2888  0.6834  11.00000  0.05    0.34
;
_shelx_res_checksum              91237
_shelx_hkl_file
;
  -2   0   0 374.593  11.973   1
   2   0   0 383.677  12.040   3
   4   0   0 6341.12  212.82   3
  -4   0   0 6852.76  210.82   1
   4   0   0 6426.41  213.49   2
   6   0   0 75.9433  2.6329   3
  -6   0   0 76.6710  2.6425   1
   6   0   0 76.4452  2.6144   2
  -8   0   0 658.981  20.161   1
   8   0   0 639.556  20.566   2
   8   0   0 653.724  20.397   3
  10   0   0 139.165   4.682   2
 -10   0   0 132.114   4.679   1
  10   0   0 135.845   4.693   3
  12   0   0 68.1225  2.5940   2
  12   0   0 64.0403  2.6022   3
 -12   0   0 69.0946  2.6719   1
  14   0   0 32.6787  1.7391   3
  14   0   0 44.7139  1.8407   2
  16   0   0 825.975  26.564   2
  16   0   0 814.662  26.309   3
 -16   0   0 859.373  26.098   1
  18   0   0 41.9486  2.1490   2
 -18   0   0 42.6455  2.2964   1
  18   0   0 44.8205  2.2195   3
  20   0   0 1280.11   40.82   2
  20   0   0 1268.56   40.40   3
 -20   0   0 1308.15   40.02   1
  22   0   0 427.585  13.977   2
 -22   0   0 408.176  13.762   1
  22   0   0 414.547  13.852   3
  24   0   0 280.314   9.843   3
  24   0   0 295.647   9.954   2
 -24   0   0 269.820   9.783   1
  26   0   0 110.923   4.633   3
 -26   0   0 103.704   4.598   1
  26   0   0 102.040   4.477   2
  28   0   0 19.8016  2.0691   3
 -28   0   0 16.5493  2.0099   1
  28   0   0 17.9021  1.9651   2
  30   0   0 26.4741  2.4735   3
  30   0   0 24.2081  2.2678   2
 -30   0   0 23.8375  2.2327   1
 -32   0   0 66.0375  3.7498   1
  32   0   0 64.7071  3.6806   2
  32   0   0 67.5486  3.7612   3
  34   0   0 24.0923  2.6838   3
 -34   0   0 20.8035  2.4255   1
  34   0   0 21.7456  2.5090   2
  36   0   0 21.5536  2.6714   3
 -36   0   0 19.6097  2.5695   1
 -38   0   0 62.1083  4.0792   1
  38   0   0 75.3396  4.3429   3
 -40   0   0 6.34460 2.03638   1
  40   0   0 7.84347 2.40969   3
  -1  -1   0 3342.49  102.09   1
   1  -1   0 3317.61  102.32   1
   1  -1   0 3389.35  103.78   3
   1  -1   0 3338.54  105.24   2
   3  -1   0 737.260  22.369   3
  -3  -1   0 712.954  22.139   1
   3   1   0 716.630  22.649   2
   5  -1   0 1456.71   46.82   2
   5  -1   0 1477.06   46.40   3
  -5  -1   0 1502.08   45.81   1
   5   1   0 1500.11   46.95   2
   5   1   0 1507.43   46.64   3
   7  -1   0 883.382  28.102   2
   7  -1   0 905.545  27.662   3
  -7  -1   0 868.688  27.339   1
  -7   1   0 913.110  27.501   1
   7   1   0 900.951  28.091   2
   7   1   0 876.771  27.864   3
   9  -1   0 43.5849  1.8841   2
  -9  -1   0 42.2838  1.7236   1
   9  -1   0 47.2704  1.7665   3
   9   1   0 42.6793  1.9390   3
  -9   1   0 43.1279  1.9342   1
   9   1   0 45.0942  1.7027   2
  11  -1   0 5.47207 0.66973   3
  11  -1   0 2.29664 0.57894   2
 -11   1   0 0.35183 0.46237   1
  11   1   0 2.62134 0.47579   2
  13  -1   0 655.504  20.446   2
  13  -1   0 550.659  20.002   3
 -13  -1   0 658.488  19.858   1
 -13   1   0 646.734  20.085   1
  13   1   0 653.113  20.237   2
  13   1   0 652.979  20.310   3
  15  -1   0 1.75471 0.66717   3
  15  -1   0 1.80060 0.70543   2
  15   1   0 0.36512 0.49400   2
  15   1   0 2.38354 0.74784   3
 -15   1   0 0.39670 0.67225   1
 -17  -1   0 744.297  23.021   1
  17  -1   0 721.390  23.263   3
  17  -1   0 728.912  23.662   2
  17   1   0 737.935  23.479   3
  17   1   0 750.654  23.457   2
 -17   1   0 720.322  23.232   1
  19  -1   0 116.859   4.520   3
  19  -1   0 118.975   4.701   2
 -19  -1   0 121.243   4.543   1
  19   1   0 122.658   4.757   3
  19   1   0 117.966   4.443   2
 -19   1   0 114.968   4.788   1
  21  -1   0 1112.76   35.06   2
 -21  -1   0 1104.76   34.09   1
  21  -1   0 1076.92   34.49   3
 -21   1   0 1106.89   34.35   1
  21   1   0 1088.17   34.77   2
  21   1   0 1067.89   34.65   3
 -23  -1   0 3.70874 1.11783   1
  23  -1   0 2.46770 1.22202   3
  23  -1   0 3.76415 1.28190   2
 -23   1   0 3.90253 1.30187   1
  23   1   0 1.67811 1.10794   3
  23   1   0 1.82948 0.98621   2
 -25  -1   0 477.583  15.597   1
  25  -1   0 477.805  16.090   2
  25  -1   0 484.686  15.780   3
  25   1   0 460.009  15.840   3
 -25   1   0 470.142  15.839   1
  25   1   0 477.162  15.816   2
  27  -1   0 15.9056  1.9390   3
 -27  -1   0 14.7681  1.7813   1
  27  -1   0 15.1533  1.8686   2
 -27   1   0 11.7295  1.8733   1
  27   1   0 14.0474  1.8760   3
  27   1   0 15.7205  1.7247   2
 -29  -1   0 64.3226  3.4383   1
  29  -1   0 69.1465  3.5921   3
  29  -1   0 67.8268  3.5816   2
  29   1   0 62.8740  3.5890   3
 -29   1   0 62.2768  3.5850   1
  29   1   0 63.7877  3.3065   2
  31  -1   0 2.73899 1.60029   3
 -31  -1   0 2.97024 1.39954   1
  31  -1   0 4.05986 1.54560   2
  31   1   0 2.79648 1.57575   3
  31   1   0 2.31572 1.36907   2
 -31   1   0 4.28677 1.61277   1
 -33  -1   0 86.2959  4.3001   1
  33  -1   0 89.6498  4.5052   3
  33  -1   0 88.2163  4.5008   2
 -33   1   0 87.0014  4.5338   1
  33   1   0 85.7857  4.4689   3
  35  -1   0 4.61717 1.80836   2
  35  -1   0 2.55218 1.68900   3
 -35  -1   0 2.52244 1.53873   1
  35   1   0 4.12962 1.89593   3
 -35   1   0 2.93078 1.71456   1
  37  -1   0 37.4458  3.3129   3
  37   1   0 35.6152  3.1727   3
 -37   1   0 36.1993  3.2112   1
 -39   1   0 15.4688  2.4949   1
  39   1   0 11.3463  2.5102   3
 -41   1   0 51.6995  3.9503   1
  41   1   0 52.7945  4.0433   3
  43   1   0 3.63663 2.49104   3
 -43   1   0 7.65667 2.41279   1
   0  -2   0 4016.39  122.62   3
   0  -2   0 3860.13  120.76   1
   2  -2   0 310.595   9.988   3
   2  -2   0 310.617  10.180   2
  -2  -2   0 310.809   9.771   1
   2  -2   0 320.832   9.898   1
   4  -2   0 2098.78   64.67   3
   4  -2   0 2038.47   64.97   2
  -4  -2   0 2068.37   63.58   1
   4   2   0 2129.36   65.38   2
  -4   2   0 2042.44   64.27   1
   6  -2   0 259.456   8.259   3
  -6  -2   0 252.785   8.035   1
  -6   2   0 262.946   8.403   1
   6   2   0 251.825   8.360   2
   8  -2   0 1523.85   47.06   3
   8  -2   0 1536.82   47.74   2
  -8  -2   0 1489.23   46.51   1
   8   2   0 1511.89   47.79   2
  10  -2   0 3.00781 0.70903   2
  10  -2   0 4.93522 0.65255   3
 -10  -2   0 5.71013 0.60622   1
  10   2   0 4.86260 0.57972   2
  12  -2   0 504.867  16.377   2
 -12  -2   0 509.081  15.664   1
  12  -2   0 502.271  15.922   3
 -12   2   0 506.260  16.088   1
  12   2   0 491.225  16.292   3
  12   2   0 494.535  16.002   2
 -14  -2   0 41.4230  1.8107   1
  14  -2   0 40.6631  2.1354   2
  14   2   0 37.8992  1.7174   2
  14   2   0 40.5010  2.1990   3
 -14   2   0 34.9710  2.0801   1
  16  -2   0 624.793  19.979   2
  16  -2   0 608.836  19.452   3
 -16   2   0 593.173  19.579   1
  16   2   0 622.226  19.529   2
  16   2   0 602.324  19.820   3
 -18  -2   0 40.5862  2.0651   1
  18  -2   0 43.2660  2.2771   3
  18  -2   0 41.3655  2.3281   2
  18   2   0 40.5974  1.9991   2
  18   2   0 37.3113  2.3899   3
 -18   2   0 42.9402  2.5051   1
 -20  -2   0 388.024  12.642   1
  20  -2   0 393.686  13.297   2
  20  -2   0 375.224  12.819   3
  20   2   0 379.552  13.155   3
  20   2   0 394.328  12.808   2
 -20   2   0 400.501  13.166   1
 -22  -2   0 289.789  10.082   1
  22  -2   0 308.031  10.338   3
  22  -2   0 299.616  10.669   2
  22   2   0 287.664  10.553   3
  22   2   0 309.226  10.210   2
 -22   2   0 314.163  10.678   1
  24  -2   0 90.5070  4.0998   3
 -24  -2   0 94.7713  4.0320   1
  24  -2   0 100.075   4.467   2
  24   2   0 96.3339  4.3911   3
  24   2   0 92.2813  3.9362   2
 -24   2   0 97.2740  4.5130   1
  26  -2   0 179.320   7.168   2
  26  -2   0 186.310   6.918   3
 -26  -2   0 174.614   6.637   1
  26   2   0 179.780   6.662   2
  26   2   0 173.450   7.045   3
 -26   2   0 187.710   7.255   1
  28  -2   0 110.752   5.096   2
 -28  -2   0 114.883   4.734   1
  28  -2   0 109.820   4.886   3
 -28   2   0 103.175   5.112   1
  28   2   0 112.297   4.989   3
  28   2   0 105.914   4.564   2
  30  -2   0 50.5161  3.3202   2
  30  -2   0 54.1741  3.3284   3
 -30  -2   0 51.7354  3.0064   1
  30   2   0 47.7813  3.2984   3
 -30   2   0 50.8528  3.3484   1
  32  -2   0 24.3291  2.7188   2
  32  -2   0 31.8172  2.8973   3
 -32  -2   0 28.2666  2.3786   1
  32   2   0 24.7561  2.4614   3
 -32   2   0 24.8963  2.7390   1
  34  -2   0 35.5580  2.9783   2
  34  -2   0 30.5004  2.9085   3
 -34   2   0 29.8442  2.8272   1
  34   2   0 28.7184  2.9383   3
  36  -2   0 3.41236 1.84954   2
  36  -2   0 2.18689 1.76944   3
 -36   2   0 2.22348 1.66122   1
  36   2   0 4.43603 1.88618   3
  38  -2   0 16.3668  2.6727   2
 -38   2   0 17.3181  2.6876   1
  38   2   0 13.7520  2.4844   3
 -40   2   0 4.81044 2.30811   1
  40   2   0 9.61637 2.49013   3
 -42   2   0 19.7018  3.0314   1
  42   2   0 14.3747  2.8585   3
 -44   2   0 1.22620 2.22485   1
  44   2   0 2.31641 2.37582   3
 -46   2   0 30.8112  3.7398   1
   1  -3   0 476.951  15.322   3
  -1  -3   0 484.954  15.016   1
   1  -3   0 481.086  15.065   1
  -3  -3   0 4.73877 0.59960   1
   3  -3   0 4.58989 0.72943   2
   3  -3   0 4.60400 0.69254   3
   3   3   0 5.40963 0.76188   2
  -5  -3   0 2454.98   74.03   1
   5  -3   0 2455.73   75.25   3
   5   3   0 2399.24   76.30   2
  -5   3   0 2359.48   74.12   1
   7  -3   0 10.8845  0.9893   3
  -7  -3   0 9.50611 0.81188   1
  -7   3   0 7.13470 1.01687   1
   7   3   0 8.37328 0.86727   2
  -9  -3   0 708.380  21.480   1
   9  -3   0 716.203  21.953   3
   9   3   0 664.228  22.168   2
  -9   3   0 695.168  21.988   1
  11  -3   0 166.767   5.795   2
 -11  -3   0 166.166   5.161   1
  11   3   0 149.388   5.331   2
  11   3   0 155.166   5.830   3
 -11   3   0 130.497   5.529   1
 -13  -3   0 229.751   7.385   1
  13  -3   0 229.163   8.055   2
  13   3   0 227.951   7.598   2
  13   3   0 215.625   8.052   3
 -15  -3   0 199.865   6.592   1
  15  -3   0 197.597   6.795   3
  15  -3   0 210.784   7.329   2
 -15   3   0 187.417   7.129   1
  15   3   0 190.768   6.697   2
  15   3   0 196.722   7.305   3
  17  -3   0 169.363   6.536   2
  17  -3   0 176.267   6.099   3
 -17   3   0 184.391   6.565   1
  17   3   0 162.999   5.911   2
  17   3   0 162.204   6.534   3
  19  -3   0 64.5354  2.9293   3
 -19  -3   0 61.7412  2.7747   1
  19  -3   0 58.4386  3.1762   2
 -19   3   0 60.7641  3.3384   1
  19   3   0 62.4927  2.6752   2
  19   3   0 60.3045  3.3513   3
 -21  -3   0 419.500  13.513   1
  21  -3   0 404.754  13.793   3
  21  -3   0 421.201  14.445   2
  21   3   0 419.628  14.325   3
 -21   3   0 423.741  14.221   1
  21   3   0 413.919  13.711   2
 -23  -3   0 -0.3534  0.9716   1
  23  -3   0 0.34747 1.13209   3
  23  -3   0 -0.4535  1.2214   2
 -23   3   0 1.63301 1.42990   1
  23   3   0 1.64199 0.94452   2
  23   3   0 2.72469 1.42654   3
 -25  -3   0 287.763   9.885   1
  25  -3   0 285.882  10.157   3
  25  -3   0 285.545  10.692   2
 -25   3   0 291.067  10.577   1
  25   3   0 295.722   9.946   2
  25   3   0 289.325  10.566   3
 -27  -3   0 1.87672 1.21701   1
  27  -3   0 1.21395 1.35297   3
  27  -3   0 -1.7845  1.3945   2
  27   3   0 -0.0937  1.0619   2
 -27   3   0 1.02105 1.49385   1
  27   3   0 2.78624 1.60483   3
  29  -3   0 113.130   4.975   3
  29  -3   0 111.988   5.366   2
  29   3   0 109.552   5.205   3
 -29   3   0 106.549   5.270   1
  31  -3   0 0.00727 1.31212   3
  31  -3   0 -2.0256  1.3762   2
  31   3   0 -0.0684  1.5372   3
 -31   3   0 -0.0037  1.5044   1
  33  -3   0 29.9382  3.1295   2
  33  -3   0 31.6114  2.7615   3
 -33   3   0 31.1188  3.1688   1
  33   3   0 26.7906  2.9032   3
  35  -3   0 -1.1109  1.5401   2
 -35   3   0 -1.8070  1.6781   1
  35   3   0 -2.3234  1.4608   3
  37  -3   0 9.44097 2.34805   2
  37   3   0 6.00620 2.18362   3
 -37   3   0 5.07952 2.18757   1
  39  -3   0 1.59718 1.91417   2
 -39   3   0 0.38049 1.77299   1
  39   3   0 -0.1872  1.9727   3
 -41   3   0 8.56956 2.46985   1
  41   3   0 9.86094 2.67276   3
  43   3   0 2.75183 2.28479   3
 -43   3   0 3.34414 2.43266   1
  45   3   0 9.80262 2.96224   3
   0  -4   0 1175.25   36.23   1
  -2  -4   0 436.472  13.818   1
   4  -4   0 535.297  17.342   2
  -4  -4   0 524.200  16.530   1
  -4   4   0 540.381  16.882   1
   4   4   0 512.740  17.201   2
   6  -4   0 509.794  16.899   2
  -6  -4   0 518.511  16.072   1
   6   4   0 510.822  16.745   2
  -6   4   0 514.072  16.508   1
  -8  -4   0 117.687   4.036   1
   8  -4   0 114.675   4.622   2
   8   4   0 111.088   4.353   2
  -8   4   0 116.201   4.573   1
 -10  -4   0 173.546   5.362   1
  10  -4   0 138.285   5.537   3
 -10   4   0 169.739   5.987   1
  10   4   0 173.573   5.721   2
  10   4   0 133.878   5.923   3
  12  -4   0 135.101   4.850   3
 -12  -4   0 139.844   4.560   1
  12  -4   0 112.117   5.086   2
 -12   4   0 141.335   5.260   1
  12   4   0 125.477   4.804   2
 -14  -4   0 3.88211 0.73923   1
  14  -4   0 2.89796 0.87352   3
  14  -4   0 3.00488 1.04946   2
  14   4   0 2.82562 1.18237   3
 -14   4   0 3.59196 1.13688   1
  14   4   0 3.26061 0.76025   2
  16  -4   0 235.592   7.912   3
  16  -4   0 229.959   8.468   2
  16   4   0 218.328   7.747   2
  16   4   0 224.700   8.477   3
 -18  -4   0 4.33068 0.89144   1
  18  -4   0 5.19374 1.34625   2
  18  -4   0 4.62766 1.05324   3
  18   4   0 6.26352 1.45279   3
  18   4   0 4.12015 0.85809   2
  20  -4   0 140.326   5.997   2
  20  -4   0 151.300   5.545   3
 -20  -4   0 140.557   5.221   1
  20   4   0 146.285   6.110   3
  20   4   0 142.675   5.247   2
  22  -4   0 52.8297  2.8552   3
 -22  -4   0 52.7868  2.6332   1
  22  -4   0 51.8982  3.3571   2
  22   4   0 59.7305  3.4746   3
 -22   4   0 52.7061  3.3283   1
  22   4   0 51.5476  2.5775   2
  24  -4   0 49.4119  3.4411   2
  24  -4   0 45.5774  2.8502   3
  24   4   0 55.4656  3.6170   3
 -24   4   0 50.1346  3.4350   1
  24   4   0 52.1619  2.6416   2
  26  -4   0 75.3548  3.7480   3
  26  -4   0 71.8435  4.2708   2
 -26   4   0 81.0784  4.4769   1
  26   4   0 70.7205  4.1604   3
  28  -4   0 17.0383  2.0263   3
  28  -4   0 16.8152  2.5234   2
  28   4   0 18.2664  2.5322   3
 -28   4   0 18.7183  2.5993   1
  30  -4   0 10.5757  1.8296   3
  30  -4   0 11.1774  2.2598   2
 -30   4   0 7.49590 2.27518   1
  30   4   0 9.17535 2.14722   3
  32  -4   0 16.3786  2.5010   2
 -32   4   0 14.5869  2.4799   1
  32   4   0 13.5522  2.4395   3
  34  -4   0 2.49442 1.86209   2
  34   4   0 0.04424 1.75714   3
 -34   4   0 1.64844 1.83711   1
  36  -4   0 12.0931  2.5937   2
 -36   4   0 14.1688  2.7147   1
  36   4   0 12.4370  2.5494   3
  38  -4   0 11.4838  2.7421   2
 -38   4   0 6.83498 2.49629   1
  38   4   0 10.4148  2.5757   3
  40  -4   0 4.82201 2.32594   2
  40   4   0 4.13769 2.28190   3
 -40   4   0 4.70962 2.21250   1
  42  -4   0 16.8429  3.1182   2
  42   4   0 14.7084  2.9230   3
 -42   4   0 8.85654 2.61849   1
  -1  -5   0 462.088  14.766   1
   3  -5   0 371.420  12.351   3
   5  -5   0 66.8184  3.0107   3
   5  -5   0 66.1424  3.2958   2
  -5   5   0 76.7742  3.3130   1
   5   5   0 57.1963  3.0650   2
  -7  -5   0 10.3302  1.1002   1
   7  -5   0 13.8560  1.6963   2
   7  -5   0 17.6983  1.6222   3
  -7   5   0 7.66312 1.55993   1
   7   5   0 11.9092  1.3578   2
   9  -5   0 341.833  11.766   2
  -9  -5   0 338.380  10.847   1
   9  -5   0 327.216  11.263   3
  -9   5   0 335.194  11.539   1
   9   5   0 339.601  11.431   2
  11  -5   0 4.53041 1.16376   2
 -11  -5   0 5.55658 0.85663   1
  11  -5   0 6.90163 1.15311   3
 -11   5   0 3.57548 1.21717   1
  11   5   0 5.22711 0.97889   2
  11   5   0 5.75282 1.43025   3
 -13  -5   0 20.8312  1.3488   1
  17  -5   0 228.420   8.011   3
  17  -5   0 228.791   8.664   2
 -17   5   0 222.741   8.474   1
  17   5   0 220.567   7.862   2
  19  -5   0 4.22280 1.14286   3
  19  -5   0 1.22454 1.38385   2
 -19   5   0 1.81989 1.32894   1
  19   5   0 2.44342 1.49529   3
  19   5   0 1.14240 0.84789   2
  21  -5   0 50.4993  3.3966   2
  21  -5   0 52.6319  2.8615   3
  21   5   0 50.7589  3.4450   3
  21   5   0 48.6097  2.5350   2
 -21   5   0 51.5296  3.3298   1
  23  -5   0 36.0071  2.4749   3
  23  -5   0 31.5086  2.8051   2
 -23   5   0 32.8047  2.9012   1
  23   5   0 33.2251  3.0155   3
  25  -5   0 2.66879 1.75764   2
  25  -5   0 2.91836 1.35251   3
 -25   5   0 3.22128 1.64264   1
  25   5   0 5.34615 1.85096   3
  27  -5   0 3.53476 1.46058   3
  27  -5   0 1.92078 1.79123   2
 -27   5   0 3.59072 1.91291   1
  27   5   0 2.78474 1.82720   3
  29  -5   0 7.11769 2.13352   2
  29   5   0 7.34055 2.11697   3
 -29   5   0 10.0042  2.3041   1
  31  -5   0 5.29075 1.97746   2
  31   5   0 2.22217 1.92223   3
 -31   5   0 2.03103 1.89953   1
  33  -5   0 7.69527 2.08362   2
 -33   5   0 7.79776 2.26620   1
  33   5   0 5.69176 2.22152   3
  35  -5   0 1.01448 1.94840   2
 -35   5   0 -1.4844  1.9950   1
  35   5   0 3.33846 2.09628   3
  37  -5   0 11.5510  2.6634   2
 -37   5   0 16.0238  2.9318   1
  37   5   0 10.8248  2.5958   3
  39  -5   0 4.51770 2.43934   2
  39   5   0 7.35827 2.50314   3
 -39   5   0 7.69185 2.54234   1
  41  -5   0 5.72471 2.67185   2
  41   5   0 5.65724 2.62899   3
 -41   5   0 10.4905  2.7396   1
  43  -5   0 0.04429 2.33120   2
   0  -6   0 112.132   4.496   1
  -2  -6   0 17.2160  1.6533   1
   4  -6   0 61.9895  3.1215   3
  -4  -6   0 57.9246  2.7448   1
   4   6   0 55.6470  3.2063   2
  -4   6   0 66.0318  3.2739   1
   6  -6   0 10.9947  1.4695   3
  -6  -6   0 11.8597  1.2849   1
   6   6   0 9.94652 1.56570   2
  -6   6   0 8.71861 1.61648   1
  -8  -6   0 14.7893  1.3990   1
   8  -6   0 15.5262  1.8742   2
   8  -6   0 18.1685  1.6815   3
  -8   6   0 14.7133  1.8308   1
   8   6   0 18.3210  1.7647   2
  10  -6   0 0.99606 1.20255   2
  10  -6   0 2.01395 1.05745   3
 -10  -6   0 1.86758 0.72628   1
 -10   6   0 1.33646 1.20336   1
  10   6   0 0.95482 0.88425   2
  12  -6   0 14.0188  1.6494   3
  12  -6   0 11.7356  1.7880   2
 -12  -6   0 9.50116 1.09985   1
  12   6   0 13.0408  2.0541   3
 -12   6   0 15.6019  1.9463   1
  12   6   0 17.6935  1.6930   2
  14  -6   0 3.39004 1.18300   3
 -14  -6   0 2.75004 0.87983   1
  14   6   0 4.11279 1.07483   2
  14   6   0 3.12248 1.54537   3
 -14   6   0 0.18793 1.27034   1
  16  -6   0 116.299   5.564   2
  16  -6   0 128.353   5.167   3
  16   6   0 126.995   5.919   3
  16   6   0 119.978   4.996   2
 -16   6   0 140.780   5.792   1
  18  -6   0 27.5530  2.2234   3
  18  -6   0 21.3493  2.4997   2
  18   6   0 19.7511  2.5703   3
 -18   6   0 22.5391  2.5429   1
  18   6   0 22.6562  1.9005   2
  20  -6   0 33.2128  3.0315   2
  20  -6   0 33.1473  2.5722   3
 -20   6   0 40.8952  3.1794   1
  20   6   0 25.2181  2.9390   3
  22  -6   0 10.2446  1.6745   3
  22  -6   0 7.14246 1.96918   2
 -22   6   0 9.77031 2.15552   1
  22   6   0 7.75961 2.13538   3
  24  -6   0 4.23574 1.91971   2
  24   6   0 4.49853 2.05344   3
 -24   6   0 4.20637 1.90998   1
  26  -6   0 1.72571 1.75491   2
 -26   6   0 2.51239 1.76589   1
  26   6   0 4.97890 1.98189   3
  28  -6   0 0.71116 1.65801   2
 -28   6   0 2.47981 1.84116   1
  28   6   0 3.90849 1.97652   3
  30  -6   0 2.16095 2.07915   2
  30   6   0 2.86802 2.12711   3
 -30   6   0 3.04738 2.05460   1
  32  -6   0 2.97957 2.11162   2
  32   6   0 -1.5143  1.8389   3
 -32   6   0 0.41009 1.94646   1
  34  -6   0 5.58021 2.21657   2
  34   6   0 3.10273 2.22251   3
 -34   6   0 1.79853 2.13322   1
  36  -6   0 1.77197 2.22604   2
  36   6   0 -0.8387  2.1319   3
 -36   6   0 -1.0920  1.8898   1
  38  -6   0 2.44646 2.35150   2
  38   6   0 3.07601 2.46206   3
 -38   6   0 5.46933 2.35507   1
  40  -6   0 0.12632 2.31000   2
  40   6   0 -1.8209  2.3527   3
  -1   7   0 33.1390  2.5716   1
  -3  -7   0 44.0962  2.4577   1
   3   7   0 44.0558  2.9868   2
  -3   7   0 48.5846  2.9122   1
  -5  -7   0 17.4611  1.6486   1
   5   7   0 14.2417  1.9518   2
  -5   7   0 15.4294  1.9685   1
   7  -7   0 7.59221 1.47661   3
  -7  -7   0 11.2632  1.3601   1
   7   7   0 9.21363 1.55207   2
  -7   7   0 5.89191 1.51452   1
   9  -7   0 38.2932  2.6329   3
  -9  -7   0 40.7247  2.2577   1
  -9   7   0 38.6044  2.9287   1
   9   7   0 40.3516  2.5862   2
  11  -7   0 3.74985 1.31067   3
  11   7   0 2.81326 1.17508   2
 -11   7   0 2.57422 1.41960   1
  13  -7   0 22.3314  2.5247   2
  13  -7   0 20.3385  2.1137   3
  13   7   0 19.3751  2.6507   3
  13   7   0 25.0976  2.1400   2
 -13   7   0 18.7394  2.3279   1
  15  -7   0 13.3764  2.2134   2
  15  -7   0 12.8298  1.8483   3
 -15   7   0 13.4721  2.1853   1
  15   7   0 13.3582  2.3854   3
  15   7   0 14.6145  1.7603   2
  17  -7   0 33.7258  2.6238   3
  17   7   0 34.9404  3.3826   3
  17   7   0 28.2552  2.3567   2
 -17   7   0 32.8565  3.0277   1
  19  -7   0 6.44564 1.93905   2
  19  -7   0 8.61780 1.78780   3
  19   7   0 5.74252 2.08608   3
 -19   7   0 7.67412 2.22614   1
  21  -7   0 15.5771  2.4963   2
 -21   7   0 14.2849  2.4155   1
  21   7   0 13.3311  2.5473   3
  23  -7   0 9.11072 2.36776   2
 -23   7   0 11.6901  2.5163   1
  23   7   0 10.1064  2.4886   3
  25  -7   0 15.0641  2.6793   2
  25   7   0 13.7739  2.5535   3
 -25   7   0 12.5988  2.4061   1
  27  -7   0 -1.9660  1.5708   2
  27   7   0 2.61025 2.03358   3
 -27   7   0 0.89679 1.77525   1
  29  -7   0 0.78999 1.82536   2
  29   7   0 2.78394 1.97095   3
 -29   7   0 -1.8621  1.7843   1
  31  -7   0 -1.9708  1.8109   2
 -31   7   0 -2.1510  1.8139   1
  31   7   0 -1.8430  1.9029   3
  33  -7   0 0.95940 1.92087   2
  33   7   0 -0.3597  2.1206   3
 -33   7   0 -2.4494  1.7814   1
  35  -7   0 1.91852 2.14845   2
 -35   7   0 -3.4774  1.8207   1
  35   7   0 1.00518 2.32029   3
  37  -7   0 0.26586 2.16912   2
  37   7   0 0.43578 2.41787   3
 -37   7   0 1.25063 2.20068   1
   0   8   0 257.286   9.404   1
  -2   8   0 33.9520  3.0030   1
   2   8   0 46.0617  3.3743   2
  -4  -8   0 129.138   5.185   1
  -4   8   0 125.162   5.758   1
   4   8   0 128.832   5.962   2
  -6  -8   0 57.4684  2.9374   1
   6   8   0 49.0609  3.5092   2
  -6   8   0 60.9286  3.5946   1
  -8   8   0 6.83254 1.64723   1
   8   8   0 4.22329 1.57961   2
  10  -8   0 -0.2707  1.2119   3
  10   8   0 1.04123 1.25163   2
 -10   8   0 -0.0255  1.2472   1
  12  -8   0 3.22586 1.50960   3
  12   8   0 1.65702 1.74932   3
 -12   8   0 2.65916 1.54849   1
  12   8   0 5.32336 1.39073   2
  14  -8   0 3.35187 1.60034   3
  14   8   0 7.09938 1.52576   2
 -14   8   0 4.61891 1.73630   1
  14   8   0 5.10275 2.10612   3
  16  -8   0 19.5082  2.3621   3
  16   8   0 18.0268  2.9003   3
 -16   8   0 17.9748  2.6144   1
  18  -8   0 8.85517 2.17205   2
 -18   8   0 7.57657 2.13216   1
  18   8   0 7.80535 2.38079   3
  20  -8   0 65.1312  4.4232   2
  20   8   0 57.6623  4.4129   3
 -20   8   0 56.6880  4.1030   1
  22  -8   0 13.0697  2.5466   2
  22   8   0 15.0094  2.8223   3
 -22   8   0 12.6603  2.5465   1
  24  -8   0 28.9954  3.3974   2
 -24   8   0 24.5499  3.2372   1
  24   8   0 30.1102  3.5840   3
  26  -8   0 10.9314  2.5589   2
 -26   8   0 12.2125  2.5548   1
  26   8   0 9.08909 2.47736   3
  28  -8   0 2.82370 2.19264   2
 -28   8   0 6.42481 2.35247   1
  28   8   0 5.26525 2.41986   3
  30  -8   0 3.45535 2.34958   2
  30   8   0 3.93984 2.41321   3
 -30   8   0 -0.0366  2.0169   1
  32  -8   0 -1.0241  1.8997   2
 -32   8   0 -1.5263  1.9439   1
  32   8   0 0.39322 2.24610   3
  34  -8   0 2.73946 2.36180   2
 -34   8   0 -0.4550  2.0628   1
  34   8   0 0.78057 2.49941   3
   1   9   0 71.1519  4.1897   1
   1   9   0 81.6912  4.7924   2
  -1   9   0 66.4191  4.1297   1
  -3   9   0 78.1791  4.5522   1
   3   9   0 78.1664  4.7893   2
   5   9   0 48.5190  3.7292   2
  -5   9   0 48.2295  3.5680   1
   7   9   0 26.3705  2.8821   2
  -7   9   0 27.8348  2.9359   1
  -9   9   0 5.72955 1.81554   1
   9   9   0 8.89089 1.90812   2
  11   9   0 2.45903 1.88699   3
 -11   9   0 1.44510 1.63656   1
  11   9   0 3.36260 1.54301   2
  13  -9   0 5.99487 1.84570   3
  13   9   0 7.70425 2.26591   3
 -13   9   0 6.60732 2.00377   1
  15   9   0 5.92377 2.30326   3
 -15   9   0 4.48471 1.96837   1
  17   9   0 49.4577  4.1563   3
 -17   9   0 52.6043  3.9872   1
  19   9   0 13.0575  2.8220   3
 -19   9   0 10.8771  2.4968   1
 -21   9   0 57.6393  4.2864   1
  21   9   0 54.3418  4.3579   3
  23   9   0 5.53697 2.46872   3
 -23   9   0 8.42589 2.52824   1
 -25   9   0 24.2712  3.3696   1
  25   9   0 25.6826  3.5899   3
 -27   9   0 0.69315 2.30590   1
  27   9   0 -0.1759  2.1038   3
  29   9   0 4.63578 2.62128   3
 -29   9   0 5.17800 2.66390   1
 -31   9   0 0.71828 2.38333   1
  31   9   0 -1.6550  2.3037   3
   0  10   0 57.3947  4.3026   2
  -2  10   0 -0.0243  2.0261   2
   2  10   0 -0.6862  1.7955   2
  -4  10   0 89.8136  5.0314   1
   4  10   0 95.8931  5.3394   2
   6  10   0 6.84555 2.15905   2
  -6  10   0 6.64055 2.14358   1
  -8  10   0 64.7353  4.3297   1
   8  10   0 71.1497  4.4570   2
  10  10   0 10.8021  2.6998   3
 -10  10   0 3.84103 1.98712   1
  12  10   0 16.7386  3.0134   3
 -12  10   0 16.3123  2.5810   1
 -14  10   0 18.7659  2.8711   1
  14  10   0 17.3487  3.1293   3
 -16  10   0 10.9113  2.4503   1
  16  10   0 13.2845  2.9123   3
 -18  10   0 5.33637 2.02985   1
  18  10   0 3.01660 2.17890   3
  20  10   0 11.2287  2.7096   3
 -20  10   0 12.9865  2.5796   1
  22  10   0 11.2706  2.9349   3
 -22  10   0 8.86975 2.56835   1
 -24  10   0 15.1734  3.1014   1
  24  10   0 15.8747  3.3136   3
 -26  10   0 9.93710 2.86218   1
  26  10   0 11.5231  3.0999   3
  28  10   0 8.76323 2.98381   3
 -28  10   0 9.60608 2.97218   1
   1  11   0 37.7474  4.1424   2
  -1  11   0 37.6251  4.1897   2
  -3  11   0 10.6304  2.7207   2
   3  11   0 9.97336 2.66828   2
   5  11   0 59.0955  4.4344   2
   9  11   0 46.1274  4.6907   3
  -9  11   0 39.5507  3.7006   1
 -11  11   0 13.5499  2.7623   1
  11  11   0 9.62663 2.85470   3
  13  11   0 28.3554  3.8258   3
 -13  11   0 22.9303  3.1737   1
 -15  11   0 5.20887 2.24572   1
  15  11   0 3.49059 2.47407   3
 -17  11   0 17.5663  2.9605   1
  17  11   0 13.0243  3.0018   3
  19  11   0 5.13538 2.37767   3
 -19  11   0 1.75413 2.20137   1
  21  11   0 38.0935  4.5457   3
 -21  11   0 34.2447  4.0638   1
 -23  11   0 3.49924 2.55260   1
  23  11   0 1.75398 2.64610   3
   0  12   0 38.8548  4.4510   2
   2  12   0 1.61208 2.16624   2
  -2  12   0 0.08830 2.26266   2
  -4  12   0 35.0351  4.3120   2
  -6  12   0 8.00750 2.83536   2
   8  12   0 46.8241  5.0014   3
  -8  12   0 47.6983  4.5959   2
  10  12   0 2.89344 2.66173   3
  12  12   0 35.3142  4.4785   3
  14  12   0 0.07374 2.26605   3
 -16  12   0 23.5327  3.4960   1
  16  12   0 23.1158  3.9291   3
 -18  12   0 4.19131 2.56787   1
 -20  12   0 32.7481  4.2282   1
  -3  13   0 15.0292  3.2889   2
  -5  13   0 14.5104  3.4224   2
   5  13   0 18.7121  3.6080   3
   7  13   0 2.83887 2.67930   3
  -7  13   0 6.42459 2.75005   2
   9  13   0 12.3853  3.3910   3
  -9  13   0 15.8392  3.4824   2
 -38   0   1 -0.4699  1.5689   1
  38   0  -1 -2.0441  1.7814   3
  36   0  -1 2.93850 1.82785   3
  36   0  -1 1.87395 1.56479   2
 -36   0   1 -1.0785  1.4838   1
  34   0  -1 -1.0086  1.5098   3
 -34   0   1 0.29744 1.51466   1
  34   0  -1 -1.5429  1.3851   2
  32   0  -1 1.07185 1.43066   2
 -32   0   1 0.03604 1.45604   1
  32   0  -1 2.22539 1.54688   3
 -30   0   1 -0.8150  1.1735   1
  30   0  -1 -1.2138  1.1950   3
  30   0  -1 -1.2224  1.2340   2
 -28   0   1 -1.1072  1.1528   1
  28   0  -1 -1.2692  1.1921   3
  28   0  -1 -0.7685  1.1700   2
  26   0  -1 0.99303 1.11649   3
  26   0  -1 -1.1445  0.9639   2
 -26   0   1 -1.5067  0.8929   1
  24   0  -1 2.65253 1.20267   3
 -24   0   1 1.58763 1.24247   1
  24   0  -1 -0.0519  1.0490   2
  22   0  -1 2.31060 1.00053   3
 -22   0   1 0.80090 0.94008   1
  22   0  -1 1.66310 0.95432   2
 -20   0   1 0.50857 0.96351   1
  20   0  -1 1.42081 0.89526   2
  20   0  -1 2.50347 0.89422   3
  18   0  -1 0.63500 0.66569   3
  18   0  -1 -0.4734  0.6122   2
 -18   0   1 0.43672 0.69514   1
  16   0  -1 0.03177 0.59689   2
  16   0  -1 1.05805 0.64194   3
 -16   0   1 -0.4803  0.6778   1
  14   0  -1 -1.2875  0.4186   2
 -14   0   1 -0.2849  0.3119   1
  14   0  -1 -0.5373  0.2297   3
  12   0  -1 0.25041 0.46284   2
  12   0  -1 -0.1135  0.4615   3
 -12   0   1 -0.2193  0.5260   1
 -10   0   1 -0.2618  0.4214   1
  10   0  -1 -0.4001  0.3282   2
  10   0  -1 -0.2906  0.3546   3
   8   0  -1 -0.5778  0.2746   2
   8   0  -1 -0.3373  0.3159   3
  -8   0   1 -0.1343  0.3496   1
  -6   0   1 -0.3657  0.2744   1
   6   0  -1 0.13981 0.24986   2
   6   0  -1 -0.4124  0.2526   3
   4   0  -1 0.38573 0.18524   2
  -4   0   1 0.30456 0.22318   1
   4   0  -1 -0.0141  0.1969   3
   2   0   1 -0.5197  0.1059   2
  -2   0  -1 -0.9938  0.1070   1
   2   0   1 -1.0796  0.0692   3
   4   0   1 -1.6106  0.2072   2
   6   0   1 0.00498 0.28161   3
   8   0   1 -0.2273  0.2947   2
  -8   0  -1 -0.2968  0.3509   1
   8   0   1 0.08456 0.35037   3
  10   0   1 1.26486 0.44325   3
 -10   0  -1 -0.2296  0.3988   1
  10   0   1 0.29649 0.33982   2
  12   0   1 -0.1869  0.2181   3
  12   0   1 1.17356 0.45152   2
 -12   0  -1 -0.0780  0.3741   1
  14   0   1 0.91243 0.48396   2
 -14   0  -1 0.21599 0.56951   1
  14   0   1 0.59069 0.55166   3
  16   0   1 4.87930 0.85888   3
  16   0   1 0.53466 0.60532   2
 -16   0  -1 0.85912 0.76484   1
  18   0   1 0.07197 0.82584   3
 -18   0  -1 0.96262 0.85418   1
  18   0   1 0.72098 0.70349   2
  20   0   1 2.40096 1.09137   3
  20   0   1 -0.4384  0.8628   2
 -20   0  -1 1.76822 1.12852   1
 -22   0  -1 3.30107 1.19254   1
  22   0   1 2.38138 1.08918   2
  22   0   1 3.35156 1.17765   3
 -24   0  -1 -0.1497  1.1054   1
  24   0   1 -0.3641  0.9145   2
  24   0   1 -0.4666  1.1486   3
  26   0   1 0.09223 1.15780   3
  26   0   1 0.13026 1.03940   2
 -26   0  -1 -0.7097  1.1295   1
 -28   0  -1 -1.0293  1.0313   1
  28   0   1 -0.5128  1.1709   3
  28   0   1 -0.3708  1.0072   2
 -30   0  -1 -0.9041  1.1164   1
  30   0   1 -0.7008  1.2493   3
  30   0   1 0.69123 1.18409   2
 -32   0  -1 -0.6932  1.1804   1
  32   0   1 -0.0386  1.4071   3
  32   0   1 0.85425 1.31631   2
 -34   0  -1 3.23890 1.65140   1
  34   0   1 -1.1800  1.6209   3
 -36   0  -1 -0.7698  1.4672   1
  36   0   1 -2.8791  1.6753   3
 -38   0  -1 2.56906 1.87332   1
  38   0   1 3.03057 2.15975   3
 -40   0  -1 0.30123 1.77494   1
  40   0   1 1.92825 2.14587   3
  42   0   1 5.17255 2.53546   3
 -41   1   1 1.61853 1.96498   1
  41   1  -1 -3.1697  1.7959   3
  39   1  -1 3.92451 2.06107   3
 -39   1   1 1.21179 1.89341   1
  37  -1  -1 2.71905 1.91816   3
  37  -1  -1 2.50364 1.70756   2
  37   1  -1 0.42667 1.74687   3
 -37   1   1 4.59724 1.83432   1
  35  -1  -1 20.9712  2.6004   2
 -35  -1   1 21.7617  2.4208   1
  35  -1  -1 15.9741  2.4024   3
 -35   1   1 16.6872  2.3655   1
  35   1  -1 16.4975  2.3926   3
 -33  -1   1 6.01533 1.67851   1
  33  -1  -1 7.85150 1.90767   3
  33  -1  -1 5.68587 1.73426   2
  33   1  -1 7.25445 1.91103   3
  33   1  -1 8.32728 1.76222   2
 -33   1   1 6.56071 1.86852   1
  31  -1  -1 1.53877 1.54927   3
  31  -1  -1 1.46305 1.55842   2
 -31  -1   1 4.07777 1.50106   1
  31   1  -1 2.23204 1.36827   2
 -31   1   1 2.06971 1.50330   1
  31   1  -1 4.76806 1.57529   3
 -29  -1   1 0.19468 1.24948   1
  29  -1  -1 1.47212 1.31256   3
  29  -1  -1 2.54409 1.39539   2
  29   1  -1 -1.2851  1.1551   2
  29   1  -1 -0.3000  1.3426   3
 -29   1   1 -0.7289  1.3755   1
 -27  -1   1 8.37090 1.53146   1
  27  -1  -1 11.4164  1.7386   3
  27  -1  -1 10.7676  1.7559   2
  27   1  -1 9.02546 1.51926   2
 -27   1   1 8.93250 1.74865   1
  27   1  -1 8.72320 1.59209   3
  25  -1  -1 73.4740  3.4770   3
  25  -1  -1 69.8746  3.5433   2
 -25  -1   1 66.6507  3.3304   1
 -25   1   1 76.2507  3.7461   1
  25   1  -1 63.7743  3.5002   3
  25   1  -1 66.4803  3.3735   2
 -23  -1   1 16.3590  1.6807   1
  23  -1  -1 17.0924  1.6772   2
  23  -1  -1 21.2113  1.9224   3
 -23   1   1 15.6307  1.8415   1
  23   1  -1 17.2156  1.6141   2
  23   1  -1 19.0447  1.8363   3
  21  -1  -1 32.1763  2.0596   3
 -21  -1   1 28.8488  1.9495   1
  21  -1  -1 31.1486  2.1179   2
  21   1  -1 29.0453  1.8806   2
  21   1  -1 29.2710  2.0732   3
 -21   1   1 26.5825  2.1131   1
 -19  -1   1 226.723   7.672   1
  19  -1  -1 224.738   7.958   2
  19  -1  -1 220.228   7.693   3
  19   1  -1 223.824   7.901   3
  19   1  -1 234.552   7.792   2
 -19   1   1 215.270   7.905   1
  17  -1  -1 96.0475  3.6903   3
  17  -1  -1 100.893   3.923   2
 -17  -1   1 84.6449  3.5965   1
  17   1  -1 98.1458  3.9025   3
  17   1  -1 101.770   3.715   2
 -17   1   1 98.9694  3.9574   1
 -15  -1   1 348.859  11.906   1
  15  -1  -1 373.753  12.359   2
  15   1  -1 394.705  12.223   2
 -15   1   1 368.394  12.198   1
  15   1  -1 380.421  12.315   3
 -13  -1   1 1.74019 0.55003   1
  13  -1  -1 1.86319 0.61211   2
  13  -1  -1 1.72068 0.54268   3
 -13   1   1 1.00320 0.58610   1
  13   1  -1 0.37669 0.43410   3
  13   1  -1 1.70709 0.49439   2
 -11  -1   1 128.779   4.306   1
  11  -1  -1 130.447   4.544   2
  11  -1  -1 129.632   4.324   3
 -11   1   1 117.686   4.511   1
  11   1  -1 128.580   4.394   2
  11   1  -1 128.593   4.585   3
   9  -1  -1 1406.08   45.23   2
  -9  -1   1 1474.79   44.29   1
   9  -1  -1 1484.84   45.02   3
   9   1  -1 1413.84   45.31   2
  -9   1   1 1420.73   44.20   1
   9   1  -1 1441.52   44.81   3
   7  -1  -1 26.1146  1.2473   2
   7  -1  -1 25.6476  1.0844   3
  -7  -1   1 25.1593  1.0613   1
   7   1  -1 25.3503  1.3216   3
  -7   1   1 25.5939  1.3415   1
   7   1  -1 27.8143  1.1641   2
   5  -1  -1 128.481   4.205   3
  -5  -1   1 128.508   4.118   1
   5   1  -1 132.491   4.391   2
  -5   1   1 129.042   4.395   1
   3  -1  -1 6.64376 0.55291   2
   3  -1  -1 6.48214 0.42546   3
   3   1  -1 7.45743 0.57257   2
   1  -1  -1 30.4210  1.1324   1
   1  -1  -1 28.6446  1.0894   2
   1   1  -1 26.8912  0.9837   1
   1  -1   1 106.643   3.498   3
  -1  -1  -1 106.846   3.445   2
  -1  -1  -1 106.802   3.426   1
  -1   1  -1 105.039   3.421   1
   3  -1   1 72.9274  2.5179   2
  -3  -1  -1 69.3314  2.3583   1
   3  -1   1 71.3329  2.4194   3
   3   1   1 72.0066  2.3315   2
  -3   1  -1 68.4274  2.4369   1
   5  -1   1 97.9557  3.3361   3
  -5  -1  -1 97.1076  3.2530   1
   5  -1   1 98.8490  3.4361   2
   5   1   1 98.5147  3.2069   2
   7  -1   1 269.561   8.809   2
  -7  -1  -1 272.200   8.513   1
   7  -1   1 276.288   8.647   3
   7   1   1 271.677   8.792   3
   7   1   1 269.986   8.564   2
  -7   1  -1 247.220   8.635   1
   9  -1   1 31.6251  1.5191   2
  -9  -1  -1 32.1081  1.4692   1
   9  -1   1 33.3319  1.5166   3
  -9   1  -1 29.4491  1.5984   1
   9   1   1 32.2448  1.6352   3
   9   1   1 32.8915  1.3230   2
 -11  -1  -1 134.518   4.597   1
  11  -1   1 135.416   4.756   2
  11  -1   1 133.300   4.630   3
  11   1   1 130.819   4.502   2
  13  -1   1 154.535   5.551   2
  13   1   1 160.223   5.610   3
  13   1   1 159.615   5.317   2
 -13   1  -1 154.586   5.571   1
  15  -1   1 0.89131 0.64330   2
  15  -1   1 0.80775 0.71579   3
 -15  -1  -1 1.28462 0.64299   1
  15   1   1 1.00669 0.50503   2
  15   1   1 1.14542 0.68315   3
 -15   1  -1 0.25952 0.67958   1
 -17  -1  -1 225.823   7.538   1
  17  -1   1 220.831   7.716   2
  17  -1   1 213.136   7.535   3
 -17   1  -1 214.596   7.704   1
  17   1   1 217.405   7.716   3
  17   1   1 225.218   7.462   2
  19  -1   1 198.132   7.174   3
 -19  -1  -1 199.891   7.145   1
  19  -1   1 214.297   7.381   2
  19   1   1 201.592   7.055   2
  19   1   1 204.561   7.327   3
 -19   1  -1 207.785   7.385   1
  21  -1   1 67.9358  3.1845   3
  21  -1   1 54.8574  3.0047   2
 -21  -1  -1 59.4516  3.0321   1
 -21   1  -1 60.1271  3.2998   1
  21   1   1 59.3229  2.8280   2
  21   1   1 59.8458  3.1027   3
  23  -1   1 21.8935  1.9404   2
  23  -1   1 26.0331  2.2060   3
 -23  -1  -1 20.3791  1.9297   1
 -23   1  -1 22.5409  2.0868   1
  23   1   1 21.2921  1.9686   3
  23   1   1 23.3790  1.7698   2
  25  -1   1 14.5604  1.8036   3
  25  -1   1 12.3628  1.6938   2
 -25  -1  -1 12.2172  1.6290   1
  25   1   1 11.1374  1.4853   2
 -25   1  -1 10.4478  1.8499   1
  25   1   1 12.0010  1.7986   3
 -27  -1  -1 2.78962 1.15675   1
  27  -1   1 0.89381 1.16838   2
  27  -1   1 1.60337 1.26758   3
  27   1   1 0.65928 1.02689   2
  27   1   1 0.84429 1.27955   3
 -27   1  -1 0.39826 1.25672   1
  29  -1   1 22.2645  2.2910   3
 -29  -1  -1 18.6958  2.0581   1
  29  -1   1 18.4288  2.0983   2
  29   1   1 16.4379  1.8864   2
 -29   1  -1 14.1647  2.1350   1
  29   1   1 18.7018  2.2243   3
  31  -1   1 7.60047 1.76464   2
  31  -1   1 6.58745 1.75090   3
 -31  -1  -1 7.30840 1.65485   1
 -31   1  -1 8.96874 1.78678   1
  31   1   1 6.86285 1.72944   3
  33  -1   1 -0.3048  1.3573   2
  33  -1   1 0.00259 1.58450   3
 -33  -1  -1 0.92373 1.31325   1
 -33   1  -1 0.08907 1.50727   1
  33   1   1 0.19279 1.57627   3
  35  -1   1 0.02858 1.61216   3
  35  -1   1 -0.2208  1.4264   2
 -35  -1  -1 0.94413 1.47337   1
  35   1   1 2.28907 1.70842   3
 -35   1  -1 1.93276 1.58180   1
  37  -1   1 7.40862 2.28550   3
 -37  -1  -1 11.0355  2.1206   1
 -37   1  -1 12.0879  2.3264   1
  37   1   1 12.1066  2.3025   3
  39  -1   1 5.66692 2.37920   3
  39   1   1 3.47837 2.23123   3
 -39   1  -1 4.97857 2.00139   1
  41   1   1 8.66524 2.56795   3
 -41   1  -1 9.46641 2.39409   1
 -43   1  -1 3.64744 2.19661   1
  43   1   1 -1.6072  2.2963   3
 -44   2   1 1.15210 2.25042   1
  42   2  -1 -0.2884  2.1968   3
 -42   2   1 3.14251 2.19129   1
  40  -2  -1 3.58752 1.97262   2
 -40   2   1 2.30548 2.01183   1
  40   2  -1 5.22225 2.15501   3
  38  -2  -1 11.3664  2.4215   2
  38   2  -1 12.6032  2.4131   3
 -38   2   1 9.95322 2.24187   1
  36  -2  -1 -0.6047  1.5533   2
  36   2  -1 -1.2404  1.4805   3
 -36   2   1 2.07097 1.76017   1
  34  -2  -1 7.17582 1.91846   3
  34  -2  -1 7.65659 2.02613   2
  34   2  -1 9.88172 2.04928   3
 -34   2   1 9.02522 2.16675   1
  32  -2  -1 35.8965  2.9363   3
  32  -2  -1 33.0935  2.9419   2
  32   2  -1 37.1637  2.9581   3
 -32   2   1 35.6898  2.9216   1
  30  -2  -1 14.3021  2.1941   2
 -30  -2   1 11.1253  1.6781   1
  30  -2  -1 10.5624  1.8778   3
 -30   2   1 13.9290  2.1904   1
  30   2  -1 11.2312  1.9442   3
  30   2  -1 9.09505 1.67533   2
  28  -2  -1 1.50629 1.33846   2
  28  -2  -1 2.19817 1.43248   3
 -28  -2   1 2.62837 1.16042   1
  28   2  -1 0.16393 1.22125   2
 -28   2   1 0.15400 1.46071   1
  28   2  -1 1.32694 1.42380   3
  26  -2  -1 67.7216  3.5375   3
  26  -2  -1 74.3399  3.8444   2
 -26  -2   1 71.5386  3.4032   1
  26   2  -1 68.0094  3.4038   2
  26   2  -1 69.9276  3.7077   3
 -26   2   1 72.5460  3.8757   1
 -24  -2   1 18.4195  1.7551   1
  24  -2  -1 22.1849  2.1080   3
  24  -2  -1 16.2839  1.9546   2
  24   2  -1 20.1538  1.8562   2
  24   2  -1 18.6074  2.1025   3
 -24   2   1 16.9173  2.1562   1
  22  -2  -1 238.943   8.383   3
 -22  -2   1 228.404   8.172   1
  22  -2  -1 246.447   8.834   2
 -22   2   1 234.502   8.724   1
  22   2  -1 242.615   8.352   2
  22   2  -1 254.513   8.823   3
  20  -2  -1 2.35751 1.00487   2
 -20  -2   1 3.27156 0.87768   1
  20  -2  -1 2.51814 0.94821   3
  20   2  -1 4.10004 0.90553   2
  20   2  -1 3.73736 1.11808   3
 -20   2   1 2.29160 1.21588   1
  18  -2  -1 237.011   7.905   3
  18  -2  -1 231.575   8.298   2
 -18   2   1 223.380   8.193   1
  18   2  -1 230.537   7.886   2
  18   2  -1 234.705   8.312   3
 -16  -2   1 10.7404  1.0001   1
  16  -2  -1 9.45315 1.21467   2
  16   2  -1 9.96147 1.30506   3
 -16   2   1 6.98618 1.18480   1
  16   2  -1 8.79977 0.93336   2
  14  -2  -1 41.4415  1.8706   3
 -14  -2   1 40.5201  1.7927   1
  14  -2  -1 45.0418  2.2474   2
 -14   2   1 41.0600  2.2342   1
  14   2  -1 40.1962  1.8475   2
  14   2  -1 43.3212  2.2883   3
 -12  -2   1 56.9702  2.1324   1
  12  -2  -1 55.6900  2.5344   2
  12  -2  -1 59.2019  2.2520   3
  12   2  -1 51.7024  2.5924   3
 -12   2   1 52.0061  2.5540   1
  12   2  -1 52.6912  2.2406   2
  10  -2  -1 7.14643 0.89642   2
  10  -2  -1 10.6986  0.8472   3
  10   2  -1 11.0412  0.9262   2
  -8  -2   1 54.1262  1.8584   1
   8  -2  -1 50.9270  1.9922   3
   8   2  -1 50.8873  2.1291   2
   6  -2  -1 45.4199  1.7838   3
  -6  -2   1 46.6293  1.6475   1
   6   2  -1 51.2260  1.9954   2
   4  -2  -1 2238.35   68.91   1
   4  -2  -1 2267.36   69.98   3
  -4  -2   1 2242.84   68.71   1
   4  -2  -1 2218.71   70.88   2
   4   2  -1 2274.28   71.24   2
   2  -2  -1 2825.50   88.32   2
  -2  -2   1 2750.81   85.23   1
   2  -2  -1 2846.21   86.71   3
   2  -2  -1 2739.97   85.91   1
   2   2  -1 2766.79   87.59   2
   0  -2  -1 431.857  13.502   2
   0  -2  -1 425.025  13.178   1
   0  -2   1 415.327  13.398   3
   0   2  -1 418.298  13.120   1
   2  -2   1 346.940  11.202   3
  -2  -2  -1 355.419  10.990   1
  -2   2  -1 353.842  11.059   1
   4  -2   1 227.072   7.239   3
  -4  -2  -1 222.265   7.047   1
  -4   2  -1 224.676   7.240   1
   4   2   1 211.281   7.351   3
   4   2   1 225.751   7.232   2
   6  -2   1 1144.17   34.88   3
   6  -2   1 1122.39   35.44   2
  -6  -2  -1 1098.60   34.31   1
  -6   2  -1 1115.82   34.56   1
   6   2   1 1128.88   35.17   2
  -8  -2  -1 92.7353  3.2963   1
   8  -2   1 94.0487  3.6249   2
   8  -2   1 98.2928  3.4133   3
   8   2   1 96.3093  3.2792   2
 -10  -2  -1 20.3209  1.1543   1
  10  -2   1 20.3464  1.1899   3
  10  -2   1 21.5279  1.3377   2
  10   2   1 20.5898  1.0014   2
  12  -2   1 40.9256  2.0898   2
 -12  -2  -1 45.3135  1.9077   1
  12   2   1 42.8836  2.2189   3
  12   2   1 45.0290  1.7554   2
  14  -2   1 78.0069  3.0351   3
  14  -2   1 73.8066  3.1748   2
  14   2   1 70.4081  3.2488   3
 -14   2  -1 76.0749  3.2812   1
  14   2   1 73.2785  2.7607   2
  16  -2   1 376.660  12.797   2
 -16  -2  -1 377.731  12.240   1
  16  -2   1 380.050  12.460   3
  16   2   1 374.142  12.733   3
 -16   2  -1 381.798  12.671   1
  16   2   1 390.492  12.336   2
  18  -2   1 77.8223  3.4118   3
 -18  -2  -1 73.4572  3.2150   1
  18  -2   1 77.5464  3.4934   2
 -18   2  -1 79.8252  3.6395   1
  18   2   1 80.2938  3.6277   3
  18   2   1 78.5762  3.0791   2
  20  -2   1 353.634  12.000   2
  20  -2   1 342.273  11.658   3
 -20  -2  -1 336.733  11.419   1
  20   2   1 355.806  11.468   2
 -20   2  -1 344.561  11.858   1
  20   2   1 343.871  11.886   3
  22  -2   1 114.308   4.822   2
 -22  -2  -1 110.438   4.494   1
  22  -2   1 110.985   4.566   3
  22   2   1 109.412   4.768   3
 -22   2  -1 113.390   4.894   1
  22   2   1 105.916   4.237   2
  24  -2   1 22.8583  2.2011   3
 -24  -2  -1 20.2971  1.9126   1
  24  -2   1 22.1497  2.1478   2
  24   2   1 21.4304  2.2053   3
  24   2   1 22.1115  1.6933   2
 -24   2  -1 22.8164  2.3494   1
  26  -2   1 42.7888  2.7526   3
  26  -2   1 43.7980  2.8617   2
 -26  -2  -1 46.1549  2.6498   1
 -26   2  -1 36.3011  2.9687   1
  26   2   1 39.9227  2.8262   3
  26   2   1 42.4539  2.4483   2
 -28  -2  -1 10.6499  1.6397   1
  28  -2   1 8.71458 1.81766   3
  28  -2   1 11.0090  1.8750   2
  28   2   1 12.4071  1.9548   3
 -28   2  -1 8.78937 1.98217   1
 -30  -2  -1 6.73918 1.54844   1
  30  -2   1 11.6391  1.9600   2
  30  -2   1 10.3399  1.8578   3
 -30   2  -1 6.85144 1.83714   1
  30   2   1 7.62239 1.87815   3
 -32  -2  -1 1.69713 1.33257   1
  32  -2   1 0.91904 1.49360   2
  32  -2   1 2.36858 1.62834   3
 -32   2  -1 3.01163 1.60430   1
  32   2   1 2.64042 1.64019   3
 -34  -2  -1 2.23625 1.51432   1
  34  -2   1 1.09588 1.65005   3
  34  -2   1 2.71838 1.73127   2
  34   2   1 3.50495 1.72800   3
 -34   2  -1 3.89496 1.75032   1
  36  -2   1 8.57619 2.18241   3
  36  -2   1 8.73522 2.17773   2
  36   2   1 8.89672 2.13791   3
 -36   2  -1 8.27594 2.18423   1
 -38   2  -1 0.18106 1.89836   1
  38   2   1 -0.3450  1.7658   3
  40   2   1 18.3311  2.8924   3
 -40   2  -1 23.9515  3.1824   1
 -42   2  -1 -0.3246  1.8395   1
  42   2   1 -2.5797  2.1035   3
  44   2   1 -0.0547  2.5097   3
 -44   2  -1 7.63703 2.42836   1
  45   3  -1 0.48290 2.48599   3
 -45   3   1 -0.7594  2.3173   1
  43   3  -1 4.35921 2.50835   3
 -43   3   1 9.13328 2.61264   1
  41  -3  -1 -0.2593  2.0247   2
 -41   3   1 0.33497 1.88327   1
  41   3  -1 -2.2225  1.9615   3
  39  -3  -1 13.9562  2.6672   2
 -39   3   1 16.8475  2.8043   1
  39   3  -1 12.0124  2.4835   3
  37  -3  -1 0.14597 1.72476   2
  37   3  -1 0.14200 1.76794   3
 -37   3   1 -1.8750  1.7413   1
  35  -3  -1 17.2125  2.6195   2
  35   3  -1 14.7140  2.4604   3
 -35   3   1 14.5272  2.4719   1
  33  -3  -1 4.18071 1.86180   2
  33   3  -1 1.33513 1.73663   3
 -33   3   1 3.21872 1.90720   1
  31  -3  -1 36.1294  3.0866   2
  31  -3  -1 33.2687  2.7274   3
 -31   3   1 41.1273  3.1446   1
  31   3  -1 36.7266  3.1277   3
  29  -3  -1 5.04878 1.71726   2
  29  -3  -1 4.19375 1.57351   3
 -29   3   1 3.23523 1.71145   1
  29   3  -1 4.61475 1.72683   3
  27  -3  -1 119.974   5.551   2
 -27  -3   1 118.932   4.852   1
  27  -3  -1 112.284   5.057   3
 -27   3   1 115.136   5.450   1
  27   3  -1 122.068   4.853   2
  27   3  -1 118.861   5.402   3
 -25  -3   1 81.9893  3.6855   1
  25  -3  -1 81.0168  4.2508   2
  25  -3  -1 83.6833  3.9030   3
  25   3  -1 89.1453  4.3953   3
 -25   3   1 86.9409  4.4609   1
  25   3  -1 87.1235  3.7706   2
  23  -3  -1 82.9911  4.2108   2
 -23  -3   1 81.3351  3.5954   1
  23  -3  -1 80.5144  3.7869   3
  23   3  -1 96.4507  3.7686   2
  23   3  -1 90.2933  4.3323   3
 -23   3   1 88.5867  4.3424   1
 -21  -3   1 81.3604  3.4274   1
  21  -3  -1 84.1220  3.5847   3
  21  -3  -1 84.6222  4.0949   2
 -21   3   1 84.9612  4.1239   1
  21   3  -1 88.9578  3.5105   2
  21   3  -1 77.8400  4.0307   3
  19  -3  -1 276.551   9.393   3
  19  -3  -1 273.503  10.000   2
  19   3  -1 290.657   9.439   2
  19   3  -1 282.365  10.020   3
 -19   3   1 271.646   9.845   1
  17  -3  -1 311.514  11.060   2
 -17  -3   1 309.865  10.217   1
  17  -3  -1 318.018  10.486   3
  17   3  -1 318.420  11.103   3
 -17   3   1 327.749  10.982   1
  17   3  -1 321.704  10.571   2
 -15  -3   1 148.569   4.874   1
  15  -3  -1 139.349   5.505   2
  15   3  -1 148.011   5.117   2
  15   3  -1 136.926   5.581   3
 -15   3   1 137.695   5.490   1
 -13  -3   1 715.408  21.046   1
  13  -3  -1 713.125  22.189   2
  13  -3  -1 601.793  21.401   3
  13   3  -1 707.806  21.792   2
 -13   3   1 636.108  21.654   1
  13   3  -1 707.110  22.123   3
 -11  -3   1 190.558   6.173   1
  11  -3  -1 192.397   6.438   3
  11   3  -1 193.314   7.020   3
  11   3  -1 190.164   6.603   2
  -9  -3   1 423.953  13.152   1
   9  -3  -1 436.772  13.543   3
   9   3  -1 425.300  13.825   2
  -9   3   1 408.729  13.762   1
   7  -3  -1 484.508  15.613   3
  -7  -3   1 500.856  15.226   1
  -7   3   1 474.644  15.741   1
   7   3  -1 511.055  15.983   2
   5  -3  -1 74.2496  2.7873   3
  -5  -3   1 71.0101  2.5490   1
   5   3  -1 73.0190  2.9636   2
   3  -3  -1 39.5257  1.9029   3
   3  -3  -1 47.2191  2.0878   2
  -3  -3   1 45.8753  1.7721   1
   3  -3  -1 44.5736  1.9968   1
   3   3  -1 48.5320  2.1326   2
  -1  -3   1 12.6264  0.8764   1
   1  -3  -1 14.1057  1.0538   2
  -1  -3   1 11.6065  1.0615   3
   1  -3  -1 12.3217  1.0294   1
   1  -3   1 78.1838  3.0340   3
  -1  -3  -1 78.9042  2.9205   1
  -1   3  -1 81.6442  2.9680   1
   3  -3   1 1159.88   36.29   3
  -3  -3  -1 1165.84   35.66   1
  -3   3  -1 1162.25   35.82   1
   5  -3   1 70.5963  2.8050   3
  -5  -3  -1 74.0768  2.6810   1
   5   3   1 73.5744  2.7884   2
  -5   3  -1 69.0275  2.8920   1
  -7  -3  -1 442.158  14.084   1
   7  -3   1 456.525  14.446   3
  -7   3  -1 444.095  14.436   1
   7   3   1 450.299  14.752   3
   7   3   1 458.834  14.505   2
   9  -3   1 208.400   7.329   2
  -9  -3  -1 207.311   6.778   1
  -9   3  -1 212.089   7.196   1
   9   3   1 203.108   6.928   2
 -11  -3  -1 92.9612  3.3806   1
  11  -3   1 96.3403  3.8793   2
 -11   3  -1 83.1331  3.7276   1
  11   3   1 96.9130  3.3903   2
 -13  -3  -1 193.685   6.850   1
  13  -3   1 215.152   7.126   3
  13  -3   1 207.574   7.475   2
  13   3   1 209.066   7.526   3
  13   3   1 210.308   6.912   2
  15  -3   1 488.942  16.562   2
  15  -3   1 502.833  16.064   3
  15   3   1 495.462  15.925   2
  15   3   1 499.319  16.514   3
 -17  -3  -1 34.7855  1.8369   1
  17  -3   1 28.1510  2.1142   2
  17  -3   1 33.1681  2.0493   3
  17   3   1 27.9071  1.5538   2
  17   3   1 27.9414  2.2902   3
 -17   3  -1 30.2039  2.2888   1
 -19  -3  -1 563.282  18.203   1
  19  -3   1 551.865  18.537   3
  19  -3   1 583.881  19.177   2
  19   3   1 581.397  18.411   2
  19   3   1 586.196  19.039   3
 -19   3  -1 569.815  18.800   1
  21  -3   1 100.033   4.445   3
  21  -3   1 97.5719  4.6815   2
 -21  -3  -1 107.270   4.322   1
  21   3   1 116.764   4.145   2
  21   3   1 116.523   4.928   3
 -21   3  -1 106.175   4.840   1
  23  -3   1 154.974   6.477   2
  23  -3   1 158.400   6.173   3
 -23  -3  -1 154.930   5.925   1
 -23   3  -1 166.917   6.570   1
  23   3   1 156.860   6.473   3
  23   3   1 167.482   5.802   2
  25  -3   1 26.7583  2.6552   2
 -25  -3  -1 23.1145  1.9691   1
  25  -3   1 24.9969  2.3670   3
 -25   3  -1 26.8787  2.6063   1
  25   3   1 27.7807  1.9046   2
  25   3   1 22.9228  2.4624   3
  27  -3   1 27.4696  2.5283   2
  27  -3   1 25.1755  2.4095   3
 -27  -3  -1 22.2283  2.1202   1
  27   3   1 25.2798  2.4484   3
 -27   3  -1 22.3122  2.5886   1
  29  -3   1 9.70654 1.81979   3
  29  -3   1 8.08790 1.90016   2
 -29  -3  -1 8.48310 1.55683   1
  29   3   1 6.41800 1.82082   3
 -29   3  -1 10.7353  2.1255   1
  31  -3   1 26.2802  2.9182   2
  31  -3   1 24.3152  2.6149   3
  31   3   1 24.5756  2.7621   3
 -31   3  -1 27.8546  2.9664   1
  33  -3   1 0.42630 1.58997   2
  33  -3   1 2.10571 1.64480   3
  33   3   1 2.99034 1.83732   3
 -33   3  -1 1.98956 1.74221   1
  35  -3   1 26.8045  3.1284   2
 -35   3  -1 30.7599  3.2540   1
  35   3   1 25.7186  2.9520   3
  37  -3   1 4.43372 2.04272   2
 -37   3  -1 7.98111 2.21051   1
  37   3   1 7.53182 2.29728   3
  39  -3   1 18.2346  2.9645   2
  39   3   1 17.0750  2.8419   3
 -39   3  -1 15.8427  2.7335   1
  41   3   1 10.6314  2.6854   3
 -41   3  -1 15.2747  2.8559   1
 -43   3  -1 1.28318 2.13608   1
  43   3   1 -2.0242  2.3524   3
  44   4  -1 14.1969  3.0230   3
  42  -4  -1 10.3849  2.9218   2
 -42   4   1 11.6466  2.8881   1
  42   4  -1 9.79252 2.73380   3
  40  -4  -1 23.1774  3.3052   2
  40   4  -1 13.9502  2.7736   3
 -40   4   1 17.0172  2.9438   1
  38  -4  -1 30.2895  3.5898   2
 -38   4   1 28.6148  3.5520   1
  38   4  -1 31.4445  3.5174   3
  36  -4  -1 3.13991 1.87321   2
 -36   4   1 -0.0187  1.8194   1
  36   4  -1 2.31689 2.08624   3
  34  -4  -1 23.7473  3.0010   2
 -34   4   1 24.0492  3.1412   1
  34   4  -1 29.3866  3.1044   3
  32  -4  -1 2.06695 1.77073   2
  32   4  -1 -1.4564  1.5432   3
 -32   4   1 -0.6055  1.6186   1
  30  -4  -1 97.1289  5.1186   2
  30   4  -1 101.234   5.128   3
 -30   4   1 98.5865  5.1776   1
  28  -4  -1 51.3883  3.1387   3
  28  -4  -1 47.3033  3.6159   2
 -28   4   1 52.9096  3.8092   1
  28   4  -1 51.3395  3.5880   3
  26  -4  -1 196.333   7.994   2
  26  -4  -1 186.459   7.176   3
 -26   4   1 187.527   7.807   1
  26   4  -1 193.139   7.045   2
  26   4  -1 192.423   7.911   3
  24  -4  -1 238.667   8.527   3
  24  -4  -1 239.852   9.319   2
  24   4  -1 240.874   8.404   2
  24   4  -1 233.842   9.200   3
 -24   4   1 240.809   9.189   1
  22  -4  -1 98.1246  4.0666   3
 -22  -4   1 88.2336  3.7503   1
  22  -4  -1 91.5060  4.5604   2
  22   4  -1 101.982   4.761   3
 -22   4   1 94.0382  4.5916   1
  22   4  -1 99.4485  3.9006   2
  20  -4  -1 32.6790  2.5742   2
  20  -4  -1 35.2601  2.1253   3
 -20  -4   1 26.2999  1.6585   1
  20   4  -1 35.0874  1.9418   2
  20   4  -1 37.7061  2.7030   3
  18  -4  -1 42.8322  2.2344   3
  18  -4  -1 43.9255  2.6776   2
  18   4  -1 42.8087  2.1241   2
  18   4  -1 43.6575  2.7532   3
  16  -4  -1 50.9480  2.9161   2
  16  -4  -1 53.9672  2.4639   3
 -16  -4   1 48.6712  2.1507   1
  16   4  -1 54.5232  2.4684   2
  16   4  -1 49.3265  3.0264   3
  14  -4  -1 92.4326  4.0783   2
  14  -4  -1 93.1006  3.6511   3
 -14  -4   1 96.6921  3.3717   1
 -14   4   1 86.0448  4.0684   1
  14   4  -1 93.8680  4.3171   3
  14   4  -1 98.7020  3.7647   2
 -12  -4   1 152.894   5.123   1
  12   4  -1 156.333   6.113   3
  12   4  -1 153.639   5.621   2
 -12   4   1 153.267   5.928   1
  10  -4  -1 328.441  11.165   2
 -10  -4   1 323.343  10.250   1
 -10   4   1 321.662  11.003   1
  10   4  -1 323.884  10.917   2
  -8  -4   1 207.922   6.628   1
   8  -4  -1 205.427   7.346   2
   8   4  -1 199.622   7.167   2
  -8   4   1 202.327   7.261   1
  -6  -4   1 1388.20   40.82   1
   6  -4  -1 1205.18   41.55   3
   6  -4  -1 1348.28   42.36   2
   6   4  -1 1391.81   42.33   2
   4  -4  -1 151.174   5.828   3
  -4  -4   1 174.799   5.620   1
   4  -4  -1 175.177   5.965   1
   4  -4  -1 174.764   6.155   2
   4   4  -1 166.377   6.106   2
   2  -4  -1 623.908  22.517   2
  -2  -4   1 777.013  21.802   1
   0  -4  -1 71.1781  2.8491   1
  -2  -4  -1 314.489  10.105   1
  -2   4  -1 309.986  10.196   1
   4  -4   1 18.1733  1.4844   3
  -4  -4  -1 28.9478  1.4710   1
   4   4   1 24.4063  1.6004   2
  -4   4  -1 27.0765  1.6404   1
   6  -4   1 600.734  20.847   3
  -6  -4  -1 663.968  20.436   1
   6  -4   1 680.440  21.401   2
   6   4   1 656.415  21.080   2
  -6   4  -1 675.754  20.811   1
  -8  -4  -1 135.923   4.827   1
   8  -4   1 138.986   5.089   3
   8   4   1 138.827   5.041   2
  -8   4  -1 140.105   5.258   1
   8   4   1 146.618   5.504   3
  10  -4   1 112.297   4.277   3
 -10  -4  -1 107.881   3.971   1
  10   4   1 110.084   4.144   2
 -10   4  -1 112.876   4.469   1
  10   4   1 112.847   4.677   3
  12  -4   1 91.2243  3.7600   3
  12  -4   1 99.0721  4.1694   2
  12   4   1 98.9459  3.5998   2
 -12   4  -1 98.6094  4.0960   1
  12   4   1 79.3043  4.0075   3
  14  -4   1 591.621  19.912   2
  14  -4   1 609.445  19.351   3
  14   4   1 608.780  19.262   2
 -14   4  -1 587.537  19.453   1
  16  -4   1 278.012  10.135   2
  16  -4   1 280.731   9.645   3
 -16  -4  -1 283.213   9.316   1
 -16   4  -1 280.294   9.945   1
  16   4   1 286.492   9.388   2
 -18  -4  -1 225.685   7.755   1
  18  -4   1 230.797   8.055   3
  18  -4   1 227.977   8.551   2
  18   4   1 226.061   7.718   2
  20  -4   1 112.913   5.159   2
  20  -4   1 112.120   4.686   3
 -20  -4  -1 109.347   4.438   1
  20   4   1 117.220   5.201   3
  20   4   1 119.946   4.282   2
  22  -4   1 4.26594 1.24233   3
  22  -4   1 1.95426 1.47380   2
 -22  -4  -1 2.60958 1.05059   1
  22   4   1 6.40368 1.60705   3
  22   4   1 2.74585 0.85875   2
 -22   4  -1 3.88942 1.46728   1
  24  -4   1 123.866   5.710   2
  24  -4   1 123.039   5.159   3
 -24  -4  -1 123.080   4.984   1
 -24   4  -1 124.240   5.653   1
  24   4   1 127.851   5.741   3
  26  -4   1 11.4058  1.7464   3
  26  -4   1 10.1061  2.1231   2
 -26   4  -1 9.62703 1.97496   1
  26   4   1 9.08271 1.92614   3
  28  -4   1 105.320   4.914   3
  28  -4   1 114.177   5.513   2
 -28   4  -1 115.508   5.540   1
  28   4   1 106.087   5.304   3
  30  -4   1 1.29831 1.47370   2
  30  -4   1 0.14495 1.28687   3
  30   4   1 -0.3838  1.5438   3
 -30   4  -1 -1.2220  1.5358   1
  32  -4   1 26.4246  2.6386   3
  32  -4   1 32.4426  3.3469   2
  32   4   1 29.6558  3.1956   3
 -32   4  -1 26.1577  3.0758   1
  34  -4   1 22.5188  3.0105   2
  34   4   1 25.3196  3.0471   3
 -34   4  -1 23.6099  3.0173   1
  36  -4   1 55.8472  4.0717   2
 -36   4  -1 52.2524  3.9948   1
  36   4   1 43.9307  3.6857   3
  38  -4   1 10.6603  2.5214   2
  38   4   1 8.84492 2.49531   3
 -38   4  -1 6.53053 2.34375   1
  40  -4   1 33.2136  3.8506   2
  40   4   1 38.3332  3.5930   3
 -40   4  -1 34.6030  3.8059   1
  42   4   1 1.44066 2.47303   3
 -42   4  -1 2.95510 2.26548   1
  43  -5  -1 24.1739  3.6900   2
  41  -5  -1 0.40599 2.25872   2
 -41   5   1 2.79582 2.34682   1
  41   5  -1 1.66939 2.38084   3
  39  -5  -1 30.4499  3.8528   2
 -39   5   1 28.8071  3.5650   1
  39   5  -1 27.2238  3.4238   3
  37  -5  -1 3.05362 2.29710   2
 -37   5   1 4.32061 2.30169   1
  37   5  -1 5.49127 2.33579   3
  35  -5  -1 28.3115  3.4790   2
  35   5  -1 27.7827  3.2961   3
 -35   5   1 23.2711  3.1756   1
  33  -5  -1 7.23234 2.24803   2
 -33   5   1 9.92138 2.52127   1
  33   5  -1 8.52010 2.42781   3
  31  -5  -1 64.7778  4.2732   2
  31   5  -1 64.7257  4.3222   3
 -31   5   1 70.4286  4.4469   1
  29  -5  -1 20.5807  2.7860   2
 -29   5   1 21.1262  2.8827   1
  29   5  -1 19.8733  2.8012   3
  27  -5  -1 175.383   7.762   2
 -27   5   1 182.675   7.728   1
  27   5  -1 174.283   7.662   3
  25  -5  -1 49.3659  3.5785   2
  25   5  -1 46.9423  3.5583   3
 -25   5   1 49.0621  3.5386   1
  23  -5  -1 209.674   8.292   2
  23  -5  -1 196.547   7.347   3
 -23   5   1 199.407   8.027   1
  23   5  -1 197.747   7.203   2
  23   5  -1 196.786   8.198   3
  21  -5  -1 21.0956  2.4787   2
  21  -5  -1 24.1801  2.0776   3
  21   5  -1 25.6784  1.8589   2
 -21   5   1 25.9553  2.4698   1
  21   5  -1 28.2096  2.6934   3
  19  -5  -1 102.935   4.256   3
  19  -5  -1 104.398   4.885   2
  19   5  -1 104.510   4.215   2
  19   5  -1 103.578   5.051   3
  17  -5  -1 222.122   7.665   3
  17   5  -1 208.212   7.606   2
  15  -5  -1 5.47683 1.08417   3
 -15  -5   1 5.54296 0.80897   1
 -15   5   1 4.98820 1.42570   1
  15   5  -1 5.77738 1.03867   2
 -13  -5   1 143.297   4.930   1
  13  -5  -1 143.199   5.362   3
 -13   5   1 145.897   5.859   1
  13   5  -1 144.728   5.498   2
  11  -5  -1 228.240   7.690   3
  11  -5  -1 217.089   8.119   2
 -11  -5   1 216.632   7.201   1
 -11   5   1 219.281   8.072   1
  11   5  -1 215.447   7.837   2
   9  -5  -1 267.849   9.002   3
  -9  -5   1 263.658   8.543   1
   9  -5  -1 263.625   9.477   2
  -9   5   1 269.422   9.363   1
   9   5  -1 252.762   9.195   2
   7  -5  -1 1155.06   36.79   3
  -7  -5   1 1178.09   36.02   1
   7  -5  -1 1154.42   37.54   2
  -7   5   1 1199.75   36.70   1
   7   5  -1 1164.20   37.44   2
  -5  -5   1 717.262  22.257   1
   5  -5  -1 726.353  23.353   2
   5  -5  -1 695.141  22.809   3
   5   5  -1 720.090  23.322   2
  -3  -5   1 183.588   6.469   1
   3  -5  -1 194.637   6.832   1
   3   5  -1 198.723   7.114   2
   1  -5  -1 413.929  13.447   1
  -1  -5  -1 20.3689  1.5801   1
   1  -5   1 20.6816  1.8379   3
  -1   5  -1 18.2982  1.6085   1
  -3  -5  -1 723.248  25.457   1
   3  -5   1 854.169  26.128   3
  -3   5  -1 876.327  25.787   1
   5  -5   1 17.6685  1.5544   3
  -5   5  -1 14.1660  1.5681   1
   5   5   1 15.1538  1.4897   2
   7  -5   1 610.887  20.453   3
   7  -5   1 655.016  21.053   2
   7   5   1 621.406  20.646   2
  -7   5  -1 655.062  20.446   1
   9  -5   1 5.74825 1.11835   3
   9  -5   1 5.62391 1.30370   2
  -9   5  -1 3.82272 1.19596   1
   9   5   1 5.94165 1.01756   2
   9   5   1 7.66977 1.46925   3
  11  -5   1 530.618  17.542   3
  11   5   1 541.045  17.582   2
 -11   5  -1 545.114  17.657   1
  11   5   1 534.827  18.062   3
 -13  -5  -1 36.6911  2.0265   1
  13  -5   1 40.7465  2.4322   3
 -13   5  -1 40.1237  2.6353   1
  13   5   1 43.8569  2.1938   2
  13   5   1 45.2399  2.8990   3
  15  -5   1 336.199  11.458   3
 -15  -5  -1 334.798  10.982   1
 -15   5  -1 322.350  11.686   1
  15   5   1 350.347  11.277   2
  17  -5   1 2.85014 1.15403   3
 -17  -5  -1 2.14335 0.89412   1
  17  -5   1 3.82664 1.44399   2
  17   5   1 1.44359 0.81695   2
 -17   5  -1 2.05959 1.31477   1
  19  -5   1 236.529   9.139   2
 -19  -5  -1 238.772   8.137   1
  19  -5   1 234.759   8.497   3
  19   5   1 234.993   9.132   3
 -19   5  -1 231.215   8.919   1
  19   5   1 243.013   8.151   2
  21  -5   1 36.2871  2.5344   3
  21  -5   1 33.7471  2.9298   2
 -21   5  -1 40.8249  3.0578   1
  21   5   1 43.4149  3.1051   3
  23  -5   1 93.5853  4.2107   3
  23  -5   1 87.0356  4.7444   2
  23   5   1 85.3139  4.7021   3
 -23   5  -1 89.4027  4.6453   1
  25  -5   1 48.8846  2.9911   3
  25  -5   1 44.9797  3.3045   2
 -25   5  -1 45.4864  3.3950   1
  25   5   1 46.0725  3.4176   3
  27  -5   1 57.8443  3.2701   3
  27  -5   1 50.1347  3.5666   2
  27   5   1 53.7625  3.7102   3
 -27   5  -1 48.2074  3.7036   1
  29  -5   1 19.5449  2.8137   2
  29  -5   1 18.7374  2.1947   3
 -29   5  -1 19.1519  2.6957   1
  29   5   1 16.3856  2.5550   3
  31  -5   1 60.9480  4.1612   2
 -31   5  -1 55.4699  4.0133   1
  31   5   1 60.1156  4.0240   3
  33  -5   1 7.95407 2.18113   2
 -33   5  -1 7.62508 2.29002   1
  33   5   1 6.24746 2.21206   3
  35  -5   1 64.0235  4.5859   2
  35   5   1 65.4760  4.5509   3
 -35   5  -1 67.4585  4.5144   1
  37  -5   1 6.62115 2.48605   2
 -37   5  -1 7.73566 2.48922   1
  37   5   1 5.59269 2.32700   3
  39  -5   1 24.4449  3.6345   2
  39   5   1 18.2199  3.0870   3
 -39   5  -1 20.2907  3.2028   1
  41  -5   1 16.2428  3.2992   2
 -41   5  -1 16.7905  3.0047   1
  41   5   1 20.6756  3.3346   3
  40  -6  -1 8.34036 2.83145   2
  40   6  -1 6.71517 2.79283   3
  38  -6  -1 19.6434  3.3661   2
 -38   6   1 14.7456  2.9577   1
  38   6  -1 12.9027  3.0002   3
  36  -6  -1 3.77756 2.22092   2
  36   6  -1 6.87279 2.46992   3
 -36   6   1 4.90803 2.34699   1
  34  -6  -1 20.1739  3.2011   2
  34   6  -1 20.9337  3.1436   3
 -34   6   1 18.5810  3.0238   1
  32  -6  -1 25.6613  3.4295   2
 -32   6   1 21.9231  3.1238   1
  32   6  -1 26.4608  3.3222   3
  30  -6  -1 75.3837  4.8007   2
  30   6  -1 83.2228  4.9481   3
 -30   6   1 78.1351  4.8953   1
  28  -6  -1 21.6594  3.0067   2
 -28   6   1 16.3886  2.7322   1
  28   6  -1 19.1077  2.8933   3
  26  -6  -1 126.605   6.509   2
  26   6  -1 146.970   6.771   3
 -26   6   1 139.196   6.520   1
  24  -6  -1 1.06962 1.77430   2
 -24   6   1 1.10610 1.61364   1
  24   6  -1 1.91205 1.77127   3
  22  -6  -1 221.028   9.184   2
 -22   6   1 235.785   9.145   1
  22   6  -1 231.776   9.349   3
  20  -6  -1 1.94296 1.41531   2
  20  -6  -1 2.69412 1.23730   3
  20   6  -1 1.48128 1.04294   2
  20   6  -1 0.35711 1.55349   3
 -20   6   1 2.35324 1.52593   1
  18  -6  -1 231.905   9.084   2
  18  -6  -1 227.258   8.275   3
  18   6  -1 226.011   8.264   2
 -18   6   1 224.191   8.867   1
  18   6  -1 245.647   9.309   3
  16  -6  -1 12.9820  1.9253   2
  16  -6  -1 15.6358  1.7396   3
  16   6  -1 12.8149  1.5649   2
  16   6  -1 15.4774  2.3275   3
 -16   6   1 11.8980  2.0190   1
  14  -6  -1 186.474   7.653   2
  14  -6  -1 193.591   7.047   3
  14   6  -1 198.547   7.206   2
 -14   6   1 189.750   7.561   1
  12  -6  -1 2.34707 1.19825   2
 -12  -6   1 3.58148 0.83333   1
  12  -6  -1 4.55889 1.17545   3
  12   6  -1 4.17392 1.07506   2
 -12   6   1 2.40256 1.47434   1
  10  -6  -1 378.532  13.238   2
  10  -6  -1 373.373  12.654   3
 -10   6   1 385.784  13.093   1
  10   6  -1 371.619  12.928   2
   8  -6  -1 -1.1445  0.9493   2
  -8  -6   1 0.26458 0.41768   1
   8  -6  -1 1.46696 1.02820   3
   8   6  -1 -0.3375  0.8988   2
  -8   6   1 0.49101 1.15044   1
   6  -6  -1 700.966  23.109   2
   6  -6  -1 695.243  22.519   3
  -6   6   1 703.610  22.546   1
   6   6  -1 692.058  23.008   2
  -4  -6   1 137.992   5.089   1
   4   6  -1 144.972   5.825   2
   2  -6  -1 798.201  25.502   1
   2   6  -1 813.004  26.466   2
   0  -6  -1 377.375  12.424   1
   0   6  -1 372.280  12.408   1
  -2  -6  -1 636.318  20.279   1
  -2   6  -1 637.587  20.425   1
  -4  -6  -1 79.2316  3.4063   1
   4  -6   1 78.0974  3.6112   3
   4   6   1 77.1919  3.7537   2
  -4   6  -1 77.5850  3.6666   1
  -6  -6  -1 238.530   8.026   1
   6  -6   1 229.302   8.348   3
   6   6   1 232.391   8.445   2
  -6   6  -1 234.671   8.445   1
  -8  -6  -1 99.7052  3.8450   1
   8  -6   1 95.2199  4.1537   3
  -8   6  -1 94.7143  4.3186   1
   8   6   1 92.3098  4.0780   2
  10  -6   1 231.129   8.945   2
  10  -6   1 240.176   8.533   3
 -10  -6  -1 241.540   8.093   1
  10   6   1 238.544   8.495   2
  10   6   1 237.109   9.118   3
 -10   6  -1 236.948   8.665   1
 -12  -6  -1 50.1850  2.4639   1
  12  -6   1 45.3397  2.7416   3
  12   6   1 52.7214  3.3970   3
 -12   6  -1 47.9999  3.0142   1
  12   6   1 52.4861  2.7054   2
 -14  -6  -1 319.209  10.780   1
  14  -6   1 325.788  11.310   3
 -14   6  -1 324.760  11.599   1
  14   6   1 330.972  11.188   2
  14   6   1 334.301  12.020   3
 -16  -6  -1 283.089   9.299   1
  16  -6   1 271.645  10.368   2
  16  -6   1 275.690   9.789   3
 -16   6  -1 270.404  10.102   1
  16   6   1 274.474  10.421   3
  16   6   1 273.848   9.560   2
  18  -6   1 66.6818  3.5302   3
  18  -6   1 66.9640  3.9434   2
  18   6   1 55.6272  3.8746   3
 -18   6  -1 61.7174  3.6989   1
  20  -6   1 219.468   8.893   2
  20  -6   1 216.154   8.162   3
 -20   6  -1 219.635   8.669   1
  20   6   1 220.350   8.904   3
  22  -6   1 33.1907  3.1100   2
  22  -6   1 31.7893  2.6806   3
  22   6   1 30.5561  3.2127   3
 -22   6  -1 32.0543  3.2193   1
  24  -6   1 116.304   5.042   3
  24  -6   1 108.327   5.674   2
  24   6   1 108.853   5.655   3
 -24   6  -1 108.722   5.599   1
  26  -6   1 17.8376  2.6524   2
  26   6   1 17.5219  2.7613   3
 -26   6  -1 18.7861  2.6717   1
  28  -6   1 58.9741  4.1167   2
 -28   6  -1 66.4279  4.2052   1
  28   6   1 62.0033  4.2085   3
  30  -6   1 11.2196  2.5220   2
 -30   6  -1 11.6849  2.4386   1
  30   6   1 14.2020  2.5525   3
  32  -6   1 43.2834  3.8339   2
 -32   6  -1 43.2074  3.7011   1
  32   6   1 46.3977  3.7566   3
  34  -6   1 12.0672  2.7734   2
 -34   6  -1 11.6004  2.6881   1
  34   6   1 9.81046 2.60153   3
  36  -6   1 33.1446  3.8782   2
 -36   6  -1 29.7384  3.6270   1
  36   6   1 27.2578  3.5714   3
  38  -6   1 1.96214 2.26647   2
 -38   6  -1 0.45408 2.15565   1
  38   6   1 -2.9872  2.0115   3
  40  -6   1 28.8388  3.9388   2
  37  -7  -1 4.89283 2.57485   2
  37   7  -1 -0.4667  2.2510   3
 -37   7   1 -4.1220  1.9124   1
  35  -7  -1 23.7889  3.5564   2
 -35   7   1 24.0709  3.5187   1
  35   7  -1 24.6090  3.5455   3
  33  -7  -1 -2.9518  1.9150   2
  33   7  -1 -1.1864  2.0446   3
 -33   7   1 -2.7730  1.9339   1
  31  -7  -1 22.8487  3.3043   2
  31   7  -1 24.2161  3.3481   3
 -31   7   1 21.3420  3.1963   1
  29  -7  -1 -0.6911  1.7021   2
  29   7  -1 -1.7498  1.9085   3
 -29   7   1 0.90757 1.80073   1
  27  -7  -1 46.3131  3.8229   2
  27   7  -1 54.9986  4.0746   3
 -27   7   1 52.6381  3.9093   1
  25  -7  -1 26.9673  3.2955   2
  25   7  -1 35.7577  3.5035   3
 -25   7   1 31.9254  3.3467   1
  23  -7  -1 108.925   5.818   2
  23   7  -1 107.305   5.817   3
 -23   7   1 111.330   5.670   1
  21  -7  -1 160.382   7.490   2
 -21   7   1 183.154   7.646   1
  21   7  -1 172.270   7.774   3
  19  -7  -1 154.082   7.277   2
 -19   7   1 178.578   7.525   1
  19   7  -1 177.069   7.724   3
  17  -7  -1 129.798   6.112   2
  17  -7  -1 129.803   5.517   3
  17   7  -1 133.452   6.424   3
  17   7  -1 139.248   5.584   2
 -17   7   1 131.584   6.171   1
  15  -7  -1 159.462   6.269   3
  15  -7  -1 165.426   6.994   2
  15   7  -1 156.829   7.144   3
 -15   7   1 159.216   6.857   1
  15   7  -1 156.579   6.297   2
  13  -7  -1 19.7785  2.0697   3
  13  -7  -1 23.9447  2.5842   2
  13   7  -1 20.4882  1.9822   2
 -13   7   1 19.7236  2.4282   1
  13   7  -1 24.2975  2.8510   3
  11  -7  -1 144.226   6.238   2
  11  -7  -1 141.965   5.660   3
  11   7  -1 137.665   5.759   2
 -11   7   1 140.760   6.212   1
   9  -7  -1 115.718   5.347   2
   9  -7  -1 121.732   4.927   3
  -9   7   1 110.819   5.192   1
   9   7  -1 115.991   5.063   2
  -7  -7   1 55.9002  2.6705   1
   7   7  -1 56.5455  3.2885   2
  -7   7   1 57.5356  3.3271   1
  -5  -7   1 315.896  10.856   1
  -5   7   1 336.404  11.564   1
   5   7  -1 335.463  11.860   2
   3   7  -1 1.97304 1.33116   2
   1  -7  -1 253.835   8.868   1
   1   7  -1 246.575   8.774   1
  -1  -7  -1 14.3911  1.6942   1
  -1   7  -1 12.8964  1.6970   1
  -3  -7  -1 343.954  11.424   1
  -3   7  -1 331.683  11.622   1
   3   7   1 340.307  12.080   2
   5  -7   1 16.4558  1.9982   3
  -5  -7  -1 18.5416  1.6979   1
   5   7   1 21.5318  2.1390   2
  -5   7  -1 18.5956  2.0304   1
  -7  -7  -1 81.2739  3.5703   1
   7  -7   1 82.9224  3.9301   3
   7   7   1 83.1154  3.9329   2
  -7   7  -1 79.3995  3.9145   1
  -9  -7  -1 74.8692  3.3694   1
   9  -7   1 74.7931  3.7453   3
  -9   7  -1 73.8862  3.8117   1
   9   7   1 72.5671  3.5970   2
 -11  -7  -1 181.607   6.482   1
  11  -7   1 185.086   7.017   3
  11   7   1 175.227   6.843   2
 -11   7  -1 174.146   7.086   1
  11   7   1 179.185   7.561   3
  13  -7   1 3.26495 1.41798   3
 -13   7  -1 3.00980 1.48876   1
  13   7   1 0.00805 1.56442   3
  13   7   1 0.49359 1.01168   2
  15  -7   1 324.180  11.213   3
  15  -7   1 315.482  11.895   2
  15   7   1 308.644  11.860   3
 -15   7  -1 311.600  11.449   1
  15   7   1 310.739  10.959   2
  17  -7   1 42.3862  3.3487   2
  17  -7   1 52.4044  3.2252   3
  17   7   1 42.1686  3.6358   3
 -17   7  -1 49.8780  3.6035   1
  19  -7   1 245.599   9.212   3
  19  -7   1 251.121  10.033   2
 -19   7  -1 242.876   9.629   1
  19   7   1 249.671  10.035   3
  21  -7   1 35.0589  3.2276   2
  21  -7   1 39.7221  2.9184   3
 -21   7  -1 35.1920  3.3204   1
  21   7   1 40.7712  3.5579   3
  23  -7   1 156.426   7.294   2
  23   7   1 158.966   7.361   3
 -23   7  -1 158.095   7.158   1
  25  -7   1 13.6370  2.5711   2
 -25   7  -1 13.5580  2.5244   1
  25   7   1 14.4012  2.7127   3
  27  -7   1 50.8697  4.1259   2
  27   7   1 67.5496  4.3531   3
 -27   7  -1 47.2846  3.8426   1
  29  -7   1 1.98968 2.04559   2
  29   7   1 1.66359 1.92902   3
 -29   7  -1 2.38450 1.82993   1
  31  -7   1 8.76377 2.55483   2
 -31   7  -1 7.45064 2.32233   1
  31   7   1 3.77451 2.20168   3
  33  -7   1 3.44036 2.21552   2
 -33   7  -1 -1.1671  1.7974   1
  33   7   1 -1.5957  1.9512   3
  35  -7   1 17.1981  3.1024   2
  35   7   1 17.9704  3.1422   3
 -35   7  -1 21.4835  3.2670   1
  37  -7   1 16.0525  3.2577   2
  37   7   1 15.4859  3.1491   3
 -37   7  -1 12.2126  2.8520   1
  34  -8  -1 16.4436  3.2676   2
 -34   8   1 9.26463 2.76497   1
  34   8  -1 8.09178 2.80261   3
  32  -8  -1 9.56444 2.78511   2
  32   8  -1 3.82616 2.51167   3
 -32   8   1 8.19202 2.74915   1
  30  -8  -1 18.0155  3.1151   2
  30   8  -1 15.8836  3.0952   3
 -30   8   1 11.5795  2.8708   1
  28  -8  -1 6.28086 2.28767   2
  28   8  -1 6.79803 2.39197   3
 -28   8   1 10.2334  2.5608   1
  26  -8  -1 19.1115  3.0440   2
 -26   8   1 27.1563  3.3527   1
  26   8  -1 29.5950  3.5259   3
  24  -8  -1 7.33843 2.16730   2
  24   8  -1 8.22310 2.45198   3
 -24   8   1 6.00219 2.19237   1
  22  -8  -1 111.484   5.971   2
  22   8  -1 116.322   6.294   3
 -22   8   1 118.145   5.984   1
  20  -8  -1 3.86487 1.84797   2
 -20   8   1 3.25702 1.95374   1
  20   8  -1 4.56334 2.18852   3
  18  -8  -1 244.771  10.161   2
  18   8  -1 252.632  10.426   3
 -18   8   1 255.621  10.021   1
  16  -8  -1 3.28580 1.75489   2
  16   8  -1 2.91208 1.26293   2
 -16   8   1 -0.5221  1.7825   1
  16   8  -1 -0.7039  1.8522   3
  14  -8  -1 173.025   6.870   3
  14  -8  -1 168.480   7.473   2
 -14   8   1 179.294   7.520   1
  14   8  -1 165.682   7.701   3
  14   8  -1 173.325   6.938   2
  12  -8  -1 2.74670 1.41779   3
 -12   8   1 0.13946 1.42844   1
  12   8  -1 2.43048 1.24720   2
 -10   8   1 100.805   5.040   1
  10   8  -1 104.711   4.871   2
  -8   8   1 2.47313 1.41728   1
   8   8  -1 -0.8118  1.2502   2
  -6   8   1 72.7893  3.9197   1
   6   8  -1 62.3535  3.9229   2
   4   8  -1 17.2897  2.4199   2
   4   8  -1 15.3279  1.9287   1
  -4   8   1 16.3877  2.2369   1
  -2   8   1 181.836   7.140   1
   2   8  -1 173.535   6.749   1
   2   8  -1 168.565   7.340   2
   0   8  -1 110.104   5.569   2
   0   8  -1 111.002   5.083   1
  -2  -8  -1 265.829   9.411   1
   2   8   1 253.404  10.085   2
  -2   8  -1 273.425   9.728   1
  -4  -8  -1 276.530   9.640   1
   4   8   1 266.084  10.301   2
  -4   8  -1 276.604  10.037   1
  -6  -8  -1 107.866   4.453   1
   6   8   1 98.0508  4.9787   2
  -6   8  -1 100.850   4.861   1
   8  -8   1 19.3547  2.3014   3
  -8   8  -1 23.3209  2.5190   1
   8   8   1 20.4391  2.3328   2
  10  -8   1 21.1935  2.3444   3
  10   8   1 19.4387  2.7518   3
 -10   8  -1 21.2901  2.3934   1
  10   8   1 20.7947  2.2136   2
  12  -8   1 0.25627 1.33307   3
  12   8   1 1.65292 1.17019   2
  12   8   1 0.52287 1.54718   3
 -12   8  -1 2.94399 1.50520   1
  14  -8   1 108.121   5.047   3
 -14   8  -1 108.705   5.372   1
  14   8   1 109.120   5.700   3
  16  -8   1 103.288   4.968   3
 -16   8  -1 105.935   5.288   1
  16   8   1 99.9911  5.5484   3
  18  -8   1 67.2275  3.8886   3
 -18   8  -1 64.1559  4.1838   1
  18   8   1 65.2471  4.5063   3
  20   8   1 154.819   7.376   3
 -20   8  -1 149.589   7.023   1
  22  -8   1 21.9845  3.0402   2
  22   8   1 26.5020  3.3867   3
 -22   8  -1 24.2048  3.1810   1
  24  -8   1 105.433   5.911   2
 -24   8  -1 110.753   5.858   1
  24   8   1 104.372   5.937   3
  26  -8   1 3.00243 2.16344   2
  26   8   1 1.52736 2.09928   3
 -26   8  -1 4.46725 2.11657   1
  28  -8   1 14.6626  2.8422   2
  28   8   1 13.2529  2.7394   3
 -28   8  -1 11.3840  2.6481   1
  30  -8   1 -2.0867  1.9643   2
 -30   8  -1 -1.2929  1.9626   1
  30   8   1 0.73174 2.06738   3
  32  -8   1 4.94382 2.33176   2
  32   8   1 2.67410 2.33522   3
 -32   8  -1 5.07287 2.43248   1
  34  -8   1 3.51835 2.55995   2
 -34   8  -1 4.98839 2.43580   1
  34   8   1 4.98927 2.48307   3
  31  -9  -1 10.9955  3.0768   2
 -31   9   1 17.7649  3.2997   1
  31   9  -1 14.5954  3.2558   3
  29  -9  -1 3.17610 2.56062   2
  29   9  -1 3.86536 2.54078   3
 -29   9   1 2.02480 2.29798   1
  27  -9  -1 34.3256  4.0948   2
 -27   9   1 30.7658  3.8420   1
  27   9  -1 35.2540  4.1453   3
  25  -9  -1 10.3523  2.7824   2
  25   9  -1 14.8949  3.0600   3
 -25   9   1 8.06873 2.56019   1
  23  -9  -1 40.5100  3.8985   2
  23   9  -1 41.4664  3.9938   3
 -23   9   1 46.2743  4.0508   1
  21  -9  -1 28.6192  3.5256   2
 -21   9   1 30.0469  3.5543   1
  21   9  -1 28.5714  3.6664   3
  19   9  -1 21.0204  3.2848   3
 -19   9   1 23.8105  3.0683   1
  17   9  -1 48.2397  4.1491   3
 -17   9   1 46.6964  3.7094   1
  15   9  -1 4.84614 2.29322   3
 -15   9   1 7.25343 2.16467   1
 -13   9   1 41.8669  3.5241   1
  13   9  -1 50.6263  3.3526   2
  13   9  -1 42.6276  3.9558   3
 -11   9   1 25.3297  2.8886   1
  11   9  -1 24.2725  2.6774   2
  -9   9   1 29.3429  3.1635   1
   9   9  -1 27.7900  2.9094   2
   7   9  -1 132.764   6.323   2
  -7   9   1 140.080   6.295   1
  -5   9   1 89.1287  4.8382   1
   5   9  -1 93.3634  5.2247   2
   3   9  -1 65.5236  4.4173   2
  -3   9   1 62.5530  3.9847   1
   1   9  -1 210.603   9.002   2
  -1   9   1 214.772   8.412   1
   1   9   1 15.3919  2.4558   1
   1   9   1 14.5896  2.7781   2
  -1   9  -1 17.3264  2.5262   1
  -1   9  -1 22.0769  3.0483   2
   3   9   1 229.152   9.602   2
  -3   9  -1 253.125   9.306   1
   5   9   1 8.64931 2.15039   2
  -5   9  -1 4.58316 1.89940   1
   7   9   1 75.3073  4.2831   2
  -7   9  -1 79.0667  4.3776   1
   9   9   1 2.41237 1.45892   2
  -9   9  -1 1.47215 1.63074   1
   9   9   1 4.54235 2.01292   3
  11  -9   1 53.5333  3.5279   3
 -11   9  -1 48.0554  3.4539   1
  11   9   1 57.8817  4.0940   3
  13  -9   1 5.76440 1.81988   3
 -13   9  -1 8.62182 2.10435   1
  13   9   1 4.40582 2.03521   3
  15  -9   1 62.5390  3.9558   3
 -15   9  -1 66.6469  4.2667   1
  15   9   1 68.2867  4.5996   3
  17   9   1 12.0103  2.6084   3
 -17   9  -1 8.73764 2.28905   1
  19   9   1 77.2651  5.1722   3
 -19   9  -1 85.6125  4.9660   1
  21   9   1 9.83864 2.71619   3
 -21   9  -1 10.8645  2.6003   1
 -23   9  -1 39.3508  3.7175   1
  23   9   1 44.7362  4.0207   3
  25   9   1 13.8797  2.9188   3
 -25   9  -1 13.8980  2.9149   1
  27   9   1 7.87394 2.78849   3
 -27   9  -1 7.05200 2.58823   1
 -29   9  -1 4.71486 2.47846   1
  29   9   1 5.03006 2.60329   3
 -31   9  -1 11.6152  2.9703   1
  31   9   1 10.6113  2.9023   3
  28  10  -1 9.63213 3.22262   3
 -28  10   1 10.7300  3.1755   1
  26  10  -1 21.9437  3.7665   3
 -26  10   1 16.3486  3.3861   1
  24  10  -1 2.82017 2.44584   3
 -24  10   1 4.69194 2.54829   1
 -22  10   1 12.2172  2.6902   1
  22  10  -1 15.6866  3.1198   3
 -20  10   1 2.60063 1.96170   1
  20  10  -1 3.76260 2.18711   3
 -18  10   1 11.6457  2.4748   1
  18  10  -1 10.9504  2.6938   3
 -16  10   1 12.5138  2.4644   1
  16  10  -1 11.1258  2.8721   3
  14  10  -1 22.6377  3.3760   3
 -14  10   1 25.9878  3.1706   1
  12  10  -1 2.20463 2.07289   3
 -12  10   1 1.38682 1.71660   1
  10  10  -1 66.7349  4.2638   2
 -10  10   1 59.7968  4.1307   1
  -8  10   1 9.25546 2.37460   1
   8  10  -1 13.1422  2.4613   2
  -6  10   1 91.6665  5.2895   1
   6  10  -1 92.2542  5.2611   2
  -4  10   1 0.81447 1.92703   1
   4  10  -1 2.18110 1.92669   2
  -2  10   1 37.0666  3.3733   1
   2  10  -1 32.4153  3.6161   2
   0  10  -1 24.5487  3.3245   2
   0  10   1 22.0399  3.0857   2
  -2  10  -1 5.91990 2.33442   2
   2  10   1 5.48314 2.14291   2
  -4  10  -1 51.0526  3.5142   1
   4  10   1 41.7234  3.6798   2
  -6  10  -1 32.2405  3.2412   1
   6  10   1 30.3258  3.2227   2
   8  10   1 42.7142  4.0354   3
  -8  10  -1 34.5994  3.4640   1
  10  10   1 53.4281  4.3708   3
 -10  10  -1 40.2662  3.5459   1
 -12  10  -1 11.2742  2.3562   1
  12  10   1 8.13346 2.61630   3
 -14  10  -1 42.1617  3.6101   1
  14  10   1 42.2294  4.1788   3
 -16  10  -1 11.8063  2.4070   1
  16  10   1 10.0552  2.6618   3
 -18  10  -1 18.8064  2.9741   1
  18  10   1 18.2452  3.1071   3
 -20  10  -1 12.8649  2.5982   1
  20  10   1 10.5525  2.7585   3
 -22  10  -1 1.71644 2.11230   1
  22  10   1 2.89346 2.39289   3
  24  10   1 7.87204 2.71369   3
 -24  10  -1 4.36465 2.32064   1
 -26  10  -1 -1.3637  2.2761   1
  26  10   1 2.00183 2.44716   3
 -28  10  -1 12.6074  3.2228   1
 -23  11   1 15.4384  3.3731   1
  23  11  -1 19.1509  3.8051   3
 -21  11   1 2.18081 2.25395   1
  21  11  -1 7.39707 2.77835   3
 -19  11   1 3.17914 2.27170   1
  19  11  -1 0.44474 2.08361   3
  17  11  -1 2.59542 2.33306   3
 -17  11   1 2.94607 2.08268   1
 -15  11   1 0.42468 1.76388   1
  15  11  -1 3.27188 2.37035   3
  13  11  -1 13.9747  3.0972   3
 -13  11   1 14.3341  2.7801   1
 -11  11   1 7.75254 2.44751   1
  11  11  -1 7.59727 2.67513   3
  -9  11   1 8.20279 2.52965   1
  -7  11   1 10.8409  2.5408   1
   7  11  -1 14.0908  2.7068   2
   5  11  -1 19.2448  3.0336   2
   3  11  -1 5.46063 2.33651   2
  -3  11   1 2.41447 2.38267   2
  -1  11   1 21.5924  3.4293   2
   1  11  -1 25.6052  3.5465   2
  -1  11  -1 -2.1429  1.8489   2
   1  11   1 0.03575 1.90440   2
   3  11   1 7.35355 2.37966   2
  -3  11  -1 4.03253 2.41400   2
  -5  11  -1 1.57354 2.09090   2
   7  11   1 7.57652 2.67527   3
   9  11   1 3.87237 2.52482   3
 -11  11  -1 15.8904  2.7909   1
  11  11   1 18.4707  3.4144   3
 -13  11  -1 3.20312 2.08834   1
  13  11   1 4.06238 2.51716   3
 -15  11  -1 14.0418  2.8210   1
  15  11   1 16.5621  3.2837   3
 -17  11  -1 2.52812 2.02667   1
  17  11   1 2.43291 2.23234   3
 -19  11  -1 6.77367 2.48066   1
  19  11   1 7.15215 2.67555   3
  21  11   1 0.83915 2.37547   3
 -21  11  -1 5.25223 2.43724   1
  23  11   1 2.01680 2.65504   3
 -23  11  -1 6.07321 2.71708   1
 -20  12   1 4.45903 2.75005   1
 -18  12   1 3.80501 2.62704   1
  16  12  -1 0.16515 2.37925   3
 -16  12   1 0.59552 2.17745   1
  14  12  -1 4.77470 2.57654   3
 -14  12   1 -1.6309  1.9811   1
  12  12  -1 1.14699 2.33554   3
  10  12  -1 2.06638 2.70522   3
  -6  12   1 10.2402  2.9427   2
   4  12  -1 1.39132 2.24853   2
  -4  12   1 -0.4198  2.2721   2
  -2  12   1 6.44515 2.73441   2
   2  12  -1 5.16259 2.46578   2
   0  12   1 8.63881 2.64812   2
   0  12  -1 1.09568 2.38155   2
  -2  12  -1 3.84334 2.52675   2
  -4  12  -1 5.68751 2.65635   2
   6  12   1 2.21175 2.46425   3
  -6  12  -1 3.35463 2.40919   2
   8  12   1 7.24257 2.74887   3
  -8  12  -1 5.64679 2.71652   2
  10  12   1 4.85695 2.61797   3
  12  12   1 1.55795 2.44857   3
  14  12   1 2.25277 2.62105   3
  16  12   1 5.93437 2.80980   3
 -18  12  -1 3.44172 2.40916   1
 -20  12  -1 3.93360 2.70246   1
   9  13  -1 5.06614 2.90387   3
  -9  13   1 8.85315 2.89766   2
   7  13  -1 4.59458 2.75450   3
  -7  13   1 -3.1811  2.3045   2
  -5  13   1 6.35508 2.74092   2
  -1  13  -1 -1.8161  2.0818   2
  -3  13  -1 7.97681 2.95267   2
   5  13   1 0.03198 2.43671   3
  -5  13  -1 1.79690 2.46852   2
  -7  13  -1 2.12923 2.51357   2
   7  13   1 1.62529 2.39270   3
   9  13   1 0.42988 2.41330   3
 -38   0   2 7.13903 1.94025   1
 -36   0   2 90.4786  4.6826   1
  36   0  -2 90.2070  4.7098   2
  36   0  -2 91.9767  4.6721   3
 -34   0   2 16.5818  2.2508   1
  34   0  -2 13.0726  2.1339   3
  34   0  -2 14.7014  2.2270   2
  32   0  -2 213.107   8.296   2
 -32   0   2 211.805   8.135   1
  32   0  -2 212.054   8.023   3
  30   0  -2 9.55209 1.79080   3
 -30   0   2 9.24709 1.76743   1
  30   0  -2 13.6945  1.9462   2
  28   0  -2 244.626   9.001   2
  28   0  -2 250.289   8.857   3
 -28   0   2 237.130   8.809   1
  26   0  -2 16.0084  1.7978   3
  26   0  -2 16.9156  1.8463   2
 -26   0   2 16.6462  1.8384   1
  24   0  -2 638.333  20.540   2
  24   0  -2 613.227  20.179   3
 -24   0   2 617.207  20.087   1
  22   0  -2 105.392   4.236   2
 -22   0   2 101.230   4.211   1
  22   0  -2 98.4802  4.0674   3
  20   0  -2 239.996   8.234   3
 -20   0   2 236.350   8.263   1
  20   0  -2 240.966   8.367   2
  18   0  -2 89.1596  3.5102   3
  18   0  -2 94.8240  3.6601   2
 -18   0   2 82.1862  3.5400   1
 -16   0   2 442.477  14.895   1
  16   0  -2 489.959  15.277   2
  14   0  -2 202.612   6.331   2
 -14   0   2 150.461   6.083   1
  14   0  -2 190.018   6.203   3
 -12   0   2 575.712  17.697   1
  12   0  -2 542.214  18.073   2
  12   0  -2 576.199  17.866   3
 -10   0   2 14.6219  1.0528   1
  10   0  -2 15.4998  0.9762   2
  10   0  -2 20.6487  1.0625   3
   8   0  -2 9.49228 0.68318   3
  -8   0   2 10.5161  0.7514   1
   8   0  -2 8.23952 0.64954   2
   6   0  -2 696.904  21.843   3
   6   0  -2 695.657  22.160   2
  -6   0   2 715.937  21.599   1
   4   0  -2 4161.60  127.08   1
  -2   0   2 1926.87   59.48   3
   2   0  -2 1963.47   60.81   2
   2   0  -2 1873.86   58.75   1
   0   0  -2 3668.68  127.05   2
   0   0   2 4024.79  118.73   3
   0   0  -2 3808.55  117.17   1
   4   0   2 841.766  24.613   2
  -4   0  -2 730.729  24.090   1
   6   0   2 3038.99   93.99   2
  -6   0  -2 3003.73   92.36   1
   6   0   2 2937.75   93.65   3
  -8   0  -2 1788.49   55.34   1
   8   0   2 1802.29   57.00   3
   8   0   2 1842.69   56.59   2
  10   0   2 34.0087  1.4365   2
  10   0   2 25.7656  1.4568   3
 -10   0  -2 38.3860  1.6370   1
  12   0   2 155.330   5.245   2
  12   0   2 151.044   5.329   3
  14   0   2 435.721  13.985   2
 -14   0  -2 435.414  13.885   1
  14   0   2 424.131  13.981   3
  16   0   2 218.115   7.465   2
  16   0   2 219.708   7.561   3
 -16   0  -2 218.535   7.553   1
  18   0   2 1039.78   32.63   2
  18   0   2 1013.99   32.40   3
 -18   0  -2 1022.64   32.08   1
 -20   0  -2 56.4143  2.9400   1
  20   0   2 56.9297  2.9243   3
  20   0   2 63.1220  2.8252   2
 -22   0  -2 836.380  26.510   1
  22   0   2 818.129  26.727   3
  22   0   2 847.720  26.893   2
 -24   0  -2 13.0308  1.7257   1
  24   0   2 14.0218  1.5779   2
  24   0   2 15.4909  1.7964   3
  26   0   2 272.695   9.647   3
 -26   0  -2 265.130   9.616   1
  26   0   2 271.255   9.589   2
  28   0   2 3.78055 1.58249   3
 -28   0  -2 3.14918 1.35362   1
  28   0   2 4.96046 1.35291   2
  30   0   2 59.2755  3.2449   2
  30   0   2 55.0075  3.3580   3
 -30   0  -2 55.7892  3.3046   1
  32   0   2 2.55502 1.61012   3
 -32   0  -2 0.80213 1.40054   1
 -34   0  -2 46.3792  3.3110   1
  34   0   2 46.4829  3.2997   3
  36   0   2 13.0845  2.4129   3
 -36   0  -2 19.0330  2.4837   1
  38   0   2 112.147   5.520   3
 -38   0  -2 103.867   5.408   1
  40   0   2 19.9385  3.1730   3
 -40   0  -2 27.1946  3.1064   1
  42   0   2 49.4181  4.2489   3
 -42   0  -2 50.5920  3.9635   1
 -41   1   2 6.49689 2.24749   1
  39  -1  -2 24.5122  3.0194   2
 -39   1   2 25.7440  2.9886   1
  39   1  -2 25.6952  2.9522   3
  37  -1  -2 20.3719  2.7016   2
 -37   1   2 21.0280  2.6293   1
  37   1  -2 16.4857  2.5261   3
  35  -1  -2 20.4291  2.5127   3
  35  -1  -2 22.3187  2.6980   2
 -35   1   2 22.0611  2.6783   1
  35   1  -2 21.0660  2.4241   2
  35   1  -2 21.2860  2.5160   3
  33  -1  -2 71.8479  4.0554   3
  33  -1  -2 84.0684  4.4013   2
 -33  -1   2 80.5567  4.0534   1
  33   1  -2 80.9340  4.0818   2
 -33   1   2 82.1436  4.3679   1
  33   1  -2 80.5311  4.1981   3
  31  -1  -2 19.0362  2.3790   2
 -31  -1   2 18.8779  2.1659   1
  31  -1  -2 17.7648  2.2206   3
  31   1  -2 16.9648  2.1282   2
 -31   1   2 20.8391  2.3965   1
  31   1  -2 18.2841  2.2013   3
  29  -1  -2 189.398   7.090   3
 -29  -1   2 187.655   7.036   1
  29  -1  -2 183.975   7.386   2
  29   1  -2 176.895   7.095   3
 -29   1   2 196.874   7.407   1
  29   1  -2 182.711   7.139   2
 -27  -1   2 159.241   6.065   1
  27  -1  -2 162.306   6.131   3
  27  -1  -2 160.284   6.404   2
  27   1  -2 153.266   6.128   2
 -27   1   2 160.659   6.385   1
  27   1  -2 150.129   6.198   3
 -25  -1   2 138.598   5.182   1
  25  -1  -2 129.469   5.409   2
  25  -1  -2 134.811   5.151   3
  25   1  -2 122.391   5.160   2
 -25   1   2 128.337   5.423   1
  25   1  -2 126.194   5.238   3
  23  -1  -2 448.430  15.168   2
  23  -1  -2 446.588  14.706   3
 -23  -1   2 445.741  14.596   1
  23   1  -2 435.732  14.893   3
  23   1  -2 451.035  14.957   2
 -23   1   2 461.990  14.963   1
 -21  -1   2 35.1293  2.0837   1
  21  -1  -2 39.4997  2.2913   2
  21  -1  -2 35.6218  2.1300   3
 -21   1   2 37.1051  2.3149   1
  21   1  -2 33.7274  2.0369   2
  21   1  -2 38.0866  2.2177   3
  19  -1  -2 769.547  24.489   2
  19  -1  -2 736.932  23.900   3
 -19  -1   2 772.784  23.706   1
  19   1  -2 741.840  24.169   3
 -19   1   2 752.318  23.979   1
  19   1  -2 758.185  24.276   2
  17  -1  -2 6.61504 1.02316   2
  17   1  -2 8.01625 1.08546   3
  17   1  -2 7.38111 0.93232   2
 -17   1   2 6.82733 1.10107   1
  15  -1  -2 486.868  15.772   3
 -15  -1   2 493.410  15.634   1
  15  -1  -2 516.687  16.253   2
  15   1  -2 490.079  16.043   2
  15   1  -2 484.552  16.060   3
 -15   1   2 506.553  15.959   1
  13  -1  -2 382.475  12.122   3
  13  -1  -2 375.388  12.490   2
 -13  -1   2 384.079  12.024   1
  13   1  -2 376.080  12.368   2
 -11  -1   2 1008.56   30.29   1
  11  -1  -2 977.464  31.254   2
  11  -1  -2 976.310  30.643   3
  11   1  -2 985.848  30.970   3
 -11   1   2 980.348  30.587   1
  11   1  -2 991.368  31.155   2
   9  -1  -2 49.1276  1.9925   2
   9  -1  -2 47.6318  1.7219   3
  -9  -1   2 43.6585  1.7239   1
   9   1  -2 44.8430  2.0195   3
  -9   1   2 46.0693  2.0372   1
   9   1  -2 45.7502  1.8721   2
  -7  -1   2 4085.29  124.45   1
   7  -1  -2 4060.53  126.22   3
  -7   1   2 4111.61  125.87   1
   7   1  -2 4057.54  128.55   2
   5  -1  -2 55.4663  1.9260   3
  -5  -1   2 55.6680  1.8932   1
   5  -1  -2 53.7162  2.1643   2
   5  -1  -2 55.9557  2.1884   1
   5   1  -2 57.0004  2.2129   2
  -3  -1   2 6359.52  183.93   3
   3  -1  -2 6285.95  186.02   2
   3   1  -2 5144.63  186.08   2
   1  -1  -2 34.9240  1.3363   2
   1   1  -2 35.9324  1.2415   1
  -1   1   2 33.2575  1.2842   3
  -1  -1  -2 4264.63  131.17   1
  -1  -1  -2 4282.35  133.77   2
  -1   1  -2 4348.85  130.96   1
   1   1   2 4238.53  132.85   3
  -3  -1  -2 981.837  30.632   1
   3  -1   2 1016.66   31.08   3
   3   1   2 997.333  31.106   3
  -3   1  -2 1009.93   30.67   1
   5  -1   2 1464.13   45.11   2
  -5  -1  -2 1433.53   44.09   1
   5  -1   2 1414.40   44.97   3
   5   1   2 1437.54   44.89   2
   7  -1   2 484.066  15.264   2
  -7  -1  -2 471.141  14.839   1
   7  -1   2 470.506  15.040   3
   7   1   2 476.301  14.945   2
   9  -1   2 1342.75   42.36   2
   9  -1   2 1350.03   41.84   3
  -9  -1  -2 1358.53   41.28   1
   9   1   2 1334.05   42.06   2
  11  -1   2 5.63538 0.73987   2
 -11  -1  -2 3.73334 0.63800   1
  11   1   2 4.83125 0.50347   2
  13  -1   2 187.891   6.504   3
  13  -1   2 190.439   6.616   2
  13   1   2 197.205   6.667   3
 -13   1  -2 190.342   6.639   1
  13   1   2 189.498   6.322   2
 -15  -1  -2 44.0642  2.1076   1
  15  -1   2 41.5971  2.0984   3
  15  -1   2 38.6643  2.0450   2
  15   1   2 41.8461  2.1781   3
 -15   1  -2 40.1742  2.1961   1
  15   1   2 40.8884  1.7966   2
 -17  -1  -2 868.578  27.439   1
  17  -1   2 875.320  27.780   3
  17  -1   2 889.535  28.138   2
  17   1   2 882.111  27.826   2
  17   1   2 867.338  27.894   3
 -17   1  -2 880.755  27.653   1
  19  -1   2 537.138  17.556   3
 -19  -1  -2 538.922  17.368   1
  19  -1   2 551.183  17.794   2
  19   1   2 544.318  17.674   3
  19   1   2 536.318  17.452   2
 -19   1  -2 533.201  17.555   1
  21  -1   2 376.618  12.652   3
  21  -1   2 383.708  12.823   2
 -21  -1  -2 374.239  12.533   1
  21   1   2 380.076  12.504   2
  21   1   2 372.993  12.729   3
 -21   1  -2 374.226  12.723   1
  23  -1   2 210.672   7.644   3
  23  -1   2 211.964   7.722   2
 -23  -1  -2 214.302   7.606   1
  23   1   2 211.426   7.415   2
 -23   1  -2 202.766   7.739   1
  23   1   2 207.167   7.691   3
 -25  -1  -2 84.5219  3.7845   1
  25  -1   2 76.9049  3.7446   2
  25  -1   2 82.6260  3.8268   3
  25   1   2 75.2429  3.7920   3
 -25   1  -2 80.6503  3.9402   1
  25   1   2 79.5437  3.5206   2
  27  -1   2 37.1040  2.7030   3
  27  -1   2 31.4954  2.3464   2
 -27  -1  -2 32.2074  2.3046   1
  27   1   2 31.2519  2.1552   2
  27   1   2 33.1955  2.5330   3
 -27   1  -2 29.9007  2.4935   1
  29  -1   2 58.4572  3.4678   3
  29  -1   2 55.7566  3.2182   2
 -29  -1  -2 57.3472  3.2552   1
  29   1   2 53.8784  3.2943   3
 -29   1  -2 58.3095  3.4233   1
  31  -1   2 13.8589  1.9913   2
 -31  -1  -2 14.6049  2.0346   1
  31  -1   2 15.8281  2.2573   3
  31   1   2 13.2817  2.1051   3
 -31   1  -2 15.2443  2.1842   1
  33  -1   2 14.8134  2.3436   3
 -33  -1  -2 16.1009  2.1457   1
  33  -1   2 11.3765  2.0457   2
  33   1   2 10.3122  2.1784   3
 -33   1  -2 13.4940  2.0946   1
  35  -1   2 83.7229  4.5686   3
 -35  -1  -2 88.1585  4.4989   1
  35   1   2 78.4393  4.4465   3
 -35   1  -2 84.6982  4.6495   1
  37  -1   2 13.6787  2.6981   3
 -37  -1  -2 17.1322  2.4678   1
 -37   1  -2 15.3119  2.5365   1
  37   1   2 15.6291  2.6433   3
  39  -1   2 91.0475  5.0880   3
 -39  -1  -2 92.2907  4.9215   1
  39   1   2 91.9590  5.0293   3
 -39   1  -2 85.1120  4.9398   1
  41  -1   2 1.29815 2.41468   3
  41   1   2 2.22548 2.43583   3
 -41   1  -2 1.39423 2.03926   1
  43   1   2 21.1525  3.3030   3
 -43   1  -2 23.8729  3.1281   1
 -45   1  -2 -0.9987  2.0091   1
  45   1   2 -1.6480  2.4540   3
 -44   2   2 36.4346  3.8836   1
  42   2  -2 -2.3965  2.0153   3
 -42   2   2 -3.4891  1.7054   1
  40  -2  -2 21.6817  3.0382   2
  40   2  -2 16.8041  2.7745   3
 -40   2   2 16.4581  2.7396   1
  38  -2  -2 1.75609 1.80668   2
 -38   2   2 -1.5035  1.6133   1
  38   2  -2 -1.1386  1.6662   3
  36  -2  -2 1.14225 1.63878   2
 -36   2   2 1.64800 1.79839   1
  36   2  -2 1.42343 1.61329   3
  34  -2  -2 7.99234 1.92797   2
  34   2  -2 7.14974 1.88744   3
 -34   2   2 5.27622 1.87620   1
  32  -2  -2 73.1370  4.1934   2
  32  -2  -2 76.0788  3.9588   3
  32   2  -2 73.4489  3.7791   2
 -32   2   2 78.4132  4.2286   1
  32   2  -2 72.9874  3.9792   3
  30  -2  -2 14.1618  2.0376   3
 -30  -2   2 11.7016  1.6952   1
  30  -2  -2 16.1056  2.3270   2
  30   2  -2 15.7910  2.1258   3
 -30   2   2 9.97413 1.96943   1
  30   2  -2 13.9656  1.8683   2
  28  -2  -2 456.233  16.071   2
 -28  -2   2 467.649  15.168   1
  28  -2  -2 462.401  15.443   3
  28   2  -2 450.691  15.720   3
  28   2  -2 475.506  15.646   2
 -28   2   2 457.229  15.750   1
  26  -2  -2 1.49357 1.24577   3
 -26  -2   2 2.19798 1.11609   1
  26  -2  -2 3.88241 1.53418   2
  26   2  -2 1.15554 1.17418   2
 -26   2   2 0.77090 1.36202   1
  26   2  -2 0.16924 1.29977   3
  24  -2  -2 745.477  24.115   2
 -24  -2   2 732.096  23.009   1
  24  -2  -2 709.583  23.335   3
 -24   2   2 751.734  23.679   1
  24   2  -2 698.807  23.716   3
  24   2  -2 729.700  23.634   2
  22  -2  -2 22.2819  1.8640   3
  22  -2  -2 19.8645  1.9813   2
 -22  -2   2 22.0587  1.6323   1
  22   2  -2 19.3519  1.6006   2
  22   2  -2 21.4293  1.9854   3
 -22   2   2 19.7762  2.1112   1
  20  -2  -2 116.632   4.324   3
  20  -2  -2 114.737   4.719   2
 -20  -2   2 111.215   4.174   1
 -20   2   2 113.237   4.761   1
  20   2  -2 102.202   4.619   3
  20   2  -2 112.975   4.345   2
  18  -2  -2 75.8459  3.1449   3
  18  -2  -2 82.7861  3.5788   2
  18   2  -2 81.1539  3.2312   2
  18   2  -2 73.7716  3.5690   3
 -18   2   2 82.9304  3.6228   1
 -16  -2   2 226.091   7.306   1
  16  -2  -2 233.758   7.950   2
  16   2  -2 217.663   7.576   2
 -16   2   2 233.244   7.913   1
  16   2  -2 203.307   7.842   3
 -14  -2   2 145.679   4.795   1
  14  -2  -2 139.702   5.292   2
  14  -2  -2 140.227   4.889   3
  14   2  -2 140.477   5.375   3
  14   2  -2 145.985   5.085   2
 -14   2   2 146.768   5.383   1
  12  -2  -2 288.804   8.959   3
 -12  -2   2 286.842   8.780   1
  12  -2  -2 277.711   9.432   2
  12   2  -2 275.074   9.219   2
 -12   2   2 271.397   9.359   1
  12   2  -2 267.482   9.456   3
 -10  -2   2 1423.94   43.42   1
  10  -2  -2 1441.03   43.99   3
  10   2  -2 1401.05   44.74   2
   8  -2  -2 1681.63   50.95   3
  -8  -2   2 1617.94   50.29   1
   8   2  -2 1650.43   51.82   2
   6  -2  -2 898.746  29.143   2
   6  -2  -2 938.705  28.547   3
   6   2  -2 925.875  29.172   2
   4  -2  -2 1914.68   59.12   3
   4  -2  -2 1943.49   58.58   1
   4  -2  -2 1859.84   59.84   2
   4   2  -2 1914.25   59.82   2
   2  -2  -2 280.924   9.065   1
   2  -2  -2 268.105   9.194   2
   2   2  -2 294.069   8.810   1
   2   2  -2 293.902   9.386   2
   0  -2  -2 139.536   4.656   2
   0  -2  -2 142.917   4.656   1
   0  -2   2 135.661   4.731   3
   0   2  -2 139.890   4.513   1
  -2  -2  -2 140.012   4.476   2
  -2  -2  -2 136.486   4.488   1
   2  -2   2 132.784   4.591   3
   2   2   2 131.524   4.610   3
  -2   2  -2 133.130   4.471   1
   4  -2   2 67.7575  2.5984   3
  -4  -2  -2 69.0032  2.4966   1
   4   2   2 70.4598  2.4223   2
   4   2   2 70.6107  2.7143   3
  -4   2  -2 68.6052  2.5910   1
  -6  -2  -2 82.6037  2.9398   1
   6  -2   2 85.4569  3.0561   3
   6  -2   2 81.8495  3.1963   2
  -6   2  -2 86.8914  3.1505   1
   6   2   2 79.4329  2.8063   2
   6   2   2 78.9125  3.1730   3
   8  -2   2 32.9535  1.5530   3
   8  -2   2 24.6555  1.4942   2
  -8  -2  -2 32.3729  1.4451   1
  -8   2  -2 30.4396  1.6019   1
   8   2   2 26.9050  1.1596   2
  10  -2   2 529.386  17.268   2
 -10  -2  -2 542.464  16.659   1
  10   2   2 524.524  16.764   2
  12  -2   2 205.325   7.034   2
  12  -2   2 202.942   6.802   3
  12   2   2 190.468   6.972   3
  12   2   2 196.840   6.476   2
  14  -2   2 1187.97   36.75   3
 -14  -2  -2 1151.36   36.20   1
  14  -2   2 1191.05   37.36   2
  14   2   2 1152.39   36.98   3
 -14   2  -2 1159.00   36.52   1
  14   2   2 1193.19   36.81   2
  16  -2   2 227.935   7.800   3
  16  -2   2 233.185   8.068   2
 -16  -2  -2 223.684   7.658   1
 -16   2  -2 223.055   7.990   1
  16   2   2 219.798   7.995   3
  16   2   2 226.363   7.477   2
  18  -2   2 1033.81   32.57   3
 -18  -2  -2 1014.45   32.07   1
  18  -2   2 1029.18   33.11   2
  18   2   2 1023.45   32.79   3
  18   2   2 1037.85   32.54   2
 -18   2  -2 1040.99   32.46   1
  20  -2   2 8.38773 1.51033   2
  20  -2   2 8.99077 1.43950   3
 -20  -2  -2 7.42402 1.28978   1
  20   2   2 8.28020 1.48881   3
 -20   2  -2 8.28741 1.51562   1
  20   2   2 8.83744 1.07512   2
  22  -2   2 448.779  15.163   2
 -22  -2  -2 443.967  14.572   1
  22  -2   2 430.587  14.806   3
 -22   2  -2 459.892  15.022   1
  22   2   2 454.318  14.577   2
  22   2   2 431.156  14.994   3
 -24  -2  -2 34.9144  2.4102   1
  24  -2   2 36.8526  2.6077   2
  24  -2   2 41.6682  2.7859   3
 -24   2  -2 39.1784  2.7570   1
  24   2   2 38.2382  2.1373   2
  24   2   2 35.1110  2.5937   3
  26  -2   2 24.1232  2.2476   2
  26  -2   2 30.3820  2.4181   3
 -26  -2  -2 28.0601  2.1581   1
 -26   2  -2 26.1521  2.4842   1
  26   2   2 23.1348  2.3052   3
  28  -2   2 2.35521 1.48849   3
 -28  -2  -2 1.28490 1.15517   1
  28  -2   2 2.24621 1.39672   2
  28   2   2 0.27432 1.33007   3
 -28   2  -2 0.20084 1.31882   1
 -30  -2  -2 67.4260  3.4679   1
  30  -2   2 64.0492  3.7172   3
  30  -2   2 59.4343  3.5714   2
  30   2   2 53.2640  3.4698   3
 -30   2  -2 60.2707  3.7839   1
  32  -2   2 4.23588 1.69660   2
  32  -2   2 6.59253 1.80678   3
 -32  -2  -2 4.11045 1.57892   1
  32   2   2 2.77535 1.66501   3
 -32   2  -2 6.74845 1.80541   1
  34  -2   2 136.669   6.247   3
 -34  -2  -2 139.616   5.986   1
  34  -2   2 138.198   6.362   2
  34   2   2 136.802   6.219   3
 -34   2  -2 144.327   6.482   1
  36  -2   2 24.4222  2.9400   3
 -36   2  -2 20.8972  2.8188   1
  36   2   2 22.0604  2.8193   3
  38  -2   2 54.8695  3.9560   3
  38   2   2 44.6578  3.6311   3
 -38   2  -2 49.2999  3.8845   1
 -40   2  -2 9.43885 2.41753   1
  40   2   2 5.78807 2.32799   3
 -42   2  -2 7.88555 2.43788   1
  42   2   2 4.56977 2.54310   3
  44   2   2 -4.9106  2.2297   3
 -44   2  -2 5.70087 2.48396   1
 -45   3   2 22.3239  3.3890   1
  43  -3  -2 3.86605 2.27562   2
 -43   3   2 4.83121 2.42597   1
  43   3  -2 1.91129 2.24694   3
  41  -3  -2 5.63524 2.21423   2
  41   3  -2 2.67111 2.23598   3
 -41   3   2 8.11495 2.43697   1
 -39   3   2 1.66839 2.08170   1
  39   3  -2 -0.9874  1.8951   3
  37  -3  -2 -1.2552  1.5919   2
 -37   3   2 -2.1499  1.5385   1
  37   3  -2 -2.9063  1.6597   3
  35  -3  -2 4.04853 1.90857   2
 -35   3   2 3.77009 1.99220   1
  35   3  -2 2.14101 1.82962   3
  33  -3  -2 1.85172 1.76630   2
 -33   3   2 5.46257 1.97638   1
  33   3  -2 4.75072 1.81044   3
  31  -3  -2 19.9320  2.6363   2
 -31   3   2 19.0526  2.5235   1
  31   3  -2 23.5904  2.6645   3
  29  -3  -2 123.147   5.287   3
  29  -3  -2 126.185   5.882   2
  29   3  -2 118.857   5.615   3
 -29   3   2 131.127   5.867   1
  29   3  -2 127.438   5.230   2
  27  -3  -2 231.835   9.105   2
  27  -3  -2 218.037   8.358   3
  27   3  -2 233.564   8.938   3
 -27   3   2 248.151   9.140   1
  27   3  -2 237.375   8.453   2
  25  -3  -2 108.353   5.145   2
 -25  -3   2 114.451   4.482   1
  25  -3  -2 111.587   4.683   3
 -25   3   2 110.349   5.200   1
  25   3  -2 115.888   4.691   2
  25   3  -2 116.402   5.250   3
 -23  -3   2 501.098  16.200   1
  23  -3  -2 499.629  16.531   3
  23  -3  -2 480.014  17.260   2
  23   3  -2 520.773  16.746   2
 -23   3   2 537.394  17.174   1
  23   3  -2 506.893  17.203   3
 -21  -3   2 61.5426  2.8162   1
  21  -3  -2 77.2100  3.1001   3
  21  -3  -2 64.7736  3.4846   2
  21   3  -2 72.8587  3.6933   3
  21   3  -2 67.9907  3.0445   2
 -21   3   2 77.2300  3.7991   1
  19  -3  -2 122.264   5.056   2
  19  -3  -2 121.413   4.464   3
 -19  -3   2 103.985   4.183   1
 -19   3   2 119.733   5.056   1
  19   3  -2 131.549   5.235   3
  19   3  -2 123.438   4.565   2
 -17  -3   2 30.0187  1.5344   1
  17  -3  -2 32.3184  2.1828   2
 -17   3   2 32.2023  2.2276   1
  17   3  -2 31.0369  1.7277   2
  17   3  -2 29.8142  2.2231   3
  15  -3  -2 11.9367  1.0429   3
 -15  -3   2 11.5490  0.9108   1
  15  -3  -2 7.53128 1.17157   2
  15   3  -2 12.3930  1.0994   2
 -15   3   2 9.70007 1.39196   1
  15   3  -2 9.13702 1.37810   3
  13  -3  -2 76.5977  2.8565   3
 -13  -3   2 74.4484  2.6207   1
  13   3  -2 73.3408  3.0309   2
  13   3  -2 72.3240  3.4729   3
 -13   3   2 70.9902  3.4047   1
  11  -3  -2 1695.37   51.62   3
 -11  -3   2 1690.87   50.70   1
  11   3  -2 1609.85   52.46   2
   9  -3  -2 25.3914  1.3123   3
   9  -3  -2 21.3525  1.6161   2
  -9  -3   2 24.6288  1.0496   1
   9   3  -2 22.1916  1.5207   2
   7  -3  -2 2372.69   72.88   3
  -7  -3   2 2363.52   71.79   1
   7   3  -2 2341.52   74.26   2
  -5  -3   2 1482.26   46.10   1
   5  -3  -2 1529.87   46.95   3
   5   3  -2 1532.95   47.81   2
   3  -3  -2 1708.01   53.83   1
   3  -3  -2 1769.10   55.19   2
   3   3  -2 1792.86   55.33   2
   1  -3  -2 46.2962  1.9268   2
  -1  -3   2 33.3802  1.8680   3
   1  -3  -2 44.4456  1.9197   1
   1   3  -2 44.9869  1.7521   1
   1   3  -2 42.6913  2.1199   2
   1  -3   2 415.016  14.042   3
  -1  -3  -2 440.779  14.098   2
  -1  -3  -2 444.417  13.824   1
  -1   3  -2 449.229  13.747   1
   3  -3   2 320.612  11.074   3
  -3  -3  -2 346.514  10.869   1
  -3   3  -2 355.759  10.945   1
  -5  -3  -2 27.3036  1.3794   1
  -5   3  -2 27.5402  1.5442   1
   5   3   2 24.7735  1.6055   3
   5   3   2 24.2347  1.3102   2
   7  -3   2 549.105  17.618   2
  -7  -3  -2 541.113  16.857   1
   7   3   2 526.460  17.427   3
  -7   3  -2 540.463  17.120   1
   7   3   2 538.774  17.173   2
   9  -3   2 696.344  22.333   2
  -9  -3  -2 692.261  21.441   1
   9   3   2 664.254  22.092   3
  -9   3  -2 701.769  21.768   1
   9   3   2 691.618  21.811   2
  11  -3   2 228.271   7.605   3
  11  -3   2 232.361   7.950   2
  11   3   2 195.629   7.780   3
  11   3   2 229.062   7.313   2
 -11   3  -2 227.128   7.763   1
  13  -3   2 681.383  21.742   3
  13  -3   2 676.563  22.252   2
 -13   3  -2 690.455  21.779   1
  13   3   2 680.865  21.574   2
  15  -3   2 2.01409 1.10151   2
 -15  -3  -2 4.46396 0.90968   1
  15  -3   2 3.13466 0.93907   3
  15   3   2 4.13314 1.13662   3
  15   3   2 3.00226 0.60272   2
  17  -3   2 804.542  26.506   3
 -17  -3  -2 842.092  26.089   1
  17  -3   2 842.714  27.153   2
  17   3   2 837.430  26.352   2
  17   3   2 837.843  26.922   3
 -19  -3  -2 172.023   6.269   1
  19  -3   2 163.720   6.697   2
  19  -3   2 178.811   6.502   3
  19   3   2 189.278   6.881   3
  19   3   2 169.625   5.981   2
 -21  -3  -2 247.410   8.664   1
  21  -3   2 252.303   9.303   2
  21  -3   2 248.032   8.868   3
  21   3   2 252.228   9.219   3
  21   3   2 253.171   8.440   2
 -21   3  -2 253.641   9.217   1
  23  -3   2 78.1614  4.1593   2
  23  -3   2 85.3784  4.0054   3
 -23  -3  -2 87.0845  3.7815   1
  23   3   2 84.5876  4.1644   3
 -23   3  -2 88.7219  4.3555   1
 -25  -3  -2 26.7482  2.2370   1
  25  -3   2 31.8330  2.3932   3
  25  -3   2 29.8635  2.5707   2
  25   3   2 33.2374  2.6077   3
 -25   3  -2 27.7477  2.6127   1
 -27  -3  -2 0.07887 1.02611   1
  27  -3   2 0.59307 1.22579   3
  27  -3   2 -1.2805  1.2100   2
 -27   3  -2 -1.9465  1.3044   1
  27   3   2 -0.0712  1.3569   3
 -29  -3  -2 5.89668 1.47631   1
  29  -3   2 5.90432 1.79411   2
  29  -3   2 11.2401  1.9052   3
  29   3   2 4.32709 1.71259   3
 -29   3  -2 5.21294 1.78954   1
 -31  -3  -2 58.1541  3.3626   1
  31  -3   2 62.5818  3.8525   2
  31  -3   2 61.0354  3.7343   3
 -31   3  -2 57.6281  3.8090   1
  31   3   2 62.5945  3.7693   3
  33  -3   2 40.4025  3.3076   2
  33  -3   2 41.9457  3.3072   3
  33   3   2 38.1042  3.1607   3
 -33   3  -2 39.3272  3.2940   1
  35  -3   2 58.7600  4.0234   2
  35  -3   2 58.4774  3.9288   3
  35   3   2 56.1026  3.9651   3
 -35   3  -2 54.3847  4.0565   1
  37  -3   2 10.9667  2.4028   2
  37   3   2 12.3908  2.6310   3
 -37   3  -2 14.8364  2.7054   1
 -39   3  -2 7.62350 2.39734   1
  39   3   2 6.76578 2.57294   3
  41   3   2 -2.2500  2.0132   3
 -41   3  -2 0.34775 2.01909   1
 -43   3  -2 5.67620 2.43922   1
  43   3   2 2.97343 2.50314   3
  44  -4  -2 8.88586 2.80388   2
 -44   4   2 6.84236 2.60171   1
  44   4  -2 11.4063  2.9361   3
  42  -4  -2 2.22026 2.34906   2
 -42   4   2 4.14908 2.41192   1
  42   4  -2 1.25398 2.25948   3
  40  -4  -2 9.76275 2.61650   2
 -40   4   2 6.71317 2.43488   1
  40   4  -2 7.29395 2.46480   3
  38  -4  -2 3.21379 2.20052   2
  38   4  -2 -0.8288  1.9926   3
 -38   4   2 2.47781 2.22145   1
  36  -4  -2 14.0934  2.6613   2
  36   4  -2 10.2797  2.3537   3
 -36   4   2 10.4466  2.5311   1
  34  -4  -2 2.17396 1.82424   2
  34   4  -2 0.49297 1.78451   3
 -34   4   2 0.00785 1.78052   1
  32  -4  -2 22.6012  2.9339   2
  32   4  -2 21.8884  2.8515   3
 -32   4   2 21.0609  2.8346   1
  30  -4  -2 4.32348 1.87425   2
 -30   4   2 3.99367 1.95458   1
  30   4  -2 3.57908 1.86073   3
  28  -4  -2 54.8582  3.8019   2
  28   4  -2 56.6271  3.7631   3
 -28   4   2 50.4504  3.7034   1
  28   4  -2 56.5953  3.0888   2
  26  -4  -2 2.89576 1.79647   2
  26   4  -2 4.13349 1.28672   2
 -26   4   2 2.64082 1.72270   1
  26   4  -2 6.24858 1.94060   3
  24  -4  -2 210.785   7.592   3
  24  -4  -2 204.686   8.401   2
  24   4  -2 215.401   8.396   3
  24   4  -2 211.446   7.601   2
 -24   4   2 211.407   8.338   1
  22  -4  -2 66.7440  3.1734   3
  22  -4  -2 62.2893  3.7749   2
  22   4  -2 75.2478  3.2364   2
  22   4  -2 73.0154  3.9828   3
 -22   4   2 68.6037  3.8223   1
  20  -4  -2 80.9649  3.3902   3
  20  -4  -2 77.0378  4.0336   2
 -20   4   2 80.0645  4.0551   1
  20   4  -2 78.0097  4.1087   3
  20   4  -2 83.7889  3.4629   2
  18  -4  -2 15.4409  1.3679   3
  18  -4  -2 14.7634  1.7914   2
 -18  -4   2 16.3005  1.1354   1
  18   4  -2 13.8551  1.2952   2
  18   4  -2 15.0061  1.9411   3
 -16  -4   2 15.1546  1.0194   1
  16  -4  -2 12.4398  1.5775   2
  16  -4  -2 13.5425  1.1884   3
  16   4  -2 14.0167  1.2873   2
  16   4  -2 13.3837  1.8057   3
 -16   4   2 7.71489 1.31939   1
 -14  -4   2 8.99903 0.80889   1
  14   4  -2 8.10757 1.49837   3
  14   4  -2 5.71030 0.94846   2
 -12  -4   2 26.5484  1.2131   1
  12  -4  -2 23.7369  1.7871   2
  12  -4  -2 23.1433  1.4312   3
 -12   4   2 25.8981  2.0475   1
  12   4  -2 22.6842  1.6409   2
  10  -4  -2 75.2367  2.9071   3
 -10  -4   2 73.1626  2.5521   1
  10  -4  -2 68.1438  3.2225   2
 -10   4   2 68.6140  3.3542   1
  10   4  -2 70.9772  3.1401   2
   8  -4  -2 612.440  19.214   3
   8  -4  -2 595.058  19.797   2
  -8  -4   2 613.672  18.678   1
   8   4  -2 600.338  19.717   2
   6  -4  -2 51.6935  2.5957   2
   6  -4  -2 57.8244  2.4421   3
  -6  -4   2 54.4055  2.1026   1
   6  -4  -2 51.0938  2.6325   1
   6   4  -2 59.2044  2.7450   2
   4  -4  -2 1161.39   36.89   2
   4  -4  -2 1174.06   36.01   1
  -4  -4   2 1163.73   35.55   1
   4   4  -2 1142.33   36.98   2
   2  -4  -2 640.960  22.041   1
   2   4  -2 733.167  22.864   2
   2   4  -2 736.971  21.866   1
   0  -4   2 369.354  12.219   3
   0   4  -2 370.365  11.837   1
   2  -4   2 279.161   9.567   3
  -2   4  -2 289.538   9.356   1
   4  -4   2 13.6328  1.2668   3
  -4   4  -2 15.8944  1.2986   1
   6  -4   2 299.153  10.069   3
   6   4   2 299.054   9.998   2
   6   4   2 304.206  10.310   3
  -6   4  -2 299.980   9.984   1
   8  -4   2 10.3913  1.2238   3
   8   4   2 12.1449  1.4464   3
  -8   4  -2 11.0445  1.2946   1
   8   4   2 12.3350  1.0698   2
  10  -4   2 234.793   8.116   3
  10  -4   2 230.287   8.436   2
  10   4   2 230.858   7.896   2
  10   4   2 238.838   8.465   3
 -10   4  -2 242.637   8.241   1
 -12  -4  -2 90.7158  3.6368   1
  12  -4   2 97.3009  3.9276   3
  12  -4   2 90.1312  4.1161   2
  12   4   2 98.3448  3.5699   2
 -12   4  -2 96.8221  4.0908   1
  12   4   2 95.1234  4.2371   3
 -14  -4  -2 191.949   6.500   1
  14  -4   2 199.354   6.794   3
  14  -4   2 180.937   7.107   2
  14   4   2 169.218   6.299   2
 -14   4  -2 204.953   7.101   1
  14   4   2 175.986   7.087   3
 -16  -4  -2 35.7132  2.0855   1
  16  -4   2 29.6881  2.5039   2
  16  -4   2 36.2029  2.3271   3
 -16   4  -2 27.9300  2.3849   1
  16   4   2 31.6476  1.6937   2
  18  -4   2 192.755   7.535   2
 -18  -4  -2 196.796   6.855   1
  18  -4   2 195.487   7.103   3
  18   4   2 188.364   6.552   2
 -20  -4  -2 1.52400 0.99794   1
  20  -4   2 -0.2584  1.2885   2
  20  -4   2 2.60878 1.15965   3
  20   4   2 0.88971 0.67565   2
  20   4   2 0.63928 1.25301   3
 -20   4  -2 -0.6174  0.3161   1
 -22  -4  -2 108.380   4.443   1
  22  -4   2 104.213   4.609   3
  22  -4   2 110.055   5.075   2
  22   4   2 107.753   5.015   3
 -22   4  -2 107.217   4.960   1
  24  -4   2 -0.5840  1.2027   2
 -24  -4  -2 0.26749 1.05840   1
  24  -4   2 1.52635 1.20248   3
  24   4   2 1.52884 1.42255   3
 -24   4  -2 0.33102 1.34207   1
  26  -4   2 5.23754 1.44974   3
  26  -4   2 2.50008 1.50378   2
 -26  -4  -2 5.82610 1.38856   1
  26   4   2 4.03469 1.62840   3
 -26   4  -2 5.69595 1.80825   1
  28  -4   2 0.23936 1.20420   3
  28  -4   2 -1.3696  1.4038   2
  28   4   2 -0.9504  1.4551   3
 -28   4  -2 -1.1259  1.4489   1
  30  -4   2 33.1285  2.9985   2
  30  -4   2 31.8516  2.6325   3
  30   4   2 32.4364  2.9726   3
 -30   4  -2 32.5190  3.0303   1
  32  -4   2 0.79240 1.54496   3
  32  -4   2 2.92019 1.86581   2
 -32   4  -2 2.42793 1.85752   1
  32   4   2 3.39097 1.87357   3
  34  -4   2 33.9977  3.2797   2
  34   4   2 33.0377  3.1869   3
 -34   4  -2 31.9000  3.4840   1
  36  -4   2 2.55486 1.98133   2
  36   4   2 5.71950 2.20695   3
 -36   4  -2 2.16551 2.22248   1
  38  -4   2 22.2595  3.2212   2
 -38   4  -2 20.2687  3.0823   1
  38   4   2 21.4576  3.1558   3
 -40   4  -2 2.74512 2.31887   1
  40   4   2 1.96919 2.30005   3
 -42   4  -2 9.02299 2.83031   1
  42   4   2 5.73765 2.64966   3
  43  -5  -2 1.61468 2.44494   2
  41  -5  -2 2.03342 2.30614   2
  41   5  -2 1.73545 2.20526   3
 -41   5   2 2.66112 2.26780   1
  39  -5  -2 3.07036 2.15461   2
  39   5  -2 4.00538 2.26796   3
 -39   5   2 3.12795 2.25565   1
  37  -5  -2 6.93936 2.37765   2
 -37   5   2 11.1372  2.6586   1
  37   5  -2 13.3735  2.7656   3
  35  -5  -2 2.13639 2.06122   2
 -35   5   2 0.26362 2.01351   1
  35   5  -2 3.15965 2.14552   3
  33  -5  -2 21.6338  3.1185   2
 -33   5   2 25.8335  3.2158   1
  33   5  -2 19.7043  2.9501   3
  31   5  -2 1.72791 2.08528   3
 -31   5   2 -0.2531  1.8478   1
  29  -5  -2 24.4755  3.0283   2
  29   5  -2 18.3495  2.7873   3
 -29   5   2 21.9975  2.9568   1
  27  -5  -2 9.84106 2.18834   2
  27   5  -2 7.85465 2.15543   3
 -27   5   2 8.77698 2.22570   1
  25  -5  -2 7.63286 1.88976   2
  25   5  -2 7.87713 1.43096   2
  25   5  -2 8.61930 2.10549   3
 -25   5   2 11.8990  2.1836   1
  23  -5  -2 16.3431  2.2505   2
  23   5  -2 20.0379  1.8214   2
 -23   5   2 18.3005  2.3593   1
  23   5  -2 24.4627  2.7794   3
  21  -5  -2 2.47068 1.42417   2
  21  -5  -2 3.34334 1.11442   3
  21   5  -2 2.85392 1.00336   2
 -21   5   2 3.67396 1.46461   1
  21   5  -2 2.85836 1.48954   3
  19  -5  -2 10.2945  1.7349   2
  19  -5  -2 15.1990  1.5352   3
  19   5  -2 14.4949  2.0587   3
  19   5  -2 13.7701  1.4585   2
 -19   5   2 8.35453 1.43856   1
  15  -5  -2 63.4594  2.6920   3
 -15   5   2 49.4944  3.0724   1
  15   5  -2 41.7738  3.0576   3
  15   5  -2 61.7418  2.8925   2
  13  -5  -2 79.2290  3.7889   2
  13  -5  -2 79.8183  3.3147   3
 -13  -5   2 79.9565  2.8726   1
  13   5  -2 77.0704  3.5075   2
 -13   5   2 76.3038  3.9053   1
  11  -5  -2 32.1489  2.3683   2
  11  -5  -2 38.5376  2.0219   3
 -11  -5   2 33.8054  1.5743   1
 -11   5   2 36.7431  2.6291   1
  11   5  -2 33.8482  2.2414   2
   9  -5  -2 17.2279  1.4889   3
   9  -5  -2 17.6077  1.7085   2
  -9  -5   2 18.8709  1.2063   1
   9   5  -2 17.4227  1.7317   2
  -9   5   2 16.4907  1.8682   1
   7  -5  -2 48.0957  2.6536   3
   7  -5  -2 66.1676  3.2130   2
  -7  -5   2 65.3226  2.4851   1
   7   5  -2 64.3984  3.1807   2
   5  -5  -2 5.83836 1.27937   2
  -5  -5   2 6.84459 0.95706   1
   5  -5  -2 7.03148 1.39159   1
   5   5  -2 7.49094 1.40683   2
   3  -5  -2 231.149   8.473   2
   3  -5  -2 222.321   8.229   1
   3   5  -2 261.807   8.035   1
   3   5  -2 239.609   8.680   2
   1  -5  -2 11.2770  1.3608   1
   1   5  -2 8.42578 1.16850   1
   1  -5   2 144.813   5.687   3
  -1  -5  -2 149.920   5.514   1
  -1   5  -2 157.568   5.499   1
  -3  -5  -2 47.4487  2.3156   1
   3  -5   2 43.7003  2.4400   3
  -3   5  -2 44.4331  2.4005   1
  -5  -5  -2 41.7541  2.0957   1
   5  -5   2 39.5416  2.2795   3
  -5   5  -2 43.1137  2.3356   1
   5   5   2 33.6922  2.0810   2
  -7  -5  -2 34.7134  1.9397   1
   7  -5   2 36.5296  2.1795   3
   7   5   2 36.4914  2.4159   3
  -7   5  -2 33.3731  2.1437   1
   7   5   2 32.4832  1.9732   2
   9  -5   2 51.7795  2.7094   3
  -9  -5  -2 49.4627  2.3662   1
   9   5   2 46.4541  2.4082   2
   9   5   2 47.0152  2.9394   3
  -9   5  -2 51.4621  2.7160   1
  11  -5   2 4.15127 1.16298   3
  11  -5   2 4.29261 1.24491   2
 -11  -5  -2 5.87434 1.04328   1
 -11   5  -2 3.44157 1.21626   1
  11   5   2 4.67272 0.89210   2
  11   5   2 5.59537 1.46364   3
 -13  -5  -2 56.0829  2.6015   1
  13  -5   2 46.8159  3.1116   2
  13  -5   2 55.3723  2.8850   3
  13   5   2 60.9638  3.3777   3
  13   5   2 50.1627  2.4966   2
 -13   5  -2 57.2941  3.0999   1
  15  -5   2 4.62830 1.41133   2
  15  -5   2 7.50617 1.39340   3
 -15  -5  -2 7.29668 1.16711   1
  15   5   2 7.10747 0.99330   2
  15   5   2 2.90017 1.21337   3
 -15   5  -2 8.36893 1.65969   1
  17  -5   2 115.091   4.680   3
 -17  -5  -2 113.752   4.343   1
  17  -5   2 100.550   4.919   2
  17   5   2 105.433   4.090   2
 -17   5  -2 107.779   4.967   1
 -19  -5  -2 92.7546  3.8306   1
  19  -5   2 91.1460  4.1226   3
  19  -5   2 87.3905  4.4572   2
 -19   5  -2 91.5633  4.5017   1
  19   5   2 83.6388  4.5100   3
  21  -5   2 2.46154 1.25712   3
 -21  -5  -2 0.78495 0.96499   1
  21  -5   2 -0.2893  1.4094   2
  21   5   2 0.90617 1.44452   3
 -21   5  -2 2.00798 1.43035   1
  23  -5   2 63.9222  3.9999   2
  23  -5   2 66.5266  3.5303   3
  23   5   2 64.0623  3.9264   3
 -23   5  -2 64.4096  3.8563   1
  25  -5   2 3.56329 1.38002   3
  25  -5   2 2.84994 1.64257   2
  25   5   2 2.64599 1.75435   3
 -25   5  -2 4.27697 1.68636   1
  27  -5   2 2.76168 1.36711   3
  27  -5   2 0.73020 1.67993   2
 -27   5  -2 0.74997 1.64401   1
  27   5   2 2.66094 1.67676   3
  29  -5   2 5.49498 1.82099   2
  29  -5   2 9.90738 1.85378   3
 -29   5  -2 5.37402 1.95305   1
  29   5   2 5.68743 1.97696   3
  31  -5   2 1.14255 1.87480   2
 -31   5  -2 1.75789 1.83675   1
  31   5   2 1.83690 1.83720   3
  33  -5   2 10.5953  2.4946   2
  33   5   2 7.86716 2.32313   3
 -33   5  -2 14.9194  2.7221   1
  35  -5   2 11.1954  2.7460   2
 -35   5  -2 10.7659  2.6721   1
  35   5   2 13.3666  2.6191   3
  37  -5   2 1.48204 2.21952   2
  37   5   2 5.95989 2.55782   3
 -37   5  -2 4.52037 2.23974   1
  39  -5   2 17.1164  3.1790   2
 -39   5  -2 17.9418  3.1250   1
  39   5   2 17.9511  3.0443   3
  41   5   2 -1.9548  2.4209   3
  40  -6  -2 -0.5327  2.1678   2
  40   6  -2 -1.1673  2.2507   3
 -40   6   2 3.68602 2.43913   1
  38  -6  -2 -1.7804  2.0332   2
  38   6  -2 -0.8043  2.1615   3
 -38   6   2 -0.5288  2.0613   1
  36  -6  -2 -0.7480  2.0095   2
 -36   6   2 -0.8073  2.0414   1
  36   6  -2 -1.5725  1.9872   3
  34  -6  -2 5.09599 2.43711   2
  34   6  -2 6.45916 2.39001   3
 -34   6   2 3.77549 2.24578   1
  32  -6  -2 5.34928 2.41263   2
 -32   6   2 8.82098 2.46364   1
  32   6  -2 8.93302 2.56899   3
  30  -6  -2 34.4183  3.7842   2
  30   6  -2 32.5393  3.6255   3
 -30   6   2 31.8019  3.6181   1
  28  -6  -2 4.96481 2.04106   2
  28   6  -2 4.69765 2.12906   3
 -28   6   2 6.28130 2.08817   1
  26  -6  -2 3.06604 1.90861   2
  26   6  -2 3.91171 2.10968   3
 -26   6   2 5.94043 2.04074   1
  24  -6  -2 13.0035  2.2580   2
 -24   6   2 10.0164  2.1083   1
  24   6  -2 13.5493  2.4901   3
  22  -6  -2 60.2036  3.9397   2
  22   6  -2 60.9720  4.0861   3
  22   6  -2 56.6153  3.0914   2
 -22   6   2 56.5860  3.8266   1
  20  -6  -2 12.2053  2.0262   2
 -20   6   2 17.0298  2.2912   1
  20   6  -2 14.3327  1.6345   2
  20   6  -2 11.3745  2.1914   3
  18  -6  -2 19.1032  2.3534   2
  18  -6  -2 20.7102  1.8975   3
  18   6  -2 16.5818  1.7738   2
 -18   6   2 21.7031  2.4845   1
  18   6  -2 19.0071  2.5288   3
  16  -6  -2 79.8651  4.1938   2
  16  -6  -2 80.8682  3.5992   3
 -16   6   2 83.2322  4.2767   1
  16   6  -2 76.8023  3.6872   2
  16   6  -2 79.9846  4.4674   3
  14  -6  -2 3.76503 1.12085   3
  14  -6  -2 2.79657 1.31702   2
 -14   6   2 1.74312 1.42518   1
  14   6  -2 3.18435 1.11946   2
  12  -6  -2 75.7692  3.3762   3
  12  -6  -2 74.4308  3.7988   2
  12   6  -2 68.0538  3.5201   2
 -12   6   2 75.2504  4.0001   1
  10  -6  -2 21.5261  1.8060   3
 -10  -6   2 21.4854  1.4152   1
  10  -6  -2 19.1393  2.1237   2
  10   6  -2 20.8531  1.9915   2
 -10   6   2 15.9637  2.2034   1
  -8  -6   2 52.1837  2.3624   1
   8  -6  -2 47.7907  2.9801   2
   8  -6  -2 55.1372  2.8634   3
   8   6  -2 57.9306  3.1294   2
  -8   6   2 60.3422  3.4209   1
   6  -6  -2 27.9818  2.2352   2
   6   6  -2 31.7817  2.4563   2
   4  -6  -2 90.9404  4.0212   2
   4  -6  -2 89.2555  4.0279   1
   4   6  -2 77.8351  3.5877   1
   4   6  -2 90.1226  4.3091   2
   2  -6  -2 280.235   9.804   1
   2   6  -2 271.712  10.248   2
   2   6  -2 297.903   9.581   1
   0  -6  -2 34.1336  2.2708   1
   0   6  -2 27.1489  2.2093   1
   2  -6   2 128.148   5.306   3
  -2  -6  -2 133.433   5.108   1
  -2   6  -2 133.663   5.217   1
   4  -6   2 94.1982  4.1635   3
  -4  -6  -2 96.7537  3.9288   1
  -4   6  -2 92.9503  4.0531   1
  -6  -6  -2 5.78591 1.10489   1
   6  -6   2 5.36766 1.25638   3
  -6   6  -2 4.29639 1.13181   1
   6   6   2 5.32541 1.11894   2
   8  -6   2 142.602   5.847   3
  -8  -6  -2 152.329   5.534   1
   8   6   2 151.993   5.738   2
   8   6   2 150.556   6.244   3
  -8   6  -2 146.821   5.819   1
  10  -6   2 30.2037  2.3831   3
 -10  -6  -2 33.1193  2.0969   1
 -10   6  -2 31.5414  2.3510   1
  10   6   2 34.7173  2.7821   3
  10   6   2 30.0801  2.0851   2
 -12  -6  -2 61.1018  2.8302   1
  12  -6   2 57.5093  3.2018   3
 -12   6  -2 63.3312  3.4401   1
  12   6   2 50.0169  2.7470   2
  12   6   2 49.8351  3.4879   3
  14  -6   2 43.8625  2.8728   3
  14  -6   2 39.4266  3.0499   2
 -14  -6  -2 51.0053  2.5826   1
 -14   6  -2 48.5874  3.0746   1
  14   6   2 45.1025  3.2866   3
  14   6   2 45.0683  2.5236   2
  16  -6   2 4.12485 1.74227   2
  16  -6   2 5.30390 1.47774   3
 -16  -6  -2 6.74085 1.23337   1
 -16   6  -2 3.73502 1.65375   1
  16   6   2 6.55956 1.89497   3
  18  -6   2 35.9494  3.0060   2
  18  -6   2 46.8578  2.9140   3
  18   6   2 42.9557  3.3052   3
 -18   6  -2 40.5927  3.1134   1
  20  -6   2 18.4870  2.0786   3
  20  -6   2 14.9282  2.2897   2
  20   6   2 9.75008 2.24696   3
 -20   6  -2 14.8494  2.3450   1
  22  -6   2 66.7015  3.6221   3
  22  -6   2 61.8851  3.9286   2
 -22   6  -2 59.2622  3.9522   1
  22   6   2 65.5460  4.1388   3
  24  -6   2 13.4946  1.9609   3
  24  -6   2 7.76410 2.03215   2
 -24   6  -2 9.29203 2.21995   1
  24   6   2 9.92622 2.31215   3
  26  -6   2 0.28350 1.66088   2
  26  -6   2 4.45997 1.47062   3
  26   6   2 -0.7129  1.5973   3
 -26   6  -2 3.96119 1.79359   1
  28  -6   2 -0.3665  1.6082   2
 -28   6  -2 3.87354 1.88361   1
  28   6   2 5.57777 2.04083   3
  30  -6   2 2.36382 1.91195   2
 -30   6  -2 3.42631 1.87612   1
  30   6   2 4.08329 2.01411   3
  32  -6   2 1.88399 2.01518   2
 -32   6  -2 6.22065 2.16890   1
  32   6   2 4.41019 2.17281   3
  34  -6   2 0.59165 2.02819   2
  34   6   2 1.45039 2.07048   3
 -34   6  -2 2.45350 2.20422   1
  36  -6   2 1.07468 2.18391   2
 -36   6  -2 -1.2837  2.2316   1
  36   6   2 6.13766 2.55979   3
  38  -6   2 2.11267 2.35218   2
 -38   6  -2 2.64404 2.29570   1
  38   6   2 0.71245 2.28818   3
  40  -6   2 4.75363 2.64323   2
  37  -7  -2 -0.7869  2.0319   2
 -37   7   2 -0.6093  2.1857   1
  37   7  -2 3.30164 2.37498   3
  35  -7  -2 0.01784 2.17662   2
 -35   7   2 0.56415 2.23784   1
  35   7  -2 -0.2339  2.3187   3
  33  -7  -2 -0.5077  1.9176   2
  33   7  -2 0.42055 2.11021   3
 -33   7   2 0.72039 2.19148   1
  31  -7  -2 -1.3651  1.8618   2
 -31   7   2 0.95198 2.16265   1
  31   7  -2 2.86934 2.22526   3
  29  -7  -2 0.75496 1.96749   2
 -29   7   2 3.76938 2.11391   1
  29   7  -2 6.17245 2.26282   3
  27  -7  -2 0.54489 1.86920   2
 -27   7   2 0.91192 1.65322   1
  27   7  -2 0.02274 1.79091   3
  25  -7  -2 7.20073 2.09611   2
  25   7  -2 9.59937 2.35302   3
 -25   7   2 5.79738 2.05317   1
  23  -7  -2 14.2940  2.4527   2
 -23   7   2 12.3918  2.3309   1
  23   7  -2 16.6033  2.8156   3
  21  -7  -2 10.7319  2.4227   2
 -21   7   2 12.0738  2.3421   1
  21   7  -2 16.2728  2.6678   3
  19  -7  -2 36.2982  3.2983   2
  19   7  -2 29.0038  3.4290   3
 -19   7   2 39.9970  3.5118   1
  19   7  -2 40.8734  2.6512   2
  17  -7  -2 7.28267 1.92982   2
  17   7  -2 5.28407 2.03312   3
  17   7  -2 5.60502 1.39757   2
 -17   7   2 4.58123 1.88101   1
  15  -7  -2 9.17247 1.50318   3
  15  -7  -2 7.06587 1.68783   2
 -15   7   2 7.34839 1.95316   1
  15   7  -2 10.9364  1.6065   2
  15   7  -2 8.67310 2.10155   3
  13  -7  -2 17.4449  2.1415   2
  13  -7  -2 14.7611  1.8103   3
 -13   7   2 13.4876  2.2533   1
  13   7  -2 23.0546  2.2315   2
  11  -7  -2 7.94988 1.50136   3
  11  -7  -2 8.26944 1.77434   2
  11   7  -2 8.73392 1.54947   2
 -11   7   2 7.88193 1.97861   1
   9  -7  -2 9.74844 1.87133   2
   9   7  -2 11.2214  1.7151   2
  -9   7   2 9.74988 1.94473   1
   7  -7  -2 27.3185  2.4740   2
   7   7  -2 34.4327  2.6807   2
  -7   7   2 34.4296  2.7145   1
   5   7  -2 4.28449 1.20121   1
   5   7  -2 5.23250 1.53355   2
   3  -7  -2 35.0557  2.4511   1
   3   7  -2 37.7551  2.3221   1
   3   7  -2 37.4992  2.9048   2
   1  -7  -2 8.17618 1.44059   1
   1   7  -2 9.43295 1.43686   1
   1   7  -2 10.1211  1.7857   2
  -1  -7  -2 21.0903  1.9601   1
  -1   7  -2 22.8623  2.0628   1
  -3  -7  -2 2.96915 1.23102   1
   3  -7   2 2.89101 1.28335   3
  -3   7  -2 3.37999 1.16124   1
  -5  -7  -2 19.6216  1.8341   1
   5  -7   2 17.6555  2.0664   3
   5   7   2 21.2475  2.0246   2
  -5   7  -2 23.1648  2.1043   1
  -7  -7  -2 1.37973 1.02408   1
   7  -7   2 1.30485 1.26997   3
  -7   7  -2 2.94126 1.24677   1
   7   7   2 2.48076 1.16209   2
  -9  -7  -2 20.2605  1.9109   1
   9  -7   2 17.2581  2.0526   3
   9   7   2 19.6518  2.4927   3
   9   7   2 17.9960  1.9174   2
  -9   7  -2 24.2812  2.2651   1
 -11  -7  -2 5.84542 1.30040   1
  11  -7   2 5.21559 1.52696   3
  11   7   2 4.76975 1.26907   2
  11   7   2 5.62037 1.83583   3
 -11   7  -2 6.27339 1.61051   1
  13  -7   2 13.8319  1.9708   3
 -13  -7  -2 24.7279  2.0500   1
 -13   7  -2 15.9945  2.0999   1
  13   7   2 21.0771  2.0325   2
  13   7   2 14.2643  2.2395   3
  15  -7   2 49.2601  3.2326   3
  15   7   2 45.4949  3.5648   3
 -15   7  -2 50.5654  3.3421   1
  17  -7   2 11.7607  1.9402   3
 -17   7  -2 7.50606 2.02581   1
  17   7   2 9.50570 2.24344   3
  19  -7   2 12.3983  2.3845   2
  19   7   2 14.4441  2.5430   3
 -19   7  -2 13.1883  2.3457   1
  21  -7   2 9.38392 1.92235   3
  21  -7   2 6.45166 2.06154   2
 -21   7  -2 6.02802 2.13866   1
  21   7   2 4.95859 2.14394   3
  23  -7   2 13.3779  2.0873   3
  23  -7   2 8.08674 2.36162   2
  23   7   2 10.0363  2.3683   3
 -23   7  -2 12.1036  2.4506   1
  25  -7   2 6.73884 2.17530   2
 -25   7  -2 13.1323  2.4544   1
  25   7   2 8.33476 2.34549   3
  27  -7   2 0.30866 1.93610   2
  27   7   2 4.69114 2.22236   3
 -27   7  -2 2.67432 2.00502   1
  29  -7   2 3.38768 2.15296   2
 -29   7  -2 1.47909 1.87995   1
  29   7   2 3.40343 2.02391   3
  31  -7   2 1.34448 1.95570   2
 -31   7  -2 3.96931 2.08897   1
  31   7   2 0.15768 1.88611   3
  33  -7   2 -1.8106  1.8942   2
  33   7   2 -1.1120  1.8583   3
 -33   7  -2 1.86893 2.01615   1
  35  -7   2 -1.6024  2.0516   2
  35   7   2 -1.8874  1.9595   3
 -35   7  -2 -1.9813  1.9892   1
  37  -7   2 4.36794 2.56794   2
  37   7   2 1.66116 2.43502   3
  34  -8  -2 -0.1223  2.0803   2
 -34   8   2 2.07795 2.40199   1
  34   8  -2 2.30349 2.51422   3
  32  -8  -2 5.38087 2.52382   2
  32   8  -2 5.02472 2.60868   3
 -32   8   2 7.36720 2.67943   1
  30  -8  -2 -0.4652  1.8445   2
 -30   8   2 3.08887 2.29623   1
  30   8  -2 2.07502 2.42477   3
  28  -8  -2 4.83294 2.14805   2
  28   8  -2 10.1100  2.7124   3
 -28   8   2 6.27854 2.28531   1
  26  -8  -2 2.88630 1.99913   2
  26   8  -2 5.52256 2.28410   3
 -26   8   2 4.85332 2.11471   1
  24  -8  -2 18.8989  2.7889   2
 -24   8   2 19.3879  2.8259   1
  24   8  -2 21.3256  3.1731   3
  22  -8  -2 2.93021 1.79971   2
  22   8  -2 3.62168 2.04558   3
 -22   8   2 3.31675 1.91736   1
  20  -8  -2 27.5840  3.2109   2
 -20   8   2 26.3113  3.1404   1
  20   8  -2 29.2859  3.5840   3
  18  -8  -2 17.1114  2.5774   2
  18   8  -2 17.5756  2.1565   2
  18   8  -2 18.3809  2.8759   3
 -18   8   2 15.1774  2.6774   1
  16  -8  -2 32.6693  2.9808   2
 -16   8   2 27.2483  3.2317   1
  16   8  -2 32.2742  2.6085   2
  16   8  -2 27.8725  3.4317   3
  14  -8  -2 30.4582  2.8937   2
 -14   8   2 33.0935  3.3904   1
  14   8  -2 34.4403  2.7881   2
  12  -8  -2 11.8435  2.1348   2
  12   8  -2 13.7531  1.9261   2
 -12   8   2 12.8247  2.3162   1
 -10   8   2 1.39034 1.60575   1
  10   8  -2 5.99528 1.55413   2
   8   8  -2 7.76898 1.74030   2
  -8   8   2 10.3766  1.9992   1
  -6   8   2 19.4278  2.2890   1
   6   8  -2 18.2455  2.3870   2
   4   8  -2 12.6929  2.3215   2
   2  -8  -2 184.233   7.169   1
   2   8  -2 186.582   7.816   2
   2   8  -2 179.356   6.885   1
   0  -8  -2 54.3358  3.2257   1
   0   8  -2 49.1562  3.1324   1
   0   8  -2 50.0171  3.5562   2
  -2  -8  -2 51.8129  3.0625   1
  -2   8  -2 39.8957  3.1365   1
  -4  -8  -2 70.1462  3.5216   1
   4   8   2 62.2620  3.9259   2
  -4   8  -2 56.8805  3.7063   1
   6  -8   2 13.1993  1.9838   3
  -6  -8  -2 13.8856  1.7810   1
   6   8   2 11.2561  1.9152   2
  -6   8  -2 10.1012  1.9835   1
   8  -8   2 11.2788  1.9472   3
  -8  -8  -2 14.5989  1.7729   1
   8   8   2 11.0140  1.8648   2
  -8   8  -2 12.2706  1.8832   1
   8   8   2 19.7840  2.5936   3
  10  -8   2 18.2646  2.3104   3
  10   8   2 20.7785  2.6791   3
  10   8   2 17.2044  2.0978   2
 -10   8  -2 18.4217  2.2665   1
  12  -8   2 3.64870 1.52185   3
 -12   8  -2 6.32129 1.63374   1
  12   8   2 2.90516 1.77131   3
  14  -8   2 13.5146  2.1186   3
 -14   8  -2 10.4850  1.9914   1
  14   8   2 18.0211  2.6007   3
  16  -8   2 6.56880 1.82378   3
  16   8   2 7.55320 2.32917   3
 -16   8  -2 10.7633  2.2468   1
  18  -8   2 13.2028  2.1969   3
  18   8   2 13.9523  2.5568   3
 -18   8  -2 14.4920  2.4775   1
  20  -8   2 14.8515  2.2489   3
  20   8   2 11.1896  2.6766   3
 -20   8  -2 10.5371  2.4729   1
  22   8   2 34.2139  3.8263   3
 -22   8  -2 46.9445  3.8662   1
  24   8   2 2.91860 2.26415   3
 -24   8  -2 3.44371 2.15432   1
 -26   8  -2 26.0991  3.3007   1
  26   8   2 26.5000  3.4866   3
  28   8   2 -0.7743  1.9945   3
 -28   8  -2 0.59736 2.11014   1
 -30   8  -2 3.59015 2.31130   1
  30   8   2 6.42181 2.49065   3
 -32   8  -2 -1.5171  1.9922   1
  32   8   2 0.44734 2.07408   3
 -34   8  -2 -2.5958  1.9255   1
  34   8   2 0.76667 2.22178   3
  31  -9  -2 2.83819 2.43314   2
  31   9  -2 5.13330 2.67656   3
 -31   9   2 5.38080 2.62985   1
  29  -9  -2 18.2907  3.2518   2
 -29   9   2 18.1045  3.2838   1
  29   9  -2 18.4872  3.3614   3
  27  -9  -2 12.4501  2.9642   2
  27   9  -2 8.75424 2.81432   3
 -27   9   2 7.77628 2.62166   1
  25  -9  -2 2.27201 2.04453   2
  25   9  -2 4.45381 2.45506   3
 -25   9   2 7.19856 2.38724   1
  23  -9  -2 21.8324  3.1472   2
 -23   9   2 19.2346  3.0010   1
  23   9  -2 17.1089  3.0312   3
  21  -9  -2 3.52342 2.00999   2
 -21   9   2 1.55086 2.01301   1
  21   9  -2 1.63465 2.13030   3
  19  -9  -2 40.1698  3.6402   2
 -19   9   2 37.1790  3.4588   1
  19   9  -2 39.3406  4.1394   3
  17  -9  -2 15.0908  2.6291   2
  17   9  -2 16.9774  2.9843   3
 -17   9   2 14.1294  2.6524   1
  15   9  -2 57.7631  3.5941   2
  15   9  -2 54.3852  4.3844   3
 -15   9   2 54.3464  3.9965   1
 -13   9   2 1.88181 1.91667   1
  13   9  -2 3.19095 1.54061   2
  11   9  -2 46.9806  3.3338   2
 -11   9   2 46.0622  3.6880   1
   9   9  -2 3.23740 1.72433   2
  -9   9   2 6.92510 1.96992   1
  -7   9   2 17.0491  2.5225   1
   7   9  -2 20.0036  2.6897   2
  -5   9   2 3.04107 1.76342   1
   5   9  -2 -0.0099  1.7853   2
   3   9  -2 75.1852  4.5928   2
  -3   9   2 78.7703  4.4492   1
   1   9  -2 9.93891 2.44900   2
  -1  -9  -2 174.930   6.789   1
  -1   9  -2 172.845   7.699   2
  -1   9  -2 147.192   6.588   1
  -3  -9  -2 6.25351 1.78239   1
  -3   9  -2 4.76072 1.88100   1
   3   9   2 1.83182 1.79681   2
  -5   9  -2 77.8041  4.2739   1
   5   9   2 81.7574  4.5103   2
   7   9   2 1.36462 1.83587   3
  -7   9  -2 2.06008 1.63385   1
   7   9   2 1.33834 1.46648   2
   9  -9   2 40.4537  3.1996   3
   9   9   2 38.1816  3.5168   3
  -9   9  -2 39.9800  3.1971   1
  11  -9   2 15.1835  2.3131   3
  11   9   2 17.4373  2.7808   3
 -11   9  -2 14.3104  2.2531   1
  13  -9   2 14.2949  2.3037   3
 -13   9  -2 10.6082  2.1264   1
  13   9   2 13.6754  2.6829   3
  15  -9   2 1.68990 1.71418   3
 -15   9  -2 1.79228 1.71970   1
  15   9   2 3.74943 2.03100   3
  17  -9   2 21.0609  2.6095   3
 -17   9  -2 20.2469  2.8860   1
  17   9   2 22.7668  3.2042   3
  19   9   2 13.6057  2.8443   3
 -19   9  -2 10.9728  2.4530   1
  21   9   2 47.9025  4.2860   3
 -21   9  -2 50.4612  4.0840   1
 -23   9  -2 21.8165  3.1648   1
  23   9   2 21.9405  3.3159   3
  25   9   2 20.9238  3.3358   3
 -25   9  -2 20.1976  3.2231   1
 -27   9  -2 1.69380 2.12409   1
  27   9   2 4.93821 2.49328   3
  29   9   2 5.18486 2.53588   3
 -29   9  -2 3.38693 2.53903   1
 -31   9  -2 5.67879 2.50484   1
  31   9   2 4.12073 2.58284   3
  28  10  -2 32.0335  4.2568   3
 -28  10   2 24.7392  3.9671   1
  26  10  -2 5.10760 2.76794   3
 -26  10   2 5.40248 2.75105   1
  24  10  -2 28.3538  3.9120   3
 -24  10   2 28.3403  3.6991   1
 -22  10   2 0.33761 1.89543   1
  22  10  -2 1.07768 2.10051   3
 -20  10   2 6.55148 2.27950   1
  20  10  -2 4.14495 2.38257   3
 -18  10   2 4.19028 1.96526   1
  18  10  -2 2.85926 2.07769   3
 -16  10   2 14.6050  2.6182   1
  16  10  -2 13.1641  2.8848   3
 -14  10   2 3.80806 2.03923   1
  14  10  -2 3.89842 2.31639   3
 -12  10   2 35.7741  3.4579   1
  12  10  -2 36.3353  3.2747   2
 -10  10   2 4.54460 2.15589   1
  10  10  -2 7.02753 2.06920   2
   8  10  -2 51.3114  3.8351   2
  -8  10   2 46.1473  3.8350   1
  -6  10   2 19.2967  2.8862   1
   6  10  -2 25.1938  3.1634   2
  -4  10   2 36.4456  3.4793   1
   4  10  -2 48.1023  3.9283   2
   2  10  -2 65.9939  4.5665   2
  -2  10   2 56.0892  4.0438   1
   0  10   2 19.7359  2.9385   2
   0  10  -2 20.3215  3.1647   2
   0  10   2 16.0053  2.4724   1
   2  10   2 38.7145  3.5231   2
  -2  10  -2 39.0257  3.8592   2
  -4  10  -2 40.5719  3.7905   2
   4  10   2 34.5280  3.3051   2
  -6  10  -2 17.0795  2.4352   1
   6  10   2 13.6813  2.7436   3
  -8  10  -2 24.9078  2.8952   1
   8  10   2 18.7499  3.0910   3
  10  10   2 38.3734  4.0824   3
 -10  10  -2 37.0538  3.3637   1
  12  10   2 3.23690 2.36674   3
  14 -10   2 48.6377  3.7352   3
  14  10   2 44.6307  4.0820   3
 -14  10  -2 45.2638  3.7601   1
 -16  10  -2 3.20056 2.01030   1
  16  10   2 5.43111 2.40297   3
  18  10   2 29.1885  3.8216   3
 -18  10  -2 27.9747  3.4020   1
  20  10   2 1.76087 2.22308   3
 -20  10  -2 2.26091 2.01693   1
  22  10   2 9.92323 2.74990   3
 -22  10  -2 12.1604  2.7570   1
  24  10   2 3.92260 2.41471   3
 -24  10  -2 -2.7622  1.8476   1
 -26  10  -2 6.26731 2.69352   1
  26  10   2 6.36961 2.68234   3
 -28  10  -2 -3.1625  2.1100   1
 -23  11   2 33.1919  4.0653   1
  23  11  -2 32.1684  4.4020   3
  21  11  -2 9.57786 2.94104   3
 -21  11   2 7.16877 2.67542   1
  19  11  -2 9.84272 2.87814   3
 -19  11   2 14.0549  2.8733   1
  17  11  -2 0.21304 2.20016   3
 -17  11   2 0.29778 2.00886   1
 -15  11   2 10.7732  2.5123   1
  15  11  -2 9.89035 2.83027   3
  13  11  -2 0.93731 2.27248   3
 -13  11   2 -1.5276  1.9082   1
 -11  11   2 61.4826  4.5300   1
  -9  11   2 5.29954 2.36284   1
   9  11  -2 9.47349 2.35372   2
   7  11  -2 90.3165  5.3935   2
  -7  11   2 90.0271  5.3753   1
   5  11  -2 11.2586  2.7461   2
   3  11  -2 85.5135  5.4605   2
   1  11  -2 5.11381 2.36761   2
  -1  11   2 1.41503 2.03417   2
  -1  11  -2 38.7433  4.2204   2
   1  11   2 40.3760  4.0621   2
  -3  11  -2 3.94691 2.25000   2
  -5  11  -2 17.3375  3.2316   2
   5  11   2 18.0463  3.0963   3
   7  11   2 9.75596 2.79106   3
  -7  11  -2 13.3674  3.0570   2
   9  11   2 42.4567  4.4813   3
  11  11   2 17.5156  3.3710   3
  13  11   2 46.3450  4.3477   3
 -13  11  -2 45.9035  3.9855   1
 -15  11  -2 14.3031  2.7965   1
  15  11   2 10.7193  2.8820   3
 -17  11  -2 39.6279  3.8189   1
  17  11   2 34.5486  4.2789   3
  19  11   2 10.7871  2.9372   3
 -19  11  -2 8.68503 2.69235   1
 -21  11  -2 20.4755  3.3741   1
  21  11   2 20.9750  3.6319   3
 -23  11  -2 1.64783 2.47219   1
  23  11   2 1.26022 2.42244   3
 -20  12   2 31.9827  4.1870   1
 -18  12   2 10.3633  3.0348   1
  16  12  -2 8.28376 3.00513   3
 -16  12   2 12.8220  3.0427   1
 -14  12   2 9.76098 2.67727   1
  14  12  -2 10.2042  3.0733   3
  12  12  -2 16.8822  3.4674   3
 -12  12   2 16.0701  2.9582   1
   4  12  -2 48.3144  4.4402   2
  -4  12   2 47.9863  4.5094   2
   2  12  -2 24.3514  3.7260   2
  -2  12   2 26.2117  3.7647   2
   0  12  -2 8.50606 2.82794   2
  -2  12  -2 21.9211  3.6208   2
   2  12   2 19.5471  3.2294   3
   4  12   2 3.21677 2.32079   3
  -4  12  -2 0.11773 2.21778   2
   6  12   2 23.1107  3.5607   3
  -6  12  -2 17.4752  3.5230   2
   8  12   2 4.78452 2.61558   3
  -8  12  -2 5.12157 2.65041   2
  10  12   2 33.8522  4.1897   3
 -10  12  -2 26.9020  4.0220   2
  12  12   2 9.53896 3.01766   3
  14  12   2 39.2387  4.6375   3
  16  12   2 10.3121  3.2131   3
 -20  12  -2 4.46244 2.71536   1
  -9  13   2 0.87990 2.48677   2
  -7  13   2 23.8315  3.8571   2
   1  13  -2 -2.0471  2.0966   2
  -1  13  -2 10.5792  3.0453   2
  -3  13  -2 -2.5998  2.1189   2
  -5  13  -2 16.1748  3.3569   2
  -7  13  -2 -1.0038  2.1578   2
   7  13   2 0.20366 2.46042   3
   9  13   2 21.8537  3.8785   3
  38   0  -3 2.98565 1.76776   2
  36   0  -3 1.14401 1.65247   2
 -36   0   3 0.25054 1.55859   1
  36   0  -3 -1.8475  1.5532   3
  34   0  -3 -0.3993  1.3858   2
 -34   0   3 -1.9783  1.4724   1
  34   0  -3 -0.0033  1.5135   3
 -32   0   3 2.56596 1.67204   1
  32   0  -3 6.35351 1.72742   3
  32   0  -3 5.86982 1.78319   2
  30   0  -3 2.21632 1.41471   2
  30   0  -3 0.13660 1.31717   3
 -30   0   3 0.44184 1.35376   1
 -28   0   3 3.40290 1.44923   1
  28   0  -3 3.38107 1.37554   3
  28   0  -3 3.53319 1.45524   2
  26   0  -3 0.98207 1.05359   3
 -26   0   3 -0.4429  1.0578   1
  26   0  -3 0.28757 1.06633   2
  24   0  -3 0.51134 1.00963   2
  24   0  -3 0.74081 0.92432   3
 -24   0   3 0.33166 0.98887   1
 -22   0   3 1.45746 0.91167   1
  22   0  -3 0.16416 0.77756   2
  22   0  -3 -0.1913  0.7918   3
  20   0  -3 -1.5328  0.6035   3
  20   0  -3 0.03226 0.69470   2
 -20   0   3 0.11217 0.76529   1
 -18   0   3 -0.1780  0.7362   1
  18   0  -3 1.00889 0.70170   3
  18   0  -3 0.76643 0.68149   2
  16   0  -3 -1.4047  0.5682   2
  16   0  -3 -0.1700  0.2621   3
 -16   0   3 -0.5233  0.4564   1
  14   0  -3 0.02578 0.58081   2
  14   0  -3 -0.4896  0.5307   3
 -14   0   3 -1.3104  0.5416   1
 -12   0   3 -0.2469  0.5092   1
  12   0  -3 0.40046 0.47711   2
  12   0  -3 0.03431 0.45869   3
 -10   0   3 -0.6176  0.5339   1
  10   0  -3 0.89314 0.46700   3
  10   0  -3 0.92312 0.46903   2
  -8   0   3 0.44295 0.38633   1
   8   0  -3 0.67700 0.35814   3
   8   0  -3 0.24627 0.32458   2
   6   0  -3 -0.3606  0.3276   1
   4   0  -3 0.32846 0.22669   2
   4   0  -3 0.30967 0.26242   1
   2   0  -3 -1.4613  0.2415   2
  -2   0   3 -1.3205  0.2196   3
   2   0  -3 -1.0135  0.2566   1
   0   0  -3 -1.3809  0.2449   1
   0   0  -3 -1.0343  0.2484   2
   0   0   3 -1.7506  0.2364   3
   2   0   3 -1.3153  0.3423   3
  -2   0  -3 -2.0758  0.2830   1
  -2   0  -3 -1.5503  0.2936   2
   4   0   3 -6.1574  0.4820   3
  -6   0  -3 -1.3754  0.3966   1
   6   0   3 -1.2578  0.3405   2
   8   0   3 0.25527 0.32251   3
  -8   0  -3 0.32115 0.44223   1
   8   0   3 0.06710 0.35194   2
  10   0   3 -0.5035  0.1922   3
 -10   0  -3 -0.1024  0.2581   1
  10   0   3 0.56831 0.42312   2
  12   0   3 1.09982 0.62092   3
 -12   0  -3 0.47641 0.56842   1
  12   0   3 -0.1820  0.4505   2
  14   0   3 -0.0431  0.5347   2
  14   0   3 0.31007 0.66631   3
 -14   0  -3 -0.3258  0.6274   1
  16   0   3 -0.4190  0.7245   3
  16   0   3 -0.6759  0.5754   2
 -16   0  -3 0.33338 0.76391   1
 -18   0  -3 0.02322 0.95840   1
  18   0   3 1.06811 0.93897   3
  18   0   3 -0.2455  0.7724   2
  20   0   3 0.41008 1.06198   3
  20   0   3 -1.2362  0.7681   2
 -20   0  -3 -1.4872  0.8700   1
 -22   0  -3 0.53929 1.13467   1
  22   0   3 1.20380 0.98394   2
  22   0   3 1.01525 1.12270   3
  24   0   3 -0.8088  0.8484   2
 -24   0  -3 -0.6057  1.0199   1
  24   0   3 0.77949 1.17444   3
  26   0   3 3.95633 1.53327   3
 -26   0  -3 2.91140 1.32955   1
  26   0   3 1.62294 1.09144   2
  28   0   3 -1.2275  1.3011   3
 -28   0  -3 -0.3736  1.1755   1
  28   0   3 1.53664 1.17345   2
  30   0   3 -0.4829  1.4354   3
 -30   0  -3 0.93191 1.30537   1
  32   0   3 1.73895 1.65979   3
 -32   0  -3 -1.3905  1.3177   1
 -34   0  -3 0.11912 1.33291   1
  34   0   3 -0.3894  1.7941   3
 -36   0  -3 1.67918 1.65139   1
  36   0   3 -0.4432  1.8985   3
 -38   0  -3 2.28768 1.92266   1
  38   0   3 1.08415 2.24027   3
  40   0   3 3.49541 2.51034   3
 -40   0  -3 3.03028 2.11253   1
  42   0   3 -1.8645  2.3091   3
 -42   0  -3 -1.4701  2.0015   1
  44   0   3 -4.1750  2.3223   3
  41  -1  -3 0.80437 1.78827   2
  39  -1  -3 2.82262 1.90455   2
 -39   1   3 0.55463 1.75267   1
  37  -1  -3 24.8745  2.9532   2
 -37   1   3 20.1624  2.6897   1
  37   1  -3 22.5279  2.6052   2
  37   1  -3 22.7179  2.7374   3
  35  -1  -3 6.72073 2.03973   2
  35   1  -3 10.2961  2.0574   3
 -35   1   3 9.39049 2.04464   1
  35   1  -3 12.1470  2.0410   2
  33  -1  -3 6.12429 1.89203   2
  33  -1  -3 6.38785 1.80986   3
 -33  -1   3 5.75464 1.65079   1
  33   1  -3 9.06849 1.86133   2
  33   1  -3 8.08839 1.81397   3
 -33   1   3 5.86217 1.84550   1
  31  -1  -3 26.4501  2.7192   2
  31  -1  -3 24.7904  2.4835   3
 -31  -1   3 26.7686  2.5062   1
  31   1  -3 27.1736  2.3864   2
 -31   1   3 26.8217  2.5526   1
  31   1  -3 32.7071  2.5803   3
 -29  -1   3 6.32942 1.46625   1
  29  -1  -3 10.2946  1.6986   3
  29  -1  -3 9.07226 1.86889   2
  29   1  -3 9.53197 1.70564   3
 -29   1   3 10.0675  1.8198   1
  29   1  -3 9.73951 1.74230   2
  27  -1  -3 1.12098 1.22410   2
 -27  -1   3 1.71662 1.20021   1
  27  -1  -3 2.20114 1.27897   3
  27   1  -3 2.37073 1.30315   2
 -27   1   3 3.00744 1.48140   1
  27   1  -3 3.38295 1.43445   3
  25  -1  -3 3.30460 1.23227   2
  25  -1  -3 5.28519 1.20833   3
 -25  -1   3 2.17483 0.98083   1
  25   1  -3 3.42481 1.21442   3
 -25   1   3 3.04938 1.28326   1
  25   1  -3 3.01667 1.16824   2
 -23  -1   3 106.999   4.332   1
  23  -1  -3 118.623   4.363   3
  23  -1  -3 112.535   4.657   2
  23   1  -3 102.811   4.474   3
 -23   1   3 98.0360  4.5152   1
  23   1  -3 106.259   4.411   2
 -21  -1   3 0.59189 0.77373   1
  21  -1  -3 2.62478 0.82000   3
  21  -1  -3 2.31557 0.97409   2
  21   1  -3 2.71248 0.99569   3
  21   1  -3 1.80986 0.81873   2
 -21   1   3 1.76561 1.01199   1
  19  -1  -3 59.5348  2.6025   3
 -19  -1   3 57.8706  2.6362   1
  19  -1  -3 65.1014  2.9403   2
  19   1  -3 59.0707  2.7215   2
  19   1  -3 55.0287  2.8323   3
 -19   1   3 56.4912  2.9294   1
  17  -1  -3 133.263   5.016   2
  17   1  -3 130.365   4.938   3
 -17   1   3 128.366   4.977   1
  17   1  -3 132.492   4.865   2
 -15  -1   3 772.439  23.076   1
  15  -1  -3 751.178  23.875   2
  15  -1  -3 727.011  23.267   3
  15   1  -3 724.870  23.598   3
  15   1  -3 735.850  23.734   2
 -15   1   3 739.796  23.380   1
  13  -1  -3 117.315   4.046   3
  13  -1  -3 119.022   4.375   2
 -13  -1   3 117.392   4.079   1
  13   1  -3 116.783   4.275   2
  11  -1  -3 218.440   7.339   2
 -11  -1   3 217.093   6.924   1
  11  -1  -3 214.319   6.929   3
 -11   1   3 209.803   7.267   1
  11   1  -3 215.921   7.320   3
  11   1  -3 214.391   7.253   2
  -9  -1   3 8.50918 0.68944   1
  -9   1   3 10.1668  1.0174   1
   9   1  -3 9.94997 0.83401   2
   7  -1  -3 327.455   9.913   3
  -7  -1   3 323.644   9.865   1
   7  -1  -3 274.682  10.305   2
   7  -1  -3 330.363  10.171   1
   7   1  -3 331.128  10.403   2
   5  -1  -3 270.721   8.647   2
   5  -1  -3 274.088   8.512   1
   5   1  -3 250.016   8.695   2
   5   1  -3 269.851   8.181   1
  -3  -1   3 99.5081  3.1968   3
   3  -1  -3 84.7531  3.1129   2
   3  -1  -3 89.5665  3.1473   1
   3   1  -3 92.8416  2.8891   1
  -1  -1   3 94.1790  3.0968   3
   1  -1  -3 86.6708  2.9842   2
  -1   1   3 90.1047  2.8992   3
   1   1  -3 85.1708  3.1726   2
   1   1  -3 91.2701  2.8848   1
  -1  -1  -3 102.785   3.328   2
  -1  -1  -3 94.6877  3.4297   1
  -1   1  -3 104.016   3.378   1
   1   1   3 102.721   3.403   3
  -1   1  -3 106.738   3.625   2
  -3  -1  -3 13.4236  0.8270   1
   3   1   3 14.1206  0.8042   3
  -3   1  -3 13.6779  0.8022   1
   5  -1   3 2.03777 0.53647   3
  -5  -1  -3 1.60358 0.42430   1
  -5   1  -3 1.94193 0.47435   1
   5   1   3 2.24858 0.47258   3
   7  -1   3 1649.56   50.20   2
   7  -1   3 1592.08   50.00   3
  -7  -1  -3 1534.88   49.05   1
   7   1   3 1621.72   49.82   2
  11  -1   3 9.40409 0.94057   2
  13  -1   3 109.840   4.129   2
  13  -1   3 107.259   4.114   3
 -13  -1  -3 111.303   4.086   1
  13   1   3 109.413   3.807   2
 -13   1  -3 114.533   4.246   1
  13   1   3 109.470   4.182   3
  15  -1   3 206.945   7.314   2
 -15  -1  -3 215.546   7.235   1
  15  -1   3 213.290   7.300   3
  15   1   3 202.694   6.996   2
 -15   1  -3 210.166   7.377   1
  15   1   3 215.385   7.385   3
  17  -1   3 29.6901  2.0347   3
  17  -1   3 33.5482  2.0609   2
 -17  -1  -3 30.2128  1.9358   1
 -17   1  -3 30.8327  2.1310   1
  17   1   3 33.1822  2.0983   3
  17   1   3 33.7127  1.6902   2
 -19  -1  -3 13.0918  1.4914   1
  19  -1   3 13.4665  1.5293   2
  19  -1   3 14.8300  1.6315   3
  19   1   3 15.3391  1.6666   3
  19   1   3 14.4920  1.3013   2
 -19   1  -3 16.0602  1.7539   1
  21  -1   3 21.9833  1.9244   2
  21  -1   3 20.6595  2.0224   3
 -21  -1  -3 22.2329  1.8543   1
  21   1   3 22.8306  1.5478   2
  21   1   3 24.0335  2.0059   3
 -21   1  -3 22.8265  2.0446   1
 -23  -1  -3 4.68975 1.19643   1
  23  -1   3 4.24505 1.21745   2
  23  -1   3 3.20043 1.36155   3
 -23   1  -3 2.90443 1.34240   1
  23   1   3 3.35499 1.31075   3
  23   1   3 3.86614 1.00759   2
  25  -1   3 50.2774  3.0540   3
 -25  -1  -3 51.2888  2.8688   1
  25  -1   3 55.5887  2.9857   2
  25   1   3 47.5000  2.9760   3
  25   1   3 50.5402  2.5821   2
 -25   1  -3 53.7285  3.1282   1
  27  -1   3 51.5116  3.0796   3
 -27  -1  -3 48.3071  2.8597   1
  27  -1   3 44.9635  2.7793   2
  27   1   3 46.0603  2.9874   3
 -27   1  -3 46.4648  3.1628   1
  29  -1   3 9.57253 1.93137   3
 -29  -1  -3 7.34171 1.64554   1
  29  -1   3 8.63421 1.68871   2
 -29   1  -3 4.87887 1.61745   1
  29   1   3 6.94789 1.70195   3
 -31  -1  -3 9.82568 1.89699   1
  31  -1   3 16.4537  2.2529   3
  31  -1   3 14.4930  2.0503   2
  31   1   3 13.2611  2.1859   3
 -31   1  -3 14.6495  2.1902   1
  33  -1   3 0.87315 1.68120   3
 -33  -1  -3 0.12111 1.39409   1
  33   1   3 -1.4965  1.5041   3
 -33   1  -3 -0.3439  1.4446   1
 -35  -1  -3 2.87315 1.71374   1
  35  -1   3 0.96800 1.86931   3
 -35   1  -3 2.31436 1.73834   1
  35   1   3 3.44935 1.95404   3
  37  -1   3 7.26949 2.53506   3
 -37  -1  -3 8.69611 2.18612   1
  37   1   3 4.08911 2.27425   3
 -37   1  -3 5.69840 2.01691   1
  39  -1   3 1.66548 2.24522   3
 -39  -1  -3 4.23485 2.02280   1
 -39   1  -3 4.16471 2.03825   1
  39   1   3 6.60165 2.51911   3
  41  -1   3 2.13326 2.39659   3
  41   1   3 1.38402 2.20530   3
 -41   1  -3 2.71677 2.07306   1
  43   1   3 -4.0952  2.2555   3
 -43   1  -3 -0.1623  1.9882   1
 -45   1  -3 1.95853 2.11913   1
  45   1   3 -0.5590  2.5097   3
  42  -2  -3 -0.7755  1.8192   2
 -42   2   3 -0.0967  1.8877   1
  40  -2  -3 1.76298 2.03440   2
 -40   2   3 4.35518 2.08089   1
  40   2  -3 0.01600 1.95272   3
  38  -2  -3 3.01043 1.93834   2
 -38   2   3 11.3387  2.3269   1
  38   2  -3 6.16511 2.09190   3
  36  -2  -3 0.58886 1.51285   2
 -36   2   3 0.70702 1.59931   1
  36   2  -3 0.11959 1.62214   3
  34  -2  -3 36.0928  3.1505   2
  34   2  -3 39.8403  2.8984   2
  34   2  -3 29.7894  2.7099   3
 -34   2   3 38.8950  3.0467   1
  32  -2  -3 2.78245 1.65962   2
  32   2  -3 2.86095 1.50157   3
  32   2  -3 1.65720 1.31037   2
 -32   2   3 1.23494 1.53910   1
  30  -2  -3 66.5353  3.8948   2
  30  -2  -3 67.0007  3.7138   3
  30   2  -3 73.7180  3.6748   2
 -30   2   3 74.6011  4.0757   1
  30   2  -3 70.6513  3.8768   3
  28  -2  -3 1.80061 1.29131   3
 -28  -2   3 3.48429 1.23501   1
  28   2  -3 5.50007 1.47979   2
  28   2  -3 4.61596 1.62213   3
 -28   2   3 2.71212 1.65666   1
 -26  -2   3 37.1553  2.3428   1
  26  -2  -3 39.1250  2.8736   2
  26  -2  -3 34.1789  2.4175   3
  26   2  -3 42.9265  2.9000   3
  26   2  -3 37.6467  2.4468   2
 -26   2   3 37.5049  2.9884   1
  24  -2  -3 111.022   4.523   3
 -24  -2   3 110.522   4.394   1
  24  -2  -3 117.398   5.048   2
  24   2  -3 112.118   4.682   2
  24   2  -3 114.607   4.939   3
 -24   2   3 114.748   5.130   1
  22  -2  -3 10.2733  1.3170   3
  22  -2  -3 8.29902 1.38473   2
 -22  -2   3 9.39879 1.11792   1
  22   2  -3 10.2031  1.5789   3
  22   2  -3 7.60900 1.20217   2
 -22   2   3 6.35242 1.44415   1
  20  -2  -3 275.002   9.804   2
  20  -2  -3 282.669   9.240   3
  20   2  -3 277.634   9.749   3
  20   2  -3 278.696   9.486   2
 -20   2   3 269.641   9.688   1
 -18  -2   3 5.90135 0.82047   1
  18  -2  -3 5.63247 1.05994   2
  18   2  -3 6.57397 1.22091   3
 -18   2   3 5.55900 1.16159   1
  18   2  -3 5.07693 0.86115   2
  16  -2  -3 129.617   4.892   2
 -16  -2   3 119.902   4.274   1
  16  -2  -3 123.420   4.362   3
  16   2  -3 121.562   4.933   3
  16   2  -3 130.576   4.648   2
 -16   2   3 123.798   4.916   1
  14  -2  -3 320.503  10.936   2
  14  -2  -3 321.831  10.338   3
 -14  -2   3 314.371  10.179   1
  14   2  -3 321.669  10.956   3
 -14   2   3 327.735  10.881   1
  14   2  -3 333.450  10.769   2
 -12  -2   3 22.1381  1.0437   1
  12  -2  -3 21.6884  1.0989   3
 -12   2   3 15.4960  1.5428   1
  12   2  -3 19.1692  1.3354   2
  12   2  -3 18.2448  1.5718   3
  10  -2  -3 1005.72   30.79   3
 -10  -2   3 998.463  30.289   1
  10   2  -3 978.345  31.521   2
   8  -2  -3 620.897  20.874   1
   8  -2  -3 693.586  20.735   3
   8   2  -3 688.938  21.417   2
   6  -2  -3 1224.11   37.89   3
   6  -2  -3 1221.55   38.68   2
   6   2  -3 1237.84   38.79   2
   4  -2  -3 148.144   4.977   2
  -4  -2   3 136.837   4.986   3
   4   2  -3 150.628   5.147   2
   2  -2  -3 263.808   8.468   1
   2  -2  -3 263.316   8.538   2
   2   2  -3 259.718   8.139   1
   0  -2  -3 284.021   9.047   2
   0  -2  -3 282.149   8.994   1
   0   2   3 276.601   9.009   3
   0   2  -3 281.728   8.809   1
   2  -2   3 212.475   6.842   3
  -2  -2  -3 201.602   6.680   1
  -2  -2  -3 204.951   6.630   2
   2   2   3 203.686   6.768   3
  -2   2  -3 203.505   6.625   1
  -4  -2  -3 71.5771  2.6512   1
   4  -2   3 71.1058  2.7283   3
  -4   2  -3 69.9012  2.6522   1
   4   2   3 67.9106  2.7402   3
  -6  -2  -3 13.4106  1.0109   1
   6  -2   3 13.7112  1.0420   3
  -6   2  -3 14.7930  1.0665   1
   6   2   3 14.0728  0.6449   2
   6   2   3 13.5564  1.0921   3
   8  -2   3 179.969   6.298   2
  -8  -2  -3 176.829   6.007   1
   8   2   3 180.781   6.264   3
   8   2   3 182.072   5.722   2
  -8   2  -3 181.492   6.192   1
  10  -2   3 261.004   8.479   3
  10  -2   3 268.913   8.726   2
 -10   2  -3 259.430   8.556   1
  10   2   3 217.959   8.518   3
  10   2   3 263.723   8.078   2
 -12  -2  -3 559.091  18.093   1
  12  -2   3 579.369  18.714   2
  12  -2   3 579.556  18.399   3
  12   2   3 581.257  18.102   2
  14  -2   3 78.6114  3.4544   2
 -14  -2  -3 82.4400  3.2390   1
  14  -2   3 84.3926  3.3707   3
  14   2   3 78.4665  2.8299   2
  14   2   3 75.5429  3.4529   3
 -16  -2  -3 31.8953  2.0100   1
  16  -2   3 32.3873  2.1257   2
  16  -2   3 34.9277  2.0958   3
  16   2   3 32.0829  1.5142   2
  16   2   3 34.8857  2.2104   3
 -16   2  -3 32.4993  2.1980   1
 -18  -2  -3 52.6926  2.6226   1
  18  -2   3 44.0852  2.6498   2
  18  -2   3 49.2081  2.6325   3
  18   2   3 41.0383  2.0349   2
 -18   2  -3 45.0799  2.8037   1
  18   2   3 46.3324  2.7589   3
  20  -2   3 45.0997  2.6809   2
  20  -2   3 45.8559  2.6689   3
 -20  -2  -3 43.6495  2.5629   1
  20   2   3 46.6392  2.1408   2
  20   2   3 50.5336  2.8278   3
 -20   2  -3 46.2224  2.8332   1
 -22  -2  -3 76.5563  3.5885   1
  22  -2   3 79.4386  3.7911   2
  22  -2   3 75.3716  3.7095   3
 -22   2  -3 82.7908  3.9975   1
  22   2   3 76.2445  3.1719   2
  22   2   3 83.5119  3.8687   3
  24  -2   3 177.321   6.867   2
  24  -2   3 173.194   6.728   3
 -24  -2  -3 170.564   6.547   1
  24   2   3 170.083   6.791   3
 -24   2  -3 181.441   6.952   1
  26  -2   3 -0.5324  1.0408   2
 -26  -2  -3 0.80766 1.12251   1
  26  -2   3 1.68262 1.33836   3
 -26   2  -3 -1.8645  1.1536   1
  26   2   3 -0.4183  1.1888   3
  28  -2   3 42.2421  2.9332   2
 -28  -2  -3 42.5245  2.7228   1
  28  -2   3 41.6600  3.0275   3
  28   2   3 37.3900  2.8132   3
 -28   2  -3 37.1132  2.8800   1
  30  -2   3 12.1292  2.1005   3
  30  -2   3 11.8197  1.9396   2
 -30  -2  -3 14.3525  1.9792   1
 -30   2  -3 7.12235 1.82083   1
  30   2   3 8.59356 1.91553   3
  32  -2   3 8.31383 2.05599   3
  32  -2   3 11.5550  2.0542   2
 -32  -2  -3 10.0938  1.8399   1
 -32   2  -3 11.9192  2.2278   1
  32   2   3 7.76149 2.02513   3
  34  -2   3 8.37541 2.10582   2
 -34  -2  -3 14.2867  2.1993   1
  34  -2   3 9.12754 2.13814   3
  34   2   3 11.1880  2.3779   3
 -34   2  -3 9.36424 2.25009   1
  36  -2   3 6.01107 2.08290   3
 -36  -2  -3 7.88643 2.02582   1
  36   2   3 8.82529 2.32635   3
 -36   2  -3 9.11488 2.33084   1
  38  -2   3 10.2583  2.6089   3
 -38   2  -3 11.0941  2.5078   1
  38   2   3 9.15122 2.44499   3
  40  -2   3 0.54701 2.01856   3
 -40   2  -3 3.96139 2.26026   1
  40   2   3 -1.5453  2.1644   3
  42   2   3 1.89761 2.49077   3
 -42   2  -3 4.94644 2.34241   1
  44   2   3 -3.7043  2.1659   3
 -44   2  -3 2.22783 2.22667   1
 -45   3   3 11.2756  2.6446   1
  43  -3  -3 1.88024 2.27551   2
 -43   3   3 1.07406 2.14399   1
  41  -3  -3 8.02550 2.44652   2
 -41   3   3 3.13131 2.20985   1
  41   3  -3 0.40996 2.07018   3
  39  -3  -3 1.84514 1.95183   2
  39   3  -3 0.29586 1.89320   3
 -39   3   3 1.14547 1.97383   1
  37  -3  -3 1.76655 1.84117   2
  37   3  -3 -2.3773  1.7066   3
 -37   3   3 -0.6587  1.6842   1
  35  -3  -3 4.57321 2.00582   2
 -35   3   3 5.32725 1.94562   1
  35   3  -3 9.16768 2.07515   3
  33  -3  -3 47.2637  3.5542   2
  33   3  -3 44.4467  3.3725   3
 -33   3   3 46.4824  3.4492   1
  31  -3  -3 18.5703  2.5432   2
 -31   3   3 13.3447  2.3583   1
  31   3  -3 12.8561  2.1878   3
  31   3  -3 14.1607  1.8798   2
  29  -3  -3 130.236   5.959   2
  29   3  -3 135.909   5.471   2
  29   3  -3 126.599   5.795   3
 -29   3   3 127.987   5.926   1
  27  -3  -3 6.25249 1.72943   2
  27   3  -3 8.04777 1.51775   2
  27   3  -3 11.1071  1.9802   3
 -27   3   3 7.23097 1.91301   1
  25  -3  -3 114.263   4.716   3
  25  -3  -3 125.953   5.532   2
 -25   3   3 115.313   5.370   1
  25   3  -3 120.554   4.855   2
  25   3  -3 122.092   5.480   3
  23  -3  -3 3.26086 1.33358   2
 -23  -3   3 3.19553 0.93086   1
  23  -3  -3 5.16041 1.10333   3
  23   3  -3 4.21727 1.59729   3
 -23   3   3 1.23396 1.46590   1
  23   3  -3 5.95241 1.17156   2
  21  -3  -3 212.107   8.203   2
  21  -3  -3 219.413   7.504   3
  21   3  -3 216.603   8.258   3
 -21   3   3 216.070   8.206   1
  21   3  -3 230.218   7.784   2
 -19  -3   3 4.92335 0.77622   1
  19  -3  -3 3.49049 1.09887   2
  19  -3  -3 2.59821 0.57189   3
  19   3  -3 4.39837 1.26099   3
 -19   3   3 5.86789 1.30883   1
  19   3  -3 4.76140 0.92597   2
  17  -3  -3 50.2166  2.7329   2
  17  -3  -3 47.2610  2.0671   3
 -17  -3   3 48.6791  1.9503   1
  17   3  -3 48.1660  2.3301   2
  17   3  -3 49.2916  2.8197   3
 -17   3   3 44.0103  2.7039   1
 -15  -3   3 141.533   4.683   1
  15  -3  -3 149.128   4.934   3
  15  -3  -3 128.030   5.415   2
 -15   3   3 150.864   5.670   1
  15   3  -3 146.178   5.274   2
  15   3  -3 141.341   5.653   3
  13  -3  -3 401.431  12.618   3
 -13  -3   3 400.608  12.246   1
 -13   3   3 387.942  13.165   1
  13   3  -3 392.251  13.101   2
  11  -3  -3 177.863   5.824   3
  11  -3  -3 173.775   6.385   2
 -11   3   3 164.720   6.387   1
  11   3  -3 183.225   6.309   2
   9  -3  -3 1022.16   31.30   3
   9  -3  -3 975.372  32.086   2
   9   3  -3 1022.47   32.10   2
   7  -3  -3 675.317  25.234   2
   7  -3  -3 847.352  24.692   3
   7   3  -3 851.340  25.454   2
   5   3  -3 496.134  15.624   2
   5   3  -3 456.970  14.585   1
   3  -3  -3 391.616  12.466   2
   3   3  -3 384.282  12.670   2
   3   3  -3 369.458  11.822   1
   1  -3  -3 1409.53   42.46   2
   1  -3  -3 1178.06   41.43   1
   1   3  -3 1415.06   42.78   2
   1   3  -3 1394.30   41.24   1
  -1  -3  -3 483.951  15.120   1
  -1  -3  -3 486.094  15.336   2
  -1   3  -3 465.333  14.947   1
  -3  -3  -3 745.615  23.075   1
  -3   3  -3 746.882  23.052   1
   3   3   3 733.535  23.492   3
  -5  -3  -3 13.7179  1.0129   1
  -5   3  -3 14.3228  1.1856   1
   5   3   3 13.7362  1.2655   3
   7  -3   3 22.5007  1.4334   3
  -7   3  -3 20.8274  1.4428   1
   7   3   3 19.9949  1.5319   3
   7   3   3 22.9478  1.0989   2
   9  -3   3 27.6438  1.8607   2
   9  -3   3 27.5724  1.7324   3
   9   3   3 26.2750  1.8032   3
   9   3   3 30.0167  1.2553   2
  -9   3  -3 27.2771  1.7590   1
  11  -3   3 225.887   7.864   2
  11  -3   3 222.867   7.594   3
 -11  -3  -3 212.325   7.374   1
 -11   3  -3 222.474   7.706   1
  11   3   3 221.782   7.111   2
  11   3   3 214.087   7.786   3
 -13  -3  -3 108.293   4.062   1
  13  -3   3 106.541   4.199   3
  13  -3   3 108.261   4.466   2
  13   3   3 100.446   4.348   3
 -13   3  -3 102.068   4.326   1
  13   3   3 107.733   3.603   2
  15  -3   3 468.086  15.389   3
 -15  -3  -3 456.931  15.095   1
  15  -3   3 491.760  15.858   2
  15   3   3 484.957  14.962   2
 -15   3  -3 447.723  15.419   1
  17  -3   3 448.583  14.909   3
 -17  -3  -3 450.043  14.644   1
  17  -3   3 447.577  15.299   2
  17   3   3 456.983  14.422   2
  19  -3   3 132.826   5.259   3
 -19  -3  -3 130.538   5.108   1
  19  -3   3 134.490   5.570   2
  19   3   3 133.947   4.663   2
 -21  -3  -3 233.434   8.325   1
  21  -3   3 229.499   8.781   2
  21  -3   3 235.144   8.526   3
  21   3   3 252.497   8.863   3
 -23  -3  -3 45.0583  2.6306   1
  23  -3   3 42.9347  2.7387   3
  23  -3   3 43.9988  2.9234   2
 -23   3  -3 44.0713  2.9870   1
  23   3   3 45.8075  2.9501   3
  25  -3   3 53.2343  3.0454   3
  25  -3   3 44.5895  3.0448   2
 -25  -3  -3 49.8590  2.8911   1
 -25   3  -3 47.9181  3.3472   1
  25   3   3 50.0309  3.1407   3
  27  -3   3 1.84069 1.38019   2
  27  -3   3 2.31603 1.42591   3
 -27  -3  -3 2.12889 1.17957   1
  27   3   3 2.30154 1.42753   3
 -27   3  -3 2.05898 1.54419   1
  29  -3   3 5.06839 1.70696   3
 -29  -3  -3 4.36366 1.45425   1
  29  -3   3 3.10681 1.59556   2
 -29   3  -3 2.05904 1.57910   1
  29   3   3 0.99769 1.53494   3
 -31  -3  -3 2.22033 1.36069   1
  31  -3   3 4.82430 1.68907   3
  31  -3   3 4.97404 1.78225   2
  31   3   3 3.57284 1.75003   3
 -31   3  -3 4.62553 1.98737   1
  33  -3   3 39.4723  3.3737   3
  33  -3   3 31.3292  3.2826   2
  33   3   3 36.1579  3.1554   3
 -33   3  -3 34.8960  3.2151   1
  35  -3   3 9.65882 2.24945   3
  35  -3   3 10.8483  2.3552   2
 -35   3  -3 4.80602 2.10321   1
  35   3   3 3.93349 2.11957   3
  37  -3   3 32.4588  3.1927   3
 -37   3  -3 29.9309  3.4256   1
  37   3   3 28.0047  3.3161   3
 -39   3  -3 0.84660 2.13616   1
  39   3   3 -2.0143  2.1466   3
 -41   3  -3 10.3432  2.6116   1
  41   3   3 11.7951  2.9158   3
  43   3   3 -4.0898  2.2901   3
 -43   3  -3 -1.7303  2.0976   1
  44  -4  -3 -0.4157  2.2406   2
 -44   4   3 1.22156 2.24615   1
  44   4  -3 -0.0464  2.2063   3
  42  -4  -3 23.0217  3.4897   2
  42   4  -3 22.2194  3.1209   3
 -42   4   3 23.8451  3.3512   1
  40  -4  -3 -1.2968  1.9553   2
  40   4  -3 0.85044 2.08408   3
 -40   4   3 0.40720 2.04843   1
  38  -4  -3 26.8642  3.4676   2
  38   4  -3 30.1832  3.4432   3
 -38   4   3 28.9937  3.5059   1
  36  -4  -3 -1.7369  1.7208   2
  36   4  -3 -1.8053  1.6846   3
 -36   4   3 -0.8563  1.9597   1
  34  -4  -3 41.9693  3.5543   2
 -34   4   3 40.6394  3.6110   1
  34   4  -3 37.7013  3.4186   3
  32  -4  -3 54.3714  3.9187   2
  32   4  -3 49.5707  3.6802   3
 -32   4   3 50.7250  3.9593   1
  30  -4  -3 82.2344  4.6724   2
  30   4  -3 85.6349  4.6899   3
 -30   4   3 82.1195  4.6995   1
  28  -4  -3 99.7342  5.1205   2
 -28   4   3 90.7657  4.9591   1
  28   4  -3 96.1453  4.9867   3
  28   4  -3 95.1883  4.2796   2
  26  -4  -3 246.023   9.534   2
  26   4  -3 240.706   8.695   2
  26   4  -3 244.708   9.466   3
 -26   4   3 232.649   9.266   1
  24  -4  -3 8.50142 1.83222   2
  24   4  -3 3.78027 1.65956   3
 -24   4   3 7.47192 1.78587   1
  24   4  -3 6.52635 1.24843   2
  22  -4  -3 185.409   6.806   3
  22  -4  -3 198.598   7.794   2
  22   4  -3 196.387   7.790   3
 -22   4   3 197.421   7.703   1
  22   4  -3 193.653   7.058   2
  20  -4  -3 13.4729  1.3193   3
  20  -4  -3 12.0171  1.8497   2
  20   4  -3 9.77692 1.75443   3
 -20   4   3 10.9651  1.7923   1
  20   4  -3 11.8205  1.3558   2
  18   4  -3 61.4901  2.7959   2
 -18   4   3 56.3116  3.2432   1
  18   4  -3 54.4662  3.3176   3
 -16  -4   3 70.4735  2.5306   1
  16   4  -3 71.6414  3.7105   3
  16   4  -3 75.6639  3.2185   2
 -16   4   3 66.9797  3.5593   1
 -14  -4   3 17.1271  0.8929   1
  14  -4  -3 16.6050  1.2270   3
  14  -4  -3 14.6250  1.6122   2
  14   4  -3 15.6657  1.4576   2
 -12  -4   3 258.588   7.957   1
  12  -4  -3 251.552   9.056   2
  12  -4  -3 256.579   8.429   3
  12   4  -3 252.824   8.914   2
  10  -4  -3 330.357  11.437   2
  10  -4  -3 333.715  10.822   3
 -10  -4   3 331.546  10.312   1
  10   4  -3 340.230  11.389   2
   8  -4  -3 960.681  31.010   2
   8  -4  -3 965.811  30.227   3
   8  -4  -3 964.182  30.305   1
   8   4  -3 974.600  31.027   2
   6  -4  -3 69.2408  3.0521   2
   6  -4  -3 70.4613  3.1221   1
   6   4  -3 64.4075  2.3835   1
   6   4  -3 64.8914  3.0333   2
   4  -4  -3 716.874  22.849   2
   4  -4  -3 688.855  22.340   1
   4   4  -3 702.964  21.860   1
   4   4  -3 726.194  23.063   2
  -2  -4   3 293.585   9.906   3
   2  -4  -3 301.211   9.746   1
   2   4  -3 286.789   9.334   1
   2   4  -3 286.668  10.082   2
   0  -4  -3 571.043  17.945   1
   0  -4   3 563.156  18.266   3
   0   4  -3 563.148  17.711   1
   2  -4   3 46.9416  2.3199   3
  -2  -4  -3 44.3638  2.1762   1
  -2   4  -3 48.1456  2.1509   1
   4  -4   3 118.066   4.542   3
   4   4   3 122.145   4.645   3
  -4   4  -3 118.013   4.386   1
  -6  -4  -3 12.2989  1.1193   1
   6  -4   3 11.2673  1.2592   3
  -6   4  -3 12.7420  1.2729   1
   6   4   3 11.2694  1.0379   2
   6   4   3 12.3262  1.4165   3
   8  -4   3 11.4218  1.3069   3
  -8  -4  -3 11.2109  1.1247   1
   8   4   3 10.2742  1.3389   3
  -8   4  -3 14.4767  1.3508   1
   8   4   3 10.1412  1.0222   2
  10  -4   3 10.9063  1.4801   2
 -10  -4  -3 10.2417  1.1380   1
  10  -4   3 10.1562  1.3056   3
 -10   4  -3 9.38996 1.31753   1
  10   4   3 10.2778  0.9939   2
  10   4   3 12.0874  1.5179   3
  12  -4   3 812.278  26.371   2
 -12  -4  -3 803.633  25.270   1
  12  -4   3 805.988  25.797   3
  12   4   3 814.546  26.119   3
 -12   4  -3 798.322  25.637   1
  12   4   3 808.816  25.523   2
  14  -4   3 19.7012  1.8735   3
 -14  -4  -3 22.1795  1.8425   1
  14  -4   3 17.4468  1.9788   2
  14   4   3 23.2727  1.2706   2
  14   4   3 24.1557  2.1883   3
 -14   4  -3 24.9208  2.1466   1
  16  -4   3 671.685  22.015   3
  16  -4   3 703.785  22.651   2
 -16  -4  -3 668.294  21.557   1
 -16   4  -3 680.950  22.078   1
  16   4   3 679.326  21.562   2
 -18  -4  -3 2.27953 1.05976   1
  18  -4   3 2.49779 1.15332   3
  18  -4   3 3.83533 1.49354   2
 -18   4  -3 1.02926 0.86971   1
 -20  -4  -3 134.877   5.195   1
  20  -4   3 125.889   5.290   3
  20  -4   3 133.484   5.693   2
 -22  -4  -3 20.9366  1.8733   1
  22  -4   3 22.0806  2.4637   2
  22  -4   3 20.6516  2.1032   3
 -22   4  -3 19.5976  2.2765   1
  22   4   3 22.2784  2.3899   3
  24  -4   3 2.78029 1.21541   3
 -24  -4  -3 4.19722 1.20604   1
  24  -4   3 -0.1974  1.3510   2
  24   4   3 3.46701 1.54588   3
 -24   4  -3 1.98019 1.36797   1
 -26  -4  -3 46.6065  2.7613   1
  26  -4   3 45.4363  3.2460   2
  26  -4   3 43.7723  2.9830   3
  26   4   3 45.0439  3.1817   3
 -26   4  -3 45.0190  3.2604   1
  28  -4   3 8.92500 2.07453   2
  28  -4   3 10.4599  1.9344   3
 -28  -4  -3 11.6193  1.8017   1
  28   4   3 10.8232  2.1073   3
 -28   4  -3 8.84358 2.05505   1
  30  -4   3 21.9604  2.6271   3
  30  -4   3 25.0229  2.8669   2
  30   4   3 25.4620  2.8300   3
 -30   4  -3 21.3328  2.7224   1
  32  -4   3 52.2153  3.7104   3
  32  -4   3 54.5426  3.9210   2
  32   4   3 54.4170  3.7683   3
 -32   4  -3 56.8875  3.9416   1
  34  -4   3 18.0684  2.7198   3
  34  -4   3 16.0284  2.7408   2
  34   4   3 20.8074  2.9441   3
 -34   4  -3 14.2042  2.6585   1
  36  -4   3 45.2676  3.8253   2
 -36   4  -3 41.7024  3.7281   1
  36   4   3 44.5909  3.6765   3
 -38   4  -3 26.2749  3.4534   1
  38   4   3 26.5463  3.3527   3
  40   4   3 13.3268  2.9193   3
 -40   4  -3 12.3298  2.8438   1
  42   4   3 12.5856  3.0037   3
 -42   4  -3 9.37241 2.85720   1
  43  -5  -3 14.8200  3.2580   2
  43   5  -3 14.8291  3.1140   3
  41  -5  -3 10.4410  2.8981   2
 -41   5   3 6.65821 2.52776   1
  41   5  -3 6.20001 2.56897   3
  39  -5  -3 14.5950  2.9661   2
  39   5  -3 11.2256  2.7226   3
 -39   5   3 12.6762  2.7719   1
  37  -5  -3 14.1047  2.9719   2
 -37   5   3 15.7330  2.9991   1
  37   5  -3 16.0535  2.9186   3
  35  -5  -3 11.2668  2.5471   2
  35   5  -3 12.2100  2.5923   3
 -35   5   3 10.0169  2.6519   1
  33  -5  -3 53.2592  4.1364   2
  33   5  -3 53.7060  4.1089   3
 -33   5   3 47.9220  4.0696   1
  31  -5  -3 8.92664 2.27854   2
  31   5  -3 10.4664  2.4256   3
 -31   5   3 6.67250 2.31272   1
  29  -5  -3 204.942   8.923   2
 -29   5   3 214.595   8.887   1
  29   5  -3 220.735   8.970   3
  27  -5  -3 2.26144 1.64844   2
  27   5  -3 1.75698 1.25119   2
 -27   5   3 4.76615 1.89694   1
  27   5  -3 4.32222 1.92358   3
  25  -5  -3 229.283   9.129   2
  25   5  -3 217.177   8.105   2
 -25   5   3 222.353   8.953   1
  25   5  -3 225.252   9.082   3
  23  -5  -3 5.63223 1.63318   2
 -23   5   3 4.92415 1.68361   1
  23   5  -3 6.05320 1.75071   3
  23   5  -3 5.06084 1.22026   2
  21  -5  -3 181.233   7.753   2
  21   5  -3 199.373   7.198   2
  21   5  -3 201.227   8.010   3
 -21   5   3 196.018   7.826   1
  19  -5  -3 5.28646 1.05949   3
  19  -5  -3 3.66815 1.24342   2
  19   5  -3 3.75315 1.06265   2
 -19   5   3 3.41195 1.27848   1
  19   5  -3 5.61818 1.59733   3
  15  -5  -3 6.98784 1.42570   2
  15  -5  -3 8.74079 1.12142   3
  15   5  -3 13.9335  1.5155   2
  13  -5  -3 160.997   6.334   2
 -13   5   3 153.842   6.386   1
  13   5  -3 162.132   6.127   2
  11  -5  -3 12.5885  1.5985   2
 -11  -5   3 11.1374  0.8306   1
  11   5  -3 10.3118  1.4474   2
 -11   5   3 9.65911 1.65813   1
   9  -5  -3 601.613  20.227   2
   9   5  -3 622.140  20.217   2
   7  -5  -3 134.176   5.288   2
   7  -5  -3 133.074   5.251   1
   7   5  -3 123.379   4.488   1
   7   5  -3 138.688   5.345   2
   5  -5  -3 1685.96   52.42   1
   5  -5  -3 1694.32   53.70   2
   5   5  -3 1657.68   51.81   1
   5   5  -3 1738.31   53.90   2
   3  -5  -3 351.994  11.934   2
   3  -5  -3 356.849  11.759   1
   3   5  -3 350.720  11.304   1
   3   5  -3 347.218  12.185   2
   1  -5  -3 1498.04   45.91   2
   1  -5  -3 1461.89   44.82   1
  -1  -5   3 1400.35   45.49   3
   1   5  -3 1437.28   46.21   2
   1   5  -3 1432.38   44.48   1
   1  -5   3 148.137   5.661   3
  -1  -5  -3 149.644   5.477   1
  -1   5  -3 145.946   5.298   1
  -3  -5  -3 251.774   8.577   1
   3  -5   3 256.988   8.878   3
  -3   5  -3 247.828   8.511   1
   5  -5   3 38.4697  2.3352   3
  -5  -5  -3 41.5210  2.2025   1
  -5   5  -3 39.3031  2.2551   1
   5   5   3 43.3405  2.5424   3
   7  -5   3 131.269   5.171   3
  -7  -5  -3 131.317   4.921   1
   7   5   3 132.151   4.920   2
  -7   5  -3 133.070   5.115   1
   7   5   3 131.722   5.362   3
  -9  -5  -3 134.653   4.977   1
   9  -5   3 135.867   5.280   3
   9   5   3 136.860   5.525   3
   9   5   3 127.347   4.900   2
  -9   5  -3 134.323   5.234   1
 -11  -5  -3 215.555   7.379   1
  11  -5   3 213.051   7.714   3
  11   5   3 214.249   8.010   3
 -11   5  -3 212.870   7.733   1
  11   5   3 204.540   7.284   2
 -13  -5  -3 568.704  18.308   1
  13  -5   3 560.640  18.800   3
  13  -5   3 599.294  19.477   2
  13   5   3 565.208  18.439   2
  13   5   3 572.373  19.189   3
 -13   5  -3 573.681  18.795   1
 -15  -5  -3 224.966   7.796   1
  15  -5   3 230.498   8.662   2
  15  -5   3 224.199   8.135   3
  15   5   3 218.164   8.519   3
  15   5   3 222.848   7.533   2
 -15   5  -3 217.291   8.271   1
 -17  -5  -3 382.014  12.567   1
  17  -5   3 383.557  13.550   2
  17  -5   3 369.688  12.947   3
  17   5   3 370.960  13.367   3
 -17   5  -3 388.857  13.225   1
 -19  -5  -3 52.6623  2.7520   1
  19  -5   3 46.4039  3.2604   2
  19  -5   3 51.5240  2.9216   3
 -19   5  -3 43.6946  3.1314   1
  19   5   3 46.3366  3.2244   3
 -21  -5  -3 60.0665  3.1563   1
  21  -5   3 66.6832  3.4836   3
  21  -5   3 61.9702  3.8037   2
 -21   5  -3 63.8411  3.7062   1
  21   5   3 66.0701  3.8173   3
 -23  -5  -3 21.0280  2.0745   1
  23  -5   3 24.2138  2.2820   3
  23  -5   3 23.6665  2.7422   2
  23   5   3 20.7592  2.5553   3
 -23   5  -3 18.9120  2.4778   1
  25  -5   3 36.5412  2.9623   2
  25  -5   3 37.6397  2.6837   3
 -25   5  -3 38.0524  3.0564   1
  25   5   3 38.6105  3.1120   3
  27  -5   3 -1.3765  1.4105   2
  27  -5   3 -0.9250  1.2412   3
 -27   5  -3 -1.2619  1.4143   1
  27   5   3 1.04205 1.57827   3
  29  -5   3 35.6815  3.1735   2
  29  -5   3 33.5032  2.8888   3
 -29   5  -3 35.8052  3.1460   1
  29   5   3 32.6581  3.0676   3
  31  -5   3 17.1084  2.4685   3
  31  -5   3 19.5925  2.8393   2
  31   5   3 19.0498  2.7753   3
 -31   5  -3 18.7651  2.7520   1
  33  -5   3 59.0159  4.3003   2
 -33   5  -3 56.8815  4.2011   1
  33   5   3 64.3353  4.2419   3
  35  -5   3 3.34449 2.23242   2
 -35   5  -3 3.04274 2.17960   1
  35   5   3 6.58753 2.40815   3
  37  -5   3 56.2583  4.4260   2
 -37   5  -3 55.4342  4.4490   1
  37   5   3 58.6670  4.2794   3
  39  -5   3 1.80420 2.25563   2
  39   5   3 2.72288 2.39640   3
 -39   5  -3 2.25566 2.27302   1
  40  -6  -3 4.72570 2.54640   2
 -40   6   3 4.55508 2.40138   1
  40   6  -3 2.11669 2.32180   3
  38  -6  -3 15.3652  3.1846   2
  38   6  -3 13.2237  2.9605   3
 -38   6   3 12.0656  2.8355   1
  36  -6  -3 2.05830 2.05889   2
 -36   6   3 0.82949 2.16401   1
  36   6  -3 -1.7129  1.9229   3
  34  -6  -3 39.1900  3.9597   2
  34   6  -3 44.2687  4.0177   3
 -34   6   3 44.9993  4.0566   1
  32  -6  -3 -0.0209  2.0313   2
  32   6  -3 2.56254 2.09261   3
 -32   6   3 4.21207 2.19889   1
  30  -6  -3 147.606   7.183   2
  30   6  -3 141.064   6.975   3
 -30   6   3 139.471   6.923   1
  28  -6  -3 49.7811  3.9243   2
  28   6  -3 48.1580  3.8775   3
 -28   6   3 45.0794  3.6912   1
  26  -6  -3 119.958   6.022   2
 -26   6   3 115.330   5.891   1
  26   6  -3 109.696   5.868   3
  24  -6  -3 159.267   7.276   2
 -24   6   3 159.498   7.182   1
  24   6  -3 162.467   6.344   2
  24   6  -3 164.919   7.388   3
  22  -6  -3 34.0641  3.0676   2
 -22   6   3 36.1385  3.0906   1
  22   6  -3 31.6180  3.1370   3
  22   6  -3 33.3731  2.4523   2
  20  -6  -3 128.383   5.949   2
  20   6  -3 128.407   6.133   3
 -20   6   3 129.953   5.938   1
  20   6  -3 123.645   5.211   2
  18  -6  -3 44.6570  3.1598   2
 -18   6   3 43.6256  3.1968   1
  18   6  -3 48.3419  2.7316   2
  18   6  -3 48.0356  3.4641   3
  16  -6  -3 38.6307  2.2055   3
  16  -6  -3 37.6418  2.8377   2
 -16   6   3 40.4159  3.0222   1
  16   6  -3 37.9383  2.5654   2
  16   6  -3 32.5479  3.0210   3
  14  -6  -3 110.019   4.390   3
  14  -6  -3 114.915   5.063   2
 -14   6   3 104.303   5.153   1
  14   6  -3 110.506   4.765   2
  12  -6  -3 27.6738  1.9669   3
  12  -6  -3 24.9523  2.2300   2
 -12   6   3 27.7179  2.7043   1
  12   6  -3 27.6910  2.2605   2
  10  -6  -3 510.222  16.293   3
  10  -6  -3 485.595  16.974   2
 -10   6   3 500.718  16.816   1
  10   6  -3 497.300  16.892   2
   8  -6  -3 669.477  21.328   2
   8   6  -3 609.356  19.875   1
   8   6  -3 637.045  21.246   2
   6  -6  -3 79.2232  3.8010   2
   6  -6  -3 73.8043  3.8138   1
   6   6  -3 74.8253  3.1446   1
   6   6  -3 80.0067  3.9828   2
   4  -6  -3 1124.37   35.91   1
   4  -6  -3 1167.13   36.83   2
   4   6  -3 1108.99   35.36   1
   4   6  -3 1174.46   37.09   2
   2  -6  -3 22.0482  2.0017   1
   2   6  -3 19.7804  2.1705   2
   2   6  -3 18.2398  1.6662   1
   0  -6   3 587.660  19.773   3
   0  -6  -3 589.459  19.347   1
   0   6  -3 631.459  20.362   2
   0   6  -3 595.941  19.136   1
   2  -6   3 8.31862 1.50692   3
  -2  -6  -3 8.73283 1.35190   1
  -2   6  -3 6.91019 1.29551   1
   4  -6   3 276.046   9.904   3
  -4  -6  -3 282.274   9.588   1
  -4   6  -3 282.682   9.613   1
   6  -6   3 10.6256  1.5950   3
  -6  -6  -3 10.1137  1.3882   1
   6   6   3 13.2902  1.8318   3
   6   6   3 11.9150  1.4316   2
  -6   6  -3 10.7792  1.4663   1
   8  -6   3 211.231   7.868   3
  -8  -6  -3 218.722   7.533   1
   8   6   3 213.498   8.144   3
  -8   6  -3 201.763   7.687   1
   8   6   3 216.631   7.666   2
 -10  -6  -3 76.5221  3.4723   1
  10  -6   3 71.6459  3.6893   3
  10   6   3 73.3466  3.3604   2
 -10   6  -3 73.5703  3.6369   1
  10   6   3 79.1817  4.0801   3
  12  -6   3 568.666  19.209   3
 -12  -6  -3 588.168  18.656   1
  12   6   3 587.107  18.932   2
 -12   6  -3 565.527  19.076   1
  12   6   3 590.798  19.633   3
 -14  -6  -3 5.33111 1.27808   1
  14  -6   3 5.93534 1.47277   3
 -14   6  -3 6.05201 1.60997   1
  14   6   3 5.13294 1.68936   3
 -16  -6  -3 348.701  11.916   1
  16  -6   3 361.331  12.462   3
 -16   6  -3 364.420  12.608   1
  16   6   3 349.597  12.875   3
  18  -6   3 49.4168  3.4772   2
 -18  -6  -3 59.1485  3.0159   1
  18  -6   3 55.2554  3.2248   3
  18   6   3 52.6765  3.6265   3
 -18   6  -3 55.6978  3.5361   1
  20  -6   3 146.188   6.613   2
  20  -6   3 152.665   6.194   3
  20   6   3 142.198   6.575   3
 -20   6  -3 145.929   6.462   1
  22  -6   3 39.6321  2.8873   3
  22  -6   3 33.2208  3.1732   2
  22   6   3 41.7664  3.3253   3
 -22   6  -3 32.1461  3.1864   1
  24  -6   3 66.6764  4.2918   2
  24  -6   3 67.2761  3.8004   3
  24   6   3 68.6650  4.3482   3
 -24   6  -3 63.4903  4.0980   1
  26  -6   3 8.40758 2.25222   2
  26  -6   3 7.92541 1.77714   3
 -26   6  -3 8.10570 2.05346   1
  26   6   3 5.15535 1.99595   3
  28  -6   3 67.9085  4.0318   3
  28  -6   3 68.7153  4.5047   2
 -28   6  -3 67.4815  4.2833   1
  28   6   3 70.0181  4.3744   3
 -30   6  -3 0.75280 1.73013   1
  30   6   3 4.31570 2.08262   3
  32  -6   3 53.9664  4.1927   2
  32   6   3 50.9834  3.9407   3
 -32   6  -3 46.9545  3.9430   1
  34  -6   3 9.89950 2.65545   2
  34   6   3 8.24623 2.58800   3
 -34   6  -3 7.66236 2.39597   1
  36  -6   3 22.3493  3.4540   2
  36   6   3 17.0153  3.0814   3
 -36   6  -3 22.4712  3.2980   1
  38  -6   3 29.5627  3.9813   2
 -38   6  -3 32.0929  3.9568   1
  40  -6   3 8.21370 2.84373   2
  37  -7  -3 14.0198  3.1147   2
  37   7  -3 12.2016  2.9597   3
 -37   7   3 19.5071  3.4225   1
  35  -7  -3 18.4656  3.3584   2
  35   7  -3 16.4888  3.1379   3
 -35   7   3 21.3791  3.3896   1
  33  -7  -3 29.8516  3.8106   2
  33   7  -3 27.4600  3.7911   3
 -33   7   3 30.8069  3.7824   1
  31  -7  -3 43.3475  4.0403   2
  31   7  -3 42.4849  3.9399   3
 -31   7   3 37.8540  4.0227   1
  29  -7  -3 44.8653  3.7869   2
 -29   7   3 42.2365  3.8197   1
  29   7  -3 43.3649  3.8644   3
  27  -7  -3 -1.3959  1.6848   2
  27   7  -3 0.92261 1.83104   3
 -27   7   3 4.38282 2.00615   1
  25  -7  -3 62.9553  4.2361   2
  25   7  -3 70.8459  4.6886   3
 -25   7   3 65.8836  4.3041   1
  23  -7  -3 2.39624 1.81546   2
 -23   7   3 6.78527 1.95772   1
  23   7  -3 3.68636 1.93256   3
  21  -7  -3 207.365   8.888   2
 -21   7   3 212.813   8.869   1
  21   7  -3 219.382   8.196   2
  21   7  -3 217.224   9.199   3
  19  -7  -3 21.2932  2.7374   2
  19   7  -3 17.8644  2.0626   2
  19   7  -3 18.2546  2.8012   3
 -19   7   3 14.8282  2.6023   1
  17  -7  -3 209.659   8.842   2
  17   7  -3 230.063   9.273   3
 -17   7   3 232.234   9.103   1
  17   7  -3 218.344   8.414   2
  15  -7  -3 12.3194  2.1284   2
  15   7  -3 16.0167  1.9556   2
 -15   7   3 10.5324  2.2528   1
  13  -7  -3 302.135  11.316   2
  13  -7  -3 300.361  10.476   3
  13   7  -3 308.953  11.020   2
 -13   7   3 300.583  11.262   1
  11  -7  -3 77.5265  4.1175   2
  11   7  -3 76.4033  3.9555   2
 -11   7   3 66.1386  4.0534   1
   9  -7  -3 518.144  18.274   2
  -9   7   3 552.577  18.169   1
   9   7  -3 535.039  18.278   2
   7  -7  -3 41.5640  2.8838   2
   7   7  -3 45.2766  3.1141   2
   5  -7  -3 356.180  12.220   1
   5   7  -3 347.552  12.665   2
   5   7  -3 350.577  11.581   1
   3  -7  -3 218.554   8.130   1
   3   7  -3 227.922   8.642   2
   3   7  -3 215.017   7.659   1
   1  -7  -3 41.1283  2.6045   1
   1   7  -3 35.6364  2.9779   2
   1   7  -3 37.2337  2.3024   1
  -1  -7  -3 87.5509  4.0309   1
  -1   7  -3 92.8396  4.7139   2
  -1   7  -3 89.7698  3.9003   1
   3  -7   3 24.4923  2.2172   3
  -3  -7  -3 22.3384  2.0158   1
  -3   7  -3 23.7796  2.0493   1
  -5  -7  -3 54.5961  2.9753   1
   5  -7   3 54.7569  3.3072   3
  -5   7  -3 56.0786  3.0283   1
   5   7   3 54.6915  3.0966   2
  -7  -7  -3 216.907   7.881   1
   7  -7   3 219.362   8.310   3
   7   7   3 223.218   8.141   2
  -7   7  -3 216.286   8.069   1
   7   7   3 219.070   8.553   3
   9  -7   3 10.7332  1.8967   3
  -9  -7  -3 9.36431 1.50938   1
   9   7   3 10.1313  2.0382   3
   9   7   3 8.69783 1.51810   2
  -9   7  -3 12.5493  1.8328   1
  11  -7   3 361.259  12.606   3
 -11  -7  -3 368.206  12.100   1
  11   7   3 363.211  13.005   3
  11   7   3 349.055  12.254   2
 -11   7  -3 348.227  12.438   1
 -13  -7  -3 71.1062  3.4589   1
  13  -7   3 67.2470  3.8069   3
 -13   7  -3 69.1217  3.8970   1
  13   7   3 70.1283  4.2661   3
  15  -7   3 87.3483  4.3759   3
  15   7   3 93.7025  4.9137   3
 -15   7  -3 87.3132  4.6266   1
  17  -7   3 309.545  10.991   3
 -17   7  -3 298.699  11.088   1
  17   7   3 289.923  11.412   3
  19  -7   3 4.69921 1.56445   3
 -19   7  -3 2.15613 1.93391   1
  19   7   3 3.67566 1.95421   3
  21  -7   3 171.587   7.137   3
 -21   7  -3 171.742   7.491   1
  21   7   3 172.168   7.669   3
  23  -7   3 12.8043  2.1118   3
 -23   7  -3 11.4674  2.4953   1
  23   7   3 9.81163 2.43769   3
  25  -7   3 83.1785  4.5691   3
  25  -7   3 84.3127  5.1619   2
 -25   7  -3 86.9234  4.9744   1
  25   7   3 86.6681  5.0972   3
  27  -7   3 29.3845  3.4585   2
 -27   7  -3 33.1198  3.4571   1
  27   7   3 29.5617  3.3602   3
  29  -7   3 26.4146  3.4056   2
 -29   7  -3 22.9179  3.0715   1
  29   7   3 27.8270  3.3150   3
  31  -7   3 9.77940 2.56715   2
 -31   7  -3 15.9454  2.7491   1
  31   7   3 10.8049  2.5449   3
  33  -7   3 14.2143  2.9597   2
 -33   7  -3 13.0877  2.7522   1
  33   7   3 12.9858  2.8224   3
  35  -7   3 -2.1100  1.8273   2
 -35   7  -3 1.51742 2.20225   1
  35   7   3 -2.5917  2.0359   3
  34  -8  -3 33.4715  4.2522   2
  34   8  -3 32.4896  4.0349   3
 -34   8   3 33.4386  4.1494   1
  32  -8  -3 2.04209 2.24294   2
  32   8  -3 0.90500 2.44323   3
 -32   8   3 1.15679 2.36589   1
  30  -8  -3 53.5212  4.5665   2
 -30   8   3 54.9551  4.3952   1
  30   8  -3 49.0363  4.3841   3
  28  -8  -3 11.9880  2.8269   2
 -28   8   3 7.80566 2.37454   1
  28   8  -3 10.3892  2.8169   3
  26  -8  -3 17.2783  2.9308   2
  26   8  -3 18.5236  3.1256   3
 -26   8   3 18.0766  2.9528   1
  24  -8  -3 32.9296  3.2118   2
  24   8  -3 31.7641  3.6363   3
 -24   8   3 35.1465  3.3577   1
  22  -8  -3 19.7978  2.8592   2
  22   8  -3 22.4467  3.1478   3
 -22   8   3 24.3182  3.0730   1
  20  -8  -3 52.2831  3.8626   2
 -20   8   3 50.5609  3.8478   1
  20   8  -3 47.9611  4.0130   3
  18  -8  -3 77.0044  4.5841   2
  18   8  -3 75.1914  4.9557   3
 -18   8   3 82.9405  4.8713   1
  18   8  -3 80.2752  4.1615   2
  16  -8  -3 63.1383  4.0624   2
  16   8  -3 69.0540  3.8164   2
 -16   8   3 60.3232  4.2990   1
  16   8  -3 73.5850  4.6991   3
  14  -8  -3 177.853   7.592   2
  14   8  -3 172.553   7.140   2
 -14   8   3 167.142   7.552   1
  12  -8  -3 62.0317  3.8737   2
  12   8  -3 62.3400  3.7355   2
 -12   8   3 66.1443  4.2935   1
  10  -8  -3 123.306   5.881   2
 -10   8   3 120.581   5.788   1
  10   8  -3 130.156   5.739   2
  -8   8   3 131.713   5.936   1
   8   8  -3 130.322   5.937   2
   6   8  -3 -2.0009  1.3083   2
   4  -8  -3 143.863   5.890   1
   4   8  -3 127.091   6.101   2
   2  -8  -3 -0.5827  1.3037   1
   2   8  -3 -0.3523  1.0925   1
   2   8  -3 -1.3064  1.5582   2
   0  -8  -3 167.321   6.637   1
   0   8  -3 165.992   7.273   2
   0   8  -3 165.121   6.400   1
  -2  -8  -3 44.4208  2.9140   1
  -2   8  -3 39.8479  2.8467   1
  -2   8  -3 42.0966  3.4799   2
  -4  -8  -3 240.250   8.770   1
   4  -8   3 238.629   9.172   3
   4   8   3 243.797   9.171   2
  -4   8  -3 234.875   8.745   1
   6  -8   3 5.36822 1.72937   3
  -6  -8  -3 4.81515 1.44690   1
  -6   8  -3 1.22929 1.51305   1
   6   8   3 3.08629 1.73632   3
   6   8   3 2.98129 1.47755   2
  -8  -8  -3 111.563   4.773   1
   8  -8   3 110.958   5.123   3
   8   8   3 103.114   4.878   2
  -8   8  -3 109.124   4.997   1
   8   8   3 107.031   5.501   3
 -10  -8  -3 7.95517 1.54610   1
  10  -8   3 7.21826 1.75135   3
 -10   8  -3 9.34806 1.79743   1
  10   8   3 6.09687 1.95515   3
  12  -8   3 78.4760  4.3393   3
 -12   8  -3 86.7767  4.4042   1
  12   8   3 84.8958  4.8427   3
  14  -8   3 2.26695 1.64340   3
  14   8   3 2.77689 1.70872   3
 -14   8  -3 1.62855 1.61291   1
  16  -8   3 99.3504  4.9374   3
  16   8   3 102.326   5.484   3
 -16   8  -3 105.527   5.187   1
  18  -8   3 34.1696  3.0720   3
  18   8   3 42.3390  3.5844   3
 -18   8  -3 35.6667  3.3740   1
  20  -8   3 115.238   5.566   3
 -20   8  -3 116.901   5.850   1
  20   8   3 111.483   6.000   3
  22  -8   3 27.3127  2.9655   3
  22   8   3 26.2942  3.4808   3
 -22   8  -3 26.2829  3.2504   1
 -24   8  -3 61.9333  4.4346   1
  24   8   3 61.1480  4.4818   3
  26   8   3 4.31793 2.27997   3
 -26   8  -3 7.81419 2.37532   1
  28   8   3 29.7572  3.7179   3
 -28   8  -3 26.9738  3.4790   1
  30   8   3 -0.3518  1.9919   3
 -30   8  -3 5.00568 2.27806   1
  32   8   3 7.86201 2.70035   3
 -32   8  -3 7.29722 2.60722   1
 -34   8  -3 2.10997 2.25073   1
  31  -9  -3 7.09557 2.62661   2
 -31   9   3 6.00433 2.66998   1
  31   9  -3 6.61021 2.79106   3
  29  -9  -3 50.2539  4.6425   2
 -29   9   3 60.0103  4.7649   1
  29   9  -3 50.6910  4.7279   3
  27  -9  -3 2.49098 2.16751   2
  27   9  -3 3.52268 2.47799   3
 -27   9   3 4.45910 2.31943   1
  25  -9  -3 46.3681  4.1896   2
  25   9  -3 44.9422  4.1851   3
 -25   9   3 46.4435  4.0426   1
  23  -9  -3 0.67827 1.91633   2
  23   9  -3 -0.6446  1.9233   3
 -23   9   3 5.70991 2.20049   1
  21  -9  -3 36.4879  3.6185   2
  21   9  -3 37.1929  4.0489   3
 -21   9   3 44.2032  3.8324   1
  19  -9  -3 2.91568 1.91420   2
 -19   9   3 1.49375 1.74152   1
  19   9  -3 1.63868 1.97441   3
  17  -9  -3 29.7200  3.3785   2
 -17   9   3 29.0526  3.4661   1
  17   9  -3 23.4664  2.6113   2
  17   9  -3 25.0726  3.5150   3
  15  -9  -3 3.71744 1.85103   2
 -15   9   3 0.78884 2.00031   1
  15   9  -3 5.94724 1.82522   2
 -13   9   3 63.4395  4.3109   1
  13   9  -3 62.2698  3.8788   2
  11   9  -3 0.21551 1.50484   2
 -11   9   3 -0.4180  1.6812   1
  -9   9   3 129.347   6.235   1
   9   9  -3 140.775   6.387   2
   7   9  -3 -0.5410  1.5319   2
  -7   9   3 0.27805 1.56572   1
  -5   9   3 121.679   5.823   1
   5   9  -3 120.056   6.049   2
   3   9  -3 43.1693  3.5269   2
   1  -9  -3 129.389   5.810   1
   1   9  -3 129.536   6.557   2
  -1  -9  -3 73.6018  4.1260   1
  -1   9  -3 84.1557  5.0630   2
  -3  -9  -3 94.1288  4.7603   1
  -3   9  -3 96.4065  5.4583   2
   3   9   3 107.636   5.292   2
  -3   9  -3 98.5512  4.8005   1
  -5  -9  -3 36.4493  2.8487   1
   5   9   3 39.1552  3.7216   3
   5   9   3 33.0808  3.0027   2
  -5   9  -3 35.3073  3.0253   1
   7  -9   3 55.7876  3.7891   3
  -7   9  -3 56.5531  3.6404   1
   7   9   3 50.1270  3.8939   3
   9  -9   3 53.7742  3.7187   3
  -9   9  -3 60.1540  3.7750   1
   9   9   3 49.7239  3.9135   3
  11  -9   3 61.6010  3.9371   3
 -11   9  -3 57.5661  3.8002   1
  11   9   3 55.4905  4.1286   3
  13  -9   3 44.9117  3.4537   3
 -13   9  -3 45.1936  3.5138   1
  13   9   3 44.8273  3.7799   3
  15  -9   3 36.3390  3.1867   3
 -15   9  -3 38.7339  3.3845   1
  15   9   3 35.3536  3.7428   3
  17  -9   3 41.3511  3.3628   3
  17   9   3 35.8881  3.8405   3
 -17   9  -3 43.9358  3.6454   1
  19  -9   3 10.6674  2.2883   3
 -19   9  -3 9.13804 2.31664   1
  19   9   3 9.35717 2.52731   3
  21   9   3 37.1834  3.9939   3
 -21   9  -3 32.7370  3.5825   1
  23   9   3 10.5505  2.7502   3
 -23   9  -3 7.55169 2.43390   1
 -25   9  -3 20.9587  3.1752   1
  25   9   3 26.1786  3.5290   3
  27   9   3 5.15135 2.51615   3
 -27   9  -3 0.36844 2.00727   1
 -29   9  -3 10.2533  2.8205   1
  29   9   3 8.86422 2.77944   3
 -31   9  -3 1.94896 2.38766   1
  28 -10  -3 9.62956 2.87206   2
  28  10  -3 6.11189 2.91375   3
 -28  10   3 11.3129  3.2415   1
  26 -10  -3 37.2742  4.4096   2
  26  10  -3 33.2433  4.3615   3
 -26  10   3 33.7323  4.1014   1
  24 -10  -3 12.9333  3.1237   2
 -24  10   3 16.1712  3.1519   1
  24  10  -3 15.7731  3.2189   3
 -22  10   3 5.74732 2.45783   1
  22  10  -3 7.18371 2.63232   3
  20  10  -3 7.94539 2.54457   3
 -20  10   3 12.8060  2.6688   1
  18  10  -3 4.97217 2.32206   3
 -18  10   3 6.37426 2.22622   1
 -16  10   3 1.04194 1.90776   1
  16  10  -3 5.35271 2.48605   3
 -14  10   3 13.1069  2.5584   1
  14  10  -3 13.6039  2.3118   2
  12  10  -3 4.78634 1.83691   2
 -12  10   3 2.05053 1.93214   1
 -10  10   3 10.1097  2.4533   1
  10  10  -3 10.0791  2.2798   2
   8  10  -3 43.6601  3.6793   2
  -8  10   3 41.7184  3.7449   1
  -6  10   3 15.8296  2.6977   1
   6  10  -3 13.1507  2.6321   2
  -4  10   3 118.209   5.962   1
   4  10  -3 121.331   6.332   2
   2  10  -3 2.21782 2.13215   2
  -2  10   3 -0.8179  1.8468   1
   0  10  -3 69.2509  4.8434   2
   2  10   3 0.45502 1.84964   2
  -2  10  -3 -2.8200  1.7164   2
  -4  10  -3 9.77443 2.53624   2
   4  10   3 12.6095  2.5365   3
  -6  10  -3 13.0270  2.8509   2
   6  10   3 10.1642  2.5377   3
  -8  10  -3 16.9124  2.4536   1
   8  10   3 17.4836  3.0072   3
 -10  10  -3 -0.1364  1.7547   1
  10  10   3 6.14547 2.32378   3
  12 -10   3 61.7728  4.1830   3
 -12  10  -3 59.4328  4.1465   1
  12  10   3 59.1676  4.6094   3
  14 -10   3 10.6605  2.4622   3
  14  10   3 14.6210  2.8539   3
 -14  10  -3 9.03945 2.32456   1
  16 -10   3 47.1118  3.8715   3
 -16  10  -3 52.1610  4.0459   1
  16  10   3 52.6058  4.3423   3
 -18  10  -3 2.77559 1.98692   1
  18  10   3 5.41604 2.36195   3
  20  10   3 13.6685  2.9354   3
 -20  10  -3 14.0786  2.6889   1
 -22  10  -3 4.39548 2.16813   1
  22  10   3 2.41037 2.18619   3
 -24  10  -3 -1.0777  1.8650   1
  24  10   3 -2.3761  2.0893   3
 -26  10  -3 -0.0060  2.2859   1
  26  10   3 -1.6583  2.1451   3
 -28  10  -3 2.89466 2.61970   1
 -23  11   3 1.45100 2.38876   1
  23  11  -3 2.88058 2.78058   3
  21  11  -3 5.41279 2.70035   3
 -21  11   3 6.32337 2.57015   1
  19  11  -3 1.34877 2.25457   3
 -19  11   3 0.79920 1.95515   1
 -17  11   3 3.88729 2.15260   1
  17  11  -3 0.29225 2.16136   3
  15  11  -3 1.30968 2.12247   3
 -15  11   3 5.06114 2.11863   1
 -13  11   3 4.11344 2.20828   1
 -11  11   3 -0.4587  1.9010   1
  -9  11   3 15.7860  2.9625   1
   9  11  -3 15.7858  2.7850   2
  -7  11   3 14.6279  2.8436   1
   7  11  -3 15.1095  2.9622   2
  -5  11   3 26.2394  3.3710   1
   5  11  -3 25.3323  3.4432   2
   3  11  -3 18.1478  3.1756   2
  -1  11   3 9.01172 2.53986   2
   1  11  -3 7.60101 2.53184   2
  -1  11  -3 4.07388 2.26853   2
   3  11   3 4.51882 2.29955   3
  -3  11  -3 4.06509 2.34469   2
  -5  11  -3 -0.1667  2.0539   2
   5  11   3 2.79923 2.09281   3
   7  11   3 7.99676 2.45970   3
  -7  11  -3 12.7960  3.0243   2
   9  11   3 6.92054 2.42797   3
  -9  11  -3 2.37612 2.55248   2
  11  11   3 15.1816  3.1654   3
  13  11   3 14.5657  3.1589   3
 -13  11  -3 16.0421  2.8504   1
  15  11   3 13.4756  3.1410   3
 -15  11  -3 18.2581  3.0547   1
  17  11   3 7.60272 2.74638   3
 -17  11  -3 8.52929 2.56663   1
 -19  11  -3 3.10922 2.34655   1
  19  11   3 2.25418 2.47861   3
 -21  11  -3 1.61735 2.24343   1
  21  11   3 1.69499 2.42852   3
 -23  11  -3 2.98812 2.49304   1
 -18  12   3 4.11500 2.72876   1
 -16  12   3 -0.9693  2.1234   1
  16  12  -3 3.46645 2.76757   3
 -14  12   3 2.73278 2.27983   1
  14  12  -3 3.39517 2.63141   3
  12  12  -3 5.78724 2.70999   3
 -12  12   3 3.11019 2.25487   1
 -10  12   3 2.26213 2.16342   1
   6  12  -3 5.29502 2.50254   2
   4  12  -3 6.31416 2.56750   2
  -4  12   3 9.82334 2.82124   2
   2  12  -3 -0.1223  2.2421   2
   0  12  -3 6.29733 2.58686   2
  -2  12  -3 -0.4599  2.0415   2
  -4  12  -3 0.36447 2.37260   2
   4  12   3 2.43985 2.17127   3
  -6  12  -3 1.30922 2.33657   2
   6  12   3 1.20002 2.21371   3
  -8  12  -3 4.10682 2.60769   2
   8  12   3 8.84878 2.70453   3
 -10  12  -3 0.74840 2.43590   2
  10  12   3 2.43583 2.48582   3
 -12  12  -3 7.34265 3.07310   2
  12  12   3 2.46618 2.47435   3
  14  12   3 7.83519 2.79002   3
  16  12   3 5.91829 2.73538   3
   3  13  -3 1.56295 2.45095   2
   1  13  -3 1.44566 2.49523   2
  -1  13  -3 3.38843 2.58081   2
  -3  13  -3 6.06462 2.68437   2
  -5  13  -3 1.15912 2.41780   2
   9  13   3 6.15448 2.84534   3
  40   0  -4 17.7536  2.7339   2
  38   0  -4 49.1575  3.5712   2
  36   0  -4 46.7137  3.4236   2
  34   0  -4 69.1404  3.9710   2
  34   0  -4 62.7688  3.7226   3
 -34   0   4 69.3354  3.8617   1
  32   0  -4 258.234   9.149   3
 -32   0   4 245.047   9.191   1
  32   0  -4 239.895   9.431   2
  30   0  -4 175.077   7.080   2
 -30   0   4 171.694   6.837   1
  30   0  -4 177.022   6.756   3
  28   0  -4 382.931  12.804   3
 -28   0   4 382.022  12.863   1
  28   0  -4 363.992  13.132   2
 -26   0   4 271.251   9.352   1
  26   0  -4 250.215   9.451   2
  26   0  -4 270.015   9.215   3
  24   0  -4 14.6403  1.5729   3
  24   0  -4 14.9102  1.6445   2
 -24   0   4 14.3804  1.6276   1
 -22   0   4 81.7951  3.5454   1
  22   0  -4 80.8808  3.5623   2
  22   0  -4 76.0439  3.3469   3
  20   0  -4 95.1889  3.9442   2
 -20   0   4 97.7720  3.9607   1
  20   0  -4 95.1148  3.7896   3
  18   0  -4 548.874  17.549   2
  18   0  -4 515.211  17.135   3
 -18   0   4 540.273  17.090   1
  16   0  -4 19.1696  1.2024   3
 -16   0   4 11.5579  1.0837   1
 -14   0   4 1598.01   50.39   1
  14   0  -4 1662.48   50.99   3
  14   0  -4 1662.26   51.75   2
 -12   0   4 237.271   7.680   1
  12   0  -4 228.534   7.849   2
  12   0  -4 230.589   7.643   3
 -10   0   4 6853.41  202.30   1
  10   0  -4 6572.69  204.80   3
  10   0  -4 6388.89  208.12   2
   8   0  -4 1367.86   41.84   1
   6   0  -4 720.988  22.269   1
   6   0  -4 721.965  22.936   2
  -4   0   4 1215.45   38.20   3
   4   0  -4 1238.20   37.76   1
   4   0  -4 1251.85   39.20   2
   2   0  -4 42.7604  1.4513   1
   2   0  -4 33.1779  1.4478   2
  -2   0   4 32.4753  1.3462   3
   0   0  -4 200.348   6.480   1
   0   0   4 196.372   6.491   3
   0   0  -4 207.542   6.646   2
   2   0   4 7899.24  241.60   3
  -2   0  -4 8001.83  244.32   2
  -2   0  -4 7511.73  238.39   1
   4   0   4 795.425  24.796   3
  -4   0  -4 794.044  25.016   2
   6   0   4 9999.99  327.28   3
  -8   0  -4 0.44963 0.25214   1
 -10   0  -4 915.430  28.402   1
  12   0   4 543.439  17.157   2
 -12   0  -4 547.947  17.071   1
  12   0   4 518.476  17.154   3
 -14   0  -4 251.167   8.548   1
  14   0   4 250.597   8.412   2
  14   0   4 256.586   8.582   3
 -16   0  -4 93.7290  3.9416   1
  16   0   4 101.912   3.977   3
  16   0   4 97.3621  3.7254   2
 -18   0  -4 65.0583  3.1433   1
  18   0   4 69.9678  3.1798   3
  18   0   4 68.3669  2.8853   2
  20   0   4 159.483   5.771   2
  20   0   4 158.124   5.981   3
 -20   0  -4 154.239   5.981   1
 -22   0  -4 8.83508 1.46302   1
  22   0   4 9.75159 1.54083   3
  22   0   4 10.6762  1.3340   2
 -24   0  -4 71.7996  3.6491   1
  24   0   4 75.2257  3.3807   2
  24   0   4 75.6378  3.7036   3
  26   0   4 213.526   8.022   3
  26   0   4 214.181   7.765   2
 -26   0  -4 209.126   7.980   1
 -28   0  -4 150.653   6.267   1
  28   0   4 154.698   6.330   3
 -30   0  -4 57.5386  3.4352   1
  30   0   4 54.8342  3.5132   3
 -32   0  -4 120.429   5.532   1
  32   0   4 123.102   5.611   3
  34   0   4 18.4555  2.6180   3
 -34   0  -4 21.9268  2.6543   1
 -36   0  -4 22.9047  2.8413   1
  36   0   4 26.4158  3.0939   3
 -38   0  -4 2.99970 2.06671   1
  38   0   4 3.03629 2.36518   3
 -40   0  -4 45.6034  3.6444   1
  40   0   4 42.9593  4.0192   3
 -42   0  -4 2.47952 2.14872   1
  42   0   4 0.17645 2.43836   3
  44   0   4 12.7759  3.1685   3
 -44   0  -4 15.6534  2.8215   1
  41  -1  -4 0.40242 1.80564   2
  39  -1  -4 49.7877  3.8136   2
 -39   1   4 50.2000  3.7197   1
  37  -1  -4 1.19175 1.75763   2
  37   1  -4 0.42148 1.56932   2
 -37   1   4 0.97369 1.65410   1
  37   1  -4 -1.8391  1.5360   3
  35  -1  -4 89.7504  4.9846   2
  35   1  -4 100.630   4.906   2
  35   1  -4 94.3332  4.7027   3
 -35   1   4 102.821   5.001   1
  33  -1  -4 9.23838 2.03934   2
 -33   1   4 9.98644 1.92877   1
  33   1  -4 9.45286 1.85548   3
  33   1  -4 9.04090 1.84065   2
  31  -1  -4 265.143  10.358   2
  31  -1  -4 280.835   9.889   3
 -31  -1   4 286.122   9.896   1
 -31   1   4 279.543  10.196   1
  31   1  -4 272.667  10.180   2
  31   1  -4 279.737  10.017   3
  29  -1  -4 13.0530  1.7710   3
 -29  -1   4 16.8622  1.9402   1
  29  -1  -4 16.5066  2.1294   2
 -29   1   4 16.2740  2.0366   1
  29   1  -4 18.1393  1.9800   3
  29   1  -4 14.7964  1.9075   2
 -27  -1   4 459.945  15.148   1
  27  -1  -4 445.088  15.170   3
  27  -1  -4 458.804  15.859   2
  27   1  -4 476.249  15.513   3
 -27   1   4 478.325  15.583   1
  27   1  -4 447.272  15.625   2
 -25  -1   4 13.4336  1.4915   1
  25  -1  -4 10.0387  1.5588   2
  25  -1  -4 14.1697  1.5410   3
 -25   1   4 11.2637  1.6433   1
  25   1  -4 13.6569  1.6729   3
  25   1  -4 10.3506  1.5128   2
 -23  -1   4 151.666   5.544   1
  23  -1  -4 155.230   5.961   2
  23  -1  -4 152.460   5.504   3
  23   1  -4 144.974   5.733   2
  23   1  -4 145.391   5.733   3
 -23   1   4 148.437   5.871   1
  21  -1  -4 91.7373  4.0320   2
 -21  -1   4 92.3263  3.7132   1
  21  -1  -4 96.6891  3.6802   3
  21   1  -4 93.8576  3.9083   2
 -21   1   4 92.5032  4.0350   1
  21   1  -4 89.6660  3.9370   3
  19  -1  -4 114.219   4.521   2
  19   1  -4 115.058   4.433   2
 -19   1   4 107.894   4.545   1
  19   1  -4 110.274   4.454   3
 -17  -1   4 11.9374  1.1677   1
  17  -1  -4 16.0017  1.4825   2
  17  -1  -4 14.8831  1.1571   3
  17   1  -4 17.3343  1.4966   3
 -17   1   4 10.1282  1.3417   1
  17   1  -4 13.9228  1.3172   2
 -15  -1   4 868.159  26.683   1
  15  -1  -4 844.972  27.632   2
  15  -1  -4 842.333  26.917   3
 -15   1   4 895.644  27.103   1
  15   1  -4 861.337  27.528   2
  13  -1  -4 453.447  14.704   3
  13  -1  -4 461.522  15.282   2
 -13  -1   4 471.050  14.644   1
  13   1  -4 484.706  15.233   2
  11  -1  -4 845.625  25.868   3
 -11  -1   4 867.388  25.657   1
  11   1  -4 820.521  26.282   3
  11   1  -4 798.981  26.506   2
   9  -1  -4 28.1272  1.5444   1
   9  -1  -4 31.7910  1.1616   3
  -9  -1   4 31.0664  1.3254   1
   9   1  -4 29.3991  1.5104   2
   7  -1  -4 2614.37   80.94   2
   7  -1  -4 2568.85   77.98   1
   7   1  -4 2558.76   77.56   1
   7   1  -4 2458.51   80.01   2
  -5  -1   4 860.338  26.409   3
   5  -1  -4 835.939  26.094   1
   5  -1  -4 853.168  26.714   2
   5   1  -4 836.064  25.799   1
   3  -1  -4 69.7081  2.4424   2
   3  -1  -4 65.0717  2.4623   1
  -3  -1   4 65.1153  2.4507   3
  -3   1   4 68.0498  2.1757   3
   3   1  -4 64.8064  2.2306   1
   3   1  -4 71.1197  2.6275   2
   1  -1  -4 60.6261  2.1612   2
  -1  -1   4 60.8708  2.2758   3
   1   1  -4 57.3561  2.0839   1
  -1   1   4 63.6730  2.0723   3
   1   1  -4 63.5481  2.4046   2
   1  -1   4 48.0658  1.8981   3
  -1  -1  -4 48.9223  1.6983   2
   1   1   4 47.1361  1.7590   3
  -1   1  -4 50.6403  1.8069   1
  -1   1  -4 46.5630  1.9891   2
  -3  -1  -4 34.7144  1.2567   2
  -3  -1  -4 35.6464  1.5696   1
  -3   1  -4 39.6011  1.5575   1
  -3   1  -4 36.9920  1.6172   2
   3   1   4 37.1856  1.5178   3
  -5  -1  -4 1247.93   38.16   1
   5   1   4 1231.22   38.63   3
  -5   1  -4 1252.15   38.17   1
  -7  -1  -4 2583.71   77.49   1
  -7   1  -4 2465.92   78.00   1
   7   1   4 2529.57   78.13   3
   9  -1   4 70.3415  2.6561   2
   9   1   4 52.6875  2.5100   3
   9   1   4 69.2097  2.2351   2
  11  -1   4 1833.39   56.72   2
 -11  -1  -4 1757.30   55.36   1
  11  -1   4 1807.12   56.12   3
  11   1   4 1821.96   56.35   2
  13  -1   4 54.4260  2.4802   3
  13  -1   4 50.1445  2.3223   2
 -13  -1  -4 52.3978  2.4049   1
  13   1   4 53.1000  2.0277   2
 -13   1  -4 51.1638  2.4854   1
  13   1   4 51.4787  2.4429   3
  15  -1   4 1348.95   42.45   3
 -15  -1  -4 1337.64   41.91   1
  15  -1   4 1394.26   42.89   2
 -15   1  -4 1358.55   42.05   1
  15   1   4 1325.39   42.49   3
  15   1   4 1360.89   42.52   2
  17  -1   4 0.59184 0.83118   2
 -17  -1  -4 0.14402 0.88318   1
  17  -1   4 2.30412 0.97611   3
  17   1   4 0.50644 0.58773   2
 -17   1  -4 1.29564 1.03999   1
  17   1   4 0.12004 0.88602   3
  19  -1   4 319.308  10.778   3
 -19  -1  -4 301.587  10.618   1
  19  -1   4 322.102  10.796   2
 -19   1  -4 316.845  10.827   1
  19   1   4 317.922  10.821   3
  19   1   4 313.197  10.425   2
 -21  -1  -4 7.44364 1.39952   1
  21  -1   4 6.16500 1.22603   2
  21  -1   4 5.64609 1.34588   3
 -21   1  -4 6.73948 1.40949   1
  21   1   4 6.62519 0.99401   2
  21   1   4 7.82290 1.46422   3
  23  -1   4 124.813   5.063   2
  23  -1   4 120.445   5.156   3
 -23  -1  -4 129.235   5.156   1
  23   1   4 126.348   5.195   3
  23   1   4 125.384   4.723   2
 -23   1  -4 121.000   5.220   1
  25  -1   4 4.67392 1.33790   2
 -25  -1  -4 5.76651 1.40769   1
  25  -1   4 4.95004 1.57217   3
 -25   1  -4 7.75984 1.58769   1
  25   1   4 6.25113 1.52758   3
  27  -1   4 149.248   6.076   3
 -27  -1  -4 141.244   5.899   1
  27  -1   4 148.880   5.944   2
  27   1   4 142.456   6.015   3
 -27   1  -4 141.522   6.082   1
  29  -1   4 -0.1860  1.6044   3
  29  -1   4 0.07856 1.26950   2
 -29  -1  -4 1.13726 1.36134   1
  29   1   4 3.15489 1.61576   3
 -29   1  -4 3.11043 1.63731   1
  31  -1   4 174.016   7.269   3
 -31  -1  -4 182.479   7.207   1
 -31   1  -4 173.474   7.254   1
  31   1   4 174.503   7.212   3
  33  -1   4 9.31013 2.16192   3
 -33  -1  -4 8.31920 1.93716   1
 -33   1  -4 9.97541 2.22594   1
  33   1   4 6.07851 2.07187   3
 -35  -1  -4 65.9594  3.9858   1
  35  -1   4 67.1369  4.1629   3
  35   1   4 60.7800  4.0311   3
 -35   1  -4 58.9311  3.9498   1
 -37  -1  -4 6.23397 2.13857   1
  37  -1   4 2.09211 2.31712   3
  37   1   4 5.74152 2.32669   3
 -37   1  -4 8.99772 2.15105   1
  39  -1   4 26.1692  3.3222   3
 -39  -1  -4 29.4667  3.2756   1
 -39   1  -4 25.9980  3.1605   1
  39   1   4 29.2642  3.4908   3
  41  -1   4 13.4891  2.9001   3
 -41   1  -4 13.1392  2.6330   1
  41   1   4 12.3019  2.8595   3
  43  -1   4 8.59258 2.64740   3
  43   1   4 3.80148 2.48399   3
 -43   1  -4 5.80013 2.39368   1
  44  -2  -4 18.1468  3.1704   2
  42  -2  -4 14.5988  2.7319   2
 -42   2   4 9.67937 2.53105   1
  40  -2  -4 25.5233  3.2389   2
 -40   2   4 21.4728  2.9717   1
  38  -2  -4 16.0368  2.6916   2
  38   2  -4 13.8439  2.4287   3
 -38   2   4 13.0140  2.4998   1
  36  -2  -4 12.6658  2.4243   2
  36   2  -4 15.6590  2.3488   3
  36   2  -4 16.1853  2.2743   2
 -36   2   4 14.8132  2.4501   1
  34  -2  -4 2.67731 1.80568   2
  34   2  -4 2.82168 1.66322   3
  34   2  -4 7.16932 1.77039   2
 -34   2   4 7.32323 1.97367   1
  32  -2  -4 56.4775  3.6537   2
 -32   2   4 62.5016  3.7867   1
  32   2  -4 57.0837  3.3900   2
  32   2  -4 61.3181  3.6143   3
  30  -2  -4 43.2283  3.1188   2
  30   2  -4 50.8279  3.1882   3
 -30   2   4 47.0298  3.3171   1
  30   2  -4 44.7244  2.8707   2
  28  -2  -4 182.143   6.893   3
  28  -2  -4 180.441   7.460   2
  28   2  -4 194.424   7.376   3
 -28   2   4 192.486   7.531   1
  28   2  -4 187.553   7.162   2
  26  -2  -4 414.657  14.591   3
  26  -2  -4 460.324  15.508   2
 -26  -2   4 462.659  14.500   1
  26   2  -4 434.949  15.107   3
  26   2  -4 446.604  15.058   2
 -26   2   4 452.392  15.210   1
 -24  -2   4 66.4367  2.9391   1
  24  -2  -4 67.6576  3.5419   2
  24  -2  -4 62.7322  2.9738   3
  24   2  -4 62.9019  3.1761   2
  24   2  -4 64.3353  3.4809   3
 -24   2   4 64.5375  3.4847   1
 -22  -2   4 184.897   6.189   1
  22  -2  -4 170.900   6.199   3
  22  -2  -4 172.266   6.813   2
  22   2  -4 169.634   6.732   3
 -22   2   4 177.440   6.824   1
  22   2  -4 187.198   6.582   2
  20  -2  -4 27.0449  1.9598   2
  20   2  -4 29.1542  2.2469   3
  20   2  -4 29.9438  1.8469   2
 -20   2   4 24.1165  2.2237   1
  18  -2  -4 148.871   5.697   2
 -18  -2   4 145.187   4.991   1
  18  -2  -4 139.736   5.028   3
  18   2  -4 146.823   5.400   2
 -18   2   4 152.177   5.708   1
  18   2  -4 143.533   5.668   3
  16  -2  -4 27.0217  1.3991   3
  16  -2  -4 23.2841  1.6937   2
 -16  -2   4 25.0846  1.3387   1
 -16   2   4 23.5575  1.9082   1
  16   2  -4 23.9993  1.9693   3
  16   2  -4 25.0212  1.6077   2
  14  -2  -4 1198.73   37.12   3
 -14  -2   4 1207.61   36.63   1
 -14   2   4 1220.93   37.38   1
  14   2  -4 1189.71   37.97   2
  14   2  -4 1171.67   37.81   3
 -12  -2   4 352.898  10.994   1
  12  -2  -4 361.425  11.155   3
  12   2  -4 347.332  11.757   2
 -12   2   4 356.614  11.745   1
  10  -2  -4 2384.31   73.24   1
  10  -2  -4 2422.81   73.77   3
 -10  -2   4 2426.89   73.05   1
  10   2  -4 2334.96   75.28   2
   8  -2  -4 13.4038  1.2966   1
   8   2  -4 18.9522  1.2802   2
   6  -2  -4 1073.81   34.35   2
   6   2  -4 1102.45   34.52   2
   4  -2  -4 82.4287  3.0519   2
  -4  -2   4 87.0462  3.1907   3
  -4   2   4 81.3034  2.7776   3
   4   2  -4 84.6823  2.6619   1
   2  -2  -4 1378.62   43.21   2
  -2  -2   4 1401.90   42.90   3
  -2   2   4 1371.50   42.60   3
   2   2  -4 1361.08   42.02   1
   0  -2  -4 202.955   6.713   1
   0  -2  -4 201.043   6.631   2
   0   2  -4 209.638   7.025   2
   0   2   4 199.058   6.611   3
   0   2  -4 202.542   6.484   1
  -2  -2  -4 36.8181  1.4959   2
  -2  -2  -4 42.8432  1.7974   1
   2   2   4 42.0521  1.7372   3
  -2   2  -4 34.3194  1.8555   2
  -2   2  -4 42.2505  1.6906   1
  -4  -2  -4 293.300   9.110   2
  -4  -2  -4 285.683   9.273   1
  -4   2  -4 284.944   9.263   1
   4   2   4 286.023   9.392   3
  -6  -2  -4 533.589  18.406   1
   6   2   4 620.574  18.787   3
  -6   2  -4 617.303  18.537   1
   8  -2   4 24.8027  1.5163   3
  -8   2  -4 28.6071  1.6474   1
   8   2   4 28.0464  1.5952   3
  10  -2   4 1149.88   36.69   3
 -10  -2  -4 1183.27   36.21   1
  10  -2   4 1217.36   37.26   2
  10   2   4 1141.17   36.79   3
 -10   2  -4 1167.91   36.34   1
  12  -2   4 279.435   9.357   2
  12  -2   4 279.758   9.189   3
 -12  -2  -4 279.118   9.053   1
  12   2   4 251.114   9.205   3
  12   2   4 273.088   8.628   2
 -12   2  -4 269.185   9.211   1
  14  -2   4 779.981  24.952   2
 -14  -2  -4 773.792  24.252   1
  14  -2   4 775.411  24.592   3
  14   2   4 759.750  24.240   2
  16  -2   4 332.940  11.094   2
  16  -2   4 339.180  10.929   3
 -16  -2  -4 334.505  10.756   1
  16   2   4 329.516  10.377   2
  16   2   4 307.979  10.961   3
 -16   2  -4 287.208  10.850   1
 -18  -2  -4 466.681  15.104   1
  18  -2   4 476.120  15.555   2
  18  -2   4 475.249  15.325   3
  18   2   4 462.129  14.846   2
 -18   2  -4 470.290  15.372   1
  18   2   4 431.266  15.328   3
  20  -2   4 140.231   5.573   3
 -20  -2  -4 145.058   5.484   1
  20  -2   4 140.508   5.612   2
  20   2   4 138.189   4.945   2
 -20   2  -4 143.610   5.719   1
  20   2   4 141.749   5.638   3
  22  -2   4 10.3682  1.5644   2
  22  -2   4 10.7195  1.6553   3
 -22  -2  -4 9.80022 1.51538   1
  22   2   4 9.60079 1.60450   3
 -22   2  -4 13.1627  1.8386   1
 -24  -2  -4 8.29637 1.46768   1
  24  -2   4 5.47712 1.39640   2
  24  -2   4 8.30885 1.63629   3
 -24   2  -4 6.23897 1.58528   1
  24   2   4 6.44874 1.49156   3
 -26  -2  -4 10.0362  1.6695   1
  26  -2   4 9.57628 1.79852   3
  26  -2   4 10.0843  1.6920   2
 -26   2  -4 9.38005 1.80871   1
  26   2   4 7.70178 1.67625   3
  28  -2   4 76.8843  4.1453   3
  28  -2   4 74.1566  3.8936   2
 -28  -2  -4 74.0885  3.8569   1
 -28   2  -4 71.7535  4.0321   1
  28   2   4 77.3084  4.1049   3
  30  -2   4 47.4469  3.2465   2
 -30  -2  -4 53.2991  3.2644   1
  30  -2   4 46.5253  3.3725   3
  30   2   4 47.2874  3.2821   3
 -30   2  -4 39.0619  3.2170   1
 -32  -2  -4 99.7909  4.7071   1
  32  -2   4 83.5535  4.6072   2
  32  -2   4 98.1379  4.9358   3
  32   2   4 92.4403  4.7872   3
 -32   2  -4 88.5232  4.8340   1
  34  -2   4 33.6820  3.1114   3
 -34  -2  -4 31.0564  2.9655   1
 -34   2  -4 30.3017  3.2030   1
  34   2   4 31.2144  3.0786   3
 -36  -2  -4 75.8566  4.3971   1
  36  -2   4 80.9743  4.7919   3
 -36   2  -4 74.3514  4.5677   1
  36   2   4 70.5399  4.4452   3
  38  -2   4 -1.7704  2.1173   3
 -38   2  -4 0.93791 1.86852   1
  38   2   4 1.41335 2.14574   3
  40  -2   4 22.4094  3.2926   3
  40   2   4 21.4395  3.2738   3
 -40   2  -4 27.0237  3.4188   1
 -42   2  -4 -0.8839  1.9806   1
  42   2   4 -5.4043  2.0034   3
  45  -3  -4 3.39275 2.62911   2
 -45   3   4 1.36612 2.20574   1
  43  -3  -4 21.3883  3.3346   2
 -43   3   4 20.8738  3.1700   1
  41  -3  -4 2.61361 2.18391   2
 -41   3   4 0.52617 2.11189   1
  41   3  -4 -1.9563  1.9648   3
  39  -3  -4 5.61877 2.32355   2
  39   3  -4 7.47830 2.27350   3
 -39   3   4 8.34799 2.42882   1
  37  -3  -4 2.61696 2.01250   2
  37   3  -4 -0.8045  1.8005   3
 -37   3   4 3.81305 2.01383   1
  35  -3  -4 11.9090  2.3986   2
 -35   3   4 14.9258  2.5322   1
  35   3  -4 14.0932  2.3638   3
  33  -3  -4 2.68679 1.67182   2
  33   3  -4 1.34626 1.39766   2
  33   3  -4 2.00036 1.76805   3
 -33   3   4 1.68769 1.67986   1
  31  -3  -4 46.0572  3.5218   2
 -31   3   4 51.8404  3.6666   1
  31   3  -4 55.1972  3.5755   3
  31   3  -4 50.8359  3.0533   2
  29  -3  -4 4.04253 1.68892   2
  29   3  -4 4.78668 1.52226   2
  29   3  -4 4.10032 1.66892   3
 -29   3   4 5.14802 1.75806   1
  27  -3  -4 202.239   8.446   2
 -27   3   4 214.384   8.426   1
  27   3  -4 223.328   8.036   2
  27   3  -4 222.340   8.433   3
  25  -3  -4 121.397   5.499   2
 -25   3   4 119.835   5.419   1
  25   3  -4 120.626   5.411   3
  25   3  -4 120.126   4.941   2
  23  -3  -4 347.574  11.564   3
  23  -3  -4 350.967  12.552   2
  23   3  -4 350.901  12.001   2
 -23   3   4 350.318  12.373   1
  23   3  -4 358.963  12.505   3
  21  -3  -4 65.5852  3.5452   2
 -21  -3   4 70.2212  2.8130   1
 -21   3   4 69.1549  3.7427   1
  21   3  -4 76.8236  3.3004   2
  21   3  -4 75.3227  3.9064   3
 -19  -3   4 68.5770  2.5010   1
  19  -3  -4 64.1114  3.2674   2
  19  -3  -4 60.4559  2.5667   3
  19   3  -4 62.3128  3.3945   3
 -19   3   4 62.5204  3.4360   1
  19   3  -4 63.0221  2.9317   2
  17  -3  -4 1.33303 0.98713   2
 -17  -3   4 2.85512 0.55245   1
  17  -3  -4 3.52273 0.66335   3
 -17   3   4 1.42659 1.13972   1
  17   3  -4 4.28642 1.25583   3
  17   3  -4 3.63364 0.88890   2
  15  -3  -4 288.692   9.094   3
 -15  -3   4 283.034   8.793   1
  15   3  -4 271.539   9.909   3
 -15   3   4 277.911   9.840   1
  15   3  -4 284.752   9.671   2
  13  -3  -4 191.075   7.025   2
  13  -3  -4 193.955   6.307   3
  13   3  -4 195.283   6.892   2
 -13   3   4 189.408   7.033   1
  11  -3  -4 368.849  11.734   3
  11  -3  -4 378.471  12.496   2
  11  -3  -4 375.080  12.282   1
  11   3  -4 361.553  12.409   2
   9  -3  -4 331.321  10.228   3
   9  -3  -4 324.099  10.873   2
   9   3  -4 310.945  10.870   2
   7  -3  -4 1015.53   32.87   2
   7   3  -4 1053.10   33.04   2
  -5  -3   4 1152.27   36.33   3
   5   3  -4 1162.05   36.83   2
   3  -3  -4 495.204  15.750   2
   3   3  -4 485.451  16.037   2
   3   3  -4 483.278  15.034   1
   1  -3  -4 163.815   5.668   2
  -1   3   4 163.046   5.640   3
   1   3  -4 171.090   5.424   1
  -1  -3  -4 391.733  12.265   2
  -1   3  -4 379.802  11.995   1
   1   3   4 368.466  12.262   3
  -3  -3  -4 19.2056  1.0231   2
  -3   3  -4 18.6978  1.2075   1
   3   3   4 16.8966  1.2878   3
   5  -3   4 92.2058  3.5483   3
   5   3   4 89.9404  3.5240   3
  -5   3  -4 87.2442  3.4076   1
   7  -3   4 244.822   8.001   3
  -7  -3  -4 208.269   7.701   1
  -7   3  -4 239.577   7.876   1
   7   3   4 237.166   8.027   3
   7   3   4 236.664   7.519   2
   9  -3   4 2.39150 0.83644   3
  -9  -3  -4 0.58929 0.61581   1
  -9   3  -4 2.95628 0.84312   1
   9   3   4 1.54649 0.31050   2
   9   3   4 2.71834 0.83926   3
  11  -3   4 1059.15   33.65   3
  11  -3   4 1074.27   34.22   2
 -11  -3  -4 1086.62   33.14   1
 -11   3  -4 1077.01   33.35   1
  11   3   4 1040.68   33.30   2
  11   3   4 1064.93   33.81   3
 -13  -3  -4 22.0421  1.6812   1
  13  -3   4 20.0215  1.8199   3
  13  -3   4 13.7878  1.6835   2
 -13   3  -4 20.8069  1.8061   1
  13   3   4 16.5867  0.8742   2
  13   3   4 20.3706  1.8222   3
  15  -3   4 922.446  30.134   2
 -15  -3  -4 943.094  29.187   1
  15  -3   4 918.059  29.618   3
  15   3   4 901.746  29.797   3
 -15   3  -4 962.311  29.516   1
  15   3   4 941.618  29.190   2
 -17  -3  -4 6.84166 1.25711   1
  17  -3   4 9.35266 1.43190   3
  17  -3   4 3.32425 1.36481   2
  17   3   4 5.36416 0.66944   2
  21  -3   4 43.8913  2.6948   3
  21  -3   4 38.7631  2.7984   2
 -21  -3  -4 40.9762  2.5674   1
  21   3   4 43.5230  2.8348   3
  23  -3   4 36.7233  2.5980   3
 -23  -3  -4 37.3778  2.4883   1
  23  -3   4 33.5822  2.6358   2
  23   3   4 39.6828  2.7362   3
 -23   3  -4 37.3086  2.7991   1
  25  -3   4 1.90600 1.31779   3
 -25  -3  -4 2.61420 1.18569   1
  25  -3   4 2.26357 1.33474   2
  25   3   4 4.41686 1.49838   3
 -25   3  -4 0.09637 1.37447   1
  27  -3   4 34.9448  2.7297   3
  27  -3   4 36.9560  2.7899   2
 -27  -3  -4 35.6433  2.5765   1
  27   3   4 36.5744  2.8210   3
 -27   3  -4 36.1680  3.0622   1
  29  -3   4 0.81208 1.50995   3
  29  -3   4 0.98975 1.52836   2
 -29  -3  -4 -0.2284  1.2495   1
 -29   3  -4 0.55381 1.63862   1
  29   3   4 -0.7409  1.4418   3
  31  -3   4 100.740   5.184   2
  31  -3   4 104.327   5.108   3
 -31  -3  -4 106.136   4.915   1
 -31   3  -4 105.717   5.382   1
  31   3   4 97.8457  5.0789   3
  33  -3   4 8.61350 2.22252   3
  33  -3   4 10.0380  2.3608   2
 -33  -3  -4 5.07296 1.80395   1
 -33   3  -4 4.85644 2.09071   1
  33   3   4 8.51042 2.30842   3
  35  -3   4 55.8841  4.1052   3
 -35   3  -4 56.8183  4.0966   1
  35   3   4 60.0875  4.0919   3
  37  -3   4 5.01301 2.13355   3
  37   3   4 3.40988 2.27907   3
 -37   3  -4 6.66102 2.33171   1
  39  -3   4 8.38342 2.53824   3
 -39   3  -4 7.37005 2.47975   1
  39   3   4 5.37687 2.43774   3
  41   3   4 -1.5975  2.3411   3
 -41   3  -4 2.16497 2.26302   1
  44  -4  -4 7.96702 2.75191   2
 -44   4   4 4.76773 2.50542   1
  42  -4  -4 3.28422 2.38118   2
 -42   4   4 4.65327 2.38784   1
  42   4  -4 1.67142 2.24615   3
  40  -4  -4 10.6632  2.7856   2
 -40   4   4 7.98847 2.58775   1
  40   4  -4 5.28831 2.29486   3
  38  -4  -4 -0.3400  1.7738   2
 -38   4   4 0.91305 2.13228   1
  38   4  -4 -0.5272  2.0654   3
  36  -4  -4 34.6756  3.7397   2
 -36   4   4 28.8410  3.4068   1
  36   4  -4 31.4923  3.3670   3
  34  -4  -4 4.07375 2.11014   2
  34   4  -4 8.74788 2.32629   3
 -34   4   4 6.16739 2.28507   1
  32  -4  -4 23.6771  2.9643   2
 -32   4   4 17.6524  2.7894   1
  32   4  -4 16.1912  2.6215   3
  30  -4  -4 66.5173  4.2263   2
 -30   4   4 61.6781  4.1075   1
  30   4  -4 58.9432  3.4866   2
  30   4  -4 69.6795  4.2368   3
  28  -4  -4 11.2788  2.1064   2
  28   4  -4 10.5982  2.1719   3
 -28   4   4 9.98710 2.21868   1
  28   4  -4 9.22698 1.66539   2
  26  -4  -4 111.554   5.324   2
 -26   4   4 106.034   5.297   1
  26   4  -4 103.019   4.531   2
  26   4  -4 105.682   5.266   3
  24  -4  -4 4.23846 1.65703   2
  24   4  -4 7.99376 1.37696   2
 -24   4   4 10.4220  1.9607   1
  24   4  -4 8.12948 1.89617   3
  22  -4  -4 99.5824  4.7116   2
 -22   4   4 92.5164  4.6607   1
  22   4  -4 90.0912  4.6752   3
  22   4  -4 93.7192  4.0289   2
 -20   4   4 12.2750  1.9276   1
  20   4  -4 10.5234  1.3534   2
  20   4  -4 13.0148  1.9264   3
  18  -4  -4 47.2816  2.2732   3
  18   4  -4 64.4775  3.5483   3
 -18   4   4 54.4332  3.3037   1
  18   4  -4 59.9066  2.8120   2
  16  -4  -4 21.1189  1.3207   3
  16   4  -4 23.7294  2.2865   3
 -16   4   4 19.7996  2.1597   1
  16   4  -4 20.2317  1.6784   2
  14  -4  -4 61.1877  3.1876   2
  14  -4  -4 62.4565  2.5154   3
  14   4  -4 64.7272  3.0362   2
 -14   4   4 60.6988  3.2321   1
  12  -4  -4 129.295   4.403   3
  12  -4  -4 123.411   5.051   2
  12   4  -4 121.933   4.920   2
  10  -4  -4 320.398   9.947   3
  10  -4  -4 295.278  10.417   1
  10  -4  -4 295.012  10.557   2
  10   4  -4 315.286  10.653   2
   8  -4  -4 6.89457 1.08293   2
   8  -4  -4 8.33021 1.35640   1
   8   4  -4 6.64617 1.13251   2
   6  -4  -4 588.633  19.178   1
   6  -4  -4 618.073  19.564   2
   6   4  -4 576.461  19.673   2
   6   4  -4 614.930  18.413   1
   4  -4  -4 48.4338  2.4846   1
   4  -4  -4 50.0022  2.3553   2
   4   4  -4 42.0198  1.8367   1
   4   4  -4 51.0541  2.5924   2
   2  -4  -4 316.848  10.417   1
  -2  -4   4 311.104  10.579   3
   2   4  -4 311.781   9.939   1
   2   4  -4 311.763  10.843   2
   0  -4  -4 2.32824 0.70739   2
   0  -4   4 5.24318 1.05615   3
   0  -4  -4 5.86482 0.98172   1
   0   4  -4 2.64025 0.91760   2
   0   4  -4 4.77373 0.73025   1
  -2  -4  -4 224.231   7.546   2
   2  -4   4 224.924   7.805   3
  -2  -4  -4 212.473   7.537   1
  -2   4  -4 227.393   7.427   1
   2   4   4 222.706   7.713   3
  -4  -4  -4 16.1656  1.3029   1
   4  -4   4 14.6240  1.4430   3
  -4   4  -4 16.4309  1.3061   1
   4   4   4 17.3593  1.4605   3
   6  -4   4 383.812  12.638   3
  -6  -4  -4 377.896  12.304   1
   6   4   4 367.273  12.303   2
  -6   4  -4 385.168  12.385   1
   6   4   4 383.405  12.683   3
   8  -4   4 142.809   5.501   3
  -8  -4  -4 144.172   5.292   1
   8   4   4 150.653   5.641   3
  -8   4  -4 147.563   5.449   1
   8   4   4 148.756   5.063   2
  10  -4   4 245.182   8.603   3
 -10  -4  -4 245.276   8.347   1
  10   4   4 250.561   8.788   3
 -10   4  -4 255.028   8.610   1
  10   4   4 237.618   8.054   2
 -12  -4  -4 331.537  10.971   1
  12  -4   4 322.163  11.244   3
  12   4   4 329.385  10.617   2
  12   4   4 333.072  11.479   3
 -12   4  -4 338.532  11.284   1
 -14  -4  -4 168.202   6.027   1
  14  -4   4 159.470   6.495   2
  14  -4   4 168.662   6.244   3
  14   4   4 154.658   5.397   2
 -14   4  -4 169.054   6.356   1
  14   4   4 167.475   6.490   3
 -16  -4  -4 166.381   5.950   1
  16  -4   4 168.727   6.545   2
  16  -4   4 166.401   6.201   3
  16   4   4 130.219   6.136   3
 -16   4  -4 164.961   6.369   1
 -18  -4  -4 113.970   4.619   1
  18  -4   4 108.417   5.056   2
  18  -4   4 108.419   4.802   3
 -18   4  -4 119.743   5.041   1
  20  -4   4 8.08641 1.69698   2
  20  -4   4 12.0267  1.7018   3
 -20  -4  -4 7.94072 1.42168   1
 -20   4  -4 8.16328 1.67056   1
  20   4   4 8.80871 1.69638   3
  22  -4   4 6.97728 1.52985   3
  22  -4   4 4.96088 1.60301   2
 -22  -4  -4 8.85468 1.51677   1
 -22   4  -4 8.51889 1.72001   1
  22   4   4 3.77493 1.39099   3
 -24  -4  -4 1.16505 1.09086   1
  24  -4   4 1.43779 1.21573   3
  24  -4   4 0.76075 1.28982   2
 -24   4  -4 -0.5926  1.2570   1
  24   4   4 0.96089 1.31555   3
  26  -4   4 22.7026  2.3768   3
  26  -4   4 19.0098  2.4125   2
 -26  -4  -4 19.5745  2.1116   1
 -26   4  -4 17.5129  2.4116   1
  26   4   4 13.7831  2.2279   3
 -28  -4  -4 25.8266  2.4225   1
  28  -4   4 19.4235  2.5756   2
  28  -4   4 25.6127  2.4806   3
  28   4   4 27.4183  2.6753   3
 -28   4  -4 22.3650  2.6652   1
  30  -4   4 17.3150  2.5985   2
  30  -4   4 20.1801  2.6053   3
 -30   4  -4 19.1252  2.7396   1
  30   4   4 16.4788  2.4883   3
  32  -4   4 23.2268  2.9633   2
  32  -4   4 21.7594  2.8412   3
 -32   4  -4 23.0594  2.9749   1
  32   4   4 24.6175  2.9441   3
  34  -4   4 9.15667 2.32807   2
  34  -4   4 11.2006  2.3637   3
  34   4   4 11.9287  2.5191   3
 -34   4  -4 7.89656 2.40477   1
  36  -4   4 17.6821  2.9375   2
  36  -4   4 19.6365  2.9617   3
  36   4   4 15.7739  2.8982   3
 -36   4  -4 20.9704  3.1163   1
  38   4   4 3.67327 2.40759   3
 -38   4  -4 5.06677 2.46758   1
 -40   4  -4 5.23595 2.43327   1
  40   4   4 3.19256 2.47098   3
  43   5  -4 -0.5873  2.2604   3
  41  -5  -4 -0.1962  2.2510   2
 -41   5   4 -2.6012  2.0389   1
  41   5  -4 2.32346 2.29018   3
  39  -5  -4 4.55191 2.21506   2
 -39   5   4 4.03872 2.39384   1
  39   5  -4 5.85104 2.47205   3
  37  -5  -4 3.88441 2.19948   2
 -37   5   4 2.21082 2.31382   1
  37   5  -4 1.92701 2.04478   3
  35  -5  -4 18.5848  3.0674   2
 -35   5   4 18.0875  2.9830   1
  35   5  -4 19.1479  2.9298   3
  33  -5  -4 17.1139  2.9095   2
 -33   5   4 11.6254  2.6678   1
  33   5  -4 12.6916  2.6315   3
  31  -5  -4 24.4990  3.2139   2
 -31   5   4 28.1137  3.2540   1
  31   5  -4 22.9638  3.0511   3
  29  -5  -4 5.76963 2.05953   2
  29   5  -4 1.93961 1.94844   3
  29   5  -4 4.98252 1.55678   2
 -29   5   4 3.19079 2.06787   1
  27  -5  -4 54.5923  3.8260   2
 -27   5   4 49.6507  3.7120   1
  27   5  -4 50.4345  3.0140   2
  27   5  -4 48.7867  3.7792   3
  25  -5  -4 3.40754 1.59652   2
  25   5  -4 2.38071 1.83620   3
  25   5  -4 2.55642 1.26398   2
 -25   5   4 1.37041 1.70908   1
  23  -5  -4 5.37497 1.61610   2
  23   5  -4 2.54552 1.61671   3
 -23   5   4 2.33343 1.57774   1
  23   5  -4 5.22294 1.23873   2
  21  -5  -4 20.0156  2.3902   2
  21   5  -4 22.2722  1.8520   2
 -21   5   4 16.2951  2.2874   1
  21   5  -4 16.3108  2.4318   3
  19  -5  -4 23.3416  2.1732   2
  19   5  -4 28.9122  2.8738   3
  19   5  -4 26.9483  1.9750   2
 -19   5   4 24.4066  2.5425   1
  17  -5  -4 0.96704 0.38732   3
  17  -5  -4 -0.7611  0.9678   2
  17   5  -4 4.80819 1.51805   3
  17   5  -4 3.41252 1.06791   2
 -17   5   4 -0.0824  0.3263   1
  15  -5  -4 177.368   7.114   2
  15   5  -4 186.573   6.938   2
  13  -5  -4 8.56775 1.45805   2
  13  -5  -4 9.27376 1.06241   3
  13   5  -4 10.7483  1.5062   2
 -13   5   4 8.49013 1.51095   1
  11  -5  -4 484.725  16.565   2
  11  -5  -4 481.540  15.758   3
  11   5  -4 508.252  16.578   2
   9  -5  -4 91.5997  4.1844   2
   9  -5  -4 99.7154  4.3578   1
   9   5  -4 101.223   4.380   2
   7  -5  -4 31.5776  2.3418   1
   7  -5  -4 28.7588  2.0767   2
   7   5  -4 34.9866  2.4845   2
   7   5  -4 33.8712  1.5333   1
   5  -5  -4 123.488   5.098   1
   5  -5  -4 125.969   5.096   2
   5   5  -4 137.245   5.464   2
   5   5  -4 130.747   4.453   1
  -3  -5   4 203.346   7.547   3
   3  -5  -4 209.076   7.456   1
   3  -5  -4 217.045   7.477   2
   3   5  -4 192.491   6.835   1
   3   5  -4 216.065   7.865   2
   1  -5  -4 26.4295  1.8852   1
   1  -5  -4 24.9387  1.7542   2
  -1  -5   4 24.1147  2.0151   3
   1   5  -4 22.5318  2.0198   2
   1   5  -4 19.2198  1.5730   1
  -1  -5  -4 10.3365  1.3362   1
   1  -5   4 10.8688  1.4620   3
  -1   5  -4 10.1893  1.1232   1
  -1   5  -4 11.3308  1.5580   2
  -3  -5  -4 242.620   8.387   1
   3  -5   4 249.357   8.677   3
  -3   5  -4 248.799   8.272   1
   3   5   4 234.333   8.583   3
  -5  -5  -4 425.124  13.838   1
   5  -5   4 418.331  14.202   3
   5   5   4 422.344  14.242   3
  -5   5  -4 431.326  13.843   1
  -7  -5  -4 195.894   6.940   1
   7  -5   4 198.852   7.236   3
   7   5   4 195.993   7.300   3
  -7   5  -4 203.759   7.083   1
   7   5   4 186.532   6.822   2
  -9  -5  -4 235.066   8.046   1
   9  -5   4 233.374   8.383   3
  -9   5  -4 235.661   8.239   1
   9   5   4 219.878   7.852   2
   9   5   4 233.900   8.500   3
  11  -5   4 41.7421  2.7036   3
 -11  -5  -4 45.6828  2.5393   1
  11   5   4 45.8655  2.9156   3
 -11   5  -4 50.2366  2.8663   1
 -13  -5  -4 6.01325 1.22443   1
  13  -5   4 6.83943 1.47297   3
 -13   5  -4 3.35313 1.44084   1
  13   5   4 4.14477 1.56180   3
  13   5   4 3.76127 0.80683   2
 -15  -5  -4 37.1409  2.3437   1
  15  -5   4 32.7565  2.4349   3
 -15   5  -4 33.8590  2.6254   1
  15   5   4 30.6224  2.6628   3
  17  -5   4 2.39079 1.53993   2
 -17  -5  -4 6.36581 1.24793   1
  17  -5   4 6.27579 1.40233   3
  17   5   4 1.53948 1.49183   3
 -17   5  -4 3.43318 1.51267   1
  19  -5   4 5.28020 1.59270   2
 -19  -5  -4 8.27723 1.36275   1
  19  -5   4 5.82824 1.38822   3
  19   5   4 6.39944 1.67785   3
 -19   5  -4 6.04499 1.61294   1
 -21  -5  -4 14.0356  1.7164   1
  21  -5   4 17.7794  2.3632   2
  21  -5   4 14.0624  1.8960   3
 -21   5  -4 13.6490  2.1740   1
  21   5   4 14.5563  2.1643   3
 -23  -5  -4 22.1738  2.1041   1
  23  -5   4 20.8799  2.3156   3
  23  -5   4 17.8766  2.4196   2
 -23   5  -4 22.3345  2.5768   1
  23   5   4 21.0501  2.5551   3
 -25  -5  -4 27.7282  2.4014   1
  25  -5   4 27.0447  2.5814   3
  25  -5   4 30.4621  2.7074   2
 -25   5  -4 27.1038  2.8998   1
  27  -5   4 25.8091  2.9588   2
  27  -5   4 24.1811  2.6544   3
 -27   5  -4 25.5670  2.8461   1
  27   5   4 26.3923  2.8945   3
  29  -5   4 0.71524 1.71221   2
  29  -5   4 -1.5404  1.4328   3
  29   5   4 1.01123 1.69895   3
 -29   5  -4 0.06969 1.76495   1
  31  -5   4 4.02556 1.85699   3
  31  -5   4 4.77168 2.05107   2
 -31   5  -4 3.34975 1.92580   1
  31   5   4 3.65063 1.96189   3
  33  -5   4 2.89839 2.08859   2
  33  -5   4 1.74946 1.91744   3
  33   5   4 5.22087 2.23437   3
 -33   5  -4 4.30522 2.15233   1
  35  -5   4 5.99779 2.42440   2
 -35   5  -4 10.1652  2.6997   1
  35   5   4 6.23151 2.41563   3
  37  -5   4 1.30428 2.27734   2
  37   5   4 3.84522 2.43100   3
 -37   5  -4 9.49354 2.69604   1
 -39   5  -4 4.96595 2.63920   1
  39   5   4 2.57668 2.55154   3
  40  -6  -4 -0.3319  2.1651   2
  40   6  -4 -0.3856  2.1622   3
 -40   6   4 0.57415 2.28975   1
  38  -6  -4 0.88916 2.25980   2
  38   6  -4 0.86117 2.12936   3
 -38   6   4 2.47308 2.33285   1
  36  -6  -4 0.56978 2.20112   2
 -36   6   4 0.35996 2.21605   1
  36   6  -4 -0.2408  2.0212   3
  34  -6  -4 0.52968 2.14402   2
 -34   6   4 4.68463 2.41250   1
  34   6  -4 4.32519 2.39196   3
  32  -6  -4 11.5969  2.8044   2
 -32   6   4 14.6082  2.9193   1
  32   6  -4 13.6859  2.7585   3
  30  -6  -4 5.65773 2.27837   2
 -30   6   4 4.93778 2.16871   1
  30   6  -4 5.16418 2.22050   3
  28  -6  -4 24.6043  3.2146   2
 -28   6   4 37.0003  3.4238   1
  28   6  -4 38.8738  3.6965   3
  26  -6  -4 6.66560 2.05512   2
  26   6  -4 6.49419 1.44683   2
 -26   6   4 12.2566  2.3678   1
  26   6  -4 8.15098 2.30795   3
  24  -6  -4 1.65413 1.53903   2
 -24   6   4 3.74235 1.86387   1
  24   6  -4 4.86710 2.02105   3
  24   6  -4 2.35361 1.29372   2
  22  -6  -4 10.7468  2.0930   2
 -22   6   4 8.15517 1.94858   1
  22   6  -4 7.39056 2.15943   3
  22   6  -4 8.54264 1.53365   2
  20  -6  -4 24.7914  2.4907   2
  20   6  -4 28.1036  2.3041   2
  20   6  -4 28.6166  3.0840   3
 -20   6   4 24.7796  2.8132   1
  18  -6  -4 3.01132 1.37260   2
  18   6  -4 3.26095 1.15733   2
 -18   6   4 2.86364 1.54187   1
  18   6  -4 3.71082 1.72165   3
  16  -6  -4 6.79071 1.62622   2
  16   6  -4 5.21192 1.31915   2
 -16   6   4 3.34296 1.61030   1
  14  -6  -4 24.9617  1.8005   3
  14  -6  -4 22.3133  2.1859   2
 -14   6   4 19.7055  2.3878   1
  14   6  -4 23.2133  2.1519   2
  12  -6  -4 69.9641  3.8541   2
 -12   6   4 81.0097  4.2675   1
  12   6  -4 68.1452  3.7264   2
  10  -6  -4 100.914   4.635   2
  10   6  -4 95.8813  4.5910   2
   8  -6  -4 10.1732  1.7977   1
   8  -6  -4 9.12819 1.59929   2
   8   6  -4 10.7094  1.6360   2
   8   6  -4 7.90292 0.95154   1
   6  -6  -4 68.8781  3.6653   1
   6  -6  -4 78.3170  3.7129   2
   6   6  -4 72.6787  2.9642   1
   6   6  -4 71.6350  3.9031   2
   4  -6  -4 89.3469  4.0922   1
   4  -6  -4 86.3051  4.0204   2
   4   6  -4 94.1054  4.3612   2
   4   6  -4 83.6374  3.4343   1
   2  -6  -4 41.3251  2.6370   1
  -2  -6   4 32.6020  2.4882   3
   2  -6  -4 37.6150  2.3828   2
   2   6  -4 35.6622  2.9025   2
   2   6  -4 33.9799  2.0726   1
   0  -6  -4 153.110   6.050   1
   0  -6   4 165.051   6.365   3
   0   6  -4 161.482   6.555   2
   0   6  -4 154.326   5.722   1
  -2  -6  -4 23.9778  1.9699   1
   2  -6   4 26.3908  2.2380   3
  -2   6  -4 30.3987  1.9899   1
   4  -6   4 5.44608 1.37921   3
  -4  -6  -4 5.20438 1.22152   1
   4   6   4 2.55646 1.24081   3
  -4   6  -4 4.84955 1.16986   1
   6  -6   4 39.5351  2.5837   3
  -6  -6  -4 40.2739  2.3914   1
   6   6   4 27.2540  2.0974   2
   6   6   4 33.8345  2.6636   3
  -6   6  -4 41.6989  2.3724   1
  -8  -6  -4 59.0760  3.0358   1
   8  -6   4 57.6979  3.2929   3
   8   6   4 58.4022  2.9213   2
   8   6   4 61.1308  3.4308   3
  -8   6  -4 64.1158  3.2480   1
 -10  -6  -4 94.1329  4.0860   1
  10  -6   4 100.739   4.515   3
 -10   6  -4 106.963   4.442   1
  10   6   4 79.3563  3.7905   2
  10   6   4 91.9875  4.5396   3
 -12  -6  -4 22.9464  2.1090   1
  12  -6   4 16.4672  1.9985   3
 -12   6  -4 13.0883  2.0053   1
  12   6   4 15.5341  2.1837   3
 -14  -6  -4 30.0070  2.2515   1
  14  -6   4 26.7334  2.4528   3
  14   6   4 19.0753  2.4070   3
  16  -6   4 9.71526 1.69761   3
 -16  -6  -4 8.28211 1.35190   1
 -16   6  -4 8.87411 1.86986   1
  16   6   4 5.19645 1.69470   3
 -18  -6  -4 7.25362 1.40945   1
  18  -6   4 6.91434 1.53759   3
 -18   6  -4 4.76857 1.67507   1
  18   6   4 6.10586 1.89113   3
  20  -6   4 9.33666 1.69090   3
 -20  -6  -4 9.56474 1.55341   1
  20   6   4 6.25191 1.93803   3
 -20   6  -4 4.48246 1.82965   1
  22  -6   4 3.72661 1.69519   2
  22  -6   4 7.11088 1.71928   3
  22   6   4 5.52690 1.94866   3
 -22   6  -4 2.15551 1.72713   1
  24  -6   4 22.1367  2.8434   2
  24  -6   4 27.3416  2.5062   3
  24   6   4 19.5825  2.7449   3
 -24   6  -4 22.3029  2.7824   1
  26  -6   4 4.36108 1.67287   3
  26  -6   4 5.94054 1.93022   2
  26   6   4 3.45898 1.91180   3
 -26   6  -4 4.49150 1.89429   1
  28  -6   4 5.27625 1.88654   3
  28  -6   4 5.28438 2.10692   2
 -28   6  -4 5.45139 1.99826   1
  28   6   4 6.47842 2.12779   3
  30  -6   4 1.84289 1.64091   3
  30  -6   4 2.31603 1.97071   2
 -30   6  -4 0.55845 1.77428   1
  30   6   4 -0.5744  1.7649   3
  32  -6   4 1.64358 1.94639   2
  32   6   4 1.29078 2.04745   3
 -32   6  -4 2.80299 1.96281   1
  34  -6   4 1.59316 2.16733   2
  34   6   4 3.48247 2.26292   3
 -34   6  -4 5.20113 2.29367   1
  36  -6   4 3.71800 2.47947   2
  36   6   4 1.78787 2.35132   3
 -36   6  -4 3.75730 2.28871   1
 -38   6  -4 3.58320 2.58072   1
  38   6   4 1.04801 2.44250   3
  37  -7  -4 0.72058 2.21962   2
 -37   7   4 0.17637 2.39345   1
  37   7  -4 -2.1889  2.2321   3
  35  -7  -4 3.94595 2.52826   2
 -35   7   4 3.71343 2.41699   1
  35   7  -4 8.01562 2.71440   3
  33  -7  -4 4.64889 2.47861   2
 -33   7   4 5.09970 2.44900   1
  33   7  -4 5.09282 2.47409   3
  31  -7  -4 0.42392 2.05969   2
 -31   7   4 4.59431 2.32009   1
  31   7  -4 2.89299 2.33398   3
  29  -7  -4 1.75862 1.98994   2
 -29   7   4 2.13752 1.96577   1
  29   7  -4 1.43259 2.05084   3
  27  -7  -4 3.69025 1.86058   2
 -27   7   4 5.99584 2.08409   1
  27   7  -4 5.57023 2.12974   3
  25  -7  -4 1.62158 1.58230   2
 -25   7   4 1.24629 1.68774   1
  25   7  -4 0.53584 1.74857   3
  23  -7  -4 5.02660 1.95746   2
  23   7  -4 5.46202 2.06435   3
 -23   7   4 6.37284 1.97257   1
  23   7  -4 4.68684 1.37702   2
  21  -7  -4 4.70868 1.81326   2
 -21   7   4 4.76984 1.94693   1
  21   7  -4 5.13028 1.46665   2
  21   7  -4 6.94236 2.22644   3
  19  -7  -4 43.0948  3.4135   2
 -19   7   4 42.7961  3.7086   1
  19   7  -4 45.4023  2.9499   2
  19   7  -4 45.5050  3.8060   3
  17  -7  -4 5.22042 1.67615   2
  17   7  -4 7.67796 1.60518   2
 -17   7   4 2.88549 1.98894   1
  15  -7  -4 15.7295  2.1504   2
 -15   7   4 13.7753  2.4321   1
  15   7  -4 13.0179  1.8457   2
  13  -7  -4 7.98995 1.72291   2
 -13   7   4 5.08197 1.97498   1
  13   7  -4 9.10133 1.72353   2
  11  -7  -4 101.231   4.966   2
 -11   7   4 110.747   5.318   1
  11   7  -4 91.2775  4.7538   2
   9  -7  -4 14.0063  2.1204   2
   9   7  -4 18.5424  2.2090   2
   7  -7  -4 47.1960  3.2883   1
   7  -7  -4 43.8783  3.0785   2
   7   7  -4 46.1952  3.2364   2
   5  -7  -4 26.8940  2.5583   1
   5  -7  -4 27.8026  2.4423   2
   5   7  -4 26.6268  2.6744   2
   3  -7  -4 120.651   5.254   1
   3   7  -4 130.715   5.672   2
   3   7  -4 119.319   4.687   1
   1  -7  -4 52.6907  3.0551   1
   1   7  -4 51.2649  2.6878   1
   1   7  -4 50.4565  3.3096   2
  -1  -7  -4 7.39114 1.43393   1
   1  -7   4 6.79762 1.52506   3
  -1   7  -4 9.30383 1.34141   1
  -1   7  -4 10.5209  1.9227   2
  -3  -7  -4 14.0787  1.7385   1
   3  -7   4 10.8845  1.8328   3
  -3   7  -4 13.6622  1.5571   1
   3   7   4 13.0922  1.8622   3
  -5  -7  -4 21.9137  2.1029   1
   5  -7   4 18.7676  2.2199   3
   5   7   4 22.0985  2.4122   3
   5   7   4 18.2875  2.0390   2
  -5   7  -4 18.6070  1.8834   1
  -7  -7  -4 16.1387  1.8657   1
   7  -7   4 12.4191  1.9968   3
  -7   7  -4 15.0904  1.8289   1
   7   7   4 16.8013  2.2838   3
   7   7   4 15.8670  1.8481   2
  -9  -7  -4 82.0434  3.8119   1
   9  -7   4 81.3107  4.1192   3
  -9   7  -4 87.2618  4.0956   1
   9   7   4 71.6346  4.2113   3
   9   7   4 72.1612  3.6759   2
  11  -7   4 13.8275  2.0113   3
 -11  -7  -4 12.8878  1.7435   1
 -11   7  -4 14.8340  2.0114   1
  11   7   4 15.3400  2.1820   3
 -13  -7  -4 8.13489 1.47399   1
  13  -7   4 7.44658 1.67827   3
 -13   7  -4 3.69912 1.59311   1
  13   7   4 5.69649 1.78121   3
  15  -7   4 21.9151  2.4637   3
 -15  -7  -4 30.5159  2.3962   1
 -15   7  -4 24.5230  2.6391   1
  15   7   4 31.1805  2.9076   3
  17  -7   4 7.21585 1.76297   3
  17   7   4 8.63838 2.17295   3
 -17   7  -4 4.82316 1.86078   1
  19  -7   4 18.6074  2.3607   3
  19   7   4 24.8077  2.9204   3
 -19   7  -4 17.7552  2.5005   1
  21  -7   4 3.94284 1.62183   3
 -21   7  -4 4.93840 1.99557   1
  21   7   4 3.16168 1.95083   3
  23  -7   4 7.57601 1.80408   3
 -23   7  -4 4.21354 2.05286   1
  23   7   4 4.63540 2.17620   3
  25  -7   4 2.15694 1.64261   3
 -25   7  -4 1.45878 1.88001   1
  25   7   4 1.37612 1.96745   3
  27  -7   4 2.85152 1.82866   3
  27   7   4 1.29759 1.97255   3
 -27   7  -4 5.21058 2.12372   1
 -29   7  -4 3.44786 2.07559   1
  29   7   4 1.22553 2.05639   3
 -31   7  -4 2.67289 2.09746   1
  31   7   4 1.58882 2.11894   3
 -33   7  -4 6.69146 2.45077   1
  33   7   4 2.85751 2.28058   3
  35   7   4 1.34602 2.34847   3
 -35   7  -4 2.93931 2.40301   1
  34  -8  -4 10.2760  3.0047   2
 -34   8   4 5.99049 2.74678   1
  34   8  -4 7.86621 2.90924   3
  32  -8  -4 11.2287  2.9660   2
 -32   8   4 11.6902  3.0288   1
  32   8  -4 12.9717  3.0936   3
  30  -8  -4 6.29808 2.51427   2
  30   8  -4 4.01086 2.52103   3
 -30   8   4 2.11651 2.23171   1
  28  -8  -4 7.96329 2.37227   2
  28   8  -4 9.40728 2.65744   3
 -28   8   4 9.61990 2.56211   1
  26  -8  -4 -0.3350  1.5912   2
  26   8  -4 4.23483 2.31574   3
 -26   8   4 0.72494 1.82021   1
  24  -8  -4 3.67728 2.01479   2
 -24   8   4 6.06676 2.11286   1
  24   8  -4 6.60061 2.32415   3
  22  -8  -4 3.15879 1.88889   2
  22   8  -4 5.65551 2.21030   3
 -22   8   4 3.90572 1.85216   1
  20  -8  -4 2.41623 1.75792   2
  20   8  -4 2.09092 1.89964   3
 -20   8   4 2.37891 1.85106   1
  20   8  -4 2.87058 1.43372   2
  18  -8  -4 53.1749  3.8706   2
  18   8  -4 52.3628  4.1549   3
  18   8  -4 52.6065  3.3637   2
 -18   8   4 46.7841  3.8657   1
  16  -8  -4 6.42588 1.97611   2
 -16   8   4 7.00744 2.42888   1
  16   8  -4 8.91182 1.86332   2
  14  -8  -4 108.111   5.484   2
 -14   8   4 105.418   5.794   1
  14   8  -4 119.964   5.450   2
  12  -8  -4 10.9944  2.1242   2
 -12   8   4 15.0883  2.6445   1
  12   8  -4 17.5559  2.2816   2
  10  -8  -4 43.5565  3.3812   2
  10   8  -4 48.8492  3.3788   2
 -10   8   4 44.9292  3.4839   1
   8  -8  -4 3.74993 1.75909   2
   8   8  -4 5.50962 1.77919   2
   6  -8  -4 16.1355  2.2336   1
   6   8  -4 15.1760  2.3195   2
   4  -8  -4 13.8646  2.0398   1
   4   8  -4 8.70794 2.02920   2
   2  -8  -4 31.3126  2.5794   1
   2   8  -4 26.6300  2.9661   2
   0  -8  -4 28.7725  2.4148   1
   0   8  -4 22.8346  2.2197   1
   0   8  -4 30.1758  3.0577   2
  -2  -8  -4 75.9917  3.8936   1
  -2   8  -4 81.0374  4.6246   2
  -2   8  -4 67.8344  3.6180   1
  -4  -8  -4 27.3680  2.5098   1
   4  -8   4 28.7554  2.8624   3
   4   8   4 31.2106  3.0339   3
   4   8   4 27.3170  2.6702   2
  -4   8  -4 21.0336  2.2423   1
   6  -8   4 64.7701  4.0067   3
  -6  -8  -4 79.2241  3.8743   1
  -6   8  -4 68.9956  3.7425   1
   6   8   4 69.2098  4.1783   3
   6   8   4 72.6100  3.9044   2
   8  -8   4 5.01761 1.74573   3
  -8  -8  -4 5.82221 1.59392   1
   8   8   4 3.62311 1.93027   3
  -8   8  -4 4.88483 1.65172   1
  10  -8   4 67.6293  4.0001   3
 -10  -8  -4 72.5578  3.6985   1
 -10   8  -4 61.1995  3.7637   1
  10   8   4 68.2162  4.3136   3
 -12  -8  -4 7.53733 1.61366   1
  12  -8   4 5.09649 1.70305   3
  12   8   4 2.01164 1.70874   3
 -12   8  -4 3.52039 1.63740   1
  14  -8   4 21.9805  2.6123   3
 -14   8  -4 19.4109  2.5080   1
  14   8   4 29.6137  3.1482   3
  16  -8   4 8.25054 1.94325   3
  16   8   4 7.82269 2.19877   3
 -16   8  -4 7.07739 2.00093   1
  18  -8   4 8.75271 1.97567   3
  18   8   4 9.41776 2.37707   3
 -18   8  -4 11.6454  2.3003   1
  20  -8   4 7.20360 1.94232   3
  20   8   4 2.61773 1.98881   3
 -20   8  -4 4.00992 1.92230   1
  22  -8   4 6.16877 1.98484   3
  22   8   4 9.24541 2.44751   3
 -22   8  -4 11.2288  2.4545   1
  24  -8   4 9.37798 2.16695   3
 -24   8  -4 10.4474  2.4282   1
  24   8   4 13.1289  2.7240   3
 -26   8  -4 10.5432  2.6243   1
  26   8   4 10.6784  2.6633   3
 -28   8  -4 9.48626 2.66683   1
  28   8   4 9.05320 2.55705   3
  30   8   4 -0.0766  2.1245   3
 -30   8  -4 3.29042 2.14943   1
  32   8   4 5.11830 2.47788   3
 -32   8  -4 6.56615 2.52097   1
  31  -9  -4 14.9012  3.3010   2
  31   9  -4 19.6833  3.5944   3
 -31   9   4 16.8585  3.2472   1
  29  -9  -4 5.00517 2.56032   2
 -29   9   4 7.76916 2.72993   1
  27  -9  -4 10.1991  2.6853   2
  27   9  -4 16.7065  3.3898   3
 -27   9   4 14.0997  2.9525   1
  25  -9  -4 2.30909 2.09263   2
  25   9  -4 1.51820 2.17521   3
 -25   9   4 3.65696 2.35129   1
  23  -9  -4 7.97397 2.29531   2
 -23   9   4 8.26208 2.37683   1
  23   9  -4 10.8879  2.6019   3
  21  -9  -4 7.33857 2.23762   2
 -21   9   4 4.23124 2.06175   1
  21   9  -4 3.60719 2.16392   3
  19  -9  -4 12.6600  2.4026   2
 -19   9   4 9.27289 2.39738   1
  19   9  -4 8.63566 2.44575   3
  17  -9  -4 17.1373  2.6514   2
 -17   9   4 16.8400  2.8857   1
  17   9  -4 13.8844  2.2235   2
  17   9  -4 17.2699  3.0348   3
  15  -9  -4 62.6174  4.2437   2
  15   9  -4 62.9380  3.8927   2
 -15   9   4 58.2224  4.4263   1
  13  -9  -4 42.0648  3.5023   2
 -13   9   4 41.3383  3.7593   1
  13   9  -4 42.0395  3.3057   2
  11   9  -4 55.5738  3.8272   2
 -11   9   4 54.8656  4.0505   1
  -9   9   4 20.7845  2.8115   1
   9   9  -4 23.7600  2.8361   2
   7   9  -4 19.7690  2.7262   2
  -7   9   4 22.4209  2.8152   1
   5   9  -4 10.2167  2.2668   2
   3  -9  -4 23.5725  2.6683   1
   3   9  -4 19.8312  2.8591   2
   1  -9  -4 34.1751  3.0077   1
   1   9  -4 30.4270  3.4582   2
  -1  -9  -4 14.5871  2.2805   1
  -1   9  -4 13.5824  2.5906   2
  -3  -9  -4 53.7412  3.5392   1
   3   9   4 55.3743  3.9595   3
  -3   9  -4 49.3552  4.1731   2
   3   9   4 53.0058  3.6072   2
  -5  -9  -4 17.8037  2.3100   1
   5  -9   4 19.1423  2.6985   3
  -5   9  -4 20.1221  3.1665   2
   5   9   4 17.0795  2.7201   3
  -5   9  -4 17.5008  2.2786   1
  -7  -9  -4 83.2018  4.2178   1
   7  -9   4 80.1408  4.5303   3
  -7   9  -4 75.2733  4.2169   1
   7   9   4 84.6750  4.9454   3
   9  -9   4 41.8666  3.4195   3
   9   9   4 34.6376  3.3859   3
  -9   9  -4 35.9641  3.0941   1
  11  -9   4 46.6692  3.5002   3
  11   9   4 48.3470  3.8211   3
 -11   9  -4 52.4294  3.5995   1
  13  -9   4 10.4723  2.1829   3
  13   9   4 11.1947  2.6222   3
 -13   9  -4 10.2440  2.1852   1
  15  -9   4 18.2449  2.5949   3
 -15   9  -4 20.4810  2.7005   1
  15   9   4 20.0154  2.9703   3
  17  -9   4 3.47272 1.82795   3
  17   9   4 2.05517 1.98648   3
 -17   9  -4 4.90262 2.08079   1
  19  -9   4 13.0159  2.4303   3
 -19   9  -4 14.4484  2.6097   1
  19   9   4 14.8850  2.7985   3
  21  -9   4 1.23367 1.71778   3
 -21   9  -4 1.90352 1.96591   1
  21   9   4 3.77161 2.11594   3
 -23   9  -4 20.0067  3.0500   1
  23   9   4 18.0733  3.0987   3
 -25   9  -4 1.58816 1.97916   1
  25   9   4 2.38554 2.29043   3
 -27   9  -4 16.2057  2.9729   1
  27   9   4 14.2292  2.9720   3
  29   9   4 -2.2084  2.0854   3
 -29   9  -4 0.48669 2.20763   1
  28 -10  -4 13.9362  3.3351   2
  28  10  -4 10.2851  3.1358   3
 -28  10   4 7.52002 2.79795   1
  26 -10  -4 14.7486  3.1772   2
 -26  10   4 10.9377  2.9264   1
  26  10  -4 9.37400 3.12121   3
  24 -10  -4 23.2218  3.5185   2
  24  10  -4 15.6935  3.1973   3
 -24  10   4 18.5859  3.3643   1
  22 -10  -4 8.86182 2.62773   2
 -22  10   4 4.48735 2.47839   1
  22  10  -4 8.09165 2.77119   3
  20 -10  -4 3.31918 1.95409   2
  20  10  -4 1.51310 2.10852   3
 -20  10   4 1.29820 1.97025   1
  18  10  -4 24.4325  3.4209   3
 -18  10   4 13.4849  2.9059   1
 -16  10   4 -0.6924  1.6418   1
  16  10  -4 0.29637 1.98505   3
  14  10  -4 35.5531  3.1605   2
 -14  10   4 35.0461  3.7820   1
  12  10  -4 3.77863 1.82860   2
 -12  10   4 3.99849 1.93798   1
 -10  10   4 27.2027  3.3744   1
  10  10  -4 34.1604  3.2280   2
   8  10  -4 5.07418 2.10723   2
  -8  10   4 3.64426 2.05466   1
  -6  10   4 57.8065  4.1352   1
   6  10  -4 55.7397  4.2230   2
   4  10  -4 2.65293 2.06559   2
  -4  10   4 0.89545 1.98150   1
   2  10  -4 83.2988  5.2716   2
   0 -10  -4 2.79739 1.80583   1
   0  10  -4 2.79419 2.11342   2
  -2 -10  -4 34.7000  3.2330   1
   2  10   4 35.6368  3.6768   3
  -2  10  -4 32.0113  3.6936   2
  -4  10  -4 3.30986 2.22846   2
   4  10   4 3.20283 1.97793   3
   6  10   4 42.7831  3.8048   3
  -6  10  -4 42.3021  4.0501   2
   8  10   4 -0.0563  1.8184   3
  -8  10  -4 -0.1059  2.1165   2
  10 -10   4 53.1636  3.9933   3
 -10  10  -4 66.5891  4.0998   1
  10  10   4 64.4792  4.6547   3
  12 -10   4 23.5399  2.9696   3
  12  10   4 23.0701  3.2291   3
 -12  10  -4 16.2959  2.7056   1
  14 -10   4 40.8334  3.5865   3
 -14  10  -4 50.2713  3.9134   1
  14  10   4 45.3441  4.2595   3
  16 -10   4 38.8645  3.5578   3
 -16  10  -4 31.8877  3.4782   1
  16  10   4 36.2048  4.0666   3
  18 -10   4 8.82350 2.19259   3
 -18  10  -4 5.62136 2.34083   1
  18  10   4 9.21903 2.72539   3
  20  10   4 3.34867 2.22060   3
 -20  10  -4 4.82759 2.14393   1
 -22  10  -4 -1.3229  1.8536   1
  22  10   4 -1.3373  2.0512   3
 -24  10  -4 1.15624 2.11537   1
  24  10   4 0.21148 2.11589   3
 -26  10  -4 -0.1704  2.2633   1
  26  10   4 1.77631 2.34653   3
  23  11  -4 27.3834  4.1079   3
 -23  11   4 25.1770  3.9930   1
 -21  11   4 3.74424 2.60323   1
  21  11  -4 2.98994 2.86879   3
  19  11  -4 21.4645  3.6264   3
 -19  11   4 25.0385  3.5708   1
  17  11  -4 7.35234 2.56716   3
 -17  11   4 4.95479 2.30071   1
  15  11  -4 19.4832  3.3401   3
 -15  11   4 17.0974  2.9471   1
 -13  11   4 6.59375 2.33287   1
 -11  11   4 26.0688  3.4783   1
  11  11  -4 30.3522  3.5220   2
  -9  11   4 19.3947  3.0949   1
   9  11  -4 20.6992  3.1260   2
   7  11  -4 51.3705  4.2438   2
  -7  11   4 40.5558  3.9119   1
   5  11  -4 26.5301  3.5250   2
  -5  11   4 22.0733  3.2037   1
   3  11  -4 35.0770  3.9452   2
  -3  11   4 25.5538  3.4030   1
   1  11  -4 23.5944  3.4406   2
   1  11   4 18.9988  3.0750   3
  -1  11  -4 18.5499  3.0827   2
   3  11   4 25.5933  3.3510   3
  -3  11  -4 24.6133  3.5832   2
   5  11   4 5.79619 2.34536   3
  -5  11  -4 5.49560 2.57035   2
   7  11   4 41.4966  3.9635   3
  -7  11  -4 37.2479  4.5130   2
  -9  11  -4 0.31987 2.47210   2
   9  11   4 3.60016 2.33801   3
  11  11   4 45.8274  4.3200   3
 -11  11  -4 44.6441  5.0587   2
  13  11   4 10.2750  2.9140   3
  15  11   4 50.1685  4.5500   3
 -15  11  -4 44.0522  4.0084   1
 -17  11  -4 2.32009 2.18368   1
  17  11   4 2.78747 2.43791   3
  19  11   4 19.8402  3.4940   3
 -19  11  -4 24.4239  3.4088   1
  21  11   4 0.35098 2.32503   3
 -21  11  -4 -2.7548  1.8083   1
 -23  11  -4 13.3959  3.0574   1
 -18  12   4 40.1013  4.4914   1
 -16  12   4 7.65363 2.77820   1
  16  12  -4 4.15487 2.86022   3
 -14  12   4 24.9627  3.6603   1
  14  12  -4 31.0818  4.3601   3
 -12  12   4 3.21408 2.28959   1
 -10  12   4 37.4049  4.0219   1
   8  12  -4 -1.5365  1.8989   2
   6  12  -4 53.4117  4.6571   2
   4  12  -4 3.15077 2.32274   2
   2  12  -4 41.6920  4.7048   2
   0  12  -4 -2.4136  2.0660   2
  -2  12  -4 26.5760  3.9331   2
  -4  12  -4 -0.2928  2.2136   2
  -6  12  -4 13.0024  3.1162   2
   6  12   4 17.9010  3.2711   3
  -8  12  -4 7.06170 2.81451   2
   8  12   4 8.35603 2.70612   3
 -10  12  -4 23.1641  4.0404   2
  10  12   4 27.7858  3.8951   3
 -12  12  -4 11.7166  3.3540   2
  12  12   4 15.3302  3.2025   3
 -14  12  -4 39.4111  4.8235   2
  14  12   4 32.3553  4.2417   3
  16  12   4 9.04032 3.03513   3
   5  13  -4 5.17136 2.59317   2
   3  13  -4 3.71195 2.66474   2
   1  13  -4 7.62991 2.89982   2
  -1  13  -4 0.90961 2.28307   2
  -3  13  -4 16.7875  3.4146   2
  40   0  -5 -0.7920  1.7273   2
  38   0  -5 0.41930 1.78506   2
  36   0  -5 -0.4476  1.5894   2
 -34   0   5 1.80879 1.64568   1
  34   0  -5 3.08341 1.75094   2
  32   0  -5 0.43455 1.38650   3
  32   0  -5 0.93845 1.49475   2
 -32   0   5 0.74649 1.47040   1
  30   0  -5 7.29456 1.77345   2
 -30   0   5 4.40396 1.63740   1
  30   0  -5 5.31440 1.60267   3
 -28   0   5 0.72856 1.28284   1
  28   0  -5 1.80013 1.16543   3
  28   0  -5 2.47658 1.27994   2
  26   0  -5 1.67463 1.01195   3
 -26   0   5 0.70370 1.13806   1
  26   0  -5 0.17468 1.03237   2
 -24   0   5 -0.9334  0.9145   1
  24   0  -5 -0.7620  0.8228   2
  24   0  -5 0.31816 0.84628   3
  22   0  -5 -0.2364  0.7406   2
  22   0  -5 -0.1858  0.6954   3
 -22   0   5 0.43885 0.84484   1
 -20   0   5 0.02117 0.70667   1
  20   0  -5 -0.6287  0.6654   3
  20   0  -5 -0.5015  0.7933   2
 -18   0   5 -0.3259  0.6752   1
  18   0  -5 0.30995 0.42912   3
  18   0  -5 -1.1782  0.6549   2
 -16   0   5 0.15323 0.40104   1
  16   0  -5 -0.4028  0.5086   3
  16   0  -5 -0.1597  0.6750   2
  14   0  -5 0.04331 0.62918   2
 -14   0   5 -0.4882  0.7124   1
  14   0  -5 -0.0637  0.5821   3
 -12   0   5 -0.2490  0.5716   1
  12   0  -5 -1.2408  0.4803   3
  12   0  -5 -1.6203  0.4581   2
  10   0  -5 -0.4029  0.1280   2
  10   0  -5 1.00695 0.65757   1
  10   0  -5 -1.1641  0.5245   3
   8   0  -5 -0.1278  0.1450   2
   8   0  -5 -0.1057  0.4416   1
  -6   0   5 -0.4860  0.3146   3
   6   0  -5 1.52620 0.43338   2
   6   0  -5 0.37088 0.39927   1
   4   0  -5 0.91055 0.39991   1
   4   0  -5 1.22242 0.39668   2
  -4   0   5 0.37472 0.31548   3
   2   0  -5 -0.1847  0.3158   2
  -2   0   5 0.16875 0.34208   3
   2   0  -5 -0.4726  0.3378   1
   0   0   5 -0.9522  0.3819   3
   0   0  -5 -0.4323  0.3791   1
   0   0  -5 -0.8885  0.3222   2
  -2   0  -5 -0.2759  0.3586   1
  -2   0  -5 0.59458 0.37114   2
   2   0   5 -0.1687  0.4206   3
  -4   0  -5 0.33151 0.51140   1
   4   0   5 0.73593 0.55285   3
  -4   0  -5 -1.1956  0.4005   2
  -6   0  -5 0.43131 0.46252   2
   6   0   5 0.79255 0.62649   3
   8   0   5 0.45507 0.57993   3
  -8   0  -5 -0.1072  0.1688   1
 -10   0  -5 0.75403 0.70513   1
  12   0   5 0.87979 0.69487   3
 -12   0  -5 1.15165 0.72759   1
  12   0   5 0.26522 0.55776   2
  14   0   5 0.06342 0.56123   2
 -14   0  -5 -0.5591  0.7186   1
  14   0   5 -0.6277  0.7980   3
  16   0   5 -0.4770  0.5503   2
  16   0   5 -1.1347  0.8413   3
 -16   0  -5 0.35609 0.76191   1
  18   0   5 -1.4844  0.6149   2
 -18   0  -5 -1.9398  0.7748   1
  18   0   5 -1.3349  0.8828   3
 -20   0  -5 -1.8296  0.7972   1
  20   0   5 0.62493 1.05359   3
  20   0   5 -0.6798  0.7091   2
 -22   0  -5 0.46691 0.94153   1
  22   0   5 -0.0985  0.7913   2
  22   0   5 0.31982 1.10948   3
 -24   0  -5 -0.4623  1.1067   1
  24   0   5 1.78963 1.33208   3
  24   0   5 -0.8841  0.8453   2
 -26   0  -5 0.84784 1.36225   1
  26   0   5 0.16834 1.41587   3
  28   0   5 6.63363 1.93544   3
 -28   0  -5 5.32235 1.58019   1
  30   0   5 -0.7736  1.8115   3
 -30   0  -5 4.19722 1.70591   1
 -32   0  -5 4.69449 1.80532   1
  32   0   5 3.52816 1.90533   3
  34   0   5 -0.6767  1.8042   3
 -34   0  -5 -1.7608  1.5281   1
 -36   0  -5 -1.2900  1.6414   1
  36   0   5 -1.9708  2.0034   3
 -38   0  -5 -1.5857  1.6552   1
  38   0   5 -2.3874  1.9938   3
 -40   0  -5 0.31253 1.91979   1
  40   0   5 -0.0860  2.1654   3
  42   0   5 -3.2529  2.2787   3
 -42   0  -5 -3.2129  1.7739   1
 -44   0  -5 -1.6210  2.0048   1
  44   0   5 -0.4460  2.4054   3
  43  -1  -5 1.97346 2.09282   2
  41  -1  -5 -0.8837  1.8035   2
  39  -1  -5 2.43404 1.93673   2
  39   1  -5 1.27640 1.81231   2
  37  -1  -5 7.33902 2.11666   2
  37   1  -5 10.5176  2.2209   2
 -37   1   5 8.40486 2.20167   1
  35  -1  -5 13.5946  2.3883   2
  35   1  -5 10.2456  2.0274   3
 -35   1   5 10.8982  2.2062   1
  35   1  -5 14.7079  2.2817   2
  33  -1  -5 34.0219  3.0593   2
 -33   1   5 38.1365  3.0222   1
  33   1  -5 38.7876  2.8214   3
  33   1  -5 39.4401  2.9195   2
  31  -1  -5 0.91353 1.57759   2
 -31   1   5 3.30318 1.63542   1
  31   1  -5 4.92183 1.50015   3
  31   1  -5 2.20588 1.45295   2
  29  -1  -5 26.3229  2.3122   3
  29  -1  -5 27.0104  2.5467   2
 -29  -1   5 28.2645  2.3514   1
 -29   1   5 31.2055  2.6267   1
  29   1  -5 30.7287  2.4470   2
  29   1  -5 32.7738  2.4461   3
 -27  -1   5 2.10455 1.16883   1
  27  -1  -5 1.52258 1.32658   2
  27  -1  -5 2.13246 1.12580   3
  27   1  -5 -0.7873  0.9073   2
 -27   1   5 1.50713 1.23191   1
  27   1  -5 2.55166 1.21737   3
  25  -1  -5 0.93467 0.93220   3
  25  -1  -5 1.25132 1.04073   2
 -25  -1   5 1.91962 0.97350   1
  25   1  -5 1.62157 1.08270   3
  25   1  -5 1.64571 1.07289   2
 -25   1   5 0.26916 1.06843   1
  23  -1  -5 39.0294  2.1431   3
  23  -1  -5 45.0144  2.5294   2
 -23  -1   5 42.3534  2.2710   1
  23   1  -5 37.6634  2.3834   3
 -23   1   5 39.8518  2.4651   1
  23   1  -5 38.2501  2.3229   2
  21  -1  -5 43.3755  2.4519   2
 -21  -1   5 40.7226  2.1550   1
  21  -1  -5 37.7074  2.0073   3
  21   1  -5 38.9039  2.3392   3
 -21   1   5 38.9943  2.3871   1
  21   1  -5 42.5794  2.3786   2
  19  -1  -5 5.72351 1.15379   2
 -19   1   5 6.39428 1.31280   1
  19   1  -5 6.48481 1.14067   2
  19   1  -5 5.07284 1.09974   3
  17  -1  -5 15.8693  1.5364   2
  17  -1  -5 12.6203  1.0998   3
 -17  -1   5 8.16897 1.06326   1
  17   1  -5 10.2255  1.2753   3
 -17   1   5 9.83687 1.39955   1
  17   1  -5 12.6125  1.2384   2
 -15  -1   5 2.58018 0.72308   1
  15  -1  -5 2.88528 0.55883   3
  15  -1  -5 2.73150 0.85003   2
  15   1  -5 2.89233 0.74077   2
  15   1  -5 0.27581 0.52471   3
 -15   1   5 3.47205 1.00388   1
 -13  -1   5 479.694  13.642   1
  13  -1  -5 467.838  13.604   3
  13   1  -5 363.953  13.928   3
  13   1  -5 483.631  14.241   2
 -13   1   5 360.301  13.810   1
  11  -1  -5 543.167  17.012   1
  11  -1  -5 528.479  16.749   3
 -11  -1   5 531.056  16.718   1
  11   1  -5 549.874  17.434   2
   9  -1  -5 758.498  22.896   3
   9  -1  -5 762.001  23.085   1
   9   1  -5 777.943  22.752   1
   9   1  -5 661.518  23.606   2
   7  -1  -5 137.951   4.782   1
   7  -1  -5 137.568   4.846   2
   7   1  -5 137.902   4.475   1
   5  -1  -5 215.770   7.138   1
   5  -1  -5 220.112   7.245   2
  -5  -1   5 214.924   7.145   3
   5   1  -5 220.616   6.858   1
   3  -1  -5 1056.53   32.10   1
  -3  -1   5 1031.22   32.47   3
   3  -1  -5 1052.01   32.80   2
   3   1  -5 1041.17   31.85   1
   3   1  -5 1035.76   32.99   2
  -3   1   5 1042.63   32.18   3
   1  -1  -5 38.5637  1.5566   2
  -1  -1   5 38.9372  1.6717   3
   1  -1  -5 38.1556  1.6930   1
  -1   1   5 38.2960  1.4654   3
   1   1  -5 37.8151  1.5306   1
   1   1  -5 37.2866  1.7929   2
   1  -1   5 1333.44   41.59   3
  -1  -1  -5 1344.24   42.27   2
  -1   1  -5 1334.54   40.95   1
   1   1   5 1297.24   41.84   3
  -1   1  -5 1381.40   42.20   2
  -3  -1  -5 475.034  15.119   2
   3  -1   5 485.861  15.260   3
  -3   1  -5 473.998  15.015   1
   3   1   5 478.231  15.151   3
  -3   1  -5 486.807  15.513   2
   5  -1   5 20.3630  1.1511   3
  -9  -1  -5 614.568  18.895   1
   9   1   5 609.627  19.098   3
  -9   1  -5 574.695  18.899   1
 -11  -1  -5 5.63766 0.92806   1
  11  -1   5 5.41397 0.91346   3
  11   1   5 4.81276 0.89620   3
  13  -1   5 210.556   7.305   3
 -13  -1  -5 211.077   7.258   1
  13  -1   5 219.876   7.291   2
  13   1   5 210.443   6.847   2
 -13   1  -5 193.750   7.273   1
 -15  -1  -5 119.778   4.560   1
  15  -1   5 120.907   4.617   3
  15  -1   5 124.181   4.535   2
  15   1   5 117.054   4.111   2
  15   1   5 102.785   4.497   3
 -15   1  -5 119.865   4.683   1
  17  -1   5 120.792   4.607   2
 -17  -1  -5 125.140   4.742   1
  17  -1   5 121.528   4.745   3
  17   1   5 108.985   4.171   2
  17   1   5 122.233   4.770   3
 -17   1  -5 113.028   4.759   1
  19  -1   5 69.2991  3.3659   3
 -19  -1  -5 72.6428  3.3094   1
  19  -1   5 68.7021  3.1859   2
  19   1   5 67.3232  2.7991   2
  19   1   5 71.3438  3.3710   3
 -19   1  -5 70.0867  3.4158   1
  21  -1   5 5.30860 1.38867   3
 -21  -1  -5 3.99278 1.16015   1
  21  -1   5 3.40787 1.00473   2
 -21   1  -5 1.85962 1.19289   1
  21   1   5 4.17136 1.31385   3
  21   1   5 4.86077 0.92064   2
 -23  -1  -5 1.75334 1.09518   1
  23  -1   5 1.87540 1.31141   3
  23  -1   5 1.35442 1.02693   2
  23   1   5 0.30219 1.19681   3
 -23   1  -5 -0.1804  1.1288   1
  25  -1   5 21.0707  1.9874   2
  25  -1   5 18.8064  2.2887   3
 -25  -1  -5 19.9830  2.1771   1
 -25   1  -5 23.2440  2.3703   1
  25   1   5 21.7866  2.2644   3
  27  -1   5 2.07714 1.41394   2
  27  -1   5 4.78067 1.78219   3
 -27  -1  -5 2.94020 1.44667   1
  27   1   5 3.59099 1.59676   3
 -27   1  -5 4.70501 1.67749   1
 -29  -1  -5 12.6761  2.0712   1
  29  -1   5 7.61907 2.01604   3
  29   1   5 13.4003  2.1691   3
 -29   1  -5 11.9601  2.1727   1
 -31  -1  -5 4.07859 1.71076   1
  31  -1   5 3.74709 1.90690   3
 -31   1  -5 1.41743 1.66175   1
  31   1   5 1.19141 1.73056   3
 -33  -1  -5 6.81866 1.93736   1
  33  -1   5 11.7690  2.4533   3
 -33   1  -5 7.23938 1.98432   1
  33   1   5 6.28935 2.13559   3
  35  -1   5 3.42782 2.17316   3
 -35  -1  -5 3.03541 1.70901   1
 -35   1  -5 2.18575 1.90607   1
  35   1   5 1.86518 2.05395   3
 -37  -1  -5 -0.4694  1.7850   1
  37  -1   5 2.03325 2.25136   3
  37   1   5 -1.7971  2.0106   3
 -37   1  -5 0.59136 1.74807   1
 -39  -1  -5 2.67373 1.93257   1
  39  -1   5 -2.0438  1.9836   3
  39   1   5 -0.1755  2.0925   3
 -39   1  -5 2.58912 1.96719   1
  41  -1   5 -1.8896  2.1733   3
 -41  -1  -5 -4.7957  1.7209   1
 -41   1  -5 5.60197 2.24339   1
  41   1   5 -2.7416  2.0823   3
  43  -1   5 0.97217 2.17727   3
 -43   1  -5 0.03912 2.05684   1
  43   1   5 -0.2423  2.4142   3
  44  -2  -5 -0.0772  2.0371   2
  42  -2  -5 -1.2435  1.8489   2
  40  -2  -5 2.35463 1.96368   2
 -40   2   5 4.71137 2.11216   1
  38  -2  -5 1.05295 1.90191   2
 -38   2   5 2.12687 1.98125   1
  36  -2  -5 23.1604  2.9595   2
  36   2  -5 23.7593  2.7030   2
  36   2  -5 20.5216  2.6159   3
 -36   2   5 21.0912  2.7809   1
  34  -2  -5 9.24159 2.24029   2
 -34   2   5 12.2689  2.1893   1
  34   2  -5 9.39532 1.93068   3
  34   2  -5 10.6390  2.0201   2
  32  -2  -5 85.1704  4.6211   2
 -32   2   5 82.1576  4.5067   1
  32   2  -5 84.3382  4.2961   2
  32   2  -5 82.0005  4.2743   3
  30  -2  -5 23.0680  2.5997   2
 -30   2   5 20.3430  2.4248   1
  30   2  -5 22.4853  2.1444   2
  30   2  -5 19.1775  2.2248   3
  28  -2  -5 26.2833  2.6493   2
  28   2  -5 22.9100  2.0902   2
 -28   2   5 23.4028  2.5250   1
  28   2  -5 23.7460  2.3923   3
  26  -2  -5 12.0018  1.8942   2
 -26   2   5 9.37390 1.78370   1
  26   2  -5 11.6677  1.6477   2
  26   2  -5 12.7854  1.9102   3
 -24  -2   5 37.8854  2.0437   1
  24  -2  -5 36.6115  2.5774   2
  24  -2  -5 32.5291  2.0655   3
 -24   2   5 32.7990  2.5621   1
  24   2  -5 33.4397  2.5965   3
  24   2  -5 36.7524  2.3362   2
  22  -2  -5 21.6563  1.9029   2
  22   2  -5 19.8141  2.0713   3
  22   2  -5 21.0251  1.7872   2
 -22   2   5 21.6483  2.1818   1
  20  -2  -5 76.7513  3.1176   3
  20  -2  -5 91.6822  3.9172   2
 -20  -2   5 79.6912  3.1189   1
  20   2  -5 81.4025  3.5347   2
  20   2  -5 82.9084  3.8509   3
 -20   2   5 78.1927  3.9053   1
  18  -2  -5 85.8676  3.7903   2
 -18  -2   5 82.6100  3.1373   1
  18  -2  -5 85.0673  3.1187   3
 -18   2   5 78.9808  3.8352   1
  18   2  -5 83.1963  3.5595   2
  18   2  -5 83.4594  3.8387   3
 -16  -2   5 7.22498 0.76069   1
  16  -2  -5 4.65465 1.04849   2
  16  -2  -5 6.16540 0.69206   3
 -16   2   5 6.67548 1.27962   1
  16   2  -5 6.48089 1.19201   3
  16   2  -5 7.85041 1.08007   2
  14  -2  -5 66.0160  2.2598   3
 -14  -2   5 56.9957  2.2644   1
 -14   2   5 64.6347  3.0759   1
  14   2  -5 60.4811  2.7937   2
  12  -2  -5 1067.84   33.57   1
 -12  -2   5 1085.12   32.90   1
  12  -2  -5 1054.23   34.35   2
  12  -2  -5 1098.87   33.30   3
  12   2  -5 1085.68   34.35   2
  10  -2  -5 4.83350 1.02636   1
  10  -2  -5 6.75719 0.89650   2
  10   2  -5 5.29434 0.84725   2
   8  -2  -5 734.622  22.899   1
   8   2  -5 725.713  23.474   2
  -6  -2   5 20.6972  1.4878   3
   6  -2  -5 25.1950  1.5659   1
   6  -2  -5 27.0364  1.3924   2
   6   2  -5 24.9302  0.9270   1
  -4  -2   5 308.947  10.182   3
   4  -2  -5 318.985  10.167   2
   4   2  -5 312.388   9.611   1
  -4   2   5 303.925   9.709   3
   2  -2  -5 341.537  10.619   2
  -2  -2   5 321.860  10.692   3
  -2   2   5 327.295  10.344   3
   2   2  -5 320.830  10.206   1
   0  -2  -5 162.440   5.104   2
   0  -2   5 154.164   5.339   3
   0   2   5 159.711   5.082   3
   0   2  -5 160.335   5.025   1
   0   2  -5 126.688   5.389   2
  -2  -2  -5 1547.02   46.80   2
   2   2   5 1538.85   46.44   3
  -2   2  -5 1527.67   45.80   1
  -2   2  -5 1373.28   47.21   2
  -6   2  -5 38.3296  1.9702   1
   6   2   5 50.6265  2.1031   3
  -8  -2  -5 473.781  15.040   1
   8  -2   5 475.113  15.233   3
   8   2   5 466.637  15.219   3
  -8   2  -5 472.802  15.077   1
 -10  -2  -5 19.1567  1.4541   1
  10  -2   5 19.2554  1.5410   3
 -10   2  -5 16.9284  1.5023   1
  10   2   5 21.6168  1.5333   3
 -12  -2  -5 738.937  23.126   1
  12  -2   5 717.922  23.404   3
 -12   2  -5 746.529  23.279   1
  12   2   5 735.178  23.484   3
  14  -2   5 18.0847  1.6851   2
 -14  -2  -5 16.9886  1.5471   1
  14  -2   5 17.5589  1.6866   3
 -14   2  -5 12.6122  1.5072   1
  14   2   5 19.1783  1.6357   3
  16  -2   5 3.50713 1.07393   3
  16  -2   5 0.01257 1.04099   2
 -16  -2  -5 2.26431 0.99560   1
 -16   2  -5 -0.0789  0.3228   1
  16   2   5 1.11393 0.50507   2
 -18  -2  -5 66.7121  3.2165   1
  18  -2   5 68.6404  3.3185   3
  18  -2   5 67.2521  3.2549   2
  18   2   5 67.2342  2.5289   2
  20  -2   5 0.09730 1.03099   3
 -20  -2  -5 -0.6030  0.8049   1
  20  -2   5 -0.6652  0.9871   2
 -20   2  -5 -1.9073  0.6747   1
  20   2   5 -1.0194  0.4530   3
  22  -2   5 61.6838  3.3037   2
 -22  -2  -5 63.3941  3.2652   1
  22  -2   5 62.2850  3.3541   3
 -22   2  -5 64.8315  3.4757   1
  22   2   5 64.7516  3.3673   3
  24  -2   5 36.2036  2.5954   2
 -24  -2  -5 38.0495  2.6058   1
  24  -2   5 35.6094  2.6919   3
 -24   2  -5 33.8924  2.6876   1
  24   2   5 38.9969  2.6671   3
  26  -2   5 34.5593  2.8318   3
 -26  -2  -5 39.2717  2.7949   1
  26  -2   5 37.7346  2.6885   2
 -26   2  -5 42.6675  3.1003   1
  26   2   5 37.3069  2.7995   3
  28  -2   5 4.05615 1.78845   3
 -28  -2  -5 3.81910 1.52301   1
  28  -2   5 4.85448 1.63601   2
  28   2   5 6.25354 1.75002   3
 -28   2  -5 4.36685 1.75086   1
  30  -2   5 23.6527  2.8835   3
 -30  -2  -5 27.3831  2.7480   1
  30  -2   5 24.6493  2.4570   2
 -30   2  -5 25.8186  2.8609   1
  30   2   5 22.1104  2.6195   3
 -32  -2  -5 4.63906 1.76323   1
  32  -2   5 6.48711 2.10718   3
  32   2   5 5.13945 2.09654   3
 -32   2  -5 8.30325 2.13608   1
  34  -2   5 19.3660  2.7997   3
 -34  -2  -5 18.9798  2.5109   1
 -34   2  -5 14.4898  2.6232   1
  34   2   5 12.8118  2.5090   3
 -36  -2  -5 -0.9306  1.6922   1
  36  -2   5 3.92020 2.22675   3
  36   2   5 -2.1515  2.1490   3
 -36   2  -5 0.14702 2.03889   1
  38  -2   5 5.89247 2.36505   3
 -38  -2  -5 2.06485 2.05274   1
 -38   2  -5 3.36537 2.00884   1
  38   2   5 3.89439 2.31728   3
  40  -2   5 -0.2816  2.0360   3
  40   2   5 -5.2929  1.9759   3
 -40   2  -5 -1.3696  1.7388   1
  42  -2   5 1.54597 2.31362   3
  42   2   5 -4.6819  2.2610   3
 -42   2  -5 -0.6133  1.9918   1
  45  -3  -5 9.92909 2.84219   2
  43  -3  -5 4.97552 2.39876   2
 -43   3   5 0.55864 2.13330   1
  41  -3  -5 4.43827 2.46293   2
 -41   3   5 4.77579 2.31463   1
  39  -3  -5 -1.6192  1.8575   2
 -39   3   5 0.46395 1.95655   1
  39   3  -5 -0.5140  1.9720   3
  37  -3  -5 11.3215  2.5693   2
  37   3  -5 9.41320 2.24425   3
 -37   3   5 11.9757  2.5351   1
  35  -3  -5 -0.2843  1.7034   2
 -35   3   5 3.87716 1.92238   1
  35   3  -5 -0.9559  1.4207   2
  35   3  -5 -0.9682  1.6169   3
  33  -3  -5 65.9127  4.2587   2
  33   3  -5 70.5840  3.8329   2
  33   3  -5 65.9119  4.0279   3
 -33   3   5 67.2769  4.2698   1
  31  -3  -5 25.8950  2.9322   2
  31   3  -5 23.7502  2.6551   3
 -31   3   5 20.5737  2.6857   1
  31   3  -5 23.7243  2.3997   2
  29  -3  -5 60.1931  3.8552   2
 -29   3   5 62.7953  3.8885   1
  29   3  -5 66.4887  3.5191   2
  29   3  -5 63.5623  3.8342   3
  27  -3  -5 26.5760  2.5828   2
  27   3  -5 26.1735  2.7136   3
 -27   3   5 26.9447  2.7269   1
  27   3  -5 24.6122  2.1295   2
  25  -3  -5 53.6055  3.4502   2
  25   3  -5 57.9803  3.4387   3
 -25   3   5 53.4252  3.4431   1
  25   3  -5 59.7897  3.0689   2
  23  -3  -5 65.2318  3.5938   2
  23   3  -5 63.1556  3.0940   2
 -23   3   5 52.8672  3.5144   1
  23   3  -5 64.6234  3.7020   3
  21  -3  -5 81.2283  3.9895   2
  21  -3  -5 71.1857  3.0930   3
 -21   3   5 85.2179  4.3406   1
  21   3  -5 93.2024  3.7767   2
  21   3  -5 88.9301  4.2192   3
 -19  -3   5 68.3035  2.6696   1
  19  -3  -5 80.0601  2.8506   3
 -19   3   5 72.2150  3.8407   1
  19   3  -5 70.8413  3.2630   2
  19   3  -5 74.0807  3.8242   3
 -17  -3   5 49.4490  1.9159   1
  17  -3  -5 49.7443  2.0798   3
  17   3  -5 52.5342  2.6231   2
  17   3  -5 57.6796  3.1719   3
 -17   3   5 51.8491  3.0332   1
  15  -3  -5 196.792   7.100   2
  15  -3  -5 190.653   6.233   3
  15   3  -5 189.296   6.905   2
 -15   3   5 187.568   7.119   1
  13  -3  -5 274.682   9.749   2
  13  -3  -5 285.855   8.938   3
  13   3  -5 282.186   9.695   2
  11  -3  -5 811.032  25.513   1
  11  -3  -5 821.067  26.043   2
  11  -3  -5 798.711  25.024   3
  11   3  -5 798.517  26.041   2
   9  -3  -5 607.707  19.996   2
   9  -3  -5 604.304  19.657   1
   9   3  -5 638.578  20.166   2
   7  -3  -5 1916.76   60.59   2
   7   3  -5 1935.33   60.81   2
  -5  -3   5 4.56107 0.97983   3
   5   3  -5 5.87744 0.49949   1
  -5   3   5 6.16627 0.66092   3
   5   3  -5 7.70830 1.05272   2
  -3  -3   5 102.405   4.024   3
   3  -3  -5 113.134   3.913   2
   3  -3  -5 90.6147  3.9237   1
  -3   3   5 111.217   3.701   3
   3   3  -5 109.082   3.499   1
   1  -3  -5 79.4394  2.9271   2
   1  -3  -5 72.7822  3.0832   1
  -1   3   5 75.5326  2.8805   3
   1   3  -5 79.0180  2.7510   1
  -1  -3  -5 86.7309  3.4422   1
  -1  -3  -5 92.5165  3.2254   2
  -1   3  -5 90.9423  3.7043   2
  -1   3  -5 90.0540  3.2115   1
   1   3   5 84.1052  3.3108   3
  -3  -3  -5 134.374   4.273   2
   3  -3   5 102.105   4.523   3
  -3  -3  -5 125.084   4.529   1
  -3   3  -5 125.567   4.864   2
   3   3   5 129.713   4.524   3
  -3   3  -5 130.693   4.415   1
   5  -3   5 4.30999 0.88956   3
  -5  -3  -5 3.88770 0.78455   1
   5   3   5 3.82620 0.79338   3
  -5   3  -5 6.50023 0.86581   1
   7  -3   5 138.504   5.258   3
  -7  -3  -5 137.608   5.123   1
   7   3   5 143.675   5.245   3
   7   3   5 148.087   4.643   2
  -7   3  -5 145.339   5.164   1
   9  -3   5 360.739  12.163   3
  -9  -3  -5 351.353  11.921   1
   9   3   5 374.457  12.236   3
  -9   3  -5 382.680  12.104   1
 -11  -3  -5 11.3795  1.2940   1
  11  -3   5 9.61333 1.29733   3
  11   3   5 9.75091 1.30457   3
 -11   3  -5 11.6499  1.4276   1
 -13  -3  -5 548.182  17.875   1
  13  -3   5 552.901  18.147   3
 -13   3  -5 568.495  18.092   1
  13   3   5 562.936  18.278   3
  15  -3   5 19.7045  2.1173   2
 -15  -3  -5 27.7503  1.9317   1
  15  -3   5 25.9029  2.0476   3
  15   3   5 23.4443  2.1081   3
 -15   3  -5 19.8568  2.0898   1
  17  -3   5 254.873   9.318   2
  17  -3   5 259.765   9.133   3
 -17  -3  -5 259.133   8.979   1
 -19  -3  -5 1.00495 1.05775   1
  19  -3   5 -0.9431  1.1428   2
  19  -3   5 2.30219 1.14416   3
  19   3   5 -0.2576  0.3268   3
 -19   3  -5 -0.2374  0.3166   1
  21  -3   5 286.935  10.207   2
 -21  -3  -5 287.493   9.824   1
  21  -3   5 292.454  10.036   3
 -21   3  -5 238.336   9.858   1
  21   3   5 291.923  10.126   3
  23  -3   5 3.84455 1.43338   2
 -23  -3  -5 4.54053 1.35177   1
  23  -3   5 4.75285 1.53411   3
  23   3   5 6.00093 1.50785   3
 -23   3  -5 4.28022 1.55114   1
 -25  -3  -5 38.1174  2.7270   1
  25  -3   5 42.4989  3.0469   3
  25  -3   5 42.6943  2.8980   2
  25   3   5 39.3967  2.8938   3
 -25   3  -5 40.6598  3.0152   1
 -27  -3  -5 28.1939  2.5201   1
  27  -3   5 29.5068  2.6446   2
  27  -3   5 31.4840  2.7438   3
  27   3   5 30.4056  2.6678   3
 -27   3  -5 29.0504  2.7515   1
 -29  -3  -5 26.0947  2.6432   1
  29  -3   5 32.3178  2.8305   3
  29  -3   5 28.8487  2.6774   2
  29   3   5 29.6438  2.8011   3
 -29   3  -5 26.5577  2.9165   1
  31  -3   5 21.1576  2.7140   2
 -31  -3  -5 28.1781  2.7227   1
  31  -3   5 27.0761  2.9917   3
  31   3   5 28.0644  3.0209   3
 -31   3  -5 22.1676  2.8700   1
  33  -3   5 22.6693  2.8227   3
  33  -3   5 21.0373  2.8203   2
 -33  -3  -5 16.2931  2.4125   1
  33   3   5 17.5294  2.7489   3
 -33   3  -5 19.0665  2.8548   1
  35  -3   5 13.2578  2.6393   3
  35   3   5 14.9318  2.7499   3
 -35   3  -5 16.1393  2.9198   1
  37  -3   5 7.87019 2.47010   3
 -37   3  -5 5.75985 2.41319   1
  37   3   5 2.01952 2.25896   3
  39  -3   5 3.22274 2.29795   3
  39   3   5 3.20936 2.35233   3
 -39   3  -5 1.00868 2.12871   1
 -41   3  -5 5.84378 2.46027   1
  41   3   5 0.41773 2.49705   3
  44  -4  -5 14.3602  3.1342   2
 -44   4   5 11.5538  2.7473   1
  42  -4  -5 6.58709 2.64318   2
 -42   4   5 5.84118 2.47024   1
  40  -4  -5 8.26150 2.66546   2
 -40   4   5 12.0090  2.7382   1
  40   4  -5 10.9831  2.6471   3
  38  -4  -5 31.5006  3.7920   2
  38   4  -5 24.4452  3.1742   3
 -38   4   5 25.1448  3.4163   1
  36  -4  -5 31.2327  3.6733   2
 -36   4   5 27.4392  3.4515   1
  36   4  -5 34.4701  3.5574   3
  34  -4  -5 43.3037  3.7764   2
  34   4  -5 46.4300  3.7359   3
 -34   4   5 48.3783  3.9129   1
  32  -4  -5 121.726   6.133   2
 -32   4   5 112.419   5.905   1
  32   4  -5 126.326   5.945   3
  32   4  -5 123.598   5.388   2
  30  -4  -5 14.3465  2.4423   2
  30   4  -5 12.5500  2.4094   3
  30   4  -5 12.8611  1.9434   2
 -30   4   5 12.0797  2.4356   1
  28  -4  -5 149.499   6.689   2
  28   4  -5 144.263   6.505   3
 -28   4   5 144.018   6.576   1
  28   4  -5 145.988   5.927   2
  26  -4  -5 4.15843 1.53782   2
 -26   4   5 1.63185 1.53959   1
  26   4  -5 1.84127 1.21033   2
  26   4  -5 0.68872 1.55725   3
  24  -4  -5 102.773   5.035   2
  24   4  -5 116.166   5.302   3
 -24   4   5 93.6447  4.9225   1
  24   4  -5 102.489   4.459   2
  22  -4  -5 109.837   5.147   2
  22   4  -5 116.014   4.740   2
  22   4  -5 112.209   5.295   3
 -22   4   5 116.583   5.346   1
  20   4  -5 88.2397  4.4343   3
 -20   4   5 78.1146  4.3298   1
  20   4  -5 85.8605  3.7905   2
 -18   4   5 29.1217  2.6149   1
  18   4  -5 32.3938  2.1642   2
  18   4  -5 30.7922  2.6365   3
  16  -4  -5 278.387   9.045   3
  16  -4  -5 272.085   9.993   2
 -16   4   5 291.596  10.100   1
  16   4  -5 271.536   9.738   2
  14  -4  -5 31.5035  1.5161   3
  14  -4  -5 25.8862  2.0390   2
  14   4  -5 28.6658  2.0819   2
 -14   4   5 30.6359  2.3663   1
  12  -4  -5 740.943  24.531   2
  12  -4  -5 752.092  23.514   3
  12   4  -5 762.969  24.548   2
  10  -4  -5 313.364  10.754   2
  10   4  -5 308.735  10.806   2
   8  -4  -5 34.1391  2.0205   2
   8  -4  -5 36.8850  2.2669   1
   8   4  -5 40.0976  2.3567   2
   6  -4  -5 902.798  28.682   1
   6  -4  -5 913.646  29.229   2
   6   4  -5 919.476  29.486   2
   4  -4  -5 380.276  12.358   2
   4  -4  -5 361.341  12.233   1
   4   4  -5 378.229  12.709   2
   4   4  -5 365.251  11.565   1
   2  -4  -5 556.574  18.090   1
   2   4  -5 561.650  17.574   1
   2   4  -5 595.423  18.817   2
  -2   4   5 551.090  18.040   3
   0  -4  -5 975.878  30.393   1
   0  -4  -5 968.703  30.866   2
   0  -4   5 982.188  30.888   3
   0   4   5 960.334  30.615   3
   0   4  -5 976.471  30.012   1
  -2  -4  -5 26.0591  1.4917   2
   2  -4   5 26.1366  1.9014   3
  -2  -4  -5 29.2606  1.8134   1
  -2   4  -5 26.5485  1.5474   1
   2   4   5 25.2832  1.7344   3
  -2   4  -5 24.8172  1.8892   2
   4  -4   5 620.204  20.112   3
  -4  -4  -5 619.183  19.721   1
  -4   4  -5 611.411  19.583   1
   4   4   5 635.212  20.028   3
  -6  -4  -5 10.0162  1.2035   1
   6  -4   5 12.1306  1.4215   3
  -6   4  -5 8.69761 1.15560   1
   6   4   5 8.96730 1.25271   3
  -8  -4  -5 338.467  11.359   1
   8  -4   5 337.503  11.639   3
   8   4   5 346.479  11.686   3
   8   4   5 350.295  11.125   2
  -8   4  -5 350.586  11.468   1
  10  -4   5 66.2874  3.2569   3
 -10  -4  -5 69.3390  3.1417   1
  10   4   5 69.0808  2.5126   2
 -10   4  -5 72.6931  3.3267   1
  10   4   5 71.2212  3.3495   3
 -12  -4  -5 79.1923  3.6799   1
  12  -4   5 93.3276  3.9606   3
 -12   4  -5 88.1684  3.9694   1
  12   4   5 86.9008  2.9041   2
  12   4   5 85.9141  3.9793   3
 -14  -4  -5 497.004  16.255   1
  14  -4   5 488.267  16.582   3
 -14   4  -5 514.570  16.579   1
  14   4   5 504.476  16.780   3
  16  -4   5 95.6854  4.2513   3
 -16  -4  -5 94.8965  4.1005   1
  16   4   5 98.5586  4.4707   3
 -16   4  -5 92.5418  4.3575   1
  18  -4   5 188.427   7.092   3
 -18  -4  -5 182.808   6.876   1
  18  -4   5 184.804   7.381   2
 -18   4  -5 185.543   7.200   1
  18   4   5 184.254   7.209   3
  20  -4   5 112.951   5.181   2
 -20  -4  -5 113.540   4.865   1
  20  -4   5 117.502   5.044   3
  20   4   5 116.358   5.158   3
 -20   4  -5 120.184   5.205   1
  22  -4   5 4.43088 1.40782   3
  22  -4   5 7.48772 1.70832   2
 -22  -4  -5 6.07312 1.40603   1
  22   4   5 4.59529 1.50778   3
 -22   4  -5 4.55808 1.45482   1
 -24  -4  -5 2.17560 1.21567   1
  24  -4   5 1.22800 1.27324   3
  24  -4   5 1.69029 1.30822   2
 -24   4  -5 2.18352 1.46907   1
  24   4   5 0.85672 1.36672   3
  26  -4   5 35.2285  2.9851   2
  26  -4   5 41.7054  3.0942   3
 -26  -4  -5 40.9411  2.7982   1
  26   4   5 38.0835  2.9837   3
 -26   4  -5 40.2274  3.0992   1
 -28  -4  -5 4.07646 1.59520   1
  28  -4   5 2.69540 1.69443   3
  28  -4   5 4.44777 1.75200   2
 -28   4  -5 3.69162 1.72496   1
  28   4   5 5.10616 1.75778   3
 -30  -4  -5 54.2966  3.5443   1
  30  -4   5 58.5798  3.9204   3
  30  -4   5 55.2418  3.8216   2
 -30   4  -5 57.6111  3.8552   1
  30   4   5 54.1896  3.7151   3
  32  -4   5 0.38383 1.81219   2
  32  -4   5 -0.6745  1.8301   3
  32   4   5 3.26371 1.97137   3
 -32   4  -5 -1.2867  1.9072   1
  34  -4   5 46.7505  3.8329   2
  34  -4   5 53.9410  4.0986   3
 -34   4  -5 51.1491  4.0047   1
  34   4   5 52.6065  3.9147   3
  36  -4   5 3.85102 2.14439   3
  36   4   5 2.00649 2.33530   3
 -36   4  -5 -0.3627  2.0690   1
  38  -4   5 35.0707  3.7537   3
 -38   4  -5 29.3029  3.5965   1
  38   4   5 28.1555  3.6990   3
  40   4   5 -4.8933  2.0741   3
 -40   4  -5 0.94849 2.08244   1
  43   5  -5 -2.1265  1.9398   3
  41  -5  -5 19.4962  3.4114   2
  41   5  -5 16.2712  3.0327   3
 -41   5   5 12.6243  2.9442   1
  39  -5  -5 -1.6211  2.1842   2
  39   5  -5 2.17972 2.26530   3
 -39   5   5 -0.5318  2.1495   1
  37  -5  -5 59.7606  4.6571   2
  37   5  -5 56.6121  4.2173   3
 -37   5   5 58.0592  4.5308   1
  35  -5  -5 0.15903 2.09534   2
  35   5  -5 -0.2424  1.9431   3
 -35   5   5 -0.3513  1.9776   1
  33  -5  -5 101.457   5.726   2
 -33   5   5 97.9279  5.4990   1
  33   5  -5 90.2644  5.3068   3
  31  -5  -5 38.0559  3.4257   2
  31   5  -5 40.3500  3.5587   3
 -31   5   5 41.5397  3.5448   1
  29  -5  -5 86.1321  4.9584   2
  29   5  -5 83.6422  4.9370   3
 -29   5   5 78.2700  4.7155   1
  29   5  -5 81.6162  4.0438   2
  27  -5  -5 131.876   6.379   2
 -27   5   5 129.999   6.304   1
  27   5  -5 126.986   6.315   3
  27   5  -5 140.964   5.652   2
  25  -5  -5 50.7958  3.5929   2
  25   5  -5 54.1509  3.0148   2
  25   5  -5 51.5231  3.7830   3
 -25   5   5 54.0737  3.7179   1
  23  -5  -5 99.1682  4.9447   2
 -23   5   5 95.8452  5.0504   1
  23   5  -5 99.9695  4.4027   2
  23   5  -5 100.361   5.127   3
  21  -5  -5 55.7537  3.4072   2
  21   5  -5 59.9024  3.7821   3
  21   5  -5 56.1123  3.0552   2
 -21   5   5 55.6617  3.6581   1
  19  -5  -5 5.21797 1.48193   2
  19   5  -5 4.90018 1.24183   2
  19   5  -5 3.94717 1.65636   3
 -19   5   5 4.59629 1.61268   1
  17  -5  -5 224.144   8.430   2
  17   5  -5 213.012   8.066   2
  15  -5  -5 49.4641  2.9527   2
  15   5  -5 45.7708  2.8110   2
  13  -5  -5 133.859   5.631   2
  13  -5  -5 136.623   4.859   3
  13   5  -5 141.261   5.642   2
  11  -5  -5 496.510  16.830   2
  11  -5  -5 507.324  16.588   1
  11   5  -5 493.096  16.830   2
   9  -5  -5 26.7881  1.9810   2
   9  -5  -5 30.4825  2.3108   1
   9   5  -5 26.5937  2.1213   2
   7  -5  -5 1003.87   30.84   1
   7  -5  -5 967.703  31.382   2
   7   5  -5 945.477  29.743   1
   7   5  -5 979.990  31.613   2
   5  -5  -5 30.9931  2.2733   1
   5  -5  -5 37.3716  2.1599   2
   5   5  -5 31.4885  1.5761   1
   5   5  -5 34.1694  2.4663   2
   3  -5  -5 292.623  10.059   1
  -3  -5   5 291.795  10.221   3
   3  -5  -5 288.218  10.033   2
   3   5  -5 306.285  10.554   2
   3   5  -5 284.354   9.381   1
  -1  -5   5 277.465   9.662   3
   1  -5  -5 268.645   9.442   1
   1  -5  -5 281.097   9.444   2
   1   5  -5 279.006   9.979   2
   1   5  -5 267.601   8.946   1
  -1   5   5 271.436   9.354   3
   1  -5   5 393.108  13.063   3
  -1  -5  -5 335.320  12.681   2
  -1  -5  -5 390.370  12.779   1
   1   5   5 388.294  12.849   3
  -1   5  -5 387.075  12.413   1
  -1   5  -5 420.327  13.551   2
   3  -5   5 50.0737  2.7098   3
  -3  -5  -5 43.1261  2.4937   1
  -3   5  -5 43.0732  2.2691   1
   3   5   5 45.3349  2.5460   3
   5  -5   5 144.917   5.745   3
  -5  -5  -5 151.094   5.555   1
  -5   5  -5 140.610   5.414   1
   5   5   5 148.884   5.719   3
  -7  -5  -5 3.27003 1.05072   1
   7  -5   5 3.42429 1.18903   3
  -7   5  -5 4.79919 1.12499   1
   7   5   5 2.60460 0.80852   2
   7   5   5 4.41834 1.15324   3
   9  -5   5 520.727  17.407   3
  -9  -5  -5 522.858  16.976   1
   9   5   5 534.305  17.489   3
  -9   5  -5 518.933  17.065   1
   9   5   5 524.875  16.888   2
 -11  -5  -5 102.591   4.222   1
  11  -5   5 94.1924  4.3706   3
  11   5   5 96.5780  4.4625   3
  11   5   5 92.2414  3.5741   2
 -11   5  -5 104.857   4.350   1
 -13  -5  -5 678.310  21.566   1
  13  -5   5 657.182  22.012   3
 -13   5  -5 681.324  21.852   1
  13   5   5 675.046  22.226   3
  15  -5   5 128.182   5.430   3
 -15  -5  -5 131.938   5.167   1
  15   5   5 128.338   5.588   3
 -15   5  -5 124.274   5.405   1
  17  -5   5 242.205   9.033   3
 -17  -5  -5 248.197   8.772   1
 -17   5  -5 248.038   9.166   1
  17   5   5 246.920   9.294   3
 -19  -5  -5 0.81599 1.09935   1
  19  -5   5 0.31696 1.11986   3
 -19   5  -5 -0.0001  1.2665   1
  19   5   5 0.87039 1.36559   3
  21  -5   5 102.413   4.834   3
 -21  -5  -5 109.761   4.667   1
  21   5   5 106.755   5.091   3
 -21   5  -5 105.317   5.079   1
 -23  -5  -5 4.67568 1.39468   1
  23  -5   5 4.17888 1.70809   2
  23  -5   5 5.12470 1.61986   3
  23   5   5 2.49701 1.57800   3
 -23   5  -5 0.67590 1.50725   1
 -25  -5  -5 47.2418  3.0502   1
  25  -5   5 49.7443  3.3602   3
  25  -5   5 46.5112  3.4938   2
 -25   5  -5 49.0986  3.4811   1
  25   5   5 52.7810  3.5167   3
  27  -5   5 6.63458 2.01589   2
  27  -5   5 3.00638 1.56455   3
  27   5   5 1.23498 1.78093   3
 -27   5  -5 5.90347 1.86689   1
  29  -5   5 27.7692  3.1917   2
  29  -5   5 23.1945  2.8675   3
 -29   5  -5 20.4781  2.7860   1
  29   5   5 22.1898  2.8395   3
  31  -5   5 33.7687  3.3806   2
  31  -5   5 36.7160  3.3371   3
 -31   5  -5 29.7711  3.3186   1
  31   5   5 35.5598  3.2750   3
  33  -5   5 29.4711  3.5593   2
  33  -5   5 27.5908  3.2371   3
 -33   5  -5 29.1767  3.4115   1
  33   5   5 31.7971  3.4008   3
  35  -5   5 32.2199  3.7650   2
  35  -5   5 35.0599  3.7034   3
  35   5   5 36.1044  3.5082   3
 -35   5  -5 39.7351  3.6922   1
  37   5   5 22.3073  3.2979   3
 -37   5  -5 21.4845  3.3908   1
  39   5   5 11.1156  3.0200   3
 -39   5  -5 9.75817 2.84759   1
  40  -6  -5 17.7472  3.4899   2
  40   6  -5 19.0107  3.2671   3
 -40   6   5 19.1459  3.3005   1
  38  -6  -5 5.49400 2.65966   2
  38   6  -5 4.15545 2.37055   3
 -38   6   5 6.43765 2.64840   1
  36  -6  -5 24.6286  3.6778   2
  36   6  -5 25.8495  3.5473   3
 -36   6   5 22.8935  3.3901   1
  34  -6  -5 14.1928  2.9012   2
 -34   6   5 17.0584  3.1277   1
  34   6  -5 19.4372  3.1808   3
  32  -6  -5 72.9864  4.8235   2
  32   6  -5 75.5093  4.9598   3
 -32   6   5 68.2295  4.7156   1
  30  -6  -5 15.8486  2.8930   2
 -30   6   5 18.9486  2.8840   1
  30   6  -5 20.2148  3.0597   3
  28  -6  -5 142.532   7.044   2
  28   6  -5 154.497   6.262   2
  28   6  -5 154.216   7.227   3
 -28   6   5 149.251   7.133   1
  26  -6  -5 3.09048 1.77403   2
  26   6  -5 1.05945 2.01828   3
  26   6  -5 1.71621 1.33507   2
 -26   6   5 1.99078 1.84814   1
  24  -6  -5 157.549   7.227   2
  24   6  -5 163.919   6.510   2
 -24   6   5 164.234   7.314   1
  24   6  -5 166.648   7.443   3
  22  -6  -5 23.8762  2.8571   2
  22   6  -5 28.3804  2.3175   2
  22   6  -5 24.7830  3.0643   3
 -22   6   5 28.7629  3.0239   1
  20  -6  -5 111.718   5.479   2
  20   6  -5 111.364   4.921   2
 -20   6   5 110.899   5.558   1
  20   6  -5 113.908   5.705   3
  18  -6  -5 1.76881 1.44184   2
  18   6  -5 3.02044 1.20891   2
 -18   6   5 4.16927 1.60975   1
  16  -6  -5 116.788   5.381   2
  16   6  -5 122.422   5.245   2
 -16   6   5 119.100   5.584   1
  14  -6  -5 6.41703 1.59000   2
  14   6  -5 10.2908  1.6976   2
 -14   6   5 8.79404 1.86214   1
  12  -6  -5 624.337  20.970   2
  12   6  -5 622.156  20.901   2
  10  -6  -5 112.174   5.194   1
  10  -6  -5 123.529   5.229   2
  10   6  -5 116.608   5.176   2
   8  -6  -5 840.973  26.476   1
   8  -6  -5 822.070  26.934   2
   8   6  -5 802.900  27.072   2
   6  -6  -5 35.3684  2.3898   2
   6  -6  -5 40.9824  2.7499   1
   6   6  -5 27.2679  1.6696   1
   6   6  -5 38.4037  2.7785   2
   4  -6  -5 367.248  12.621   1
   4  -6  -5 373.545  12.755   2
   4   6  -5 370.505  11.874   1
   4   6  -5 372.524  13.151   2
   2  -6  -5 216.607   7.780   2
   2  -6  -5 217.838   7.854   1
  -2  -6   5 212.933   7.971   3
   2   6  -5 203.451   7.196   1
   2   6  -5 217.674   8.342   2
   0  -6   5 160.171   6.389   3
   0  -6  -5 154.893   6.147   1
   0   6   5 158.747   6.150   3
   0   6  -5 164.685   6.693   2
   0   6  -5 162.706   5.752   1
  -2  -6  -5 170.228   6.650   1
   2  -6   5 175.748   6.933   3
   2   6   5 182.139   6.851   3
  -2   6  -5 180.035   6.399   1
  -2   6  -5 190.868   7.423   2
   4  -6   5 241.032   8.924   3
  -4  -6  -5 245.124   8.637   1
   4   6   5 245.305   8.881   3
  -4   6  -5 242.320   8.426   1
   6  -6   5 89.6738  4.3707   3
  -6  -6  -5 93.3186  4.0986   1
  -6   6  -5 96.4837  4.0525   1
   6   6   5 91.4815  3.9382   2
   6   6   5 94.5385  4.3424   3
   8  -6   5 283.773  10.346   3
  -8  -6  -5 284.856   9.967   1
  -8   6  -5 287.728  10.048   1
   8   6   5 297.889  10.455   3
   8   6   5 286.959   9.853   2
 -10  -6  -5 262.861   9.088   1
  10  -6   5 254.384   9.408   3
  10   6   5 253.845   9.509   3
 -10   6  -5 254.692   9.227   1
  12  -6   5 211.060   8.152   3
 -12  -6  -5 211.326   7.780   1
 -12   6  -5 219.781   8.075   1
  12   6   5 210.668   8.269   3
  14  -6   5 223.096   8.505   3
 -14  -6  -5 232.268   8.176   1
  14   6   5 223.134   8.682   3
 -14   6  -5 218.660   8.390   1
  16  -6   5 86.0580  4.3237   3
 -16  -6  -5 86.3042  4.0481   1
  16   6   5 82.9608  4.4354   3
 -16   6  -5 88.7619  4.4521   1
 -18  -6  -5 98.8381  4.4005   1
  18  -6   5 100.321   4.708   3
  18   6   5 94.7109  4.9109   3
 -18   6  -5 96.2102  4.7773   1
  20  -6   5 21.9136  2.4896   3
 -20  -6  -5 20.7208  2.2279   1
 -20   6  -5 19.3243  2.5476   1
  20   6   5 20.9211  2.6237   3
  22  -6   5 110.476   5.281   3
 -22  -6  -5 117.811   5.062   1
 -22   6  -5 104.419   5.357   1
  22   6   5 109.570   5.501   3
  24  -6   5 21.4904  2.6247   3
  24   6   5 19.2235  2.7280   3
 -24   6  -5 23.6460  2.8418   1
  26  -6   5 48.4487  3.4137   3
  26   6   5 47.9149  3.5983   3
 -26   6  -5 48.1398  3.5934   1
  28  -6   5 6.12756 2.06387   3
  28   6   5 4.89402 2.09522   3
 -28   6  -5 7.07723 2.13005   1
  30  -6   5 37.7426  3.4879   3
 -30   6  -5 42.2991  3.5851   1
  30   6   5 38.7126  3.5169   3
  32  -6   5 2.27388 2.04872   3
  32   6   5 4.19557 2.18504   3
 -32   6  -5 1.94027 2.01745   1
 -34   6  -5 63.0496  4.6499   1
  34   6   5 63.9960  4.5063   3
  36   6   5 -0.7230  2.1178   3
 -36   6  -5 -1.0534  2.1414   1
  37  -7  -5 27.5040  3.9800   2
  37   7  -5 26.7102  3.7458   3
 -37   7   5 28.6187  3.8463   1
  35  -7  -5 4.26171 2.53988   2
 -35   7   5 2.01134 2.33308   1
  35   7  -5 2.85971 2.34676   3
  33  -7  -5 59.1218  4.7889   2
 -33   7   5 61.8074  4.6412   1
  33   7  -5 59.6384  4.6529   3
  31  -7  -5 8.16957 2.60912   2
  31   7  -5 12.0226  2.9023   3
 -31   7   5 8.36720 2.50817   1
  29  -7  -5 52.7625  4.3030   2
  29   7  -5 61.8629  4.6293   3
 -29   7   5 66.4758  4.4731   1
  27  -7  -5 18.3209  2.9727   2
 -27   7   5 17.6386  2.8741   1
  27   7  -5 21.9744  3.1894   3
  25  -7  -5 33.8748  3.3319   2
  25   7  -5 41.0427  2.8114   2
 -25   7   5 36.5028  3.3456   1
  25   7  -5 40.9228  3.5987   3
  23  -7  -5 20.2442  2.8262   2
  23   7  -5 20.9494  2.2706   2
 -23   7   5 20.6588  2.8302   1
  23   7  -5 25.5672  3.2643   3
  21  -7  -5 32.5588  3.1411   2
  21   7  -5 37.8966  2.7145   2
 -21   7   5 40.5718  3.3700   1
  21   7  -5 33.6407  3.5915   3
  19  -7  -5 59.9166  3.9285   2
  19   7  -5 56.4346  3.3842   2
  19   7  -5 57.1455  4.1339   3
 -19   7   5 55.6702  4.1143   1
  17  -7  -5 108.227   5.466   2
  17   7  -5 114.218   5.265   2
 -17   7   5 120.406   6.028   1
  15  -7  -5 169.567   7.242   2
  15   7  -5 170.689   7.081   2
 -15   7   5 178.537   7.609   1
  13  -7  -5 129.310   5.953   2
  13   7  -5 134.744   5.891   2
 -13   7   5 131.111   6.124   1
  11  -7  -5 309.386  11.610   2
  11   7  -5 328.468  11.745   2
   9  -7  -5 141.131   6.052   2
   9  -7  -5 143.867   6.213   1
   9   7  -5 141.502   6.207   2
   7  -7  -5 435.088  14.767   1
   7  -7  -5 424.124  14.898   2
   7   7  -5 428.818  15.180   2
   5  -7  -5 53.1283  3.1389   2
   5  -7  -5 56.3292  3.3910   1
   5   7  -5 51.2128  3.3574   2
   3  -7  -5 113.911   4.998   1
   3  -7  -5 120.277   4.950   2
   3   7  -5 115.785   5.329   2
   3   7  -5 100.892   4.226   1
  -1  -7   5 17.0683  2.1674   3
   1  -7  -5 21.5969  2.2347   1
   1   7  -5 20.5678  2.3968   2
   1   7  -5 17.5222  1.6420   1
   1  -7   5 52.4163  3.2825   3
  -1  -7  -5 50.2823  2.9800   1
  -1   7  -5 51.4457  2.6791   1
   1   7   5 53.6611  3.1052   3
  -1   7  -5 56.1085  3.4886   2
   3  -7   5 37.3066  2.7643   3
  -3  -7  -5 34.0417  2.5392   1
  -3   7  -5 42.7599  2.4600   1
   3   7   5 37.5649  2.7255   3
  -3   7  -5 44.4754  3.2259   2
   5  -7   5 135.407   5.985   3
  -5  -7  -5 145.596   5.773   1
   5   7   5 144.238   6.013   3
  -5   7  -5 143.265   5.620   1
   7  -7   5 29.4725  2.6538   3
  -7  -7  -5 31.1784  2.5088   1
   7   7   5 33.4055  2.8966   3
   7   7   5 31.7302  2.3796   2
  -7   7  -5 33.6717  2.4758   1
  -9  -7  -5 382.200  12.860   1
   9  -7   5 373.148  13.303   3
   9   7   5 384.532  13.450   3
  -9   7  -5 367.160  12.920   1
 -11  -7  -5 18.7019  2.1021   1
  11  -7   5 18.4648  2.3474   3
  11   7   5 17.7597  2.4390   3
 -11   7  -5 18.7842  2.2566   1
 -13  -7  -5 245.929   8.894   1
  13  -7   5 245.103   9.354   3
  13   7   5 246.590   9.580   3
 -13   7  -5 245.713   9.229   1
  15  -7   5 12.1987  2.1072   3
 -15  -7  -5 16.2037  2.0173   1
 -15   7  -5 12.2433  2.0249   1
  15   7   5 15.9985  2.3043   3
  17  -7   5 110.458   5.338   3
 -17  -7  -5 117.694   5.044   1
 -17   7  -5 113.580   5.358   1
  17   7   5 108.611   5.523   3
  19  -7   5 61.7418  3.7726   3
 -19   7  -5 51.8580  3.7661   1
  19   7   5 55.3711  3.8625   3
  21  -7   5 82.6021  4.5149   3
  21   7   5 78.8883  4.6824   3
 -21   7  -5 76.1936  4.6109   1
  23  -7   5 29.2325  3.0598   3
  23   7   5 26.6299  3.1869   3
 -23   7  -5 27.3828  3.1718   1
  25  -7   5 54.0661  3.6868   3
 -25   7  -5 48.3665  3.7539   1
  25   7   5 47.5437  3.8128   3
  27  -7   5 -0.6381  1.7452   3
  27   7   5 0.56308 1.89487   3
 -27   7  -5 3.65375 1.94787   1
  29  -7   5 49.5192  3.9435   3
 -29   7  -5 53.1054  4.2051   1
  29   7   5 50.5104  3.9917   3
 -31   7  -5 21.4180  3.1576   1
  31   7   5 10.7327  2.6975   3
 -33   7  -5 18.8810  3.1893   1
  33   7   5 12.8004  2.9270   3
 -35   7  -5 17.5909  3.0972   1
  35   7   5 23.1295  3.4175   3
  34  -8  -5 9.08381 2.86196   2
  34   8  -5 13.9213  3.2225   3
 -34   8   5 10.5777  3.1321   1
  32  -8  -5 43.0886  4.3586   2
 -32   8   5 50.7643  4.3881   1
  32   8  -5 53.6430  4.7102   3
  30  -8  -5 5.46297 2.28611   2
  30   8  -5 9.59839 2.82556   3
 -30   8   5 4.22001 2.29817   1
  28  -8  -5 58.4002  4.5802   2
  28   8  -5 58.3765  4.6582   3
 -28   8   5 68.9202  4.7131   1
  26  -8  -5 0.55524 1.70975   2
  26   8  -5 0.83606 2.09264   3
 -26   8   5 2.07980 1.91518   1
  24  -8  -5 26.2754  3.3683   2
  24   8  -5 34.7488  3.7853   3
 -24   8   5 27.9841  3.3257   1
  22  -8  -5 -0.3969  1.4411   2
 -22   8   5 2.29000 1.81718   1
  22   8  -5 -0.2859  1.2259   2
  22   8  -5 -0.0109  1.8233   3
  20  -8  -5 30.4461  2.9773   2
  20   8  -5 29.9791  3.5386   3
 -20   8   5 35.4183  3.6242   1
  20   8  -5 31.5030  2.6381   2
  18  -8  -5 0.48201 1.60641   2
  18   8  -5 -0.1396  1.2943   2
 -18   8   5 -1.7505  1.7190   1
  16  -8  -5 136.349   6.612   2
 -16   8   5 144.955   6.955   1
  16   8  -5 143.054   6.316   2
  14  -8  -5 7.61368 2.02368   2
 -14   8   5 -0.0615  2.0170   1
  14   8  -5 6.21489 1.85764   2
  12  -8  -5 356.654  13.221   2
  12   8  -5 338.252  13.017   2
 -12   8   5 382.807  13.364   1
  10  -8  -5 33.8307  2.8648   2
  10   8  -5 33.9924  3.0532   2
   8  -8  -5 326.865  11.945   2
   8  -8  -5 315.084  11.692   1
   8   8  -5 324.441  12.105   2
   6  -8  -5 55.0094  3.4757   1
   6  -8  -5 56.0894  3.4624   2
   6   8  -5 56.5190  3.7869   2
   4  -8  -5 106.213   5.028   1
   4   8  -5 107.202   5.438   2
   2  -8  -5 3.44205 1.50411   1
   2   8  -5 3.22301 1.73806   2
   0  -8  -5 4.15646 1.50739   1
   0   8  -5 2.57630 1.64259   2
   0   8   5 3.44119 1.43390   3
   2  -8   5 7.48353 1.95304   3
  -2  -8  -5 6.41758 1.62733   1
  -2   8  -5 10.1115  2.1721   2
   2   8   5 5.73965 1.61302   3
  -2   8  -5 8.40225 1.54710   1
  -4  -8  -5 73.3826  3.9886   1
   4  -8   5 74.1924  4.2288   3
   4   8   5 79.0254  4.3413   3
  -4   8  -5 76.7342  3.8241   1
  -4   8  -5 72.6580  4.4857   2
  -6  -8  -5 79.4207  4.0836   1
   6  -8   5 74.8265  4.3218   3
  -6   8  -5 74.3923  3.9048   1
   6   8   5 85.8278  4.5867   3
   8  -8   5 231.908   9.095   3
  -8  -8  -5 229.335   8.617   1
  -8   8  -5 227.540   8.654   1
   8   8   5 236.154   9.222   3
  10  -8   5 168.296   7.272   3
 -10  -8  -5 178.245   6.929   1
 -10   8  -5 172.727   7.029   1
  10   8   5 170.698   7.411   3
 -12  -8  -5 50.3789  3.2107   1
  12  -8   5 44.4772  3.3717   3
 -12   8  -5 57.2362  3.5770   1
  12   8   5 55.4477  3.7244   3
  14  -8   5 106.743   5.309   3
 -14   8  -5 104.470   5.155   1
  14   8   5 111.475   5.616   3
  16  -8   5 6.42186 1.92132   3
  16   8   5 5.02111 1.92100   3
 -16   8  -5 4.50295 1.84904   1
  18  -8   5 51.7540  3.6262   3
 -18   8  -5 52.4730  3.7451   1
  18   8   5 47.3278  3.8537   3
  20  -8   5 5.72114 1.85671   3
 -20   8  -5 5.28516 1.98600   1
  20   8   5 4.48763 2.13128   3
  22  -8   5 29.8018  2.9003   3
  22   8   5 31.0598  3.5224   3
 -22   8  -5 30.8223  3.2976   1
  24  -8   5 16.0370  2.6194   3
 -24   8  -5 14.5880  2.6178   1
  24   8   5 13.1944  2.7232   3
  26  -8   5 34.7711  3.4358   3
  26   8   5 38.0338  3.6310   3
 -26   8  -5 36.1238  3.8120   1
 -28   8  -5 10.8201  2.7054   1
  28   8   5 11.1234  2.7274   3
 -30   8  -5 39.3769  3.8289   1
  30   8   5 40.3654  4.2044   3
 -32   8  -5 2.47090 2.20660   1
  32   8   5 1.86362 2.35880   3
  31  -9  -5 10.5641  3.0142   2
  31   9  -5 11.1951  3.1109   3
 -31   9   5 10.7930  2.9274   1
  29  -9  -5 22.0777  3.5661   2
  29   9  -5 22.9501  3.6711   3
 -29   9   5 21.1552  3.3850   1
  27  -9  -5 26.9423  3.7093   2
 -27   9   5 24.1853  3.4811   1
  27   9  -5 24.2910  3.7021   3
  25  -9  -5 19.7679  3.2737   2
  25   9  -5 22.2335  3.4081   3
 -25   9   5 19.0269  3.0915   1
  23  -9  -5 31.7338  3.6903   2
 -23   9   5 29.0038  3.6260   1
  23   9  -5 30.0035  3.8503   3
  21  -9  -5 18.4520  2.9208   2
  21   9  -5 14.8237  2.9304   3
 -21   9   5 13.6668  2.8412   1
  19  -9  -5 6.46344 2.14011   2
 -19   9   5 6.35740 2.24370   1
  19   9  -5 6.76594 2.43364   3
  19   9  -5 8.36345 1.91710   2
  17  -9  -5 30.5367  3.3858   2
 -17   9   5 26.0882  3.3792   1
  17   9  -5 27.3715  2.9310   2
  15  -9  -5 31.1115  2.9994   2
  15   9  -5 28.3322  3.0389   2
 -15   9   5 31.9827  3.5688   1
  13  -9  -5 26.7556  3.0733   2
 -13   9   5 28.1323  3.3607   1
  13   9  -5 24.4295  2.9021   2
  11  -9  -5 69.6440  4.4671   2
  11   9  -5 74.3331  4.5050   2
 -11   9   5 81.3682  4.8316   1
   9   9  -5 12.3300  2.2916   2
  -9   9   5 9.93672 2.36109   1
   7   9  -5 80.5236  4.7584   2
   5  -9  -5 -0.3589  1.5135   1
   5   9  -5 -1.1911  1.4309   2
   3  -9  -5 128.734   6.010   1
   3   9  -5 140.397   6.686   2
   1  -9  -5 11.6760  2.1486   1
   1   9  -5 8.15648 2.20167   2
  -1   9   5 6.53475 1.95392   3
  -1  -9  -5 158.129   6.661   1
  -1   9  -5 164.079   7.494   2
   1   9   5 147.100   6.821   3
  -3  -9  -5 27.4906  2.8642   1
  -3   9  -5 36.0392  3.8951   2
   3   9   5 30.0653  3.2057   3
  -5  -9  -5 112.000   5.213   1
   5  -9   5 100.621   5.421   3
  -5   9  -5 102.248   6.000   2
   5   9   5 106.295   5.509   3
  -5   9  -5 107.496   4.962   1
  -7  -9  -5 20.4891  2.5306   1
   7  -9   5 15.1859  2.5128   3
  -7   9  -5 13.9505  2.9190   2
   7   9   5 15.6379  2.5875   3
  -7   9  -5 19.4054  2.4248   1
   9  -9   5 108.888   5.568   3
  -9   9  -5 112.347   5.328   1
   9   9   5 113.841   5.825   3
  11  -9   5 19.6871  2.6752   3
 -11   9  -5 18.1599  2.6483   1
  11   9   5 17.6541  2.8372   3
  13  -9   5 80.6740  4.6669   3
 -13   9  -5 86.8632  4.7316   1
  13   9   5 82.6563  5.0272   3
  15  -9   5 30.6140  3.2258   3
 -15   9  -5 30.6156  3.2242   1
  15   9   5 25.1033  3.2585   3
  17  -9   5 32.4889  3.3370   3
 -17   9  -5 25.7673  3.0973   1
  17   9   5 30.6223  3.5367   3
  19  -9   5 4.34647 1.79944   3
 -19   9  -5 2.77670 1.92604   1
  19   9   5 2.54602 2.03424   3
  21  -9   5 26.2101  3.1544   3
  21   9   5 24.9440  3.4407   3
 -21   9  -5 26.5178  3.2250   1
  23  -9   5 -2.9112  1.7020   3
 -23   9  -5 2.02695 1.91899   1
  23   9   5 0.53686 1.96456   3
  25   9   5 29.2255  3.6831   3
 -25   9  -5 27.5778  3.4926   1
 -27   9  -5 4.82436 2.27226   1
  27   9   5 7.72813 2.56407   3
  29   9   5 15.1702  3.1925   3
 -29   9  -5 15.0143  3.0647   1
  28 -10  -5 24.3171  3.8691   2
 -28  10   5 19.4274  3.5502   1
  28  10  -5 23.6884  3.9308   3
  26 -10  -5 3.25957 2.22386   2
 -26  10   5 4.35892 2.50803   1
  26  10  -5 2.28688 2.48182   3
  24 -10  -5 25.7921  3.7289   2
  24  10  -5 23.5009  3.7206   3
 -24  10   5 26.5834  3.7033   1
  22 -10  -5 5.56847 2.33397   2
 -22  10   5 0.02116 2.09626   1
  22  10  -5 3.50638 2.47656   3
  20 -10  -5 22.8883  3.3923   2
 -20  10   5 18.5787  3.3304   1
  20  10  -5 23.6779  3.5748   3
  18 -10  -5 9.23820 2.41366   2
  18  10  -5 4.45929 2.37092   3
 -18  10   5 1.29840 2.04844   1
  16  10  -5 8.90624 2.13579   2
 -16  10   5 9.50310 2.62614   1
  14  10  -5 3.13060 1.83204   2
 -14  10   5 0.12010 1.77168   1
 -12  10   5 28.4789  3.3852   1
  12  10  -5 26.1526  3.1997   2
 -10  10   5 16.6497  2.7520   1
  10  10  -5 21.3199  2.9579   2
   8  10  -5 29.5031  3.4304   2
  -8  10   5 32.2364  3.4409   1
  -6  10   5 33.5191  3.5712   1
   6  10  -5 42.4565  3.7085   2
   4  10  -5 47.9585  4.0652   2
   2 -10  -5 13.8446  2.5194   1
   2  10  -5 14.0740  2.7302   2
   0 -10  -5 51.4929  3.6736   1
   0  10   5 48.3704  3.8684   3
   0  10  -5 55.9525  4.3741   2
  -2 -10  -5 1.24459 1.71596   1
   2  10   5 4.89084 2.12196   3
  -2  10  -5 0.69555 1.88461   2
  -4  10  -5 26.3583  3.6150   2
   4  10   5 28.7535  3.3588   3
  -6  10  -5 -0.5235  2.1862   2
   6  10   5 4.46637 1.92687   3
   8 -10   5 14.4690  2.6302   3
   8  10   5 15.8573  2.7618   3
  -8  10  -5 12.2920  3.0116   2
  10 -10   5 35.4901  3.2833   3
 -10  10  -5 25.5204  3.8453   2
  10  10   5 31.4618  3.5899   3
  12 -10   5 14.8194  2.7169   3
 -12  10  -5 14.2729  2.5393   1
  12  10   5 13.1556  2.7198   3
  14 -10   5 64.3881  4.3065   3
  14  10   5 57.4447  4.5539   3
 -14  10  -5 65.0619  4.4502   1
  16 -10   5 2.72116 2.11068   3
 -16  10  -5 1.07984 2.07764   1
  16  10   5 2.68230 2.28650   3
  18 -10   5 19.0618  2.9481   3
 -18  10  -5 20.8537  3.0645   1
  18  10   5 20.5046  3.2664   3
  20  10   5 2.74732 2.28547   3
 -20  10  -5 2.42199 2.03730   1
 -22  10  -5 5.44498 2.24354   1
  22  10   5 5.85901 2.47382   3
 -24  10  -5 0.49830 2.09127   1
  24  10   5 2.80708 2.27242   3
 -26  10  -5 3.45196 2.42583   1
  26  10   5 3.90084 2.48314   3
 -23  11   5 1.59750 2.38117   1
 -21  11   5 15.9745  3.3783   1
  21  11  -5 16.5328  3.4832   3
 -19  11   5 1.54906 2.42315   1
  19  11  -5 4.22033 2.56737   3
 -17  11   5 6.91842 2.67775   1
  17  11  -5 11.4781  2.9261   3
 -15  11   5 0.73519 1.91900   1
 -13  11   5 6.42401 2.32084   1
  13  11  -5 8.98543 2.24660   2
 -11  11   5 13.1774  2.7512   1
  -9  11   5 -0.1600  1.9969   1
   9  11  -5 0.46138 1.85592   2
  -7  11   5 25.1529  3.3886   1
   7  11  -5 25.2517  3.4600   2
   5  11  -5 20.4831  3.2158   2
  -5  11   5 11.1694  2.5854   1
   3  11  -5 18.8045  3.1726   2
  -3  11   5 11.9502  2.8369   1
   1  11  -5 3.89574 2.09225   2
  -1  11  -5 15.4002  2.9788   2
  -3  11  -5 12.6033  3.0095   2
   5  11   5 9.44570 2.56947   3
  -5  11  -5 9.51507 2.93562   2
  -7  11  -5 6.29374 2.77069   2
   7  11   5 7.60962 2.44365   3
   9  11   5 12.7198  2.7507   3
  -9  11  -5 11.5768  3.1154   2
  11  11   5 0.32464 2.00086   3
 -11  11  -5 -0.8783  2.3331   2
  13 -11   5 7.67867 2.40195   3
  13  11   5 12.6187  2.9306   3
 -13  11  -5 6.60179 2.97141   2
  15 -11   5 6.24692 2.44535   3
  15  11   5 5.13253 2.70001   3
 -17  11  -5 5.73371 2.40891   1
  17  11   5 5.45188 2.72206   3
  19  11   5 0.36647 2.47775   3
 -19  11  -5 1.35865 2.17875   1
 -21  11  -5 3.05121 2.27353   1
  21  11   5 0.50698 2.44536   3
 -23  11  -5 -1.0216  2.2174   1
 -18  12   5 6.87868 2.93398   1
 -16  12   5 6.62571 2.77854   1
 -14  12   5 1.99179 2.37033   1
 -12  12   5 6.50500 2.62068   1
  10  12  -5 5.24576 2.31605   2
 -10  12   5 4.36637 2.33585   1
   8  12  -5 6.12651 2.54504   2
  -8  12   5 4.95059 2.34324   1
   6  12  -5 3.95730 2.33596   2
   4  12  -5 4.30065 2.43628   2
   2  12  -5 -1.2525  2.1319   2
   0  12  -5 3.24451 2.37405   2
  -2  12  -5 -0.0511  2.1311   2
  -4  12  -5 3.61276 2.47119   2
  -6  12  -5 4.63227 2.69501   2
   8  12   5 4.87203 2.47721   3
  -8  12  -5 1.28612 2.46803   2
  10  12   5 2.78254 2.41635   3
 -10  12  -5 0.38721 2.61505   2
  12  12   5 6.59647 2.56360   3
 -12  12  -5 3.09918 2.66107   2
  14  12   5 8.14248 2.89414   3
  16  12   5 3.96760 2.61636   3
   5  13  -5 -0.5922  2.1445   2
   3  13  -5 -0.5806  2.0678   2
   1  13  -5 0.80703 2.15767   2
  -1  13  -5 1.47782 2.40044   2
  42   0  -6 14.4047  2.7233   2
  40   0  -6 6.67275 2.22971   2
  38   0  -6 102.287   5.404   2
  36   0  -6 -0.2336  1.6101   2
  34   0  -6 249.508   9.767   2
  32   0  -6 20.4010  2.3638   2
 -32   0   6 18.8479  2.2415   1
  30   0  -6 360.842  13.072   2
  30   0  -6 366.837  12.512   3
 -30   0   6 373.190  12.707   1
  28   0  -6 14.8347  1.6878   3
 -28   0   6 13.0439  1.8521   1
  28   0  -6 11.7305  1.8175   2
  26   0  -6 244.855   8.537   3
  26   0  -6 243.003   9.011   2
 -26   0   6 242.837   8.719   1
  24   0  -6 18.1334  1.6388   3
  24   0  -6 16.8051  1.8377   2
 -24   0   6 14.4834  1.6923   1
  22   0  -6 75.2579  3.5334   2
 -22   0   6 72.4736  3.3574   1
  22   0  -6 75.8200  3.2185   3
 -20   0   6 35.4254  2.0685   1
  20   0  -6 35.1788  1.9272   3
  20   0  -6 32.2303  2.1505   2
  18   0  -6 102.518   4.302   2
 -18   0   6 108.690   4.209   1
  16   0  -6 236.874   8.305   2
  16   0  -6 238.377   7.964   3
  14   0  -6 511.255  16.402   3
  14   0  -6 519.358  16.864   2
  12   0  -6 748.667  23.987   3
  12   0  -6 780.864  23.784   1
  10   0  -6 756.975  23.470   1
  -6   0   6 577.605  16.729   3
   6   0  -6 469.296  17.081   2
   6   0  -6 552.375  16.628   1
   4   0  -6 1504.86   46.87   1
  -4   0   6 1542.34   47.42   3
   4   0  -6 1553.60   48.74   2
   2   0  -6 479.692  15.319   2
  -2   0   6 477.061  14.994   3
   2   0  -6 474.399  14.903   1
   0   0  -6 1545.36   48.17   2
   0   0   6 1498.81   47.37   3
   0   0  -6 1545.35   46.84   1
  -2   0  -6 2389.06   73.36   2
  -2   0  -6 2313.43   72.15   1
   2   0   6 2302.56   73.02   3
  -4   0  -6 2333.12   73.98   1
   4   0   6 2450.73   74.96   3
  -4   0  -6 2491.54   76.31   2
  -6   0  -6 1915.31   59.15   2
   6   0   6 1862.91   58.57   3
  -8   0  -6 6704.19  208.67   2
   8   0   6 6629.41  208.01   3
 -10   0  -6 126.173   4.973   1
  10   0   6 150.872   5.043   3
 -12   0  -6 1569.78   48.46   1
  14   0   6 11.9683  1.3556   3
 -14   0  -6 11.9685  1.3970   1
  16   0   6 50.7454  2.6514   3
  16   0   6 54.1035  2.3241   2
 -16   0  -6 48.5480  2.6187   1
  18   0   6 1.21755 0.71378   2
  18   0   6 0.88938 1.03366   3
 -18   0  -6 -0.4094  0.8677   1
  20   0   6 2.00205 1.18207   3
 -20   0  -6 0.82819 0.93889   1
  20   0   6 1.66779 0.80164   2
  22   0   6 41.5755  2.6208   3
 -22   0  -6 33.5317  2.4159   1
  22   0   6 38.3464  2.1148   2
  24   0   6 187.525   7.202   3
 -24   0  -6 182.984   7.145   1
  26   0   6 3.91440 1.68544   3
 -26   0  -6 0.18263 1.41418   1
  28   0   6 348.723  12.382   3
 -28   0  -6 344.365  12.313   1
 -30   0  -6 15.0190  2.3341   1
  30   0   6 18.8418  2.5620   3
 -32   0  -6 148.200   6.550   1
  32   0   6 149.013   6.608   3
 -34   0  -6 20.3086  2.7422   1
  34   0   6 20.7215  2.8755   3
  36   0   6 18.1917  2.9106   3
 -36   0  -6 17.6789  2.6628   1
  38   0   6 -0.9330  2.2418   3
 -38   0  -6 1.73200 1.89444   1
 -40   0  -6 8.04274 2.40872   1
  40   0   6 7.77400 2.70999   3
 -42   0  -6 2.93528 2.08482   1
  42   0   6 -0.0664  2.2974   3
 -44   0  -6 10.9601  2.7209   1
  43  -1  -6 17.5387  2.9876   2
  41  -1  -6 4.22737 2.07948   2
  41   1  -6 4.22708 1.99697   2
  39  -1  -6 56.3521  4.0578   2
  39   1  -6 57.4180  3.9319   2
  37  -1  -6 76.5684  4.6169   2
 -37   1   6 69.1945  4.3219   1
  37   1  -6 89.9171  4.7229   2
  35  -1  -6 63.2897  4.0717   2
 -35   1   6 59.9089  3.8560   1
  35   1  -6 64.6074  3.8820   2
  33  -1  -6 120.351   5.836   2
  33   1  -6 129.996   5.710   2
  33   1  -6 128.526   5.415   3
 -33   1   6 121.617   5.664   1
  31  -1  -6 65.5121  3.9264   2
 -31   1   6 69.8709  3.8754   1
  31   1  -6 68.2403  3.5629   3
  31   1  -6 67.5388  3.7520   2
 -29  -1   6 145.053   5.618   1
  29  -1  -6 135.271   6.111   2
  29   1  -6 138.093   5.893   2
 -29   1   6 142.707   5.976   1
  29   1  -6 147.352   5.794   3
  27  -1  -6 8.30721 1.65928   2
 -27  -1   6 10.4540  1.4660   1
  27   1  -6 12.2209  1.5990   3
 -27   1   6 11.4753  1.7495   1
  27   1  -6 10.5636  1.5657   2
 -25  -1   6 75.1548  3.4044   1
  25  -1  -6 76.9159  3.8190   2
  25  -1  -6 73.2283  3.2486   3
 -25   1   6 78.0550  3.7645   1
  25   1  -6 75.9496  3.5606   3
  25   1  -6 77.5499  3.6222   2
  23  -1  -6 31.7997  1.8459   3
  23  -1  -6 30.3281  2.2762   2
 -23  -1   6 29.6693  1.9604   1
  23   1  -6 29.9126  2.1322   3
  23   1  -6 26.9054  2.0198   2
 -23   1   6 30.3111  2.3443   1
  21  -1  -6 124.247   5.023   2
 -21  -1   6 116.379   4.518   1
 -21   1   6 122.017   4.934   1
  21   1  -6 118.371   4.768   3
  21   1  -6 121.787   4.879   2
  19  -1  -6 124.182   4.800   2
  19  -1  -6 114.178   4.109   3
  19   1  -6 112.726   4.545   3
  19   1  -6 107.898   4.557   2
 -19   1   6 111.404   4.682   1
  17  -1  -6 1353.11   43.22   3
  17  -1  -6 1431.18   44.34   2
 -17  -1   6 1413.86   42.87   1
  17   1  -6 1342.98   43.65   3
  17   1  -6 1404.06   44.22   2
 -17   1   6 1413.66   43.30   1
  15  -1  -6 50.3612  1.9598   3
 -15  -1   6 46.3607  2.1751   1
 -15   1   6 48.3146  2.5590   1
  15   1  -6 48.3215  2.4309   2
 -13  -1   6 2253.11   67.43   1
  13  -1  -6 2167.99   68.28   3
  13  -1  -6 2224.62   67.71   1
  13   1  -6 2188.95   69.43   2
  11  -1  -6 191.455   6.677   2
  11  -1  -6 190.343   6.046   3
  11  -1  -6 190.186   6.518   1
  11   1  -6 185.702   6.633   2
   9  -1  -6 2218.44   72.05   2
   9  -1  -6 2309.04   69.79   1
   9   1  -6 2316.72   69.46   1
  -7  -1   6 11.2120  1.0093   3
   7  -1  -6 12.3048  1.0444   1
  -5  -1   6 957.933  30.309   3
   5  -1  -6 963.884  29.992   1
   5  -1  -6 997.412  30.703   2
   5   1  -6 964.612  29.726   1
  -5   1   6 967.947  29.980   3
   3  -1  -6 287.516   9.253   1
  -3  -1   6 284.481   9.285   3
   3  -1  -6 275.152   9.325   2
   3   1  -6 290.627   9.023   1
  -3   1   6 288.688   9.005   3
   3   1  -6 287.393   9.556   2
  -1  -1   6 107.539   3.897   3
   1  -1  -6 107.859   3.808   2
   1  -1  -6 108.036   3.910   1
  -1   1   6 111.452   3.691   3
   1   1  -6 112.669   4.094   2
   1   1  -6 111.426   3.761   1
   1  -1   6 14.9585  1.0800   3
  -1  -1  -6 15.4944  0.8259   2
  -1  -1  -6 13.3003  1.0931   1
  -1   1  -6 15.6008  0.9850   1
  -1   1  -6 14.8916  1.0558   2
   1   1   6 16.4696  0.9485   3
   3  -1   6 484.293  15.551   3
  -3  -1  -6 491.330  15.432   2
  -3   1  -6 494.556  15.825   2
  -3   1  -6 480.650  15.313   1
   3   1   6 491.107  15.423   3
   5  -1   6 356.059  11.686   3
  -5  -1  -6 368.412  11.435   2
  -5   1  -6 373.415  11.900   2
   5   1   6 352.599  11.586   3
  -5   1  -6 354.251  11.542   1
   7  -1   6 2612.90   90.52   3
  -7  -1  -6 2485.37   88.52   1
  -7  -1  -6 3229.76   90.82   2
  -7   1  -6 3032.37   88.57   1
   7   1   6 3086.60   90.94   3
  -9  -1  -6 595.893  17.985   2
  -9  -1  -6 576.699  18.112   1
  -9   1  -6 563.776  18.099   1
   9   1   6 548.245  18.218   3
 -11  -1  -6 1344.85   41.99   1
  11  -1   6 1351.95   42.52   3
  11   1   6 1378.57   42.52   3
 -13  -1  -6 162.933   5.812   1
  13  -1   6 162.686   5.849   3
  13   1   6 151.802   5.758   3
  15  -1   6 31.8642  2.0771   3
 -15  -1  -6 31.1971  1.9669   1
 -15   1  -6 26.7924  1.9835   1
  17  -1   6 126.329   4.822   2
  17  -1   6 130.220   5.019   3
 -17  -1  -6 126.086   4.932   1
 -17   1  -6 116.563   4.954   1
  17   1   6 124.480   4.403   2
  19  -1   6 2.41938 1.15884   3
 -19  -1  -6 2.27423 1.00301   1
  19  -1   6 2.26114 0.92770   2
 -19   1  -6 1.15626 1.04796   1
  19   1   6 3.01406 0.70390   2
  21  -1   6 25.5771  2.2234   3
 -21  -1  -6 26.2299  2.0373   1
  21  -1   6 23.6038  1.8423   2
 -21   1  -6 23.6937  2.1010   1
  21   1   6 29.7610  2.2177   3
  23  -1   6 60.8628  3.4722   3
  23  -1   6 56.1734  2.9614   2
 -23  -1  -6 61.8143  3.2977   1
 -23   1  -6 57.1932  3.2829   1
  23   1   6 57.4069  3.2381   3
  25  -1   6 92.9229  4.5745   3
 -25  -1  -6 91.9980  4.4829   1
  25  -1   6 92.9677  4.2232   2
 -25   1  -6 94.8778  4.6319   1
  25   1   6 101.088   4.562   3
  27  -1   6 177.462   7.204   3
 -27  -1  -6 177.893   7.060   1
 -27   1  -6 171.432   7.135   1
  27   1   6 176.941   7.107   3
  29  -1   6 172.501   7.252   3
 -29  -1  -6 174.354   7.137   1
  29   1   6 167.144   7.116   3
 -29   1  -6 178.337   7.265   1
  31  -1   6 30.0084  3.2418   3
 -31  -1  -6 30.0246  3.0072   1
 -31   1  -6 28.1952  3.0381   1
  31   1   6 30.5710  3.0911   3
 -33  -1  -6 72.6457  4.1748   1
  33  -1   6 74.6111  4.4321   3
  33   1   6 68.3416  4.4126   3
 -33   1  -6 73.5582  4.3919   1
 -35  -1  -6 1.48241 1.79392   1
  35  -1   6 1.73226 1.99578   3
  35   1   6 -3.8722  1.8034   3
 -35   1  -6 0.83380 1.70112   1
  37  -1   6 33.6245  3.5249   3
 -37  -1  -6 29.8670  3.3322   1
  37   1   6 31.6693  3.4742   3
 -37   1  -6 33.7421  3.4866   1
  39  -1   6 -1.6504  2.0450   3
 -39  -1  -6 -4.4655  1.6436   1
 -39   1  -6 1.04520 1.87300   1
  39   1   6 -1.0236  2.0926   3
  41  -1   6 12.5041  2.7668   3
 -41  -1  -6 9.25231 2.49201   1
 -41   1  -6 8.81287 2.49914   1
  41   1   6 6.73712 2.53959   3
  43  -1   6 4.47017 2.30221   3
 -43   1  -6 0.25604 2.03256   1
  43   1   6 -2.1967  2.2582   3
  46  -2  -6 19.3232  3.3267   2
  44  -2  -6 3.90050 2.30871   2
  42  -2  -6 22.3417  3.2763   2
  40  -2  -6 3.90651 2.16708   2
 -40   2   6 4.78172 2.11500   1
  38  -2  -6 92.3914  5.3810   2
 -38   2   6 94.7333  5.1751   1
  38   2  -6 94.8821  4.9891   2
  36  -2  -6 0.56796 1.74552   2
  36   2  -6 0.14405 1.51969   2
 -36   2   6 -0.3050  1.6913   1
  34  -2  -6 88.8834  4.9968   2
  34   2  -6 97.4571  4.7286   3
  34   2  -6 93.0576  4.7675   2
 -34   2   6 95.0934  4.9007   1
  32  -2  -6 3.36459 1.74074   2
 -32   2   6 0.18669 1.38761   1
  32   2  -6 3.20748 1.53127   3
  32   2  -6 2.77305 1.51332   2
  30  -2  -6 22.3705  2.5965   2
  30   2  -6 24.4964  2.2260   2
 -30   2   6 22.3614  2.5394   1
  30   2  -6 27.9412  2.4708   3
  28  -2  -6 1.20324 1.28105   2
  28   2  -6 3.66832 1.39539   3
 -28   2   6 3.45727 1.38375   1
  28   2  -6 1.81714 1.19710   2
  26  -2  -6 117.341   5.223   2
  26   2  -6 120.164   5.000   2
  26   2  -6 115.899   5.082   3
 -26   2   6 112.817   5.134   1
  24  -2  -6 12.0536  1.7344   2
  24   2  -6 10.0663  1.7069   3
 -24   2   6 9.80766 1.81056   1
  24   2  -6 11.2132  1.5080   2
  22  -2  -6 313.120  11.253   2
  22   2  -6 308.154  11.040   3
  22   2  -6 316.843  10.986   2
 -22   2   6 325.903  11.156   1
 -20  -2   6 40.2561  1.9679   1
  20  -2  -6 43.0540  1.9399   3
  20  -2  -6 42.2981  2.6081   2
 -20   2   6 40.6142  2.8431   1
  20   2  -6 39.5193  2.3049   2
  20   2  -6 41.0802  2.6809   3
  18  -2  -6 817.107  25.457   3
  18  -2  -6 809.597  26.552   2
 -18  -2   6 830.684  25.241   1
 -18   2   6 842.370  26.121   1
  18   2  -6 801.339  26.271   3
  18   2  -6 796.615  26.339   2
  16  -2  -6 14.6190  0.9138   3
 -16  -2   6 14.0128  1.0439   1
  16   2  -6 14.1437  1.6135   3
  16   2  -6 14.4424  1.3537   2
 -16   2   6 12.6273  1.5607   1
  14  -2  -6 1028.42   31.08   3
  14  -2  -6 988.809  32.232   2
 -14  -2   6 1019.20   30.80   1
  14  -2  -6 1015.62   31.50   1
  14   2  -6 976.329  32.137   2
  12  -2  -6 15.7188  1.5157   1
 -12  -2   6 19.9322  0.9383   1
  12  -2  -6 15.4746  1.3613   2
  12   2  -6 18.3786  1.5036   2
 -10  -2   6 124.772   4.074   1
  10  -2  -6 128.283   4.716   2
  10  -2  -6 124.635   4.717   1
  10   2  -6 126.254   4.768   2
   8  -2  -6 1050.15   32.42   2
   8  -2  -6 1033.04   31.72   1
   8   2  -6 1020.96   31.06   1
   8   2  -6 974.691  32.512   2
  -6  -2   6 57.6151  2.5786   3
   6  -2  -6 60.1743  2.6312   1
   6   2  -6 60.2014  2.0652   1
  -4  -2   6 3207.31   99.68   3
   4  -2  -6 3271.72  101.45   2
   4  -2  -6 3213.77   97.90   1
  -4   2   6 3138.38   99.16   3
   4   2  -6 3215.76   97.78   1
  -2  -2   6 13.2106  1.1616   3
   2  -2  -6 14.5930  0.9218   2
   2   2  -6 13.6141  0.8210   1
  -2   2   6 14.8926  0.8096   3
   0  -2  -6 84.7471  2.9637   2
   0  -2   6 81.8247  3.2642   3
   0   2  -6 85.1478  2.9797   1
   0   2   6 82.4948  2.9464   3
  -2  -2  -6 467.459  14.407   2
   2  -2   6 456.545  14.665   3
   2   2   6 445.147  14.414   3
  -2   2  -6 449.523  14.269   1
  -4  -2  -6 349.438  12.022   1
  -4  -2  -6 383.450  11.819   2
  -4   2  -6 384.997  11.971   1
   4   2   6 379.217  12.060   3
  -6  -2  -6 376.053  12.091   1
   6   2   6 372.253  12.116   3
  -6   2  -6 372.906  12.030   1
  -8  -2  -6 320.639  10.426   1
   8  -2   6 304.076  10.489   3
   8   2   6 320.883  10.464   3
  -8   2  -6 318.885  10.402   1
  10  -2   6 145.956   5.374   3
 -10  -2  -6 140.812   5.287   1
 -10   2  -6 144.453   5.358   1
  10   2   6 150.061   5.346   3
 -12  -2  -6 790.471  25.342   1
  12  -2   6 815.021  25.675   3
  12   2   6 815.040  25.687   3
 -12   2  -6 801.631  25.443   1
  14  -2   6 19.8486  1.7752   3
 -14  -2  -6 21.0390  1.6702   1
 -14   2  -6 18.2926  1.7820   1
  14   2   6 20.9474  1.7568   3
  16  -2   6 493.140  15.607   3
 -16  -2  -6 477.762  15.364   1
  16   2   6 439.210  15.480   3
  18  -2   6 9.45532 1.46423   3
  18  -2   6 9.97202 1.45028   2
 -18  -2  -6 10.5742  1.4930   1
  22  -2   6 18.4423  1.8701   2
 -22  -2  -6 21.2574  2.1081   1
  22  -2   6 22.5983  2.2123   3
  22   2   6 23.5914  2.1624   3
 -22   2  -6 21.1082  2.2503   1
  24  -2   6 190.901   7.607   3
  24  -2   6 199.578   7.527   2
 -24  -2  -6 192.927   7.403   1
  24   2   6 195.150   7.550   3
 -24   2  -6 191.133   7.611   1
  26  -2   6 2.03640 1.47297   2
  26  -2   6 2.67643 1.75854   3
 -26  -2  -6 1.25765 1.34960   1
 -26   2  -6 2.68242 1.52138   1
  26   2   6 4.77517 1.68343   3
  28  -2   6 192.842   7.529   2
 -28  -2  -6 182.172   7.351   1
  28  -2   6 183.271   7.586   3
 -28   2  -6 191.424   7.689   1
  28   2   6 184.285   7.521   3
  30  -2   6 7.49664 2.18509   3
 -30  -2  -6 8.41085 1.97296   1
  30   2   6 4.46241 1.92903   3
 -30   2  -6 7.12463 2.03240   1
 -32  -2  -6 35.2869  3.0466   1
  32  -2   6 42.7217  3.5231   3
 -32   2  -6 36.6847  3.3549   1
  32   2   6 32.0458  3.0829   3
  34  -2   6 24.5855  3.0994   3
 -34  -2  -6 19.7854  2.7193   1
  34   2   6 19.4958  2.9438   3
 -34   2  -6 27.6688  3.1419   1
  36  -2   6 24.6036  3.0917   3
 -36  -2  -6 23.6024  2.8817   1
  36   2   6 19.4657  3.0001   3
 -36   2  -6 23.8938  3.1159   1
 -38  -2  -6 12.3401  2.5404   1
  38  -2   6 18.2349  2.9442   3
  38   2   6 9.84518 2.62431   3
 -38   2  -6 11.8413  2.6079   1
  40  -2   6 14.1595  2.9147   3
 -40   2  -6 10.8791  2.5674   1
  40   2   6 8.97531 2.73588   3
  42  -2   6 4.35776 2.33563   3
 -42   2  -6 4.29923 2.15079   1
  42   2   6 2.55670 2.57738   3
  45  -3  -6 3.06599 2.48478   2
  43  -3  -6 10.5978  2.7968   2
 -43   3   6 12.0021  2.6878   1
  41  -3  -6 7.45648 2.57298   2
 -41   3   6 2.72914 2.14329   1
  39  -3  -6 33.8367  3.7527   2
 -39   3   6 33.4796  3.5968   1
  37  -3  -6 14.9420  2.8377   2
  37   3  -6 12.7464  2.4365   3
 -37   3   6 11.8299  2.5587   1
  35  -3  -6 33.1149  3.5040   2
 -35   3   6 31.1272  3.3454   1
  35   3  -6 28.4466  2.6622   2
  35   3  -6 32.4451  3.1837   3
  33  -3  -6 19.7708  2.7140   2
  33   3  -6 19.5682  2.3304   2
  33   3  -6 21.4798  2.5708   3
 -33   3   6 19.3485  2.6183   1
  31  -3  -6 17.9809  2.5511   2
  31   3  -6 16.6152  2.3327   3
  31   3  -6 17.3116  2.1394   2
 -31   3   6 14.6946  2.2450   1
  29  -3  -6 39.9186  3.1707   2
  29   3  -6 42.1531  3.1296   3
  29   3  -6 42.9119  2.7947   2
 -29   3   6 44.4810  3.2491   1
  27  -3  -6 8.36710 1.80581   2
  27   3  -6 4.39849 1.58443   3
  27   3  -6 4.27590 1.33348   2
 -27   3   6 3.43599 1.53092   1
  25  -3  -6 100.801   4.980   2
 -25   3   6 112.869   5.153   1
  25   3  -6 115.488   4.740   2
  25   3  -6 108.566   5.040   3
  23  -3  -6 4.83887 1.46259   2
  23   3  -6 7.42757 1.75142   3
  23   3  -6 7.28991 1.34091   2
 -23   3   6 3.55686 1.63909   1
  21   3  -6 629.818  21.169   3
  21   3  -6 633.185  20.988   2
 -21   3   6 652.081  21.114   1
 -19   3   6 177.278   6.989   1
  19   3  -6 169.469   6.522   2
  19   3  -6 177.627   7.008   3
  17  -3  -6 537.069  19.667   2
  17  -3  -6 616.806  18.599   3
  17   3  -6 615.102  19.588   2
 -17   3   6 607.519  19.521   1
  15  -3  -6 367.597  11.612   3
  15  -3  -6 386.742  12.757   2
  15   3  -6 356.978  12.524   2
  13  -3  -6 47.3250  2.5791   2
  13  -3  -6 55.1519  2.8055   1
  13   3  -6 54.3787  2.6306   2
  11  -3  -6 92.1037  3.8286   1
  11  -3  -6 85.9211  3.6863   2
  11   3  -6 88.3880  3.7793   2
   9  -3  -6 938.499  29.210   1
   9  -3  -6 924.946  29.773   2
   9   3  -6 927.066  29.940   2
   7  -3  -6 313.843  10.515   2
  -7  -3   6 314.380  10.538   3
  -7   3   6 307.951   9.801   3
   7   3  -6 315.453  10.769   2
  -5  -3   6 878.349  28.391   3
  -5   3   6 892.157  27.810   3
   5   3  -6 917.254  27.343   1
  -3  -3   6 100.727   3.888   3
   3  -3  -6 83.4139  3.7142   1
   3  -3  -6 92.6040  3.5870   2
   3   3  -6 100.519   3.273   1
  -3   3   6 104.774   3.421   3
   1  -3  -6 526.989  16.778   2
  -1  -3   6 532.389  16.952   3
   1  -3  -6 521.088  16.688   1
   1   3  -6 510.149  16.249   1
  -1   3   6 524.769  16.547   3
   1   3  -6 524.486  17.291   2
  -1  -3  -6 154.533   5.581   1
  -1  -3  -6 159.336   5.317   2
  -1   3  -6 155.407   5.281   1
  -1   3  -6 155.174   5.877   2
   1   3   6 158.041   5.394   3
  -3  -3  -6 267.443   8.430   2
  -3  -3  -6 251.257   8.674   1
  -3   3  -6 258.382   8.485   1
   3   3   6 261.850   8.636   3
  -3   3  -6 256.119   9.119   2
   5  -3   6 31.2592  1.9385   3
  -5  -3  -6 34.6459  1.3875   2
  -5  -3  -6 33.0993  1.8993   1
  -5   3  -6 34.0495  1.8123   1
   5   3   6 34.9871  1.8170   3
   7  -3   6 525.545  17.207   3
  -7  -3  -6 516.167  16.902   1
   7   3   6 532.392  17.109   3
  -7   3  -6 544.290  16.922   1
   9  -3   6 400.344  13.623   3
  -9  -3  -6 408.023  13.431   1
  -9   3  -6 437.333  13.529   1
   9   3   6 405.704  13.601   3
 -11  -3  -6 195.985   7.133   1
  11  -3   6 204.909   7.314   3
 -11   3  -6 213.103   7.312   1
  11   3   6 198.954   7.262   3
 -13  -3  -6 501.701  16.326   1
  13  -3   6 501.601  16.554   3
 -13   3  -6 510.501  16.469   1
  13   3   6 500.582  16.592   3
 -15  -3  -6 130.206   5.051   1
  15  -3   6 125.614   5.104   3
  15   3   6 123.545   5.141   3
 -15   3  -6 125.957   5.177   1
  17  -3   6 153.185   5.541   3
 -17  -3  -6 144.367   5.356   1
  17   3   6 112.827   5.272   3
 -17   3  -6 128.646   5.459   1
  19  -3   6 14.9699  1.7909   3
 -19  -3  -6 15.6343  1.7336   1
  19   3   6 10.2732  1.5223   3
  21  -3   6 34.1765  2.6105   2
 -21  -3  -6 39.2981  2.6231   1
  21  -3   6 40.1682  2.8306   3
 -21   3  -6 33.7431  2.7196   1
  21   3   6 34.2916  2.5466   3
  23  -3   6 239.919   9.014   2
  23  -3   6 240.657   8.915   3
 -23  -3  -6 244.612   8.751   1
 -23   3  -6 223.947   8.867   1
  23   3   6 234.225   8.866   3
  25  -3   6 29.2136  2.7909   2
  25  -3   6 31.1368  2.7872   3
 -25  -3  -6 36.9652  2.7981   1
  25   3   6 31.1607  2.7139   3
 -25   3  -6 35.9682  2.9771   1
  27  -3   6 133.236   6.020   2
  27  -3   6 134.241   6.104   3
 -27  -3  -6 140.264   5.896   1
 -27   3  -6 130.063   6.089   1
  27   3   6 138.793   6.032   3
  29  -3   6 49.5503  3.4681   2
 -29  -3  -6 52.9870  3.3465   1
  29  -3   6 54.3344  3.7532   3
  29   3   6 53.4395  3.5891   3
 -29   3  -6 54.3781  3.6684   1
  31  -3   6 2.76135 1.79666   3
  31  -3   6 3.08028 1.85815   2
 -31  -3  -6 0.22231 1.55367   1
  31   3   6 4.13501 2.08488   3
 -31   3  -6 0.71172 1.78828   1
  33  -3   6 31.2873  3.3214   3
 -33  -3  -6 24.0709  2.8675   1
  33   3   6 25.0040  3.0613   3
 -33   3  -6 32.6149  3.3725   1
  35  -3   6 2.50414 2.10644   3
 -35  -3  -6 -0.9307  1.7399   1
  35   3   6 -0.4576  2.0364   3
 -35   3  -6 0.56104 1.96974   1
  37  -3   6 29.1766  3.5036   3
  37   3   6 16.3458  3.0751   3
 -37   3  -6 24.9926  3.2200   1
  39  -3   6 1.48642 1.96706   3
  39   3   6 1.36254 2.35695   3
 -39   3  -6 -1.3301  2.0234   1
  41  -3   6 6.36897 2.42707   3
  41   3   6 -0.3239  2.5591   3
 -41   3  -6 4.78419 2.45277   1
 -44   4   6 -1.1696  2.0317   1
  42  -4  -6 6.77471 2.67341   2
 -42   4   6 11.1255  2.7319   1
  40  -4  -6 7.05487 2.57025   2
  40   4  -6 3.57436 2.37512   3
 -40   4   6 6.34321 2.45952   1
  38  -4  -6 14.6633  3.0079   2
 -38   4   6 15.2284  3.0263   1
  38   4  -6 14.1495  2.7622   3
  36  -4  -6 10.5365  2.5415   2
  36   4  -6 10.0788  2.5287   3
 -36   4   6 8.50437 2.50231   1
  34  -4  -6 57.7640  4.1841   2
  34   4  -6 54.3236  3.9630   3
  34   4  -6 48.0259  3.3423   2
 -34   4   6 55.6954  4.1264   1
  32  -4  -6 3.87974 1.95902   2
  32   4  -6 3.71984 1.83979   3
  32   4  -6 4.58067 1.66001   2
 -32   4   6 2.39453 1.90156   1
  30  -4  -6 68.1007  4.3139   2
  30   4  -6 64.8372  4.1735   3
  30   4  -6 69.4509  3.7041   2
 -30   4   6 76.1909  4.4638   1
  28  -4  -6 43.2813  3.3481   2
 -28   4   6 41.2865  3.4392   1
  28   4  -6 37.1227  2.6608   2
  28   4  -6 42.0532  3.2807   3
  26  -4  -6 1.41901 1.38469   2
  26   4  -6 1.04879 1.15186   2
 -26   4   6 2.59388 1.55791   1
  26   4  -6 0.44251 1.50167   3
  24  -4  -6 48.3391  3.2582   2
  24   4  -6 46.2868  3.3200   3
 -24   4   6 44.1672  3.2707   1
  24   4  -6 49.7435  2.7984   2
  22  -4  -6 15.7604  2.1538   2
  22   4  -6 18.8321  2.4091   3
 -22   4   6 15.7365  2.2761   1
  22   4  -6 22.9532  1.9553   2
  20   4  -6 23.5033  2.6105   3
 -20   4   6 21.4660  2.4922   1
  20   4  -6 25.9055  2.0410   2
  18   4  -6 370.952  12.852   2
 -18   4   6 376.226  13.096   1
  16  -4  -6 11.3211  1.7204   2
  16   4  -6 13.7989  1.6079   2
 -16   4   6 10.6398  1.8225   1
  14  -4  -6 181.277   6.887   2
  14  -4  -6 173.824   6.800   1
  14   4  -6 179.056   6.794   2
  12  -4  -6 107.780   4.652   1
  12  -4  -6 110.599   4.650   2
  12   4  -6 114.208   4.676   2
  10  -4  -6 151.845   5.769   2
  10   4  -6 149.212   5.868   2
   8  -4  -6 183.787   7.118   1
   8  -4  -6 210.428   7.210   2
   8   4  -6 200.729   7.376   2
   6  -4  -6 57.7334  2.8227   1
   6  -4  -6 61.4569  2.6811   2
  -6  -4   6 54.2574  2.8257   3
   6   4  -6 47.9736  1.8623   1
   6   4  -6 55.8279  2.8491   2
  -6   4   6 55.8080  2.2314   3
   4  -4  -6 282.870   9.561   2
   4  -4  -6 279.953   9.603   1
  -4  -4   6 291.148   9.772   3
  -4   4   6 273.961   9.204   3
   4   4  -6 284.819   8.856   1
   4   4  -6 275.848   9.933   2
   2  -4  -6 39.7052  2.1591   1
   2   4  -6 29.6822  1.5114   1
  -2   4   6 32.5657  1.7609   3
   0  -4   6 2.62125 0.78335   3
   0  -4  -6 5.76403 0.85979   2
   0  -4  -6 7.10430 1.16416   1
   0   4  -6 5.83122 1.15407   2
   0   4   6 7.39825 0.98201   3
   0   4  -6 6.30234 0.85715   1
  -2  -4  -6 834.805  26.781   1
   2  -4   6 861.138  27.272   3
  -2  -4  -6 860.502  27.054   2
  -2   4  -6 869.174  26.507   1
   2   4   6 844.388  26.983   3
  -2   4  -6 843.759  27.783   2
   4  -4   6 272.879   9.556   3
  -4  -4  -6 276.073   9.358   1
  -4   4  -6 287.100   9.966   2
   4   4   6 264.062   9.310   3
  -4   4  -6 276.542   9.138   1
  -6  -4  -6 167.263   6.144   1
   6  -4   6 169.212   6.337   3
   6   4   6 171.808   6.218   3
  -6   4  -6 165.272   5.995   1
   8  -4   6 515.329  17.378   3
  -8  -4  -6 524.908  17.067   1
  -8   4  -6 538.425  17.080   1
   8   4   6 525.154  16.775   2
   8   4   6 546.049  17.387   3
  10  -4   6 2.47654 1.11211   3
 -10  -4  -6 1.15748 0.91862   1
 -10   4  -6 2.23302 1.05259   1
  10   4   6 1.65539 1.03655   3
  12  -4   6 371.397  12.733   3
 -12  -4  -6 371.076  12.453   1
  12   4   6 382.519  12.775   3
 -12   4  -6 369.733  12.559   1
  14  -4   6 16.0207  1.8171   3
 -14  -4  -6 15.4716  1.6912   1
 -14   4  -6 16.4005  1.9267   1
  14   4   6 14.2094  1.8346   3
  16  -4   6 33.5410  2.4010   3
 -16  -4  -6 36.4526  2.4056   1
  16   4   6 31.4944  2.4568   3
 -16   4  -6 34.7903  2.5712   1
  18  -4   6 32.7357  2.5606   3
 -18  -4  -6 33.4952  2.3889   1
 -18   4  -6 30.0261  2.5044   1
  18   4   6 28.5209  2.4614   3
 -20  -4  -6 29.5351  2.3804   1
  20  -4   6 29.8300  2.5867   3
 -20   4  -6 33.5183  2.6154   1
  20   4   6 29.6167  2.4875   3
 -22  -4  -6 9.53302 1.68410   1
  22  -4   6 5.86843 1.64141   3
  22   4   6 7.80296 1.75957   3
 -22   4  -6 7.56720 1.73491   1
 -24  -4  -6 94.9809  4.4869   1
  24  -4   6 97.7551  4.7122   3
 -24   4  -6 86.0310  4.6142   1
  24   4   6 90.2514  4.5920   3
  26  -4   6 19.2445  2.4505   2
 -26  -4  -6 18.1483  2.2659   1
  26  -4   6 14.7259  2.3575   3
  26   4   6 14.7138  2.2715   3
 -26   4  -6 15.4194  2.3277   1
 -28  -4  -6 37.5247  2.9960   1
  28  -4   6 36.8557  3.1155   2
  28  -4   6 37.4947  3.2597   3
 -28   4  -6 38.1342  3.1617   1
  28   4   6 39.4267  3.1234   3
  30  -4   6 3.96628 1.87597   3
 -30  -4  -6 6.76800 1.86876   1
  30  -4   6 5.04153 2.10604   2
  30   4   6 6.05267 2.00740   3
 -30   4  -6 8.51877 2.14993   1
 -32  -4  -6 14.9574  2.4692   1
  32  -4   6 14.2552  2.6033   2
  32  -4   6 18.3305  2.6987   3
 -32   4  -6 11.7823  2.6213   1
  32   4   6 13.8882  2.5958   3
  34  -4   6 7.44724 2.38871   3
 -34   4  -6 4.71317 2.34871   1
  34   4   6 2.51075 2.37868   3
  36  -4   6 2.94101 2.13699   3
  36   4   6 1.10746 2.21278   3
 -36   4  -6 2.77395 2.16871   1
  38  -4   6 2.56723 2.05640   3
  38   4   6 -1.6768  2.1232   3
 -38   4  -6 -0.3011  2.0268   1
  40   4   6 -1.7265  2.5309   3
 -40   4  -6 -1.0869  2.2207   1
  41  -5  -6 0.03303 2.33076   2
  41   5  -6 -1.6881  1.9762   3
 -41   5   6 -0.3096  2.2187   1
  39  -5  -6 4.07455 2.31632   2
 -39   5   6 5.78973 2.48291   1
  39   5  -6 4.21799 2.34805   3
  37  -5  -6 7.25780 2.64230   2
  37   5  -6 9.62218 2.66540   3
 -37   5   6 5.49197 2.56044   1
  35  -5  -6 12.7258  2.8535   2
 -35   5   6 10.7180  2.6273   1
  35   5  -6 12.6943  2.7951   3
  33  -5  -6 22.0455  3.1632   2
 -33   5   6 20.2710  3.1256   1
  33   5  -6 23.4162  3.1871   3
  31  -5  -6 15.2945  2.7583   2
 -31   5   6 22.3691  2.9777   1
  31   5  -6 19.3313  2.8939   3
  31   5  -6 18.7198  2.2353   2
  29  -5  -6 28.4272  3.1663   2
  29   5  -6 28.5580  2.4122   2
  29   5  -6 34.1905  3.4723   3
 -29   5   6 27.5953  3.2303   1
  27  -5  -6 12.4197  2.3273   2
  27   5  -6 11.3368  2.4046   3
  27   5  -6 10.4265  1.7569   2
 -27   5   6 11.5705  2.3190   1
  25  -5  -6 5.32832 1.78860   2
  25   5  -6 7.90887 1.51670   2
 -25   5   6 5.19169 1.96437   1
  25   5  -6 5.44533 1.98239   3
  23  -5  -6 21.5596  2.5343   2
 -23   5   6 20.7776  2.8107   1
  23   5  -6 24.8136  2.1297   2
  23   5  -6 19.7655  2.8175   3
  21  -5  -6 2.23877 1.44213   2
  21   5  -6 2.15562 1.59661   3
  21   5  -6 4.89199 1.28559   2
 -21   5   6 3.35960 1.64741   1
  19  -5  -6 26.0525  2.4784   2
  19   5  -6 25.3184  2.1632   2
 -19   5   6 26.4201  2.7659   1
  17  -5  -6 8.28320 1.60324   2
  17   5  -6 7.99708 1.46777   2
 -17   5   6 8.10415 1.84890   1
  15  -5  -6 13.3657  1.8079   2
  15   5  -6 11.5818  1.6165   2
  13  -5  -6 73.0998  3.6034   2
  13   5  -6 67.1383  3.5117   2
  11  -5  -6 21.8419  1.9366   2
  11   5  -6 24.1417  2.1157   2
   9  -5  -6 152.976   6.046   1
   9  -5  -6 153.697   5.973   2
   9   5  -6 149.589   6.108   2
   7  -5  -6 41.5764  2.6326   1
   7  -5  -6 40.7534  2.4328   2
   7   5  -6 46.5740  2.7705   2
   5  -5  -6 15.3954  1.7446   1
   5  -5  -6 17.6401  1.5356   2
   5   5  -6 17.3185  1.0415   1
  -5   5   6 15.6855  1.3518   3
   5   5  -6 12.3403  1.6214   2
   3  -5  -6 130.484   4.818   2
   3  -5  -6 120.293   4.934   1
  -3   5   6 117.149   4.590   3
   3   5  -6 128.571   5.287   2
   3   5  -6 119.872   4.253   1
   1  -5  -6 22.3886  1.6725   2
  -1  -5   6 17.6415  1.8925   3
   1  -5  -6 22.2767  1.8930   1
   1   5  -6 17.7143  1.9735   2
  -1   5   6 20.7853  1.7003   3
   1   5  -6 23.0008  1.4388   1
  -1  -5  -6 14.9415  1.3785   2
   1  -5   6 23.3311  2.0405   3
  -1  -5  -6 23.3107  1.8992   1
   1   5   6 24.0882  1.7660   3
  -1   5  -6 21.6876  1.5190   1
   3  -5   6 143.687   5.708   3
  -3  -5  -6 145.561   5.530   1
   3   5   6 138.519   5.436   3
  -3   5  -6 130.066   5.827   2
  -3   5  -6 150.840   5.224   1
  -5  -5  -6 16.8785  1.7649   1
   5  -5   6 15.1400  1.8267   3
   5   5   6 18.3019  1.7368   3
  -5   5  -6 15.1196  1.5331   1
  -7  -5  -6 285.797   9.570   1
   7  -5   6 286.341   9.837   3
  -7   5  -6 276.765   9.416   1
   7   5   6 254.184   9.149   2
   7   5   6 274.927   9.688   3
   9  -5   6 75.5261  3.7215   3
  -9  -5  -6 74.7083  3.4681   1
  -9   5  -6 73.2235  3.4017   1
   9   5   6 73.4091  3.5648   3
   9   5   6 62.2955  2.7572   2
 -11  -5  -6 64.7140  3.2498   1
  11  -5   6 62.4984  3.4065   3
 -11   5  -6 62.8151  3.3461   1
  11   5   6 63.0365  3.4063   3
  13  -5   6 44.0450  2.8104   3
 -13  -5  -6 44.3054  2.7089   1
  13   5   6 42.2471  2.9059   3
 -13   5  -6 42.4174  2.8100   1
  15  -5   6 6.53630 1.46367   3
 -15  -5  -6 6.26446 1.35650   1
  15   5   6 2.86200 1.41880   3
 -15   5  -6 5.27375 1.49150   1
 -17  -5  -6 5.23666 1.36937   1
  17  -5   6 5.50800 1.48133   3
  17   5   6 6.04182 1.60206   3
 -17   5  -6 6.28211 1.62543   1
 -19  -5  -6 5.84013 1.37561   1
  19  -5   6 3.46369 1.49342   3
  19   5   6 4.80168 1.60823   3
 -19   5  -6 5.96677 1.62664   1
  21  -5   6 3.51427 1.54414   3
 -21  -5  -6 4.75117 1.38530   1
 -21   5  -6 2.21935 1.54154   1
  21   5   6 1.14746 1.51999   3
  23  -5   6 19.3158  2.4145   3
 -23  -5  -6 21.2554  2.3162   1
  23   5   6 21.4075  2.5704   3
 -23   5  -6 18.9670  2.4612   1
  25  -5   6 17.9039  2.4685   3
 -25  -5  -6 14.0989  2.0698   1
  25   5   6 14.2295  2.3099   3
 -25   5  -6 15.6503  2.3656   1
  27  -5   6 5.48023 1.81601   3
 -27  -5  -6 5.34381 1.65151   1
  27   5   6 1.86997 1.84141   3
 -27   5  -6 4.62060 1.83953   1
  29  -5   6 23.4146  2.8674   3
  29   5   6 23.2197  2.8923   3
 -29   5  -6 25.7892  3.0118   1
  31  -5   6 2.36387 1.98712   3
 -31   5  -6 2.59600 2.01379   1
  31   5   6 1.00921 1.92651   3
  33  -5   6 4.95746 2.20972   3
 -33   5  -6 3.08154 2.11339   1
  33   5   6 2.96766 2.13316   3
  35  -5   6 4.11075 2.07790   3
  35   5   6 2.65270 2.38538   3
 -35   5  -6 -0.2091  2.1326   1
  37  -5   6 1.64258 1.88585   3
 -37   5  -6 1.22321 2.27727   1
  37   5   6 2.38171 2.30467   3
  40  -6  -6 -1.0106  2.1390   2
 -40   6   6 -0.2117  2.2589   1
  40   6  -6 -2.4936  2.0855   3
  38  -6  -6 0.21528 2.18086   2
 -38   6   6 2.31917 2.23344   1
  38   6  -6 1.06800 2.23240   3
  36  -6  -6 6.54388 2.52901   2
 -36   6   6 2.77805 2.13902   1
  36   6  -6 6.39645 2.60244   3
  34  -6  -6 6.69937 2.49464   2
  34   6  -6 7.21600 2.55216   3
 -34   6   6 3.80261 2.29479   1
  32  -6  -6 4.41356 2.31169   2
  32   6  -6 7.63252 2.50276   3
 -32   6   6 2.27554 2.07780   1
  30  -6  -6 16.3468  2.8218   2
  30   6  -6 12.3850  2.6467   3
 -30   6   6 15.4851  2.6971   1
  28  -6  -6 6.98657 2.20837   2
 -28   6   6 9.71839 2.38236   1
  28   6  -6 4.90267 2.28956   3
  28   6  -6 11.0113  1.8204   2
  26  -6  -6 8.91398 2.16339   2
  26   6  -6 9.59297 1.73973   2
 -26   6   6 9.71500 2.28579   1
  26   6  -6 8.42633 2.33295   3
  24  -6  -6 15.6187  2.5333   2
  24   6  -6 17.1832  2.0640   2
  24   6  -6 15.0216  2.7500   3
 -24   6   6 13.2069  2.5793   1
  22  -6  -6 5.07239 1.78849   2
 -22   6   6 5.73065 2.05061   1
  22   6  -6 6.93532 2.17600   3
  22   6  -6 6.39053 1.51989   2
  20  -6  -6 0.96894 1.35728   2
  20   6  -6 3.27520 1.30365   2
  20   6  -6 1.92518 1.70210   3
 -20   6   6 0.26603 1.69337   1
  18  -6  -6 6.39682 1.71425   2
 -18   6   6 5.37764 1.85839   1
  18   6  -6 2.49254 1.24809   2
  16  -6  -6 30.2471  2.5351   2
  16   6  -6 27.8167  2.4774   2
 -16   6   6 37.6215  2.9740   1
  14  -6  -6 14.9171  2.0300   2
  14   6  -6 12.9550  1.8702   2
  12  -6  -6 72.7373  4.0283   1
  12  -6  -6 77.0352  3.9287   2
  12   6  -6 67.0676  3.7701   2
  10  -6  -6 140.040   5.716   2
  10  -6  -6 127.492   5.685   1
  10   6  -6 130.603   5.805   2
   8  -6  -6 31.5581  2.3735   2
   8  -6  -6 31.6386  2.7279   1
   8   6  -6 29.1547  2.4361   2
   6  -6  -6 63.9075  3.4456   1
   6  -6  -6 65.8090  3.2782   2
   6   6  -6 62.1471  3.5018   2
   4  -6  -6 18.0813  1.7476   2
   4  -6  -6 18.2290  2.0514   1
   4   6  -6 17.5619  1.3256   1
  -4   6   6 18.6398  1.7382   3
   4   6  -6 18.8120  2.1748   2
   2  -6  -6 18.5363  1.7247   2
   2  -6  -6 16.3552  1.9839   1
  -2  -6   6 16.7225  2.0583   3
   2   6  -6 17.1986  1.4520   1
   2   6  -6 17.6680  2.1558   2
  -2   6   6 18.7863  1.7928   3
   0  -6   6 27.6260  2.4598   3
   0  -6  -6 29.8376  2.1642   2
   0  -6  -6 24.0021  2.2455   1
   0   6  -6 34.7792  1.9519   1
   0   6   6 34.0016  2.3015   3
   0   6  -6 27.1054  2.5217   2
   2  -6   6 63.6611  3.5089   3
  -2  -6  -6 65.2134  3.3252   1
   2   6   6 63.0964  3.2622   3
  -2   6  -6 59.8034  2.9096   1
  -4  -6  -6 57.0664  3.1002   1
   4  -6   6 55.0824  3.2874   3
   4   6   6 59.5328  3.1862   3
  -4   6  -6 59.5344  2.8618   1
   6  -6   6 9.06102 1.72286   3
  -6  -6  -6 12.2208  1.6204   1
   6   6   6 12.8187  1.7081   3
  -6   6  -6 10.9255  1.4645   1
   8  -6   6 42.0586  2.8911   3
  -8  -6  -6 42.9270  2.7555   1
   8   6   6 41.7550  2.8039   3
  -8   6  -6 45.6154  2.7429   1
  10  -6   6 82.4921  4.1879   3
 -10  -6  -6 86.7788  4.0224   1
  10   6   6 90.1021  4.3784   3
 -10   6  -6 77.0926  3.9441   1
  12  -6   6 27.9351  2.6542   3
 -12  -6  -6 34.9958  2.5200   1
  12   6   6 28.7475  2.6093   3
 -12   6  -6 29.4531  2.4337   1
 -14  -6  -6 30.7887  2.3759   1
  14  -6   6 29.0814  2.6161   3
 -14   6  -6 25.6859  2.3823   1
  14   6   6 25.3372  2.6427   3
 -16  -6  -6 9.14190 1.57800   1
  16  -6   6 8.98254 1.72543   3
  16   6   6 8.67162 1.85236   3
 -16   6  -6 10.1095  1.8291   1
  18  -6   6 1.36500 1.37949   3
 -18  -6  -6 2.28356 1.27398   1
  18   6   6 1.58561 1.50332   3
 -18   6  -6 2.92585 1.61367   1
  20  -6   6 8.80386 1.87041   3
 -20  -6  -6 6.25790 1.53258   1
 -20   6  -6 4.55473 1.73300   1
  20   6   6 5.76074 1.85067   3
  22  -6   6 2.85189 1.54915   3
 -22  -6  -6 3.41300 1.43584   1
  22   6   6 1.54046 1.71229   3
 -22   6  -6 0.53015 1.68143   1
  24  -6   6 20.2589  2.5848   3
  24   6   6 14.3801  2.4388   3
 -24   6  -6 18.8978  2.6457   1
  26  -6   6 2.66036 1.76685   3
 -26   6  -6 -1.0264  1.7432   1
  26   6   6 0.95132 1.84252   3
  28  -6   6 13.7377  2.4597   3
  28   6   6 17.4720  2.7777   3
 -28   6  -6 13.8572  2.5594   1
  30  -6   6 5.72330 2.13654   3
  30   6   6 7.06765 2.34944   3
 -30   6  -6 8.74580 2.45626   1
  32  -6   6 0.85834 2.01346   3
  32   6   6 0.71480 2.12614   3
 -32   6  -6 5.25477 2.17743   1
  34  -6   6 4.58456 2.17622   3
  34   6   6 4.94604 2.30537   3
 -34   6  -6 7.35966 2.57380   1
  36   6   6 0.39133 2.16092   3
 -36   6  -6 -0.2057  2.0368   1
  37  -7  -6 5.05296 2.60160   2
 -37   7   6 1.39399 2.34215   1
  37   7  -6 -0.4472  2.2356   3
  35  -7  -6 2.71098 2.43508   2
  35   7  -6 3.99866 2.61800   3
 -35   7   6 8.88459 2.68877   1
  33  -7  -6 2.40729 2.16940   2
  33   7  -6 2.24984 2.40785   3
 -33   7   6 5.74830 2.38853   1
  31  -7  -6 7.93656 2.40514   2
 -31   7   6 7.04778 2.36820   1
  31   7  -6 7.64740 2.63564   3
  29  -7  -6 0.37856 1.89240   2
 -29   7   6 3.02442 2.09020   1
  29   7  -6 0.00914 2.03122   3
  27  -7  -6 7.60034 2.19687   2
 -27   7   6 4.54852 2.12933   1
  27   7  -6 8.26002 2.29294   3
  27   7  -6 7.04461 1.62811   2
  25  -7  -6 0.37994 1.48655   2
  25   7  -6 1.25575 1.99898   3
 -25   7   6 -0.3313  1.7094   1
  25   7  -6 1.72531 1.28093   2
  23  -7  -6 3.63162 1.76407   2
  23   7  -6 1.83020 1.90972   3
 -23   7   6 4.53058 1.95778   1
  23   7  -6 4.41181 1.48338   2
  21  -7  -6 0.99380 1.68759   2
  21   7  -6 2.35044 1.35312   2
 -21   7   6 -0.6790  1.7695   1
  21   7  -6 1.44625 1.84663   3
  19  -7  -6 8.95896 2.07165   2
  19   7  -6 7.19718 1.72416   2
 -19   7   6 8.05824 2.20832   1
  17  -7  -6 39.6543  3.1293   2
 -17   7   6 32.5854  3.5648   1
  17   7  -6 48.6690  3.2525   2
  15  -7  -6 4.99198 1.70866   2
 -15   7   6 5.89047 2.06391   1
  15   7  -6 7.19943 1.76253   2
  13  -7  -6 79.1605  4.4560   2
  13   7  -6 87.6131  4.5560   2
  11  -7  -6 6.01395 1.94611   1
  11  -7  -6 9.18643 1.87372   2
  11   7  -6 8.86613 1.81798   2
   9  -7  -6 41.0524  3.1471   1
   9  -7  -6 39.9129  2.9144   2
   9   7  -6 39.6492  2.9374   2
   7  -7  -6 21.7751  2.5112   1
   7  -7  -6 25.0539  2.3755   2
   7   7  -6 24.4224  2.5963   2
   5  -7  -6 34.2112  2.7691   1
   5  -7  -6 39.3104  2.6384   2
   5   7  -6 37.8347  3.0318   2
   3  -7  -6 68.4692  3.6561   1
   3  -7  -6 63.9147  3.4185   2
  -3   7   6 62.9771  3.3586   3
   3   7  -6 71.0284  4.0284   2
  -1  -7   6 3.83016 1.50571   3
   1  -7  -6 4.76475 1.42368   1
   1   7  -6 2.37830 1.46335   2
   1   7  -6 3.95404 1.03062   1
  -1   7   6 5.71534 1.33492   3
  -1  -7  -6 10.3982  1.6666   1
   1  -7   6 12.3865  1.9865   3
   1   7   6 14.4272  1.8170   3
  -1   7  -6 10.3420  2.0405   2
  -1   7  -6 12.8454  1.4828   1
  -3  -7  -6 3.60108 1.35667   1
   3  -7   6 2.23988 1.37454   3
   3   7   6 3.49208 1.26864   3
  -3   7  -6 2.72307 1.09432   1
  -3   7  -6 3.60940 1.52192   2
   5  -7   6 40.2885  3.0484   3
  -5  -7  -6 45.6137  2.9586   1
   5   7   6 45.4824  3.0235   3
  -5   7  -6 49.5184  3.5315   2
  -5   7  -6 43.4884  2.6702   1
   7  -7   6 35.3372  2.8725   3
  -7  -7  -6 36.5724  2.7421   1
   7   7   6 40.9578  3.0523   3
  -7   7  -6 33.3185  2.6594   1
   9  -7   6 26.7716  2.6482   3
  -9  -7  -6 30.0613  2.5665   1
   9   7   6 27.5019  2.6725   3
  -9   7  -6 22.3441  2.3641   1
 -11  -7  -6 36.7908  2.6977   1
  11  -7   6 28.6237  2.7316   3
  11   7   6 28.8832  2.8170   3
 -11   7  -6 34.1360  2.7513   1
  13  -7   6 6.11551 1.73013   3
 -13  -7  -6 7.11277 1.58689   1
 -13   7  -6 7.46402 1.81523   1
  13   7   6 6.69793 1.84638   3
  15  -7   6 5.75320 1.74998   3
 -15  -7  -6 6.00565 1.46339   1
  15   7   6 7.27799 1.92018   3
 -15   7  -6 3.45580 1.52891   1
 -17  -7  -6 3.34156 1.38476   1
  17  -7   6 4.67209 1.68616   3
  17   7   6 3.28753 1.70313   3
 -17   7  -6 3.11343 1.66338   1
  19  -7   6 12.0587  2.1680   3
 -19  -7  -6 9.93786 1.88089   1
 -19   7  -6 7.75069 1.97704   1
  19   7   6 9.51741 2.18982   3
  21  -7   6 9.08433 2.04777   3
 -21   7  -6 9.22575 2.19292   1
  21   7   6 12.7825  2.4147   3
  23  -7   6 3.68151 1.83098   3
  23   7   6 1.08087 1.84870   3
 -23   7  -6 1.65239 1.79351   1
  25  -7   6 2.26644 1.85297   3
  25   7   6 2.13870 1.91820   3
 -25   7  -6 2.75212 1.94709   1
  27  -7   6 5.79449 2.16976   3
 -27   7  -6 5.95356 2.29338   1
  27   7   6 6.60068 2.36461   3
  29  -7   6 5.04414 2.17812   3
  29   7   6 2.97375 2.20422   3
 -29   7  -6 5.54968 2.39524   1
  31  -7   6 1.47768 2.06955   3
 -31   7  -6 6.39914 2.51750   1
  31   7   6 5.11084 2.39590   3
 -33   7  -6 8.39056 2.63399   1
  33   7   6 2.84034 2.28925   3
  34  -8  -6 5.92065 2.56858   2
  34   8  -6 1.79193 2.64974   3
 -34   8   6 8.24570 2.72400   1
  32  -8  -6 6.72168 2.61090   2
 -32   8   6 2.42573 2.37107   1
  32   8  -6 2.92341 2.60812   3
  30  -8  -6 15.8494  3.0373   2
 -30   8   6 17.5100  3.1474   1
  30   8  -6 16.7578  3.2635   3
  28  -8  -6 1.92753 1.98799   2
 -28   8   6 3.07233 2.21617   1
  28   8  -6 2.80911 2.31578   3
  26  -8  -6 10.5066  2.6055   2
  26   8  -6 9.53704 2.56265   3
 -26   8   6 9.63427 2.54567   1
  24  -8  -6 2.11406 1.80441   2
  24   8  -6 0.68616 1.89670   3
 -24   8   6 1.39834 1.93621   1
  24   8  -6 4.08733 1.59054   2
  22  -8  -6 -0.7902  1.5714   2
 -22   8   6 2.29819 1.85966   1
  22   8  -6 3.37417 1.48790   2
  22   8  -6 2.04523 1.85123   3
  20  -8  -6 0.21293 1.62644   2
  20   8  -6 2.31234 1.39750   2
 -20   8   6 0.51204 1.79653   1
  20   8  -6 -1.7451  1.6835   3
  18  -8  -6 8.98120 2.15838   2
 -18   8   6 8.24157 2.40201   1
  18   8  -6 10.1131  1.9588   2
  16  -8  -6 30.9574  3.0378   2
 -16   8   6 25.2948  3.2338   1
  16   8  -6 29.0545  2.8300   2
  14  -8  -6 36.6966  3.2941   2
  14   8  -6 40.8672  3.2435   2
 -14   8   6 27.9154  3.3530   1
  12  -8  -6 107.087   5.580   2
  12   8  -6 120.251   5.705   2
  10  -8  -6 57.6395  3.8416   1
  10  -8  -6 54.6148  3.6976   2
  10   8  -6 53.6708  3.8060   2
   8  -8  -6 21.0157  2.5390   1
   8  -8  -6 15.2985  2.1911   2
   8   8  -6 16.3294  2.2997   2
   6  -8  -6 13.8712  2.0402   2
   6  -8  -6 11.9484  2.1423   1
   6   8  -6 13.9480  2.2700   2
   4  -8  -6 3.57092 1.59339   1
   4   8  -6 3.59969 1.52357   2
  -4   8   6 5.07097 1.30961   3
   2  -8  -6 1.06159 1.38075   1
  -2   8   6 -1.2274  1.1174   3
   2   8  -6 0.50054 1.46138   2
   0  -8   6 62.7664  3.8900   3
   0  -8  -6 68.4049  3.7537   1
   0   8  -6 67.6325  4.1855   2
   0   8   6 71.1212  3.7430   3
   2  -8   6 13.6669  2.2924   3
  -2  -8  -6 17.1986  2.2364   1
   2   8   6 20.3710  2.3994   3
  -2   8  -6 17.4235  2.6523   2
  -2   8  -6 18.0604  1.9693   1
   4  -8   6 113.348   5.606   3
  -4  -8  -6 120.249   5.328   1
   4   8   6 116.226   5.477   3
  -4   8  -6 122.122   6.224   2
  -4   8  -6 124.708   5.140   1
  -6  -8  -6 9.95519 1.95120   1
   6  -8   6 9.56732 2.10034   3
  -6   8  -6 13.9568  1.9625   1
   6   8   6 11.0951  2.0477   3
  -6   8  -6 12.1090  2.3896   2
  -8  -8  -6 48.7917  3.2273   1
   8  -8   6 40.9515  3.4508   3
  -8   8  -6 41.2431  3.0679   1
   8   8   6 43.6583  3.5144   3
  10  -8   6 15.6801  2.4320   3
 -10  -8  -6 13.8767  2.0691   1
  10   8   6 12.5757  2.2983   3
 -10   8  -6 13.0224  2.1652   1
 -12  -8  -6 27.7936  2.5873   1
  12  -8   6 22.1596  2.6653   3
  12   8   6 22.2369  2.8110   3
 -12   8  -6 21.4189  2.4820   1
 -14  -8  -6 36.0768  2.7908   1
  14  -8   6 32.4404  2.9328   3
  14   8   6 31.0143  3.0095   3
 -14   8  -6 30.8964  3.0674   1
  16  -8   6 12.7433  2.2479   3
  16   8   6 9.82592 2.29615   3
 -16   8  -6 11.1352  2.1006   1
  18  -8   6 2.54329 1.77285   3
 -18   8  -6 3.71882 1.86754   1
  18   8   6 -1.8555  1.6422   3
  20  -8   6 2.21262 1.77777   3
  20   8   6 0.75593 1.76725   3
 -20   8  -6 2.22584 1.72517   1
  22  -8   6 0.07907 1.72428   3
 -22   8  -6 -2.5223  1.6557   1
  22   8   6 -0.1031  1.7663   3
  24  -8   6 5.09187 2.00028   3
 -24   8  -6 5.48126 2.20390   1
  24   8   6 4.50152 2.27115   3
  26  -8   6 4.12126 2.07455   3
  26   8   6 3.73058 2.25931   3
 -26   8  -6 4.51723 2.18815   1
  28   8   6 8.94506 2.70221   3
 -28   8  -6 12.7137  2.7057   1
  30   8   6 6.37099 2.53193   3
 -30   8  -6 7.13846 2.64545   1
 -32   8  -6 11.3461  2.8866   1
  32   8   6 12.9287  3.0181   3
  31  -9  -6 3.35637 2.37844   2
 -31   9   6 6.11809 2.65416   1
  31   9  -6 4.60425 2.64958   3
  29  -9  -6 14.8078  3.0827   2
  29   9  -6 10.4368  3.0002   3
 -29   9   6 11.9399  2.9756   1
  27  -9  -6 6.03699 2.42798   2
 -27   9   6 12.4821  2.8354   1
  27   9  -6 12.4691  2.9559   3
  25  -9  -6 1.70646 2.11935   2
  25   9  -6 3.31935 2.42402   3
 -25   9   6 4.38385 2.34153   1
  23  -9  -6 5.29454 2.09680   2
  23   9  -6 4.53648 2.44456   3
 -23   9   6 9.69945 2.71173   1
  21  -9  -6 12.2534  2.5791   2
  21   9  -6 10.1774  2.7087   3
 -21   9   6 9.90836 2.58375   1
  21   9  -6 10.6362  2.0254   2
  19  -9  -6 0.38760 1.80191   2
 -19   9   6 2.13380 2.12082   1
  19   9  -6 1.03946 1.51027   2
  17  -9  -6 33.8679  3.3670   2
 -17   9   6 34.4119  3.7856   1
  17   9  -6 39.7250  3.3372   2
  15  -9  -6 2.85889 1.69283   2
  15   9  -6 1.94653 1.59238   2
 -15   9   6 1.23282 1.89973   1
  13  -9  -6 68.5838  4.3140   2
  13   9  -6 68.1899  4.2545   2
 -13   9   6 57.9742  4.2612   1
  11  -9  -6 5.75917 1.92540   2
  11   9  -6 11.3729  2.3284   2
 -11   9   6 4.11263 2.09303   1
   9  -9  -6 117.426   5.846   2
   9   9  -6 122.611   5.951   2
   7  -9  -6 8.70261 2.17896   1
   7   9  -6 7.99111 2.12755   2
   5  -9  -6 18.4703  2.5729   1
   5   9  -6 23.0450  2.8923   2
   3  -9  -6 -0.7501  1.5843   1
   3   9  -6 1.09130 1.66386   2
   1  -9  -6 10.5276  2.1758   1
   1   9  -6 10.0528  2.4491   2
  -1   9   6 12.8442  2.1945   3
  -1  -9  -6 11.8412  2.2312   1
  -1   9  -6 8.39612 2.48878   2
   1   9   6 13.1235  2.2764   3
  -3  -9  -6 54.1860  3.6376   1
   3  -9   6 47.2279  3.7054   3
   3   9   6 53.0114  3.7878   3
  -3   9  -6 50.9799  4.3802   2
   5  -9   6 24.9610  3.0181   3
  -5  -9  -6 22.2645  2.7067   1
  -5   9  -6 21.8857  3.4206   2
   5   9   6 23.8574  2.8566   3
  -7  -9  -6 68.2711  4.1329   1
   7  -9   6 67.5771  4.4363   3
   7   9   6 85.7526  4.7156   3
  -7   9  -6 71.8054  4.9360   2
  -7   9  -6 78.3532  4.0707   1
  -9  -9  -6 12.4447  2.0727   1
   9  -9   6 13.4180  2.5305   3
  -9   9  -6 7.94167 2.62495   2
  -9   9  -6 16.4468  2.3527   1
   9   9   6 15.4105  2.4900   3
  11  -9   6 82.3314  4.7124   3
 -11   9  -6 77.2701  4.4618   1
  11   9   6 87.1020  4.8854   3
  13  -9   6 15.1559  2.5963   3
 -13   9  -6 12.6485  2.3367   1
  13   9   6 9.48762 2.47243   3
  15  -9   6 36.6235  3.3636   3
  15   9   6 30.7251  3.5114   3
 -15   9  -6 33.9430  3.2183   1
  17  -9   6 8.22659 2.16449   3
 -17   9  -6 8.46521 2.24859   1
  17   9   6 4.35865 2.25348   3
  19  -9   6 2.26754 1.70463   3
 -19   9  -6 -0.3309  1.6806   1
  19   9   6 0.87032 2.04156   3
  21  -9   6 1.60743 1.77858   3
  21   9   6 2.56033 2.15530   3
 -21   9  -6 1.89120 1.96939   1
  23  -9   6 0.31573 1.91209   3
  23   9   6 3.15827 2.24587   3
 -23   9  -6 2.14393 2.01439   1
 -25   9  -6 13.4709  2.6799   1
  25   9   6 6.36806 2.39055   3
  27   9   6 7.50742 2.64413   3
 -27   9  -6 8.80602 2.68788   1
 -29   9  -6 15.5986  3.0955   1
  29   9   6 12.9657  3.0087   3
  28 -10  -6 5.20333 2.70814   2
  26 -10  -6 8.23613 2.77445   2
 -26  10   6 13.9096  3.2049   1
  26  10  -6 10.1353  2.9406   3
  24 -10  -6 -0.1458  1.8733   2
  24  10  -6 -0.7993  2.2818   3
  22 -10  -6 23.0172  3.3746   2
 -22  10   6 17.5628  3.2860   1
  22  10  -6 12.2973  3.0467   3
  20 -10  -6 1.94620 2.08145   2
 -20  10   6 -0.5033  2.2841   1
  20  10  -6 0.13994 2.16636   3
  18 -10  -6 32.7287  3.8294   2
  18  10  -6 33.5988  3.1892   2
 -18  10   6 31.4742  3.9154   1
  16 -10  -6 20.8138  3.0988   2
 -16  10   6 21.1386  3.2546   1
  16  10  -6 22.0796  2.9501   2
  14  10  -6 24.7251  3.0981   2
 -14  10   6 23.2426  3.2410   1
 -12  10   6 7.34202 2.19773   1
  12  10  -6 11.5670  2.4834   2
 -10  10   6 15.9662  2.6610   1
  10  10  -6 24.4671  3.1246   2
   8  10  -6 12.4112  2.4437   2
  -8  10   6 8.43258 2.35995   1
   6  10  -6 21.1676  3.0192   2
   4 -10  -6 17.6480  2.6324   1
   4  10  -6 20.4505  2.9336   2
   2 -10  -6 14.0204  2.5264   1
   2  10  -6 16.5396  2.8653   2
   0 -10  -6 28.3789  3.1487   1
   0  10  -6 31.0221  3.8201   2
  -2 -10  -6 25.8697  2.9815   1
  -2  10  -6 25.5701  3.5820   2
   2  10   6 23.8973  2.9926   3
  -4 -10  -6 55.4869  3.8376   1
  -4  10  -6 58.4617  4.7614   2
   4  10   6 57.0663  4.1126   3
   6 -10   6 20.0303  2.9104   3
   6  10   6 16.8920  2.7869   3
  -6  10  -6 15.7909  3.1890   2
   8 -10   6 37.9264  3.4352   3
   8  10   6 37.2960  3.5682   3
  -8  10  -6 37.1442  4.4233   2
  10 -10   6 13.4671  2.5487   3
 -10  10  -6 7.92780 2.85049   2
  10  10   6 12.1172  2.5900   3
  12 -10   6 42.6426  3.6609   3
 -12  10  -6 42.2352  3.4897   1
 -12  10  -6 34.6051  4.4702   2
  12  10   6 46.6852  3.9335   3
  14 -10   6 7.62201 2.35941   3
 -14  10  -6 6.56655 2.20600   1
  14  10   6 3.88092 2.24541   3
  16 -10   6 35.4435  3.4477   3
 -16  10  -6 37.9402  3.5150   1
  16  10   6 38.0157  4.0006   3
  18 -10   6 1.24733 1.87287   3
  18  10   6 2.02842 2.20724   3
 -18  10  -6 1.80932 2.00466   1
  20 -10   6 4.33254 2.15472   3
 -20  10  -6 2.38703 1.94961   1
  20  10   6 6.67159 2.39393   3
 -22  10  -6 1.64513 2.08947   1
  22  10   6 5.15009 2.50476   3
 -24  10  -6 4.77702 2.33642   1
  24  10   6 0.73675 2.29368   3
 -26  10  -6 -2.0889  2.0838   1
 -23  11   6 0.52562 2.37751   1
 -21  11   6 37.8985  4.4157   1
  21  11  -6 33.1635  4.4705   3
 -19  11   6 12.1242  3.1114   1
  19  11  -6 9.10371 2.95970   3
 -17  11   6 37.1311  4.2433   1
 -15  11   6 1.13051 2.07496   1
  15  11  -6 4.83074 2.09144   2
  13  11  -6 22.6785  3.1471   2
 -13  11   6 14.9201  2.8893   1
 -11  11   6 1.77705 1.97859   1
  11  11  -6 0.17209 1.86427   2
  -9  11   6 20.4393  3.1054   1
   9  11  -6 23.8063  3.3405   2
  -7  11   6 3.07062 2.20289   1
   7  11  -6 1.66622 2.03542   2
   5  11  -6 48.6905  4.2083   2
  -5  11   6 44.0759  4.0554   1
   3  11  -6 6.82932 2.47837   2
   1 -11  -6 56.2905  4.2137   1
   1  11  -6 61.9376  4.8156   2
  -1  11  -6 3.14929 2.21993   2
  -3  11  -6 70.0278  5.3433   2
  -5  11  -6 0.10256 2.17740   2
  -7  11  -6 26.2312  3.9482   2
   7  11   6 29.0467  3.5137   3
  -9  11  -6 17.2198  3.5379   2
   9  11   6 17.9733  3.0436   3
  11 -11   6 13.6800  2.9137   3
  11  11   6 15.1699  2.9588   3
 -11  11  -6 16.7300  3.4262   2
  13 -11   6 16.8344  3.0657   3
  13  11   6 14.9467  2.8712   3
 -13  11  -6 15.1982  3.3604   2
  15 -11   6 20.3700  3.1281   3
 -15  11  -6 18.3680  3.6504   2
  15  11   6 7.30629 2.66777   3
  17 -11   6 15.3176  2.9453   3
  17  11   6 12.8299  3.0940   3
 -19  11  -6 9.33904 2.58131   1
  19  11   6 10.8199  2.8629   3
 -21  11  -6 9.09623 2.64898   1
  21  11   6 9.62589 2.87081   3
 -23  11  -6 12.5851  2.9026   1
 -16  12   6 5.56698 2.75132   1
 -14  12   6 36.5812  4.3423   1
 -12  12   6 19.0791  3.3694   1
  12  12  -6 27.1264  3.5827   2
  10  12  -6 14.9514  2.9601   2
 -10  12   6 12.6491  2.9276   1
   8  12  -6 26.4831  3.6855   2
  -8  12   6 24.2608  3.5457   1
   6  12  -6 7.31926 2.54254   2
  -6  12   6 -0.5317  2.0700   1
   4  12  -6 17.7704  3.4164   2
   2  12  -6 12.9811  3.0521   2
   0  12  -6 17.5386  3.4001   2
  -2  12  -6 21.6595  3.6098   2
  -4  12  -6 25.6956  4.0184   2
  -6  12  -6 9.15499 2.96496   2
  -8  12  -6 27.2422  4.3784   2
 -10  12  -6 1.94485 2.41958   2
 -12  12  -6 19.6480  3.7952   2
  12  12   6 19.4074  3.3981   3
  14  12   6 -1.3229  2.2128   3
  16  12   6 22.8756  3.5493   3
   7  13  -6 9.56575 2.87570   2
   5  13  -6 4.86635 2.53872   2
  44   0  -7 -1.1188  1.9458   2
  42   0  -7 6.96525 2.41787   2
  40   0  -7 4.22089 2.06776   2
  38   0  -7 1.02030 1.85171   2
  36   0  -7 0.41539 1.71936   2
  34   0  -7 3.19776 1.73462   2
 -32   0   7 2.33116 1.62110   1
  32   0  -7 3.72939 1.70850   2
 -30   0   7 -1.7818  1.2976   1
  30   0  -7 1.38250 1.45073   2
 -28   0   7 0.63692 1.23490   1
  28   0  -7 3.33189 1.40109   2
  26   0  -7 0.66469 0.96216   3
 -26   0   7 -1.7267  1.0985   1
  26   0  -7 -0.2192  1.0264   2
  24   0  -7 -1.1630  0.8917   2
 -24   0   7 -1.3897  0.9252   1
  24   0  -7 -1.3354  0.8334   3
 -22   0   7 -0.5058  0.9925   1
  22   0  -7 -0.4151  0.8061   3
  22   0  -7 0.63524 1.03394   2
  20   0  -7 0.00535 0.69335   3
 -20   0   7 1.93884 0.93767   1
  20   0  -7 -1.0366  0.7909   2
 -18   0   7 -0.1637  0.7636   1
  18   0  -7 -1.5941  0.7054   2
  18   0  -7 -0.4973  0.3793   3
 -16   0   7 0.28216 0.73408   1
  16   0  -7 0.91681 0.65162   3
  16   0  -7 0.83338 0.73153   2
  14   0  -7 0.01244 0.44653   2
  14   0  -7 -1.0539  0.5427   3
  12   0  -7 0.45675 0.52447   2
  12   0  -7 1.69788 0.79411   1
  10   0  -7 -1.1449  0.5396   1
  10   0  -7 0.94317 0.55536   2
   8   0  -7 0.80010 0.58637   1
   8   0  -7 -0.0130  0.4453   2
   6   0  -7 0.28056 0.50314   1
   6   0  -7 -0.2575  0.2427   2
  -6   0   7 0.07424 0.41338   3
  -4   0   7 0.40399 0.43715   3
   4   0  -7 -0.6402  0.3814   2
   4   0  -7 -0.0407  0.4959   1
   2   0  -7 -0.9317  0.4242   2
  -2   0   7 1.34061 0.51213   3
   2   0  -7 -0.9825  0.4685   1
   0   0  -7 0.29783 0.50018   1
   0   0   7 -0.5925  0.4241   3
   0   0  -7 -0.2361  0.4181   2
   2   0   7 -0.5457  0.5140   3
  -2   0  -7 0.12028 0.42860   2
  -2   0  -7 -0.5651  0.5351   1
   4   0   7 0.19753 0.62134   3
  -4   0  -7 -0.4801  0.5815   1
  -4   0  -7 -0.4994  0.4624   2
   6   0   7 -1.0965  0.7030   3
  -6   0  -7 -1.4803  0.6943   1
  -8   0  -7 -1.3295  0.5755   2
   8   0   7 1.58037 0.86777   3
  -8   0  -7 1.21620 0.72559   1
 -10   0  -7 -0.2645  0.2798   1
  10   0   7 -1.4171  0.8000   3
 -10   0  -7 0.99532 0.56527   2
  12   0   7 0.53267 0.84086   3
 -12   0  -7 -0.1723  0.7006   1
 -14   0  -7 -0.5401  0.7572   1
  14   0   7 -0.4219  0.2647   3
  16   0   7 -0.3644  0.6681   3
 -16   0  -7 -0.6306  0.8412   1
 -18   0  -7 -0.4411  0.8893   1
  18   0   7 -0.4473  0.5057   3
  20   0   7 -1.0989  1.0618   3
 -20   0  -7 -0.4209  0.9569   1
  22   0   7 1.00198 1.28202   3
 -22   0  -7 -0.1058  1.0409   1
 -24   0  -7 0.99115 1.29135   1
  24   0   7 1.26240 1.42812   3
 -26   0  -7 -1.5305  1.3995   1
  26   0   7 0.71808 1.58719   3
 -28   0  -7 1.20877 1.71050   1
  28   0   7 5.50716 1.99313   3
 -30   0  -7 3.44384 1.74202   1
  30   0   7 2.63172 1.94923   3
  32   0   7 1.49486 1.99655   3
 -32   0  -7 0.79460 1.70221   1
  34   0   7 1.57987 2.08103   3
 -34   0  -7 -0.3275  1.6175   1
 -36   0  -7 -0.8168  1.6612   1
  36   0   7 -3.5146  1.9195   3
  38   0   7 -0.5273  2.0846   3
 -38   0  -7 -3.0852  1.6587   1
  40   0   7 -3.4103  1.9719   3
 -40   0  -7 -2.3398  1.6624   1
 -42   0  -7 -2.5237  1.8630   1
  42   0   7 1.27587 2.39409   3
  45  -1  -7 3.37779 2.24782   2
  43  -1  -7 -0.6848  1.9362   2
  41  -1  -7 0.69885 1.95186   2
  41   1  -7 2.99306 2.08517   2
  39  -1  -7 0.81556 1.91905   2
  39   1  -7 -0.9159  1.7698   2
  37  -1  -7 5.11326 2.04240   2
  37   1  -7 6.24948 1.99782   2
  35  -1  -7 26.8951  2.9929   2
 -35   1   7 24.3301  2.7855   1
  35   1  -7 25.6837  2.7647   2
  33  -1  -7 3.12025 1.79974   2
  33   1  -7 3.91355 1.65826   2
 -33   1   7 0.83643 1.65366   1
  31  -1  -7 27.5902  2.8629   2
  31   1  -7 28.5763  2.3843   3
 -31   1   7 27.4059  2.7780   1
  31   1  -7 29.8703  2.5682   2
  29  -1  -7 -0.5437  1.3807   2
  29   1  -7 1.37307 1.13612   2
 -29   1   7 1.83047 1.38876   1
  29   1  -7 1.16266 1.18853   3
  27  -1  -7 17.4161  2.1377   2
 -27  -1   7 16.8210  1.7679   1
  27   1  -7 16.3683  1.7982   3
 -27   1   7 14.6609  1.9508   1
  27   1  -7 16.8907  1.9519   2
 -25  -1   7 26.5156  2.0399   1
  25  -1  -7 24.9760  2.2689   2
  25   1  -7 23.0133  2.1129   2
  25   1  -7 28.1503  2.1700   3
 -25   1   7 25.9974  2.2979   1
 -23  -1   7 7.95713 1.31476   1
  23  -1  -7 10.5134  1.1883   3
  23  -1  -7 9.20438 1.65181   2
  23   1  -7 9.38947 1.46011   3
  23   1  -7 8.95638 1.57154   2
 -23   1   7 9.44245 1.64827   1
  21  -1  -7 3.60395 1.24402   2
  21  -1  -7 0.15389 0.57988   3
 -21  -1   7 2.61948 0.99058   1
  21   1  -7 1.53491 1.04662   3
  21   1  -7 2.50719 1.10000   2
 -21   1   7 3.32195 1.23486   1
  19  -1  -7 0.40672 0.54172   3
  19  -1  -7 0.81131 0.83290   2
 -19  -1   7 0.63329 0.38520   1
  19   1  -7 -0.3877  0.8672   2
 -19   1   7 -1.9099  0.9567   1
  19   1  -7 0.36323 0.90038   3
  17  -1  -7 171.758   6.763   2
  17  -1  -7 190.669   6.166   3
 -17  -1   7 180.656   6.367   1
  17   1  -7 188.025   6.729   3
  17   1  -7 191.423   6.811   2
 -17   1   7 187.514   6.825   1
  15  -1  -7 35.3894  1.5454   3
 -15  -1   7 33.3913  1.8250   1
  15   1  -7 36.2749  2.0128   2
  13  -1  -7 18.1428  1.0005   3
  13  -1  -7 16.7687  1.6093   1
  13  -1  -7 17.2450  1.5713   2
  13   1  -7 17.0205  1.3899   2
  11  -1  -7 199.305   6.481   3
  11  -1  -7 201.668   7.134   2
  11  -1  -7 206.475   6.980   1
  11   1  -7 207.458   6.653   1
   9  -1  -7 76.4736  3.0390   2
   9  -1  -7 72.3547  3.0160   1
   9   1  -7 72.2166  2.6896   1
   7  -1  -7 243.437   7.933   1
   7  -1  -7 207.297   7.961   2
  -7  -1   7 239.514   7.887   3
   7   1  -7 246.051   7.631   1
  -7   1   7 241.882   7.510   3
   7   1  -7 246.838   8.195   2
  -5  -1   7 307.873   9.954   3
   5  -1  -7 302.780   9.913   1
   5   1  -7 303.247   9.663   1
  -5   1   7 306.708   9.622   3
   3  -1  -7 108.815   3.872   2
   3  -1  -7 108.388   3.945   1
  -3  -1   7 109.213   3.905   3
  -3   1   7 109.794   3.626   3
   3   1  -7 105.472   3.718   1
   1  -1  -7 360.793  11.582   1
  -1  -1   7 386.723  11.702   3
   1  -1  -7 376.859  11.681   2
   1   1  -7 301.896  11.831   2
  -1   1   7 370.702  11.430   3
   1   1  -7 369.236  11.421   1
  -1  -1  -7 40.4348  1.6732   2
  -1  -1  -7 42.0025  1.9361   1
   1  -1   7 39.8981  1.8643   3
  -1   1  -7 39.2609  1.7570   1
   1   1   7 41.6762  1.7256   3
  -1   1  -7 38.6843  1.9662   2
  -3  -1  -7 82.2823  2.8000   2
   3  -1   7 80.1018  3.0896   3
  -3  -1  -7 66.7631  3.0144   1
  -3   1  -7 83.0661  3.2109   2
   3   1   7 81.1510  2.9590   3
  -3   1  -7 76.4773  3.0131   1
   5  -1   7 29.3891  1.7475   3
  -5  -1  -7 30.6314  1.2944   2
   5   1   7 30.0622  1.5881   3
  -5   1  -7 29.9991  1.6558   1
  -5   1  -7 23.7166  1.6521   2
  -7  -1  -7 382.385  11.556   2
   7  -1   7 360.648  11.898   3
   7   1   7 351.264  11.781   3
  -7   1  -7 360.884  11.778   1
  -7   1  -7 358.404  12.024   2
  -9  -1  -7 339.543  11.248   1
  -9  -1  -7 359.690  10.916   2
   9  -1   7 315.269  11.263   3
   9   1   7 350.578  11.271   3
  -9   1  -7 345.354  11.249   1
  11  -1   7 0.13084 0.19042   3
 -11  -1  -7 0.70614 0.76003   1
 -11  -1  -7 0.58188 0.41204   2
 -11   1  -7 0.79452 0.82234   1
  11   1   7 0.76688 0.82870   3
 -13  -1  -7 55.2742  2.1444   2
 -13  -1  -7 60.5682  2.8249   1
  13  -1   7 52.4268  2.6055   3
  13   1   7 56.3274  2.6469   3
 -15  -1  -7 74.5376  3.3689   1
  15  -1   7 76.9269  3.4717   3
  15   1   7 72.8290  3.3593   3
  17  -1   7 2.75036 1.13717   3
 -17  -1  -7 3.41634 1.02382   1
  17   1   7 -0.4642  0.2832   3
 -17   1  -7 0.92088 0.60732   1
  19  -1   7 20.5747  2.0184   3
 -19  -1  -7 15.6065  1.7326   1
 -19   1  -7 12.9517  1.6683   1
 -21  -1  -7 46.0079  2.7868   1
  21  -1   7 44.0768  2.8991   3
  21   1   7 50.1959  2.9006   3
 -21   1  -7 48.7789  2.8910   1
  23  -1   7 2.78776 1.16663   2
  23  -1   7 2.91652 1.51095   3
 -23  -1  -7 1.63991 1.39489   1
 -23   1  -7 2.37282 1.35255   1
  23   1   7 3.91442 1.48124   3
  25  -1   7 1.56208 1.62103   3
 -25  -1  -7 -0.0834  1.3329   1
  25   1   7 0.91562 1.55886   3
 -25   1  -7 2.06483 1.45865   1
 -27  -1  -7 4.19134 1.87038   1
  27  -1   7 4.13263 1.96444   3
 -27   1  -7 5.99260 1.81809   1
  27   1   7 6.72469 1.93891   3
 -29  -1  -7 6.74131 1.91051   1
  29  -1   7 2.08686 1.95905   3
  29   1   7 4.63991 2.01230   3
 -29   1  -7 6.52409 2.02235   1
  31  -1   7 10.0988  2.5024   3
 -31  -1  -7 13.8159  2.3488   1
 -31   1  -7 15.0108  2.4436   1
  31   1   7 12.7404  2.4740   3
  33  -1   7 4.03249 2.20494   3
 -33  -1  -7 4.84225 1.83477   1
 -33   1  -7 5.32839 2.03407   1
  33   1   7 2.36367 2.05956   3
  35  -1   7 4.19661 2.15582   3
 -35  -1  -7 3.21384 1.90608   1
  35   1   7 3.12733 2.19934   3
 -35   1  -7 3.84733 1.94322   1
  37  -1   7 -0.9590  1.9586   3
 -37  -1  -7 -1.0590  1.6590   1
  37   1   7 -2.9587  1.9909   3
 -37   1  -7 0.36621 1.91527   1
 -39  -1  -7 -3.2123  1.7137   1
  39  -1   7 1.48304 2.03999   3
  39   1   7 0.58468 2.37505   3
 -39   1  -7 -1.6173  1.9220   1
  41  -1   7 0.48242 2.14710   3
 -41  -1  -7 0.63341 1.90092   1
  41   1   7 -2.0352  2.3381   3
 -41   1  -7 -0.1167  2.0537   1
 -43  -1  -7 -2.4622  1.9290   1
  44  -2  -7 -0.4596  2.1552   2
  42  -2  -7 2.21652 2.21408   2
  40  -2  -7 7.91169 2.45889   2
  40   2  -7 5.59792 2.13308   2
  38  -2  -7 7.56287 2.10202   2
 -38   2   7 3.39567 2.09615   1
  38   2  -7 5.47925 2.07684   2
  36  -2  -7 8.03436 2.22505   2
  36   2  -7 11.9647  2.2210   2
 -36   2   7 10.9106  2.3209   1
  34  -2  -7 20.0522  2.6605   2
 -34   2   7 18.1321  2.5844   1
  34   2  -7 19.1116  2.4042   2
  34   2  -7 18.0813  2.3453   3
  32  -2  -7 24.7670  2.8694   2
 -32   2   7 24.6559  2.7517   1
  32   2  -7 23.3563  2.4844   2
  32   2  -7 24.9624  2.4252   3
  30  -2  -7 30.3750  2.7973   2
  30   2  -7 32.8484  2.5267   2
 -30   2   7 28.5677  2.6903   1
  30   2  -7 31.0543  2.5575   3
  28  -2  -7 45.0886  3.0985   2
  28   2  -7 54.2971  3.1384   3
  28   2  -7 49.7927  2.9928   2
 -28   2   7 49.6948  3.2377   1
  26  -2  -7 14.5924  1.9807   2
  26   2  -7 13.8901  1.8896   3
 -26   2   7 16.8643  2.0878   1
  26   2  -7 15.6216  1.8439   2
  24  -2  -7 54.5557  3.1574   2
  24   2  -7 50.9133  2.8319   2
  24   2  -7 54.1454  3.1616   3
 -24   2   7 50.6566  3.2684   1
  22  -2  -7 1.26248 1.16611   2
  22   2  -7 2.87609 1.14064   2
 -22   2   7 -0.0863  1.4549   1
  22   2  -7 -0.5596  1.2647   3
 -20  -2   7 24.4407  1.6490   1
 -20   2   7 24.3845  2.3979   1
  20   2  -7 29.8522  2.1526   2
  20   2  -7 23.6693  2.3150   3
  18  -2  -7 197.096   6.144   3
 -18  -2   7 177.243   6.261   1
 -18   2   7 180.223   7.116   1
  18   2  -7 196.382   7.013   2
  18   2  -7 189.386   7.128   3
  16  -2  -7 2.98302 0.43284   3
  16  -2  -7 0.81500 0.89218   2
 -16  -2   7 1.77027 0.63752   1
  16   2  -7 2.55348 0.93312   2
 -14  -2   7 397.688  12.728   1
  14  -2  -7 411.544  13.444   1
  14  -2  -7 410.476  13.724   2
  14   2  -7 413.540  13.684   2
  12  -2  -7 43.5981  2.4064   2
  12  -2  -7 50.0019  2.5244   1
 -12  -2   7 48.6985  1.8403   1
  12   2  -7 44.9010  2.3469   2
  10  -2  -7 182.913   6.519   1
  10  -2  -7 194.417   6.627   2
  10   2  -7 181.779   5.857   1
  10   2  -7 178.662   6.630   2
   8  -2  -7 385.075  12.361   2
   8  -2  -7 369.149  12.148   1
  -8  -2   7 368.760  12.201   3
   8   2  -7 366.758  11.541   1
   6  -2  -7 16.8415  1.4076   1
  -6  -2   7 13.6822  1.2767   3
   6   2  -7 19.7751  0.9773   1
   6   2  -7 14.7625  1.2965   2
   4  -2  -7 754.271  24.077   1
   4  -2  -7 744.664  24.450   2
  -4  -2   7 769.669  24.360   3
   4   2  -7 781.952  24.830   2
  -4   2   7 770.706  23.815   3
   4   2  -7 792.673  23.647   1
  -2  -2   7 15.8979  1.2926   3
   2  -2  -7 14.4773  1.2434   1
   2  -2  -7 16.6392  1.0409   2
   2   2  -7 14.6691  0.9402   1
  -2   2   7 16.2915  0.8854   3
   2   2  -7 16.0765  1.4124   2
   0  -2  -7 35.6789  1.4817   2
   0  -2   7 31.6122  1.7960   3
   0   2  -7 33.0415  1.5249   1
   0   2   7 33.1359  1.4677   3
   0   2  -7 33.0960  1.8511   2
  -2  -2  -7 100.462   3.306   2
   2  -2   7 94.6538  3.7100   3
  -2   2  -7 92.1970  3.4554   1
   2   2   7 97.1836  3.4419   3
  -2   2  -7 89.8504  3.8313   2
  -4  -2  -7 474.369  15.038   1
  -4  -2  -7 488.965  14.808   2
   4  -2   7 472.058  15.203   3
   4   2   7 464.751  14.977   3
  -4   2  -7 454.036  15.479   2
  -4   2  -7 459.824  14.846   1
  -6  -2  -7 220.819   7.436   1
   6  -2   7 187.051   7.389   3
   6   2   7 228.081   7.358   3
  -6   2  -7 224.795   7.364   1
  -6   2  -7 223.549   7.726   2
  -8  -2  -7 255.889   8.641   1
   8   2   7 252.287   8.573   3
  -8   2  -7 255.062   8.589   1
 -10  -2  -7 117.086   4.587   1
  10  -2   7 124.206   4.643   3
  10   2   7 118.843   4.545   3
 -10   2  -7 118.619   4.635   1
 -12  -2  -7 8.65198 1.20272   1
  12  -2   7 9.25990 1.20560   3
  12   2   7 7.77217 1.19198   3
 -12   2  -7 6.67065 1.26405   1
 -14  -2  -7 276.560   9.524   1
  14  -2   7 276.340   9.583   3
 -14   2  -7 276.163   9.597   1
  14   2   7 279.412   9.594   3
  16  -2   7 26.5655  2.0680   3
 -16  -2  -7 23.6497  1.8918   1
  16   2   7 20.5539  1.7774   3
 -18  -2  -7 108.812   4.551   1
  18  -2   7 104.090   4.568   3
 -20  -2  -7 8.17169 1.47229   1
  20  -2   7 7.54254 1.52423   3
  20   2   7 5.11984 1.28367   3
  22  -2   7 8.59347 1.72948   3
 -22  -2  -7 9.24156 1.66814   1
  22   2   7 7.77515 1.66423   3
 -22   2  -7 9.54527 1.75011   1
 -24  -2  -7 45.1381  3.0824   1
  24  -2   7 37.7629  3.0254   3
 -24   2  -7 37.9514  2.9893   1
  24   2   7 40.3663  3.0031   3
  26  -2   7 29.5828  2.9777   3
 -26  -2  -7 29.8495  2.8397   1
 -26   2  -7 35.7388  2.9375   1
  26   2   7 31.1800  2.8106   3
  28  -2   7 16.9655  2.6279   3
 -28  -2  -7 20.3869  2.4671   1
  28   2   7 19.5322  2.5747   3
 -28   2  -7 19.8756  2.5233   1
 -30  -2  -7 28.5663  2.9124   1
  30  -2   7 31.8732  3.2149   3
  30   2   7 34.6108  3.2011   3
 -30   2  -7 32.7444  3.0426   1
 -32  -2  -7 12.7843  2.2886   1
  32  -2   7 14.4053  2.6571   3
  32   2   7 16.3962  2.6027   3
 -32   2  -7 14.4776  2.5005   1
 -34  -2  -7 11.4636  2.2852   1
  34  -2   7 11.2507  2.5882   3
 -34   2  -7 5.27632 2.18575   1
  34   2   7 4.89854 2.33710   3
  36  -2   7 4.06805 2.12643   3
 -36  -2  -7 -0.0673  1.8285   1
 -36   2  -7 -0.6174  1.7773   1
  36   2   7 -0.4578  2.0921   3
 -38  -2  -7 1.65128 1.95961   1
  38  -2   7 5.23305 2.43350   3
  38   2   7 2.01396 2.35310   3
 -38   2  -7 0.90875 2.05257   1
 -40  -2  -7 -0.9050  1.8129   1
  40  -2   7 -1.8720  1.9599   3
  40   2   7 -2.4796  2.0812   3
 -40   2  -7 0.78924 1.96007   1
  42  -2   7 -1.4218  2.0010   3
  43  -3  -7 9.00971 2.76715   2
  41  -3  -7 4.89580 2.38725   2
 -41   3   7 4.70698 2.19600   1
  39  -3  -7 28.6083  3.6142   2
 -39   3   7 29.6405  3.4687   1
  37  -3  -7 8.25368 2.40996   2
  37   3  -7 6.04085 2.05654   2
 -37   3   7 5.43774 2.27604   1
  35  -3  -7 20.8667  2.9700   2
  35   3  -7 19.8969  2.4752   2
  35   3  -7 19.9908  2.7012   3
 -35   3   7 20.5847  2.8899   1
  33  -3  -7 6.33465 2.03331   2
 -33   3   7 4.60481 1.94620   1
  33   3  -7 5.59777 1.90981   3
  33   3  -7 5.26384 1.69204   2
  31  -3  -7 43.0918  3.3577   2
  31   3  -7 40.0420  3.1574   3
 -31   3   7 42.5846  3.2066   1
  31   3  -7 39.0069  2.8330   2
  29  -3  -7 1.86362 1.40170   2
 -29   3   7 -0.5890  1.3981   1
  29   3  -7 3.66177 1.38664   2
  29   3  -7 1.32407 1.42420   3
  27  -3  -7 30.2385  2.7028   2
 -27   3   7 34.8512  2.8899   1
  27   3  -7 32.6505  2.7891   3
  27   3  -7 29.3766  2.3468   2
  25  -3  -7 0.97332 1.18813   2
  25   3  -7 1.89670 1.09995   2
 -25   3   7 1.40721 1.46005   1
  25   3  -7 1.02664 1.35014   3
  23  -3  -7 63.2667  3.5512   2
 -23   3   7 57.5253  3.7121   1
  23   3  -7 68.5161  3.3551   2
  23   3  -7 64.4897  3.6367   3
  21   3  -7 59.7980  3.0907   2
 -21   3   7 49.8863  3.5645   1
  21   3  -7 51.3793  3.6236   3
  19   3  -7 458.049  15.002   2
 -19   3   7 429.551  15.043   1
  19   3  -7 438.340  15.139   3
  17  -3  -7 41.3324  2.7042   2
  17   3  -7 37.9600  2.4916   2
 -17   3   7 40.7376  3.0598   1
  15  -3  -7 665.803  21.676   1
  15  -3  -7 687.038  22.183   2
  15   3  -7 666.886  22.056   2
  13  -3  -7 17.7680  1.7999   1
  13  -3  -7 15.4746  1.6081   2
  13   3  -7 14.0154  1.5162   2
  11  -3  -7 341.539  11.542   2
  11  -3  -7 338.807  11.394   1
  11   3  -7 335.297  11.625   2
   9  -3  -7 76.1398  3.3210   2
   9  -3  -7 78.9128  3.4816   1
   9   3  -7 78.7635  3.5487   2
   7  -3  -7 545.228  17.210   2
  -7  -3   7 529.857  17.149   3
   7  -3  -7 523.983  16.976   1
   7   3  -7 503.648  17.448   2
   7   3  -7 530.651  16.130   1
  -5  -3   7 26.3024  1.9464   3
   5  -3  -7 31.4465  1.6574   2
   5   3  -7 29.4165  1.2566   1
  -5   3   7 28.3114  1.2243   3
  -3  -3   7 212.365   7.673   3
   3   3  -7 223.108   7.054   1
  -3   3   7 222.945   7.140   3
   3   3  -7 222.768   7.926   2
   1  -3  -7 489.728  15.304   2
  -1  -3   7 482.636  15.534   3
   1  -3  -7 459.348  15.279   1
   1   3  -7 477.655  15.856   2
  -1   3   7 470.062  15.039   3
   1   3  -7 470.053  14.832   1
  -1  -3  -7 19.5385  1.5204   1
   1  -3   7 16.4239  1.4204   3
  -1  -3  -7 18.7075  1.1200   2
  -1   3  -7 19.8512  1.2494   1
  -1   3  -7 15.1082  1.5133   2
   1   3   7 18.2797  1.1847   3
  -3  -3  -7 147.220   5.495   1
  -3  -3  -7 150.227   5.071   2
  -3   3  -7 149.854   5.809   2
   3   3   7 155.069   5.327   3
  -3   3  -7 152.094   5.281   1
  -5  -3  -7 702.305  22.875   1
  -5  -3  -7 743.977  22.795   2
  -5   3  -7 715.927  23.684   2
   5   3   7 744.816  23.043   3
  -5   3  -7 717.638  22.731   1
  -7  -3  -7 285.045   9.838   1
   7  -3   7 290.127  10.021   3
  -7   3  -7 294.232   9.800   1
   7   3   7 303.254   9.896   3
  -9  -3  -7 267.028   9.228   1
   9  -3   7 266.448   9.350   3
  -9   3  -7 267.240   9.201   1
   9   3   7 282.623   9.331   3
 -11  -3  -7 181.951   6.651   1
  11  -3   7 185.642   6.790   3
 -11   3  -7 184.559   6.706   1
  11   3   7 184.308   6.704   3
 -13  -3  -7 37.7274  2.3311   1
  13  -3   7 43.6569  2.4973   3
 -13   3  -7 38.1030  2.5564   1
  13   3   7 37.1008  2.3623   3
 -15  -3  -7 8.94779 1.41663   1
  15  -3   7 11.7019  1.5834   3
  15   3   7 7.80746 1.43577   3
 -15   3  -7 7.89803 1.48444   1
  17  -3   7 125.125   5.013   3
 -17  -3  -7 110.105   4.784   1
 -17   3  -7 115.021   5.002   1
  17   3   7 119.580   4.962   3
 -19  -3  -7 18.9132  2.0281   1
  19  -3   7 19.4284  2.0940   3
  19   3   7 19.2079  2.0505   3
 -19   3  -7 16.9482  2.0632   1
 -21  -3  -7 29.9728  2.5164   1
  21  -3   7 29.3808  2.5666   3
 -21   3  -7 29.6297  2.5157   1
  21   3   7 28.0573  2.4332   3
  23  -3   7 144.479   6.329   3
 -23  -3  -7 149.181   6.275   1
 -23   3  -7 150.892   6.472   1
  23   3   7 155.353   6.320   3
  25  -3   7 18.6296  2.4625   3
 -25  -3  -7 18.6677  2.3712   1
 -25   3  -7 21.1769  2.5732   1
  25   3   7 19.3966  2.3799   3
  27  -3   7 107.166   5.319   3
 -27  -3  -7 104.593   5.148   1
  27   3   7 109.528   5.241   3
 -27   3  -7 109.122   5.357   1
 -29  -3  -7 1.31011 1.52574   1
  29  -3   7 1.74922 1.71690   3
  29   3   7 3.57947 1.94849   3
 -29   3  -7 1.18420 1.79026   1
 -31  -3  -7 39.5461  3.2021   1
  31  -3   7 34.0660  3.4038   3
  31   3   7 37.2713  3.3846   3
 -31   3  -7 43.8384  3.4366   1
 -33  -3  -7 4.18183 1.94388   1
  33  -3   7 2.52032 1.95296   3
 -33   3  -7 2.58932 2.09297   1
  33   3   7 1.44779 1.97673   3
  35  -3   7 10.2749  2.4181   3
 -35  -3  -7 8.18102 2.21693   1
 -35   3  -7 8.18110 2.48763   1
  35   3   7 3.52084 2.27613   3
  37  -3   7 4.36501 2.12281   3
  37   3   7 -3.6254  2.0688   3
 -37   3  -7 1.08900 1.96317   1
  39  -3   7 4.16506 2.20020   3
 -39   3  -7 1.92961 2.05930   1
  39   3   7 0.60700 2.35605   3
  41  -3   7 5.14110 2.26368   3
 -44   4   7 6.06411 2.50444   1
  42  -4  -7 6.19283 2.67287   2
 -42   4   7 6.60247 2.46001   1
  40  -4  -7 38.4792  4.2703   2
 -40   4   7 45.4740  4.0510   1
  38  -4  -7 1.03436 2.15757   2
  38   4  -7 1.12823 2.08123   3
 -38   4   7 0.57055 2.06132   1
  36  -4  -7 108.994   6.229   2
  36   4  -7 113.710   5.558   2
 -36   4   7 120.110   6.192   1
  36   4  -7 113.323   5.879   3
  34  -4  -7 3.17940 2.05053   2
 -34   4   7 3.37332 2.13094   1
  34   4  -7 -0.5729  1.8925   3
  34   4  -7 1.70770 1.58559   2
  32  -4  -7 59.7163  4.0966   2
 -32   4   7 65.2604  4.2519   1
  32   4  -7 64.7073  4.1870   3
  32   4  -7 62.9232  3.6434   2
  30  -4  -7 25.5683  2.9227   2
  30   4  -7 28.0989  2.5242   2
  30   4  -7 29.8341  3.1316   3
 -30   4   7 23.2001  2.9346   1
  28  -4  -7 45.4354  3.3361   2
  28   4  -7 46.0395  3.5602   3
  28   4  -7 47.1432  2.9708   2
 -28   4   7 48.2959  3.5997   1
  26  -4  -7 66.8522  3.9468   2
  26   4  -7 68.4196  4.0780   3
  26   4  -7 66.1885  3.4587   2
 -26   4   7 70.5319  4.1047   1
  24  -4  -7 21.9621  2.5237   2
 -24   4   7 22.5233  2.6177   1
  24   4  -7 22.4280  2.6026   3
  24   4  -7 23.8607  2.0878   2
  22  -4  -7 24.2052  2.5305   2
  22   4  -7 20.1808  2.5153   3
 -22   4   7 18.2635  2.3992   1
  22   4  -7 18.1150  1.8214   2
  20  -4  -7 150.244   6.276   2
  20   4  -7 150.074   5.878   2
 -20   4   7 136.738   6.203   1
  20   4  -7 143.346   6.270   3
  18  -4  -7 74.6932  3.8980   2
  18   4  -7 70.9552  3.5865   2
 -18   4   7 65.9196  3.9166   1
  16  -4  -7 525.745  17.862   2
  16   4  -7 528.788  17.704   2
  14  -4  -7 227.620   8.364   1
  14  -4  -7 231.034   8.450   2
  14   4  -7 224.064   8.348   2
  12  -4  -7 94.8467  4.2448   1
  12  -4  -7 93.0655  4.1520   2
  12   4  -7 97.7753  4.2967   2
  10  -4  -7 98.6176  4.0016   2
  10  -4  -7 78.8214  3.9109   1
  10   4  -7 104.419   4.282   2
   8  -4  -7 78.4497  3.3947   2
  -8   4   7 75.4137  2.7105   3
   8   4  -7 77.1861  3.6100   2
   6  -4  -7 268.311   9.047   2
   6  -4  -7 262.380   9.088   1
  -6  -4   7 263.916   9.191   3
   6   4  -7 268.137   9.430   2
   6   4  -7 256.224   8.137   1
  -6   4   7 252.707   8.436   3
  -4  -4   7 120.750   4.835   3
   4  -4  -7 124.668   4.597   2
   4  -4  -7 123.318   4.803   1
   4   4  -7 118.641   4.006   1
  -4   4   7 116.131   4.213   3
  -2  -4   7 222.108   7.804   3
   2  -4  -7 214.891   7.657   1
  -2   4   7 216.456   7.254   3
   2   4  -7 212.637   7.018   1
   0  -4  -7 52.9082  2.5355   2
   0  -4  -7 65.2630  3.0271   1
   0   4  -7 65.3148  2.5502   1
   0   4  -7 66.6091  3.3575   2
   0   4   7 66.1917  2.7061   3
  -2  -4  -7 507.570  15.999   2
  -2  -4  -7 490.800  16.101   1
   2   4   7 503.374  16.047   3
  -2   4  -7 481.349  15.714   1
  -2   4  -7 498.583  16.799   2
  -4  -4  -7 213.827   7.035   2
   4  -4   7 213.179   7.670   3
  -4  -4  -7 203.583   7.438   1
  -4   4  -7 215.737   8.013   2
  -4   4  -7 211.688   7.217   1
   4   4   7 204.130   7.320   3
  -6  -4  -7 549.208  18.079   1
   6  -4   7 567.560  18.464   3
   6   4   7 573.066  18.236   3
  -6   4  -7 560.246  17.944   1
  -6   4  -7 556.611  18.905   2
  -8  -4  -7 6.90918 1.25304   1
   8  -4   7 9.00905 1.45171   3
  -8   4  -7 9.75446 1.37701   1
   8   4   7 8.81814 1.28783   3
  10  -4   7 337.743  11.860   3
 -10  -4  -7 342.342  11.648   1
 -10   4  -7 353.244  11.682   1
  10   4   7 350.918  11.792   3
 -12  -4  -7 220.844   7.792   1
  12  -4   7 212.256   7.945   3
 -12   4  -7 211.914   7.818   1
  12   4   7 219.876   7.924   3
  14  -4   7 112.780   4.837   3
 -14  -4  -7 104.807   4.617   1
 -14   4  -7 115.353   4.896   1
  14   4   7 119.424   4.950   3
 -16  -4  -7 3.85463 1.18704   1
  16  -4   7 5.05806 1.31448   3
 -16   4  -7 1.86995 1.34575   1
  16   4   7 3.20551 1.28029   3
 -18  -4  -7 93.2992  4.3048   1
  18  -4   7 87.6266  4.3468   3
  18   4   7 98.2963  4.4668   3
 -18   4  -7 95.6801  4.4651   1
  20  -4   7 2.13011 1.47160   3
 -20  -4  -7 -0.0863  1.1710   1
 -20   4  -7 2.94772 1.53011   1
  20   4   7 2.15386 1.35429   3
  22  -4   7 60.3705  3.6530   3
 -22  -4  -7 64.0850  3.6104   1
  22   4   7 60.3862  3.6825   3
 -22   4  -7 58.7974  3.6206   1
  24  -4   7 29.0791  2.9787   3
 -24  -4  -7 29.1683  2.7563   1
 -24   4  -7 24.9910  2.7432   1
  24   4   7 34.3105  2.8124   3
  26  -4   7 51.6920  3.5682   3
 -26  -4  -7 53.8960  3.5330   1
  26   4   7 55.9032  3.5774   3
 -26   4  -7 50.3319  3.5526   1
  28  -4   7 47.6251  3.6154   3
 -28  -4  -7 43.8523  3.3549   1
 -28   4  -7 45.9950  3.6004   1
  28   4   7 49.0336  3.4392   3
  30  -4   7 29.8603  3.2315   3
 -30  -4  -7 29.0532  3.0217   1
 -30   4  -7 30.1864  3.2384   1
  30   4   7 23.7625  2.9029   3
  32  -4   7 37.4332  3.4012   3
 -32  -4  -7 37.7861  3.3038   1
 -32   4  -7 35.7316  3.6677   1
  32   4   7 39.9483  3.4397   3
  34  -4   7 3.94910 2.13920   3
 -34   4  -7 -0.1328  1.9601   1
  34   4   7 0.47681 2.06782   3
  36  -4   7 8.49841 2.41083   3
  36   4   7 6.24308 2.55100   3
 -36   4  -7 9.63132 2.53947   1
  38  -4   7 8.67017 2.46361   3
 -38   4  -7 6.51859 2.55609   1
  38   4   7 5.02345 2.53980   3
  40  -4   7 5.36992 2.32333   3
  41  -5  -7 11.3652  2.9261   2
 -41   5   7 7.48880 2.58296   1
  39  -5  -7 22.5786  3.5250   2
  39   5  -7 28.3956  3.5174   3
 -39   5   7 26.2448  3.6365   1
  37  -5  -7 24.4633  3.6366   2
 -37   5   7 29.7291  3.6240   1
  37   5  -7 34.1989  3.6829   3
  35  -5  -7 80.1061  5.2499   2
  35   5  -7 77.5269  5.0057   3
 -35   5   7 71.9586  4.9749   1
  33  -5  -7 28.1829  3.4854   2
  33   5  -7 27.9441  2.6241   2
 -33   5   7 25.5485  3.3204   1
  33   5  -7 21.3243  3.0531   3
  31  -5  -7 77.2251  4.8858   2
  31   5  -7 93.1010  4.5081   2
  31   5  -7 92.5035  5.2070   3
 -31   5   7 77.1157  4.8867   1
  29  -5  -7 1.74710 1.70349   2
  29   5  -7 2.44949 1.40146   2
  29   5  -7 0.46322 1.80552   3
 -29   5   7 1.31014 1.70056   1
  27  -5  -7 58.0138  3.8258   2
  27   5  -7 56.8104  3.3086   2
 -27   5   7 57.0052  4.0590   1
  27   5  -7 55.7334  4.1029   3
  25  -5  -7 14.8531  2.3137   2
  25   5  -7 12.5229  2.4119   3
 -25   5   7 14.5646  2.4795   1
  25   5  -7 15.7005  1.9968   2
  23  -5  -7 182.744   7.957   2
 -23   5   7 204.445   8.341   1
  23   5  -7 193.945   7.507   2
  23   5  -7 194.799   8.280   3
  21  -5  -7 64.3287  3.8249   2
 -21   5   7 56.9038  3.9116   1
  21   5  -7 63.4916  3.4139   2
  21   5  -7 61.4940  4.1284   3
  19  -5  -7 246.878   9.365   2
  19   5  -7 227.305   8.881   2
 -19   5   7 252.974   9.474   1
  17  -5  -7 1.06802 1.18488   2
 -17   5   7 2.18866 1.49990   1
  17   5  -7 2.68622 1.16403   2
  15  -5  -7 551.858  18.768   2
  15   5  -7 552.539  18.673   2
  13  -5  -7 4.57072 1.28140   2
  13   5  -7 5.12597 1.41940   2
  11  -5  -7 507.438  16.946   2
  11   5  -7 494.893  17.057   2
   9  -5  -7 39.3857  2.4055   2
   9  -5  -7 35.9106  2.5466   1
   9   5  -7 39.3419  2.6776   2
  -9   5   7 39.0207  1.8361   3
   7  -5  -7 21.8912  1.7380   2
   7  -5  -7 21.0161  2.0768   1
   7   5  -7 24.8549  1.9894   2
  -7   5   7 19.9716  1.3855   3
   5  -5  -7 15.7569  1.8316   1
  -5  -5   7 14.8412  1.7776   3
   5  -5  -7 19.6096  1.5575   2
   5   5  -7 12.8125  1.6883   2
   5   5  -7 14.0116  0.9320   1
  -5   5   7 12.9908  1.2515   3
   3  -5  -7 310.158  10.365   2
   3  -5  -7 298.896  10.444   1
   3   5  -7 291.988   9.635   1
  -3   5   7 298.521  10.036   3
   3   5  -7 312.139  10.948   2
   1  -5  -7 153.531   5.529   2
   1  -5  -7 147.436   5.790   1
   1   5  -7 149.487   5.185   1
  -1   5   7 145.048   5.434   3
  -1  -5  -7 476.133  15.894   1
   1  -5   7 493.431  16.247   3
   1   5   7 484.089  15.809   3
  -1   5  -7 482.949  15.419   1
  -3  -5  -7 160.225   6.103   1
   3  -5   7 151.944   6.303   3
   3   5   7 163.923   5.993   3
  -3   5  -7 159.494   5.756   1
  -3   5  -7 166.277   6.731   2
  -5  -5  -7 760.229  24.654   1
   5  -5   7 769.707  25.154   3
  -5   5  -7 769.577  24.408   1
  -5   5  -7 803.291  25.816   2
   5   5   7 765.758  24.871   3
  -7  -5  -7 417.731  13.606   1
   7  -5   7 408.458  13.892   3
   7   5   7 390.211  13.135   2
  -7   5  -7 393.552  13.367   1
   7   5   7 418.647  13.725   3
  -9  -5  -7 190.821   7.030   1
   9  -5   7 189.654   7.277   3
  -9   5  -7 191.626   6.971   1
   9   5   7 184.330   7.137   3
  11  -5   7 319.473  11.142   3
 -11  -5  -7 310.743  10.791   1
  11   5   7 313.912  11.030   3
 -11   5  -7 309.833  10.857   1
  13  -5   7 37.8939  2.7037   3
 -13  -5  -7 35.3747  2.4918   1
 -13   5  -7 32.0188  2.5852   1
  13   5   7 31.2458  2.4781   3
 -15  -5  -7 85.1610  3.9871   1
  15  -5   7 82.7014  4.1144   3
 -15   5  -7 82.8595  4.1008   1
  15   5   7 85.6015  4.1365   3
 -17  -5  -7 10.7299  1.7218   1
  17  -5   7 8.51762 1.72959   3
 -17   5  -7 8.15534 1.77641   1
  17   5   7 8.86307 1.71255   3
  19  -5   7 74.2276  4.1190   3
 -19  -5  -7 76.9334  3.8816   1
  19   5   7 71.3014  3.9645   3
 -19   5  -7 75.4197  4.0255   1
  21  -5   7 28.0738  2.8157   3
 -21  -5  -7 28.1502  2.5581   1
 -21   5  -7 26.7698  2.7713   1
  21   5   7 32.3426  2.7323   3
 -23  -5  -7 62.5252  3.6482   1
  23  -5   7 62.4729  3.9382   3
  23   5   7 62.5596  3.8354   3
 -23   5  -7 63.6185  3.8927   1
  25  -5   7 9.76559 2.08282   3
 -25  -5  -7 6.39479 1.78057   1
  25   5   7 8.72772 2.07229   3
 -25   5  -7 9.88725 2.24259   1
 -27  -5  -7 83.6854  4.5153   1
  27  -5   7 84.9496  4.8020   3
  27   5   7 81.1976  4.6430   3
 -27   5  -7 84.9614  4.7328   1
 -29  -5  -7 0.82969 1.65291   1
  29  -5   7 1.83065 1.86212   3
 -29   5  -7 2.22726 1.85861   1
  29   5   7 0.88350 1.82453   3
  31  -5   7 54.7102  3.9736   3
  31   5   7 53.3127  3.9154   3
 -31   5  -7 55.8643  4.0489   1
  33  -5   7 0.41985 1.80626   3
 -33   5  -7 2.13239 2.21321   1
  33   5   7 1.09510 2.04407   3
  35  -5   7 19.7631  2.9452   3
  35   5   7 16.5834  3.0224   3
 -35   5  -7 12.5284  2.7513   1
  37  -5   7 1.74969 2.00673   3
  37   5   7 -5.1832  1.9552   3
 -37   5  -7 -4.2922  1.7713   1
 -40   6   7 23.1283  3.5936   1
  40   6  -7 20.3611  3.2436   3
  38  -6  -7 4.61118 2.49232   2
  38   6  -7 -0.1845  2.0952   3
 -38   6   7 -0.3943  2.2106   1
  36  -6  -7 50.9994  4.5350   2
 -36   6   7 53.9384  4.4373   1
  36   6  -7 51.0794  4.2253   3
  34  -6  -7 31.2313  3.9361   2
 -34   6   7 26.4961  3.4629   1
  34   6  -7 34.5792  3.8302   3
  32  -6  -7 40.8373  3.9533   2
 -32   6   7 51.5805  4.1663   1
  32   6  -7 48.5023  4.1785   3
  30  -6  -7 20.4706  2.9945   2
  30   6  -7 15.5377  2.1459   2
  30   6  -7 18.4465  3.0203   3
 -30   6   7 14.7568  2.6878   1
  28  -6  -7 67.0799  4.4292   2
  28   6  -7 69.8498  4.6495   3
 -28   6   7 73.6297  4.6327   1
  28   6  -7 69.3494  3.8110   2
  26  -6  -7 18.7515  2.7990   2
  26   6  -7 13.2438  2.0068   2
  26   6  -7 16.1790  2.8437   3
 -26   6   7 19.1094  2.8831   1
  24  -6  -7 79.5967  4.6929   2
  24   6  -7 85.6768  4.1901   2
 -24   6   7 80.1902  4.9536   1
  24   6  -7 82.9664  5.0020   3
  22  -6  -7 84.5527  4.8067   2
  22   6  -7 98.3032  4.5494   2
 -22   6   7 94.2885  5.1387   1
  22   6  -7 84.3796  5.1287   3
  20  -6  -7 44.1503  3.2536   2
 -20   6   7 43.6175  3.5640   1
  20   6  -7 45.4667  3.0074   2
  18  -6  -7 139.980   6.276   2
  18   6  -7 140.876   5.981   2
 -18   6   7 136.210   6.422   1
  16  -6  -7 23.2900  2.4847   2
 -16   6   7 23.5774  2.6638   1
  16   6  -7 15.4717  2.1301   2
  14  -6  -7 385.832  13.258   1
  14  -6  -7 365.293  13.320   2
  14   6  -7 370.594  13.307   2
  12  -6  -7 50.5268  3.1102   2
  12  -6  -7 57.4441  3.5827   1
  12   6  -7 54.4601  3.3045   2
  10  -6  -7 221.009   8.538   2
  10  -6  -7 231.796   8.692   1
  10   6  -7 235.551   8.833   2
   8  -6  -7 64.5920  3.5711   1
   8  -6  -7 64.4566  3.3362   2
  -8   6   7 60.9994  2.8235   3
   8   6  -7 66.5413  3.6844   2
   6  -6  -7 128.656   5.539   1
   6  -6  -7 129.854   5.276   2
  -6   6   7 124.272   4.841   3
   6   6  -7 134.034   5.749   2
   4  -6  -7 24.5864  2.4232   1
   4  -6  -7 30.5625  2.0921   2
   4   6  -7 28.5404  1.5510   1
  -4   6   7 28.6887  1.9977   3
   4   6  -7 30.8557  2.5958   2
   2  -6  -7 433.013  14.356   1
   2  -6  -7 424.580  14.297   2
   2   6  -7 423.837  13.523   1
  -2   6   7 405.558  13.996   3
   2   6  -7 433.282  15.032   2
   0  -6  -7 15.0373  1.5911   2
   0  -6   7 13.1549  1.9979   3
   0  -6  -7 13.4900  1.9383   1
   0   6   7 14.2732  1.6475   3
   0   6  -7 17.1784  1.5078   1
   2  -6   7 735.076  23.704   3
  -2  -6  -7 722.783  23.198   1
  -2   6  -7 714.936  22.682   1
   2   6   7 701.144  23.223   3
  -4  -6  -7 6.03898 1.50776   1
   4  -6   7 7.39902 1.73149   3
  -4   6  -7 8.80832 1.33970   1
   4   6   7 9.38572 1.51267   3
   6  -6   7 429.429  14.921   3
  -6  -6  -7 432.183  14.524   1
  -6   6  -7 464.950  15.664   2
  -6   6  -7 431.260  14.287   1
   6   6   7 408.760  14.580   3
   8  -6   7 14.2691  2.0703   3
  -8  -6  -7 15.3343  1.9328   1
  -8   6  -7 17.7751  1.8851   1
   8   6   7 15.0417  1.9195   3
  10  -6   7 450.091  15.489   3
 -10  -6  -7 450.609  15.062   1
 -10   6  -7 435.289  14.984   1
  10   6   7 461.709  15.437   3
 -12  -6  -7 13.4146  1.8659   1
  12  -6   7 14.2378  2.0515   3
  12   6   7 13.1438  2.0238   3
 -12   6  -7 12.4785  1.8939   1
 -14  -6  -7 117.823   4.978   1
  14  -6   7 112.384   5.162   3
 -14   6  -7 110.929   5.027   1
  14   6   7 105.759   5.146   3
 -16  -6  -7 0.28209 1.26439   1
  16  -6   7 0.96938 1.40728   3
 -16   6  -7 0.13345 1.34445   1
  16   6   7 -0.7633  1.2414   3
 -18  -6  -7 122.288   5.369   1
  18  -6   7 125.173   5.641   3
 -18   6  -7 119.890   5.560   1
  18   6   7 121.219   5.616   3
  20  -6   7 5.61778 1.79652   3
 -20  -6  -7 3.17547 1.47275   1
 -20   6  -7 3.05231 1.65039   1
  20   6   7 1.27735 1.58931   3
  22  -6   7 108.709   5.420   3
 -22  -6  -7 121.897   5.256   1
  22   6   7 104.087   5.316   3
 -22   6  -7 98.4719  5.3389   1
 -24  -6  -7 22.4642  2.5968   1
  24  -6   7 20.6737  2.7299   3
  24   6   7 19.1609  2.7000   3
 -24   6  -7 21.3041  2.7369   1
  26  -6   7 32.5722  3.4390   3
  26   6   7 35.7588  3.3102   3
 -26   6  -7 39.3312  3.3658   1
  28  -6   7 47.4029  3.7596   3
 -28   6  -7 52.6528  4.0265   1
  28   6   7 49.8756  3.7874   3
  30  -6   7 42.4992  3.6543   3
  30   6   7 39.7517  3.6335   3
 -30   6  -7 43.0565  3.7259   1
  32  -6   7 28.8564  3.5279   3
  32   6   7 26.5091  3.3571   3
 -32   6  -7 31.0498  3.5934   1
  34  -6   7 15.3682  2.9094   3
  34   6   7 10.7543  2.7441   3
 -34   6  -7 14.0482  2.9328   1
 -36   6  -7 4.29658 2.51365   1
  36   6   7 1.05988 2.35463   3
  37  -7  -7 2.87654 2.54469   2
  37   7  -7 2.40247 2.39900   3
 -37   7   7 1.73262 2.35906   1
  35  -7  -7 46.8552  4.4298   2
 -35   7   7 48.6906  4.2763   1
  35   7  -7 49.0001  4.4199   3
  33  -7  -7 0.03740 1.97466   2
  33   7  -7 -1.6288  2.1876   3
 -33   7   7 2.82046 2.23599   1
  31  -7  -7 56.3138  4.3581   2
 -31   7   7 53.7662  4.3129   1
  31   7  -7 57.7509  4.6205   3
  29  -7  -7 0.16841 1.87551   2
  29   7  -7 -0.4525  2.0235   3
 -29   7   7 0.43758 1.95402   1
  27  -7  -7 39.7829  3.5281   2
  27   7  -7 42.3908  3.8441   3
  27   7  -7 42.2696  3.0815   2
 -27   7   7 37.1310  3.8899   1
  25  -7  -7 12.2500  2.5950   2
 -25   7   7 12.9032  2.5662   1
  25   7  -7 12.8037  2.6370   3
  25   7  -7 12.2282  1.9314   2
  23  -7  -7 58.4938  4.0207   2
 -23   7   7 63.9555  4.3850   1
  23   7  -7 61.4726  3.6137   2
  23   7  -7 55.8702  4.3993   3
  21  -7  -7 10.5016  2.3292   2
  21   7  -7 11.8423  2.0051   2
  21   7  -7 13.2698  2.5419   3
 -21   7   7 14.2845  2.5601   1
  19  -7  -7 109.452   5.674   2
  19   7  -7 121.675   5.486   2
 -19   7   7 119.988   5.998   1
  17  -7  -7 7.02217 2.04421   2
 -17   7   7 6.04678 2.07676   1
  17   7  -7 7.86954 1.80536   2
  15  -7  -7 400.766  14.809   2
  15   7  -7 406.600  14.706   2
 -15   7   7 430.439  14.991   1
  13  -7  -7 142.339   6.455   1
  13  -7  -7 140.220   6.338   2
  13   7  -7 147.844   6.470   2
  11  -7  -7 433.566  14.655   1
  11  -7  -7 398.056  14.628   2
  11   7  -7 417.075  14.887   2
   9  -7  -7 56.2937  3.3400   2
   9  -7  -7 49.1140  3.4525   1
   9   7  -7 59.1577  3.6923   2
   7  -7  -7 162.915   6.982   1
   7  -7  -7 177.582   6.943   2
   7   7  -7 177.410   7.343   2
   5  -7  -7 16.5738  2.1822   1
   5  -7  -7 19.4600  2.0829   2
  -5   7   7 16.7737  1.8501   3
   5   7  -7 17.5704  2.2858   2
   3  -7  -7 240.778   8.653   2
   3  -7  -7 227.886   8.761   1
  -3  -7   7 225.776   8.917   3
  -3   7   7 225.054   8.365   3
   3   7  -7 245.835   9.379   2
   1  -7  -7 1.71222 1.42969   1
  -1  -7   7 4.48198 1.58444   3
   1  -7  -7 5.66081 1.37762   2
  -1   7   7 5.89898 1.33679   3
   1   7  -7 1.89542 1.46530   2
   1  -7   7 36.2629  2.9605   3
  -1  -7  -7 36.7448  2.7700   1
  -1   7  -7 44.6679  2.3409   1
   1   7   7 37.5318  2.5314   3
  -1   7  -7 38.2614  3.0391   2
   3  -7   7 75.2535  4.0574   3
  -3  -7  -7 73.2861  3.8599   1
   3   7   7 70.7599  3.6931   3
  -3   7  -7 73.2369  3.3931   1
  -3   7  -7 81.0265  4.4083   2
  -5  -7  -7 25.1683  2.3384   1
   5  -7   7 26.4286  2.7089   3
  -5   7  -7 27.0278  2.2315   1
  -5   7  -7 26.7571  3.0674   2
   5   7   7 29.9263  2.4942   3
   7  -7   7 259.461   9.804   3
  -7  -7  -7 264.775   9.497   1
  -7   7  -7 260.873  10.415   2
  -7   7  -7 244.100   9.162   1
   7   7   7 265.308   9.650   3
   9  -7   7 88.8987  4.6579   3
  -9  -7  -7 84.9204  4.2773   1
   9   7   7 83.5786  4.4392   3
  -9   7  -7 88.5250  4.2172   1
 -11  -7  -7 180.628   6.992   1
  11  -7   7 175.946   7.319   3
 -11   7  -7 171.235   6.935   1
  11   7   7 174.213   7.214   3
  13  -7   7 53.3481  3.5995   3
 -13  -7  -7 64.6949  3.5477   1
 -13   7  -7 58.6791  3.4439   1
  13   7   7 59.7957  3.6836   3
  15  -7   7 46.0059  3.2845   3
 -15  -7  -7 45.8400  3.0899   1
  15   7   7 46.2268  3.3061   3
 -15   7  -7 45.7914  3.2215   1
  17  -7   7 34.8855  3.0163   3
 -17  -7  -7 45.8950  3.0709   1
  17   7   7 37.5369  3.0743   3
 -17   7  -7 42.2262  3.1603   1
  19  -7   7 44.1603  3.4116   3
 -19  -7  -7 54.2426  3.4059   1
 -19   7  -7 45.7387  3.4937   1
  19   7   7 53.6911  3.6174   3
  21  -7   7 14.2149  2.4114   3
  21   7   7 18.6247  2.7048   3
 -21   7  -7 19.3047  2.6342   1
  23  -7   7 57.0858  4.0608   3
 -23   7  -7 55.1354  3.9126   1
  23   7   7 62.2984  4.0468   3
  25  -7   7 -1.6992  1.8027   3
 -25   7  -7 1.74319 1.98376   1
  25   7   7 2.00983 2.03317   3
  27  -7   7 67.7666  4.6572   3
 -27   7  -7 66.4277  4.5099   1
  27   7   7 68.9443  4.5587   3
  29  -7   7 3.45961 2.24139   3
 -29   7  -7 2.37692 2.19616   1
  29   7   7 3.86228 2.47081   3
  31  -7   7 57.6513  4.4220   3
 -31   7  -7 56.1477  4.3336   1
  31   7   7 50.5529  4.2106   3
 -33   7  -7 -0.4186  2.1201   1
  33   7   7 2.75641 2.38296   3
  34  -8  -7 15.2934  3.2970   2
  34   8  -7 22.2568  3.6182   3
 -34   8   7 19.1591  3.4281   1
  32  -8  -7 24.3075  3.6225   2
 -32   8   7 24.1257  3.6218   1
  32   8  -7 19.6679  3.4669   3
  30  -8  -7 24.5821  3.5990   2
 -30   8   7 22.3949  3.4636   1
  30   8  -7 23.4615  3.6460   3
  28  -8  -7 25.6890  3.6388   2
 -28   8   7 27.1347  3.5486   1
  28   8  -7 28.5884  3.7463   3
  26  -8  -7 8.11001 2.51239   2
 -26   8   7 4.58695 2.28127   1
  26   8  -7 5.95788 2.53137   3
  26   8  -7 8.12610 1.87919   2
  24  -8  -7 23.7508  3.2314   2
 -24   8   7 26.1755  3.4485   1
  24   8  -7 27.3649  3.6424   3
  24   8  -7 26.5486  2.5946   2
  22  -8  -7 7.46231 2.26846   2
 -22   8   7 8.77132 2.37483   1
  22   8  -7 7.87484 1.78729   2
  22   8  -7 10.9756  2.5708   3
  20  -8  -7 25.1040  3.1236   2
 -20   8   7 26.2569  3.2618   1
  20   8  -7 23.1070  2.6400   2
  18  -8  -7 43.0522  3.3656   2
  18   8  -7 42.4408  3.2487   2
 -18   8   7 43.3975  3.6608   1
  16  -8  -7 51.0981  3.6396   2
  16   8  -7 55.7022  3.7161   2
 -16   8   7 54.7804  4.1370   1
  14  -8  -7 196.854   8.381   2
 -14   8   7 211.680   8.736   1
  14   8  -7 195.794   8.335   2
  12  -8  -7 50.6526  3.6505   2
  12   8  -7 50.7768  3.7123   2
  10  -8  -7 226.262   8.993   1
  10  -8  -7 222.325   8.863   2
  10   8  -7 223.306   9.093   2
   8  -8  -7 32.1406  2.7318   2
   8  -8  -7 25.7185  2.9049   1
   8   8  -7 22.7115  2.7781   2
   6  -8  -7 89.7815  4.5225   2
   6  -8  -7 88.4489  4.6278   1
   6   8  -7 93.6885  4.9910   2
   4  -8  -7 16.2318  2.1432   2
   4  -8  -7 15.0081  2.2104   1
   4   8  -7 20.0863  2.6960   2
   2  -8  -7 34.7923  2.7864   1
  -2   8   7 38.0016  2.7189   3
   2   8  -7 34.0897  3.0292   2
   0  -8   7 -0.4752  1.4446   3
   0  -8  -7 1.46055 1.47353   1
   0   8  -7 0.55872 1.61365   2
   0   8   7 2.74548 1.34284   3
   2  -8   7 58.2261  3.7847   3
  -2  -8  -7 61.6010  3.6703   1
  -2   8  -7 57.3393  4.0519   2
   2   8   7 60.4429  3.4933   3
   4  -8   7 3.67960 1.73942   3
  -4  -8  -7 1.57557 1.53800   1
   4   8   7 1.02549 1.46308   3
  -4   8  -7 -0.1126  1.2168   1
  -4   8  -7 -0.9820  1.7568   2
   6  -8   7 195.020   8.305   3
  -6  -8  -7 205.049   8.001   1
  -6   8  -7 211.877   7.798   1
  -6   8  -7 200.802   9.023   2
   6   8   7 213.868   8.229   3
   8  -8   7 0.58066 1.77449   3
  -8  -8  -7 2.27108 1.68004   1
   8   8   7 2.58657 1.64227   3
  -8   8  -7 1.02286 1.83431   2
  -8   8  -7 4.94989 1.64144   1
 -10  -8  -7 279.282  10.181   1
  10  -8   7 271.248  10.571   3
  10   8   7 276.287  10.457   3
 -10   8  -7 275.083  10.094   1
 -12  -8  -7 38.5747  3.1250   1
  12  -8   7 37.5393  3.3253   3
 -12   8  -7 38.5244  3.0333   1
  12   8   7 38.2031  3.2003   3
  14  -8   7 59.7653  3.9457   3
 -14  -8  -7 64.0846  3.7166   1
  14   8   7 59.7485  3.9756   3
 -14   8  -7 63.8263  3.8883   1
  16  -8   7 6.77583 2.05944   3
 -16  -8  -7 6.06845 1.81366   1
  16   8   7 4.55982 1.93817   3
 -16   8  -7 5.65821 1.91261   1
  18  -8   7 19.4637  2.7038   3
 -18   8  -7 23.1424  2.7861   1
  18   8   7 25.9198  3.0805   3
  20  -8   7 0.28594 1.59983   3
 -20   8  -7 -1.8818  1.5751   1
  20   8   7 2.25566 1.94877   3
  22  -8   7 31.4410  3.4069   3
  22   8   7 25.9436  3.2090   3
 -22   8  -7 35.8141  3.3640   1
  24  -8   7 9.10639 2.33982   3
 -24   8  -7 10.1830  2.3494   1
  24   8   7 10.9304  2.5167   3
  26  -8   7 35.6265  3.4984   3
 -26   8  -7 41.9198  3.8340   1
  26   8   7 36.7153  3.6324   3
  28  -8   7 14.1170  2.9222   3
 -28   8  -7 20.4604  3.1793   1
  28   8   7 21.3898  3.3081   3
 -30   8  -7 25.3562  3.5834   1
  30   8   7 25.4797  3.5706   3
  31  -9  -7 25.0341  3.8662   2
 -31   9   7 40.1672  4.4634   1
  31   9  -7 34.9666  4.2883   3
  29  -9  -7 1.96835 2.10589   2
 -29   9   7 0.94364 2.21964   1
  29   9  -7 2.39696 2.54553   3
  27  -9  -7 29.5037  3.8691   2
  27   9  -7 26.5437  3.8013   3
 -27   9   7 23.8943  3.6262   1
  25  -9  -7 2.54604 2.16512   2
 -25   9   7 0.21831 2.22249   1
  25   9  -7 1.14454 2.36003   3
  23  -9  -7 26.9198  3.5914   2
  23   9  -7 33.9880  2.9696   2
 -23   9   7 34.7117  3.9581   1
  23   9  -7 35.8207  4.0903   3
  21  -9  -7 0.17198 1.90745   2
  21   9  -7 -0.3670  2.0606   3
  21   9  -7 2.20697 1.62085   2
 -21   9   7 -1.4883  2.1114   1
  19  -9  -7 45.5026  3.9310   2
  19   9  -7 51.1091  3.6447   2
 -19   9   7 52.3093  4.2569   1
  17  -9  -7 -0.0562  1.6954   2
 -17   9   7 0.92344 1.87735   1
  17   9  -7 1.11663 1.55996   2
  15  -9  -7 56.7555  3.9396   2
 -15   9   7 63.9312  4.3888   1
  15   9  -7 59.9999  4.0046   2
  13  -9  -7 16.0808  2.5071   2
  13   9  -7 16.0130  2.5638   2
 -13   9   7 13.4202  2.6472   1
  11  -9  -7 48.1091  3.6642   2
  11   9  -7 54.2592  3.9269   2
   9  -9  -7 54.4859  3.8079   2
   9  -9  -7 59.5787  4.0980   1
   9   9  -7 50.6023  3.9106   2
   7  -9  -7 34.0764  3.1338   1
   7   9  -7 35.3876  3.3509   2
   5  -9  -7 11.9497  2.3373   1
   5   9  -7 13.1965  2.3768   2
   3  -9  -7 63.4666  3.9693   1
   3   9  -7 70.6483  4.6005   2
   1  -9  -7 9.75702 2.13504   1
   1   9  -7 9.30770 2.45775   2
  -1  -9  -7 169.310   7.180   1
   1   9   7 164.755   7.082   3
  -1   9  -7 171.005   8.054   2
  -3  -9  -7 23.7675  2.8535   1
   3  -9   7 26.8975  3.1753   3
  -3   9  -7 22.7706  3.3149   2
   3   9   7 24.2227  2.7993   3
  -5  -9  -7 101.318   5.023   1
   5  -9   7 94.7964  5.3073   3
   5   9   7 91.3844  4.9546   3
  -5   9  -7 90.8065  5.8069   2
   7  -9   7 79.8591  4.8209   3
  -7  -9  -7 83.2591  4.4415   1
   7   9   7 77.5232  4.5778   3
  -7   9  -7 69.1413  5.0531   2
   9  -9   7 17.9064  2.6547   3
  -9  -9  -7 16.5294  2.3861   1
   9   9   7 15.2920  2.5714   3
  -9   9  -7 7.05509 2.54607   2
  -9   9  -7 16.5548  2.3706   1
 -11  -9  -7 113.309   5.486   1
  11  -9   7 114.610   5.931   3
 -11   9  -7 117.884   6.823   2
 -11   9  -7 117.442   5.499   1
  11   9   7 115.879   5.874   3
  13  -9   7 8.75634 2.32746   3
 -13   9  -7 11.4142  2.2535   1
  13   9   7 10.9241  2.4425   3
  15  -9   7 40.3616  3.5320   3
  15   9   7 30.3756  3.5021   3
 -15   9  -7 40.5411  3.3710   1
  17  -9   7 7.24110 2.17059   3
  17   9   7 5.37621 2.17225   3
 -17   9  -7 5.18967 1.99011   1
  19  -9   7 8.32575 2.26948   3
  19   9   7 3.99395 2.13410   3
 -19   9  -7 7.88223 2.11339   1
  21  -9   7 7.19738 2.41476   3
  21   9   7 2.90313 2.26097   3
 -21   9  -7 8.65350 2.29845   1
  23  -9   7 21.4744  3.1487   3
 -23   9  -7 23.9968  3.2344   1
  23   9   7 19.1992  3.0636   3
  25  -9   7 10.0168  2.5171   3
  25   9   7 2.95484 2.21734   3
 -25   9  -7 10.2765  2.6641   1
 -27   9  -7 30.3974  3.6839   1
  27   9   7 29.9914  3.8034   3
 -29   9  -7 5.36936 2.69683   1
  26 -10  -7 0.58932 2.18080   2
 -26  10   7 0.35377 2.18058   1
  26  10  -7 -0.9753  2.3367   3
  24 -10  -7 5.95606 2.58031   2
 -24  10   7 7.91435 2.72598   1
  24  10  -7 4.54347 2.69435   3
  22 -10  -7 7.72328 2.64127   2
  22  10  -7 6.85894 2.72282   3
 -22  10   7 5.87003 2.59016   1
  20 -10  -7 18.3745  3.1236   2
  20  10  -7 16.3730  2.6318   2
 -20  10   7 15.1014  3.1522   1
  20  10  -7 15.7699  3.1775   3
  18 -10  -7 27.4454  3.5923   2
  18  10  -7 25.8334  3.1897   2
 -18  10   7 25.7931  3.5798   1
  16 -10  -7 31.2880  3.6116   2
  16  10  -7 27.4755  3.2938   2
 -16  10   7 27.7323  3.7339   1
  14 -10  -7 32.7434  3.6237   2
 -14  10   7 27.2490  3.5554   1
  14  10  -7 24.8461  3.1716   2
 -12  10   7 7.15887 2.28770   1
  12  10  -7 7.42558 2.24715   2
  10  10  -7 14.6586  2.6858   2
 -10  10   7 15.2110  2.7088   1
   8  10  -7 2.61351 1.72387   2
   6 -10  -7 12.6774  2.6441   1
   6  10  -7 14.7738  2.6832   2
   4 -10  -7 -0.5307  1.7459   1
   4  10  -7 -1.2981  1.6084   2
   2 -10  -7 33.6209  3.3639   1
   2  10  -7 31.8719  3.7200   2
   0 -10  -7 16.5314  2.6838   1
   0  10  -7 13.0216  2.7805   2
  -2 -10  -7 67.6618  4.3294   1
  -2  10  -7 65.4159  4.8458   2
  -4 -10  -7 6.50514 2.08069   1
  -4  10  -7 5.30771 2.56524   2
   4  10   7 4.63940 2.13296   3
   6 -10   7 56.4680  4.1825   3
  -6 -10  -7 50.8674  3.8365   1
  -6  10  -7 59.1038  4.7113   2
   6  10   7 59.0313  4.0908   3
   8 -10   7 3.14229 2.14338   3
   8  10   7 1.34138 1.91129   3
  -8  10  -7 -2.3175  1.9103   2
  10 -10   7 21.9197  3.1283   3
 -10  10  -7 12.7927  3.2300   2
  10  10   7 23.2713  3.1236   3
  12 -10   7 8.29874 2.36900   3
 -12  10  -7 1.83448 2.45803   2
  12  10   7 8.18294 2.22359   3
  14 -10   7 12.7222  2.5607   3
 -14  10  -7 12.3145  3.1593   2
  14  10   7 10.9950  2.6528   3
 -14  10  -7 11.0164  2.4197   1
  16 -10   7 6.55482 2.36403   3
  16  10   7 6.28267 2.46099   3
 -16  10  -7 7.57141 2.32569   1
  18 -10   7 20.6051  3.1199   3
 -18  10  -7 11.2226  2.5605   1
  18  10   7 14.0654  2.8541   3
  20 -10   7 -0.5077  1.9165   3
  20  10   7 3.47125 2.37141   3
 -20  10  -7 2.68459 2.07404   1
  22 -10   7 9.66552 2.69867   3
 -22  10  -7 12.2578  2.7659   1
  22  10   7 10.4564  2.8230   3
  24  10   7 -0.1187  2.1268   3
 -24  10  -7 1.67439 2.12538   1
 -26  10  -7 12.7402  2.9397   1
  23 -11  -7 7.40413 2.81602   2
  21 -11  -7 14.9800  3.1491   2
  21  11  -7 7.77568 2.93249   3
 -21  11   7 9.69575 3.01751   1
 -19  11   7 13.2046  3.1283   1
  19  11  -7 15.0282  3.4998   3
 -17  11   7 3.64413 2.60899   1
  17  11  -7 6.39565 2.22742   2
  15  11  -7 21.7638  3.1535   2
 -15  11   7 18.1865  3.2473   1
 -13  11   7 2.74273 2.22724   1
  13  11  -7 0.13201 1.83108   2
  11  11  -7 9.40858 2.47389   2
 -11  11   7 3.86747 2.16219   1
  -9  11   7 5.56428 2.12733   1
   9  11  -7 8.29547 2.47391   2
  -7  11   7 3.59226 2.22675   1
   7  11  -7 2.90701 1.89817   2
   5  11  -7 27.0557  3.6557   2
   3 -11  -7 7.57965 2.44373   1
   3  11  -7 7.45833 2.52914   2
   1 -11  -7 9.49545 2.51685   1
   1  11  -7 6.65505 2.60759   2
  -1 -11  -7 17.1236  2.8178   1
  -1  11  -7 15.8244  3.1383   2
  -3  11  -7 2.12663 2.48202   2
  -5  11  -7 26.5461  4.0086   2
  -7  11  -7 5.90814 2.80155   2
   9 -11   7 1.51890 2.04027   3
   9  11   7 0.93315 2.10263   3
  -9  11  -7 2.70478 2.43203   2
  11 -11   7 5.04460 2.21959   3
 -11  11  -7 5.29019 2.70805   2
  11  11   7 5.17643 2.26287   3
  13 -11   7 1.05509 2.06665   3
  13  11   7 1.12744 2.10678   3
 -13  11  -7 0.40817 2.31236   2
  15 -11   7 9.19164 2.63289   3
 -15  11  -7 10.3418  3.1623   2
  15  11   7 7.99563 2.58397   3
  17 -11   7 3.25167 2.33023   3
  17  11   7 -0.6323  2.2289   3
 -17  11  -7 -1.7710  2.1073   2
  19  11   7 5.63543 2.46697   3
 -19  11  -7 3.28659 2.56308   2
  21  11   7 0.44815 2.44338   3
 -16  12   7 4.18012 2.90591   1
 -14  12   7 9.62114 3.12598   1
 -12  12   7 0.37339 2.28180   1
  12  12  -7 5.74041 2.39613   2
  10  12  -7 13.4661  2.9287   2
 -10  12   7 9.39234 2.74412   1
   8  12  -7 3.64229 2.26086   2
  -8  12   7 0.53147 2.06966   1
   6  12  -7 4.68697 2.32620   2
  -6  12   7 1.88527 2.20935   1
   4  12  -7 -0.4174  2.0389   2
   2  12  -7 2.49734 2.29729   2
   0  12  -7 0.79076 2.26260   2
  -2  12  -7 9.35887 3.03887   2
  -4  12  -7 3.83856 2.65686   2
  -6  12  -7 5.40298 2.90410   2
  -8  12  -7 2.01100 2.67538   2
 -10  12  -7 2.31277 2.69876   2
  14  12   7 1.01372 2.41812   3
  16  12   7 2.53483 2.40229   3
  44   0  -8 2.71120 2.18862   2
  42   0  -8 28.7225  3.5327   2
  40   0  -8 7.93335 2.27217   2
  38   0  -8 65.9161  4.3137   2
  36   0  -8 47.3993  3.4913   2
  34   0  -8 9.18149 2.13191   2
  32   0  -8 237.991   9.244   2
  30   0  -8 1.21115 1.41044   2
 -30   0   8 0.31070 1.43297   1
  28   0  -8 370.295  13.319   2
 -28   0   8 379.981  12.846   1
  26   0  -8 122.935   5.277   2
 -26   0   8 117.421   4.991   1
  24   0  -8 68.2252  3.6224   2
  24   0  -8 71.1326  3.2182   3
 -24   0   8 75.5618  3.5778   1
  22   0  -8 550.887  18.667   2
 -22   0   8 576.773  18.126   1
  22   0  -8 547.123  17.970   3
  20   0  -8 339.207  11.894   2
 -20   0   8 347.568  11.517   1
  18   0  -8 1.42283 0.86404   2
  18   0  -8 1.33611 0.65760   3
 -18   0   8 1.69962 0.94224   1
  16   0  -8 440.865  12.429   3
  16   0  -8 318.585  12.682   2
  14   0  -8 595.498  19.253   3
  14   0  -8 618.993  19.173   1
  12   0  -8 1856.21   56.06   1
  12   0  -8 1799.62   57.66   2
  10   0  -8 113.884   4.209   2
  10   0  -8 102.949   3.938   1
  -8   0   8 1421.87   43.80   3
   8   0  -8 1386.52   43.37   1
   8   0  -8 1427.11   44.65   2
   6   0  -8 159.687   5.565   1
  -6   0   8 163.052   5.485   3
   6   0  -8 167.890   5.811   2
   4   0  -8 330.471  10.398   1
  -4   0   8 314.991  10.354   3
   2   0  -8 126.732   5.107   2
  -2   0   8 154.518   5.018   3
   2   0  -8 159.105   5.109   1
   0   0   8 1407.73   44.16   3
   0   0  -8 1447.92   44.80   2
   0   0  -8 1410.58   43.70   1
   2   0   8 644.982  20.474   3
  -2   0  -8 665.298  20.768   2
  -2   0  -8 633.458  20.322   1
  -4   0  -8 1479.26   46.23   2
   4   0   8 1440.32   45.71   3
  -4   0  -8 1486.60   45.25   1
  -6   0  -8 71.7275  2.8236   2
  -6   0  -8 70.5439  3.0218   1
   6   0   8 68.7466  2.9126   3
  -8   0  -8 652.092  21.211   1
   8   0   8 678.597  21.414   3
  -8   0  -8 684.786  21.469   2
  10   0   8 478.335  15.653   3
 -10   0  -8 484.784  15.575   2
  12   0   8 743.805  24.101   3
 -12   0  -8 765.896  24.114   2
  14   0   8 484.328  16.005   3
 -14   0  -8 490.365  15.933   1
 -18   0  -8 7.43765 1.42235   1
 -20   0  -8 79.8133  3.8833   1
  20   0   8 78.0270  3.8485   3
 -22   0  -8 12.7594  1.8311   1
  22   0   8 13.6512  1.9220   3
 -24   0  -8 65.3486  3.6567   1
  24   0   8 65.1905  3.7068   3
  26   0   8 169.072   7.087   3
 -26   0  -8 176.602   7.186   1
  28   0   8 2.88078 2.09223   3
 -28   0  -8 5.36492 1.85672   1
  30   0   8 164.886   7.120   3
 -30   0  -8 161.523   7.002   1
 -32   0  -8 16.5381  2.6056   1
  32   0   8 14.6415  2.6627   3
 -34   0  -8 59.6210  3.9938   1
  34   0   8 60.6905  4.1764   3
  36   0   8 2.80839 2.21415   3
 -36   0  -8 6.02254 2.24268   1
  38   0   8 7.28932 2.51962   3
 -38   0  -8 6.95614 2.37544   1
  40   0   8 -1.1486  2.1775   3
 -40   0  -8 -1.4523  1.8899   1
 -42   0  -8 6.34884 2.42337   1
  45  -1  -8 20.5696  3.3370   2
  43  -1  -8 7.35739 2.46594   2
  43   1  -8 9.80861 2.43906   2
  41  -1  -8 51.1442  4.1450   2
  41   1  -8 57.8752  4.1400   2
  39  -1  -8 6.31739 2.19888   2
  39   1  -8 5.17826 2.02834   2
  37  -1  -8 91.5900  5.0955   2
  37   1  -8 90.4898  4.9302   2
  35  -1  -8 2.70925 1.75833   2
  35   1  -8 5.16508 1.80173   2
  33  -1  -8 121.119   5.867   2
 -33   1   8 123.056   5.686   1
  33   1  -8 130.356   5.821   2
  31  -1  -8 84.1378  4.6006   2
  31   1  -8 96.7337  4.6536   2
 -31   1   8 100.310   4.774   1
  29  -1  -8 49.0940  3.2397   2
  29   1  -8 49.2145  3.0677   2
  29   1  -8 57.5469  3.0341   3
 -29   1   8 53.4755  3.2919   1
  27  -1  -8 4.82811 1.41125   2
  27   1  -8 7.18932 1.47329   3
 -27   1   8 4.14665 1.53962   1
  27   1  -8 7.13146 1.55042   2
 -25  -1   8 184.404   6.707   1
  25  -1  -8 176.180   7.250   2
  25   1  -8 200.263   7.278   2
  25   1  -8 183.038   6.878   3
 -25   1   8 182.778   7.121   1
 -23  -1   8 24.4354  1.8808   1
  23  -1  -8 29.1345  2.2291   2
  23   1  -8 24.4191  2.0598   2
 -23   1   8 25.9906  2.3420   1
  23   1  -8 26.3800  2.1141   3
  21  -1  -8 503.153  19.736   2
  21  -1  -8 597.047  18.955   3
 -21  -1   8 626.716  19.091   1
 -21   1   8 634.083  19.596   1
  21   1  -8 622.237  19.524   3
  21   1  -8 611.447  19.878   2
  19  -1  -8 9.69779 0.92044   3
  19   1  -8 8.79303 1.30563   3
  19   1  -8 9.11509 1.32042   2
 -19   1   8 9.63674 1.48280   1
  17  -1  -8 853.912  26.895   3
  17   1  -8 867.714  27.469   3
  17   1  -8 867.152  27.886   2
 -15  -1   8 578.504  18.339   1
  15  -1  -8 579.852  18.230   3
  15  -1  -8 571.017  19.135   2
  15  -1  -8 582.737  18.617   1
  15   1  -8 601.548  19.145   2
  13  -1  -8 249.503   7.853   3
  13  -1  -8 244.771   8.388   1
  13  -1  -8 255.326   8.659   2
  13   1  -8 235.964   8.017   1
  11  -1  -8 1049.87   32.64   3
  11  -1  -8 1115.12   32.84   1
  11  -1  -8 1080.56   33.67   2
  11   1  -8 1081.08   32.46   1
  11   1  -8 946.953  33.582   2
   9  -1  -8 28.5872  1.7231   1
  -9  -1   8 33.2347  1.7410   3
   9  -1  -8 28.2298  1.6680   2
   9   1  -8 34.3577  1.8243   2
   9   1  -8 30.5841  1.5138   1
   7  -1  -8 353.166  11.720   1
   7  -1  -8 363.510  11.977   2
  -7  -1   8 352.995  11.734   3
   7   1  -8 380.206  12.149   2
   7   1  -8 369.938  11.470   1
  -7   1   8 355.796  11.386   3
  -5  -1   8 11.8954  1.0977   3
   5  -1  -8 13.8893  1.1971   1
   5   1  -8 14.7369  1.0233   1
   5   1  -8 14.0866  1.1746   2
  -5   1   8 13.9222  0.8649   3
  -3  -1   8 125.377   4.492   3
   3  -1  -8 123.311   4.443   2
   3  -1  -8 122.493   4.514   1
   3   1  -8 126.857   4.688   2
  -3   1   8 125.092   4.196   3
   3   1  -8 126.366   4.318   1
   1  -1  -8 577.739  18.629   2
  -1  -1   8 591.951  18.564   3
   1  -1  -8 574.990  18.399   1
   1   1  -8 582.037  18.229   1
  -1   1   8 590.226  18.311   3
  -1  -1  -8 1189.97   37.22   2
   1  -1   8 1178.79   36.99   3
  -1  -1  -8 1188.83   36.59   1
  -1   1  -8 1194.77   36.45   1
   1   1   8 1164.61   36.79   3
  -3  -1  -8 522.792  16.743   1
  -3  -1  -8 519.211  16.753   2
   3  -1   8 532.542  16.874   3
   3   1   8 522.011  16.701   3
  -3   1  -8 537.056  16.641   1
  -5  -1  -8 1917.53   58.27   2
   5  -1   8 1872.70   57.91   3
  -5   1  -8 1867.67   57.13   1
   5   1   8 1788.33   57.75   3
   7  -1   8 63.4831  2.7555   3
  -7  -1  -8 61.7135  2.2381   2
   7   1   8 59.2954  2.6154   3
  -7   1  -8 56.2066  2.6575   1
   9  -1   8 238.987   8.329   3
  -9  -1  -8 248.402   7.869   2
  -9  -1  -8 239.520   8.315   1
  -9   1  -8 241.733   8.293   1
   9   1   8 244.247   8.265   3
  11  -1   8 63.2200  3.0991   3
 -11  -1  -8 71.7405  2.5505   2
 -11  -1  -8 70.7103  3.1808   1
  11   1   8 74.3592  3.1500   3
 -11   1  -8 70.5086  3.1735   1
 -13  -1  -8 635.399  20.450   1
 -13  -1  -8 646.018  20.188   2
  13   1   8 637.252  20.568   3
 -13   1  -8 633.286  20.458   1
  15  -1   8 0.36076 0.38989   3
 -15  -1  -8 0.81644 0.92313   1
 -15  -1  -8 2.70335 0.54894   2
  15   1   8 3.62357 1.15325   3
 -15   1  -8 0.03455 0.25394   1
 -19  -1  -8 19.3258  1.9706   1
  19  -1   8 18.2813  1.9921   3
 -19   1  -8 10.5239  1.5267   1
 -21  -1  -8 189.411   7.230   1
  21  -1   8 186.902   7.307   3
  21   1   8 196.760   7.286   3
 -21   1  -8 179.155   7.209   1
 -23  -1  -8 14.7911  2.0356   1
  23  -1   8 11.2411  1.9799   3
  23   1   8 9.81458 1.91485   3
 -23   1  -8 11.6414  2.0008   1
  25  -1   8 161.588   6.863   3
 -25  -1  -8 175.142   6.908   1
  25   1   8 164.087   6.787   3
 -25   1  -8 160.948   6.801   1
  27  -1   8 30.0763  3.0812   3
 -27  -1  -8 28.4627  2.9312   1
 -27   1  -8 29.1447  2.9929   1
  27   1   8 25.4045  2.8239   3
  29  -1   8 75.8564  4.3696   3
 -29  -1  -8 67.8342  4.1201   1
  29   1   8 77.0958  4.3096   3
 -29   1  -8 70.4356  4.1835   1
 -31  -1  -8 22.7262  2.8510   1
  31  -1   8 22.5834  2.9403   3
  31   1   8 17.7981  2.6669   3
 -31   1  -8 22.0696  2.7435   1
 -33  -1  -8 48.9763  3.6469   1
  33  -1   8 47.9984  3.7182   3
  33   1   8 43.0303  3.6069   3
 -33   1  -8 48.1695  3.7869   1
  35  -1   8 4.44849 2.18290   3
 -35  -1  -8 8.10562 2.05791   1
 -35   1  -8 5.91955 2.25288   1
  35   1   8 1.28282 2.16943   3
  37  -1   8 11.3261  2.6912   3
 -37  -1  -8 11.5421  2.4782   1
  37   1   8 14.2696  2.8488   3
 -37   1  -8 14.0508  2.6635   1
  39  -1   8 2.76464 2.36152   3
 -39  -1  -8 -0.9069  1.8160   1
  39   1   8 -0.8864  2.3216   3
 -39   1  -8 -0.5975  1.9398   1
 -41  -1  -8 3.81461 2.26717   1
  41  -1   8 6.00368 2.55989   3
 -41   1  -8 7.65785 2.40126   1
  41   1   8 7.44048 2.72045   3
  44  -2  -8 4.39110 2.46967   2
  42  -2  -8 34.4410  3.9881   2
  40  -2  -8 34.5197  3.8190   2
  40   2  -8 30.6052  3.3267   2
  38  -2  -8 61.8544  4.2824   2
 -38   2   8 62.3824  4.1557   1
  38   2  -8 53.4338  3.8745   2
  36  -2  -8 86.3611  4.9640   2
 -36   2   8 83.2309  4.8024   1
  36   2  -8 82.8487  4.6066   2
  34  -2  -8 23.8332  2.9489   2
 -34   2   8 29.1058  3.0592   1
  34   2  -8 26.5267  2.6046   2
  32  -2  -8 47.9382  3.5098   2
  32   2  -8 48.4096  3.1943   2
  32   2  -8 50.1197  3.1785   3
 -32   2   8 47.7903  3.4440   1
  30  -2  -8 -0.7925  1.2669   2
  30   2  -8 1.16660 1.32775   3
  30   2  -8 2.64418 1.38961   2
 -30   2   8 -0.5431  1.3389   1
  28  -2  -8 3.72598 1.61847   2
  28   2  -8 5.65756 1.51003   2
 -28   2   8 8.20515 1.79120   1
  28   2  -8 6.29637 1.53561   3
  26  -2  -8 9.27695 1.84360   2
  26   2  -8 9.13918 1.56299   2
 -26   2   8 8.07103 1.77837   1
  26   2  -8 8.85699 1.63686   3
  24  -2  -8 45.1923  3.0029   2
 -24   2   8 46.2208  3.0783   1
  24   2  -8 38.8200  2.7962   3
  24   2  -8 45.2806  2.7786   2
  22  -2  -8 328.677  13.301   2
 -22   2   8 419.996  13.476   1
  22   2  -8 407.339  13.352   3
  22   2  -8 393.898  13.306   2
 -20  -2   8 907.334  28.276   1
  20   2  -8 921.307  29.620   2
 -20   2   8 899.509  29.167   1
  20   2  -8 926.211  29.418   3
 -18  -2   8 137.321   4.779   1
 -18   2   8 140.446   5.669   1
  18   2  -8 143.905   5.614   3
  18   2  -8 132.111   5.396   2
 -16  -2   8 960.048  29.341   1
  16  -2  -8 918.450  30.014   1
  16  -2  -8 985.665  30.872   2
  16   2  -8 948.554  30.733   2
  14  -2  -8 2.14804 0.90038   2
 -14  -2   8 0.89868 0.55256   1
  14  -2  -8 0.38657 1.07198   1
  14   2  -8 2.96848 0.86028   2
  12  -2  -8 638.741  20.273   1
  12  -2  -8 633.514  20.725   2
  12   2  -8 622.589  20.755   2
  12   2  -8 644.571  19.579   1
  10  -2  -8 5.86584 0.96187   2
  10  -2  -8 6.00459 1.08720   1
  10   2  -8 7.56764 0.69276   1
  -8  -2   8 612.465  19.284   3
   8  -2  -8 597.613  19.455   2
   8  -2  -8 594.279  19.115   1
   8   2  -8 601.331  19.672   2
   8   2  -8 597.144  18.531   1
  -6  -2   8 84.3849  3.4163   3
   6  -2  -8 89.0534  3.3785   2
   6  -2  -8 82.3606  3.4634   1
   6   2  -8 88.5452  3.6273   2
  -6   2   8 83.6690  2.7860   3
   6   2  -8 82.0252  2.9618   1
   4  -2  -8 50.2548  2.4978   1
  -4  -2   8 56.9054  2.5688   3
   4   2  -8 54.4867  2.1186   1
   4   2  -8 55.5864  2.6317   2
  -4   2   8 53.7117  1.9794   3
   2  -2  -8 13.1834  1.0134   2
   2  -2  -8 13.6880  1.3465   1
  -2  -2   8 12.8366  1.2904   3
   2   2  -8 12.4038  1.3046   2
  -2   2   8 15.1523  0.9227   3
   2   2  -8 12.1729  0.9774   1
   0  -2  -8 762.833  26.249   1
   0  -2  -8 878.979  26.601   2
   0  -2   8 874.960  26.674   3
   0   2  -8 868.889  27.131   2
   0   2  -8 831.615  26.002   1
   0   2   8 828.959  26.225   3
   2  -2   8 72.4676  3.1552   3
  -2  -2  -8 75.9538  2.6995   2
  -2   2  -8 72.8720  3.2853   2
  -2   2  -8 75.4826  2.9199   1
   2   2   8 71.9656  2.8321   3
  -4  -2  -8 479.419  16.334   1
   4  -2   8 541.230  16.606   3
  -4  -2  -8 525.452  16.157   2
  -4   2  -8 508.988  16.199   1
   4   2   8 509.438  16.290   3
  -4   2  -8 500.811  16.865   2
   6  -2   8 81.3329  3.3442   3
  -6  -2  -8 75.6617  2.5793   2
  -6  -2  -8 72.8735  3.2639   1
   6   2   8 74.5754  3.0841   3
  -6   2  -8 76.3357  3.4204   2
  -6   2  -8 82.8794  3.2494   1
  -8  -2  -8 138.486   5.032   1
   8  -2   8 116.759   4.892   3
   8   2   8 136.401   4.881   3
  -8   2  -8 134.850   4.916   1
  -8   2  -8 130.711   5.132   2
 -10  -2  -8 68.9063  3.1283   1
 -10   2  -8 67.3248  3.0459   1
  10   2   8 64.8070  2.9690   3
  12  -2   8 95.3179  4.0212   3
 -12  -2  -8 93.5206  4.0031   1
  12   2   8 98.6784  3.9725   3
 -12   2  -8 91.9945  4.0085   1
  14  -2   8 85.3520  3.7344   3
 -14  -2  -8 84.6142  3.7628   1
  14   2   8 79.8738  3.6787   3
 -14   2  -8 86.1978  3.8276   1
 -16  -2  -8 76.6135  3.6436   1
  16  -2   8 75.4134  3.6355   3
  16   2   8 75.9536  3.5654   3
  18  -2   8 121.793   5.060   3
 -18  -2  -8 116.570   4.961   1
  18   2   8 115.691   4.933   3
 -20  -2  -8 104.849   4.647   1
  20  -2   8 107.183   4.799   3
  20   2   8 107.683   4.704   3
 -20   2  -8 100.231   4.705   1
  22  -2   8 83.9307  4.3001   3
 -22  -2  -8 89.0069  4.3206   1
 -22   2  -8 83.0642  4.2806   1
  22   2   8 84.8337  4.2278   3
  24  -2   8 157.819   6.649   3
 -24  -2  -8 154.520   6.552   1
 -24   2  -8 157.155   6.634   1
  24   2   8 161.666   6.566   3
  26  -2   8 123.740   5.792   3
 -26  -2  -8 119.092   5.666   1
 -26   2  -8 129.820   5.813   1
  26   2   8 130.181   5.728   3
  28  -2   8 19.0320  2.6931   3
 -28  -2  -8 13.1599  2.3494   1
  28   2   8 17.1804  2.5129   3
 -28   2  -8 19.1374  2.5742   1
 -30  -2  -8 64.4100  3.9506   1
  30  -2   8 59.6985  3.9891   3
 -30   2  -8 50.5563  3.7313   1
  30   2   8 62.1427  3.9238   3
 -32  -2  -8 -1.8430  1.4520   1
  32  -2   8 0.47545 1.82625   3
 -32   2  -8 -0.0264  1.6635   1
  32   2   8 -0.0393  1.9279   3
 -34  -2  -8 20.6080  2.7270   1
  34  -2   8 23.9057  3.0770   3
  34   2   8 21.6596  3.0836   3
 -34   2  -8 22.9282  3.0442   1
 -36  -2  -8 0.40083 1.72921   1
  36  -2   8 1.29754 2.01641   3
  36   2   8 -3.6833  1.9490   3
 -36   2  -8 -1.4856  1.6423   1
  38  -2   8 14.5666  2.8738   3
 -38  -2  -8 12.3270  2.4979   1
 -38   2  -8 14.5621  2.8756   1
  38   2   8 8.60900 2.64472   3
 -40  -2  -8 1.81538 1.92286   1
  40  -2   8 1.75898 2.16335   3
 -40   2  -8 -1.3556  1.8935   1
  40   2   8 -0.0239  2.4177   3
  43  -3  -8 0.88435 2.29543   2
  41  -3  -8 34.7377  3.9945   2
 -41   3   8 38.4856  3.7070   1
  39  -3  -8 3.72133 2.14130   2
  39   3  -8 0.05443 1.84869   2
 -39   3   8 3.10380 2.16385   1
  37  -3  -8 59.2295  4.3025   2
  37   3  -8 62.9726  3.9655   2
 -37   3   8 65.7821  4.4527   1
  35  -3  -8 1.20174 1.69836   2
  35   3  -8 -0.8262  1.4738   2
 -35   3   8 -1.5260  1.7172   1
  33  -3  -8 49.6090  3.6444   2
  33   3  -8 57.1030  3.6673   3
  33   3  -8 49.2212  3.3535   2
 -33   3   8 56.6576  3.8369   1
  31  -3  -8 0.16360 1.51145   2
  31   3  -8 -0.5515  1.2875   2
 -31   3   8 -2.1638  1.4137   1
  31   3  -8 -1.9126  1.3475   3
  29  -3  -8 -0.2471  1.3512   2
  29   3  -8 -1.8692  1.2614   3
 -29   3   8 0.08086 1.32603   1
  29   3  -8 -1.1512  1.1149   2
  27  -3  -8 3.58051 1.53973   2
  27   3  -8 2.60128 1.29016   2
 -27   3   8 1.51773 1.51819   1
  27   3  -8 4.50522 1.56521   3
  25  -3  -8 9.17960 1.84214   2
  25   3  -8 8.29083 1.50047   2
  25   3  -8 11.0808  1.8790   3
 -25   3   8 8.72208 1.92686   1
  23  -3  -8 99.6936  4.9178   2
  23   3  -8 115.906   5.213   3
  23   3  -8 109.672   4.775   2
 -23   3   8 114.800   5.328   1
 -21   3   8 447.844  15.356   1
  21   3  -8 438.660  15.362   3
  21   3  -8 454.608  15.237   2
  19   3  -8 273.380   9.744   2
 -19   3   8 268.863  10.019   1
  17  -3  -8 698.267  22.095   2
  17   3  -8 628.929  21.790   2
  15  -3  -8 191.671   7.227   1
  15  -3  -8 184.302   7.200   2
  15   3  -8 199.394   7.230   2
  13  -3  -8 135.904   5.404   1
  13  -3  -8 130.090   5.337   2
  13   3  -8 143.661   5.489   2
  11  -3  -8 77.4247  3.5198   1
  11  -3  -8 75.5272  3.4111   2
  11   3  -8 76.5955  3.5443   2
   9  -3  -8 116.323   4.457   2
   9  -3  -8 110.719   4.528   1
   9   3  -8 108.540   4.617   2
   7  -3  -8 223.998   7.732   2
   7  -3  -8 222.640   7.810   1
  -7  -3   8 220.105   7.845   3
   7   3  -8 219.093   6.974   1
   5  -3  -8 207.768   7.174   2
   5  -3  -8 202.962   7.293   1
  -5  -3   8 210.792   7.352   3
  -5   3   8 200.577   6.564   3
   5   3  -8 208.655   7.590   2
   5   3  -8 205.917   6.591   1
  -3  -3   8 417.766  13.361   3
   3   3  -8 401.019  12.563   1
  -3   3   8 387.521  12.640   3
   3   3  -8 398.003  13.602   2
   1  -3  -8 111.291   4.039   2
  -1  -3   8 113.490   4.474   3
  -1   3   8 112.742   3.907   3
   1   3  -8 106.507   4.558   2
   1   3  -8 110.782   3.912   1
   1  -3   8 544.637  17.493   3
  -1  -3  -8 529.695  17.221   1
  -1  -3  -8 540.632  17.115   2
  -1   3  -8 535.107  16.830   1
  -1   3  -8 530.359  17.829   2
   1   3   8 532.900  17.001   3
  -3  -3  -8 406.921  13.329   1
   3  -3   8 407.820  13.526   3
  -3  -3  -8 405.524  13.012   2
   3   3   8 404.626  13.145   3
  -3   3  -8 406.537  13.872   2
  -3   3  -8 408.294  13.029   1
  -5  -3  -8 504.538  16.015   2
  -5  -3  -8 494.263  16.359   1
  -5   3  -8 519.751  16.197   1
   5   3   8 501.008  16.311   3
  -5   3  -8 514.340  17.024   2
  -7  -3  -8 12.2025  1.4312   1
   7   3   8 10.5610  1.2387   3
  -7   3  -8 12.0873  1.3601   1
  -7   3  -8 10.4008  1.4602   2
  -9  -3  -8 193.125   6.989   1
   9  -3   8 196.217   7.065   3
  -9   3  -8 193.042   6.899   1
   9   3   8 190.212   6.878   3
  11  -3   8 23.9611  1.9752   3
 -11  -3  -8 22.6155  1.8840   1
  11   3   8 23.9169  1.8447   3
 -11   3  -8 25.7520  2.0372   1
 -13  -3  -8 133.697   5.255   1
  13  -3   8 135.067   5.317   3
 -13   3  -8 123.088   5.205   1
  13   3   8 135.371   5.267   3
  15  -3   8 39.6147  2.5019   3
 -15  -3  -8 36.0241  2.4749   1
 -15   3  -8 35.5482  2.5428   1
  15   3   8 36.2928  2.3784   3
  17  -3   8 115.431   4.997   3
 -17  -3  -8 121.331   5.003   1
  17   3   8 112.884   4.872   3
 -17   3  -8 114.829   5.011   1
 -19  -3  -8 1.95444 1.17898   1
  19  -3   8 1.07716 1.29878   3
 -19   3  -8 2.24760 1.32223   1
  19   3   8 3.08204 1.34823   3
 -21  -3  -8 240.411   9.061   1
  21  -3   8 245.128   9.191   3
  21   3   8 251.515   9.147   3
 -21   3  -8 241.574   9.154   1
 -23  -3  -8 16.6673  2.2682   1
  23  -3   8 15.8869  2.4387   3
 -23   3  -8 19.5100  2.4807   1
  23   3   8 15.7935  2.2800   3
 -25  -3  -8 210.350   8.263   1
  25  -3   8 209.930   8.490   3
 -25   3  -8 212.421   8.413   1
  25   3   8 205.848   8.264   3
 -27  -3  -8 3.37583 1.76996   1
  27  -3   8 1.66602 1.85232   3
  27   3   8 5.31085 1.93168   3
 -27   3  -8 4.08290 1.81163   1
 -29  -3  -8 33.9455  3.0639   1
  29  -3   8 36.1147  3.2225   3
  29   3   8 32.4873  3.0651   3
 -29   3  -8 34.7771  3.2578   1
  31  -3   8 11.8522  2.4475   3
 -31  -3  -8 11.0978  2.2408   1
 -31   3  -8 8.57204 2.33515   1
  31   3   8 8.52800 2.37260   3
 -33  -3  -8 5.07240 1.87243   1
  33  -3   8 4.96718 2.01653   3
 -33   3  -8 3.66182 2.03678   1
  33   3   8 2.06703 2.07870   3
  35  -3   8 7.51594 2.37911   3
 -35  -3  -8 5.16617 2.02671   1
 -35   3  -8 4.20856 2.15981   1
  35   3   8 4.68288 2.32294   3
 -37  -3  -8 4.28341 2.05804   1
  37  -3   8 2.50110 2.14437   3
  37   3   8 0.51629 2.23974   3
 -37   3  -8 7.05514 2.50524   1
  39  -3   8 0.70129 1.85430   3
 -39   3  -8 1.59351 2.09152   1
  39   3   8 -4.1936  2.3130   3
  41  -3   8 8.22858 2.52357   3
 -44   4   8 0.90345 2.21807   1
  42  -4  -8 8.40571 2.80766   2
 -42   4   8 4.90003 2.51416   1
  40  -4  -8 7.51441 2.49570   2
 -40   4   8 3.40229 2.42691   1
  38  -4  -8 25.8093  3.6049   2
  36  -4  -8 20.1089  3.2420   2
  36   4  -8 24.0180  2.8648   2
 -36   4   8 20.8369  3.2095   1
  36   4  -8 28.1175  3.2560   3
  34  -4  -8 13.5743  2.6041   2
  34   4  -8 24.0165  2.6841   2
 -34   4   8 24.7212  3.0870   1
  34   4  -8 19.6328  2.8720   3
  32  -4  -8 18.2186  2.7787   2
  32   4  -8 20.5592  2.3830   2
  32   4  -8 16.1716  2.6651   3
 -32   4   8 13.5813  2.5575   1
  30  -4  -8 14.8749  2.4975   2
  30   4  -8 12.7202  2.4002   3
  30   4  -8 14.0935  2.0530   2
 -30   4   8 18.5893  2.5621   1
  28  -4  -8 52.2883  3.6654   2
 -28   4   8 43.6612  3.5402   1
  28   4  -8 53.9324  3.1683   2
  28   4  -8 46.3953  3.4950   3
  26  -4  -8 5.90628 1.77290   2
  26   4  -8 0.48173 1.60727   3
 -26   4   8 -2.0123  1.4175   1
  26   4  -8 1.99132 1.30430   2
  24  -4  -8 33.0023  2.7149   2
 -24   4   8 33.3583  3.0608   1
  24   4  -8 36.4042  2.5578   2
  24   4  -8 30.9401  2.9539   3
  22  -4  -8 20.0196  2.4297   2
  22   4  -8 17.7016  2.0054   2
 -22   4   8 18.3859  2.5172   1
  22   4  -8 22.6379  2.6113   3
  20  -4  -8 76.9073  4.1451   2
 -20   4   8 80.8764  4.3006   1
  20   4  -8 80.8353  3.8879   2
  18  -4  -8 28.3866  2.5597   2
  18   4  -8 27.7474  2.3649   2
  16  -4  -8 310.541  11.535   2
  16  -4  -8 343.528  11.606   1
  16   4  -8 323.784  11.485   2
  14  -4  -8 8.80235 1.40948   2
  14  -4  -8 11.2514  1.8519   1
  14   4  -8 7.71870 1.36442   2
  12  -4  -8 82.0343  3.7672   2
  12  -4  -8 79.0527  3.8914   1
  12   4  -8 82.6019  3.8483   2
  10  -4  -8 11.6136  1.6529   1
  10  -4  -8 11.0930  1.3762   2
  10   4  -8 12.1603  1.5651   2
   8  -4  -8 11.2327  1.3175   2
  -8  -4   8 11.9664  1.5346   3
   8   4  -8 8.88998 1.33226   2
  -8   4   8 9.84359 0.68576   3
   6  -4  -8 4.40497 0.90224   2
  -6  -4   8 0.86092 1.02648   3
  -6   4   8 4.10927 0.57169   3
   6   4  -8 5.14135 0.53444   1
   6   4  -8 3.48158 0.94381   2
  -4  -4   8 105.199   4.482   3
   4  -4  -8 102.888   4.412   1
   4  -4  -8 108.844   4.182   2
  -4   4   8 110.264   3.797   3
   4   4  -8 106.512   3.669   1
   2  -4  -8 1.10314 1.00290   1
  -2  -4   8 0.76488 1.06563   3
   2  -4  -8 1.56009 0.70392   2
   2   4  -8 2.79309 0.62887   1
   2   4  -8 2.69638 1.00743   2
  -2   4   8 1.69816 0.62665   3
   0  -4  -8 391.646  13.332   1
   0  -4   8 414.830  13.621   3
   0   4  -8 394.759  13.906   2
   0   4   8 399.769  13.030   3
   0   4  -8 411.387  12.830   1
  -2  -4  -8 13.3352  1.6194   1
  -2  -4  -8 12.2880  1.1671   2
   2  -4   8 10.0930  1.4425   3
  -2   4  -8 14.7141  1.3581   1
   2   4   8 15.6895  1.3872   3
  -2   4  -8 12.9575  1.7824   2
  -4  -4  -8 373.330  12.516   2
  -4  -4  -8 382.964  12.916   1
  -4   4  -8 393.758  13.598   2
   4   4   8 393.497  12.795   3
  -4   4  -8 396.982  12.619   1
  -6  -4  -8 45.2205  2.6783   1
   6  -4   8 44.0463  2.6584   3
  -6   4  -8 40.9900  2.3969   1
  -6   4  -8 37.2843  2.7645   2
   6   4   8 42.2246  2.4212   3
   8  -4   8 328.155  11.211   3
  -8  -4  -8 317.472  10.976   1
   8   4   8 314.782  10.924   3
  -8   4  -8 333.576  10.884   1
  -8   4  -8 314.661  11.609   2
  10  -4   8 75.7107  3.6811   3
 -10  -4  -8 75.5556  3.5963   1
  10   4   8 76.1279  3.5669   3
 -10   4  -8 76.9289  3.5844   1
 -12  -4  -8 1.32089 1.08629   1
  12  -4   8 3.81095 1.25654   3
  12   4   8 2.33648 1.15014   3
 -12   4  -8 2.20910 1.17168   1
  14  -4   8 120.572   5.080   3
 -14  -4  -8 116.378   4.890   1
  14   4   8 116.826   4.942   3
 -14   4  -8 116.298   5.013   1
  16  -4   8 8.65908 1.63952   3
 -16  -4  -8 8.91551 1.54865   1
  16   4   8 9.17284 1.57333   3
 -16   4  -8 6.58903 1.51564   1
  18  -4   8 89.5424  4.4389   3
 -18  -4  -8 92.7947  4.3756   1
 -18   4  -8 98.2013  4.5014   1
  18   4   8 90.0008  4.3304   3
  20  -4   8 67.3001  3.9340   3
 -20  -4  -8 71.8029  3.8081   1
 -20   4  -8 72.7443  3.9154   1
  20   4   8 67.9068  3.7747   3
 -22  -4  -8 12.0277  2.0552   1
  22  -4   8 7.03876 1.94280   3
  22   4   8 8.36156 1.89931   3
 -22   4  -8 12.9726  2.2066   1
 -24  -4  -8 34.8667  3.1040   1
  24  -4   8 39.0920  3.4159   3
 -24   4  -8 42.5543  3.2373   1
  24   4   8 41.9699  3.1312   3
 -26  -4  -8 21.8456  2.6331   1
  26  -4   8 22.1247  2.8117   3
  26   4   8 20.6339  2.5786   3
 -26   4  -8 21.6015  2.7142   1
 -28  -4  -8 9.14585 2.09789   1
  28  -4   8 6.64796 2.04580   3
 -28   4  -8 6.39624 2.07081   1
  28   4   8 7.71406 2.09909   3
  30  -4   8 20.2349  2.8857   3
 -30  -4  -8 19.5718  2.6808   1
 -30   4  -8 18.5055  2.7045   1
  30   4   8 18.8612  2.7154   3
 -32  -4  -8 0.87106 1.73935   1
  32  -4   8 2.92654 1.99564   3
 -32   4  -8 1.26241 1.94237   1
  32   4   8 0.88288 1.97960   3
  34  -4   8 7.60228 2.27809   3
 -34   4  -8 8.02803 2.35670   1
  34   4   8 5.67209 2.35396   3
  36  -4   8 1.79076 2.00650   3
  36   4   8 -4.2945  1.9973   3
 -36   4  -8 -1.6997  1.8248   1
  38  -4   8 4.02864 2.31157   3
 -38   4  -8 1.18575 2.08497   1
  38   4   8 1.18026 2.50551   3
  40  -4   8 6.99275 2.54257   3
  41  -5  -8 1.15501 2.36272   2
 -41   5   8 0.00060 2.19997   1
  39  -5  -8 2.02849 2.18414   2
 -39   5   8 0.89015 2.16307   1
  37  -5  -8 17.5154  3.2443   2
 -37   5   8 15.4029  3.0342   1
  37   5  -8 15.0789  2.9090   3
  35  -5  -8 12.1729  2.7974   2
 -35   5   8 3.27950 2.31046   1
  35   5  -8 6.53426 1.92016   2
  33  -5  -8 15.9362  2.8688   2
  33   5  -8 10.8078  2.1174   2
 -33   5   8 13.8693  2.7251   1
  33   5  -8 19.1245  2.9877   3
  31  -5  -8 13.2711  2.6539   2
 -31   5   8 14.5504  2.5974   1
  31   5  -8 9.86155 2.53449   3
  31   5  -8 14.6440  2.1186   2
  29  -5  -8 16.3081  2.5997   2
  29   5  -8 21.7613  2.8928   3
 -29   5   8 16.7524  2.7587   1
  29   5  -8 14.4467  2.1115   2
  27  -5  -8 3.21664 1.78746   2
  27   5  -8 4.35907 1.49173   2
 -27   5   8 2.97090 1.94513   1
  27   5  -8 0.26494 1.69563   3
  25  -5  -8 67.7931  4.1683   2
 -25   5   8 57.3086  4.1209   1
  25   5  -8 61.4053  3.5519   2
  25   5  -8 64.8243  4.4370   3
  23  -5  -8 86.8310  4.8384   2
  23   5  -8 90.2802  4.3793   2
 -23   5   8 81.8943  4.9620   1
  23   5  -8 99.8929  5.2691   3
  21  -5  -8 31.9974  2.8039   2
  21   5  -8 38.7569  2.7754   2
 -21   5   8 40.7201  3.3780   1
  19  -5  -8 12.3117  1.9260   2
  19   5  -8 11.0619  1.7091   2
 -19   5   8 9.85780 2.02577   1
  17  -5  -8 13.8476  1.9459   2
  17   5  -8 14.7117  1.8855   2
  15  -5  -8 255.608   9.880   2
  15  -5  -8 285.518   9.978   1
  15   5  -8 262.013   9.832   2
  13  -5  -8 12.1355  1.6555   2
  13   5  -8 12.3155  1.7277   2
  11  -5  -8 58.7419  3.1799   2
  11   5  -8 60.9198  3.4016   2
   9  -5  -8 30.6422  2.1621   2
   9   5  -8 36.0295  2.5649   2
  -7  -5   8 1.27015 1.19144   3
   7  -5  -8 0.36916 1.10175   1
   7  -5  -8 4.49099 1.05325   2
   7   5  -8 4.38703 1.29736   2
  -7   5   8 2.74127 0.67951   3
   5  -5  -8 157.676   5.696   2
  -5  -5   8 152.247   5.983   3
   5  -5  -8 151.852   5.883   1
   5   5  -8 140.710   4.816   1
   5   5  -8 131.676   5.927   2
  -5   5   8 146.671   5.143   3
   3  -5  -8 16.9882  1.5816   2
   3  -5  -8 20.7615  2.0994   1
   3   5  -8 23.4536  1.3692   1
  -3   5   8 21.8515  1.5354   3
   1  -5  -8 67.1218  3.1377   2
   1  -5  -8 71.2954  3.5677   1
   1   5  -8 70.8721  2.8766   1
  -1   5   8 73.7012  3.1387   3
  -1  -5  -8 39.0611  2.6809   1
   1   5   8 36.4572  2.1564   3
  -1   5  -8 30.8059  2.7086   2
  -1   5  -8 39.1249  2.0643   1
  -3  -5  -8 24.7619  2.2362   1
  -3   5  -8 27.3546  1.9576   1
   3   5   8 25.7626  2.0018   3
   5  -5   8 108.075   4.885   3
  -5  -5  -8 107.480   4.727   1
   5   5   8 112.522   4.608   3
  -5   5  -8 105.566   5.362   2
  -5   5  -8 119.094   4.503   1
   7  -5   8 17.2495  2.0128   3
  -7  -5  -8 24.7258  2.2182   1
  -7   5  -8 14.0772  1.6705   1
   7   5   8 13.4761  1.6668   3
  -7   5  -8 13.5905  2.2106   2
  -9  -5  -8 92.5557  4.2412   1
   9  -5   8 95.5739  4.3915   3
   9   5   8 88.4247  4.0942   3
  -9   5  -8 93.0549  4.1447   1
 -11  -5  -8 2.18400 1.14554   1
  11  -5   8 2.11518 1.26670   3
 -11   5  -8 -0.6266  1.2239   1
  11   5   8 1.91352 1.22421   3
  13  -5   8 30.4653  2.4559   3
 -13  -5  -8 31.6592  2.4237   1
 -13   5  -8 29.3298  2.4471   1
  13   5   8 32.2122  2.4092   3
 -15  -5  -8 10.2681  1.7071   1
  15  -5   8 11.1819  1.8452   3
  15   5   8 10.9255  1.8462   3
 -15   5  -8 12.2567  1.8579   1
 -17  -5  -8 26.3247  2.4688   1
  17  -5   8 25.4239  2.5315   3
  17   5   8 32.5725  2.5254   3
 -17   5  -8 30.0431  2.5869   1
  19  -5   8 27.7306  2.8577   3
 -19  -5  -8 27.9951  2.5008   1
  19   5   8 29.5949  2.6465   3
 -19   5  -8 28.9742  2.6344   1
 -21  -5  -8 3.32435 1.54890   1
  21  -5   8 0.46223 1.57531   3
  21   5   8 2.93189 1.66096   3
 -21   5  -8 2.77817 1.69113   1
 -23  -5  -8 0.99959 1.54567   1
  23  -5   8 0.35831 1.57841   3
  23   5   8 1.70273 1.66669   3
 -23   5  -8 0.24491 1.62151   1
  25  -5   8 4.00631 1.79980   3
 -25  -5  -8 3.85600 1.72795   1
 -25   5  -8 4.73249 1.95190   1
  25   5   8 0.50404 1.79573   3
  27  -5   8 15.1938  2.5739   3
 -27  -5  -8 18.8719  2.5406   1
 -27   5  -8 19.2029  2.7733   1
  27   5   8 13.9540  2.4789   3
  29  -5   8 18.2369  2.7604   3
 -29  -5  -8 13.1970  2.4992   1
 -29   5  -8 17.2758  2.8236   1
  29   5   8 15.4532  2.6705   3
  31  -5   8 16.8485  2.7388   3
  31   5   8 9.16633 2.48611   3
 -31   5  -8 9.96848 2.43163   1
  33  -5   8 2.26600 1.94462   3
 -33   5  -8 -0.4086  1.9777   1
  33   5   8 -0.4437  2.0689   3
  35  -5   8 2.05349 1.99821   3
 -35   5  -8 0.91684 2.09287   1
  35   5   8 -1.9141  2.1342   3
  37  -5   8 -0.2991  1.8885   3
  37   5   8 -5.3855  2.1497   3
 -37   5  -8 -1.8200  2.1007   1
  39  -5   8 0.28036 2.12208   3
 -40   6   8 1.20324 2.28475   1
  40   6  -8 2.27801 2.38810   3
  38  -6  -8 1.18519 2.30820   2
  38   6  -8 2.38988 2.33927   3
 -38   6   8 3.25398 2.37156   1
  36  -6  -8 2.50474 2.30411   2
 -36   6   8 3.38210 2.27696   1
  36   6  -8 6.11859 2.53037   3
  34  -6  -8 2.18113 2.11502   2
  34   6  -8 9.45256 2.55984   3
 -34   6   8 6.83687 2.44897   1
  32  -6  -8 16.3257  2.9279   2
  32   6  -8 15.6141  2.9787   3
 -32   6   8 17.1565  3.0284   1
  32   6  -8 16.3156  2.2714   2
  30  -6  -8 1.41958 1.83901   2
 -30   6   8 3.04147 2.04492   1
  30   6  -8 1.45893 2.07324   3
  30   6  -8 1.05677 1.45923   2
  28  -6  -8 9.24019 2.28037   2
  28   6  -8 7.18872 2.34561   3
 -28   6   8 8.47795 2.36870   1
  28   6  -8 9.89787 1.86688   2
  26  -6  -8 16.6930  2.6572   2
  26   6  -8 20.6351  2.3492   2
  26   6  -8 17.9890  2.9716   3
 -26   6   8 20.2567  2.8939   1
  24  -6  -8 4.11392 1.97196   2
  24   6  -8 6.87520 2.35566   3
 -24   6   8 3.43079 2.26942   1
  24   6  -8 5.49370 1.61366   2
  22  -6  -8 69.7897  4.3361   2
  22   6  -8 68.1237  3.8394   2
 -22   6   8 62.8536  4.4423   1
  22   6  -8 62.1632  4.5394   3
  20  -6  -8 17.2063  2.4993   2
  20   6  -8 19.0153  2.2730   2
 -20   6   8 16.5807  2.6572   1
  18  -6  -8 8.13748 1.81096   2
 -18   6   8 3.40016 1.86958   1
  18   6  -8 5.57083 1.57273   2
  16  -6  -8 25.1403  2.3990   2
  16   6  -8 26.1462  2.6148   2
  14  -6  -8 77.6105  4.2345   2
  14  -6  -8 79.1781  4.3600   1
  14   6  -8 90.7671  4.4428   2
  12  -6  -8 39.2620  2.9618   1
  12  -6  -8 36.6694  2.5893   2
  12   6  -8 37.1960  2.7472   2
  10  -6  -8 41.8772  2.7200   2
  10  -6  -8 38.5575  2.9351   1
  10   6  -8 41.6868  2.9709   2
   8  -6  -8 9.80348 1.84470   1
   8  -6  -8 11.2471  1.5774   2
   8   6  -8 13.5355  1.9496   2
   6  -6  -8 8.90005 1.44444   2
   6  -6  -8 6.33880 1.64595   1
  -6   6   8 8.63015 1.13265   3
   6   6  -8 7.35734 1.59529   2
   4  -6  -8 32.0879  2.2813   2
   4  -6  -8 26.6954  2.4747   1
   4   6  -8 35.0108  2.8011   2
  -4   6   8 31.2796  1.9893   3
   2  -6  -8 3.57842 1.53786   1
   2  -6  -8 3.36925 1.13384   2
  -2  -6   8 0.33470 0.38619   3
   2   6  -8 2.35195 0.89175   1
   2   6  -8 1.55488 0.78374   2
  -2   6   8 4.56612 1.10743   3
   0  -6  -8 72.6794  3.7632   1
   0  -6  -8 62.5749  3.2613   2
   0   6   8 68.1761  3.2910   3
   0   6  -8 81.8860  3.1606   1
   2  -6   8 32.9161  2.6879   3
  -2  -6  -8 26.8026  2.4532   1
  -2  -6  -8 22.8320  1.9293   2
   2   6   8 29.6280  2.2673   3
  -2   6  -8 28.8707  2.0248   1
  -4  -6  -8 56.8591  3.1974   1
   4  -6   8 56.2593  3.4008   3
  -4   6  -8 40.4656  3.4403   2
   4   6   8 57.2699  3.0721   3
  -4   6  -8 58.9794  2.9032   1
   6  -6   8 52.0919  3.2410   3
  -6  -6  -8 51.5068  3.0269   1
  -6   6  -8 50.5718  2.8171   1
   6   6   8 50.6347  2.9695   3
  -6   6  -8 36.8870  3.3190   2
   8  -6   8 26.5856  2.4502   3
  -8  -6  -8 26.0012  2.3439   1
   8   6   8 18.6232  2.0551   3
  -8   6  -8 14.6584  2.3675   2
  -8   6  -8 22.6740  2.1422   1
  10  -6   8 12.9094  1.9605   3
 -10  -6  -8 8.97328 1.62929   1
 -10   6  -8 8.77255 1.62729   1
  10   6   8 9.37567 1.78638   3
  12  -6   8 11.2022  1.9099   3
 -12  -6  -8 10.1986  1.7076   1
 -12   6  -8 7.46533 1.64554   1
  12   6   8 6.51031 1.65488   3
 -14  -6  -8 0.13862 1.15992   1
  14  -6   8 -0.6288  1.3095   3
 -14   6  -8 -0.4262  1.3282   1
  14   6   8 -0.6913  1.2296   3
 -16  -6  -8 44.8781  3.0796   1
  16  -6   8 43.9101  3.2074   3
 -16   6  -8 45.5633  3.1446   1
  16   6   8 41.0305  3.0144   3
  18  -6   8 3.76232 1.69263   3
 -18  -6  -8 4.56253 1.61059   1
  18   6   8 5.18564 1.71607   3
 -18   6  -8 4.10267 1.64737   1
 -20  -6  -8 17.4550  2.2960   1
  20  -6   8 14.6083  2.3524   3
 -20   6  -8 16.6031  2.3982   1
  20   6   8 19.8174  2.5642   3
 -22  -6  -8 6.14590 1.78054   1
  22  -6   8 3.74468 1.76329   3
  22   6   8 3.59797 1.88236   3
 -22   6  -8 3.05933 1.85051   1
  24  -6   8 4.87756 1.94069   3
 -24  -6  -8 2.97626 1.83248   1
 -24   6  -8 4.55369 2.03995   1
  24   6   8 2.13375 1.92330   3
 -26  -6  -8 6.20118 2.02656   1
  26  -6   8 5.90200 2.18444   3
  26   6   8 8.43626 2.28595   3
 -26   6  -8 10.3166  2.3817   1
  28  -6   8 6.37812 2.23452   3
 -28   6  -8 3.39826 2.15630   1
  28   6   8 2.81085 2.17782   3
  30  -6   8 12.6568  2.6001   3
  30   6   8 13.3113  2.6578   3
 -30   6  -8 12.4606  2.6582   1
  32  -6   8 3.85283 2.18815   3
 -32   6  -8 3.51237 2.25687   1
  32   6   8 1.16432 2.22903   3
  34  -6   8 4.99712 2.24618   3
  34   6   8 -3.4718  2.1222   3
 -34   6  -8 0.78201 2.17628   1
  36  -6   8 2.68724 2.08431   3
  37  -7  -8 2.57067 2.24581   2
  37   7  -8 1.54641 2.42452   3
 -37   7   8 1.30003 2.17430   1
  35  -7  -8 3.49838 2.39340   2
  35   7  -8 2.54241 2.42043   3
 -35   7   8 1.76239 2.20770   1
  33  -7  -8 3.54228 2.31599   2
  33   7  -8 4.67109 2.44574   3
 -33   7   8 3.52221 2.16753   1
  31  -7  -8 4.12567 2.24460   2
  31   7  -8 5.66282 2.44754   3
 -31   7   8 3.81734 2.20435   1
  29  -7  -8 2.64082 2.18322   2
  29   7  -8 0.31921 1.43051   2
  29   7  -8 1.63700 2.03843   3
 -29   7   8 2.01547 2.08819   1
  27  -7  -8 -1.5405  1.6344   2
  27   7  -8 1.48433 1.51356   2
 -27   7   8 -2.5171  1.9500   1
  27   7  -8 0.89290 2.00242   3
  25  -7  -8 4.68309 2.08527   2
  25   7  -8 0.92384 2.05386   3
 -25   7   8 2.65262 2.17288   1
  25   7  -8 3.38514 1.49988   2
  23  -7  -8 12.6268  2.5244   2
  23   7  -8 11.7390  2.6038   3
 -23   7   8 6.01594 2.34111   1
  23   7  -8 8.09508 1.81086   2
  21  -7  -8 7.29011 1.93413   2
  21   7  -8 6.29106 1.71535   2
 -21   7   8 6.30316 2.14053   1
  19  -7  -8 5.84191 1.82564   2
 -19   7   8 2.96040 1.91317   1
  19   7  -8 3.50143 1.57214   2
  17  -7  -8 36.6597  3.2295   2
  17   7  -8 40.8319  3.0657   2
 -17   7   8 44.0076  3.5806   1
  15  -7  -8 13.5988  2.1750   2
  15   7  -8 12.1666  2.0731   2
  13  -7  -8 87.0203  4.5844   2
  13  -7  -8 81.6496  4.6656   1
  13   7  -8 85.1799  4.5622   2
  11  -7  -8 25.7437  2.8667   1
  11  -7  -8 35.1982  2.7705   2
  11   7  -8 28.7721  2.6981   2
   9  -7  -8 7.46001 1.92652   1
   9  -7  -8 5.75663 1.48276   2
   9   7  -8 7.67231 1.81402   2
   7  -7  -8 3.50584 1.29159   2
   7  -7  -8 1.91837 1.63307   1
   7   7  -8 5.88894 1.58120   2
   5  -7  -8 30.4034  2.8004   1
   5  -7  -8 30.9438  2.4654   2
   5   7  -8 41.4646  3.1352   2
  -3  -7   8 1.22024 1.50590   3
   3  -7  -8 5.26704 1.34049   2
   3  -7  -8 5.54270 1.67988   1
  -3   7   8 3.77600 1.20350   3
   3   7  -8 7.65865 1.82590   2
   1  -7  -8 11.4650  1.6305   2
  -1  -7   8 12.6617  2.0647   3
   1  -7  -8 10.6712  1.8982   1
   1   7  -8 11.1230  1.9821   2
  -1   7   8 9.73446 1.54345   3
   1  -7   8 8.36127 1.88919   3
  -1  -7  -8 7.25034 1.74624   1
  -1   7  -8 11.0194  1.3509   1
  -1   7  -8 8.25561 1.98993   2
   1   7   8 8.34464 1.47909   3
  -3  -7  -8 10.2791  1.8501   1
   3  -7   8 9.32269 1.99676   3
  -3   7  -8 11.5301  1.5320   1
   3   7   8 11.5788  1.7217   3
  -3   7  -8 10.5107  2.0891   2
   5  -7   8 20.8740  2.5304   3
  -5  -7  -8 31.9749  2.6565   1
   5   7   8 26.7973  2.3646   3
  -5   7  -8 18.1201  2.8099   2
  -5   7  -8 26.5727  2.1569   1
  -7  -7  -8 19.4327  2.2952   1
   7  -7   8 18.1670  2.4630   3
  -7   7  -8 17.6377  2.0901   1
   7   7   8 21.9882  2.3475   3
  -7   7  -8 20.2687  2.8968   2
  -9  -7  -8 30.6829  2.6650   1
   9  -7   8 20.6232  2.5426   3
   9   7   8 32.7268  2.7964   3
  -9   7  -8 18.6527  2.8458   2
  -9   7  -8 24.5397  2.3876   1
 -11  -7  -8 4.87936 1.60056   1
  11  -7   8 3.54014 1.77073   3
  11   7   8 3.42908 1.65031   3
 -11   7  -8 4.06683 1.61577   1
 -13  -7  -8 4.50881 1.57044   1
  13  -7   8 1.97391 1.61102   3
  13   7   8 5.03061 1.80877   3
 -13   7  -8 6.15556 1.66304   1
 -15  -7  -8 17.7393  2.2945   1
  15  -7   8 14.5431  2.3547   3
  15   7   8 16.4355  2.3441   3
 -15   7  -8 17.2315  2.2740   1
  17  -7   8 1.54168 1.60806   3
 -17  -7  -8 0.40076 1.49183   1
  17   7   8 3.42817 1.67647   3
 -17   7  -8 1.16124 1.61365   1
 -19  -7  -8 1.21845 1.54569   1
  19  -7   8 2.70388 1.71036   3
  19   7   8 2.58572 1.74359   3
 -19   7  -8 3.39022 1.71833   1
 -21  -7  -8 3.12315 1.68794   1
  21  -7   8 5.92514 1.95918   3
 -21   7  -8 3.02567 1.72203   1
  21   7   8 3.68258 1.87574   3
  23  -7   8 2.09494 1.83954   3
 -23   7  -8 3.18077 1.92053   1
  23   7   8 2.46791 1.89719   3
  25  -7   8 7.17571 2.29627   3
  25   7   8 8.07409 2.33489   3
 -25   7  -8 6.22967 2.21815   1
  27  -7   8 2.02708 2.14332   3
  27   7   8 3.12197 2.18875   3
 -27   7  -8 4.18707 2.35469   1
  29  -7   8 0.64613 1.87120   3
 -29   7  -8 5.03622 2.44442   1
  29   7   8 1.79902 2.30182   3
  31  -7   8 4.50331 2.21927   3
  31   7   8 1.37193 2.40098   3
 -31   7  -8 -1.1061  2.1143   1
  33  -7   8 1.33789 2.09538   3
 -33   7  -8 -2.2110  2.0855   1
  33   7   8 -0.4927  2.3086   3
  34  -8  -8 4.39570 2.51823   2
 -34   8   8 4.41720 2.60853   1
  34   8  -8 4.36728 2.78083   3
  32  -8  -8 6.22452 2.41220   2
 -32   8   8 6.29613 2.61692   1
  32   8  -8 7.66009 2.84793   3
  30  -8  -8 6.09894 2.49217   2
 -30   8   8 4.09801 2.41769   1
  30   8  -8 4.22372 2.53926   3
  28  -8  -8 13.7951  2.8825   2
  28   8  -8 14.1832  3.0759   3
 -28   8   8 15.7479  3.1771   1
  26  -8  -8 8.28551 2.43415   2
  26   8  -8 10.2853  2.8273   3
  26   8  -8 10.6942  2.1680   2
 -26   8   8 7.90716 2.52966   1
  24  -8  -8 4.89584 2.16118   2
  24   8  -8 5.78122 1.76931   2
 -24   8   8 3.69418 2.34434   1
  24   8  -8 6.38171 2.55251   3
  22  -8  -8 14.7734  2.7343   2
  22   8  -8 15.3738  2.2363   2
 -22   8   8 11.1899  2.5593   1
  22   8  -8 17.9919  3.0152   3
  20  -8  -8 2.79238 1.87983   2
 -20   8   8 2.58019 1.98242   1
  20   8  -8 2.91357 1.60556   2
  18  -8  -8 0.21118 1.50819   2
  18   8  -8 0.78642 1.49886   2
 -18   8   8 1.95844 1.88445   1
  16  -8  -8 14.8365  2.3167   2
  16   8  -8 15.3999  2.3141   2
 -16   8   8 15.9342  2.7927   1
  14  -8  -8 6.83640 1.92154   2
  14   8  -8 5.04628 1.88374   2
  12  -8  -8 83.5961  4.8346   1
  12  -8  -8 88.5897  4.6977   2
  12   8  -8 81.2585  4.7481   2
  10  -8  -8 6.11377 1.77520   2
  10  -8  -8 3.22429 1.99027   1
  10   8  -8 5.84776 1.87775   2
   8  -8  -8 78.3490  4.2546   2
   8  -8  -8 73.5906  4.4322   1
   8   8  -8 85.8112  4.7289   2
   6  -8  -8 15.3713  2.1275   2
   6  -8  -8 13.1257  2.2886   1
   6   8  -8 16.6218  2.4980   2
   4  -8  -8 9.53081 1.77907   2
   4  -8  -8 11.7355  2.0918   1
   4   8  -8 9.11010 1.97696   2
   2  -8  -8 6.44670 1.78835   1
  -2  -8   8 5.64606 1.83329   3
   2   8  -8 5.81286 1.94244   2
   0  -8  -8 19.0663  2.4097   1
   0  -8   8 17.5724  2.4993   3
   0   8   8 22.7781  2.2541   3
   0   8  -8 18.5799  2.7807   2
  -2  -8  -8 3.00116 1.51748   1
   2  -8   8 2.00838 1.73644   3
   2   8   8 5.11040 1.49205   3
  -2   8  -8 2.03534 1.68427   2
   4  -8   8 45.1978  3.3526   3
  -4  -8  -8 43.4844  3.2096   1
   4   8   8 41.2530  2.9829   3
  -4   8  -8 39.8786  3.6099   2
   6  -8   8 18.5879  2.6369   3
  -6  -8  -8 18.8637  2.4274   1
  -6   8  -8 15.5443  2.7424   2
   6   8   8 21.5839  2.4767   3
  -6   8  -8 15.5751  2.0848   1
  -8  -8  -8 31.4549  2.9117   1
   8  -8   8 24.8659  2.9958   3
   8   8   8 33.2631  2.9809   3
  -8   8  -8 28.2338  3.5153   2
  -8   8  -8 29.3916  2.5917   1
  10  -8   8 15.9964  2.4389   3
 -10  -8  -8 14.0937  2.2087   1
  10   8   8 13.7932  2.2969   3
 -10   8  -8 14.7641  2.1766   1
 -10   8  -8 11.1396  2.5597   2
  12  -8   8 21.0977  2.7894   3
 -12  -8  -8 21.7760  2.5888   1
 -12   8  -8 19.4607  2.4666   1
  12   8   8 23.8498  2.8430   3
 -12   8  -8 21.0078  3.1820   2
  14  -8   8 3.14116 1.83728   3
 -14  -8  -8 1.36752 1.52619   1
 -14   8  -8 2.61744 1.68191   1
  14   8   8 2.87309 1.77229   3
 -16  -8  -8 29.6897  2.9619   1
  16  -8   8 26.6177  3.0615   3
  16   8   8 27.4471  3.0266   3
 -16   8  -8 24.0048  2.8157   1
  18  -8   8 1.38190 1.81617   3
 -18   8  -8 1.28594 1.75254   1
  18   8   8 3.47286 1.86038   3
  20  -8   8 3.89362 2.05398   3
  20   8   8 5.21008 1.97276   3
 -20   8  -8 5.53696 2.00055   1
  22  -8   8 0.66157 1.80494   3
 -22   8  -8 3.95425 2.02113   1
  22   8   8 3.84709 2.10279   3
  24  -8   8 0.91993 1.83707   3
 -24   8  -8 5.60481 2.28271   1
  24   8   8 1.79416 2.03041   3
  26  -8   8 11.9797  2.7033   3
  26   8   8 13.4938  2.9549   3
 -26   8  -8 9.96045 2.61621   1
  28  -8   8 3.92421 2.30059   3
 -28   8  -8 5.47275 2.38643   1
  28   8   8 3.91862 2.39302   3
  30  -8   8 12.5943  2.8114   3
  30   8   8 10.7246  2.9156   3
 -30   8  -8 7.36286 2.80991   1
  31  -9  -8 4.48572 2.50596   2
  31   9  -8 3.04692 2.67908   3
  29  -9  -8 8.67922 2.80023   2
 -29   9   8 11.2474  2.9800   1
  29   9  -8 7.30232 2.87505   3
  27  -9  -8 0.90204 2.17740   2
 -27   9   8 -1.2424  2.1339   1
  27   9  -8 3.11140 2.48223   3
  25  -9  -8 24.7923  3.4871   2
 -25   9   8 23.6667  3.6381   1
  25   9  -8 23.8750  3.6371   3
  23  -9  -8 2.69207 2.08813   2
  23   9  -8 0.30539 1.59666   2
  23   9  -8 2.77789 2.34558   3
 -23   9   8 0.21266 2.13856   1
  21  -9  -8 24.7486  3.4174   2
 -21   9   8 17.5192  3.0863   1
  21   9  -8 23.7121  2.9004   2
  19  -9  -8 2.94998 1.95295   2
 -19   9   8 1.95873 2.24733   1
  19   9  -8 3.88594 1.79751   2
  17  -9  -8 17.4964  2.7589   2
 -17   9   8 15.7834  2.8614   1
  17   9  -8 18.5419  2.6383   2
  15  -9  -8 18.2819  2.7613   2
 -15   9   8 16.0983  2.8206   1
  15   9  -8 16.1578  2.5595   2
  13  -9  -8 17.6802  2.6092   2
  13   9  -8 18.2544  2.6928   2
  11  -9  -8 34.6567  3.5713   1
  11  -9  -8 31.8792  3.0973   2
  11   9  -8 39.3840  3.4817   2
   9  -9  -8 48.0889  3.4825   2
   9  -9  -8 41.8680  3.6961   1
   9   9  -8 43.2021  3.6574   2
   7  -9  -8 49.0513  3.6383   1
   7  -9  -8 46.6339  3.4023   2
   7   9  -8 48.9687  3.8179   2
   5  -9  -8 15.6054  2.5610   1
   5   9  -8 15.6834  2.5265   2
   3  -9  -8 18.0886  2.5971   1
   3   9  -8 22.2798  2.9634   2
   1  -9  -8 10.1369  2.1210   1
   1   9  -8 6.92480 2.36340   2
   1  -9   8 12.5175  2.6768   3
  -1  -9  -8 14.9001  2.4785   1
  -1   9  -8 12.5045  2.6518   2
  -3  -9  -8 22.2588  2.7458   1
   3  -9   8 18.2835  2.7878   3
  -3   9  -8 15.1116  2.9941   2
   3   9   8 17.1173  2.3986   3
  -5  -9  -8 53.8135  3.7329   1
   5  -9   8 46.1222  3.8004   3
   5   9   8 51.6234  3.6416   3
  -5   9  -8 42.5949  4.2817   2
   7  -9   8 6.39256 2.17542   3
  -7  -9  -8 5.38950 1.88546   1
  -7   9  -8 3.52999 2.28270   2
   7   9   8 6.63586 1.99857   3
   9  -9   8 50.9047  3.8696   3
  -9  -9  -8 57.1898  3.8757   1
   9   9   8 57.9965  3.9114   3
  -9   9  -8 48.3235  4.6007   2
 -11  -9  -8 11.9822  2.2827   1
  11  -9   8 9.85619 2.47206   3
  11   9   8 11.4347  2.3053   3
 -11   9  -8 11.4963  2.8656   2
 -11   9  -8 8.86960 2.11129   1
  13  -9   8 37.0259  3.5493   3
 -13   9  -8 38.4091  3.2338   1
  13   9   8 38.7137  3.4677   3
 -13   9  -8 37.3591  4.2984   2
  15  -9   8 8.59132 2.24437   3
 -15   9  -8 5.60987 2.10440   1
  15   9   8 8.41853 2.27835   3
  17  -9   8 14.1714  2.6722   3
  17   9   8 17.3241  2.7999   3
 -17   9  -8 15.1931  2.6214   1
  19  -9   8 0.84884 1.85758   3
 -19   9  -8 -2.2934  1.6140   1
  19   9   8 -1.2008  1.8454   3
  21  -9   8 7.38629 2.32915   3
 -21   9  -8 7.79105 2.15097   1
  21   9   8 10.1812  2.5265   3
  23  -9   8 1.14838 2.21163   3
 -23   9  -8 1.27993 1.92254   1
  23   9   8 1.27217 2.03549   3
  25  -9   8 7.92106 2.56621   3
  25   9   8 8.59020 2.71091   3
 -25   9  -8 9.89599 2.60729   1
  27  -9   8 6.68903 2.47134   3
  27   9   8 4.60634 2.50380   3
 -27   9  -8 2.91855 2.33965   1
  26 -10  -8 4.73774 2.41713   2
  26  10  -8 1.96842 2.64874   3
 -26  10   8 4.03457 2.57491   1
  24 -10  -8 12.8354  2.8533   2
  24  10  -8 12.5422  3.0250   3
 -24  10   8 15.0672  3.1408   1
  22 -10  -8 16.8292  3.1656   2
  22  10  -8 13.9672  3.2000   3
 -22  10   8 13.8433  3.0376   1
  20 -10  -8 18.3308  3.2009   2
  20  10  -8 19.6030  2.8393   2
 -20  10   8 10.8944  2.9334   1
  18 -10  -8 15.4719  2.9304   2
  18  10  -8 13.2331  2.5877   2
 -18  10   8 11.8876  3.0405   1
  16 -10  -8 41.0938  3.8015   2
 -16  10   8 33.8724  4.0365   1
  16  10  -8 40.6791  3.6310   2
  14 -10  -8 4.64305 2.03965   2
 -14  10   8 -0.4763  1.9440   1
  14  10  -8 0.97556 1.75757   2
  12 -10  -8 29.9516  3.4034   2
 -12  10   8 26.0168  3.4011   1
  12  10  -8 28.1500  3.3972   2
  10  10  -8 3.25529 1.92096   2
   8 -10  -8 14.7578  2.7656   1
   8  10  -8 12.1971  2.5989   2
   6 -10  -8 0.34094 1.91512   1
   6  10  -8 3.44030 1.95535   2
   4 -10  -8 27.5122  3.2147   1
   4  10  -8 23.8756  3.3403   2
   2 -10  -8 -1.7780  1.6109   1
   2  10  -8 -0.3691  1.9614   2
   0 -10  -8 49.5943  3.9205   1
   0  10  -8 55.1834  4.4056   2
  -2 -10  -8 5.56769 2.18156   1
  -2  10  -8 4.82374 2.47761   2
   4 -10   8 64.3825  4.5336   3
  -4 -10  -8 67.8189  4.3765   1
  -4  10  -8 63.3522  4.9001   2
   6 -10   8 9.16150 2.53031   3
  -6 -10  -8 14.8444  2.5427   1
   6  10   8 10.9496  2.3364   3
  -6  10  -8 10.0333  3.0056   2
   8 -10   8 41.8729  3.8245   3
   8  10   8 38.2262  3.4750   3
  -8  10  -8 39.4154  4.4985   2
  10 -10   8 9.09351 2.51144   3
 -10  10  -8 5.30331 2.73328   2
  10  10   8 13.6283  2.5722   3
  12 -10   8 13.1221  2.7586   3
  12  10   8 17.0405  2.7672   3
 -12  10  -8 11.0112  3.1236   2
  14 -10   8 7.80547 2.37050   3
 -14  10  -8 9.36318 2.95514   2
  14  10   8 8.79238 2.44818   3
  16 -10   8 14.5587  2.8012   3
 -16  10  -8 9.78250 2.43790   1
  16  10   8 13.2519  2.6810   3
 -16  10  -8 8.11258 2.81017   2
  18 -10   8 11.0195  2.7574   3
  18  10   8 12.2668  2.7814   3
 -18  10  -8 12.0303  2.5931   1
 -18  10  -8 7.05600 2.97397   2
  20 -10   8 6.93848 2.49016   3
 -20  10  -8 5.01027 2.25308   1
  20  10   8 4.18665 2.43065   3
  22 -10   8 12.4240  2.8198   3
  22  10   8 11.5522  2.7949   3
 -22  10  -8 12.0407  2.7158   1
 -24  10  -8 1.06900 2.29495   1
  24  10   8 0.84741 2.33072   3
  21 -11  -8 39.0406  4.5713   2
  21  11  -8 40.7759  4.8761   3
 -21  11   8 35.7828  4.3790   1
  19 -11  -8 15.1625  3.0894   2
 -19  11   8 8.36176 3.08322   1
  17  11  -8 47.6234  4.1170   2
 -17  11   8 49.5254  4.4202   1
  15  11  -8 16.0749  2.9385   2
 -15  11   8 14.5965  3.2849   1
 -13  11   8 15.2107  2.9739   1
  13  11  -8 14.3798  2.8601   2
 -11  11   8 7.31283 2.43916   1
  11  11  -8 16.5133  2.9340   2
  -9  11   8 4.71688 2.22799   1
   9  11  -8 7.32897 2.35505   2
   7  11  -8 18.8288  3.1260   2
   5 -11  -8 17.8925  2.9958   1
   5  11  -8 20.4315  3.3023   2
   3 -11  -8 24.1698  3.3249   1
   3  11  -8 27.2836  3.7366   2
   1 -11  -8 30.4015  3.5941   1
  -1 -11  -8 25.7454  3.3135   1
  -1  11  -8 24.4844  3.7336   2
  -3  11  -8 10.2714  3.0818   2
  -5  11  -8 46.6482  4.6690   2
  -7  11  -8 4.01388 2.66847   2
   9 -11   8 38.4102  4.1330   3
  -9  11  -8 36.0467  4.5799   2
  11 -11   8 -1.4592  1.8488   3
  11  11   8 -0.0425  1.9076   3
 -11  11  -8 0.17668 2.32546   2
  13 -11   8 19.8161  3.2454   3
  13  11   8 12.1686  2.7305   3
 -13  11  -8 15.0293  3.4296   2
  15 -11   8 0.56041 2.17537   3
 -15  11  -8 2.55982 2.40984   2
  15  11   8 -0.3356  2.0844   3
  17 -11   8 12.2200  2.6981   3
 -17  11  -8 14.0082  3.3927   2
  17  11   8 13.1743  2.9203   3
  19 -11   8 0.17935 2.16263   3
  19  11   8 -0.1189  2.1565   3
  14  12  -8 9.36042 2.74463   2
 -14  12   8 6.28186 2.83558   1
 -12  12   8 36.9381  4.3087   1
  12  12  -8 35.1304  4.1382   2
  10  12  -8 2.56520 2.27241   2
 -10  12   8 -4.2345  2.0092   1
  -8  12   8 19.3044  3.3466   1
   8  12  -8 30.2696  3.8580   2
   6  12  -8 6.55357 2.49801   2
  -6  12   8 7.02090 2.56315   1
   4  12  -8 18.8983  3.4966   2
   2  12  -8 3.39677 2.58480   2
   0  12  -8 32.7122  4.3232   2
  -2  12  -8 2.94877 2.55978   2
  -4  12  -8 32.4809  4.4970   2
  -6  12  -8 2.59152 2.50307   2
  -8  12  -8 14.7465  3.5602   2
  14 -12   8 5.70921 2.64592   3
  46   0  -9 2.71209 2.19517   2
  44   0  -9 1.61583 2.22156   2
  42   0  -9 1.38052 1.94012   2
  40   0  -9 0.87592 1.92398   2
  38   0  -9 -0.2570  1.7019   2
  36   0  -9 -1.0560  1.5148   2
  34   0  -9 -0.5440  1.4820   2
  32   0  -9 1.66490 1.43854   2
  30   0  -9 1.24019 1.51607   2
 -28   0   9 1.76889 1.49743   1
  28   0  -9 3.40650 1.54546   2
 -26   0   9 -3.1279  1.1788   1
  26   0  -9 -0.0150  1.1716   2
 -24   0   9 2.98075 1.36788   1
  24   0  -9 2.24115 1.26259   2
  22   0  -9 -0.8825  1.0035   2
 -22   0   9 -1.0109  1.0025   1
  22   0  -9 0.84404 0.84449   3
  20   0  -9 0.13175 0.83406   2
 -20   0   9 0.46815 1.06602   1
  20   0  -9 -0.1504  0.3905   3
  18   0  -9 -0.0873  0.2736   2
 -18   0   9 -0.2641  0.8050   1
  18   0  -9 0.75474 0.65759   3
  16   0  -9 -0.0180  0.3475   2
  16   0  -9 -0.3851  0.6153   3
  16   0  -9 0.21987 0.78064   1
  14   0  -9 -0.6351  0.5945   2
  14   0  -9 1.14156 0.75704   1
  12   0  -9 -0.1903  0.7103   1
  12   0  -9 1.13705 0.67370   2
  10   0  -9 1.07045 0.67011   1
  10   0  -9 1.63802 0.72652   2
  -8   0   9 -0.0928  0.4936   3
   8   0  -9 0.77116 0.58769   2
   8   0  -9 0.19267 0.58980   1
   6   0  -9 1.13649 0.65111   1
   6   0  -9 0.02921 0.47244   2
  -6   0   9 -0.3263  0.5176   3
  -4   0   9 -0.2190  0.4912   3
   4   0  -9 -0.0195  0.5582   1
   4   0  -9 -0.1719  0.5109   2
  -2   0   9 -0.8389  0.5379   3
   2   0  -9 -0.0637  0.3272   2
   2   0  -9 0.35772 0.62778   1
   0   0  -9 -0.0800  0.3456   2
   0   0  -9 0.66239 0.67746   1
   0   0   9 -0.6411  0.5756   3
  -2   0  -9 -0.3169  0.5481   2
   2   0   9 -0.6895  0.6535   3
  -2   0  -9 -0.9309  0.7121   1
  -4   0  -9 0.38689 0.53095   2
   4   0   9 0.56285 0.72286   3
  -4   0  -9 0.97565 0.73658   1
  -6   0  -9 0.76792 0.72353   1
   6   0   9 -0.3134  0.6635   3
  -6   0  -9 1.47715 0.60842   2
  -8   0  -9 -0.5738  0.5297   2
   8   0   9 -0.2259  0.7828   3
  -8   0  -9 -0.5883  0.7146   1
 -10   0  -9 -0.3149  0.8187   1
  10   0   9 -0.2136  0.9053   3
 -12   0  -9 -2.5460  0.6685   2
 -12   0  -9 -0.1361  0.3064   1
  12   0   9 -0.4680  1.0496   3
 -14   0  -9 0.14935 0.36865   1
 -14   0  -9 -1.2061  0.7430   2
  14   0   9 1.82033 1.18205   3
 -16   0  -9 0.25399 0.46229   1
  16   0   9 -0.6447  0.3223   3
  18   0   9 -0.3568  0.6812   3
 -18   0  -9 -0.3289  1.0699   1
  20   0   9 1.55261 1.37435   3
 -20   0  -9 -0.4367  1.1644   1
  22   0   9 -2.8383  1.2733   3
 -22   0  -9 0.95856 1.22058   1
 -24   0  -9 -1.6486  1.3617   1
  24   0   9 -3.4337  1.4267   3
  26   0   9 0.50294 1.73951   3
 -26   0  -9 1.14445 1.60536   1
 -28   0  -9 0.70578 1.76222   1
  28   0   9 -2.4811  1.7267   3
 -30   0  -9 1.25109 1.84976   1
  30   0   9 1.77449 1.99672   3
 -32   0  -9 0.33881 1.86267   1
  32   0   9 -0.7885  1.9506   3
  34   0   9 4.05719 2.38641   3
 -34   0  -9 -0.7676  1.7239   1
  36   0   9 1.32580 2.35783   3
 -36   0  -9 -0.8202  1.8192   1
 -38   0  -9 -0.0107  1.7884   1
  38   0   9 -0.4742  2.2583   3
  40   0   9 1.97015 2.24101   3
 -40   0  -9 1.02957 1.98334   1
  45  -1  -9 2.84766 2.39009   2
  43  -1  -9 9.06527 2.68925   2
  43   1  -9 5.12543 2.27647   2
  41  -1  -9 9.37160 2.58333   2
  41   1  -9 9.68313 2.46439   2
  39  -1  -9 2.14130 1.88692   2
  39   1  -9 -0.3673  1.7870   2
  37  -1  -9 0.33705 1.74316   2
  37   1  -9 -0.8717  1.6641   2
  35  -1  -9 0.39716 1.62642   2
  35   1  -9 0.09200 1.47336   2
  33  -1  -9 9.81748 2.13434   2
  33   1  -9 8.61316 1.89943   2
 -33   1   9 8.32329 1.96627   1
  31  -1  -9 0.97815 1.45008   2
 -31   1   9 2.31219 1.62410   1
  31   1  -9 1.41630 1.42826   2
  29  -1  -9 22.5494  2.5122   2
  29   1  -9 22.5944  2.4232   2
 -29   1   9 23.6257  2.5244   1
  27  -1  -9 12.4790  1.9340   2
 -27   1   9 13.2773  1.9572   1
  27   1  -9 13.9014  1.8835   2
  25  -1  -9 10.7979  1.8688   2
  25   1  -9 13.3980  1.7263   3
 -25   1   9 13.1949  1.9990   1
  25   1  -9 14.2918  1.8909   2
 -23  -1   9 54.7172  2.8745   1
  23  -1  -9 61.6960  3.2893   2
 -23   1   9 57.9310  3.3422   1
  23   1  -9 60.3091  3.2679   2
  23   1  -9 58.0689  3.0564   3
 -21  -1   9 0.77667 1.07509   1
 -21   1   9 1.85601 1.43101   1
  21   1  -9 3.01698 1.22196   3
  21   1  -9 2.68029 1.26385   2
 -19  -1   9 26.0888  1.9117   1
 -19   1   9 33.8861  2.4583   1
  19   1  -9 38.5594  2.3833   2
  19   1  -9 39.0117  2.3361   3
  17  -1  -9 57.9617  2.1787   3
  17  -1  -9 44.5884  2.6853   2
  17  -1  -9 59.4468  2.9199   1
  17   1  -9 57.9681  2.8295   3
  17   1  -9 54.6632  2.8008   2
  15  -1  -9 35.1114  1.5702   3
  15  -1  -9 34.6280  2.1329   1
  15  -1  -9 39.5066  2.2484   2
  15   1  -9 37.6147  1.9226   1
  13  -1  -9 11.4632  1.3093   2
  13  -1  -9 9.54475 1.25527   1
  13  -1  -9 9.29366 0.75040   3
  13   1  -9 5.69828 0.92860   2
  13   1  -9 9.18607 1.02477   1
  11  -1  -9 5.79697 0.95362   2
  11  -1  -9 5.36328 1.03596   1
  11   1  -9 3.86650 0.84444   2
  11   1  -9 4.48246 0.76679   1
  -9  -1   9 30.6736  1.6988   3
   9  -1  -9 35.1437  1.8684   2
   9  -1  -9 32.5579  1.9025   1
   9   1  -9 30.5295  1.5588   1
   9   1  -9 31.5346  1.8459   2
   7  -1  -9 94.2205  3.5958   2
   7  -1  -9 86.5891  3.5222   1
  -7  -1   9 90.2400  3.4508   3
   7   1  -9 93.0521  3.7201   2
   7   1  -9 86.3957  3.2995   1
  -7   1   9 86.4529  3.0924   3
   5  -1  -9 229.824   7.774   1
   5  -1  -9 232.616   7.839   2
  -5  -1   9 233.472   7.752   3
  -5   1   9 228.194   7.425   3
   5   1  -9 223.679   7.522   1
   5   1  -9 230.260   8.018   2
   3  -1  -9 402.218  12.981   1
  -3  -1   9 400.232  13.024   3
   3   1  -9 393.347  12.753   1
   3   1  -9 410.507  13.390   2
  -3   1   9 402.073  12.742   3
   1  -1  -9 3.63739 0.64263   2
   1  -1  -9 2.81733 0.83790   1
  -1  -1   9 3.02075 0.79106   3
   1   1  -9 4.98112 0.89077   2
  -1   1   9 3.56693 0.70718   3
   1   1  -9 4.47760 0.80781   1
  -1  -1  -9 35.4706  2.0103   1
   1  -1   9 33.0387  1.8474   3
  -1  -1  -9 33.6835  1.6512   2
  -1   1  -9 33.8388  1.8246   1
  -1   1  -9 32.2989  1.8941   2
   1   1   9 34.9614  1.7007   3
  -3  -1  -9 39.0715  1.7134   2
  -3  -1  -9 38.7733  2.0832   1
   3  -1   9 38.1055  2.0150   3
  -3   1  -9 39.3414  2.0222   1
   3   1   9 37.0529  1.9298   3
   5  -1   9 28.3387  1.7181   3
  -5  -1  -9 25.6429  1.2851   2
  -5  -1  -9 25.4222  1.7344   1
   5   1   9 24.6418  1.5790   3
  -5   1  -9 26.1431  1.6570   1
   7  -1   9 3.55277 0.92505   3
  -7  -1  -9 4.23497 0.57960   2
   7   1   9 3.30904 0.93794   3
  -7   1  -9 4.18089 0.92794   1
   9  -1   9 102.328   4.257   3
  -9  -1  -9 109.715   3.718   2
  -9   1  -9 103.476   4.238   1
   9   1   9 110.292   4.224   3
 -11  -1  -9 25.2270  1.9110   1
 -11  -1  -9 23.1778  1.2364   2
  11  -1   9 25.4369  1.9901   3
  11   1   9 28.4650  1.9925   3
 -11   1  -9 25.6808  1.8873   1
 -11   1  -9 16.8341  1.5595   2
 -13  -1  -9 2.84164 0.58765   2
  13  -1   9 1.88677 0.97686   3
 -13  -1  -9 4.44646 1.18384   1
  13   1   9 2.49831 1.15185   3
 -13   1  -9 1.38223 0.93364   2
 -13   1  -9 2.31604 1.04078   1
  17   1   9 17.0711  1.9084   3
  19  -1   9 36.5061  2.7045   3
 -19  -1  -9 41.1027  2.6821   1
 -19   1  -9 38.3188  2.6771   1
  19   1   9 39.1079  2.7071   3
 -21  -1  -9 17.0568  2.0734   1
  21  -1   9 16.4791  2.1499   3
  21   1   9 17.5836  2.1562   3
 -21   1  -9 15.2139  2.0737   1
 -23  -1  -9 11.2814  1.8955   1
  23  -1   9 11.9381  2.0689   3
  23   1   9 13.4722  2.1485   3
 -23   1  -9 11.3134  2.0018   1
  25  -1   9 2.66667 1.80256   3
 -25  -1  -9 -0.8070  1.4814   1
 -25   1  -9 4.54064 1.76233   1
  25   1   9 1.75348 1.74757   3
 -27  -1  -9 1.15137 1.69230   1
  27  -1   9 1.01916 1.83939   3
  27   1   9 -0.7104  1.6801   3
 -27   1  -9 1.55933 1.66407   1
  29  -1   9 -2.3240  1.9208   3
 -29  -1  -9 -0.2204  1.6157   1
 -29   1  -9 1.10551 1.70994   1
  29   1   9 2.02387 1.88577   3
  31  -1   9 7.21752 2.34050   3
 -31  -1  -9 5.20041 2.02917   1
 -31   1  -9 7.65912 2.08548   1
  31   1   9 8.17490 2.30251   3
  33  -1   9 0.46210 1.89502   3
 -33  -1  -9 -1.1520  1.7057   1
 -33   1  -9 -0.4170  1.7238   1
  33   1   9 -2.8352  1.9258   3
  35  -1   9 3.70657 2.15838   3
 -35  -1  -9 0.57000 1.74446   1
 -35   1  -9 2.05564 1.99429   1
  35   1   9 -0.4627  2.2143   3
  37  -1   9 0.26455 1.97950   3
 -37  -1  -9 -0.9259  1.6587   1
 -37   1  -9 -0.3299  1.9757   1
  37   1   9 -2.8202  2.0930   3
  39  -1   9 2.83984 2.14465   3
 -39  -1  -9 1.36814 1.96558   1
  39   1   9 3.61648 2.52250   3
 -39   1  -9 -3.0622  1.8710   1
 -41  -1  -9 0.34945 2.09872   1
  44  -2  -9 5.58015 2.60613   2
  42  -2  -9 6.95156 2.52580   2
  42   2  -9 5.65882 2.35100   2
  40  -2  -9 11.9021  2.7226   2
  40   2  -9 12.7485  2.5093   2
  38  -2  -9 5.89521 2.02583   2
  38   2  -9 5.52794 2.04688   2
  36  -2  -9 5.39648 2.10668   2
 -36   2   9 2.56983 1.98180   1
  36   2  -9 1.85671 1.72013   2
  34  -2  -9 5.23144 1.81281   2
  34   2  -9 3.89508 1.68978   2
 -34   2   9 2.63156 1.94121   1
  32  -2  -9 6.17841 1.92327   2
  32   2  -9 4.19334 1.55475   2
 -32   2   9 3.70552 1.73883   1
  30  -2  -9 34.2658  2.8204   2
  30   2  -9 32.6507  2.6938   3
  30   2  -9 32.6792  2.6471   2
 -30   2   9 35.6993  2.9184   1
  28   2  -9 -0.4868  1.2518   3
  28   2  -9 -0.6672  1.1634   2
 -28   2   9 -1.0935  1.2349   1
  26  -2  -9 72.5217  3.9498   2
  26   2  -9 66.1022  3.5457   2
 -26   2   9 70.9351  3.9716   1
  26   2  -9 68.9255  3.6506   3
  24  -2  -9 1.37174 1.21081   2
  24   2  -9 2.91744 1.31940   3
  24   2  -9 0.95010 1.14810   2
 -24   2   9 4.12405 1.47517   1
  22  -2  -9 117.440   5.070   2
 -22   2   9 114.075   5.192   1
  22   2  -9 112.637   4.863   2
  22   2  -9 112.207   4.998   3
  20   2  -9 4.28688 1.54406   3
 -20   2   9 2.36344 1.68948   1
  20   2  -9 5.76452 1.40416   2
  18  -2  -9 57.3656  3.1656   2
 -18  -2   9 66.9516  2.7568   1
  18   2  -9 72.3419  3.3216   2
  16  -2  -9 52.3400  2.7872   2
  16  -2  -9 43.8222  2.8746   1
 -16  -2   9 43.7846  2.1545   1
  16   2  -9 51.2288  2.7697   2
  14  -2  -9 129.589   5.034   1
  14  -2  -9 122.281   5.001   2
  14   2  -9 126.303   5.023   2
  12  -2  -9 264.790   9.182   1
  12  -2  -9 271.352   9.356   2
  12   2  -9 264.583   8.510   1
  10  -2  -9 54.1841  2.6900   2
  10  -2  -9 57.4536  2.7632   1
  10   2  -9 58.7603  2.1976   1
  10   2  -9 57.5449  2.7757   2
  -8  -2   9 -0.1076  0.7640   3
   8  -2  -9 -1.2452  0.7327   1
   8  -2  -9 0.07811 0.60325   2
   8   2  -9 0.24595 0.64060   2
   8   2  -9 0.78286 0.50595   1
   6  -2  -9 428.401  14.050   2
   6  -2  -9 424.557  13.900   1
  -6  -2   9 423.056  13.975   3
   6   2  -9 417.407  13.389   1
  -6   2   9 424.213  13.345   3
   6   2  -9 447.767  14.411   2
   4  -2  -9 18.0697  1.5573   1
   4  -2  -9 17.7570  1.2680   2
  -4  -2   9 19.2806  1.5224   3
   4   2  -9 20.3226  1.2226   1
  -4   2   9 22.8306  1.0717   3
   4   2  -9 16.6318  1.4891   2
  -2  -2   9 474.878  15.024   3
   2  -2  -9 456.213  14.852   1
   2   2  -9 448.958  14.461   1
  -2   2   9 452.229  14.480   3
   2   2  -9 465.108  15.336   2
   0  -2   9 130.447   4.995   3
   0  -2  -9 141.250   4.716   2
   0  -2  -9 136.778   5.024   1
   0   2   9 129.047   4.584   3
   0   2  -9 128.537   4.677   1
   0   2  -9 135.732   5.240   2
   2  -2   9 353.928  11.772   3
  -2  -2  -9 361.236  11.426   2
  -2   2  -9 364.300  12.076   2
  -2   2  -9 346.897  11.404   1
   2   2   9 342.235  11.397   3
   4  -2   9 202.781   7.154   3
  -4  -2  -9 209.467   6.633   2
  -4   2  -9 197.762   6.927   1
   4   2   9 194.288   6.854   3
  -4   2  -9 206.272   7.376   2
  -6  -2  -9 28.9695  1.1505   2
  -6  -2  -9 25.8530  1.8397   1
   6  -2   9 26.1484  1.8734   3
  -6   2  -9 27.5300  1.7482   1
  -6   2  -9 27.6510  1.9384   2
   6   2   9 25.3877  1.7355   3
  -8  -2  -9 441.565  14.545   1
   8  -2   9 434.132  14.614   3
   8   2   9 455.540  14.490   3
  -8   2  -9 440.955  14.908   2
  -8   2  -9 447.338  14.450   1
 -10  -2  -9 5.77063 1.24090   1
  10  -2   9 6.43461 1.23826   3
 -10   2  -9 4.32876 1.08894   1
  10   2   9 4.41460 1.04021   3
 -10   2  -9 4.97498 1.10877   2
 -12  -2  -9 4.79831 1.12003   1
 -12   2  -9 3.35992 1.05617   2
 -12   2  -9 3.51155 1.15297   1
  12   2   9 4.35471 1.16877   3
 -14  -2  -9 73.9676  3.4994   1
 -14   2  -9 70.4617  3.4398   1
  14   2   9 74.2445  3.4326   3
 -16  -2  -9 2.05960 1.08010   1
  16  -2   9 0.04733 0.77592   3
  16   2   9 2.26887 1.14325   3
 -16   2  -9 1.62501 1.13731   1
 -18  -2  -9 66.8284  3.5066   1
  18  -2   9 72.1950  3.6368   3
  18   2   9 65.5505  3.4560   3
 -18   2  -9 66.2793  3.5232   1
  20  -2   9 62.9492  3.6442   3
 -20  -2  -9 68.0602  3.6193   1
  20   2   9 64.9097  3.5709   3
 -20   2  -9 64.8073  3.5899   1
 -22  -2  -9 5.07502 1.59717   1
  22  -2   9 4.39237 1.77851   3
  22   2   9 2.79720 1.66673   3
 -22   2  -9 3.67681 1.63841   1
  24  -2   9 42.3814  3.3706   3
 -24  -2  -9 45.1042  3.2287   1
  24   2   9 45.0053  3.2748   3
 -24   2  -9 44.8666  3.2613   1
 -26  -2  -9 1.89224 1.67250   1
  26  -2   9 -0.4708  1.6901   3
 -26   2  -9 1.70241 1.69248   1
  26   2   9 1.30297 1.80882   3
 -28  -2  -9 33.4839  2.9554   1
  28  -2   9 33.9631  3.2205   3
  28   2   9 37.5630  3.1831   3
 -28   2  -9 36.4486  3.2236   1
 -30  -2  -9 0.08079 1.56757   1
  30  -2   9 -0.8668  1.8250   3
 -30   2  -9 0.58299 1.65889   1
  30   2   9 -3.0437  1.7304   3
 -32  -2  -9 8.25164 2.13608   1
  32  -2   9 10.3923  2.4609   3
 -32   2  -9 9.99080 2.32696   1
  32   2   9 8.15973 2.48161   3
  34  -2   9 3.17855 2.07614   3
 -34  -2  -9 1.86804 1.69244   1
 -34   2  -9 -2.1621  1.8081   1
  34   2   9 1.83534 2.07055   3
  36  -2   9 2.54526 2.05766   3
 -36  -2  -9 -0.9153  1.5708   1
 -36   2  -9 0.11852 2.06811   1
  36   2   9 -1.2196  2.2454   3
  38  -2   9 6.75903 2.45790   3
 -38  -2  -9 2.17374 1.96949   1
 -38   2  -9 1.34956 2.09467   1
  38   2   9 -1.5199  2.2361   3
 -40  -2  -9 4.30489 2.14852   1
  40  -2   9 6.80916 2.45438   3
 -40   2  -9 3.64435 2.27781   1
  43  -3  -9 13.2071  3.0511   2
  41  -3  -9 0.81897 2.17762   2
  39  -3  -9 38.2747  4.0644   2
 -39   3   9 32.1686  3.6523   1
  39   3  -9 39.0461  3.4325   2
  37  -3  -9 11.8547  2.5460   2
 -37   3   9 12.9376  2.6496   1
  37   3  -9 8.82128 2.12370   2
  35  -3  -9 7.86259 2.17271   2
 -35   3   9 9.58251 2.30949   1
  35   3  -9 8.86290 2.04451   2
  33  -3  -9 10.2781  2.1873   2
  33   3  -9 7.89071 1.87511   2
 -33   3   9 7.88763 2.19614   1
  31  -3  -9 6.95888 1.88227   2
  31   3  -9 5.66105 1.85872   3
 -31   3   9 3.43746 1.86443   1
  31   3  -9 7.01739 1.71631   2
  29  -3  -9 -1.8687  1.3351   2
 -29   3   9 0.08388 1.46835   1
  29   3  -9 -0.9868  1.3432   3
  29   3  -9 -1.2180  1.2217   2
  27  -3  -9 25.3548  2.4957   2
  27   3  -9 31.7775  2.9173   3
 -27   3   9 29.9671  2.7233   1
  27   3  -9 29.3145  2.4452   2
  25  -3  -9 82.6177  4.4539   2
  25   3  -9 91.4501  4.5069   3
 -25   3   9 85.6690  4.6242   1
  25   3  -9 84.5080  4.1541   2
  23  -3  -9 18.8519  2.2623   2
  23   3  -9 21.3784  2.2007   2
  23   3  -9 25.6631  2.5791   3
 -23   3   9 22.3279  2.6207   1
  21  -3  -9 127.471   5.446   2
  21   3  -9 118.813   5.166   2
  21   3  -9 124.310   5.573   3
 -21   3   9 112.481   5.470   1
  19  -3  -9 306.487  11.343   2
  19   3  -9 323.981  11.199   2
  17  -3  -9 179.432   6.893   2
  17  -3  -9 168.242   6.820   1
  17   3  -9 177.651   6.798   2
  15  -3  -9 96.9043  4.3155   2
  15  -3  -9 92.4245  4.2893   1
  15   3  -9 95.2818  4.2112   2
  13  -3  -9 150.992   5.943   1
  13  -3  -9 145.898   5.831   2
  13   3  -9 156.669   6.004   2
  11  -3  -9 1.99686 1.11237   1
  11  -3  -9 6.03098 1.10284   2
  11   3  -9 3.98540 0.99586   2
   9  -3  -9 11.4481  1.4841   1
   9  -3  -9 14.0135  1.3962   2
  -9  -3   9 14.0906  1.5160   3
   9   3  -9 11.7703  0.7772   1
  -7  -3   9 25.1309  1.8711   3
   7  -3  -9 29.0392  1.7234   2
   7  -3  -9 22.7951  1.8905   1
   7   3  -9 29.5853  1.9535   2
   7   3  -9 24.9236  1.2206   1
   5  -3  -9 375.614  12.042   2
   5  -3  -9 364.064  12.076   1
  -5  -3   9 358.289  12.141   3
   5   3  -9 372.037  12.511   2
   5   3  -9 350.667  11.344   1
  -5   3   9 347.665  11.330   3
   3  -3  -9 1.98665 0.65245   2
  -3  -3   9 0.33756 0.99838   3
   3  -3  -9 -0.4039  0.8791   1
   3   3  -9 1.28920 0.87762   2
  -3   3   9 2.18086 0.55516   3
   3   3  -9 1.64285 0.60400   1
  -1  -3   9 947.854  29.735   3
  -1   3   9 918.022  29.101   3
   1   3  -9 951.195  30.261   2
   1   3  -9 915.974  28.811   1
  -1  -3  -9 6.05973 1.18134   1
   1  -3   9 6.43214 1.28481   3
  -1  -3  -9 5.65928 0.76078   2
  -1   3  -9 7.03701 1.35276   2
  -1   3  -9 6.17957 0.93149   1
   1   3   9 7.10067 0.92365   3
  -3  -3  -9 366.666  11.772   2
  -3  -3  -9 358.733  12.165   1
   3  -3   9 365.551  12.341   3
  -3   3  -9 374.791  12.711   2
   3   3   9 369.042  11.918   3
  -3   3  -9 359.273  11.842   1
  -5  -3  -9 22.1196  1.0978   2
   5  -3   9 24.1273  1.9302   3
  -5  -3  -9 21.1099  1.8390   1
  -5   3  -9 17.7179  1.6093   1
   5   3   9 22.6809  1.6434   3
  -5   3  -9 20.0324  1.9683   2
   7  -3   9 147.168   5.994   3
  -7  -3  -9 164.617   6.053   1
  -7   3  -9 160.731   6.342   2
   7   3   9 163.660   5.832   3
  -7   3  -9 163.336   5.836   1
  -9  -3  -9 111.787   4.650   1
   9   3   9 118.959   4.562   3
  -9   3  -9 111.478   4.544   1
  -9   3  -9 114.579   4.935   2
 -11  -3  -9 79.8903  3.7270   1
  11   3   9 80.9321  3.5964   3
 -11   3  -9 83.1078  3.7032   1
 -11   3  -9 86.7768  4.0072   2
  13  -3   9 1.20510 0.66189   3
 -13  -3  -9 3.36218 1.11455   1
 -13   3  -9 1.36663 1.15823   1
  13   3   9 0.65598 1.09486   3
 -15  -3  -9 1.62136 1.07414   1
  15  -3   9 1.36895 1.15265   3
 -15   3  -9 1.64574 1.15272   1
  15   3   9 1.73500 1.15818   3
 -17  -3  -9 6.10247 1.45245   1
  17  -3   9 2.66263 1.37515   3
 -17   3  -9 3.79514 1.38955   1
  17   3   9 2.85320 1.28610   3
 -19  -3  -9 175.482   6.874   1
  19  -3   9 171.093   6.940   3
  19   3   9 174.689   6.845   3
 -19   3  -9 168.413   6.905   1
 -21  -3  -9 29.3774  2.8409   1
  21  -3   9 24.6690  2.6687   3
  21   3   9 28.7061  2.6845   3
 -21   3  -9 23.2906  2.6540   1
 -23  -3  -9 186.523   7.401   1
  23  -3   9 177.135   7.421   3
 -23   3  -9 171.974   7.320   1
  23   3   9 180.019   7.305   3
  25  -3   9 28.2631  3.1367   3
 -25  -3  -9 31.3818  2.9472   1
  25   3   9 32.4916  3.0067   3
 -25   3  -9 34.4582  3.0672   1
 -27  -3  -9 51.8803  3.6422   1
  27  -3   9 47.2701  3.6009   3
  27   3   9 50.3640  3.5646   3
 -27   3  -9 55.3614  3.6951   1
  29  -3   9 32.7219  3.3629   3
 -29  -3  -9 31.6681  3.0574   1
 -29   3  -9 33.6126  3.1707   1
  29   3   9 29.1695  3.1153   3
  31  -3   9 5.92302 2.15085   3
 -31  -3  -9 6.57472 2.04874   1
  31   3   9 6.72289 2.19719   3
 -31   3  -9 5.51208 2.20021   1
 -33  -3  -9 2.86984 1.91447   1
  33  -3   9 7.80699 2.30717   3
  33   3   9 5.89464 2.32897   3
 -33   3  -9 7.38057 2.29269   1
 -35  -3  -9 0.86416 1.67850   1
  35  -3   9 0.30459 1.95925   3
  35   3   9 -4.3117  1.9719   3
 -35   3  -9 0.61117 2.03927   1
 -37  -3  -9 -0.5215  1.7528   1
  37  -3   9 4.62502 2.19715   3
  37   3   9 -4.0917  2.0862   3
 -37   3  -9 -1.9661  1.8484   1
  39  -3   9 6.29806 2.36870   3
 -39   3  -9 0.02376 2.08118   1
  42  -4  -9 29.0663  3.7827   2
 -42   4   9 26.0525  3.5287   1
  40  -4  -9 2.73110 2.25732   2
 -40   4   9 5.73227 2.43296   1
  38  -4  -9 78.4996  5.2335   2
  38   4  -9 72.6850  4.5392   2
 -38   4   9 77.9123  5.0420   1
  36  -4  -9 8.61387 2.57639   2
 -36   4   9 8.55754 2.48866   1
  36   4  -9 8.82343 2.13481   2
  34  -4  -9 44.4815  3.6813   2
  34   4  -9 45.5800  3.2961   2
  34   4  -9 45.2790  3.7103   3
 -34   4   9 41.8366  3.7522   1
  32  -4  -9 25.2098  3.1644   2
 -32   4   9 22.3831  3.0284   1
  32   4  -9 25.3917  2.6316   2
  32   4  -9 24.8864  3.0843   3
  30  -4  -9 22.5579  2.9576   2
  30   4  -9 19.2120  2.3697   2
  30   4  -9 21.8936  2.8412   3
 -30   4   9 20.8685  2.9085   1
  28  -4  -9 2.62733 1.64501   2
 -28   4   9 -1.4327  1.7037   1
  28   4  -9 2.30898 1.30341   2
  28   4  -9 1.52381 1.80062   3
  26  -4  -9 96.1147  4.9806   2
  26   4  -9 89.3275  4.4447   2
  26   4  -9 98.8810  5.0979   3
 -26   4   9 85.5822  4.9394   1
  24  -4  -9 9.23862 1.80009   2
 -24   4   9 5.64699 2.07464   1
  24   4  -9 4.84851 1.57883   2
  24   4  -9 6.54070 2.07063   3
  22  -4  -9 204.782   8.214   2
  22   4  -9 216.574   8.345   3
 -22   4   9 199.004   8.165   1
  22   4  -9 194.087   7.754   2
  20  -4  -9 6.40360 1.56608   2
  20   4  -9 8.48451 1.58922   2
 -20   4   9 7.13814 1.81891   1
  18  -4  -9 244.143   9.217   1
  18  -4  -9 238.254   9.288   2
  18   4  -9 260.702   9.273   2
  16  -4  -9 1.52515 1.51667   1
  16  -4  -9 6.19599 1.48781   2
  16   4  -9 5.59461 1.41934   2
  14  -4  -9 613.196  19.738   1
  14  -4  -9 603.607  20.066   2
  14   4  -9 581.527  20.025   2
  12  -4  -9 8.27199 1.42400   2
  12  -4  -9 5.86814 1.47637   1
  12   4  -9 9.04520 1.49947   2
  10  -4  -9 208.080   7.639   2
  10  -4  -9 204.740   7.698   1
  10   4  -9 210.895   7.890   2
  -8  -4   9 8.81088 1.48368   3
   8  -4  -9 16.1319  1.4591   2
   8  -4  -9 11.2758  1.5729   1
   8   4  -9 9.14957 1.40330   2
  -6  -4   9 13.0349  1.7129   3
   6  -4  -9 14.9250  1.3878   2
   6   4  -9 14.3336  0.9166   1
  -6   4   9 15.2362  0.8914   3
  -4  -4   9 128.513   5.129   3
   4  -4  -9 124.056   4.714   2
   4   4  -9 122.051   5.214   2
  -4   4   9 121.578   4.229   3
   4   4  -9 120.863   4.193   1
   2  -4  -9 130.167   5.202   1
  -2  -4   9 125.469   5.253   3
   2  -4  -9 130.969   4.808   2
   2   4  -9 129.985   5.425   2
  -2   4   9 128.605   4.526   3
   2   4  -9 127.410   4.479   1
   0  -4   9 584.062  18.880   3
   0  -4  -9 574.130  18.575   1
   0   4  -9 559.149  17.953   1
   0   4   9 577.443  18.212   3
   0   4  -9 563.316  19.223   2
  -2  -4  -9 306.096  10.204   2
  -2  -4  -9 307.872  10.645   1
   2  -4   9 318.122  10.852   3
   2   4   9 312.693  10.284   3
  -2   4  -9 304.487  11.101   2
  -2   4  -9 305.811  10.138   1
  -4  -4  -9 348.724  12.157   1
  -4  -4  -9 361.477  11.687   2
   4   4   9 364.172  11.955   3
  -4   4  -9 376.215  12.855   2
  -4   4  -9 352.894  11.804   1
  -6  -4  -9 689.853  22.264   1
  -6   4  -9 701.401  23.174   2
  -6   4  -9 684.542  21.972   1
   6   4   9 695.552  22.239   3
  -8  -4  -9 267.638   9.345   1
   8   4   9 257.119   9.138   3
  -8   4  -9 261.919   9.092   1
  -8   4  -9 268.244   9.894   2
 -10  -4  -9 112.288   4.756   1
  10   4   9 116.773   4.695   3
 -10   4  -9 106.429   5.053   2
 -10   4  -9 117.227   4.725   1
 -12  -4  -9 8.61787 1.46923   1
  12  -4   9 10.0607  1.6218   3
  12   4   9 5.57749 1.35703   3
 -12   4  -9 8.38511 1.52331   1
  14  -4   9 6.24205 1.44219   3
 -14  -4  -9 4.66698 1.28806   1
 -14   4  -9 2.00610 1.24811   1
  14   4   9 4.02343 1.33056   3
  16  -4   9 6.68311 1.60886   3
 -16  -4  -9 9.37958 1.67145   1
  16   4   9 8.17151 1.57332   3
 -16   4  -9 6.62952 1.49572   1
  18  -4   9 -1.2663  1.3189   3
 -18  -4  -9 -1.4210  1.2727   1
 -18   4  -9 0.23085 1.34525   1
  18   4   9 1.31675 1.31260   3
 -20  -4  -9 109.969   5.235   1
  20  -4   9 111.699   5.419   3
 -20   4  -9 123.671   5.499   1
  20   4   9 120.249   5.286   3
 -22  -4  -9 3.38401 1.92648   1
  22  -4   9 10.0176  2.1805   3
 -22   4  -9 8.88862 2.05485   1
  22   4   9 8.86025 2.02817   3
  24  -4   9 108.206   5.509   3
 -24  -4  -9 110.541   5.446   1
 -24   4  -9 113.900   5.505   1
  24   4   9 119.231   5.466   3
  26  -4   9 1.04835 1.76011   3
 -26  -4  -9 4.59473 1.80935   1
  26   4   9 4.33027 1.93263   3
 -26   4  -9 -0.9275  1.6639   1
  28  -4   9 61.8720  4.0765   3
 -28  -4  -9 57.9287  3.9150   1
  28   4   9 64.6701  4.0082   3
 -28   4  -9 56.6641  3.9426   1
 -30  -4  -9 0.15410 1.71901   1
  30  -4   9 0.82730 1.76795   3
  30   4   9 -2.1745  1.8350   3
 -30   4  -9 0.11705 1.74376   1
  32  -4   9 15.6290  2.6764   3
 -32  -4  -9 17.7270  2.6957   1
 -32   4  -9 15.4032  2.7126   1
  32   4   9 15.0981  2.7891   3
  34  -4   9 -0.1914  1.7578   3
 -34  -4  -9 1.11132 1.74832   1
 -34   4  -9 -1.9440  1.7032   1
  34   4   9 -1.5442  2.0121   3
  36  -4   9 5.17145 2.25876   3
 -36   4  -9 2.00111 2.16118   1
  36   4   9 0.92183 2.28318   3
  38  -4   9 2.95390 2.15326   3
 -41   5   9 11.1465  2.9675   1
  39  -5  -9 36.3546  4.2604   2
 -39   5   9 33.6174  3.8896   1
  37  -5  -9 14.8824  3.0177   2
  37   5  -9 14.3959  2.8167   3
 -37   5   9 12.9132  2.7684   1
  35  -5  -9 48.2602  4.2773   2
 -35   5   9 54.1161  4.1939   1
  35   5  -9 58.7903  4.3454   3
  35   5  -9 57.3867  3.8025   2
  33  -5  -9 11.0551  2.6241   2
  33   5  -9 8.80092 1.90497   2
  33   5  -9 6.95954 2.48883   3
 -33   5   9 5.00277 2.23405   1
  31  -5  -9 40.0720  3.4568   2
  31   5  -9 37.6798  2.9088   2
  31   5  -9 37.7988  3.8387   3
 -31   5   9 36.2872  3.7409   1
  29  -5  -9 2.57551 1.70463   2
  29   5  -9 1.55388 1.39686   2
  29   5  -9 -0.7124  1.7379   3
 -29   5   9 1.76006 1.98715   1
  27  -5  -9 45.6466  3.6551   2
  27   5  -9 51.3142  3.8446   3
 -27   5   9 45.8975  3.7707   1
  27   5  -9 51.7099  3.2606   2
  25  -5  -9 75.8453  4.6163   2
  25   5  -9 78.0448  4.1466   2
 -25   5   9 77.9958  4.8376   1
  25   5  -9 79.4625  4.6999   3
  23  -5  -9 48.2516  3.5493   2
  23   5  -9 50.4844  3.1899   2
 -23   5   9 39.1951  3.7303   1
  23   5  -9 47.9568  3.7061   3
  21  -5  -9 262.231  10.077   2
 -21   5   9 274.215  10.279   1
  21   5  -9 242.988   9.602   2
  19  -5  -9 78.2423  4.3207   2
  19   5  -9 81.0681  4.1485   2
  17  -5  -9 351.767  12.696   2
  17  -5  -9 351.068  12.513   1
  17   5  -9 349.259  12.542   2
  15  -5  -9 41.0528  3.0161   1
  15  -5  -9 42.9224  2.8113   2
  15   5  -9 44.4331  2.8527   2
  13  -5  -9 31.3680  2.2948   2
  13  -5  -9 31.6093  2.5066   1
  13   5  -9 32.1065  2.4332   2
  11  -5  -9 35.1474  2.3936   2
  11   5  -9 34.0531  2.5851   2
   9  -5  -9 8.35595 1.35699   2
   9   5  -9 10.5987  1.6965   2
  -7  -5   9 38.2070  2.6905   3
   7  -5  -9 43.7238  2.4493   2
  -7   5   9 41.0835  1.7855   3
  -5  -5   9 281.288  10.030   3
   5  -5  -9 266.250   9.825   1
   5  -5  -9 285.327   9.739   2
  -5   5   9 274.986   9.080   3
   5   5  -9 278.612   8.827   1
   3  -5  -9 0.38161 1.22621   1
  -3  -5   9 1.11485 1.32580   3
   3  -5  -9 1.95766 0.94971   2
   3   5  -9 3.04701 0.73278   1
  -3   5   9 2.57837 0.77755   3
   1  -5  -9 684.615  22.465   1
   1  -5  -9 722.972  22.510   2
  -1   5   9 690.458  22.098   3
   1   5  -9 680.584  21.672   1
  -1  -5  -9 2.01473 0.84387   2
   1  -5   9 0.61914 0.37701   3
  -1  -5  -9 1.62276 1.35257   1
   1   5   9 3.94780 1.04013   3
  -1   5  -9 1.38529 1.37581   2
  -1   5  -9 3.62361 0.95788   1
  -3  -5  -9 819.948  30.402   2
  -3  -5  -9 983.586  30.511   1
  -3   5  -9 995.258  29.992   1
  -3   5  -9 1010.39   31.71   2
   3   5   9 995.444  30.464   3
  -5  -5  -9 10.0803  1.7139   1
  -5   5  -9 11.6907  2.0700   2
  -5   5  -9 9.03387 1.37138   1
   5   5   9 11.9178  1.4972   3
   7  -5   9 421.253  16.717   3
  -7  -5  -9 516.233  16.651   1
  -7   5  -9 536.840  17.602   2
  -7   5  -9 505.424  16.326   1
   7   5   9 523.982  16.583   3
  -9  -5  -9 2.89734 1.23599   1
   9  -5   9 2.49772 1.34067   3
   9   5   9 1.26658 1.14678   3
  -9   5  -9 4.04692 1.57422   2
  -9   5  -9 1.82069 1.21126   1
 -11  -5  -9 60.1368  3.2500   1
  11  -5   9 59.5462  3.3717   3
 -11   5  -9 61.1107  3.7795   2
 -11   5  -9 55.3825  3.1806   1
  11   5   9 59.6751  3.1831   3
 -13  -5  -9 5.83595 1.42825   1
  13  -5   9 3.70179 1.43112   3
  13   5   9 3.23275 1.38343   3
 -13   5  -9 5.77864 1.53861   1
 -15  -5  -9 46.9682  3.0945   1
  15  -5   9 46.7742  3.1463   3
  15   5   9 53.3915  3.0761   3
 -15   5  -9 46.8548  2.9861   1
 -17  -5  -9 17.5794  2.2552   1
  17  -5   9 14.6001  2.2982   3
 -17   5  -9 12.8498  2.0577   1
  17   5   9 17.4735  2.1539   3
 -19  -5  -9 104.184   5.023   1
  19  -5   9 99.9944  5.2093   3
  19   5   9 113.873   5.128   3
 -19   5  -9 113.133   5.270   1
  21  -5   9 64.8878  4.1321   3
 -21  -5  -9 59.2372  3.7445   1
 -21   5  -9 60.8810  3.8554   1
  21   5   9 71.1833  4.0380   3
  23  -5   9 77.6422  4.6623   3
 -23  -5  -9 81.3044  4.4709   1
 -23   5  -9 76.6573  4.4523   1
  23   5   9 84.6414  4.5727   3
 -25  -5  -9 29.5750  3.0312   1
  25  -5   9 30.0901  3.2436   3
  25   5   9 27.0510  2.9724   3
 -25   5  -9 22.8326  2.9490   1
  27  -5   9 72.4288  4.4195   3
 -27  -5  -9 69.5773  4.2224   1
  27   5   9 63.7465  4.1752   3
 -27   5  -9 65.5232  4.2980   1
  29  -5   9 20.4004  3.0110   3
 -29  -5  -9 21.1377  2.7998   1
 -29   5  -9 14.6797  2.7516   1
  29   5   9 19.6119  3.0175   3
  31  -5   9 15.5248  2.7575   3
 -31  -5  -9 9.05383 2.25805   1
  31   5   9 7.13310 2.55614   3
 -31   5  -9 7.16031 2.32107   1
  33  -5   9 9.06576 2.51549   3
  33   5   9 5.17188 2.40858   3
 -33   5  -9 6.63905 2.39100   1
  35  -5   9 6.34887 2.27549   3
  35   5   9 -3.7548  2.0218   3
 -35   5  -9 -1.8150  1.9088   1
  37  -5   9 5.58257 2.38619   3
  38  -6  -9 31.0787  4.0360   2
  38   6  -9 33.7985  4.0144   3
 -38   6   9 38.8511  4.2170   1
  36  -6  -9 2.00047 2.22155   2
 -36   6   9 1.93305 2.19326   1
  36   6  -9 1.96339 2.19342   3
  34  -6  -9 32.9968  3.8987   2
 -34   6   9 35.5520  3.9022   1
  34   6  -9 34.2110  3.8604   3
  32  -6  -9 2.95520 2.23229   2
 -32   6   9 1.46218 1.95652   1
  32   6  -9 3.14749 1.64165   2
  32   6  -9 3.45982 2.33132   3
  30  -6  -9 40.8248  3.8068   2
  30   6  -9 40.3391  3.9095   3
 -30   6   9 43.6891  3.8316   1
  30   6  -9 44.3705  3.1750   2
  28  -6  -9 0.92967 1.74721   2
 -28   6   9 1.57436 1.99959   1
  28   6  -9 0.35516 1.32810   2
  28   6  -9 0.24173 1.93801   3
  26  -6  -9 78.0848  4.8630   2
  26   6  -9 75.7742  4.9253   3
 -26   6   9 72.7283  4.8676   1
  26   6  -9 80.0567  4.2417   2
  24  -6  -9 20.3206  2.9470   2
  24   6  -9 26.3321  2.5327   2
  24   6  -9 22.9877  3.1044   3
 -24   6   9 24.5262  3.2433   1
  22  -6  -9 253.223  10.116   2
  22   6  -9 254.890   9.624   2
 -22   6   9 237.855  10.056   1
  20  -6  -9 29.1439  3.1354   2
 -20   6   9 28.1000  3.3141   1
  20   6  -9 25.9325  2.7142   2
  18  -6  -9 327.775  12.419   2
  18   6  -9 343.233  12.295   2
  16  -6  -9 89.3544  4.6919   2
  16  -6  -9 91.7291  4.7925   1
  16   6  -9 95.7963  4.6690   2
  14  -6  -9 111.646   5.304   1
  14  -6  -9 108.145   5.187   2
  14   6  -9 118.069   5.327   2
  12  -6  -9 38.7571  3.0629   1
  12  -6  -9 39.0512  2.7437   2
  12   6  -9 41.0549  2.8618   2
  10  -6  -9 52.0438  3.0967   2
  10  -6  -9 55.8239  3.4035   1
  10   6  -9 54.3560  3.3178   2
   8  -6  -9 0.69796 1.45316   1
   8  -6  -9 2.01894 1.08973   2
   8   6  -9 3.12343 1.44316   2
   6  -6  -9 343.642  12.252   1
  -6  -6   9 344.589  12.394   3
   6  -6  -9 348.280  12.118   2
   6   6  -9 353.917  12.682   2
   4  -6  -9 14.5047  2.1273   1
   4  -6  -9 15.0179  1.7044   2
  -4  -6   9 15.1241  2.1886   3
  -4   6   9 16.8185  1.5457   3
   4   6  -9 13.2094  2.0989   2
   2  -6  -9 455.965  14.870   2
   2  -6  -9 434.602  14.990   1
   2   6  -9 434.677  14.041   1
  -2   6   9 439.459  14.483   3
   0  -6  -9 285.015  10.393   1
   0  -6  -9 295.729  10.052   2
   0   6  -9 284.923   9.577   1
   0   6   9 288.508   9.912   3
   2  -6   9 205.380   8.551   3
  -2  -6  -9 225.777   8.470   1
  -2  -6  -9 235.144   8.033   2
  -2   6  -9 221.821   9.025   2
   2   6   9 234.088   8.128   3
  -2   6  -9 229.453   7.841   1
   4  -6   9 429.100  14.827   3
  -4  -6  -9 436.775  14.512   1
  -4   6  -9 410.641  13.889   1
   4   6   9 421.400  14.245   3
  -4   6  -9 424.947  15.315   2
   6  -6   9 128.983   5.642   3
  -6  -6  -9 117.626   5.292   1
   6   6   9 130.643   5.182   3
  -6   6  -9 122.715   4.972   1
  -6   6  -9 115.719   5.969   2
  -8  -6  -9 201.431   7.604   1
   8  -6   9 186.960   7.731   3
   8   6   9 195.551   7.426   3
  -8   6  -9 204.820   8.429   2
  -8   6  -9 189.016   7.215   1
 -10  -6  -9 6.88970 1.63407   1
  10  -6   9 4.87773 1.60590   3
 -10   6  -9 5.13795 1.71574   2
 -10   6  -9 3.65128 1.37070   1
  10   6   9 4.26571 1.50355   3
 -12  -6  -9 41.9644  2.9495   1
  12  -6   9 42.7763  3.0654   3
 -12   6  -9 40.4325  2.8140   1
  12   6   9 39.1404  2.7702   3
  14  -6   9 46.1164  3.3091   3
 -14  -6  -9 46.0119  3.2146   1
 -14   6  -9 48.8838  3.0232   1
  14   6   9 46.2429  3.0643   3
  16  -6   9 64.8843  4.0664   3
 -16  -6  -9 72.3073  3.9151   1
 -16   6  -9 71.2321  3.8820   1
  16   6   9 67.2354  3.8524   3
  18  -6   9 50.7489  3.7360   3
 -18  -6  -9 56.5327  3.6443   1
  18   6   9 53.2025  3.4890   3
 -18   6  -9 52.2280  3.4355   1
 -20  -6  -9 68.2238  4.1101   1
  20  -6   9 67.0559  4.2311   3
 -20   6  -9 71.4609  4.1355   1
  20   6   9 73.0235  4.1356   3
 -22  -6  -9 6.57362 2.04364   1
  22  -6   9 7.02469 2.14655   3
 -22   6  -9 7.04110 2.16705   1
  22   6   9 7.13798 2.02546   3
 -24  -6  -9 129.018   5.939   1
  24  -6   9 115.926   6.009   3
 -24   6  -9 115.564   5.980   1
  24   6   9 127.492   6.036   3
 -26  -6  -9 3.19077 1.90663   1
  26  -6   9 2.17313 1.90682   3
  26   6   9 4.64755 2.19647   3
 -26   6  -9 1.61220 1.93765   1
  28  -6   9 72.6370  4.7893   3
 -28   6  -9 69.8529  4.6117   1
  28   6   9 71.5549  4.5200   3
  30  -6   9 3.82680 2.14756   3
  30   6   9 0.55846 2.20419   3
 -30   6  -9 0.70783 2.13685   1
  32  -6   9 23.9082  3.3062   3
  32   6   9 9.44622 2.77736   3
 -32   6  -9 18.3458  3.0958   1
  34  -6   9 2.13872 1.93329   3
 -34   6  -9 -0.8057  1.9580   1
  34   6   9 -3.4108  2.2294   3
  36  -6   9 11.5246  2.7570   3
 -37   7   9 9.59046 2.81771   1
  37   7  -9 8.48880 2.77208   3
  35  -7  -9 11.4441  2.8592   2
 -35   7   9 11.8477  2.9177   1
  35   7  -9 13.9366  2.9705   3
  33  -7  -9 14.2919  3.0218   2
 -33   7   9 13.9949  2.8329   1
  33   7  -9 16.9181  3.1614   3
  31  -7  -9 3.12132 2.31842   2
 -31   7   9 7.09717 2.32116   1
  31   7  -9 4.55649 1.77079   2
  31   7  -9 3.71951 2.39224   3
  29  -7  -9 17.2320  3.0787   2
 -29   7   9 14.2696  2.8849   1
  29   7  -9 16.7545  3.1546   3
  29   7  -9 17.9037  2.4512   2
  27  -7  -9 37.0227  4.0169   2
 -27   7   9 33.8413  3.8112   1
  27   7  -9 39.4740  4.1417   3
  27   7  -9 29.0796  2.7783   2
  25  -7  -9 17.9328  2.9130   2
  25   7  -9 20.0593  3.1774   3
  25   7  -9 20.2631  2.5044   2
 -25   7   9 20.7640  3.2247   1
  23  -7  -9 79.5842  4.8374   2
  23   7  -9 84.1829  5.1614   3
  23   7  -9 81.6427  4.4310   2
 -23   7   9 77.4043  5.0530   1
  21  -7  -9 35.1111  3.2990   2
 -21   7   9 36.4936  3.7607   1
  21   7  -9 28.6740  2.8231   2
  19  -7  -9 102.754   5.395   2
  19   7  -9 103.024   5.159   2
 -19   7   9 108.828   5.717   1
  17  -7  -9 148.204   6.853   2
  17   7  -9 162.815   6.930   2
  15  -7  -9 43.3520  3.3346   2
  15  -7  -9 53.8221  3.8589   1
  15   7  -9 45.9318  3.4607   2
  13  -7  -9 190.207   7.854   2
  13  -7  -9 196.155   8.041   1
  13   7  -9 194.497   8.012   2
  11  -7  -9 2.35607 1.69367   1
  11  -7  -9 4.09353 1.46282   2
  11   7  -9 6.13855 1.74925   2
   9  -7  -9 178.968   7.254   2
   9  -7  -9 179.805   7.478   1
   9   7  -9 183.029   7.705   2
   7  -7  -9 9.62610 2.11410   1
   7  -7  -9 11.3562  1.7314   2
   7   7  -9 10.3095  1.9456   2
  -5  -7   9 172.949   7.329   3
   5  -7  -9 171.790   7.204   1
   5  -7  -9 184.591   7.021   2
   5   7  -9 171.116   7.472   2
   3  -7  -9 100.897   4.536   2
  -3  -7   9 95.0964  4.9257   3
   3  -7  -9 94.0616  4.8795   1
   3   7  -9 103.102   5.237   2
   1  -7  -9 189.167   6.932   2
  -1  -7   9 179.348   7.456   3
   1  -7  -9 181.012   7.243   1
   1   7  -9 175.281   7.693   2
  -1   7   9 169.780   6.646   3
   1  -7   9 18.7271  2.4846   3
  -1  -7  -9 15.7569  2.2275   1
   1   7   9 21.4981  2.0299   3
  -1   7  -9 14.9623  2.3465   2
  -3  -7  -9 227.605   8.799   1
   3  -7   9 238.066   9.201   3
   3   7   9 233.463   8.513   3
  -3   7  -9 234.224   9.642   2
  -3   7  -9 232.148   8.194   1
   5  -7   9 56.1502  3.6190   3
  -5  -7  -9 54.4148  3.3764   1
   5   7   9 53.3169  3.1540   3
  -5   7  -9 54.8674  3.0407   1
  -5   7  -9 52.9074  3.8626   2
   7  -7   9 125.973   6.023   3
  -7  -7  -9 138.390   5.868   1
  -7   7  -9 130.728   6.612   2
  -7   7  -9 133.338   5.463   1
   7   7   9 134.390   5.683   3
  -9  -7  -9 46.3315  3.1916   1
   9  -7   9 43.2556  3.3003   3
  -9   7  -9 42.4420  2.9496   1
   9   7   9 45.8853  3.1276   3
  -9   7  -9 43.5745  3.6048   2
  11  -7   9 55.6503  3.6988   3
 -11  -7  -9 59.5382  3.6430   1
 -11   7  -9 53.9141  3.3875   1
 -11   7  -9 62.5874  4.1503   2
  11   7   9 54.2903  3.5208   3
 -13  -7  -9 1.97548 1.65436   1
  13  -7   9 2.15094 1.69494   3
 -13   7  -9 3.48536 1.59424   1
 -13   7  -9 2.32062 1.90167   2
  13   7   9 1.95628 1.64856   3
 -15  -7  -9 62.0587  3.9092   1
  15  -7   9 59.2197  3.9593   3
 -15   7  -9 68.3047  3.9013   1
  15   7   9 61.7592  3.8590   3
 -17  -7  -9 2.10319 1.70493   1
  17  -7   9 4.74194 2.04509   3
 -17   7  -9 4.24154 1.83389   1
  17   7   9 3.19059 1.67203   3
 -19  -7  -9 79.9057  4.5248   1
  19  -7   9 76.0704  4.7436   3
  19   7   9 77.7697  4.4667   3
 -19   7  -9 88.3782  4.6623   1
  21  -7   9 13.3938  2.5626   3
 -21  -7  -9 17.1204  2.5909   1
  21   7   9 15.9072  2.5585   3
 -21   7  -9 14.9613  2.4738   1
  23  -7   9 60.8495  4.4461   3
 -23   7  -9 64.2055  4.1542   1
  23   7   9 65.0518  4.3084   3
  25  -7   9 44.8983  3.9503   3
 -25   7  -9 38.6108  3.7099   1
  25   7   9 43.9130  3.5952   3
  27  -7   9 29.8993  3.6211   3
  27   7   9 30.1690  3.5167   3
 -27   7  -9 27.5978  3.5387   1
  29  -7   9 23.4501  3.2975   3
  29   7   9 22.7560  3.2538   3
 -29   7  -9 18.5268  3.0721   1
  31  -7   9 5.48941 2.37616   3
 -31   7  -9 3.09759 2.38029   1
  31   7   9 4.28203 2.61862   3
  33  -7   9 8.31854 2.50645   3
  34   8  -9 21.3794  3.6767   3
 -34   8   9 18.0381  3.3282   1
  32  -8  -9 -0.8029  2.1471   2
 -32   8   9 -0.1867  2.1463   1
  32   8  -9 -2.5249  2.2325   3
  30  -8  -9 31.1535  3.8924   2
  30   8  -9 20.5788  3.4693   3
 -30   8   9 22.7881  3.5672   1
  28  -8  -9 0.62183 2.06345   2
  28   8  -9 0.14593 1.58046   2
 -28   8   9 -0.3730  2.0902   1
  28   8  -9 1.18690 2.51554   3
  26  -8  -9 49.7143  4.2064   2
  26   8  -9 45.7722  3.4521   2
  26   8  -9 43.7155  4.2371   3
 -26   8   9 44.6400  4.1582   1
  24  -8  -9 3.74296 2.14829   2
  24   8  -9 3.00135 2.28279   3
 -24   8   9 -0.7204  2.1114   1
  24   8  -9 5.08804 1.80824   2
  22  -8  -9 89.7298  5.3222   2
 -22   8   9 94.2833  5.6686   1
  22   8  -9 93.1633  4.9615   2
  20  -8  -9 3.58260 1.86991   2
  20   8  -9 4.73297 1.72611   2
 -20   8   9 4.99482 2.14159   1
  18  -8  -9 100.618   5.469   2
  18   8  -9 101.107   5.260   2
 -18   8   9 99.1882  5.6941   1
  16  -8  -9 -0.8026  1.3914   2
  16   8  -9 2.00069 1.67311   2
  14  -8  -9 90.8744  5.0776   1
  14  -8  -9 89.9981  4.8872   2
  14   8  -9 88.6429  4.9260   2
  12  -8  -9 32.3632  3.3979   1
  12  -8  -9 37.5717  3.0785   2
  12   8  -9 40.5502  3.2033   2
  10  -8  -9 59.5299  4.0215   1
  10  -8  -9 57.3919  3.6634   2
  10   8  -9 58.7290  3.8802   2
   8  -8  -9 35.6823  2.9490   2
   8  -8  -9 35.1632  3.4784   1
   8   8  -9 45.5029  3.5273   2
   6  -8  -9 106.570   5.478   1
   6  -8  -9 118.850   5.333   2
   6   8  -9 117.954   5.887   2
   4  -8  -9 16.5773  2.5180   1
   4  -8  -9 18.5118  2.2640   2
   4   8  -9 18.8237  2.6861   2
   2  -8  -9 173.575   7.329   1
  -2  -8   9 172.441   7.533   3
   2   8  -9 180.991   7.967   2
   0  -8  -9 18.5061  2.5119   1
   0  -8   9 15.4962  2.4733   3
   0   8  -9 14.6552  2.6491   2
   2  -8   9 77.0455  4.4682   3
  -2  -8  -9 74.7490  4.2553   1
  -2   8  -9 78.9043  4.9286   2
   2   8   9 79.0852  3.9801   3
   4  -8   9 56.1623  3.7300   3
  -4  -8  -9 50.6818  3.4058   1
  -4   8  -9 43.5079  3.9316   2
   4   8   9 53.5990  3.2671   3
   6  -8   9 11.7457  2.3584   3
  -6  -8  -9 14.7797  2.2395   1
  -6   8  -9 9.78934 2.55125   2
   6   8   9 10.6504  1.9715   3
  -8  -8  -9 90.1142  4.7027   1
   8  -8   9 90.1104  4.9177   3
  -8   8  -9 92.0143  4.4157   1
   8   8   9 78.2230  4.3532   3
  -8   8  -9 93.2324  5.5719   2
  10  -8   9 7.82225 2.22286   3
 -10  -8  -9 5.02376 1.82582   1
 -10   8  -9 2.24722 1.68430   1
  10   8   9 5.50990 1.85384   3
 -10   8  -9 4.71642 2.26085   2
  12  -8   9 48.8244  3.6704   3
 -12  -8  -9 53.2107  3.5578   1
 -12   8  -9 46.0516  3.9463   2
  12   8   9 48.1136  3.4916   3
 -12   8  -9 46.1701  3.3047   1
  14  -8   9 15.7657  2.6153   3
 -14  -8  -9 21.4386  2.7062   1
 -14   8  -9 16.8971  2.9376   2
 -14   8  -9 16.9480  2.4276   1
  14   8   9 14.6013  2.4618   3
  16  -8   9 29.4346  3.3265   3
 -16  -8  -9 32.6219  3.0889   1
 -16   8  -9 38.4681  3.0539   1
  16   8   9 36.6672  3.1323   3
  18  -8   9 12.6723  2.6228   3
 -18  -8  -9 12.6852  2.3803   1
  18   8   9 13.8555  2.3950   3
 -18   8  -9 11.5634  2.3152   1
  20  -8   9 39.5422  3.5626   3
  20   8   9 39.7993  3.4167   3
 -20   8  -9 43.6191  3.5114   1
  22  -8   9 8.69062 2.49878   3
  22   8   9 6.53291 2.33875   3
 -22   8  -9 10.2183  2.3831   1
  24  -8   9 50.9367  4.2158   3
  24   8   9 50.6830  3.9724   3
 -24   8  -9 51.1786  3.9356   1
  26  -8   9 1.61552 2.15171   3
 -26   8  -9 0.14951 2.00365   1
  26   8   9 2.21517 2.12124   3
  28  -8   9 24.0890  3.4734   3
 -28   8  -9 24.9657  3.5458   1
  28   8   9 19.8230  3.2203   3
  30  -8   9 3.57854 2.27878   3
 -30   8  -9 -2.1415  2.1413   1
  30   8   9 -2.5739  2.1032   3
  31   9  -9 12.1514  3.3226   3
  29  -9  -9 10.4029  2.9512   2
 -29   9   9 9.50662 2.80630   1
  29   9  -9 5.09317 2.77818   3
  27  -9  -9 15.9872  3.1608   2
  27   9  -9 10.6788  2.9945   3
 -27   9   9 9.59477 2.92200   1
  25  -9  -9 22.0887  3.4734   2
  25   9  -9 22.0822  3.5458   3
 -25   9   9 17.9874  3.3402   1
  25   9  -9 19.3051  2.7330   2
  23  -9  -9 12.7761  2.7964   2
 -23   9   9 11.9903  3.0369   1
  23   9  -9 14.5071  2.4689   2
  23   9  -9 16.3535  3.2920   3
  21  -9  -9 46.0736  4.0066   2
  21   9  -9 42.6380  3.5355   2
 -21   9   9 41.2654  4.5007   1
  19  -9  -9 27.5291  3.4235   2
 -19   9   9 25.5196  3.4411   1
  19   9  -9 24.5748  3.0782   2
  17  -9  -9 49.5244  3.9024   2
  17   9  -9 44.3306  3.6110   2
 -17   9   9 44.5734  3.9402   1
  15  -9  -9 4.05533 1.89302   2
 -15   9   9 4.66830 2.33845   1
  15   9  -9 5.80505 1.98083   2
  13  -9  -9 51.5305  3.7777   2
  13   9  -9 50.9509  3.8591   2
  11  -9  -9 0.74599 1.58883   2
  11  -9  -9 0.68350 1.94925   1
  11   9  -9 4.49743 1.88311   2
   9  -9  -9 50.5855  4.0285   1
   9  -9  -9 55.1561  3.8443   2
   9   9  -9 62.6950  4.2458   2
   7  -9  -9 5.64952 2.21843   1
   7  -9  -9 8.13857 2.01960   2
   7   9  -9 8.77420 2.09531   2
   5  -9  -9 29.2550  3.1805   1
   5   9  -9 24.7872  3.1245   2
   3  -9  -9 7.93897 2.29479   1
   3   9  -9 10.1459  2.4264   2
   1  -9  -9 67.9744  4.3359   1
   1   9  -9 72.9377  4.9135   2
   1  -9   9 6.92757 2.25284   3
  -1  -9  -9 7.83214 2.20738   1
  -1   9  -9 5.59901 2.47823   2
  -3  -9  -9 198.851   8.068   1
   3  -9   9 186.462   8.274   3
  -3   9  -9 182.770   8.719   2
   5  -9   9 10.1719  2.4593   3
  -5  -9  -9 6.29703 2.10085   1
  -5   9  -9 3.71278 2.52279   2
   5   9   9 10.9661  2.1490   3
  -7  -9  -9 114.440   5.716   1
   7  -9   9 116.312   6.013   3
   7   9   9 118.670   5.649   3
  -7   9  -9 118.942   6.767   2
   9  -9   9 16.1256  2.7134   3
  -9  -9  -9 14.7042  2.4730   1
   9   9   9 12.1421  2.3137   3
  -9   9  -9 12.8856  3.0383   2
 -11  -9  -9 38.3586  3.4183   1
  11  -9   9 37.6489  3.4886   3
 -11   9  -9 32.2224  3.9892   2
  11   9   9 37.2147  3.2683   3
  13  -9   9 0.91552 1.85482   3
 -13  -9  -9 -1.9876  1.6945   1
 -13   9  -9 -0.9084  1.9320   2
  13   9   9 -1.0879  1.6971   3
 -13   9  -9 0.32881 1.62668   1
  15  -9   9 18.4566  2.9233   3
 -15   9  -9 15.7798  3.2497   2
  15   9   9 15.4175  2.5936   3
 -15   9  -9 18.3601  2.7282   1
  17  -9   9 5.00417 2.23398   3
  17   9   9 1.66892 1.91701   3
 -17   9  -9 3.24929 2.43528   2
 -17   9  -9 2.98299 1.95101   1
  19  -9   9 26.7267  3.5284   3
 -19   9  -9 31.1894  3.3941   1
  19   9   9 32.1684  3.5828   3
  21  -9   9 10.8897  2.6301   3
  21   9   9 10.0198  2.6090   3
 -21   9  -9 12.5775  2.5129   1
  23  -9   9 23.0283  3.3403   3
 -23   9  -9 30.3686  3.5014   1
  23   9   9 30.7812  3.5215   3
  25  -9   9 10.5980  2.6321   3
 -25   9  -9 10.3042  2.6755   1
  25   9   9 6.83209 2.65983   3
  27  -9   9 15.0289  3.0093   3
 -27   9  -9 10.4680  2.8631   1
  27   9   9 15.7953  3.1968   3
  26 -10  -9 4.75961 2.59912   2
  26  10  -9 2.27829 2.65236   3
  24 -10  -9 2.57719 2.35237   2
  24  10  -9 5.69403 2.77067   3
 -24  10   9 2.40936 2.44047   1
  22 -10  -9 22.9505  3.5679   2
  22  10  -9 24.7339  3.2044   2
 -22  10   9 25.6325  3.7474   1
  22  10  -9 22.9778  3.7315   3
  20 -10  -9 1.98046 2.13101   2
  20  10  -9 2.19942 1.86793   2
 -20  10   9 4.07904 2.38544   1
  18 -10  -9 56.7296  4.4512   2
  18  10  -9 53.1441  4.1020   2
 -18  10   9 54.3479  4.6166   1
  16 -10  -9 6.59154 2.31687   2
  16  10  -9 11.1497  2.4796   2
 -16  10   9 4.46082 2.51609   1
  14 -10  -9 26.1554  3.2577   2
 -14  10   9 20.1311  3.4071   1
  14  10  -9 24.6208  3.2463   2
  12 -10  -9 4.56319 1.93643   2
  12  10  -9 6.18712 2.09403   2
  10 -10  -9 -0.0913  1.8706   1
  10  10  -9 3.59578 1.98928   2
   8 -10  -9 1.82416 1.92665   1
   8  10  -9 0.79046 1.76805   2
   6 -10  -9 7.33943 2.22761   1
   6  10  -9 5.19973 2.06729   2
   4 -10  -9 4.67366 2.19175   1
   4  10  -9 7.22915 2.39679   2
   2 -10  -9 22.1909  3.1249   1
   2  10  -9 21.8931  3.3189   2
   0 -10  -9 20.6708  2.9309   1
   0  10  -9 21.0899  3.3738   2
  -2 -10  -9 42.4316  3.6868   1
  -2  10  -9 40.5203  4.4570   2
   4 -10   9 40.4960  3.8281   3
  -4 -10  -9 41.6932  3.6600   1
  -4  10  -9 39.9673  4.4062   2
   6 -10   9 25.0958  3.4456   3
  -6 -10  -9 25.6051  3.2250   1
  -6  10  -9 22.2115  3.6424   2
   8 -10   9 24.0312  3.4729   3
  -8 -10  -9 24.4340  3.1079   1
  -8  10  -9 24.0782  3.8251   2
  10 -10   9 1.04378 2.16003   3
 -10  10  -9 5.52675 2.63600   2
  10  10   9 1.86751 1.93379   3
  12 -10   9 2.38526 2.06951   3
 -12  10  -9 3.13716 2.42151   2
  12  10   9 0.63949 1.81438   3
  14 -10   9 -2.2437  1.8258   3
 -14  10  -9 1.07997 2.42811   2
  14  10   9 2.27423 1.97047   3
  16 -10   9 9.50539 2.67448   3
  16  10   9 9.14616 2.49877   3
 -16  10  -9 4.92159 2.84725   2
  18 -10   9 3.13821 2.34734   3
 -18  10  -9 -0.4355  2.3028   2
  18  10   9 0.23351 2.08959   3
  20 -10   9 22.5972  3.4129   3
 -20  10  -9 17.9906  3.8073   2
  20  10   9 18.4847  3.0955   3
 -20  10  -9 22.1684  3.1689   1
  22 -10   9 2.48651 2.13690   3
  22  10   9 1.79306 2.25906   3
 -22  10  -9 -0.2248  2.7310   2
 -22  10  -9 2.23989 2.21582   1
  24 -10   9 14.3977  2.9512   3
 -24  10  -9 11.7492  2.7639   1
  21 -11  -9 3.76405 2.47596   2
  19 -11  -9 14.5709  3.1307   2
 -19  11   9 8.38159 2.88969   1
  19  11  -9 10.7062  2.7448   2
  17 -11  -9 15.2655  2.9387   2
 -17  11   9 15.1049  3.4466   1
  17  11  -9 19.8158  3.1496   2
  15  11  -9 5.78638 2.30638   2
 -15  11   9 0.60815 2.37955   1
 -13  11   9 11.2632  2.8733   1
  13  11  -9 15.1249  2.8188   2
  11  11  -9 -0.5523  1.8193   2
 -11  11   9 -3.4455  1.8695   1
   9  11  -9 0.82681 1.95413   2
   7 -11  -9 1.01746 1.99969   1
   7  11  -9 0.21632 1.94200   2
   5 -11  -9 0.78437 2.08843   1
   5  11  -9 3.93760 2.33170   2
   3 -11  -9 2.71631 2.21275   1
   3  11  -9 -0.4159  1.9858   2
   1 -11  -9 16.8653  2.9330   1
   1  11  -9 13.4434  3.1045   2
  -1 -11  -9 5.10759 2.31905   1
  -1  11  -9 7.66560 2.70433   2
  -3 -11  -9 16.8790  2.8436   1
  -3  11  -9 14.8514  3.2821   2
  -5  11  -9 2.32230 2.31374   2
   7 -11   9 9.49182 2.76841   3
  -7  11  -9 12.5039  3.1961   2
   9 -11   9 1.65552 2.28639   3
  -9  11  -9 0.64888 2.23394   2
  11 -11   9 3.56954 2.17569   3
 -11  11  -9 0.08285 2.17815   2
  13 -11   9 0.41532 2.13015   3
 -13  11  -9 -1.3281  2.2270   2
  15 -11   9 3.94182 2.31896   3
  15  11   9 1.20631 2.01905   3
 -15  11  -9 1.17139 2.43241   2
  17 -11   9 1.50905 2.29047   3
  17  11   9 0.77340 2.03961   3
  19 -11   9 4.15770 2.48500   3
  19  11   9 3.56140 2.30023   3
  16  12  -9 3.45591 2.42507   2
  14  12  -9 6.15389 2.48109   2
 -14  12   9 5.73134 2.79764   1
  12  12  -9 8.05926 2.66863   2
 -12  12   9 0.97327 2.33624   1
  10  12  -9 9.34234 2.74132   2
 -10  12   9 3.99505 2.52010   1
  -8  12   9 2.14923 2.39580   1
   8  12  -9 4.00175 2.42812   2
   6  12  -9 7.03459 2.74420   2
   4  12  -9 2.19984 2.35031   2
   2  12  -9 2.27175 2.28374   2
   0  12  -9 1.75955 2.46765   2
  -2  12  -9 2.37455 2.73201   2
  -4  12  -9 -0.0337  2.4630   2
  -6  12  -9 4.09264 2.53826   2
  44   0 -10 49.9063  4.2355   2
  42   0 -10 -1.4566  1.8638   2
  40   0 -10 41.1350  3.6649   2
  38   0 -10 1.65117 1.81668   2
  36   0 -10 22.9565  2.8804   2
  34   0 -10 1.66804 1.61519   2
  32   0 -10 102.976   5.172   2
  30   0 -10 65.3320  3.7789   2
  28   0 -10 262.268   9.924   2
  26   0 -10 35.4825  2.7248   2
 -26   0  10 27.0319  2.5603   1
 -24   0  10 684.165  21.435   1
  24   0 -10 637.783  22.038   2
  22   0 -10 81.1021  3.9524   2
 -22   0  10 84.6551  3.8968   1
 -20   0  10 259.928   9.066   1
  16   0 -10 32.6765  1.8663   1
  16   0 -10 31.5271  1.7269   3
  16   0 -10 21.4576  1.6950   2
  14   0 -10 171.391   6.165   1
  14   0 -10 179.330   6.537   2
  12   0 -10 7.48360 1.14424   2
  12   0 -10 6.23669 1.04269   1
  10   0 -10 298.461   9.984   2
  10   0 -10 281.370   9.552   1
 -10   0  10 289.458   9.463   3
  -8   0  10 77.2409  2.9562   3
   8   0 -10 75.4728  3.1241   1
   8   0 -10 76.7564  3.2550   2
   6   0 -10 317.372  10.935   2
   6   0 -10 332.811  10.665   1
  -6   0  10 326.362  10.578   3
   4   0 -10 338.240  11.157   1
  -4   0  10 339.869  11.119   3
   4   0 -10 349.043  11.486   2
   2   0 -10 1677.65   51.57   2
   2   0 -10 1623.37   50.27   1
  -2   0  10 1601.64   50.78   3
   0   0  10 788.249  24.966   3
   0   0 -10 795.596  24.820   1
  -2   0 -10 2669.69   81.52   1
   2   0  10 2656.84   82.48   3
   4   0  10 139.616   5.076   3
  -4   0 -10 139.683   5.167   1
   6   0  10 498.189  16.423   3
  -6   0 -10 513.110  16.517   2
  -6   0 -10 515.078  16.422   1
  -8   0 -10 74.3049  3.3644   1
  -8   0 -10 78.6347  3.1260   2
   8   0  10 76.0475  3.3122   3
  10   0  10 397.907  13.366   3
 -10   0 -10 398.202  13.337   1
 -10   0 -10 411.701  13.249   2
  12   0  10 126.631   5.075   3
 -12   0 -10 125.888   4.713   2
  14   0  10 889.440  28.828   3
 -14   0 -10 910.406  28.744   2
  18   0  10 257.176   9.337   3
 -18   0 -10 260.182   9.417   1
 -20   0 -10 14.4819  2.0374   1
  20   0  10 16.6666  2.1986   3
  22   0  10 97.0403  4.6976   3
 -22   0 -10 95.2198  4.6558   1
 -24   0 -10 49.0143  3.4824   1
  24   0  10 57.3082  3.5823   3
  26   0  10 38.6339  3.2401   3
 -26   0 -10 43.3475  3.3656   1
 -28   0 -10 20.3407  2.6757   1
  28   0  10 23.6108  2.8667   3
 -30   0 -10 25.1550  2.9680   1
  30   0  10 21.1337  2.9672   3
 -32   0 -10 1.43510 1.91455   1
  32   0  10 2.08023 2.15017   3
  34   0  10 36.4214  3.8273   3
 -34   0 -10 33.7661  3.5444   1
 -36   0 -10 1.56467 1.85370   1
  36   0  10 2.86318 2.41227   3
 -38   0 -10 20.0738  3.0478   1
  38   0  10 24.3579  3.4525   3
 -40   0 -10 4.19069 2.37644   1
  45   1 -10 31.4558  3.7656   2
  43  -1 -10 13.3710  2.7740   2
  43   1 -10 20.9581  3.1875   2
  41  -1 -10 37.9412  3.7109   2
  41   1 -10 37.1398  3.4913   2
  39  -1 -10 26.2763  3.2396   2
  39   1 -10 23.7044  3.0329   2
  37  -1 -10 10.2391  2.3944   2
  37   1 -10 10.2302  2.2415   2
  35  -1 -10 32.4645  3.1111   2
  35   1 -10 36.3874  3.0970   2
  33  -1 -10 20.6915  2.6894   2
  33   1 -10 18.9256  2.5179   2
  31  -1 -10 108.846   5.385   2
 -31   1  10 112.112   5.141   1
  31   1 -10 107.295   5.204   2
  29  -1 -10 17.7993  2.4632   2
  29   1 -10 17.0918  2.2381   2
 -29   1  10 18.2079  2.3904   1
  27  -1 -10 198.274   7.988   2
 -27   1  10 208.329   7.832   1
  27   1 -10 187.632   7.700   2
  25  -1 -10 70.1073  3.8804   2
  25   1 -10 65.3155  3.6651   2
 -25   1  10 68.8900  3.8496   1
  23  -1 -10 268.719  10.172   2
  23   1 -10 274.236  10.095   2
  23   1 -10 284.690   9.744   3
 -23   1  10 283.918  10.013   1
 -21  -1  10 131.303   4.833   1
 -21   1  10 121.089   5.177   1
  21   1 -10 118.808   4.915   3
  21   1 -10 118.564   5.135   2
  19   1 -10 302.296  10.630   2
  17  -1 -10 4.64261 1.11103   2
  17  -1 -10 5.36791 1.23807   1
  15  -1 -10 339.906  10.952   3
  15  -1 -10 352.337  11.927   2
  15  -1 -10 348.244  11.567   1
  15   1 -10 342.749  11.190   1
  13  -1 -10 13.4149  0.9851   3
  13  -1 -10 16.6445  1.5924   2
  13  -1 -10 16.6906  1.6213   1
  13   1 -10 13.5623  1.3026   1
  13   1 -10 19.8262  1.6474   2
  11  -1 -10 472.287  15.126   1
  11  -1 -10 473.264  15.512   2
  11   1 -10 464.399  14.794   1
  11   1 -10 457.557  15.529   2
   9  -1 -10 122.592   4.652   2
  -9  -1  10 115.601   4.399   3
   9  -1 -10 117.952   4.539   1
  -9   1  10 120.140   4.042   3
   9   1 -10 120.815   4.728   2
   9   1 -10 117.332   4.263   1
   7  -1 -10 361.854  11.949   1
  -7  -1  10 362.695  11.943   3
   7  -1 -10 375.139  12.205   2
   7   1 -10 364.130  12.332   2
  -7   1  10 363.612  11.603   3
   7   1 -10 362.699  11.701   1
   5  -1 -10 2.47836 0.98698   1
  -5  -1  10 1.77737 0.89125   3
   5  -1 -10 4.85719 0.84799   2
  -5   1  10 3.94765 0.65525   3
   5   1 -10 2.39124 0.77352   1
   5   1 -10 2.17685 0.84357   2
   3  -1 -10 1040.51   33.87   2
  -3  -1  10 1079.99   33.57   3
   3  -1 -10 1061.48   33.24   1
  -3   1  10 1057.19   33.25   3
   3   1 -10 1053.14   33.01   1
   3   1 -10 1115.21   34.19   2
  -1  -1  10 169.209   6.046   3
   1  -1 -10 171.426   6.132   1
  -1   1  10 168.184   5.774   3
   1   1 -10 171.463   5.937   1
   1   1 -10 171.319   6.276   2
  -1  -1 -10 913.761  28.946   1
  -1  -1 -10 930.851  29.344   2
   1  -1  10 946.742  29.239   3
  -1   1 -10 918.289  28.802   1
  -1   1 -10 940.389  29.706   2
   1   1  10 901.675  28.982   3
   3  -1  10 53.3529  2.5384   3
  -3  -1 -10 52.7462  2.6213   1
  -3  -1 -10 55.5308  2.2534   2
   3   1  10 52.0456  2.4285   3
  -3   1 -10 54.0705  2.5984   2
  -3   1 -10 55.4770  2.5761   1
  -5  -1 -10 30.0312  1.4736   2
  -5  -1 -10 31.5605  1.9522   1
   5  -1  10 26.7236  1.8972   3
  -5   1 -10 24.9222  1.7536   2
  -5   1 -10 29.4114  1.8849   1
   5   1  10 29.5855  1.8369   3
   7  -1  10 358.441  11.887   3
  -7  -1 -10 357.731  11.889   1
  -7  -1 -10 353.289  11.506   2
  -7   1 -10 353.331  11.766   1
  -7   1 -10 361.467  12.013   2
   7   1  10 351.875  11.756   3
   9  -1  10 133.838   5.159   3
  -9  -1 -10 128.546   4.569   2
  -9   1 -10 133.122   5.139   1
  -9   1 -10 135.319   5.138   2
   9   1  10 136.974   5.060   3
 -11  -1 -10 210.001   6.925   2
  11  -1  10 209.636   7.576   3
 -11   1 -10 209.985   7.506   2
 -11   1 -10 210.817   7.544   1
  11   1  10 206.983   7.455   3
  13  -1  10 174.761   7.468   3
  13   1  10 224.774   7.600   3
 -13   1 -10 212.638   7.551   2
 -13   1 -10 223.815   7.687   1
 -15  -1 -10 137.252   5.430   1
  15   1  10 127.370   5.280   3
 -15   1 -10 131.011   5.191   2
  17  -1  10 267.216  10.328   3
 -17  -1 -10 308.709  10.481   1
  17   1  10 297.308  10.380   3
 -17   1 -10 304.527  10.323   2
 -19  -1 -10 135.117   5.572   1
  19  -1  10 133.396   5.559   3
  19   1  10 122.145   5.432   3
 -19   1 -10 130.016   5.534   1
  21  -1  10 57.8714  3.3875   3
 -21  -1 -10 56.6918  3.4126   1
  21   1  10 50.6008  3.2818   3
 -21   1 -10 47.3397  3.2142   1
 -23  -1 -10 154.956   6.456   1
  23  -1  10 149.346   6.389   3
  23   1  10 149.283   6.333   3
 -23   1 -10 143.984   6.342   1
  25  -1  10 0.99967 1.68423   3
 -25  -1 -10 0.83904 1.52206   1
 -25   1 -10 -0.9188  1.4614   1
  25   1  10 0.78118 1.76473   3
  27  -1  10 80.6747  4.4950   3
 -27  -1 -10 84.3431  4.5898   1
  27   1  10 80.3445  4.5817   3
 -27   1 -10 82.2686  4.4968   1
  29  -1  10 1.52989 1.82190   3
 -29  -1 -10 1.46278 1.67866   1
  29   1  10 4.13216 2.01537   3
 -29   1 -10 -0.5341  1.6740   1
  31  -1  10 16.7643  2.6961   3
 -31  -1 -10 18.9511  2.7241   1
 -31   1 -10 12.3804  2.4357   1
  31   1  10 16.9532  2.7132   3
  33  -1  10 15.2896  2.8400   3
 -33  -1 -10 8.61689 2.27813   1
  33   1  10 12.8909  2.6315   3
 -33   1 -10 15.3720  2.6311   1
  35  -1  10 22.3616  3.1574   3
 -35  -1 -10 22.2114  2.8946   1
 -35   1 -10 23.7419  3.1412   1
  35   1  10 18.0259  3.0336   3
  37  -1  10 5.01131 2.37479   3
 -37  -1 -10 4.13946 2.21196   1
  37   1  10 0.84902 2.37585   3
 -37   1 -10 0.06922 2.06254   1
 -39  -1 -10 23.1690  3.1831   1
  39  -1  10 23.3691  3.3346   3
 -39   1 -10 25.5658  3.4629   1
  39   1  10 14.6431  3.1947   3
  44  -2 -10 27.7058  3.8399   2
  44   2 -10 36.6970  3.5595   2
  42  -2 -10 2.32298 2.35785   2
  42   2 -10 3.65607 2.09772   2
  40  -2 -10 41.2917  3.7766   2
  40   2 -10 59.5033  3.9987   2
  38  -2 -10 10.5498  2.4302   2
  38   2 -10 7.74087 2.23583   2
  36  -2 -10 88.6059  5.1903   2
  36   2 -10 90.5392  4.8572   2
  34  -2 -10 5.41808 1.98665   2
 -34   2  10 -0.6552  1.7496   1
  34   2 -10 5.42631 1.87876   2
  32  -2 -10 82.5360  4.6765   2
 -32   2  10 79.2629  4.4695   1
  32   2 -10 78.3250  4.2360   2
  30  -2 -10 4.01289 1.72396   2
  30   2 -10 4.36450 1.62719   2
 -30   2  10 1.93895 1.55919   1
  28  -2 -10 8.83814 1.95774   2
  28   2 -10 11.7828  1.8486   3
  28   2 -10 12.9860  1.9499   2
 -28   2  10 12.0578  2.0662   1
  26  -2 -10 2.77617 1.53730   2
  26   2 -10 2.38050 1.38014   3
  26   2 -10 3.30725 1.35799   2
 -26   2  10 1.24726 1.57441   1
  24  -2 -10 151.136   6.399   2
  24   2 -10 146.924   6.130   2
  24   2 -10 149.263   6.088   3
 -24   2  10 150.639   6.360   1
  22  -2 -10 13.6983  1.8694   2
  22   2 -10 13.8050  1.9505   3
  22   2 -10 10.1798  1.6339   2
 -22   2  10 11.0740  1.9017   1
  20  -2 -10 416.125  14.529   2
  20   2 -10 418.140  14.394   2
  20   2 -10 422.084  14.289   3
  18  -2 -10 303.257  10.825   1
  18  -2 -10 318.589  11.167   2
  18   2 -10 317.475  11.068   2
  16  -2 -10 451.888  15.270   2
  16  -2 -10 450.687  14.907   1
 -16  -2  10 446.006  14.222   1
  14  -2 -10 589.460  18.889   1
  14  -2 -10 570.544  19.275   2
  14   2 -10 587.956  18.156   1
  12  -2 -10 218.273   7.668   1
  12  -2 -10 225.922   7.753   2
  12   2 -10 189.751   7.656   2
  12   2 -10 213.263   6.937   1
  10  -2 -10 29.2079  2.0941   1
  10  -2 -10 28.7018  1.8977   2
 -10  -2  10 27.0564  1.9078   3
  10   2 -10 28.0959  1.9926   2
  10   2 -10 29.6117  1.4953   1
   8  -2 -10 56.5741  2.8410   1
  -8  -2  10 60.8912  2.8120   3
   8  -2 -10 58.0548  2.7503   2
   8   2 -10 58.3309  2.3550   1
   8   2 -10 58.6165  2.8985   2
  -8   2  10 61.2592  2.0458   3
   6  -2 -10 30.8969  1.8489   2
   6  -2 -10 31.6272  2.0682   1
  -6  -2  10 35.4328  2.0064   3
   6   2 -10 33.3483  2.1751   2
  -6   2  10 34.4512  1.4068   3
   6   2 -10 34.0701  1.6636   1
  -4  -2  10 287.802   9.458   3
   4  -2 -10 262.851   9.280   2
   4  -2 -10 277.206   9.399   1
   4   2 -10 275.505   9.708   2
  -4   2  10 276.231   8.825   3
   4   2 -10 273.038   8.942   1
   2  -2 -10 655.139  21.502   1
  -2  -2  10 683.492  21.745   3
   2   2 -10 691.261  21.159   1
   2   2 -10 697.885  22.216   2
  -2   2  10 656.421  21.201   3
   0  -2 -10 314.944  10.624   2
   0  -2  10 337.000  10.946   3
   0  -2 -10 315.304  10.831   1
   0   2 -10 326.040  10.535   1
   0   2 -10 325.317  11.211   2
   0   2  10 323.774  10.471   3
  -2  -2 -10 1145.42   35.72   2
  -2  -2 -10 1121.41   35.38   1
   2  -2  10 1178.37   35.84   3
  -2   2 -10 1094.57   36.31   2
   2   2  10 1102.73   35.39   3
  -2   2 -10 1161.21   35.14   1
  -4  -2 -10 3.71705 0.56740   2
   4  -2  10 3.63296 1.09633   3
   4   2  10 4.47247 0.95560   3
  -4   2 -10 1.82324 0.91899   2
  -4   2 -10 5.35444 1.02606   1
   6  -2  10 669.090  21.692   3
  -6  -2 -10 676.135  21.187   2
  -6   2 -10 676.505  22.065   2
   6   2  10 677.133  21.433   3
  -6   2 -10 662.570  21.310   1
  -8  -2 -10 7.81418 1.32806   1
   8  -2  10 6.61351 1.27848   3
  -8  -2 -10 9.52579 0.56680   2
   8   2  10 7.59735 1.18952   3
  -8   2 -10 7.55682 1.23688   1
  -8   2 -10 8.70952 1.35558   2
 -10  -2 -10 31.5868  2.1726   1
  10  -2  10 29.3363  2.1486   3
 -10   2 -10 29.0590  2.0711   2
 -10   2 -10 29.7164  2.0322   1
  10   2  10 29.6277  1.9914   3
 -12  -2 -10 161.338   6.104   1
  12   2  10 152.553   5.860   3
 -12   2 -10 150.923   6.041   2
 -12   2 -10 158.454   6.023   1
 -14  -2 -10 60.2440  3.1791   1
 -14   2 -10 55.5380  3.1111   2
 -14   2 -10 59.1186  3.1745   1
  14   2  10 61.0890  3.0841   3
 -16  -2 -10 23.8354  2.1694   1
  16  -2  10 22.7807  2.2640   3
  16   2  10 25.5347  2.1900   3
 -16   2 -10 23.0176  2.1278   1
 -16   2 -10 22.3910  2.1277   2
 -18  -2 -10 229.787   8.533   1
  18  -2  10 222.372   8.519   3
 -18   2 -10 235.103   8.598   1
  18   2  10 225.033   8.419   3
 -20  -2 -10 9.06331 1.82937   1
  20  -2  10 7.38149 1.79421   3
  20   2  10 5.70255 1.74838   3
 -20   2 -10 9.39821 1.88570   1
 -22  -2 -10 205.850   8.139   1
  22  -2  10 214.084   8.279   3
 -22   2 -10 203.942   8.184   1
  22   2  10 211.950   8.168   3
  24  -2  10 60.9721  3.8571   3
 -24  -2 -10 60.7413  3.8565   1
  24   2  10 55.3869  3.6983   3
 -24   2 -10 61.0434  3.8200   1
  26  -2  10 32.8008  3.3185   3
 -26  -2 -10 31.0754  2.9314   1
 -26   2 -10 40.2562  3.2720   1
  26   2  10 34.0968  3.0473   3
  28  -2  10 2.36069 1.94519   3
 -28  -2 -10 2.59932 1.83874   1
 -28   2 -10 2.96766 1.83071   1
  28   2  10 2.06259 1.91248   3
 -30  -2 -10 24.3663  2.9616   1
  30  -2  10 28.9309  3.1958   3
 -30   2 -10 25.7522  3.0192   1
  30   2  10 27.9839  3.1646   3
  32  -2  10 0.83655 1.88110   3
 -32  -2 -10 -1.6933  1.5874   1
  32   2  10 0.44279 2.02814   3
 -32   2 -10 -2.9360  1.5583   1
  34  -2  10 12.6302  2.6601   3
 -34  -2 -10 12.9589  2.5007   1
  34   2  10 10.9968  2.7229   3
 -34   2 -10 9.95206 2.37884   1
 -36  -2 -10 1.10428 1.94906   1
  36  -2  10 7.56538 2.45266   3
 -36   2 -10 4.02366 2.09342   1
  36   2  10 5.51915 2.48458   3
 -38  -2 -10 13.4082  2.7467   1
  38  -2  10 11.2031  2.6645   3
 -38   2 -10 10.0216  2.6877   1
  38   2  10 9.48404 2.98879   3
 -40  -2 -10 4.74544 2.35443   1
  43  -3 -10 3.53627 2.43678   2
  41  -3 -10 10.7477  2.8886   2
  41   3 -10 6.84075 2.23205   2
  39  -3 -10 26.3024  3.5335   2
 -39   3  10 23.1638  3.1757   1
  39   3 -10 26.8971  3.0669   2
  37  -3 -10 10.3919  2.5994   2
  37   3 -10 10.6392  2.3049   2
 -37   3  10 11.4682  2.6175   1
  35  -3 -10 46.7413  3.8314   2
  35   3 -10 46.5492  3.4726   2
 -35   3  10 50.8703  3.7305   1
  33  -3 -10 19.3317  2.8406   2
  33   3 -10 21.7606  2.6360   2
 -33   3  10 18.3051  2.7386   1
  31  -3 -10 25.8807  3.0492   2
 -31   3  10 22.3330  2.8628   1
  31   3 -10 25.7192  2.5452   2
  29  -3 -10 36.1087  3.0988   2
 -29   3  10 37.6336  3.1002   1
  29   3 -10 36.1285  3.0313   3
  29   3 -10 34.9640  2.7927   2
  27  -3 -10 0.08638 1.33154   2
  27   3 -10 0.73610 1.40463   3
  27   3 -10 1.23403 1.34843   2
 -27   3  10 -1.0465  1.4284   1
  25  -3 -10 5.49244 1.71972   2
  25   3 -10 7.89836 1.82886   3
  25   3 -10 7.24795 1.63892   2
 -25   3  10 10.9494  2.0929   1
  23  -3 -10 91.4822  4.7452   2
  23   3 -10 100.001   4.871   3
 -23   3  10 104.424   5.044   1
  23   3 -10 100.965   4.629   2
  21  -3 -10 6.58825 1.54197   2
  21   3 -10 9.25173 1.61343   2
  21   3 -10 9.74446 1.76286   3
 -21   3  10 4.94699 1.77178   1
  19  -3 -10 701.270  23.357   2
  19  -3 -10 696.359  22.781   1
  19   3 -10 700.757  23.166   2
  17  -3 -10 27.6469  2.6603   1
  17  -3 -10 30.0650  2.2818   2
  17   3 -10 29.2558  2.2585   2
  15  -3 -10 449.144  15.092   1
  15  -3 -10 431.128  15.294   2
  15   3 -10 469.910  15.438   2
  13  -3 -10 5.22934 1.19738   2
  13  -3 -10 3.14207 1.34127   1
  11  -3 -10 94.5369  4.3172   1
  11  -3 -10 104.319   4.285   2
  11   3 -10 100.248   3.372   1
  -9  -3  10 35.0611  2.2543   3
   9  -3 -10 40.1600  2.1729   2
   9  -3 -10 38.6319  2.5165   1
   9   3 -10 34.7646  2.2904   2
   9   3 -10 37.7799  1.5979   1
   7  -3 -10 49.3046  2.4419   2
   7  -3 -10 45.5363  2.6716   1
  -7  -3  10 42.1109  2.5309   3
   7   3 -10 46.3047  1.9397   1
  -7   3  10 49.5319  1.6876   3
   7   3 -10 49.0445  2.7183   2
  -5  -3  10 153.532   5.947   3
   5  -3 -10 158.094   5.980   1
   5  -3 -10 161.015   5.755   2
  -5   3  10 158.205   5.149   3
   5   3 -10 154.781   6.178   2
   5   3 -10 154.094   5.277   1
  -3  -3  10 718.748  22.814   3
   3  -3 -10 714.151  22.672   2
   3  -3 -10 700.575  22.544   1
   3   3 -10 714.551  23.276   2
   3   3 -10 703.669  21.934   1
  -3   3  10 681.518  22.033   3
  -1  -3  10 54.4148  2.9642   3
   1   3 -10 56.9431  2.4827   1
   1   3 -10 56.0186  3.0530   2
  -1   3  10 56.7985  2.3538   3
   1  -3  10 684.111  22.185   3
  -1  -3 -10 713.221  21.840   2
  -1   3 -10 687.048  21.467   1
   1   3  10 660.763  21.573   3
  -1   3 -10 674.906  22.593   2
  -3  -3 -10 737.093  23.780   1
  -3  -3 -10 749.255  23.620   2
   3  -3  10 753.037  24.100   3
  -3   3 -10 744.190  24.538   2
  -3   3 -10 743.586  23.422   1
   3   3  10 747.846  23.596   3
  -5  -3 -10 75.2771  3.5586   1
  -5  -3 -10 73.4870  2.7740   2
   5  -3  10 84.3471  3.7020   3
   5   3  10 81.0407  3.3088   3
  -5   3 -10 75.7878  3.7979   2
  -5   3 -10 76.3319  3.3067   1
  -7  -3 -10 81.6772  3.7166   1
   7  -3  10 84.2753  3.7820   3
  -7   3 -10 81.1860  3.5471   1
  -7   3 -10 79.5274  3.8913   2
   7   3  10 77.4100  3.4057   3
  -9  -3 -10 59.1510  3.1070   1
   9   3  10 61.8880  2.9985   3
  -9   3 -10 60.7487  2.9693   1
  -9   3 -10 63.4053  3.3353   2
 -11  -3 -10 8.80923 1.48872   1
  11   3  10 8.94957 1.35539   3
 -11   3 -10 8.98235 1.45255   1
 -11   3 -10 9.89107 1.54690   2
 -13  -3 -10 121.245   5.127   1
 -13   3 -10 124.426   5.024   1
 -13   3 -10 114.638   5.205   2
  13   3  10 123.535   4.956   3
 -15  -3 -10 3.95170 1.33867   1
  15  -3  10 -0.2825  1.1491   3
 -15   3 -10 -0.1495  1.0475   1
  15   3  10 -0.1505  1.1277   3
 -17  -3 -10 93.6808  4.5115   1
  17  -3  10 91.3000  4.5210   3
 -17   3 -10 97.8770  4.4739   1
  17   3  10 99.2613  4.4879   3
 -19  -3 -10 231.056   8.605   1
  19  -3  10 217.759   8.584   3
  19   3  10 223.143   8.449   3
 -19   3 -10 224.344   8.527   1
  21  -3  10 38.3144  3.2314   3
 -21  -3 -10 40.0182  3.3476   1
  21   3  10 43.8369  3.1780   3
 -21   3 -10 46.4223  3.3713   1
  23  -3  10 195.135   8.274   3
 -23  -3 -10 205.071   8.267   1
  23   3  10 220.622   8.329   3
 -23   3 -10 205.345   8.261   1
  25  -3  10 15.7176  2.5064   3
 -25  -3 -10 14.2475  2.3340   1
 -25   3 -10 16.6590  2.4910   1
  25   3  10 20.5509  2.6970   3
 -27  -3 -10 27.5489  2.9766   1
  27  -3  10 27.9679  3.1646   3
  27   3  10 31.0231  3.0891   3
 -27   3 -10 27.3047  2.9736   1
  29  -3  10 13.8498  2.5326   3
 -29  -3 -10 15.2321  2.3916   1
 -29   3 -10 12.0088  2.3727   1
  29   3  10 9.91514 2.33987   3
 -31  -3 -10 1.54692 1.75144   1
  31  -3  10 4.98230 2.13549   3
 -31   3 -10 4.09369 1.97595   1
  31   3  10 0.38637 1.96111   3
 -33  -3 -10 3.71868 1.94525   1
  33  -3  10 4.96678 2.18288   3
 -33   3 -10 3.48895 2.02606   1
  33   3  10 5.25070 2.35546   3
  35  -3  10 15.2361  2.7995   3
 -35  -3 -10 11.2149  2.4840   1
 -35   3 -10 6.79924 2.35207   1
  35   3  10 5.87613 2.63520   3
 -37  -3 -10 -0.2565  1.7853   1
  37  -3  10 1.85671 1.95434   3
  37   3  10 0.79026 2.38408   3
 -37   3 -10 1.04627 2.10439   1
  40  -4 -10 11.5193  2.8848   2
 -40   4  10 12.0608  2.8567   1
  38  -4 -10 1.39672 2.18317   2
  38   4 -10 3.61491 1.90697   2
 -38   4  10 0.93951 2.29946   1
  36  -4 -10 16.8093  2.9439   2
  36   4 -10 20.1913  2.7178   2
 -36   4  10 20.4588  3.0707   1
  34  -4 -10 3.39330 2.17862   2
  34   4 -10 5.11785 1.88515   2
 -34   4  10 2.41347 1.97243   1
  32  -4 -10 24.4413  3.1875   2
  32   4 -10 27.4079  3.1878   3
 -32   4  10 19.7084  3.0157   1
  32   4 -10 23.1947  2.6302   2
  30  -4 -10 0.30705 1.52883   2
  30   4 -10 1.05197 1.83474   3
  30   4 -10 1.62177 1.50291   2
 -30   4  10 -0.6984  1.8868   1
  28  -4 -10 65.1298  4.2176   2
  28   4 -10 65.0455  4.3386   3
 -28   4  10 66.3967  4.4247   1
  28   4 -10 71.5347  3.8755   2
  26  -4 -10 7.34094 1.92246   2
  26   4 -10 3.57579 1.93083   3
  26   4 -10 4.16610 1.48203   2
 -26   4  10 0.40462 2.01594   1
  24  -4 -10 40.3404  3.0768   2
  24   4 -10 45.5196  3.5590   3
  24   4 -10 39.1560  2.7865   2
 -24   4  10 43.3630  3.4833   1
  22  -4 -10 129.674   6.015   2
  22   4 -10 132.162   5.710   2
 -22   4  10 133.448   6.202   1
  20  -4 -10 16.1022  2.1255   2
  20   4 -10 18.4682  2.1019   2
  18  -4 -10 157.110   6.486   2
  18  -4 -10 154.232   6.517   1
  18   4 -10 153.077   6.326   2
  16  -4 -10 63.9145  3.5945   2
  16  -4 -10 75.6450  3.8995   1
  16   4 -10 73.7636  3.7524   2
  14  -4 -10 98.8393  4.4909   2
  14  -4 -10 87.4986  4.4837   1
  14   4 -10 102.406   4.551   2
  12  -4 -10 58.3557  3.3215   1
  12  -4 -10 58.0538  3.1108   2
  12   4 -10 54.3531  3.1812   2
  10  -4 -10 47.0889  2.9553   1
  10  -4 -10 45.6292  2.6408   2
   8  -4 -10 71.9464  3.7482   1
   8  -4 -10 89.7797  3.7287   2
  -8  -4  10 83.1807  3.8608   3
   6  -4 -10 0.13615 0.54244   1
  -6  -4  10 -1.2569  1.0118   3
   6  -4 -10 0.84798 0.82199   2
   6   4 -10 0.64679 0.54252   1
  -6   4  10 1.47709 0.47985   3
   6   4 -10 0.20211 0.61508   2
   4  -4 -10 340.781  11.592   2
  -4  -4  10 347.217  11.932   3
  -4   4  10 343.856  11.003   3
   4   4 -10 346.189  12.230   2
   4   4 -10 344.188  10.952   1
  -2  -4  10 121.110   5.063   3
   2  -4 -10 119.857   4.532   2
  -2   4  10 122.221   4.230   3
   2   4 -10 121.688   4.264   1
   2   4 -10 104.394   5.048   2
   0  -4 -10 70.4622  3.5281   1
   0  -4  10 68.0038  3.5627   3
   0   4  10 70.1763  2.8695   3
   0   4 -10 70.7067  3.8117   2
   0   4 -10 65.1121  2.8917   1
   2  -4  10 368.974  12.430   3
  -2  -4 -10 373.231  12.274   1
  -2  -4 -10 351.039  11.729   2
  -2   4 -10 325.729  12.590   2
   2   4  10 367.029  11.776   3
  -2   4 -10 360.981  11.684   1
   4  -4  10 6.53078 1.38734   3
  -4  -4 -10 6.69718 0.84728   2
  -4  -4 -10 8.62555 1.50909   1
   4   4  10 7.65358 1.21266   3
  -4   4 -10 5.46162 1.23912   1
  -4   4 -10 4.84933 1.62833   2
  -6  -4 -10 73.3043  3.5293   1
  -6   4 -10 66.8484  3.0670   1
   6   4  10 60.5588  2.9567   3
  -6   4 -10 57.3087  3.5088   2
  -8  -4 -10 8.05949 1.43444   1
  -8   4 -10 5.50386 1.47374   2
   8   4  10 6.58151 1.28686   3
  -8   4 -10 7.66373 1.40562   1
 -10  -4 -10 97.1069  4.4296   1
 -10   4 -10 99.7580  4.3465   1
 -10   4 -10 107.634   4.916   2
  10   4  10 98.1583  4.2647   3
  12  -4  10 16.7923  2.0290   3
 -12  -4 -10 13.8693  1.8418   1
 -12   4 -10 13.2252  2.0051   2
  12   4  10 13.9444  1.6910   3
 -12   4 -10 14.6663  1.7935   1
  14  -4  10 145.747   6.098   3
 -14  -4 -10 148.376   6.060   1
  14   4  10 140.598   5.776   3
 -14   4 -10 142.041   6.383   2
 -14   4 -10 152.871   5.992   1
 -16  -4 -10 4.91959 1.63745   1
  16  -4  10 4.88417 1.65729   3
 -16   4 -10 9.72791 1.73512   1
  16   4  10 6.82583 1.55850   3
  18  -4  10 37.4195  3.0537   3
 -18  -4 -10 39.5443  2.9984   1
  18   4  10 43.9050  2.9266   3
 -18   4 -10 43.2627  2.9955   1
  20  -4  10 8.26507 2.08029   3
 -20  -4 -10 7.81856 1.96074   1
  20   4  10 10.5706  2.0883   3
 -20   4 -10 13.5597  2.1727   1
 -22  -4 -10 62.3214  4.0874   1
  22  -4  10 65.7569  4.1534   3
 -22   4 -10 67.7688  4.1490   1
  22   4  10 68.3184  3.9754   3
 -24  -4 -10 20.0165  2.6558   1
  24  -4  10 26.2921  3.0203   3
 -24   4 -10 20.7218  2.7357   1
  24   4  10 23.7053  2.7835   3
 -26  -4 -10 12.3541  2.2973   1
  26  -4  10 11.6689  2.4343   3
 -26   4 -10 10.2460  2.2771   1
  26   4  10 12.0616  2.4291   3
  28  -4  10 0.70536 1.81264   3
 -28  -4 -10 -0.2023  1.4597   1
 -28   4 -10 1.19507 1.79346   1
  28   4  10 -1.5319  1.8100   3
  30  -4  10 6.57823 2.18097   3
 -30  -4 -10 7.06439 2.10404   1
 -30   4 -10 5.38908 2.04839   1
  30   4  10 4.58288 2.17860   3
  32  -4  10 0.09036 1.75443   3
 -32  -4 -10 -0.2600  1.7275   1
  32   4  10 -1.4106  1.9852   3
 -32   4 -10 0.64052 1.87812   1
 -34  -4 -10 5.78209 2.10950   1
  34  -4  10 8.69097 2.48173   3
 -34   4 -10 4.32023 2.11155   1
  34   4  10 5.23781 2.37839   3
  36  -4  10 1.72634 2.03051   3
 -36   4 -10 0.64653 1.93262   1
  36   4  10 -1.1453  2.3853   3
  38  -4  10 3.71921 2.27583   3
 -41   5  10 2.96297 2.46444   1
  39  -5 -10 0.21449 2.24996   2
 -39   5  10 1.72966 2.25458   1
  37  -5 -10 9.32622 2.76810   2
 -37   5  10 2.82293 2.29911   1
  37   5 -10 8.19787 2.14530   2
  35  -5 -10 7.98385 2.51628   2
  35   5 -10 11.6690  2.2341   2
  35   5 -10 9.71581 2.67076   3
 -35   5  10 8.15551 2.58860   1
  33  -5 -10 1.23135 1.82608   2
  33   5 -10 0.54834 1.97413   3
 -33   5  10 -4.3333  1.7201   1
  33   5 -10 0.97611 1.65020   2
  31  -5 -10 16.1752  2.8654   2
  31   5 -10 12.1113  2.6562   3
  31   5 -10 20.0003  2.4335   2
 -31   5  10 14.6581  2.9510   1
  29  -5 -10 6.33335 2.29047   2
 -29   5  10 8.12495 2.38538   1
  29   5 -10 4.90071 1.69344   2
  29   5 -10 5.50395 2.26856   3
  27  -5 -10 13.7718  2.4268   2
  27   5 -10 12.2145  1.9973   2
 -27   5  10 10.6469  2.5663   1
  27   5 -10 12.6481  2.5930   3
  25  -5 -10 53.4730  3.8947   2
  25   5 -10 50.1683  3.8936   3
 -25   5  10 56.3663  4.2316   1
  25   5 -10 49.5568  3.3620   2
  23  -5 -10 12.3924  2.2866   2
 -23   5  10 12.0789  2.5731   1
  23   5 -10 11.9870  1.9726   2
  23   5 -10 15.0552  2.5830   3
  21  -5 -10 31.1669  2.8158   2
  21   5 -10 31.8044  2.7585   2
 -21   5  10 26.8519  3.2231   1
  19  -5 -10 27.5128  2.6713   2
  19   5 -10 23.8685  2.3216   2
  17  -5 -10 4.35787 1.90313   1
  17  -5 -10 7.93747 1.69152   2
  17   5 -10 5.60367 1.52308   2
  15  -5 -10 34.8217  2.8652   1
  15  -5 -10 37.3259  2.7110   2
  15   5 -10 33.9557  2.7040   2
  13  -5 -10 18.6749  2.2418   1
  13  -5 -10 19.9835  2.1746   2
  13   5 -10 18.9073  2.1612   2
  11  -5 -10 4.19501 1.47991   1
  11  -5 -10 7.52534 1.34918   2
  11   5 -10 7.10783 1.49111   2
   9  -5 -10 14.2768  1.7053   2
   9   5 -10 10.0789  1.6865   2
  -7  -5  10 5.79387 1.52202   3
   7  -5 -10 8.22710 1.31134   2
   5  -5 -10 13.3300  1.5226   2
  -5  -5  10 12.6844  1.8956   3
  -5   5  10 12.9040  1.1866   3
   3  -5 -10 122.831   5.490   1
  -3  -5  10 136.157   5.687   3
   3  -5 -10 128.442   5.125   2
  -3   5  10 136.649   4.786   3
   3   5 -10 137.932   4.679   1
   1  -5 -10 18.3830  2.1330   1
  -1  -5  10 20.4913  2.2505   3
   1  -5 -10 19.4963  1.6216   2
  -1   5  10 19.4161  1.6164   3
   1   5 -10 14.2121  2.0315   2
   1   5 -10 20.2345  1.5671   1
  -1  -5 -10 127.106   5.230   2
  -1  -5 -10 153.696   5.999   1
  -1   5 -10 142.598   6.373   2
   1   5  10 145.893   5.301   3
  -1   5 -10 150.611   5.236   1
  -3  -5 -10 44.7204  2.9213   1
  -3   5 -10 41.2718  3.0449   2
  -3   5 -10 42.4623  2.4821   1
   3   5  10 40.8871  2.4885   3
  -5  -5 -10 30.5349  2.4791   1
  -5   5 -10 21.9481  2.6274   2
   5   5  10 30.3280  2.1392   3
  -5   5 -10 29.1405  2.1606   1
  -7  -5 -10 4.19208 1.45510   1
   7  -5  10 5.67305 1.48877   3
  -7   5 -10 3.86996 1.45858   2
   7   5  10 3.69310 1.21460   3
  -7   5 -10 1.44860 1.19428   1
   9  -5  10 7.45869 1.63959   3
  -9  -5 -10 9.48903 1.64001   1
  -9   5 -10 7.86774 1.50453   1
   9   5  10 6.89447 1.41355   3
  -9   5 -10 8.06599 1.82492   2
  11  -5  10 38.0662  2.8273   3
 -11  -5 -10 42.2836  2.7839   1
 -11   5 -10 36.8217  2.9400   2
 -11   5 -10 40.5567  2.5753   1
  11   5  10 39.7911  2.6471   3
  13  -5  10 42.8030  3.0100   3
 -13  -5 -10 42.1403  2.8790   1
  13   5  10 42.2321  2.8010   3
 -13   5 -10 46.3034  2.9085   1
 -13   5 -10 38.0472  3.2078   2
 -15  -5 -10 7.94535 1.85331   1
  15  -5  10 8.29068 1.90018   3
 -15   5 -10 8.11562 1.68380   1
  15   5  10 8.13791 1.65778   3
  17  -5  10 28.3229  2.8034   3
 -17  -5 -10 26.3918  2.7968   1
 -17   5 -10 28.2361  2.7412   1
  17   5  10 29.2268  2.5768   3
  19  -5  10 1.37347 1.72443   3
 -19  -5 -10 3.58391 1.70846   1
 -19   5 -10 3.07485 1.69974   1
  19   5  10 5.21922 1.83467   3
  21  -5  10 2.67950 1.87268   3
 -21  -5 -10 -0.2310  1.5285   1
  21   5  10 4.69534 1.83716   3
 -21   5 -10 2.49311 1.75866   1
  23  -5  10 6.32687 2.14489   3
 -23  -5 -10 7.09843 2.00717   1
 -23   5 -10 9.52112 2.21108   1
  23   5  10 4.82536 1.89570   3
 -25  -5 -10 3.32338 1.84307   1
  25  -5  10 4.29431 1.95448   3
 -25   5 -10 4.60763 2.12940   1
  25   5  10 0.59834 1.87720   3
  27  -5  10 5.42776 2.08391   3
 -27  -5 -10 8.21743 2.15397   1
  27   5  10 7.19807 2.30544   3
 -27   5 -10 10.1623  2.3830   1
  29  -5  10 0.19801 1.74332   3
 -29  -5 -10 1.05706 1.77405   1
 -29   5 -10 -2.0139  1.7541   1
  29   5  10 -0.3431  2.0476   3
 -31  -5 -10 5.49379 2.07846   1
  31  -5  10 6.73488 2.35392   3
 -31   5 -10 5.81527 2.33502   1
  31   5  10 3.80297 2.27580   3
  33  -5  10 5.36180 2.24521   3
 -33   5 -10 -3.4493  1.6532   1
  33   5  10 -3.9319  2.0220   3
  35  -5  10 8.80643 2.49482   3
  35   5  10 -1.6462  2.1651   3
 -35   5 -10 2.47690 2.07883   1
  38  -6 -10 1.11748 2.22306   2
 -38   6  10 1.48366 2.29927   1
  36  -6 -10 1.52292 2.16827   2
  36   6 -10 1.40654 2.15089   3
 -36   6  10 1.23753 2.15553   1
  34  -6 -10 1.47869 2.10286   2
  34   6 -10 -0.6283  1.5636   2
  34   6 -10 3.79967 2.32047   3
 -34   6  10 -0.2442  2.0195   1
  32  -6 -10 -0.9626  1.7679   2
 -32   6  10 -0.1987  2.0307   1
  32   6 -10 2.19939 2.28166   3
  32   6 -10 -0.1320  1.5373   2
  30  -6 -10 5.66163 2.42146   2
  30   6 -10 8.51970 1.96508   2
  30   6 -10 8.53764 2.55061   3
 -30   6  10 6.84237 2.53769   1
  28  -6 -10 12.1882  2.7734   2
  28   6 -10 8.27306 1.92353   2
  28   6 -10 9.68072 2.66130   3
  26  -6 -10 -1.9330  1.7038   2
 -26   6  10 -1.3938  1.9039   1
  26   6 -10 2.10354 2.04829   3
  26   6 -10 1.19150 1.52515   2
  24  -6 -10 13.1090  2.3926   2
  24   6 -10 15.9428  2.7407   3
  24   6 -10 13.3528  2.0682   2
 -24   6  10 12.3085  2.6795   1
  22  -6 -10 14.2392  2.4649   2
 -22   6  10 11.1922  2.6190   1
  22   6 -10 17.3792  2.2821   2
  20  -6 -10 30.0721  2.9684   2
 -20   6  10 24.6029  3.2224   1
  20   6 -10 28.2733  2.7861   2
  18  -6 -10 11.1081  2.0080   2
  18  -6 -10 12.6920  2.4010   1
  18   6 -10 10.4036  1.8967   2
  16  -6 -10 7.03327 2.00931   1
  16  -6 -10 6.73957 1.70674   2
  16   6 -10 8.64421 1.82776   2
  14  -6 -10 11.2434  1.8004   2
  14  -6 -10 10.1407  1.9914   1
  14   6 -10 10.5779  1.8487   2
  12  -6 -10 8.59758 1.57071   2
  12  -6 -10 8.08597 1.82015   1
  12   6 -10 7.85948 1.70973   2
  10  -6 -10 44.6799  3.1581   1
  10  -6 -10 52.7769  3.0499   2
  10   6 -10 49.5726  3.2359   2
   8  -6 -10 7.74950 1.47189   2
   8  -6 -10 7.53055 1.78660   1
   8   6 -10 7.58012 1.76671   2
   6  -6 -10 35.4097  2.4784   2
   6  -6 -10 36.4611  2.8960   1
  -6  -6  10 39.3194  2.9930   3
   6   6 -10 43.7967  3.1628   2
   4  -6 -10 64.4719  3.7243   1
   4  -6 -10 62.9891  3.2367   2
  -4  -6  10 66.7651  3.8402   3
   4   6 -10 63.4455  3.9292   2
  -2  -6  10 27.3651  2.7323   3
   2  -6 -10 31.6779  2.2128   2
   2  -6 -10 31.0060  2.7470   1
   2   6 -10 30.4516  2.9278   2
  -2   6  10 28.7250  1.9783   3
   0  -6 -10 83.2659  3.8512   2
   0  -6 -10 86.3172  4.3796   1
   0  -6  10 92.2893  4.5933   3
   0   6 -10 80.8505  4.7318   2
   0   6 -10 87.1302  3.5935   1
   0   6  10 89.7477  3.7903   3
   2  -6  10 29.1181  2.7338   3
  -2  -6 -10 33.7095  2.7641   1
   2   6  10 38.0432  2.4285   3
  -2   6 -10 29.4332  2.9711   2
  -2   6 -10 40.7406  2.3083   1
  -4  -6 -10 14.4292  2.0391   1
   4  -6  10 13.9455  2.1758   3
  -4   6 -10 10.1628  1.5951   1
   4   6  10 15.5823  1.7567   3
  -4   6 -10 8.72410 2.15005   2
   6  -6  10 15.6215  2.1971   3
  -6  -6 -10 12.3357  1.9492   1
  -6   6 -10 13.7454  1.7736   1
   6   6  10 20.9123  2.0030   3
  -6   6 -10 11.4872  2.2262   2
  -8  -6 -10 122.633   5.462   1
   8  -6  10 130.121   5.764   3
  -8   6 -10 121.647   5.160   1
   8   6  10 123.126   5.248   3
  -8   6 -10 131.838   6.138   2
 -10  -6 -10 7.78569 1.71080   1
  10  -6  10 11.3216  2.0097   3
  10   6  10 9.70489 1.66907   3
 -10   6 -10 8.97233 1.61560   1
 -10   6 -10 9.70901 2.20493   2
 -12  -6 -10 10.7514  1.9315   1
  12  -6  10 7.86079 1.93377   3
 -12   6 -10 12.4386  2.3725   2
  12   6  10 7.89349 1.73555   3
 -12   6 -10 9.43798 1.79904   1
 -14  -6 -10 8.58391 1.88657   1
  14  -6  10 6.61159 1.91569   3
 -14   6 -10 8.24432 2.14833   2
  14   6  10 7.27545 1.72602   3
 -14   6 -10 7.71257 1.81840   1
 -16  -6 -10 57.1995  3.7156   1
  16  -6  10 60.2224  3.9619   3
 -16   6 -10 61.2523  3.7765   1
  16   6  10 67.6117  3.8684   3
  18  -6  10 9.20811 2.29228   3
 -18  -6 -10 9.31759 2.12467   1
 -18   6 -10 10.0512  2.1340   1
  18   6  10 9.30070 2.00161   3
 -20  -6 -10 21.9245  2.7353   1
  20  -6  10 19.4598  2.7446   3
  20   6  10 19.9207  2.5891   3
 -20   6 -10 24.3379  2.8644   1
  22  -6  10 5.24356 2.18445   3
 -22  -6 -10 4.87158 1.95896   1
 -22   6 -10 7.04932 2.13191   1
  22   6  10 7.08539 2.07675   3
  24  -6  10 5.44926 2.11848   3
 -24  -6 -10 1.73089 1.90364   1
 -24   6 -10 5.01274 2.12591   1
  24   6  10 6.55139 2.23343   3
 -26  -6 -10 0.29629 1.77654   1
  26  -6  10 2.34027 1.91152   3
 -26   6 -10 3.64332 2.17377   1
  26   6  10 3.72231 2.07091   3
  28  -6  10 7.03081 2.26084   3
 -28   6 -10 5.81210 2.38795   1
  28   6  10 3.98248 2.30099   3
  30  -6  10 4.69016 2.24458   3
  30   6  10 -1.6535  2.1197   3
 -30   6 -10 -3.2240  2.0511   1
  32  -6  10 2.13008 1.98727   3
 -32   6 -10 -0.3485  2.1885   1
  32   6  10 -1.9498  2.3281   3
  34  -6  10 2.16490 2.07793   3
  37   7 -10 0.52581 2.23385   3
  35  -7 -10 2.89399 2.51454   2
  35   7 -10 3.39603 2.52280   3
 -35   7  10 1.05475 2.19111   1
  33  -7 -10 -0.6011  2.0403   2
  33   7 -10 -0.5144  2.1062   3
 -33   7  10 0.07080 1.93964   1
  31  -7 -10 1.61899 2.14539   2
  31   7 -10 2.44954 2.32526   3
  31   7 -10 -0.1997  1.4712   2
 -31   7  10 -0.1760  1.8743   1
  29  -7 -10 -0.9908  1.9843   2
  29   7 -10 -1.2926  1.5809   2
  29   7 -10 1.20176 2.15006   3
 -29   7  10 -0.3732  2.0056   1
  27  -7 -10 2.38118 2.11966   2
  27   7 -10 2.33335 2.41241   3
  27   7 -10 1.72804 1.60209   2
 -27   7  10 1.84758 2.42815   1
  25  -7 -10 4.06060 2.12132   2
 -25   7  10 1.13522 2.26356   1
  25   7 -10 2.50747 2.32652   3
  25   7 -10 4.39901 1.73238   2
  23  -7 -10 5.05367 2.07232   2
 -23   7  10 4.02840 2.43551   1
  23   7 -10 7.51800 1.96754   2
  21  -7 -10 8.98433 2.17393   2
  21   7 -10 4.39281 1.78584   2
 -21   7  10 9.45024 2.54717   1
  19  -7 -10 11.8789  2.2057   2
 -19   7  10 8.05026 2.31142   1
  19   7 -10 10.2892  1.9988   2
  17  -7 -10 7.14039 1.92470   2
  17  -7 -10 4.20030 2.02606   1
  17   7 -10 6.71835 1.87075   2
  15  -7 -10 8.63147 2.15756   1
  15  -7 -10 9.14292 1.87428   2
  15   7 -10 7.36835 1.85686   2
  13  -7 -10 15.7088  2.1690   2
  13  -7 -10 13.4749  2.3967   1
  13   7 -10 13.5514  2.1870   2
  11  -7 -10 18.4477  2.2548   2
  11  -7 -10 15.4827  2.4712   1
  11   7 -10 22.2287  2.5845   2
   9  -7 -10 3.92870 1.46441   2
   9  -7 -10 2.27118 1.79097   1
   9   7 -10 4.72601 1.60837   2
   7  -7 -10 38.6670  2.7916   2
   7  -7 -10 29.4754  3.0964   1
   7   7 -10 34.2746  3.1230   2
   5  -7 -10 7.30872 1.58752   2
  -5  -7  10 8.33043 2.01497   3
   5  -7 -10 8.39123 2.02769   1
   5   7 -10 9.43321 2.02234   2
  -3  -7  10 29.2865  2.8983   3
   3  -7 -10 30.0730  2.4779   2
   3  -7 -10 35.5247  3.0320   1
   3   7 -10 23.5670  2.8432   2
  -1  -7  10 15.6118  2.3492   3
   1  -7 -10 14.3176  2.2211   1
   1   7 -10 10.5643  2.1508   2
   1  -7  10 30.5220  2.8707   3
  -1  -7 -10 33.3284  2.7854   1
  -1   7 -10 29.9965  3.2142   2
   1   7  10 32.1910  2.3650   3
   3  -7  10 24.4975  2.7675   3
  -3  -7 -10 21.4197  2.4632   1
   3   7  10 22.0414  2.1592   3
  -3   7 -10 19.3406  2.7014   2
   5  -7  10 4.97889 1.84022   3
  -5  -7 -10 5.91912 1.69265   1
  -5   7 -10 2.82427 1.32700   1
   5   7  10 5.24060 1.41374   3
  -5   7 -10 4.96877 1.92464   2
   7  -7  10 30.8227  2.8663   3
  -7  -7 -10 27.7238  2.7050   1
  -7   7 -10 27.2677  2.3694   1
   7   7  10 27.1230  2.4091   3
  -7   7 -10 23.7759  3.0546   2
  -9  -7 -10 17.8253  2.3441   1
   9  -7  10 17.6714  2.5097   3
   9   7  10 15.9110  2.0969   3
  -9   7 -10 17.4027  2.1647   1
  -9   7 -10 20.9171  2.8435   2
 -11  -7 -10 17.3161  2.3598   1
  11  -7  10 17.0928  2.5697   3
  11   7  10 15.0202  2.1447   3
 -11   7 -10 15.2444  2.1501   1
 -11   7 -10 13.8452  2.6482   2
 -13  -7 -10 2.88025 1.72529   1
  13  -7  10 1.16234 1.71687   3
 -13   7 -10 0.57664 1.41397   1
 -13   7 -10 5.77395 2.07639   2
  13   7  10 2.50383 1.60121   3
 -15  -7 -10 20.4164  2.6863   1
  15  -7  10 19.1798  2.7731   3
 -15   7 -10 19.7229  2.5297   1
 -15   7 -10 19.5120  3.1927   2
  15   7  10 21.3546  2.5754   3
  17  -7  10 13.4731  2.5363   3
 -17  -7 -10 15.4906  2.4882   1
 -17   7 -10 16.1554  2.3733   1
  17   7  10 19.9033  2.5437   3
 -17   7 -10 14.0775  2.8032   2
  19  -7  10 2.81105 2.00191   3
 -19  -7 -10 1.01588 1.79711   1
 -19   7 -10 5.68579 1.94391   1
  19   7  10 2.63609 1.76781   3
 -21  -7 -10 0.94852 1.76000   1
  21  -7  10 2.73607 2.10568   3
 -21   7 -10 4.04928 1.90285   1
  21   7  10 7.86762 2.20157   3
 -23  -7 -10 3.41900 2.10219   1
  23  -7  10 3.92734 2.21415   3
  23   7  10 5.96705 2.18760   3
 -23   7 -10 5.59484 2.20301   1
 -25   7 -10 7.75877 2.38087   1
  25   7  10 8.95955 2.48025   3
  27  -7  10 0.54598 2.13047   3
  27   7  10 0.75914 2.10826   3
 -27   7 -10 3.90353 2.17933   1
  29  -7  10 1.81919 2.04676   3
  29   7  10 1.40768 2.29935   3
 -29   7 -10 0.61976 2.17042   1
  31  -7  10 0.14431 1.96962   3
  31   7  10 -4.3918  2.0664   3
 -31   7 -10 0.64922 2.08759   1
  33  -7  10 -0.2777  1.8182   3
  34   8 -10 0.38771 2.36130   3
  32  -8 -10 2.06345 2.31982   2
  32   8 -10 2.49437 2.51325   3
 -32   8  10 2.37836 2.27101   1
  30  -8 -10 5.21240 2.42747   2
  30   8 -10 8.50871 2.15325   2
  30   8 -10 2.21513 2.56633   3
  28  -8 -10 18.0713  3.1439   2
 -28   8  10 13.1231  3.0061   1
  28   8 -10 16.0098  2.5475   2
  28   8 -10 15.7174  3.3342   3
  26  -8 -10 4.55708 2.09343   2
  26   8 -10 6.83447 2.03648   2
  26   8 -10 3.88643 2.49393   3
 -26   8  10 2.13737 2.55624   1
  24  -8 -10 22.7331  3.3588   2
  24   8 -10 28.3547  3.7978   3
  24   8 -10 23.8652  2.8805   2
 -24   8  10 24.9778  3.5450   1
  22  -8 -10 5.04618 2.18762   2
  22   8 -10 6.21625 1.92493   2
 -22   8  10 2.75300 2.32624   1
  20  -8 -10 9.57374 2.35008   2
  20   8 -10 9.65006 2.09040   2
 -20   8  10 8.85159 2.55364   1
  18  -8 -10 6.75128 2.00139   2
 -18   8  10 3.53899 2.06428   1
  18   8 -10 2.85840 1.59970   2
  16  -8 -10 7.93211 2.05252   2
  16   8 -10 8.17587 1.96587   2
  14  -8 -10 4.52556 1.76705   2
  14  -8 -10 2.28944 2.00074   1
  14   8 -10 2.14513 1.53267   2
  12  -8 -10 11.0619  2.5103   1
  12  -8 -10 14.5309  2.2937   2
  12   8 -10 14.4512  2.4113   2
  10  -8 -10 35.2936  3.5302   1
  10  -8 -10 41.8895  3.1260   2
  10   8 -10 39.8632  3.4227   2
   8  -8 -10 21.3997  2.5481   2
   8  -8 -10 20.4670  2.8653   1
   8   8 -10 23.6467  2.9081   2
   6  -8 -10 60.1386  3.6156   2
   6  -8 -10 55.3898  3.8946   1
   6   8 -10 57.5638  3.9651   2
   4  -8 -10 9.01907 2.11991   1
   4   8 -10 9.25233 2.14873   2
  -2  -8  10 43.4966  3.4477   3
   2  -8 -10 40.2656  3.2815   1
   2   8 -10 35.4650  3.3305   2
   0  -8  10 10.2110  2.2165   3
   0  -8 -10 9.92241 2.07043   1
   0   8 -10 7.69992 2.21658   2
   2  -8  10 24.8036  2.9458   3
  -2  -8 -10 23.6256  2.7060   1
  -2   8 -10 24.7008  3.2173   2
   4  -8  10 31.4918  3.2571   3
  -4  -8 -10 31.9914  2.9547   1
   4   8  10 28.3712  2.5159   3
  -4   8 -10 28.4416  3.4649   2
   6  -8  10 14.9341  2.5758   3
  -6  -8 -10 18.2719  2.4963   1
  -6   8 -10 14.6488  2.7223   2
   6   8  10 16.3016  2.1657   3
  -8  -8 -10 3.44717 1.78795   1
   8  -8  10 7.14672 2.05641   3
   8   8  10 8.21739 1.86260   3
  -8   8 -10 3.62587 1.55821   1
  -8   8 -10 4.70388 2.12839   2
  10  -8  10 20.9804  2.8761   3
 -10  -8 -10 21.6968  2.6906   1
 -10   8 -10 19.0742  2.3777   1
  10   8  10 22.8378  2.6159   3
 -10   8 -10 22.5770  3.3190   2
  12  -8  10 1.21262 1.86161   3
 -12  -8 -10 1.29782 1.72145   1
 -12   8 -10 -1.3862  1.5808   1
  12   8  10 4.40341 1.68267   3
 -12   8 -10 -0.7066  1.6484   2
  14  -8  10 14.9647  2.7554   3
 -14  -8 -10 17.2018  2.6018   1
 -14   8 -10 19.1573  2.5286   1
 -14   8 -10 17.2707  3.0322   2
  14   8  10 18.0108  2.4944   3
  16  -8  10 4.00052 2.11676   3
 -16  -8 -10 6.72078 2.10428   1
 -16   8 -10 4.66987 2.53209   2
 -16   8 -10 3.49237 1.96165   1
  16   8  10 3.84733 1.91869   3
 -18  -8 -10 7.20239 2.18239   1
  18  -8  10 7.69281 2.30143   3
  18   8  10 7.12694 2.11901   3
 -18   8 -10 7.28049 2.12586   1
 -18   8 -10 6.10433 2.71760   2
  20  -8  10 6.93724 2.25770   3
 -20   8 -10 4.33466 2.67961   2
  20   8  10 3.45841 2.12776   3
 -20   8 -10 8.68906 2.29518   1
  22  -8  10 9.93580 2.47232   3
 -22   8 -10 9.30411 2.43147   1
  22   8  10 7.38164 2.27119   3
  24  -8  10 3.44569 2.12088   3
  24   8  10 0.61554 2.03553   3
 -24   8 -10 1.85616 2.18048   1
  26  -8  10 5.28130 2.38117   3
  26   8  10 3.83361 2.33584   3
 -26   8 -10 7.63897 2.61076   1
  28  -8  10 6.70226 2.37121   3
 -28   8 -10 1.48969 2.32605   1
  28   8  10 0.92155 2.14680   3
  30  -8  10 7.47156 2.38844   3
  29  -9 -10 3.80137 2.45220   2
 -29   9  10 -0.5100  2.2068   1
  29   9 -10 -0.1257  2.5273   3
  27  -9 -10 28.5382  3.8240   2
  27   9 -10 22.2748  2.9514   2
 -27   9  10 20.9192  3.6126   1
  27   9 -10 19.8462  3.7776   3
  25  -9 -10 7.97066 2.63409   2
 -25   9  10 6.24182 2.98416   1
  25   9 -10 7.00409 2.14437   2
  25   9 -10 7.20388 2.81697   3
  23  -9 -10 28.6035  3.5993   2
  23   9 -10 30.2910  3.9293   3
  23   9 -10 26.9927  3.1445   2
 -23   9  10 20.9282  3.6716   1
  21  -9 -10 11.8613  2.5566   2
  21   9 -10 11.4334  2.3948   2
 -21   9  10 13.2074  2.9630   1
  19  -9 -10 13.3809  2.6863   2
  19   9 -10 15.4474  2.6445   2
 -19   9  10 9.87390 2.71381   1
  17  -9 -10 5.27118 2.06185   2
 -17   9  10 2.54428 2.28137   1
  17   9 -10 6.73326 2.08072   2
  15  -9 -10 4.98898 1.94332   2
  15   9 -10 5.92627 1.86259   2
  13  -9 -10 -3.4407  1.6890   1
  13  -9 -10 2.18738 1.58398   2
  13   9 -10 -0.2112  1.6108   2
  11  -9 -10 23.0110  2.8356   2
  11  -9 -10 18.7393  2.8980   1
  11   9 -10 17.9326  2.6660   2
   9  -9 -10 8.91150 2.43970   1
   9  -9 -10 11.1756  2.1417   2
   9   9 -10 7.15962 2.15550   2
   7  -9 -10 53.7659  3.6110   2
   7  -9 -10 46.4344  3.7845   1
   7   9 -10 54.5471  4.1027   2
   5  -9 -10 8.61876 2.33410   1
   5   9 -10 7.62753 2.22045   2
   3  -9 -10 63.0026  4.2320   1
   3   9 -10 62.5311  4.5929   2
  -1  -9  10 7.96378 2.36360   3
   1  -9 -10 11.0444  2.4008   1
   1   9 -10 8.31690 2.46162   2
   1  -9  10 34.6624  3.4755   3
  -1  -9 -10 44.8392  3.6379   1
  -1   9 -10 44.1167  4.1239   2
  -3  -9 -10 5.32947 2.05270   1
   3  -9  10 8.56882 2.35988   3
  -3   9 -10 1.99250 2.26088   2
  -5  -9 -10 22.5533  2.8786   1
   5  -9  10 22.4782  3.0408   3
  -5   9 -10 23.1851  3.4855   2
   7  -9  10 8.03847 2.26652   3
  -7  -9 -10 6.28599 2.11332   1
   7   9  10 5.61954 1.94774   3
  -7   9 -10 4.57770 2.46006   2
   9  -9  10 16.9195  2.8157   3
  -9  -9 -10 16.0211  2.6481   1
   9   9  10 15.1427  2.4240   3
  -9   9 -10 16.1303  3.1583   2
 -11  -9 -10 16.5133  2.6665   1
  11  -9  10 14.4431  2.8750   3
  11   9  10 16.5022  2.5256   3
 -11   9 -10 13.9602  3.0805   2
 -13  -9 -10 20.6306  2.9355   1
  13  -9  10 16.5573  2.8608   3
 -13   9 -10 21.8423  3.5350   2
  13   9  10 17.2356  2.5959   3
  15  -9  10 9.96289 2.55606   3
 -15   9 -10 7.98386 2.17702   1
  15   9  10 8.56817 2.19734   3
 -15   9 -10 5.12242 2.65898   2
  17  -9  10 18.1714  3.1021   3
  17   9  10 18.0433  2.7409   3
 -17   9 -10 21.0548  3.8146   2
 -17   9 -10 16.7736  2.7280   1
  19  -9  10 10.0983  2.6656   3
  19   9  10 9.95522 2.37056   3
 -19   9 -10 10.2428  2.4529   1
 -19   9 -10 8.78367 3.21169   2
  21  -9  10 13.7749  2.7901   3
  21   9  10 7.40288 2.42091   3
 -21   9 -10 9.54310 3.33034   2
 -21   9 -10 11.2361  2.6332   1
  23  -9  10 8.24409 2.49575   3
  23   9  10 7.87397 2.42783   3
 -23   9 -10 4.26921 3.01694   2
 -23   9 -10 4.65415 2.38352   1
  25  -9  10 3.44992 2.23249   3
 -25   9 -10 2.92651 2.20056   1
  25   9  10 0.22209 2.13628   3
 -25   9 -10 1.99439 2.77309   2
  27  -9  10 3.92814 2.16774   3
 -27   9 -10 -3.1333  2.0463   1
  26 -10 -10 5.06329 2.61684   2
  24 -10 -10 29.2864  4.0694   2
 -24  10  10 30.6630  4.1231   1
  24  10 -10 27.2663  4.1762   3
  24  10 -10 33.8370  3.6316   2
  22 -10 -10 3.83847 2.33578   2
  22  10 -10 6.85437 2.32179   2
 -22  10  10 1.76173 2.51540   1
  20 -10 -10 17.1989  3.0950   2
  20  10 -10 15.4374  2.7005   2
 -20  10  10 10.5051  2.9466   1
  18 -10 -10 5.26594 2.20319   2
 -18  10  10 7.42528 2.59380   1
  18  10 -10 5.30070 2.08104   2
  16 -10 -10 20.2707  3.1071   2
 -16  10  10 11.7936  3.0213   1
  16  10 -10 22.9340  3.0870   2
  14 -10 -10 20.7088  3.0745   2
 -14  10  10 8.97054 2.74189   1
  14  10 -10 13.8761  2.6841   2
  12 -10 -10 19.7157  2.8873   2
  12  10 -10 19.7638  3.0046   2
  10 -10 -10 23.7579  3.3333   1
  10  10 -10 19.0567  3.0864   2
   8 -10 -10 5.01253 2.20834   1
   8  10 -10 7.98705 2.40676   2
   6 -10 -10 9.60412 2.40920   1
   6  10 -10 10.0608  2.4718   2
   4 -10 -10 9.30643 2.48129   1
   4  10 -10 8.68640 2.54070   2
   2 -10 -10 21.0307  3.0499   1
   2  10 -10 15.1542  3.0047   2
   0 -10 -10 14.3430  2.6531   1
   0  10 -10 15.1281  3.1322   2
   2 -10  10 25.6565  3.4611   3
  -2 -10 -10 30.9657  3.4750   1
  -2  10 -10 24.1532  3.6575   2
   4 -10  10 10.7542  2.7118   3
  -4 -10 -10 7.59955 2.41649   1
  -4  10 -10 12.5908  2.9854   2
  -6 -10 -10 43.9183  3.7409   1
   6 -10  10 37.8299  4.0114   3
  -6  10 -10 36.0186  4.2679   2
   8 -10  10 8.69371 2.53136   3
  -8 -10 -10 8.27904 2.32111   1
  -8  10 -10 8.17807 2.78835   2
  10 -10  10 29.5389  3.6682   3
 -10  10 -10 29.5475  4.0393   2
  12 -10  10 -1.4236  2.0381   3
  12  10  10 -0.4893  1.7229   3
 -12  10 -10 -2.5906  2.1047   2
  14 -10  10 12.4409  2.7123   3
  14  10  10 13.2655  2.5965   3
 -14  10 -10 14.7620  3.4301   2
  16 -10  10 0.98959 2.14628   3
  16  10  10 1.15034 2.04950   3
 -16  10 -10 -2.3471  2.2815   2
  18 -10  10 17.8029  3.2069   3
  18  10  10 17.1010  2.8324   3
 -18  10 -10 14.7252  3.5945   2
  20 -10  10 6.49341 2.35532   3
  20  10  10 1.74491 2.16278   3
 -20  10 -10 2.43012 2.88827   2
  22 -10  10 10.0505  2.6086   3
  22  10  10 7.67925 2.60235   3
 -22  10 -10 10.7572  2.8266   1
 -24  10 -10 2.31594 2.43466   1
  21 -11 -10 2.91426 2.50078   2
  21  11 -10 0.52090 2.23271   2
  19 -11 -10 49.0957  4.4238   2
 -19  11  10 32.9101  4.3391   1
  19  11 -10 37.6157  4.0878   2
  17 -11 -10 5.28553 2.35246   2
  17  11 -10 5.24408 2.32130   2
 -17  11  10 0.99620 2.47700   1
 -15  11  10 22.6153  3.6891   1
  15  11 -10 38.4721  3.7264   2
 -13  11  10 -4.2209  2.0871   1
  13  11 -10 2.60167 2.01042   2
  11  11 -10 37.7490  4.1569   2
   9  11 -10 0.84778 2.08027   2
   7 -11 -10 18.8024  3.1638   1
   7  11 -10 22.3967  3.4716   2
   5 -11 -10 -1.3006  1.9415   1
   5  11 -10 0.11481 1.79561   2
   3 -11 -10 22.1280  3.2618   1
   3  11 -10 18.8160  3.3828   2
   1 -11 -10 7.22609 2.51905   1
   1  11 -10 7.37432 2.73495   2
  -1 -11 -10 37.6784  3.9892   1
  -1  11 -10 37.7295  4.4678   2
  -3 -11 -10 17.7651  3.0439   1
  -3  11 -10 15.6146  3.2306   2
  -5  11 -10 34.7841  4.5070   2
   7 -11  10 6.68083 2.73849   3
  -7  11 -10 4.53825 2.73905   2
   9 -11  10 22.5398  3.5168   3
  -9  11 -10 25.1257  4.0680   2
  11 -11  10 7.85204 2.68113   3
 -11  11 -10 4.86623 2.73702   2
  13 -11  10 8.58219 2.74383   3
 -13  11 -10 10.4695  2.9645   2
  15 -11  10 5.70863 2.52346   3
  17 -11  10 3.91733 2.28615   3
  14  12 -10 10.1281  2.8629   2
 -12  12  10 17.4821  3.4331   1
  12  12 -10 18.5744  3.3450   2
 -10  12  10 7.75637 2.83088   1
  10  12 -10 16.3843  3.1932   2
  -8  12  10 17.2501  3.3680   1
   8  12 -10 24.1580  3.6476   2
   6  12 -10 19.9617  3.4144   2
   4 -12 -10 8.97225 2.88295   1
   4  12 -10 9.48208 2.96312   2
   2 -12 -10 20.0345  3.3504   1
   2  12 -10 19.6056  3.6557   2
   0  12 -10 3.08488 2.62845   2
  -2  12 -10 17.7667  3.6438   2
  44   0 -11 4.72470 2.40848   2
  42   0 -11 3.10638 2.16271   2
  40   0 -11 -0.0910  1.9229   2
  38   0 -11 -0.7045  1.5324   2
  36   0 -11 2.43612 1.76994   2
  34   0 -11 -2.1275  1.3014   2
  32   0 -11 -1.9153  1.4511   2
  30   0 -11 3.64470 1.51693   2
  28   0 -11 2.48911 1.61569   2
 -26   0  11 1.56105 1.52571   1
 -24   0  11 -5.4864  1.3873   1
  24   0 -11 3.12900 1.39012   2
 -22   0  11 2.29935 1.34909   1
  22   0 -11 3.40935 1.28985   2
  20   0 -11 0.00496 0.66525   2
 -20   0  11 -2.6003  0.9872   1
  18   0 -11 -0.5237  0.9457   1
  18   0 -11 0.91635 0.73921   3
  18   0 -11 -0.0094  0.2733   2
  16   0 -11 -0.3425  0.7460   2
  16   0 -11 -0.1017  0.8096   1
  14   0 -11 -0.5366  0.7241   2
  14   0 -11 0.45193 0.84676   1
  12   0 -11 -2.1426  0.7570   1
  12   0 -11 0.19560 0.71064   2
 -10   0  11 0.43409 0.64749   3
  10   0 -11 1.24450 0.73775   2
  10   0 -11 -0.1750  0.7551   1
   8   0 -11 0.58351 0.65226   2
   8   0 -11 -1.6255  0.6963   1
  -8   0  11 -0.9099  0.5732   3
   6   0 -11 0.49898 0.68241   2
  -6   0  11 -0.1846  0.6450   3
   6   0 -11 0.03297 0.81104   1
   4   0 -11 -0.3228  0.6387   2
   4   0 -11 -1.0172  0.8089   1
  -4   0  11 -0.6365  0.6588   3
   2   0 -11 1.39081 0.84849   1
  -2   0  11 -0.0961  0.7305   3
   2   0 -11 0.54913 0.69156   2
   0   0 -11 0.53550 0.83185   1
   0   0 -11 1.25334 0.71679   2
   0   0  11 1.26783 0.81832   3
  -2   0 -11 1.91793 0.71723   2
  -2   0 -11 2.78645 0.91649   1
  -4   0 -11 -0.1489  0.8144   1
   4   0  11 -0.7694  0.8034   3
  -4   0 -11 -0.0042  0.3478   2
  -6   0 -11 0.55841 0.83118   1
   6   0  11 -0.9323  0.7899   3
  -6   0 -11 -0.0991  0.2868   2
   8   0  11 -1.3206  0.9007   3
  -8   0 -11 -0.0188  0.8511   1
  -8   0 -11 -0.7216  0.4550   2
  10   0  11 -1.0417  1.0510   3
 -10   0 -11 -0.3216  0.9713   1
 -10   0 -11 -0.6616  0.6262   2
 -12   0 -11 -0.3548  0.5600   1
  12   0  11 0.73005 1.14110   3
 -14   0 -11 -0.0239  0.3284   1
  14   0  11 0.74684 1.30731   3
 -16   0 -11 -1.7155  1.0987   1
  16   0  11 -0.4412  1.3722   3
  18   0  11 1.63976 1.51639   3
 -18   0 -11 -0.5781  1.2298   1
 -20   0 -11 -0.6394  1.3587   1
  20   0  11 -0.1526  1.5272   3
 -22   0 -11 -0.1397  1.4781   1
  22   0  11 -1.0834  1.6128   3
 -24   0 -11 -0.8674  1.4294   1
  24   0  11 -2.6842  1.5807   3
  26   0  11 -3.4915  1.5418   3
 -26   0 -11 -3.3655  1.3737   1
 -28   0 -11 -2.6571  1.3755   1
  28   0  11 -2.1260  1.6353   3
 -30   0 -11 -2.3164  1.4567   1
  30   0  11 -1.3866  1.7780   3
 -32   0 -11 -3.9436  1.5691   1
  32   0  11 -1.4381  1.8806   3
  34   0  11 2.43573 2.37165   3
 -34   0 -11 -0.5932  1.9294   1
 -36   0 -11 0.38065 1.84482   1
  36   0  11 2.75229 2.31551   3
  38   0  11 2.69973 2.41820   3
 -38   0 -11 0.30429 2.18011   1
  43  -1 -11 14.7259  3.0188   2
  43   1 -11 12.6366  2.7364   2
  41  -1 -11 6.00492 2.36990   2
  41   1 -11 2.45161 2.04884   2
  39  -1 -11 1.94525 1.98110   2
  39   1 -11 4.64645 2.06303   2
  37  -1 -11 -0.3241  1.7896   2
  37   1 -11 -2.4925  1.5383   2
  35  -1 -11 -0.2278  1.6290   2
  35   1 -11 -0.9928  1.6765   2
  33  -1 -11 -2.2476  1.4351   2
  33   1 -11 -2.0261  1.4286   2
  31  -1 -11 0.48977 1.55928   2
  31   1 -11 0.61889 1.49735   2
  29  -1 -11 10.2809  2.0603   2
 -29   1  11 4.71354 1.81650   1
  29   1 -11 8.91815 1.87427   2
  27  -1 -11 3.38218 1.83273   2
 -27   1  11 3.76975 1.91330   1
  27   1 -11 6.45710 1.65535   2
  25  -1 -11 54.2743  3.3688   2
  25   1 -11 51.8937  3.1191   2
 -25   1  11 47.7879  3.3361   1
  23  -1 -11 0.05506 1.34640   2
 -23   1  11 -0.5484  1.4780   1
  23   1 -11 3.11835 1.32770   2
 -21  -1  11 98.7518  4.0378   1
  21  -1 -11 91.2500  4.3352   2
  21   1 -11 92.9154  4.1042   3
 -21   1  11 94.8841  4.4393   1
  21   1 -11 93.7004  4.3081   2
  19  -1 -11 3.23189 1.28649   1
 -19  -1  11 -2.0626  0.9707   1
  19  -1 -11 3.49929 1.16115   2
  19   1 -11 0.79158 0.56054   2
  19   1 -11 3.08851 1.20743   3
  17  -1 -11 44.3991  2.5522   2
  17  -1 -11 35.9066  2.4417   1
  17   1 -11 39.6639  2.1935   1
  15  -1 -11 0.48155 1.01322   1
  15  -1 -11 1.26077 0.87361   2
  15   1 -11 0.55019 0.85948   1
  13  -1 -11 13.8238  1.5467   2
  13  -1 -11 10.4656  1.4814   1
  13   1 -11 13.3621  1.5320   2
  13   1 -11 10.9514  1.2344   1
  11  -1 -11 29.2751  1.9158   2
  11  -1 -11 21.3852  1.8577   1
 -11  -1  11 22.2541  1.6169   3
  11   1 -11 23.2953  1.6000   1
  11   1 -11 22.1692  1.8255   2
  -9  -1  11 3.49929 0.97742   3
   9  -1 -11 6.17787 1.00299   2
   9  -1 -11 3.22232 1.05636   1
   9   1 -11 3.81454 0.92052   1
  -9   1  11 4.64734 0.72481   3
   9   1 -11 4.41214 1.04895   2
   7  -1 -11 14.6630  1.3957   2
  -7  -1  11 11.8365  1.3147   3
   7  -1 -11 11.2285  1.4302   1
   7   1 -11 13.8382  1.5030   2
  -7   1  11 14.1775  1.1042   3
   7   1 -11 13.1570  1.2751   1
   5  -1 -11 296.497   9.872   1
  -5  -1  11 289.062   9.791   3
   5  -1 -11 291.584   9.919   2
   5   1 -11 297.959  10.148   2
  -5   1  11 284.945   9.479   3
   5   1 -11 293.908   9.621   1
   3  -1 -11 9.50944 1.09161   2
   3  -1 -11 8.08119 1.31645   1
  -3  -1  11 8.32188 1.17690   3
  -3   1  11 8.29533 0.95891   3
   3   1 -11 10.0247  1.2967   2
   3   1 -11 8.55585 1.12207   1
   1  -1 -11 333.078  11.225   2
   1  -1 -11 339.405  11.274   1
  -1  -1  11 341.855  11.277   3
   1   1 -11 345.314  11.574   2
   1   1 -11 341.566  11.101   1
  -1   1  11 331.123  10.991   3
  -1  -1 -11 225.375   7.784   1
   1  -1  11 226.598   7.706   3
  -1   1 -11 219.426   7.872   2
   1   1  11 211.105   7.461   3
  -1   1 -11 224.611   7.627   1
  -3  -1 -11 2.63721 0.64794   2
  -3  -1 -11 1.62796 0.90542   1
   3  -1  11 1.89555 0.89045   3
   3   1  11 4.05641 0.92961   3
  -3   1 -11 3.16939 0.94593   2
  -3   1 -11 1.10226 0.85796   1
  -5  -1 -11 20.6896  1.2843   2
  -5  -1 -11 19.9154  1.7541   1
   5  -1  11 22.0098  1.6787   3
   5   1  11 18.1751  1.5621   3
  -5   1 -11 20.7023  1.6488   1
  -5   1 -11 21.3591  1.6950   2
   7  -1  11 10.8661  1.3668   3
  -7  -1 -11 10.0374  0.9754   2
  -7  -1 -11 8.33713 1.38253   1
   7   1  11 12.6924  1.3971   3
  -7   1 -11 10.4853  1.2734   2
  -7   1 -11 11.2543  1.3890   1
   9  -1  11 13.6160  1.5908   3
  -9  -1 -11 12.8118  1.0399   2
   9   1  11 17.4417  1.6747   3
  -9   1 -11 13.3941  1.5474   1
  -9   1 -11 15.6511  1.5588   2
  11  -1  11 9.97923 1.57847   3
  11   1  11 13.3355  1.6109   3
 -11   1 -11 9.91051 1.40137   2
 -11   1 -11 11.4802  1.5440   1
  13  -1  11 43.5987  2.8503   3
  13   1  11 51.6452  2.8292   3
 -13   1 -11 46.0561  2.6613   2
 -13   1 -11 47.6322  2.8033   1
  15  -1  11 11.3593  1.8193   3
 -15  -1 -11 7.45704 1.63073   1
  15   1  11 11.7650  1.7750   3
 -15   1 -11 12.7998  1.8069   1
 -15   1 -11 9.82977 1.56806   2
 -17  -1 -11 19.6411  2.2073   1
  17  -1  11 19.4900  2.2416   3
  17   1  11 17.2304  2.1134   3
 -17   1 -11 16.1021  2.1249   1
  19  -1  11 5.15192 1.66373   3
 -19  -1 -11 4.15735 1.46808   1
 -19   1 -11 2.32718 1.52948   1
  19   1  11 2.14256 1.57834   3
 -21  -1 -11 26.6233  2.5567   1
  21  -1  11 28.6057  2.8138   3
 -21   1 -11 23.8657  2.6729   1
  21   1  11 27.7511  2.7807   3
 -23  -1 -11 1.69511 1.66733   1
  23  -1  11 1.27907 1.79906   3
  23   1  11 0.18434 1.72293   3
 -23   1 -11 2.63100 1.71637   1
  25  -1  11 4.28806 1.85849   3
 -25  -1 -11 2.34642 1.68330   1
  25   1  11 2.11437 1.88591   3
 -25   1 -11 2.58299 1.69168   1
  27  -1  11 1.97131 1.80840   3
 -27  -1 -11 0.02150 1.67452   1
 -27   1 -11 1.85423 1.76687   1
  27   1  11 -2.0903  1.6865   3
  29  -1  11 -0.3683  1.7834   3
 -29  -1 -11 -3.0020  1.5833   1
  29   1  11 -3.5158  1.5821   3
 -29   1 -11 -2.5752  1.4966   1
  31  -1  11 -1.0343  1.8654   3
 -31  -1 -11 0.15535 1.65522   1
 -31   1 -11 -0.7092  1.6701   1
  31   1  11 -1.2085  1.8523   3
  33  -1  11 0.23190 1.96570   3
 -33  -1 -11 -0.8130  1.8762   1
 -33   1 -11 -0.8390  1.7417   1
  33   1  11 -1.2428  1.9933   3
  35  -1  11 1.76743 2.24191   3
 -35  -1 -11 0.01592 1.88005   1
 -35   1 -11 -0.2403  1.9918   1
  35   1  11 2.30113 2.31237   3
  37  -1  11 5.51128 2.46705   3
 -37  -1 -11 4.93993 2.29403   1
  37   1  11 1.65264 2.52054   3
 -37   1 -11 3.28275 2.34092   1
 -39  -1 -11 4.51100 2.40714   1
  44   2 -11 2.46575 2.22443   2
  42  -2 -11 10.8001  2.7328   2
  42   2 -11 11.5178  2.4933   2
  40  -2 -11 1.64197 2.05103   2
  40   2 -11 -0.0302  1.8178   2
  38  -2 -11 6.11583 2.13316   2
  38   2 -11 6.83029 2.17033   2
  36  -2 -11 1.21221 1.82061   2
  36   2 -11 0.16102 1.59236   2
  34  -2 -11 1.02542 1.57737   2
  34   2 -11 -0.1369  1.6012   2
 -34   2  11 -1.7739  1.6610   1
  32  -2 -11 1.72575 1.75895   2
 -32   2  11 -0.2910  1.6749   1
  32   2 -11 0.65549 1.61423   2
  30  -2 -11 1.08269 1.45965   2
 -30   2  11 1.61708 1.63054   1
  30   2 -11 2.55424 1.60876   2
  28  -2 -11 31.5690  2.9652   2
  28   2 -11 32.2677  2.5787   2
 -28   2  11 36.1927  3.0610   1
  26  -2 -11 63.7203  3.8733   2
 -26   2  11 68.8384  3.9830   1
  26   2 -11 62.0447  3.5266   2
  24  -2 -11 133.294   5.894   2
 -24   2  11 138.266   6.015   1
  24   2 -11 132.583   5.672   2
  24   2 -11 133.721   5.670   3
  22  -2 -11 36.1047  2.7067   2
  22   2 -11 37.5229  2.5597   2
  22   2 -11 40.0006  2.7398   3
 -22   2  11 41.4848  2.9927   1
  20  -2 -11 93.3178  4.4328   2
  20   2 -11 88.5821  4.2563   2
  18  -2 -11 86.6480  3.9290   2
  18  -2 -11 76.3834  3.7962   1
  18   2 -11 64.0908  3.4857   2
  16  -2 -11 2.42716 1.15732   2
  16  -2 -11 -0.3943  1.3132   1
  16   2 -11 -0.3116  0.2368   2
  14  -2 -11 -1.0101  1.2368   1
  14  -2 -11 3.37448 1.11066   2
  14   2 -11 2.58747 0.82015   1
  12  -2 -11 6.48678 1.19896   2
  12  -2 -11 4.68568 1.33170   1
  12   2 -11 6.76476 1.26568   2
  12   2 -11 6.33938 0.91189   1
 -10  -2  11 29.2403  2.0582   3
  10  -2 -11 33.5293  2.1016   2
  10  -2 -11 30.7144  2.2798   1
  10   2 -11 30.2908  1.6466   1
  10   2 -11 31.8821  2.1311   2
  -8  -2  11 202.739   7.142   3
   8  -2 -11 200.820   7.249   1
   8  -2 -11 193.709   7.171   2
   8   2 -11 192.817   6.635   1
  -8   2  11 198.733   6.397   3
   8   2 -11 205.518   7.455   2
  -6  -2  11 80.6224  3.5690   3
   6  -2 -11 86.3363  3.7270   1
   6  -2 -11 84.6965  3.5560   2
   6   2 -11 87.9753  3.9030   2
  -6   2  11 83.9887  2.9936   3
   6   2 -11 81.9803  3.2341   1
   4  -2 -11 445.445  14.390   1
  -4  -2  11 438.898  14.426   3
   4  -2 -11 441.066  14.392   2
   4   2 -11 420.969  13.869   1
   4   2 -11 446.398  14.830   2
  -4   2  11 426.756  13.818   3
   2  -2 -11 21.9315  1.5088   2
  -2  -2  11 25.4373  1.8956   3
   2  -2 -11 28.6606  2.1292   1
  -2   2  11 24.0528  1.4265   3
   2   2 -11 25.5861  1.6300   1
   2   2 -11 20.9271  1.8086   2
   0  -2  11 310.385  10.708   3
   0  -2 -11 319.118  10.701   1
   0   2  11 311.440  10.290   3
   0   2 -11 322.732  11.052   2
   0   2 -11 314.341  10.366   1
   2  -2  11 54.4931  2.6298   3
  -2  -2 -11 43.5113  2.0329   2
  -2  -2 -11 48.0988  2.6262   1
  -2   2 -11 41.4462  2.6001   2
  -2   2 -11 46.1227  2.3938   1
   2   2  11 47.2855  2.3281   3
  -4  -2 -11 134.274   5.162   1
   4  -2  11 128.739   5.105   3
  -4  -2 -11 131.339   4.532   2
   4   2  11 130.366   4.807   3
  -4   2 -11 129.954   4.935   1
  -4   2 -11 126.641   5.223   2
   6  -2  11 0.45743 0.94166   3
  -6  -2 -11 0.12089 0.24934   1
  -6  -2 -11 0.46322 0.39483   2
  -6   2 -11 0.04095 0.87000   1
   6   2  11 0.84605 0.91626   3
  -6   2 -11 1.44994 0.89741   2
  -8  -2 -11 0.31497 0.35338   1
   8  -2  11 1.78186 1.05952   3
  -8   2 -11 1.17719 0.90050   2
  -8   2 -11 1.00168 0.93292   1
   8   2  11 2.13721 1.01061   3
  10  -2  11 81.9908  3.8697   3
 -10   2 -11 87.2600  3.9123   2
  10   2  11 83.7158  3.6732   3
 -10   2 -11 87.1579  3.8071   1
 -12  -2 -11 11.5652  1.6851   1
  12  -2  11 12.1778  1.7016   3
 -12   2 -11 11.1196  1.5962   1
  12   2  11 9.66841 1.51553   3
 -12   2 -11 9.80718 1.53392   2
  14  -2  11 34.1030  2.5954   3
 -14  -2 -11 40.9912  2.8881   1
  14   2  11 45.3051  2.6547   3
 -14   2 -11 43.5759  2.6904   1
 -14   2 -11 45.2144  2.7314   2
 -16  -2 -11 79.8199  4.0078   1
  16  -2  11 75.7068  3.9418   3
 -16   2 -11 77.3764  3.9347   2
  16   2  11 84.6450  3.9120   3
 -16   2 -11 79.2874  3.9604   1
  18  -2  11 5.06583 1.60697   3
 -18  -2 -11 5.31722 1.51767   1
 -18   2 -11 3.30043 1.44612   2
 -18   2 -11 5.10449 1.72549   1
  18   2  11 2.68550 1.61857   3
 -20  -2 -11 88.8104  4.4901   1
  20  -2  11 88.5891  4.4938   3
 -20   2 -11 88.0638  4.5463   1
  20   2  11 87.4999  4.4238   3
 -22  -2 -11 11.8358  2.1551   1
  22  -2  11 10.6156  2.1499   3
 -22   2 -11 11.2823  2.2254   1
  22   2  11 8.75941 2.15159   3
  24  -2  11 44.4428  3.3980   3
 -24  -2 -11 49.6982  3.4344   1
 -24   2 -11 48.7431  3.4758   1
  24   2  11 46.0312  3.4478   3
 -26  -2 -11 10.1310  2.1569   1
  26  -2  11 9.94129 2.23943   3
  26   2  11 12.5208  2.3936   3
 -26   2 -11 9.12001 2.24001   1
  28  -2  11 1.46307 1.79225   3
 -28  -2 -11 2.10505 1.70771   1
 -28   2 -11 5.49286 1.93111   1
  28   2  11 1.80711 1.94614   3
  30  -2  11 2.03907 1.90680   3
 -30  -2 -11 1.76489 1.89519   1
 -30   2 -11 1.19004 1.94576   1
  30   2  11 3.53118 2.08483   3
  32  -2  11 0.07994 1.82273   3
 -32  -2 -11 -0.8028  1.6012   1
  32   2  11 -1.2145  2.0003   3
 -32   2 -11 -1.9666  1.5807   1
 -34  -2 -11 0.07085 1.91472   1
  34  -2  11 4.40581 2.33448   3
 -34   2 -11 -0.6136  1.8449   1
  34   2  11 4.21404 2.35658   3
 -36  -2 -11 3.83523 2.15099   1
  36  -2  11 3.04290 2.35729   3
 -36   2 -11 3.14128 2.15103   1
  36   2  11 -0.5286  2.2529   3
  38  -2  11 9.33629 2.66830   3
 -38  -2 -11 6.88564 2.53298   1
 -38   2 -11 5.90555 2.50316   1
  43   3 -11 1.31267 2.02410   2
  41  -3 -11 12.4786  2.9352   2
  41   3 -11 12.6623  2.6317   2
  39  -3 -11 -0.3057  2.0373   2
  39   3 -11 0.23129 1.73774   2
  37  -3 -11 12.1813  2.6001   2
  37   3 -11 11.2660  2.3601   2
 -37   3  11 11.4540  2.5171   1
  35  -3 -11 0.37913 1.70778   2
  35   3 -11 -1.6214  1.6165   2
 -35   3  11 -1.5666  1.7758   1
  33  -3 -11 11.0236  2.3485   2
  33   3 -11 10.4596  2.2292   2
 -33   3  11 11.0372  2.5023   1
  31  -3 -11 0.74336 1.60108   2
 -31   3  11 2.43852 1.90708   1
  31   3 -11 -0.2411  1.4363   2
  29  -3 -11 37.7200  3.1381   2
  29   3 -11 29.1770  2.6080   2
 -29   3  11 31.0984  3.2276   1
  27  -3 -11 2.53567 1.67195   2
  27   3 -11 3.83494 1.64187   3
 -27   3  11 2.47458 1.72957   1
  27   3 -11 2.12274 1.51411   2
  25  -3 -11 98.3617  5.0076   2
 -25   3  11 103.154   5.179   1
  25   3 -11 97.8161  4.7516   2
  25   3 -11 105.176   4.986   3
  23  -3 -11 1.29144 1.42834   2
  23   3 -11 2.57072 1.59477   3
  23   3 -11 0.69623 1.16959   2
 -23   3  11 0.59748 1.55263   1
  21  -3 -11 125.183   5.739   2
  21   3 -11 139.708   5.724   2
  19  -3 -11 62.1388  3.7480   1
  19  -3 -11 57.5997  3.3940   2
  19   3 -11 66.1705  3.4814   2
  17  -3 -11 163.519   6.557   1
  17  -3 -11 155.744   6.511   2
  17   3 -11 170.381   6.603   2
  15  -3 -11 20.1295  2.3355   1
  15  -3 -11 26.9544  2.2507   2
  13  -3 -11 236.967   8.673   2
  13  -3 -11 236.242   8.686   1
  11  -3 -11 90.1554  4.0417   2
  11  -3 -11 91.3977  4.1641   1
  11   3 -11 90.6987  3.2105   1
   9  -3 -11 180.494   6.566   2
  -9  -3  11 176.514   6.634   3
   9  -3 -11 177.511   6.677   1
   9   3 -11 175.043   5.777   1
   9   3 -11 162.483   6.727   2
  -7  -3  11 98.2719  4.3383   3
   7  -3 -11 98.0896  4.1304   2
   7  -3 -11 98.8521  4.3922   1
   7   3 -11 101.213   4.503   2
  -7   3  11 104.778   3.352   3
   7   3 -11 97.4541  3.6067   1
  -5  -3  11 506.604  16.685   3
   5  -3 -11 513.012  16.579   1
   5  -3 -11 498.332  16.553   2
   5   3 -11 518.188  17.106   2
  -5   3  11 498.997  15.819   3
   5   3 -11 490.958  15.837   1
   3  -3 -11 50.9055  2.4258   2
   3  -3 -11 52.8386  2.9601   1
  -3  -3  11 46.8787  2.7762   3
  -3   3  11 47.1212  2.0957   3
   3   3 -11 44.3074  2.8065   2
   3   3 -11 49.7859  2.2808   1
   1  -3 -11 271.248  10.425   2
  -1  -3  11 329.041  10.965   3
   1  -3 -11 337.164  10.941   1
   1   3 -11 324.492  10.327   1
   1   3 -11 320.943  11.237   2
  -1   3  11 316.203  10.228   3
   1  -3  11 139.745   5.525   3
  -1  -3 -11 129.894   4.862   2
  -1   3 -11 135.463   5.064   1
  -1   3 -11 145.642   5.789   2
   1   3  11 140.614   4.950   3
   3  -3  11 25.7853  2.1849   3
  -3  -3 -11 19.8474  1.2563   2
   3   3  11 17.8805  1.5937   3
  -3   3 -11 18.8772  2.0604   2
  -3   3 -11 17.3325  1.6987   1
   5  -3  11 198.590   7.301   3
  -5   3 -11 190.838   6.928   1
   5   3  11 187.236   6.827   3
  -5   3 -11 206.218   7.586   2
  -7  -3 -11 1.12029 1.04787   1
   7  -3  11 0.80858 1.10484   3
  -7   3 -11 2.76279 1.10447   2
  -7   3 -11 0.31254 0.90739   1
   7   3  11 2.24874 1.04397   3
  -9  -3 -11 8.60860 1.53238   1
   9  -3  11 3.47255 1.14237   3
  -9   3 -11 8.10816 1.40518   1
  -9   3 -11 7.79018 1.46867   2
   9   3  11 8.57475 1.32492   3
 -11  -3 -11 8.18434 1.55297   1
 -11   3 -11 7.24649 1.56207   2
 -11   3 -11 8.82481 1.51756   1
  11   3  11 8.86953 1.42645   3
  13  -3  11 27.1855  2.3572   3
 -13  -3 -11 30.9306  2.4446   1
 -13   3 -11 37.1309  2.6944   2
 -13   3 -11 28.5629  2.2921   1
  13   3  11 30.5104  2.2793   3
  15  -3  11 26.4512  2.4489   3
 -15  -3 -11 29.6987  2.5154   1
 -15   3 -11 28.8244  2.3166   1
  15   3  11 28.5731  2.2870   3
 -15   3 -11 26.6175  2.4360   2
 -17  -3 -11 81.2529  4.2704   1
  17  -3  11 79.4990  4.2737   3
  17   3  11 92.7014  4.2167   3
 -17   3 -11 83.0452  4.3574   2
 -17   3 -11 93.3658  4.4236   1
  19  -3  11 12.4123  2.1582   3
 -19  -3 -11 15.7061  2.3287   1
 -19   3 -11 15.4358  2.2438   2
  19   3  11 13.7139  2.1033   3
 -19   3 -11 11.9416  2.0590   1
  21  -3  11 69.4303  4.1325   3
 -21  -3 -11 67.8831  4.0858   1
 -21   3 -11 71.5125  4.1125   1
  21   3  11 71.3860  4.0011   3
  23  -3  11 23.9026  2.8742   3
 -23  -3 -11 19.9952  2.7349   1
  23   3  11 19.2581  2.5994   3
 -23   3 -11 19.6134  2.6039   1
  25  -3  11 83.7981  4.6863   3
 -25  -3 -11 70.3450  4.3114   1
  25   3  11 76.7678  4.3197   3
 -25   3 -11 71.3124  4.3149   1
  27  -3  11 0.07150 1.65093   3
 -27  -3 -11 0.29114 1.62950   1
  27   3  11 -1.1810  1.8043   3
 -27   3 -11 1.11380 1.71574   1
  29  -3  11 24.1170  3.0897   3
 -29  -3 -11 22.8870  2.9236   1
 -29   3 -11 23.5613  2.9964   1
  29   3  11 23.1226  3.0061   3
 -31  -3 -11 0.45575 1.68841   1
  31  -3  11 -0.7630  1.6987   3
  31   3  11 -1.1383  1.9610   3
 -31   3 -11 -0.4655  1.7219   1
  33  -3  11 5.74808 2.32593   3
 -33  -3 -11 6.65968 2.19332   1
  33   3  11 2.42244 2.24329   3
 -33   3 -11 6.18311 2.37874   1
  35  -3  11 3.12648 2.17441   3
 -35  -3 -11 0.61053 1.81006   1
  35   3  11 -0.1013  2.2260   3
 -35   3 -11 0.90073 1.97649   1
  37  -3  11 12.8700  2.8646   3
 -37  -3 -11 5.40711 2.31943   1
 -37   3 -11 4.45375 2.38479   1
 -39  -3 -11 2.28735 2.30778   1
  40  -4 -11 17.2722  3.2386   2
 -40   4  11 17.4753  3.1031   1
  40   4 -11 15.7444  2.6404   2
  38  -4 -11 17.3650  3.2533   2
  38   4 -11 12.7967  2.4696   2
 -38   4  11 16.9727  2.9314   1
  36  -4 -11 17.1097  3.0864   2
  36   4 -11 17.6409  2.6360   2
 -36   4  11 17.7496  2.8912   1
  34  -4 -11 27.3584  3.3740   2
  34   4 -11 24.9231  2.8379   2
 -34   4  11 23.3605  3.3029   1
  32  -4 -11 5.51847 2.17188   2
 -32   4  11 1.43605 1.94209   1
  32   4 -11 3.02548 1.83882   2
  30  -4 -11 53.2803  3.9837   2
  30   4 -11 52.2725  3.4787   2
  30   4 -11 51.3183  3.9154   3
 -30   4  11 51.8785  4.0260   1
  28  -4 -11 25.1703  2.9469   2
  28   4 -11 24.1085  2.6355   2
 -28   4  11 24.4435  3.1861   1
  28   4 -11 21.1334  2.8996   3
  26  -4 -11 169.861   7.525   2
  26   4 -11 172.787   7.133   2
  26   4 -11 170.510   7.547   3
 -26   4  11 175.837   7.720   1
  24  -4 -11 76.7489  4.4228   2
 -24   4  11 69.8257  4.4365   1
  24   4 -11 77.7154  4.1204   2
  24   4 -11 76.2064  4.6046   3
  22  -4 -11 110.406   5.413   2
 -22   4  11 107.916   5.580   1
  22   4 -11 111.689   5.123   2
  20  -4 -11 56.2967  3.5892   1
  20  -4 -11 54.4402  3.4638   2
  20   4 -11 51.6269  3.2590   2
  18  -4 -11 7.97564 1.58460   2
  18  -4 -11 6.35628 1.79853   1
  18   4 -11 7.78593 1.60873   2
  16  -4 -11 186.173   7.268   2
  16  -4 -11 174.041   7.166   1
  16   4 -11 183.138   7.250   2
  14  -4 -11 11.7263  1.7226   2
  14  -4 -11 7.77457 1.78417   1
  14   4 -11 9.65781 1.57139   2
  12  -4 -11 51.9589  3.1867   1
  12  -4 -11 48.9860  2.9068   2
  10  -4 -11 108.570   4.627   2
 -10  -4  11 106.830   4.736   3
  10  -4 -11 109.701   4.855   1
   8  -4 -11 64.9684  3.1584   2
  -8  -4  11 58.4457  3.3056   3
   8  -4 -11 69.8091  3.4770   1
  -6  -4  11 1.27488 1.14256   3
   6  -4 -11 2.16892 0.89595   2
   6  -4 -11 0.58169 0.73121   1
   6   4 -11 1.68100 1.10769   2
   6   4 -11 1.77413 0.63539   1
   4  -4 -11 218.167   7.640   2
  -4  -4  11 215.429   7.993   3
   4   4 -11 213.068   7.104   1
   4   4 -11 213.557   8.273   2
  -4   4  11 212.218   7.033   3
   2  -4 -11 95.8268  3.8029   2
  -2  -4  11 95.0639  4.3816   3
  -2   4  11 91.8875  3.4978   3
   2   4 -11 94.9647  4.4936   2
   2   4 -11 93.6232  3.6067   1
   0  -4  11 519.678  17.252   3
   0   4 -11 509.415  16.353   1
   0   4  11 505.736  16.433   3
   0   4 -11 523.374  17.655   2
   2  -4  11 71.9739  3.7707   3
  -2  -4 -11 71.0583  2.9349   2
   2   4  11 78.5099  3.2103   3
  -2   4 -11 69.9469  3.2226   1
  -2   4 -11 74.6259  4.0014   2
  -4  -4 -11 587.366  19.713   1
   4  -4  11 603.796  20.028   3
   4   4  11 606.982  19.422   3
  -4   4 -11 617.977  20.496   2
  -4   4 -11 603.086  19.273   1
  -6  -4 -11 5.25448 1.46720   1
   6  -4  11 3.60523 1.22877   3
  -6   4 -11 5.31459 1.54769   2
  -6   4 -11 3.36618 1.17660   1
   6   4  11 4.53878 1.13166   3
  -8  -4 -11 96.9413  4.4911   1
  -8   4 -11 97.3058  4.1697   1
   8   4  11 100.743   4.194   3
  -8   4 -11 102.363   4.851   2
 -10  -4 -11 85.5936  4.1943   1
  10  -4  11 79.1733  4.0917   3
 -10   4 -11 95.5152  4.5604   2
 -10   4 -11 90.9741  4.0043   1
  10   4  11 81.4908  3.7998   3
 -12  -4 -11 45.7980  3.0720   1
  12  -4  11 43.9687  2.9941   3
 -12   4 -11 46.8890  3.2893   2
 -12   4 -11 46.1435  2.8640   1
  12   4  11 44.8754  2.6925   3
  14  -4  11 7.05528 1.73547   3
 -14  -4 -11 4.85716 1.58213   1
 -14   4 -11 5.72780 1.65548   2
 -14   4 -11 6.84532 1.57213   1
  14   4  11 6.10995 1.48297   3
  16  -4  11 102.680   5.025   3
 -16  -4 -11 102.983   4.936   1
 -16   4 -11 106.764   4.828   1
  16   4  11 106.362   4.792   3
 -16   4 -11 107.813   5.285   2
 -18  -4 -11 47.0024  3.3453   1
  18  -4  11 45.4207  3.3758   3
  18   4  11 52.5711  3.2975   3
 -18   4 -11 53.9893  3.4393   1
 -18   4 -11 44.1401  3.8024   2
  20  -4  11 81.2087  4.5622   3
 -20  -4 -11 74.6173  4.4003   1
 -20   4 -11 85.2403  4.4213   1
  20   4  11 86.6688  4.4800   3
 -22  -4 -11 24.6247  2.8168   1
  22  -4  11 26.2929  2.9692   3
  22   4  11 16.7703  2.5830   3
 -22   4 -11 18.5011  2.5364   1
 -24  -4 -11 15.9219  2.5087   1
  24  -4  11 25.4139  3.0328   3
  24   4  11 18.6140  2.7118   3
 -24   4 -11 15.8872  2.5099   1
  26  -4  11 20.2351  2.7846   3
 -26  -4 -11 19.0139  2.6603   1
 -26   4 -11 11.9998  2.3852   1
  26   4  11 16.4134  2.6197   3
  28  -4  11 15.6244  2.7022   3
 -28  -4 -11 14.1684  2.4895   1
 -28   4 -11 12.6195  2.5415   1
  28   4  11 11.5891  2.4874   3
  30  -4  11 7.53483 2.27941   3
 -30  -4 -11 6.86886 2.12476   1
 -30   4 -11 5.88547 2.15438   1
  30   4  11 5.86514 2.46440   3
 -32  -4 -11 3.77984 2.00413   1
  32  -4  11 3.03783 1.99240   3
 -32   4 -11 2.58950 2.12278   1
  32   4  11 4.75675 2.34705   3
  34  -4  11 6.85699 2.30641   3
 -34  -4 -11 8.82118 2.37203   1
  34   4  11 6.37669 2.68058   3
 -34   4 -11 5.37953 2.35810   1
 -36  -4 -11 2.49447 2.07584   1
  36  -4  11 3.44504 2.40719   3
 -41   5  11 19.1690  3.2633   1
  39  -5 -11 -0.5660  2.0993   2
 -39   5  11 0.29680 2.08273   1
  37  -5 -11 22.3651  3.4009   2
 -37   5  11 23.1015  3.3110   1
  37   5 -11 23.1545  2.9757   2
  35  -5 -11 0.94099 1.92210   2
  35   5 -11 -2.7988  1.5483   2
 -35   5  11 -4.1121  1.8803   1
  33  -5 -11 37.4562  4.0799   2
  33   5 -11 36.7091  3.1952   2
 -33   5  11 41.1881  3.8268   1
  33   5 -11 37.8853  3.7474   3
  31  -5 -11 13.9545  2.6462   2
 -31   5  11 9.03454 2.65037   1
  31   5 -11 9.88177 2.63775   3
  31   5 -11 10.2699  2.1655   2
  29  -5 -11 97.2317  5.7044   2
 -29   5  11 108.151   6.025   1
  29   5 -11 109.595   5.320   2
  29   5 -11 117.961   6.038   3
  27  -5 -11 12.5022  2.6035   2
  27   5 -11 15.3113  2.3028   2
  27   5 -11 12.1170  2.5521   3
 -27   5  11 13.4745  2.8009   1
  25  -5 -11 153.069   7.112   2
  25   5 -11 152.410   6.677   2
 -25   5  11 150.910   7.187   1
  25   5 -11 162.060   7.237   3
  23  -5 -11 1.04120 1.51636   2
  23   5 -11 0.30597 1.43588   2
 -23   5  11 0.49200 1.80409   1
  21  -5 -11 261.824  10.479   2
  21   5 -11 277.212  10.256   2
  19  -5 -11 83.4960  4.5008   2
  19  -5 -11 77.6641  4.4870   1
  19   5 -11 87.5119  4.4133   2
  17  -5 -11 119.072   5.631   2
  17  -5 -11 123.132   5.701   1
  17   5 -11 129.388   5.672   2
  15  -5 -11 136.978   5.967   2
  15  -5 -11 140.049   6.060   1
  15   5 -11 134.467   5.935   2
  13  -5 -11 60.5794  3.3646   2
  13  -5 -11 58.6149  3.5224   1
  13   5 -11 54.6534  3.3413   2
  11  -5 -11 5.54041 1.39546   2
  11  -5 -11 4.84626 1.56493   1
  11   5 -11 5.99205 1.50818   2
  -9  -5  11 211.758   7.986   3
   9  -5 -11 204.432   7.956   1
   9  -5 -11 211.994   7.828   2
   9   5 -11 198.133   8.109   2
   7  -5 -11 3.60744 1.09232   1
   7  -5 -11 10.6343  1.4564   2
  -7  -5  11 8.92569 1.75088   3
   7   5 -11 4.70057 1.24739   2
   5  -5 -11 383.427  12.259   2
  -5  -5  11 374.112  12.601   3
   5   5 -11 307.354  12.625   2
  -3  -5  11 81.0965  4.0350   3
   3  -5 -11 62.1135  3.7137   1
   3  -5 -11 81.1981  3.4431   2
   3   5 -11 68.8550  3.9619   2
  -3   5  11 76.6393  3.0106   3
   3   5 -11 77.2041  3.0155   1
   1  -5 -11 128.131   5.557   1
   1  -5 -11 131.004   5.045   2
  -1  -5  11 139.273   5.739   3
   1   5 -11 126.728   5.837   2
   1   5 -11 130.131   4.792   1
  -1   5  11 131.802   4.786   3
  -1  -5 -11 263.247   9.058   2
  -1  -5 -11 264.298   9.635   1
   1  -5  11 263.258   9.824   3
  -1   5 -11 274.592  10.201   2
   1   5  11 266.464   9.004   3
  -1   5 -11 260.004   8.928   1
  -3  -5 -11 136.092   5.689   1
   3  -5  11 136.299   5.822   3
  -3   5 -11 135.957   6.126   2
   3   5  11 128.778   5.051   3
  -3   5 -11 133.181   5.093   1
   5  -5  11 177.596   7.116   3
  -5  -5 -11 171.096   6.959   1
  -5   5 -11 184.017   7.493   2
   5   5  11 174.641   6.486   3
  -5   5 -11 175.757   6.439   1
  -7  -5 -11 30.4132  2.5333   1
   7  -5  11 32.6875  2.6674   3
  -7   5 -11 32.7054  2.2401   1
  -7   5 -11 35.0545  2.7488   2
   7   5  11 32.8303  2.2504   3
   9  -5  11 65.0220  3.7191   3
  -9  -5 -11 63.5507  3.6017   1
  -9   5 -11 67.1441  3.9129   2
  -9   5 -11 67.4901  3.3956   1
   9   5  11 64.3859  3.3181   3
 -11  -5 -11 38.8118  2.8150   1
  11  -5  11 41.6076  2.9774   3
  11   5  11 37.6065  2.5085   3
 -11   5 -11 38.7098  3.2220   2
 -11   5 -11 38.7431  2.6824   1
  13  -5  11 36.6289  2.9788   3
 -13  -5 -11 40.2655  3.0561   1
 -13   5 -11 36.6530  3.2246   2
 -13   5 -11 40.6621  2.8369   1
  13   5  11 38.9021  2.7306   3
  15  -5  11 47.9170  3.5171   3
 -15  -5 -11 43.9134  3.2393   1
  15   5  11 50.4401  3.0844   3
 -15   5 -11 50.7458  3.7125   2
 -15   5 -11 49.4449  3.1687   1
 -17  -5 -11 177.205   7.334   1
  17  -5  11 166.601   7.372   3
  17   5  11 174.004   7.040   3
 -17   5 -11 175.021   7.131   1
 -17   5 -11 179.673   7.878   2
  19  -5  11 -1.1292  1.8482   3
 -19  -5 -11 3.22284 1.94904   1
  19   5  11 0.30249 1.61312   3
 -19   5 -11 3.82476 1.86621   1
  21  -5  11 116.768   5.940   3
 -21  -5 -11 117.548   5.835   1
  21   5  11 132.671   5.874   3
 -21   5 -11 122.378   5.772   1
  23  -5  11 1.23015 1.87453   3
 -23  -5 -11 0.18921 1.74808   1
  23   5  11 0.63395 1.81174   3
 -23   5 -11 0.18011 1.71911   1
 -25  -5 -11 53.8250  3.8799   1
  25  -5  11 60.9157  4.1413   3
  25   5  11 54.0667  3.8195   3
 -25   5 -11 55.5012  3.9086   1
 -27  -5 -11 -1.1035  1.5367   1
  27  -5  11 3.95319 1.98779   3
 -27   5 -11 0.58660 1.82713   1
  27   5  11 -3.2782  1.8303   3
 -29  -5 -11 14.8331  2.6136   1
  29  -5  11 18.4690  2.8306   3
 -29   5 -11 10.5993  2.4165   1
  29   5  11 9.01365 2.60923   3
 -31  -5 -11 -1.2952  1.6983   1
  31  -5  11 0.20959 1.78419   3
 -31   5 -11 0.85900 2.05251   1
  31   5  11 -3.8178  1.9724   3
  33  -5  11 13.7076  2.7080   3
 -33   5 -11 8.81485 2.51436   1
  33   5  11 8.58324 2.69013   3
  35  -5  11 1.34410 2.07883   3
 -38   6  11 10.7969  2.9566   1
  36  -6 -11 6.98600 2.58592   2
  36   6 -11 5.81116 2.06583   2
 -36   6  11 5.88974 2.55652   1
  34  -6 -11 4.35178 2.37755   2
 -34   6  11 6.11324 2.42738   1
  34   6 -11 6.36635 2.50485   3
  34   6 -11 4.99586 1.89243   2
  32  -6 -11 13.3799  2.9350   2
  32   6 -11 17.9371  3.0658   3
  32   6 -11 15.8747  2.4728   2
 -32   6  11 13.4120  2.9199   1
  30  -6 -11 38.4300  3.8576   2
  30   6 -11 43.2647  3.3105   2
 -30   6  11 41.6070  4.0370   1
  30   6 -11 42.3158  3.9712   3
  28  -6 -11 39.2343  3.6009   2
  28   6 -11 40.2128  4.1211   3
 -28   6  11 37.4663  4.0686   1
  28   6 -11 37.2417  3.1314   2
  26  -6 -11 63.7340  4.5531   2
  26   6 -11 73.9960  4.9384   3
  26   6 -11 64.4547  3.8841   2
 -26   6  11 64.1174  4.5831   1
  24  -6 -11 74.2326  4.6574   2
  24   6 -11 63.9310  4.0293   2
  24   6 -11 73.3364  4.6957   3
 -24   6  11 73.7412  4.8996   1
  22  -6 -11 83.2135  4.7717   2
 -22   6  11 83.3428  5.1066   1
  22   6 -11 84.1685  4.4755   2
  20  -6 -11 129.026   6.175   2
  20   6 -11 132.583   5.993   2
  18  -6 -11 54.9798  3.6243   2
  18  -6 -11 46.7282  3.7764   1
  18   6 -11 48.2189  3.2966   2
  16  -6 -11 190.272   7.665   1
  16  -6 -11 167.017   7.320   2
  16   6 -11 174.295   7.390   2
  14  -6 -11 27.3852  2.9029   1
  14  -6 -11 24.7476  2.4258   2
  14   6 -11 27.4190  2.6522   2
  12  -6 -11 56.5256  3.3160   2
  12  -6 -11 52.0378  3.4663   1
  12   6 -11 54.7327  3.5379   2
  10  -6 -11 3.82710 1.30616   2
  10  -6 -11 5.99715 1.70405   1
  10   6 -11 6.30770 1.71131   2
   8  -6 -11 177.859   6.990   1
   8  -6 -11 163.676   6.567   2
  -8  -6  11 155.442   6.822   3
   8   6 -11 160.659   7.009   2
   6  -6 -11 49.2451  3.3013   1
  -6  -6  11 50.6245  3.3868   3
   6  -6 -11 52.8672  3.0171   2
   6   6 -11 47.0831  3.3267   2
  -4  -6  11 350.676  12.721   3
   4  -6 -11 362.242  12.290   2
   4  -6 -11 345.360  12.548   1
   4   6 -11 356.541  13.084   2
   2  -6 -11 1.31989 1.46170   1
   2  -6 -11 3.23346 1.14404   2
  -2  -6  11 4.84952 1.80879   3
   2   6 -11 2.86764 1.56774   2
   0  -6 -11 558.674  18.999   1
   0  -6  11 568.919  19.357   3
   0   6  11 579.605  18.405   3
   0   6 -11 565.935  19.798   2
  -2  -6 -11 2.55340 1.54503   1
   2  -6  11 0.90381 1.60469   3
   2   6  11 3.57537 1.18968   3
  -2   6 -11 3.20842 1.14133   1
  -2   6 -11 2.16858 1.55217   2
  -4  -6 -11 326.703  11.751   1
   4  -6  11 333.952  12.100   3
  -4   6 -11 335.860  12.552   2
  -4   6 -11 332.590  11.119   1
   4   6  11 322.966  11.267   3
  -6  -6 -11 22.1758  2.5054   1
   6  -6  11 24.9942  2.6922   3
  -6   6 -11 23.8593  2.9098   2
   6   6  11 26.4866  2.1457   3
  -6   6 -11 24.1197  2.1700   1
  -8  -6 -11 52.8740  3.4481   1
   8  -6  11 60.4080  3.6266   3
  -8   6 -11 53.2605  3.8658   2
  -8   6 -11 54.0968  3.0765   1
   8   6  11 50.6806  2.9694   3
 -10  -6 -11 18.0234  2.3770   1
  10  -6  11 22.8790  2.7593   3
 -10   6 -11 26.2674  3.0366   2
  10   6  11 20.4195  2.2131   3
 -10   6 -11 23.6011  2.2924   1
  12  -6  11 78.6221  4.4888   3
 -12  -6 -11 78.2018  4.3991   1
 -12   6 -11 78.9291  4.0254   1
 -12   6 -11 87.1518  4.9968   2
  12   6  11 87.1823  4.1656   3
 -14  -6 -11 -1.3564  1.4166   1
  14  -6  11 -2.1740  1.6122   3
  14   6  11 1.55688 1.48949   3
 -14   6 -11 0.15399 1.64903   2
 -14   6 -11 2.70791 1.60404   1
 -16  -6 -11 136.860   6.112   1
  16  -6  11 125.641   6.139   3
 -16   6 -11 131.184   5.867   1
 -16   6 -11 118.447   6.352   2
  16   6  11 129.920   5.729   3
  18  -6  11 14.9170  2.6186   3
 -18  -6 -11 13.9670  2.4179   1
 -18   6 -11 11.0283  2.7070   2
 -18   6 -11 14.3066  2.3438   1
  18   6  11 16.7403  2.3967   3
  20  -6  11 105.290   5.648   3
 -20  -6 -11 108.011   5.477   1
 -20   6 -11 112.975   5.544   1
 -20   6 -11 109.472   6.209   2
  20   6  11 112.081   5.455   3
  22  -6  11 35.4352  3.6420   3
 -22  -6 -11 30.5028  3.3358   1
 -22   6 -11 31.2083  3.3023   1
  22   6  11 32.1639  3.2661   3
 -24  -6 -11 47.3918  3.7900   1
  24  -6  11 41.6450  3.7102   3
 -24   6 -11 49.0074  3.8544   1
  24   6  11 48.1510  3.8005   3
  26  -6  11 17.2813  2.8831   3
 -26  -6 -11 17.4367  2.7336   1
 -26   6 -11 16.9526  2.8553   1
  26   6  11 19.9566  2.9518   3
  28  -6  11 15.1431  2.7699   3
 -28  -6 -11 11.3678  2.4744   1
 -28   6 -11 9.19882 2.65191   1
  28   6  11 5.00006 2.42810   3
  30  -6  11 13.3320  2.7645   3
  30   6  11 8.55560 2.65846   3
 -30   6 -11 11.2651  2.6877   1
  32  -6  11 6.50437 2.41684   3
 -32   6 -11 6.31616 2.53173   1
  32   6  11 -1.6065  2.4877   3
  34  -6  11 5.89142 2.56030   3
  37   7 -11 8.80981 2.85677   3
  35  -7 -11 -1.5350  2.0760   2
  35   7 -11 -0.3767  2.2009   3
 -35   7  11 -1.9483  2.0218   1
  33  -7 -11 9.14097 2.74358   2
 -33   7  11 12.0130  2.6604   1
  33   7 -11 6.68567 2.10962   2
  33   7 -11 3.82888 2.40534   3
  31  -7 -11 0.54988 1.87986   2
 -31   7  11 0.25474 2.02108   1
  31   7 -11 0.14897 2.13180   3
  31   7 -11 -3.1359  1.5290   2
  29  -7 -11 38.9629  4.1891   2
  29   7 -11 41.9984  4.3753   3
 -29   7  11 43.1279  3.9151   1
  29   7 -11 30.7573  3.0870   2
  27  -7 -11 -0.0378  1.8937   2
  27   7 -11 0.44832 1.62313   2
  27   7 -11 1.02636 2.15986   3
 -27   7  11 0.10438 2.19843   1
  25  -7 -11 113.969   6.219   2
 -25   7  11 124.319   6.659   1
  25   7 -11 113.731   6.391   3
  25   7 -11 113.836   5.692   2
  23  -7 -11 2.92447 1.86852   2
 -23   7  11 0.44096 2.08371   1
  23   7 -11 3.93847 1.78706   2
  21  -7 -11 172.494   7.803   2
 -21   7  11 176.134   8.074   1
  21   7 -11 168.030   7.367   2
  19  -7 -11 2.72970 1.68100   2
  19   7 -11 2.20070 1.50821   2
  17  -7 -11 96.9342  5.3483   1
  17  -7 -11 107.857   5.375   2
  17   7 -11 100.613   5.158   2
  15  -7 -11 1.64501 1.44927   2
  15  -7 -11 0.23972 1.81517   1
  15   7 -11 1.42170 1.39943   2
  13  -7 -11 54.5073  3.5260   2
  13  -7 -11 53.7683  3.7428   1
  13   7 -11 54.0910  3.7210   2
  11  -7 -11 15.6448  2.5851   1
  11  -7 -11 19.9019  2.3894   2
  11   7 -11 17.5132  2.5191   2
   9  -7 -11 86.9484  4.8101   1
   9  -7 -11 98.1105  4.6286   2
   9   7 -11 90.0713  4.9106   2
   7  -7 -11 105.565   5.410   1
   7  -7 -11 109.311   5.029   2
   7   7 -11 105.506   5.548   2
   5  -7 -11 209.924   7.884   2
  -5  -7  11 209.872   8.437   3
   5  -7 -11 199.331   8.246   1
   5   7 -11 195.039   8.494   2
   3  -7 -11 128.025   5.911   1
  -3  -7  11 126.672   6.063   3
   3   7 -11 128.992   6.195   2
  -1  -7  11 215.487   8.530   3
   1  -7 -11 196.415   8.171   1
   1   7 -11 209.439   8.821   2
  -1  -7 -11 22.3529  2.6252   1
   1  -7  11 19.6457  2.6163   3
  -1   7 -11 22.9397  2.8043   2
  -3  -7 -11 68.7520  4.0323   1
   3  -7  11 80.7976  4.3707   3
   3   7  11 71.6152  3.5255   3
  -3   7 -11 76.3754  4.6836   2
  -5  -7 -11 30.8543  2.7174   1
   5  -7  11 31.2686  2.8741   3
  -5   7 -11 29.5039  3.2030   2
  -5   7 -11 26.1370  2.2481   1
   5   7  11 34.4377  2.4721   3
   7  -7  11 3.53747 1.80981   3
  -7  -7 -11 6.61621 1.78488   1
  -7   7 -11 5.87879 2.06430   2
   7   7  11 5.58243 1.51689   3
  -7   7 -11 5.01571 1.43366   1
   9  -7  11 52.5947  3.7024   3
  -9  -7 -11 54.6894  3.5658   1
  -9   7 -11 57.0084  3.2454   1
   9   7  11 51.9056  3.2426   3
  -9   7 -11 52.0480  4.0597   2
  11  -7  11 -0.9535  1.6011   3
 -11  -7 -11 -0.7723  1.5711   1
 -11   7 -11 -0.5905  1.3810   1
 -11   7 -11 1.36959 1.80793   2
  11   7  11 -0.2625  1.3932   3
 -13  -7 -11 46.0346  3.4697   1
  13  -7  11 48.0851  3.6514   3
 -13   7 -11 48.1442  3.9571   2
 -13   7 -11 51.8335  3.3701   1
  13   7  11 49.5110  3.2465   3
  15  -7  11 23.2506  3.0790   3
 -15  -7 -11 23.6012  3.0199   1
  15   7  11 27.7993  2.8681   3
 -15   7 -11 22.4002  3.2306   2
 -15   7 -11 25.6991  2.8119   1
  17  -7  11 95.3726  5.4521   3
 -17  -7 -11 107.079   5.494   1
 -17   7 -11 102.796   5.213   1
 -17   7 -11 99.5373  6.1114   2
  17   7  11 103.344   5.098   3
 -19  -7 -11 12.9562  2.6206   1
  19  -7  11 12.2902  2.7219   3
 -19   7 -11 14.2196  2.4773   1
 -19   7 -11 13.3721  3.0472   2
  19   7  11 17.3891  2.6155   3
  21  -7  11 77.5178  4.8024   3
 -21  -7 -11 76.0454  4.6936   1
 -21   7 -11 64.3519  5.2071   2
 -21   7 -11 73.8949  4.5358   1
  21   7  11 72.9994  4.3961   3
  23  -7  11 5.62942 2.39417   3
 -23  -7 -11 5.60577 2.15377   1
  23   7  11 7.25952 2.20583   3
 -23   7 -11 7.44637 2.31195   1
  25  -7  11 40.8973  3.7025   3
 -25   7 -11 37.9525  3.6590   1
  25   7  11 36.0089  3.7254   3
  27  -7  11 2.57370 2.23867   3
 -27   7 -11 0.93995 2.15821   1
  27   7  11 -3.4877  2.0645   3
  29  -7  11 16.7316  3.1324   3
 -29   7 -11 13.3632  2.8413   1
  29   7  11 13.9404  2.9386   3
  31  -7  11 -0.3474  1.9148   3
  34   8 -11 3.35810 2.60676   3
  32  -8 -11 -2.4157  2.0379   2
 -32   8  11 -1.2892  2.0058   1
  32   8 -11 -2.2050  2.1457   3
  30  -8 -11 17.0036  3.2553   2
  30   8 -11 19.7847  3.5487   3
 -30   8  11 19.7336  3.4223   1
  30   8 -11 17.2919  2.6753   2
  28  -8 -11 15.4535  3.0111   2
  28   8 -11 18.8800  2.7176   2
 -28   8  11 21.5356  3.4601   1
  28   8 -11 12.0330  3.1182   3
  26  -8 -11 33.4140  3.9486   2
  26   8 -11 34.3106  4.1936   3
 -26   8  11 32.0056  4.1002   1
  26   8 -11 33.0611  3.2391   2
  24  -8 -11 53.9104  4.2174   2
  24   8 -11 59.4327  4.6703   3
 -24   8  11 55.0065  4.6524   1
  24   8 -11 53.3492  3.9200   2
  22  -8 -11 36.6867  3.6135   2
  22   8 -11 29.7647  2.9335   2
 -22   8  11 34.2506  4.0175   1
  20  -8 -11 50.2606  4.0273   2
  20   8 -11 56.9930  3.8952   2
 -20   8  11 52.4328  4.4499   1
  18  -8 -11 18.8385  2.8105   2
  18   8 -11 15.6302  2.5301   2
  16  -8 -11 52.8458  3.8151   2
  16  -8 -11 53.4532  4.0117   1
  16   8 -11 53.7787  3.8656   2
  14  -8 -11 1.50120 1.84259   1
  14  -8 -11 3.80679 1.73600   2
  14   8 -11 0.83051 1.49047   2
  12  -8 -11 33.5502  3.5086   1
  12  -8 -11 33.7998  2.9576   2
  12   8 -11 33.0116  3.1888   2
  10  -8 -11 19.8985  2.4995   2
  10  -8 -11 16.0778  2.7249   1
  10   8 -11 18.7163  2.7027   2
   8  -8 -11 111.958   5.797   1
   8  -8 -11 122.152   5.620   2
   8   8 -11 115.580   5.974   2
   6  -8 -11 15.9228  2.3090   2
   6  -8 -11 13.5475  2.5559   1
   6   8 -11 11.2544  2.3888   2
  -4  -8  11 209.297   8.695   3
   4  -8 -11 196.631   8.447   1
   4   8 -11 209.298   8.996   2
   2  -8 -11 21.1836  2.8472   1
  -2  -8  11 17.9235  2.7595   3
   2   8 -11 14.1315  2.5742   2
   0  -8  11 129.009   6.158   3
   0  -8 -11 115.284   5.753   1
   0   8 -11 124.005   6.428   2
  -2  -8 -11 1.66268 1.70062   1
   2  -8  11 2.00527 1.86617   3
  -2   8 -11 2.93826 2.00539   2
   4  -8  11 33.7506  3.1383   3
  -4  -8 -11 33.2813  3.0808   1
  -4   8 -11 34.2656  3.3341   2
   6  -8  11 11.4906  2.3871   3
  -6  -8 -11 16.6871  2.5493   1
   6   8  11 13.7639  2.0138   3
  -6   8 -11 15.8313  2.8773   2
  -8  -8 -11 18.7437  2.6042   1
   8  -8  11 21.1521  2.8635   3
   8   8  11 18.3808  2.3206   3
  -8   8 -11 19.8420  3.1261   2
 -10  -8 -11 0.88346 1.79517   1
  10  -8  11 -0.1819  1.7462   3
 -10   8 -11 0.03376 1.54449   1
  10   8  11 -0.6798  1.4350   3
 -10   8 -11 0.27950 1.72114   2
  12  -8  11 35.1733  3.7060   3
 -12  -8 -11 44.1917  3.5673   1
  12   8  11 42.4302  3.0747   3
 -12   8 -11 40.6858  4.3634   2
 -12   8 -11 38.9382  3.0881   1
  14  -8  11 2.78748 2.13007   3
 -14  -8 -11 4.86788 2.16652   1
 -14   8 -11 4.98735 1.95830   1
 -14   8 -11 3.70648 2.43124   2
 -16  -8 -11 89.0811  5.0815   1
  16  -8  11 85.4739  5.2677   3
  16   8  11 84.0813  4.6935   3
 -16   8 -11 85.6863  4.7524   1
 -16   8 -11 84.1590  5.8657   2
 -18  -8 -11 21.7565  3.0791   1
  18  -8  11 19.8441  3.1645   3
 -18   8 -11 13.7245  3.1748   2
 -18   8 -11 24.0533  2.9820   1
  18   8  11 20.2927  2.8749   3
 -20  -8 -11 48.3368  3.9068   1
  20  -8  11 48.0528  3.9538   3
  20   8  11 35.7975  3.3784   3
 -20   8 -11 42.6918  4.2808   2
 -20   8 -11 47.4725  3.6428   1
  22  -8  11 13.1360  2.7179   3
 -22   8 -11 13.8977  2.6321   1
  22   8  11 12.9884  2.6024   3
 -22   8 -11 9.90027 3.15670   2
  24  -8  11 9.56110 2.67127   3
  24   8  11 9.04180 2.52596   3
 -24   8 -11 12.1488  3.1964   2
 -24   8 -11 10.5772  2.5817   1
  26  -8  11 10.5858  2.7219   3
 -26   8 -11 4.01537 2.18503   1
 -26   8 -11 1.61466 2.66820   2
  26   8  11 7.53694 2.54661   3
  28  -8  11 4.87674 2.32921   3
 -28   8 -11 3.39504 2.41882   1
  28   8  11 0.09607 2.35662   3
 -28   8 -11 8.71288 3.17344   2
 -30   8 -11 4.81884 2.71581   2
  29  -9 -11 35.6961  4.3383   2
  29   9 -11 23.6944  4.0268   3
  27  -9 -11 1.42168 2.14529   2
  27   9 -11 3.73264 2.60743   3
 -27   9  11 0.83073 2.37637   1
  27   9 -11 1.72742 1.96653   2
  25  -9 -11 52.4512  4.5384   2
  25   9 -11 48.2646  4.6805   3
  25   9 -11 44.6782  3.7602   2
 -25   9  11 40.4028  4.7123   1
  23  -9 -11 5.93699 2.26241   2
  23   9 -11 7.14053 2.19641   2
 -23   9  11 1.06193 2.74317   1
  21  -9 -11 41.8154  3.8744   2
 -21   9  11 38.4396  4.2980   1
  21   9 -11 35.0835  3.4378   2
  19  -9 -11 14.8386  2.7799   2
  19   9 -11 17.7559  2.8091   2
 -19   9  11 15.9171  3.0845   1
  17  -9 -11 20.1307  2.9783   2
  17   9 -11 18.8189  2.7922   2
  15  -9 -11 10.9963  2.3771   2
  15   9 -11 12.8585  2.4519   2
  13  -9 -11 10.7301  2.5736   1
  13  -9 -11 14.5246  2.5665   2
  13   9 -11 18.4179  2.7631   2
  11  -9 -11 1.16730 1.64344   2
  11  -9 -11 -2.9993  1.7621   1
  11   9 -11 1.26360 1.81588   2
   9  -9 -11 40.1928  3.2546   2
   9  -9 -11 39.1222  3.6855   1
   9   9 -11 40.5741  3.7143   2
   7  -9 -11 5.28886 2.22782   1
   7   9 -11 6.32580 2.22123   2
   5  -9 -11 50.1953  3.8247   1
   5   9 -11 43.4385  3.7690   2
   3  -9 -11 55.9829  4.0343   1
   3   9 -11 53.4038  4.1998   2
   1  -9 -11 27.9678  3.2364   1
  -1  -9  11 30.4116  3.4888   3
   1   9 -11 27.9803  3.5172   2
  -1  -9 -11 71.7415  4.4356   1
   1  -9  11 73.7849  4.6878   3
  -1   9 -11 67.1295  4.8031   2
  -3  -9 -11 35.1306  3.2308   1
   3  -9  11 39.1607  3.7176   3
  -3   9 -11 35.8968  4.0779   2
  -5  -9 -11 45.1190  3.6459   1
   5  -9  11 42.2865  3.7108   3
  -5   9 -11 48.5075  4.2756   2
  -7  -9 -11 26.7587  3.1274   1
   7  -9  11 23.9740  3.1765   3
  -7   9 -11 14.7013  3.1785   2
   9  -9  11 12.4833  2.7301   3
  -9  -9 -11 12.6182  2.5011   1
  -9   9 -11 14.8484  2.9615   2
 -11  -9 -11 3.79840 2.04264   1
  11  -9  11 2.59508 2.12141   3
  11   9  11 3.50342 1.85907   3
 -11   9 -11 4.74429 2.37950   2
 -13  -9 -11 27.2865  3.3477   1
  13  -9  11 27.4585  3.4634   3
  13   9  11 25.6022  2.9399   3
 -13   9 -11 26.2776  3.8137   2
  15  -9  11 11.8186  2.7333   3
 -15  -9 -11 7.74456 2.47609   1
 -15   9 -11 7.00049 2.88091   2
  15   9  11 9.77299 2.22931   3
  17  -9  11 45.7152  4.1594   3
 -17   9 -11 40.9200  4.8643   2
  17   9  11 40.7591  3.6518   3
 -17   9 -11 49.7829  3.9247   1
  19  -9  11 6.02906 2.36116   3
  19   9  11 4.79077 2.29115   3
 -19   9 -11 2.55790 2.62772   2
 -19   9 -11 5.80915 2.24999   1
  21  -9  11 29.2267  3.7698   3
  21   9  11 24.7573  3.3033   3
 -21   9 -11 23.8909  4.1824   2
 -21   9 -11 25.5727  3.3180   1
  23  -9  11 1.67248 2.26369   3
  23   9  11 0.83173 2.16446   3
 -23   9 -11 1.14977 2.08398   1
 -23   9 -11 -2.3977  2.4366   2
  25  -9  11 11.4458  2.6968   3
 -25   9 -11 8.95922 2.62569   1
 -25   9 -11 6.41769 2.89807   2
  25   9  11 4.91726 2.40202   3
  24 -10 -11 2.44507 2.21611   2
 -24  10  11 3.28372 2.48467   1
  24  10 -11 5.43000 2.82839   3
  24  10 -11 5.30966 2.34039   2
  22 -10 -11 6.43568 2.34640   2
 -22  10  11 4.39123 2.56964   1
  22  10 -11 6.64233 2.28200   2
  20 -10 -11 17.9009  3.1768   2
 -20  10  11 15.6694  3.1703   1
  20  10 -11 15.2050  2.7165   2
  18 -10 -11 0.52040 1.90811   2
  18  10 -11 0.70212 1.95033   2
 -18  10  11 -1.9180  2.0266   1
  16 -10 -11 30.5102  3.6995   2
  16  10 -11 36.2014  3.5771   2
 -16  10  11 31.0072  3.9616   1
  14 -10 -11 3.16328 1.90844   2
  14  10 -11 4.15356 2.04772   2
  12 -10 -11 21.2584  3.3489   1
  12  10 -11 19.2829  3.0344   2
  10 -10 -11 11.9786  2.7533   1
  10  10 -11 14.9290  2.8824   2
   8 -10 -11 15.7630  2.8292   1
   8  10 -11 14.1445  2.8087   2
   6 -10 -11 10.1218  2.4584   1
   6  10 -11 8.25546 2.53449   2
   4 -10 -11 17.8736  2.9605   1
   4  10 -11 18.9597  3.2138   2
   2 -10 -11 1.85641 1.85367   1
   2  10 -11 -0.0862  1.9859   2
   0 -10 -11 25.4547  3.3124   1
   0  10 -11 26.7542  3.6035   2
  -2 -10 -11 12.8513  2.5312   1
   2 -10  11 8.41206 2.60700   3
  -2  10 -11 8.02498 2.74026   2
   4 -10  11 35.1084  3.9812   3
  -4 -10 -11 26.9758  3.4449   1
  -4  10 -11 37.4123  4.3711   2
   6 -10  11 2.65112 2.30123   3
  -6 -10 -11 3.36314 2.21926   1
  -6  10 -11 1.76541 2.15759   2
   8 -10  11 23.1984  3.5024   3
  -8 -10 -11 25.0319  3.2624   1
  -8  10 -11 29.4605  4.0360   2
  10 -10  11 1.46473 2.20400   3
 -10 -10 -11 2.53793 2.01997   1
 -10  10 -11 -0.0882  2.2691   2
  12 -10  11 17.0643  3.1339   3
 -12  10 -11 21.1602  3.8253   2
  14 -10  11 1.98994 2.15659   3
 -14  10 -11 4.89079 2.56202   2
  16 -10  11 14.6804  3.0843   3
 -16  10 -11 14.9283  3.5193   2
  16  10  11 13.5112  2.6383   3
  18 -10  11 6.52751 2.60419   3
 -18  10 -11 7.49364 3.19217   2
  18  10  11 7.54938 2.43094   3
  20 -10  11 11.5018  2.8885   3
 -20  10 -11 8.97083 3.35736   2
  21 -11 -11 7.21537 2.83862   2
  21  11 -11 5.22298 2.50853   2
  19 -11 -11 1.62774 2.24965   2
  19  11 -11 3.54325 2.31986   2
  17 -11 -11 15.9806  3.2547   2
 -17  11  11 6.31475 2.70264   1
  17  11 -11 5.30517 2.41204   2
  15  11 -11 0.98426 2.21529   2
 -15  11  11 3.60708 2.64691   1
  13  11 -11 9.71742 2.61791   2
 -13  11  11 6.73004 2.80150   1
  11  11 -11 4.55426 2.31278   2
   9 -11 -11 5.38667 2.57577   1
   9  11 -11 6.33918 2.36597   2
   7 -11 -11 0.92760 2.04470   1
   7  11 -11 3.75764 2.29285   2
   5 -11 -11 2.20812 2.30310   1
   5  11 -11 4.63294 2.34699   2
   3 -11 -11 4.29284 2.36283   1
   3  11 -11 4.70071 2.31096   2
   1 -11 -11 3.96707 2.43027   1
   1  11 -11 7.86428 2.64404   2
  -1 -11 -11 25.2356  3.5487   1
  -1  11 -11 30.0531  4.0725   2
  -3 -11 -11 2.98933 2.36764   1
  -3  11 -11 2.98098 2.55856   2
   5 -11  11 9.61488 2.86502   3
  -5 -11 -11 7.59112 2.61599   1
  -5  11 -11 8.03663 2.89090   2
   7 -11  11 5.40084 2.53440   3
  -7  11 -11 2.00061 2.47226   2
   9 -11  11 2.21036 2.34710   3
  -9  11 -11 3.72072 2.55613   2
  11 -11  11 4.90600 2.52490   3
 -11  11 -11 4.16815 2.70856   2
  13 -11  11 2.06406 2.18729   3
   6 -12 -11 3.56361 2.60099   1
   4 -12 -11 11.4367  2.9753   1
   2 -12 -11 3.82767 2.40356   1
  42   0 -12 44.0509  3.8345   2
  40   0 -12 17.5420  2.9054   2
  38   0 -12 22.0439  2.9087   2
  36   0 -12 16.3938  2.6618   2
  34   0 -12 -2.3743  1.3154   2
  32   0 -12 29.9851  3.1191   2
  30   0 -12 110.835   5.312   2
  28   0 -12 46.4243  3.3305   2
  26   0 -12 638.327  21.640   2
  24   0 -12 5.58138 1.64335   2
 -24   0  12 -0.5665  1.5611   1
  22   0 -12 738.048  24.775   2
 -22   0  12 754.669  23.978   1
  20   0 -12 13.4803  1.7344   2
  18   0 -12 62.9787  3.2843   2
  18   0 -12 67.2401  3.0836   1
  16   0 -12 68.1966  3.2937   2
  16   0 -12 62.8584  2.9986   1
  14   0 -12 15.0242  1.5364   1
  14   0 -12 14.2901  1.5889   2
  12   0 -12 4.52145 1.14937   2
  12   0 -12 5.48895 1.11496   1
  10   0 -12 313.458  10.253   1
  10   0 -12 297.996  10.574   2
 -10   0  12 305.920  10.072   3
  -8   0  12 114.618   4.465   3
   8   0 -12 129.628   4.911   2
   8   0 -12 121.651   4.697   1
   6   0 -12 873.293  27.613   2
  -6   0  12 859.967  26.986   3
   6   0 -12 833.391  26.832   1
   4   0 -12 180.718   6.411   2
  -4   0  12 167.675   6.121   3
   4   0 -12 173.180   6.298   1
  -2   0  12 1215.71   38.51   3
   2   0 -12 1240.41   39.14   2
   2   0 -12 1232.73   38.22   1
   0   0 -12 764.061  24.178   2
   0   0  12 736.203  23.788   3
   0   0 -12 745.765  23.690   1
  -2   0 -12 551.214  18.244   1
   2   0  12 576.310  18.323   3
  -2   0 -12 577.886  18.548   2
  -4   0 -12 14.8048  1.5835   1
  -4   0 -12 14.4974  1.3601   2
   4   0  12 17.0945  1.6212   3
  -6   0 -12 195.179   6.956   1
   6   0  12 198.577   6.856   3
  -6   0 -12 177.747   6.694   2
   8   0  12 37.5769  2.3003   3
  -8   0 -12 37.9714  2.3807   1
 -10   0 -12 87.1022  3.9769   1
  10   0  12 87.3920  3.8849   3
  12   0  12 186.789   6.986   3
 -12   0 -12 185.849   7.066   1
  14   0  12 255.278   9.232   3
 -14   0 -12 257.294   9.300   1
  16   0  12 199.835   7.656   3
 -16   0 -12 201.635   7.711   1
  18   0  12 196.999   7.606   3
 -18   0 -12 190.611   7.583   1
  20   0  12 301.530  10.838   3
 -20   0 -12 288.308  10.750   1
  22   0  12 16.9782  2.4184   3
 -22   0 -12 15.2478  2.3091   1
  24   0  12 36.8211  3.1184   3
 -24   0 -12 40.1680  3.1873   1
 -26   0 -12 -0.7041  1.3888   1
  26   0  12 -0.2095  1.6332   3
  28   0  12 12.8129  2.3846   3
 -28   0 -12 4.76232 1.99067   1
 -30   0 -12 -0.4287  1.6466   1
  30   0  12 2.42428 2.01048   3
 -32   0 -12 17.8950  2.8367   1
  32   0  12 18.9705  2.9623   3
 -34   0 -12 4.77091 2.26029   1
  34   0  12 5.85118 2.52792   3
  36   0  12 31.8447  3.7659   3
 -36   0 -12 30.2978  3.5974   1
 -38   0 -12 3.86763 2.31365   1
  43  -1 -12 43.1541  4.1352   2
  43   1 -12 49.3581  4.0654   2
  41  -1 -12 5.13650 2.34697   2
  41   1 -12 5.72174 2.20887   2
  39  -1 -12 45.1487  3.8794   2
  39   1 -12 45.3985  3.6800   2
  37  -1 -12 -1.6097  1.7078   2
  37   1 -12 -0.8478  1.7354   2
  35  -1 -12 32.8347  3.1804   2
  35   1 -12 32.3582  3.0570   2
  33  -1 -12 -1.5235  1.5086   2
  33   1 -12 -1.1675  1.3876   2
  31  -1 -12 64.6932  4.0508   2
  31   1 -12 63.0159  3.8153   2
  29  -1 -12 3.58622 1.73414   2
 -29   1  12 2.21805 1.70829   1
  29   1 -12 2.95988 1.54872   2
  27  -1 -12 241.989   9.596   2
  27   1 -12 232.240   9.349   2
 -27   1  12 264.391   9.416   1
  25  -1 -12 177.018   7.243   2
 -25   1  12 168.738   7.023   1
  25   1 -12 176.624   7.130   2
  23  -1 -12 200.940   7.795   2
 -23   1  12 189.510   7.529   1
  23   1 -12 192.176   7.624   2
  21  -1 -12 262.936   9.709   2
  21   1 -12 258.027   9.559   2
  19  -1 -12 72.4604  3.5730   1
  19  -1 -12 68.1352  3.6607   2
  19   1 -12 75.0544  3.6526   2
  17  -1 -12 2.35418 1.13700   2
  17  -1 -12 0.54685 1.13844   1
  17   1 -12 0.34820 0.69717   2
  17   1 -12 -0.3178  0.9389   1
  15  -1 -12 252.828   8.892   2
  15  -1 -12 238.006   8.526   1
  15   1 -12 240.601   8.181   1
  15   1 -12 236.162   8.768   2
  13  -1 -12 54.8428  2.9246   1
  13  -1 -12 63.2818  3.0571   2
  13   1 -12 57.7566  3.0560   2
  13   1 -12 55.0323  2.6108   1
  11  -1 -12 278.249   9.727   1
  11  -1 -12 293.593  10.026   2
 -11  -1  12 286.426   9.642   3
  11   1 -12 275.553   9.437   1
  11   1 -12 292.018  10.087   2
  -9  -1  12 333.239  11.021   3
   9  -1 -12 321.728  11.069   1
   9  -1 -12 337.072  11.325   2
   9   1 -12 334.724  10.832   1
  -9   1  12 328.167  10.625   3
   9   1 -12 323.869  11.403   2
  -7  -1  12 518.757  16.398   3
   7  -1 -12 493.851  16.620   2
   7  -1 -12 511.631  16.396   1
   7   1 -12 499.929  16.799   2
   7   1 -12 496.114  16.081   1
  -7   1  12 503.022  16.020   3
   5  -1 -12 1149.56   37.11   2
   5  -1 -12 1181.79   36.41   1
  -5  -1  12 1156.06   36.67   3
   5   1 -12 1167.82   36.14   1
  -5   1  12 1150.47   36.35   3
   5   1 -12 1188.20   37.36   2
  -3  -1  12 109.700   4.303   3
   3  -1 -12 107.780   4.507   1
   3  -1 -12 103.678   4.212   2
  -3   1  12 114.145   4.026   3
   3   1 -12 97.7353  4.3415   2
   3   1 -12 110.420   4.240   1
   1  -1 -12 664.850  21.579   1
  -1  -1  12 683.746  21.724   3
   1  -1 -12 683.001  21.818   2
   1   1 -12 695.757  22.149   2
   1   1 -12 679.003  21.414   1
  -1   1  12 653.413  21.416   3
  -1  -1 -12 5.73578 0.89848   2
  -1  -1 -12 6.11432 1.23897   1
   1  -1  12 4.08057 1.07162   3
   1   1  12 4.79695 0.99934   3
  -1   1 -12 7.62083 1.17662   2
  -1   1 -12 5.43512 1.10571   1
  -3  -1 -12 301.373  10.209   1
   3  -1  12 298.077  10.134   3
  -3   1 -12 293.176  10.029   1
   3   1  12 290.373   9.917   3
  -3   1 -12 305.509  10.347   2
  -5  -1 -12 78.6896  3.5921   1
   5  -1  12 77.6496  3.4749   3
  -5  -1 -12 75.4908  3.0466   2
  -5   1 -12 80.6738  3.5462   1
   5   1  12 76.0645  3.3565   3
  -5   1 -12 85.7386  3.5986   2
  -7  -1 -12 175.356   6.574   1
  -7  -1 -12 173.949   6.001   2
   7  -1  12 174.819   6.465   3
  -7   1 -12 177.714   6.489   2
  -7   1 -12 169.714   6.416   1
   7   1  12 174.542   6.374   3
   9  -1  12 59.4901  3.0660   3
  -9   1 -12 58.6433  3.0567   1
   9   1  12 64.6130  3.0485   3
  -9   1 -12 60.0220  2.9695   2
  11  -1  12 226.826   8.250   3
  11   1  12 231.802   8.183   3
 -11   1 -12 221.570   8.199   1
 -11   1 -12 227.563   8.163   2
  13  -1  12 20.0275  2.1779   3
 -13   1 -12 19.8297  2.0958   1
  13   1  12 24.2873  2.1680   3
 -13   1 -12 17.6887  1.7924   2
 -15  -1 -12 193.731   7.440   1
  15  -1  12 183.711   7.327   3
 -15   1 -12 193.276   7.399   1
  15   1  12 192.649   7.306   3
  17  -1  12 5.78538 1.67462   3
 -17  -1 -12 1.65270 1.47584   1
 -17   1 -12 2.01578 1.59059   1
  17   1  12 0.64680 1.53770   3
  19  -1  12 279.021  10.113   3
 -19  -1 -12 266.666  10.042   1
  19   1  12 273.620  10.029   3
 -19   1 -12 267.865  10.048   1
  21  -1  12 47.3628  3.2661   3
 -21  -1 -12 39.9662  3.0937   1
 -21   1 -12 40.0859  3.1797   1
  21   1  12 39.1706  3.2272   3
 -23  -1 -12 74.8068  4.2639   1
  23  -1  12 73.7465  4.1450   3
 -23   1 -12 69.6696  4.1285   1
  23   1  12 71.3152  4.1870   3
 -25  -1 -12 8.25410 1.94844   1
  25  -1  12 7.81365 2.08898   3
  25   1  12 4.90530 2.01609   3
 -25   1 -12 7.39939 1.98095   1
  27  -1  12 10.9664  2.2598   3
 -27  -1 -12 5.35330 1.93331   1
 -27   1 -12 6.60913 1.99809   1
  27   1  12 6.44683 2.11448   3
 -29  -1 -12 -0.0919  1.7327   1
  29  -1  12 -1.4297  1.7038   3
 -29   1 -12 -1.2997  1.6977   1
  29   1  12 -3.3052  1.7355   3
  31  -1  12 20.1003  2.9580   3
 -31  -1 -12 19.5586  2.8722   1
 -31   1 -12 19.3259  2.8643   1
  31   1  12 19.0801  2.9487   3
  33  -1  12 6.53503 2.48677   3
 -33  -1 -12 4.41580 2.16326   1
  33   1  12 7.69017 2.53194   3
 -33   1 -12 5.73178 2.31974   1
  35  -1  12 19.8924  3.2792   3
 -35  -1 -12 24.3488  3.1780   1
 -35   1 -12 25.5816  3.3682   1
  35   1  12 22.4242  3.3634   3
  37  -1  12 8.81920 2.90702   3
 -37  -1 -12 8.05539 2.58834   1
  37   1  12 7.65434 2.78860   3
 -37   1 -12 2.44012 2.32028   1
  42  -2 -12 9.52796 2.64601   2
  42   2 -12 13.5752  2.6909   2
  40  -2 -12 6.64861 2.48762   2
  40   2 -12 9.44638 2.39902   2
  38  -2 -12 36.7175  3.5689   2
  38   2 -12 34.5232  3.2383   2
  36  -2 -12 8.42589 2.35311   2
  36   2 -12 6.80068 2.11926   2
  34  -2 -12 40.5967  3.5428   2
  34   2 -12 39.4233  3.1461   2
  32  -2 -12 34.3994  3.1980   2
  32   2 -12 29.2547  2.9266   2
 -32   2  12 31.2272  3.2103   1
  30  -2 -12 69.1176  4.2291   2
  30   2 -12 76.2018  4.2667   2
 -30   2  12 79.0595  4.4744   1
  28  -2 -12 32.0111  2.9367   2
  28   2 -12 26.4648  2.5839   2
 -28   2  12 26.7521  2.9314   1
  26  -2 -12 133.123   6.146   2
 -26   2  12 150.424   6.250   1
  26   2 -12 125.976   5.805   2
  24  -2 -12 10.3636  1.9122   2
  24   2 -12 11.6943  1.8310   2
 -24   2  12 9.78614 2.01975   1
  22  -2 -12 68.4348  3.7505   2
  22   2 -12 67.0675  3.7533   3
  22   2 -12 67.6210  3.6521   2
  20  -2 -12 21.3595  2.2703   1
  20  -2 -12 22.9707  2.3774   2
  20   2 -12 20.5087  2.1661   2
  18  -2 -12 149.841   5.959   2
  18  -2 -12 147.959   5.834   1
  18   2 -12 127.077   5.666   2
  16  -2 -12 13.2366  1.8835   1
  16  -2 -12 19.3847  2.0162   2
  14  -2 -12 374.590  13.054   2
  14  -2 -12 384.403  12.848   1
  14   2 -12 373.220  12.095   1
  12  -2 -12 11.5034  1.4957   2
  12  -2 -12 8.59451 1.61412   1
  12   2 -12 8.73044 1.52536   2
  12   2 -12 8.54885 1.15118   1
  10  -2 -12 471.098  15.634   1
 -10  -2  12 474.018  15.648   3
  10  -2 -12 482.397  15.917   2
  10   2 -12 447.931  15.001   1
  10   2 -12 498.354  16.149   2
   8  -2 -12 4.83476 1.09773   2
   8  -2 -12 2.63827 1.25425   1
  -8  -2  12 1.01306 1.14966   3
   8   2 -12 -0.0639  0.8410   1
  -8   2  12 2.09732 0.61594   3
   8   2 -12 1.55579 1.06919   2
  -6  -2  12 448.440  15.214   3
   6  -2 -12 466.367  15.221   1
   6  -2 -12 457.517  15.317   2
   6   2 -12 463.672  14.730   1
  -6   2  12 463.690  14.615   3
   6   2 -12 470.029  15.688   2
   4  -2 -12 14.1503  1.3979   2
   4  -2 -12 14.2711  1.7319   1
  -4  -2  12 14.1909  1.6875   3
  -4   2  12 13.0448  1.1503   3
   4   2 -12 13.5591  1.3717   1
   4   2 -12 13.7588  1.6674   2
  -2  -2  12 501.137  15.766   3
   2  -2 -12 444.512  15.510   2
   2  -2 -12 467.912  15.600   1
   2   2 -12 474.318  16.049   2
   2   2 -12 490.196  15.249   1
  -2   2  12 472.941  15.157   3
   0  -2 -12 448.846  14.598   1
   0  -2 -12 415.435  14.355   2
   0  -2  12 437.285  14.634   3
   0   2 -12 447.822  15.002   2
   0   2 -12 453.050  14.248   1
   0   2  12 441.526  14.166   3
  -2  -2 -12 76.4771  3.5447   1
   2  -2  12 77.7246  3.4626   3
   2   2  12 74.2498  3.0939   3
  -2   2 -12 63.8493  3.4493   2
  -2   2 -12 71.4949  3.2323   1
  -4  -2 -12 174.122   6.021   2
   4  -2  12 182.527   6.640   3
  -4  -2 -12 165.581   6.586   1
   4   2  12 181.115   6.311   3
  -4   2 -12 172.514   6.353   1
  -4   2 -12 183.784   6.814   2
   6  -2  12 135.407   5.314   3
  -6   2 -12 133.222   5.406   2
  -6   2 -12 132.347   5.169   1
   6   2  12 132.406   5.016   3
   8  -2  12 12.9288  1.6736   3
  -8   2 -12 13.6965  1.6052   1
  -8   2 -12 15.7563  1.7599   2
   8   2  12 14.0957  1.5463   3
  10  -2  12 81.0412  3.9415   3
 -10   2 -12 88.7433  4.0486   2
 -10   2 -12 87.6149  3.9640   1
  10   2  12 85.9967  3.8327   3
 -12  -2 -12 8.07987 1.59602   1
  12  -2  12 5.98267 1.53556   3
 -12   2 -12 10.5806  1.6231   2
  12   2  12 12.2226  1.6857   3
 -12   2 -12 8.85186 1.54801   1
 -14  -2 -12 62.9109  3.5642   1
  14  -2  12 63.2944  3.5371   3
 -14   2 -12 64.2010  3.4573   1
 -14   2 -12 64.9040  3.4906   2
  14   2  12 68.2465  3.4303   3
 -16  -2 -12 70.2169  3.8091   1
  16  -2  12 67.8171  3.7571   3
 -16   2 -12 68.4839  3.7495   1
 -16   2 -12 73.3476  3.7459   2
  16   2  12 67.8968  3.6581   3
 -18  -2 -12 117.139   5.306   1
  18  -2  12 109.911   5.241   3
 -18   2 -12 114.821   5.280   1
  18   2  12 115.346   5.159   3
  20  -2  12 208.054   8.222   3
 -20  -2 -12 210.152   8.269   1
  20   2  12 207.202   8.068   3
 -20   2 -12 203.522   8.171   1
 -22  -2 -12 1.55085 1.53893   1
  22  -2  12 2.86063 1.76718   3
 -22   2 -12 1.65489 1.78316   1
  22   2  12 3.65059 1.94660   3
 -24  -2 -12 59.2831  3.9763   1
  24  -2  12 69.4271  4.0601   3
 -24   2 -12 67.2701  4.0309   1
  24   2  12 59.3177  3.8867   3
 -26  -2 -12 -1.2299  1.5524   1
  26  -2  12 0.90140 1.68327   3
  26   2  12 -0.5863  1.7548   3
 -26   2 -12 -2.2867  1.6177   1
 -28  -2 -12 7.53385 2.04136   1
  28  -2  12 7.17145 2.09627   3
  28   2  12 6.23868 2.17963   3
 -28   2 -12 8.45494 2.13345   1
  30  -2  12 8.72458 2.49921   3
 -30  -2 -12 9.48242 2.28566   1
 -30   2 -12 14.4502  2.5101   1
  30   2  12 12.8060  2.5258   3
  32  -2  12 17.4790  2.9171   3
 -32  -2 -12 17.7893  2.8253   1
 -32   2 -12 18.0166  2.8479   1
  32   2  12 19.5236  3.1102   3
  34  -2  12 7.18662 2.44291   3
 -34  -2 -12 6.75261 2.38336   1
  34   2  12 11.2469  2.8403   3
 -34   2 -12 9.73703 2.63107   1
 -36  -2 -12 25.3425  3.3839   1
  36  -2  12 26.6989  3.6399   3
  36   2  12 21.6162  3.4194   3
 -36   2 -12 23.5206  3.3671   1
 -38  -2 -12 3.11201 2.29162   1
  43   3 -12 11.0627  2.6777   2
  41  -3 -12 -1.1460  2.0490   2
  41   3 -12 0.09096 1.89068   2
  39  -3 -12 5.46298 2.33396   2
  39   3 -12 3.54888 1.96572   2
  37  -3 -12 0.82284 1.87761   2
  37   3 -12 1.40226 1.72080   2
  35  -3 -12 29.0062  3.4545   2
 -35   3  12 26.6757  3.2619   1
  35   3 -12 27.6138  3.0977   2
  33  -3 -12 2.92132 1.85473   2
 -33   3  12 0.04271 1.81867   1
  33   3 -12 4.64576 1.95595   2
  31  -3 -12 81.3007  4.7694   2
  31   3 -12 80.5113  4.5018   2
 -31   3  12 82.4147  4.8924   1
  29  -3 -12 2.81212 1.67305   2
  29   3 -12 -2.0821  1.3661   2
 -29   3  12 -2.4709  1.6583   1
  27  -3 -12 82.7508  4.7271   2
  27   3 -12 78.1695  4.2138   2
 -27   3  12 91.5525  4.8432   1
  25  -3 -12 11.4954  2.0956   2
  25   3 -12 15.3138  2.2749   3
 -25   3  12 11.9477  2.2595   1
  25   3 -12 12.2309  1.9038   2
  23  -3 -12 26.5531  2.6335   2
  23   3 -12 29.4295  2.8674   3
 -23   3  12 28.8576  2.9937   1
  23   3 -12 27.3439  2.4803   2
  21  -3 -12 137.115   5.956   1
  21  -3 -12 128.984   5.922   2
  21   3 -12 143.709   5.910   2
  19  -3 -12 11.3811  1.7621   2
  19  -3 -12 12.2833  2.0749   1
  19   3 -12 8.66996 1.55795   2
  17  -3 -12 195.635   7.573   2
  17  -3 -12 192.860   7.502   1
  17   3 -12 191.979   7.501   2
  15  -3 -12 127.728   5.350   2
  15  -3 -12 143.128   5.584   1
  15   3 -12 108.478   5.237   2
  13  -3 -12 255.682   9.279   2
  13  -3 -12 251.111   9.228   1
  11  -3 -12 214.562   8.046   2
  11  -3 -12 224.824   8.121   1
 -11  -3  12 213.415   8.004   3
   9  -3 -12 126.368   5.196   2
  -9  -3  12 129.175   5.342   3
   9  -3 -12 125.295   5.373   1
   9   3 -12 127.262   4.520   1
   9   3 -12 138.426   5.612   2
   7  -3 -12 498.544  16.342   1
  -7  -3  12 497.359  16.392   3
   7  -3 -12 489.214  16.378   2
   7   3 -12 489.955  15.522   1
   7   3 -12 487.049  16.793   2
   5  -3 -12 53.6582  2.7783   2
   5  -3 -12 54.0203  3.2107   1
  -5  -3  12 58.4158  3.1638   3
   5   3 -12 59.1569  2.5115   1
  -5   3  12 56.1152  2.2465   3
   5   3 -12 57.9873  3.2930   2
   3  -3 -12 205.876   7.092   2
   3  -3 -12 195.856   7.385   1
  -3  -3  12 197.591   7.395   3
   3   3 -12 197.466   6.805   1
  -3   3  12 197.961   6.618   3
   3   3 -12 195.817   7.673   2
   1  -3 -12 339.926  11.022   2
  -1  -3  12 344.053  11.474   3
   1  -3 -12 298.135  11.255   1
  -1   3  12 336.517  10.734   3
   1   3 -12 329.414  10.812   1
   1   3 -12 326.947  11.711   2
   1  -3  12 9.83277 1.62722   3
  -1   3 -12 10.2048  1.3608   1
   1   3  12 11.0917  1.2441   3
  -1   3 -12 11.6626  1.6460   2
   3  -3  12 371.563  12.662   3
  -3  -3 -12 373.772  11.993   2
   3   3  12 377.851  12.123   3
  -3   3 -12 378.134  12.180   1
  -3   3 -12 336.957  12.796   2
   5  -3  12 55.5147  3.0051   3
  -5   3 -12 46.6836  2.6584   1
   5   3  12 47.0768  2.5553   3
  -5   3 -12 55.1066  3.0903   2
   7  -3  12 130.550   5.418   3
  -7   3 -12 127.950   5.517   2
   7   3  12 127.445   5.007   3
  -7   3 -12 132.255   5.156   1
   9  -3  12 30.9943  2.4147   3
  -9  -3 -12 30.1295  2.4056   1
   9   3  12 32.9676  2.2464   3
  -9   3 -12 29.0655  2.4046   2
  -9   3 -12 30.9717  2.2625   1
  11  -3  12 23.8242  2.2526   3
 -11  -3 -12 24.4072  2.2710   1
  11   3  12 26.0236  2.2173   3
 -11   3 -12 26.8301  2.2473   1
 -11   3 -12 24.9995  2.2442   2
  13  -3  12 39.7717  2.8598   3
 -13  -3 -12 37.8315  2.8377   1
  13   3  12 47.0728  2.7597   3
 -13   3 -12 42.8518  2.7694   1
 -13   3 -12 43.6790  2.9499   2
  15  -3  12 101.261   4.810   3
 -15  -3 -12 102.176   4.818   1
 -15   3 -12 97.6425  4.8446   2
  15   3  12 99.0386  4.5317   3
 -15   3 -12 106.785   4.751   1
  17  -3  12 0.26400 1.52673   3
 -17  -3 -12 1.23203 1.50825   1
 -17   3 -12 -0.3760  1.3911   2
  17   3  12 2.87308 1.55882   3
 -17   3 -12 0.82372 1.48300   1
 -19  -3 -12 158.746   6.806   1
  19  -3  12 160.355   6.817   3
 -19   3 -12 165.489   6.795   1
 -19   3 -12 154.808   6.808   2
  19   3  12 161.651   6.615   3
  21  -3  12 55.8040  3.6929   3
 -21  -3 -12 51.3338  3.5888   1
 -21   3 -12 51.2190  3.5820   1
  21   3  12 53.2384  3.5455   3
  23  -3  12 79.4438  4.5845   3
 -23  -3 -12 71.7233  4.3343   1
 -23   3 -12 75.5743  4.3748   1
  23   3  12 74.0008  4.2905   3
 -25  -3 -12 23.5491  2.9014   1
  25  -3  12 26.7210  3.0508   3
  25   3  12 29.4479  3.0469   3
 -25   3 -12 26.9239  3.0793   1
  27  -3  12 14.8922  2.5902   3
 -27  -3 -12 10.3631  2.3051   1
  27   3  12 8.81227 2.34041   3
 -27   3 -12 13.0082  2.4075   1
 -29  -3 -12 1.59530 1.85511   1
  29  -3  12 2.22632 1.99576   3
 -29   3 -12 -0.4947  1.6869   1
  29   3  12 1.44876 2.08156   3
 -31  -3 -12 18.1481  2.8948   1
  31  -3  12 17.6579  2.8835   3
 -31   3 -12 17.5539  2.8511   1
  31   3  12 15.1699  2.8322   3
 -33  -3 -12 4.35186 2.16823   1
  33  -3  12 2.29668 2.31491   3
  33   3  12 -0.0009  2.3439   3
 -33   3 -12 -1.2833  1.8182   1
 -35  -3 -12 16.1449  2.9839   1
  35  -3  12 18.7754  3.1472   3
  35   3  12 11.1957  2.9095   3
 -35   3 -12 15.2479  2.8966   1
 -37  -3 -12 2.05952 2.21276   1
  42   4 -12 6.20562 2.22590   2
  40  -4 -12 2.92822 2.37362   2
  40   4 -12 1.00369 1.84349   2
  38  -4 -12 5.95336 2.46596   2
 -38   4  12 0.61965 2.09977   1
  38   4 -12 0.61733 1.84171   2
  36  -4 -12 5.04634 2.14361   2
 -36   4  12 2.05020 2.07852   1
  36   4 -12 4.07147 1.99539   2
  34  -4 -12 6.34383 2.28376   2
  34   4 -12 5.58903 2.06391   2
 -34   4  12 5.75396 2.36634   1
  32  -4 -12 22.3099  3.1643   2
  32   4 -12 20.1336  2.6769   2
 -32   4  12 20.3993  3.1012   1
  30  -4 -12 11.0648  2.5630   2
 -30   4  12 9.11496 2.57367   1
  30   4 -12 12.1290  2.2241   2
  28  -4 -12 39.6253  3.3791   2
 -28   4  12 40.5804  3.8993   1
  28   4 -12 38.7441  3.6980   3
  28   4 -12 40.6863  3.1870   2
  26  -4 -12 66.8641  4.2503   2
  26   4 -12 74.0218  4.6154   3
  26   4 -12 66.6113  3.8707   2
 -26   4  12 69.0842  4.5237   1
  24  -4 -12 12.4419  2.1843   2
  24   4 -12 14.9796  2.1379   2
 -24   4  12 14.8932  2.7006   1
  24   4 -12 18.4448  2.6498   3
  22  -4 -12 111.401   5.463   2
  22   4 -12 111.582   5.157   2
  20  -4 -12 43.3468  3.0363   2
  20  -4 -12 47.6055  3.3005   1
  20   4 -12 44.7938  3.0444   2
  18  -4 -12 17.0163  2.3269   1
  18  -4 -12 19.3837  2.3108   2
  18   4 -12 19.4709  2.2187   2
  16  -4 -12 25.2991  2.2799   2
  16  -4 -12 21.0719  2.4751   1
  16   4 -12 20.8859  2.2973   2
  14  -4 -12 39.0500  3.0838   1
  14  -4 -12 40.2082  2.7070   2
  14   4 -12 36.7971  2.6176   2
  12  -4 -12 9.13000 1.49640   2
  12  -4 -12 8.22361 1.85386   1
  12   4 -12 9.52243 1.68186   2
  10  -4 -12 224.912   8.309   2
  10  -4 -12 222.969   8.414   1
 -10  -4  12 222.752   8.361   3
   8  -4 -12 5.51267 1.23599   2
  -8  -4  12 7.01057 1.53309   3
   8  -4 -12 7.26068 1.60070   1
   8   4 -12 5.92768 1.50434   2
  -6  -4  12 90.6436  4.1811   3
   6  -4 -12 91.6173  4.2947   1
   6  -4 -12 91.3986  3.9174   2
   6   4 -12 83.0035  4.3446   2
   6   4 -12 85.3421  3.2964   1
  -4  -4  12 3.80395 1.40195   3
   4  -4 -12 5.77733 1.08092   2
  -4   4  12 3.73409 0.80454   3
   4   4 -12 3.87826 0.87681   1
   4   4 -12 4.32141 1.45283   2
  -2  -4  12 122.631   5.207   3
   2  -4 -12 122.242   4.632   2
   2   4 -12 119.807   4.422   1
  -2   4  12 118.662   4.318   3
   2   4 -12 114.653   5.384   2
   0  -4  12 75.2679  3.8169   3
   0  -4 -12 73.0913  3.0119   2
   0   4  12 70.7746  2.9820   3
   0   4 -12 67.5739  3.8154   2
   0   4 -12 63.2020  3.0183   1
   2  -4  12 68.6829  3.5947   3
  -2   4 -12 65.4404  3.0526   1
  -2   4 -12 59.2038  3.5472   2
   2   4  12 66.3684  2.9439   3
   4  -4  12 106.356   4.858   3
  -4  -4 -12 114.494   4.879   1
   4   4  12 106.040   4.265   3
  -4   4 -12 111.072   4.408   1
  -4   4 -12 100.874   4.918   2
  -6  -4 -12 63.9207  3.5096   1
   6  -4  12 65.0099  3.5924   3
   6   4  12 64.0786  3.0953   3
  -6   4 -12 63.5823  3.6453   2
  -6   4 -12 68.2725  3.2126   1
  -8  -4 -12 18.3899  2.1752   1
   8  -4  12 17.2197  2.1363   3
   8   4  12 20.9193  1.9475   3
  -8   4 -12 23.0960  2.4776   2
  -8   4 -12 20.8543  2.0164   1
 -10  -4 -12 127.252   5.557   1
  10  -4  12 124.729   5.607   3
 -10   4 -12 125.104   5.833   2
 -10   4 -12 135.915   5.380   1
  10   4  12 132.468   5.271   3
 -12  -4 -12 1.33544 1.37675   1
  12  -4  12 1.42470 1.37938   3
 -12   4 -12 0.96796 1.37608   2
 -12   4 -12 0.17577 1.23783   1
  12   4  12 2.78328 1.31909   3
  14  -4  12 51.3910  3.4233   3
 -14  -4 -12 52.9371  3.5144   1
 -14   4 -12 50.8913  3.6136   2
  14   4  12 56.5735  3.2907   3
 -14   4 -12 53.6766  3.1958   1
  16  -4  12 55.1037  3.5144   3
 -16  -4 -12 47.9633  3.3775   1
 -16   4 -12 44.0209  3.5388   2
 -16   4 -12 52.9197  3.2717   1
  16   4  12 46.1146  3.0931   3
 -18  -4 -12 15.2854  2.3937   1
  18  -4  12 14.6387  2.3894   3
 -18   4 -12 11.4608  2.0952   1
  18   4  12 16.3734  2.3457   3
 -18   4 -12 12.9883  2.3562   2
  20  -4  12 91.6603  4.8751   3
 -20  -4 -12 92.9336  4.8178   1
 -20   4 -12 84.6737  5.0142   2
 -20   4 -12 90.6453  4.7153   1
  20   4  12 92.7390  4.6374   3
  22  -4  12 1.24009 1.78553   3
 -22  -4 -12 1.09834 1.75045   1
 -22   4 -12 0.98063 1.69789   1
  22   4  12 -0.0393  1.8225   3
 -22   4 -12 0.28884 1.61594   2
 -24  -4 -12 24.7663  2.9373   1
  24  -4  12 30.1765  3.2729   3
 -24   4 -12 29.0430  3.1411   1
  24   4  12 29.7666  3.0473   3
  26  -4  12 -0.3065  1.7865   3
 -26  -4 -12 0.54257 1.71967   1
 -26   4 -12 -0.2571  1.7885   1
  26   4  12 -2.5849  1.8014   3
 -28  -4 -12 3.90166 1.95920   1
  28  -4  12 4.52310 2.02200   3
  28   4  12 -0.1824  2.1219   3
 -28   4 -12 0.23408 1.90578   1
 -30  -4 -12 3.11927 1.97609   1
  30  -4  12 6.75018 2.32847   3
  30   4  12 -1.9794  2.0745   3
 -30   4 -12 1.89510 1.93371   1
  32  -4  12 4.63002 2.31000   3
 -32  -4 -12 4.20880 2.11772   1
  32   4  12 1.53482 2.35825   3
 -32   4 -12 2.63632 2.15130   1
 -34  -4 -12 5.49371 2.29369   1
  34  -4  12 7.75602 2.53742   3
  34   4  12 6.51709 2.84799   3
 -34   4 -12 7.62499 2.53087   1
 -36  -4 -12 3.93445 2.38660   1
 -41   5  12 1.33538 2.34280   1
 -39   5  12 0.81984 2.17894   1
  39   5 -12 2.38956 2.07917   2
  37  -5 -12 -1.4727  1.8730   2
  37   5 -12 -0.6582  1.7360   2
 -37   5  12 -0.7249  2.0208   1
  35  -5 -12 5.67901 2.42479   2
 -35   5  12 4.91682 2.34405   1
  35   5 -12 6.25450 2.11356   2
  33  -5 -12 2.98165 2.29752   2
  33   5 -12 6.02241 2.02229   2
 -33   5  12 0.06621 2.22565   1
  31  -5 -12 6.25564 2.44561   2
  31   5 -12 9.97746 2.69830   3
  31   5 -12 6.21925 1.89989   2
 -31   5  12 7.27451 2.63769   1
  29  -5 -12 3.99092 2.17060   2
 -29   5  12 -0.1323  2.2155   1
  29   5 -12 7.06858 2.50169   3
  29   5 -12 7.32787 2.02124   2
  27  -5 -12 19.0934  2.9499   2
  27   5 -12 17.3759  2.4508   2
 -27   5  12 20.1896  3.2399   1
  27   5 -12 20.9910  3.1852   3
  25  -5 -12 40.9251  3.4050   2
 -25   5  12 35.4747  3.8558   1
  25   5 -12 40.5622  3.8689   3
  25   5 -12 44.3645  3.2583   2
  23  -5 -12 85.1747  4.9315   2
 -23   5  12 95.6988  5.4181   1
  23   5 -12 84.8127  4.4821   2
  21  -5 -12 4.80220 1.63417   2
  21   5 -12 5.50362 1.69397   2
  19  -5 -12 28.0469  2.9746   1
  19  -5 -12 26.2428  2.6357   2
  19   5 -12 27.1375  2.6093   2
  17  -5 -12 15.5015  2.3870   1
  17  -5 -12 18.0589  2.2770   2
  17   5 -12 17.9271  2.2421   2
  15  -5 -12 15.0731  2.0284   2
  15  -5 -12 13.5863  2.2911   1
  15   5 -12 13.4726  1.9289   2
  13  -5 -12 2.88109 1.25165   2
  13  -5 -12 4.73878 1.68046   1
  13   5 -12 3.14153 1.35896   2
  11  -5 -12 24.1654  2.2579   2
  11  -5 -12 27.1351  2.7370   1
  11   5 -12 28.8089  2.4440   2
  -9  -5  12 30.9641  2.6154   3
   9  -5 -12 28.0146  2.2882   2
   9  -5 -12 29.8758  2.5979   1
   9   5 -12 28.9518  2.4907   2
   7  -5 -12 12.7824  1.8729   1
   7  -5 -12 11.6992  1.5804   2
  -7  -5  12 10.4593  1.8554   3
   7   5 -12 9.02894 1.84291   2
   5  -5 -12 62.6869  3.5399   1
  -5  -5  12 66.4353  3.6652   3
   5  -5 -12 58.3635  3.0765   2
   5   5 -12 58.7195  3.7204   2
   3  -5 -12 11.8704  1.4172   2
  -3  -5  12 14.3205  2.0239   3
   3  -5 -12 13.4522  1.9315   1
   3   5 -12 9.76651 1.88931   2
   1  -5 -12 37.5024  2.1589   2
  -1  -5  12 37.2023  2.8004   3
   1  -5 -12 37.2952  2.7278   1
  -1   5  12 35.3909  2.0360   3
   1   5 -12 33.0925  2.9235   2
   1   5 -12 32.3429  2.0434   1
   1  -5  12 49.4297  3.1702   3
  -1  -5 -12 49.6548  3.1036   1
   1   5  12 43.7311  2.3963   3
  -1   5 -12 41.4602  2.4041   1
  -1   5 -12 43.6930  3.2517   2
   3  -5  12 12.8170  2.0051   3
  -3  -5 -12 15.3327  2.0582   1
  -3   5 -12 10.7216  1.9836   2
   3   5  12 11.3306  1.4128   3
  -3   5 -12 14.9746  1.6193   1
  -5  -5 -12 2.13905 1.43212   1
   5  -5  12 2.74818 1.46644   3
  -5   5 -12 2.33769 1.23939   1
   5   5  12 1.90792 1.11138   3
  -5   5 -12 1.72638 1.33153   2
   7  -5  12 11.7449  2.0337   3
  -7  -5 -12 12.2543  1.9649   1
  -7   5 -12 12.9635  2.0723   2
  -7   5 -12 14.3398  1.7671   1
   7   5  12 14.5764  1.6585   3
  -9  -5 -12 8.28197 1.83803   1
   9  -5  12 5.70689 1.69896   3
  -9   5 -12 8.54591 1.58057   1
  -9   5 -12 7.80108 1.93463   2
   9   5  12 6.08868 1.45726   3
  11  -5  12 16.8673  2.3706   3
 -11  -5 -12 19.6448  2.4158   1
 -11   5 -12 18.9583  2.0541   1
 -11   5 -12 20.1139  2.6474   2
  11   5  12 18.5622  2.0402   3
 -13  -5 -12 1.21881 1.55952   1
  13  -5  12 0.11014 1.54471   3
  13   5  12 0.45832 1.42504   3
 -13   5 -12 1.70738 1.43412   1
 -13   5 -12 -0.0110  1.6357   2
  15  -5  12 30.3039  2.9191   3
 -15  -5 -12 28.5186  2.9509   1
 -15   5 -12 23.2652  3.1776   2
  15   5  12 30.3586  2.5825   3
 -15   5 -12 33.8527  2.7181   1
  17  -5  12 6.29005 2.09052   3
 -17  -5 -12 5.51415 2.00777   1
 -17   5 -12 6.33959 1.94183   1
 -17   5 -12 8.72114 2.32630   2
  17   5  12 7.48672 1.94940   3
 -19  -5 -12 23.8676  2.8875   1
  19  -5  12 29.1240  3.2212   3
 -19   5 -12 15.6431  2.8166   2
 -19   5 -12 21.6009  2.6909   1
  19   5  12 23.9764  2.6897   3
 -21  -5 -12 2.26388 1.75361   1
  21  -5  12 3.38584 1.89908   3
  21   5  12 0.85324 1.79128   3
 -21   5 -12 1.76869 1.73517   1
 -21   5 -12 0.19697 1.74748   2
 -23  -5 -12 -0.1355  1.5838   1
  23  -5  12 3.77463 1.89152   3
 -23   5 -12 0.02921 1.81054   1
 -23   5 -12 0.78673 1.89163   2
  23   5  12 0.22193 1.85125   3
  25  -5  12 1.82150 1.83069   3
 -25  -5 -12 -0.4857  1.7008   1
 -25   5 -12 -0.7488  1.8553   1
  25   5  12 0.28330 1.96318   3
  27  -5  12 1.32772 1.85786   3
 -27  -5 -12 -0.2867  1.7028   1
 -27   5 -12 -1.7967  1.7616   1
  27   5  12 -3.6954  1.7816   3
 -29  -5 -12 -1.0997  1.7085   1
  29  -5  12 1.85356 2.00636   3
  29   5  12 -4.3243  1.9224   3
 -29   5 -12 -0.1668  1.8347   1
 -31  -5 -12 4.82134 2.14049   1
  31  -5  12 4.34370 2.22194   3
 -31   5 -12 -0.4083  2.1323   1
  31   5  12 -0.0508  2.3011   3
  33  -5  12 2.06077 2.05956   3
 -33  -5 -12 -1.3829  1.9219   1
  33   5  12 -1.6453  2.3044   3
 -33   5 -12 -0.6062  1.9101   1
 -38   6  12 -2.7964  1.9757   1
  36  -6 -12 -1.9872  1.9197   2
  36   6 -12 0.42949 1.74264   2
 -36   6  12 -1.9669  1.8973   1
  34  -6 -12 7.25151 2.64734   2
  34   6 -12 5.40924 1.98580   2
 -34   6  12 7.59264 2.59279   1
  32  -6 -12 3.14106 2.25186   2
  32   6 -12 1.58390 2.25761   3
 -32   6  12 0.36953 2.07700   1
  32   6 -12 1.80930 1.78077   2
  30  -6 -12 4.25157 2.41964   2
  30   6 -12 1.06108 2.15872   3
  30   6 -12 3.79621 1.89088   2
 -30   6  12 -0.5387  2.1999   1
  28  -6 -12 3.43041 2.02347   2
 -28   6  12 4.32958 2.41009   1
  28   6 -12 4.13208 2.49320   3
  28   6 -12 3.92534 1.82785   2
  26  -6 -12 13.1214  2.6304   2
 -26   6  12 18.3997  3.1019   1
  26   6 -12 22.9475  3.3300   3
  26   6 -12 17.2185  2.4773   2
  24  -6 -12 5.00645 2.02815   2
  24   6 -12 5.24840 1.79794   2
 -24   6  12 3.15168 2.14750   1
  22  -6 -12 31.7930  3.0968   2
 -22   6  12 31.2590  3.6238   1
  22   6 -12 28.4321  2.8367   2
  20  -6 -12 0.62981 1.80895   1
  20  -6 -12 3.33435 1.68243   2
  20   6 -12 2.76776 1.49678   2
  18  -6 -12 4.99657 1.68633   2
  18  -6 -12 2.20128 1.95434   1
  18   6 -12 4.99277 1.70983   2
  16  -6 -12 11.5056  2.0590   2
  16  -6 -12 9.58806 2.20680   1
  16   6 -12 11.3474  2.0239   2
  14  -6 -12 1.89941 1.68780   1
  14  -6 -12 3.61581 1.50646   2
  14   6 -12 7.66261 1.79286   2
  12  -6 -12 8.96283 1.97548   1
  12  -6 -12 5.83516 1.56082   2
  12   6 -12 6.85571 1.72514   2
  10  -6 -12 13.8688  1.9072   2
  10  -6 -12 11.6282  2.0786   1
  10   6 -12 11.2829  2.0329   2
  -8  -6  12 8.67501 2.01500   3
   8  -6 -12 11.8334  1.7543   2
   8  -6 -12 9.31106 1.98534   1
   8   6 -12 7.21404 1.82361   2
   6  -6 -12 47.4513  3.3494   1
   6  -6 -12 50.5884  2.9947   2
  -6  -6  12 48.4611  3.3852   3
   6   6 -12 47.7481  3.5353   2
  -4  -6  12 24.8271  2.7731   3
   4  -6 -12 21.6237  2.5143   1
   4  -6 -12 24.5217  2.1271   2
   4   6 -12 20.0142  2.6319   2
  -2  -6  12 35.2485  2.9562   3
   2  -6 -12 28.6460  2.7344   1
   2   6 -12 28.6721  2.8298   2
   0  -6 -12 14.7041  2.2471   1
   0  -6  12 12.7604  2.2237   3
   0   6 -12 13.2999  2.2778   2
  -2  -6 -12 10.9774  1.9731   1
   2  -6  12 9.97141 2.03399   3
  -2   6 -12 19.2297  1.7598   1
   2   6  12 10.9442  1.4850   3
  -2   6 -12 12.1975  2.1222   2
   4  -6  12 11.2723  2.1271   3
  -4  -6 -12 8.77664 1.88302   1
   4   6  12 12.1858  1.6383   3
  -4   6 -12 9.21615 2.05768   2
  -4   6 -12 11.8050  1.6177   1
  -6  -6 -12 10.2838  1.9524   1
   6  -6  12 8.95456 1.98455   3
  -6   6 -12 7.78500 1.92490   2
   6   6  12 9.86334 1.52870   3
  -6   6 -12 7.09439 1.46287   1
  -8  -6 -12 4.35536 1.68940   1
   8  -6  12 6.85229 1.86534   3
  -8   6 -12 4.92884 1.87096   2
   8   6  12 6.14239 1.42143   3
  -8   6 -12 6.76509 1.52453   1
  10  -6  12 1.41648 1.64372   3
 -10  -6 -12 3.49390 1.68092   1
 -10   6 -12 2.57055 1.39285   1
 -10   6 -12 1.21946 1.59000   2
  10   6  12 1.70774 1.38329   3
  12  -6  12 4.47632 1.82753   3
 -12  -6 -12 2.38366 1.74272   1
 -12   6 -12 -0.6755  1.7794   2
  12   6  12 1.98247 1.46485   3
 -12   6 -12 2.66006 1.56559   1
 -14  -6 -12 3.36880 1.85565   1
  14  -6  12 5.59100 2.00696   3
 -14   6 -12 2.97417 1.60701   1
 -14   6 -12 -0.8054  1.7695   2
  14   6  12 7.14835 1.72735   3
 -16  -6 -12 2.73464 1.77824   1
  16  -6  12 2.42178 1.97040   3
 -16   6 -12 1.42995 1.91414   2
  16   6  12 2.77296 1.72832   3
 -16   6 -12 3.39807 1.83973   1
  18  -6  12 4.18781 2.03102   3
 -18  -6 -12 6.62465 2.13163   1
 -18   6 -12 2.29121 2.26875   2
  18   6  12 7.39185 2.03261   3
 -18   6 -12 7.87086 2.12381   1
 -20  -6 -12 4.47210 2.01312   1
  20  -6  12 8.76874 2.29985   3
 -20   6 -12 4.35567 2.04005   1
 -20   6 -12 2.02020 2.21168   2
  20   6  12 1.47585 1.84555   3
 -22  -6 -12 4.86369 2.07623   1
  22  -6  12 6.37286 2.18240   3
 -22   6 -12 4.94420 2.12367   1
  22   6  12 4.89174 2.10412   3
 -22   6 -12 3.71545 2.28164   2
 -24  -6 -12 2.52531 1.95730   1
  24  -6  12 1.78429 1.91841   3
  24   6  12 -0.2493  2.0576   3
 -24   6 -12 -0.1893  1.9831   1
 -24   6 -12 -0.6416  1.9460   2
  26  -6  12 3.69078 2.08999   3
 -26  -6 -12 -0.1092  1.8108   1
 -26   6 -12 -1.3925  1.8806   2
 -26   6 -12 -2.5597  1.8369   1
  26   6  12 -2.7390  1.9633   3
 -28  -6 -12 2.03083 1.87859   1
  28  -6  12 2.23143 2.01986   3
 -28   6 -12 -2.1597  1.7461   1
  28   6  12 -3.4589  2.1156   3
  30  -6  12 -0.2592  1.8899   3
 -30   6 -12 -3.0637  2.0359   1
  30   6  12 -3.0694  2.1366   3
  32  -6  12 -0.8057  2.1715   3
  35   7 -12 0.59291 2.36105   3
 -35   7  12 6.03806 2.53377   1
  35   7 -12 5.05536 2.03806   2
  33  -7 -12 2.72510 2.33342   2
  33   7 -12 3.97990 1.97603   2
  33   7 -12 0.05697 2.23631   3
 -33   7  12 4.08398 2.28969   1
  31  -7 -12 3.41640 2.15450   2
  31   7 -12 4.01915 2.50218   3
  31   7 -12 -0.1437  1.7094   2
 -31   7  12 5.64018 2.32363   1
  29  -7 -12 2.18700 2.00201   2
  29   7 -12 2.29179 1.80771   2
  29   7 -12 1.26806 2.27835   3
 -29   7  12 0.51858 2.24880   1
  27  -7 -12 4.35033 2.13794   2
 -27   7  12 0.46838 2.20008   1
  27   7 -12 5.07125 2.39870   3
  27   7 -12 1.24258 1.77049   2
  25  -7 -12 4.92529 2.04538   2
 -25   7  12 0.45593 2.39077   1
  25   7 -12 4.20864 1.90823   2
  25   7 -12 3.17210 2.43304   3
  23  -7 -12 6.38295 2.18161   2
  23   7 -12 7.66296 1.97691   2
 -23   7  12 6.90893 2.56598   1
  21  -7 -12 5.19832 1.86566   2
  21   7 -12 4.63043 1.72696   2
 -21   7  12 3.59563 2.34412   1
  19  -7 -12 7.39546 2.37023   1
  19  -7 -12 6.35024 1.99897   2
  19   7 -12 7.77804 1.96628   2
  17  -7 -12 -1.5931  1.7756   1
  17  -7 -12 1.16744 1.50516   2
  17   7 -12 3.95639 1.71393   2
  15  -7 -12 9.23822 2.36857   1
  15  -7 -12 13.2183  2.1754   2
  15   7 -12 11.3879  2.1461   2
  13  -7 -12 11.8988  2.3842   1
  13  -7 -12 12.4007  2.0961   2
  13   7 -12 7.47396 2.03045   2
  11  -7 -12 21.6664  2.7967   1
  11  -7 -12 24.8912  2.6767   2
  11   7 -12 23.2875  2.8016   2
   9  -7 -12 10.5722  2.2892   1
   9  -7 -12 13.0696  2.0496   2
   9   7 -12 12.0005  2.2033   2
   7  -7 -12 12.4711  2.3303   1
  -7  -7  12 9.72203 2.29420   3
   7  -7 -12 11.6916  1.9428   2
   7   7 -12 9.22768 2.22265   2
  -5  -7  12 22.6185  2.8025   3
   5  -7 -12 20.9083  2.7253   1
   5   7 -12 20.6009  2.6502   2
   3  -7 -12 13.1332  2.2634   1
  -3  -7  12 14.3192  2.4299   3
   3   7 -12 9.44068 2.17160   2
  -1  -7  12 15.0052  2.4895   3
   1   7 -12 11.5099  2.2791   2
  -1  -7 -12 8.27209 1.97486   1
   1  -7  12 5.49485 1.96527   3
  -1   7 -12 9.16466 2.18888   2
   3  -7  12 22.8814  2.8258   3
  -3  -7 -12 24.0421  2.7412   1
   5  -7  12 1.00615 1.58456   3
  -5  -7 -12 1.75414 1.57971   1
  -5   7 -12 -0.8433  1.5320   2
   5   7  12 1.17953 1.24874   3
  -7  -7 -12 2.72135 1.61659   1
   7  -7  12 4.05371 1.83154   3
  -7   7 -12 1.33809 1.74853   2
  -7   7 -12 5.34533 1.50633   1
   7   7  12 5.36740 1.55365   3
  -9  -7 -12 -1.4241  1.4134   1
   9  -7  12 -0.9941  1.5151   3
   9   7  12 0.66831 1.35884   3
  -9   7 -12 -0.2576  1.7249   2
  -9   7 -12 -0.1868  1.3042   1
 -11  -7 -12 12.6784  2.3352   1
  11  -7  12 12.4776  2.4004   3
  11   7  12 12.2181  1.9264   3
 -11   7 -12 10.5967  2.6042   2
 -11   7 -12 13.1106  2.0520   1
  13  -7  12 -1.8668  1.7806   3
 -13  -7 -12 -0.5625  1.7136   1
 -13   7 -12 -0.2535  1.9607   2
 -13   7 -12 2.14585 1.65598   1
  13   7  12 -0.2797  1.5198   3
  15  -7  12 6.87957 2.22888   3
 -15  -7 -12 1.49263 1.90471   1
 -15   7 -12 2.48295 2.41926   2
 -15   7 -12 7.17185 1.99838   1
  15   7  12 7.86978 1.88132   3
 -17  -7 -12 7.71576 2.32796   1
  17  -7  12 7.77654 2.36642   3
 -17   7 -12 3.03132 2.34310   2
  17   7  12 6.81687 2.08238   3
 -17   7 -12 5.75870 2.09086   1
 -19  -7 -12 6.00475 2.21399   1
  19  -7  12 4.49140 2.11771   3
 -19   7 -12 8.45651 2.25050   1
 -19   7 -12 1.81241 2.45862   2
  19   7  12 4.51871 1.97874   3
 -21  -7 -12 0.47264 1.92783   1
  21  -7  12 1.84284 1.92695   3
  21   7  12 -1.4991  1.9379   3
 -21   7 -12 5.04084 2.12010   1
 -21   7 -12 -0.7524  2.1611   2
 -23  -7 -12 0.45073 1.88931   1
  23  -7  12 4.21079 2.16827   3
 -23   7 -12 2.86973 2.34650   2
 -23   7 -12 0.70294 1.89833   1
  23   7  12 1.94465 2.02893   3
  25  -7  12 1.50524 2.04735   3
 -25  -7 -12 -0.7482  1.7890   1
 -25   7 -12 -0.4977  2.1863   2
  25   7  12 -1.9135  2.0992   3
 -25   7 -12 3.01064 2.19040   1
  27  -7  12 1.21145 2.02076   3
 -27   7 -12 3.67003 2.41655   2
 -27   7 -12 -1.6368  2.0270   1
  27   7  12 -2.5169  2.0277   3
  29  -7  12 -0.1943  2.0215   3
  29   7  12 -3.8068  2.0744   3
 -29   7 -12 -2.5309  1.9511   1
  32   8 -12 -1.4101  1.8986   2
  32   8 -12 0.67567 2.29734   3
  30  -8 -12 10.7664  2.8234   2
  30   8 -12 7.85458 2.79419   3
 -30   8  12 10.6476  2.7924   1
  30   8 -12 6.68150 2.19073   2
  28  -8 -12 2.80173 2.01429   2
  28   8 -12 1.23051 1.87696   2
  28   8 -12 1.51086 2.39459   3
 -28   8  12 5.68581 2.60072   1
  26  -8 -12 17.8790  3.0430   2
  26   8 -12 17.3786  3.2702   3
 -26   8  12 9.49087 2.98631   1
  26   8 -12 13.1735  2.5108   2
  24  -8 -12 4.18628 2.04876   2
 -24   8  12 3.75014 2.51442   1
  24   8 -12 4.54817 2.03874   2
  22  -8 -12 23.4859  3.1602   2
  22   8 -12 16.1381  2.5896   2
 -22   8  12 12.7981  3.1440   1
  20  -8 -12 14.2677  2.6051   2
 -20   8  12 10.3640  2.8519   1
  20   8 -12 14.8791  2.4815   2
  18  -8 -12 3.48963 1.87974   2
  18   8 -12 3.85299 1.81090   2
  16  -8 -12 7.49562 2.04525   2
  16  -8 -12 6.37692 2.34819   1
  16   8 -12 8.58996 2.16996   2
  14  -8 -12 3.18699 1.65645   2
  14  -8 -12 1.34826 2.01999   1
  14   8 -12 3.14187 1.66264   2
  12  -8 -12 -2.3888  1.6208   1
  12  -8 -12 0.62564 1.43661   2
  12   8 -12 1.20218 1.54655   2
  10  -8 -12 11.4562  2.0779   2
  10  -8 -12 10.7401  2.4985   1
  10   8 -12 4.26443 1.92922   2
   8  -8 -12 17.3567  2.7291   1
   8  -8 -12 18.3067  2.4315   2
   8   8 -12 17.0259  2.7172   2
   6  -8 -12 56.4080  4.1097   1
   6   8 -12 46.0033  4.0099   2
  -4  -8  12 54.5193  4.0194   3
   4  -8 -12 50.6166  3.8620   1
   4   8 -12 50.3371  3.9466   2
  -2  -8  12 63.2472  4.4184   3
   2  -8 -12 76.7564  4.5861   1
   2   8 -12 75.5201  4.8933   2
   0  -8  12 18.0212  2.7819   3
   0  -8 -12 25.6814  2.9378   1
   0   8 -12 17.8860  2.8817   2
   2  -8  12 16.7612  2.6974   3
  -2  -8 -12 18.6440  2.6107   1
  -2   8 -12 17.2284  2.8383   2
  -4  -8 -12 0.95651 1.56680   1
   4  -8  12 -0.3958  1.6701   3
  -4   8 -12 0.01151 1.78279   2
   6  -8  12 3.72813 1.95535   3
  -6  -8 -12 3.69878 1.78804   1
  -6   8 -12 2.10116 1.84946   2
   8  -8  12 -0.9912  1.6563   3
  -8  -8 -12 -1.4279  1.6296   1
   8   8  12 -2.4456  1.2887   3
  -8   8 -12 -3.1173  1.6283   2
  10  -8  12 6.06960 2.10780   3
 -10  -8 -12 3.91493 1.99342   1
 -10   8 -12 5.51818 2.36123   2
  10   8  12 4.40583 1.77820   3
 -12  -8 -12 9.90035 2.39807   1
  12  -8  12 10.8246  2.5157   3
 -12   8 -12 10.2238  2.7899   2
  12   8  12 10.8480  2.0836   3
 -12   8 -12 9.01291 2.02200   1
 -14  -8 -12 5.85591 2.17982   1
  14  -8  12 8.46887 2.37084   3
  14   8  12 5.18915 2.00770   3
 -14   8 -12 6.59047 1.97868   1
 -14   8 -12 1.48357 2.45894   2
  16  -8  12 7.19136 2.39368   3
 -16  -8 -12 10.6801  2.5266   1
  16   8  12 8.01773 2.15771   3
 -16   8 -12 8.27033 2.21249   1
 -16   8 -12 10.2209  3.0984   2
  18  -8  12 12.4097  2.6803   3
 -18  -8 -12 14.6831  2.7276   1
  18   8  12 11.0063  2.4490   3
 -18   8 -12 12.4438  2.5115   1
 -18   8 -12 11.0803  3.1139   2
 -20  -8 -12 3.80499 2.15997   1
  20  -8  12 6.59387 2.30008   3
 -20   8 -12 -1.5452  2.3555   2
 -20   8 -12 2.72993 1.97621   1
  20   8  12 2.47633 2.22327   3
  22  -8  12 5.10568 2.27189   3
 -22   8 -12 8.63713 2.42999   1
  22   8  12 5.09558 2.37009   3
  24  -8  12 1.69161 2.04025   3
 -24   8 -12 0.05457 2.32669   2
 -24   8 -12 0.49673 1.94695   1
  24   8  12 1.47232 2.13301   3
  26  -8  12 1.86376 2.33332   3
  26   8  12 -3.6170  2.1053   3
 -26   8 -12 -1.6132  2.0327   1
 -26   8 -12 0.15992 2.40507   2
 -28   8 -12 -2.3638  2.2625   2
  29   9 -12 3.86925 2.83668   3
  29   9 -12 4.27480 2.14125   2
  27  -9 -12 10.5825  2.9139   2
  27   9 -12 8.96487 3.04293   3
  27   9 -12 10.4815  2.4785   2
 -27   9  12 13.6679  3.3682   1
  25  -9 -12 15.0988  3.1248   2
  25   9 -12 8.58065 3.04339   3
 -25   9  12 6.47981 2.90517   1
  25   9 -12 9.35666 2.37903   2
  23  -9 -12 20.6442  3.3453   2
  23   9 -12 22.9504  3.0744   2
 -23   9  12 18.4627  3.5402   1
  21  -9 -12 8.77110 2.38502   2
 -21   9  12 4.34268 2.79630   1
  21   9 -12 11.2236  2.4830   2
  19  -9 -12 21.4475  3.0846   2
 -19   9  12 16.1396  3.1627   1
  19   9 -12 17.9605  2.7128   2
  17  -9 -12 3.75007 1.96099   2
  17   9 -12 3.85029 1.99866   2
  15  -9 -12 15.3242  2.7136   2
  15  -9 -12 13.3376  2.8504   1
  15   9 -12 16.4273  2.7428   2
  13  -9 -12 -0.4451  2.0703   1
  13  -9 -12 -0.3051  1.6513   2
  13   9 -12 1.80940 1.81884   2
  11  -9 -12 3.90797 1.93965   2
  11  -9 -12 3.81581 2.17404   1
  11   9 -12 7.13161 2.21348   2
   9  -9 -12 12.8653  2.6967   1
   9   9 -12 10.7524  2.4061   2
   7  -9 -12 16.5479  2.8750   1
   7   9 -12 11.3946  2.6745   2
   5  -9 -12 56.9627  4.2840   1
   5   9 -12 54.5044  4.4326   2
   3  -9 -12 27.8332  3.3518   1
   3   9 -12 21.8516  3.3476   2
   1  -9 -12 67.8220  4.5370   1
  -1  -9  12 62.0814  4.4669   3
   1   9 -12 60.8610  4.7144   2
  -1  -9 -12 9.11359 2.35961   1
   1  -9  12 7.78602 2.35926   3
  -1   9 -12 5.60533 2.21245   2
   3  -9  12 9.11297 2.42828   3
  -3  -9 -12 9.85645 2.28802   1
  -3   9 -12 13.7678  2.8675   2
   5  -9  12 2.70958 2.11160   3
  -5  -9 -12 1.89446 1.86969   1
  -5   9 -12 2.61054 2.23710   2
   7  -9  12 2.24997 2.02580   3
  -7  -9 -12 3.64461 2.01406   1
  -7   9 -12 6.28031 2.42145   2
   9  -9  12 1.12322 2.05453   3
  -9  -9 -12 2.25912 1.96993   1
  -9   9 -12 5.89423 2.49629   2
  11  -9  12 12.6560  2.8661   3
 -11  -9 -12 19.3325  2.9770   1
 -11   9 -12 7.78599 2.93423   2
 -13  -9 -12 5.19480 2.31461   1
  13  -9  12 1.96461 2.17882   3
  13   9  12 4.39229 1.94045   3
 -13   9 -12 -1.1302  2.3849   2
 -15  -9 -12 27.5433  3.4416   1
  15  -9  12 30.1346  3.7148   3
 -15   9 -12 29.9252  4.2005   2
  15   9  12 29.1547  3.1793   3
  17  -9  12 7.81845 2.48789   3
  17   9  12 2.49216 2.07848   3
 -17   9 -12 -2.0689  2.4921   2
  19  -9  12 20.9726  3.3786   3
 -19   9 -12 20.7471  3.0707   1
 -19   9 -12 22.3922  3.9740   2
  19   9  12 17.5270  2.8757   3
  21  -9  12 1.50230 2.19224   3
 -21   9 -12 0.89372 2.18279   1
  21   9  12 -0.0541  2.1864   3
 -21   9 -12 -1.8776  2.3798   2
  23  -9  12 5.32182 2.53003   3
 -23   9 -12 7.49885 2.51972   1
  23   9  12 7.86650 2.53564   3
 -23   9 -12 6.20717 2.98560   2
 -25   9 -12 -0.8732  2.0959   1
  26  10 -12 13.2464  2.7398   2
  24 -10 -12 3.14947 2.40923   2
  24  10 -12 3.35411 2.18696   2
  22 -10 -12 24.0628  3.6694   2
  22  10 -12 20.1656  3.1025   2
 -22  10  12 24.3266  3.8092   1
  20 -10 -12 0.76798 2.04810   2
 -20  10  12 0.83262 2.27367   1
  20  10 -12 -0.6601  1.7544   2
  18 -10 -12 12.4755  2.7699   2
  18  10 -12 10.3985  2.4541   2
 -18  10  12 12.6129  3.0604   1
  16 -10 -12 1.77981 1.96062   2
  16  10 -12 1.42057 1.79107   2
  14  10 -12 19.8911  3.0585   2
  12 -10 -12 4.56907 2.35442   1
  12  10 -12 7.67683 2.38047   2
  10 -10 -12 24.5468  3.4353   1
  10  10 -12 23.3521  3.3063   2
   8 -10 -12 0.91074 2.12085   1
   8  10 -12 2.20157 2.11438   2
   6 -10 -12 14.9923  2.9472   1
   6  10 -12 17.0854  3.1825   2
   4 -10 -12 9.35768 2.50507   1
   4  10 -12 3.97215 2.39428   2
   2 -10 -12 25.3051  3.3035   1
   2  10 -12 23.9961  3.4829   2
   0 -10 -12 14.8199  2.7553   1
   0  10 -12 11.7179  2.8515   2
   2 -10  12 21.9162  3.3869   3
  -2 -10 -12 20.4392  3.0650   1
  -2  10 -12 16.0530  3.1819   2
  -4 -10 -12 2.76649 2.20869   1
   4 -10  12 5.96261 2.45969   3
  -4  10 -12 4.16234 2.37347   2
  -6 -10 -12 27.0348  3.5224   1
   6 -10  12 30.5343  3.8355   3
  -6  10 -12 32.7760  4.1832   2
  -8 -10 -12 1.89721 2.11164   1
   8 -10  12 1.60431 2.27742   3
  -8  10 -12 -0.2154  2.3275   2
 -10 -10 -12 21.5863  3.2916   1
  10 -10  12 22.7845  3.4611   3
 -10  10 -12 30.5199  4.1957   2
  12 -10  12 6.18559 2.50591   3
 -12  10 -12 8.34514 2.98617   2
  14 -10  12 10.7830  2.7958   3
 -14  10 -12 11.8206  3.2489   2
  16 -10  12 16.2017  3.2758   3
 -16  10 -12 9.59289 3.31627   2
  18 -10  12 2.67379 2.21654   3
  18  10  12 2.82478 2.21321   3
 -18  10 -12 5.30318 3.05545   2
  20  10  12 3.10061 2.44321   3
  19  11 -12 6.66140 2.41821   2
  17  11 -12 11.7598  2.8336   2
 -15  11  12 10.1393  3.0387   1
  15  11 -12 10.9025  2.8259   2
  13  11 -12 13.6115  2.9611   2
  11 -11 -12 16.3508  3.2580   1
  11  11 -12 20.9367  3.3902   2
   9 -11 -12 20.5237  3.3955   1
   9  11 -12 15.8503  3.2051   2
   7 -11 -12 17.4334  3.1612   1
   7  11 -12 16.5015  3.1904   2
   5 -11 -12 21.7696  3.3254   1
   5  11 -12 13.0828  3.1843   2
   3 -11 -12 3.11302 2.17956   1
   3  11 -12 2.65270 2.25076   2
   1 -11 -12 27.2112  3.4940   1
   1  11 -12 17.8113  3.4192   2
  -1 -11 -12 2.83066 2.37982   1
  -1  11 -12 4.31905 2.50869   2
  -3 -11 -12 21.3792  3.3963   1
  -3  11 -12 24.1858  3.7952   2
   5 -11  12 1.62219 2.56105   3
  -5 -11 -12 -0.2429  2.2401   1
  -5  11 -12 1.64916 2.45538   2
   7 -11  12 14.7805  3.1888   3
  -7  11 -12 17.6117  3.4382   2
   9 -11  12 2.16090 2.47555   3
  -9  11 -12 0.18756 2.24728   2
  11 -11  12 20.9704  3.5294   3
   4 -12 -12 5.89463 2.74189   1
   2 -12 -12 16.6138  3.3420   1
   0 -12 -12 10.4556  2.9289   1
  42   0 -13 2.72955 2.25828   2
  40   0 -13 -1.4788  1.8788   2
  38   0 -13 0.08820 1.84997   2
  36   0 -13 -1.0728  1.5092   2
  34   0 -13 -1.3928  1.6022   2
  32   0 -13 -2.2607  1.3395   2
  30   0 -13 1.98008 1.64778   2
  28   0 -13 3.01912 1.60092   2
  26   0 -13 4.18141 1.60976   2
  24   0 -13 5.20531 1.60934   2
  22   0 -13 6.96624 1.48070   2
 -22   0  13 -4.7307  1.4038   1
  20   0 -13 -1.2503  1.1521   1
  20   0 -13 0.08224 0.96729   2
  18   0 -13 -0.6061  1.0430   1
  18   0 -13 -1.1562  0.9272   2
  16   0 -13 -0.2348  0.9277   1
  16   0 -13 -0.7694  0.9066   2
  14   0 -13 -0.4057  0.8685   2
  14   0 -13 -0.8312  0.8939   1
  12   0 -13 0.21970 0.89587   2
  12   0 -13 -0.6723  0.9566   1
  10   0 -13 0.28466 0.87333   2
 -10   0  13 -1.5198  0.7744   3
  10   0 -13 -1.4738  0.8688   1
   8   0 -13 0.05518 0.81361   2
  -8   0  13 -0.2994  0.8011   3
   8   0 -13 -0.8364  0.9195   1
  -6   0  13 0.66211 0.91342   3
   6   0 -13 0.74017 0.85443   2
   6   0 -13 -0.5380  0.9839   1
  -4   0  13 -0.4903  0.9077   3
   4   0 -13 1.33305 1.07848   1
   4   0 -13 0.30330 0.76774   2
   2   0 -13 3.05376 1.06084   1
   2   0 -13 2.38083 0.88239   2
   0   0 -13 4.33062 1.14001   1
   0   0 -13 2.94457 0.89383   2
  -2   0 -13 1.48553 0.80050   2
  -2   0 -13 4.97166 1.16499   1
   2   0  13 3.86467 1.06399   3
  -4   0 -13 -0.3079  0.9704   1
   4   0  13 -0.5358  0.8866   3
  -4   0 -13 -0.0791  0.6729   2
  -6   0 -13 -0.1654  0.6571   2
   6   0  13 -0.0486  0.9274   3
  -6   0 -13 0.57581 0.99032   1
  -8   0 -13 -1.3442  0.6348   2
   8   0  13 -1.7612  0.9200   3
  -8   0 -13 -1.5761  0.9202   1
 -10   0 -13 -0.6343  1.0376   1
  10   0  13 -1.5618  1.0964   3
 -10   0 -13 -0.3127  0.7477   2
 -12   0 -13 -0.9509  1.0759   1
  12   0  13 0.12726 1.19012   3
 -14   0 -13 0.63654 1.31734   1
  14   0  13 -2.3270  1.2248   3
 -16   0 -13 3.68118 1.54981   1
  16   0  13 0.99462 1.54362   3
  18   0  13 -0.2029  1.6513   3
 -18   0 -13 -1.6611  1.5383   1
  20   0  13 -0.3997  1.7161   3
 -20   0 -13 1.57217 1.68185   1
 -22   0 -13 -0.9711  1.5220   1
  22   0  13 -1.3443  1.6108   3
  24   0  13 -1.0335  1.6347   3
 -24   0 -13 -0.8379  1.3958   1
  26   0  13 -3.2245  1.4753   3
 -26   0 -13 -0.3427  1.5560   1
 -28   0 -13 -0.3341  1.6828   1
  28   0  13 -1.5328  1.6318   3
 -30   0 -13 0.89160 1.70583   1
  30   0  13 -0.1701  1.9093   3
 -32   0 -13 -0.3530  1.9800   1
  32   0  13 -0.4752  1.9864   3
 -34   0 -13 -0.8553  1.9497   1
  34   0  13 0.52403 2.22290   3
  36   0  13 1.23800 2.38077   3
 -36   0 -13 1.19520 2.30898   1
  43   1 -13 -0.5299  2.0302   2
  41  -1 -13 8.44577 2.61247   2
  41   1 -13 14.4002  2.6890   2
  39  -1 -13 -0.9988  2.0044   2
  39   1 -13 2.14665 1.95562   2
  37  -1 -13 5.14761 2.25801   2
  37   1 -13 4.97075 2.05304   2
  35  -1 -13 -0.5033  1.7146   2
  35   1 -13 0.53146 1.71737   2
  33  -1 -13 7.18724 2.12830   2
  33   1 -13 2.78707 1.91443   2
  31  -1 -13 4.41897 1.93058   2
  31   1 -13 5.57486 1.96308   2
  29  -1 -13 -1.0403  1.2779   2
  29   1 -13 1.64137 1.60783   2
  27  -1 -13 10.5894  2.0576   2
 -27   1  13 6.93135 2.04657   1
  27   1 -13 8.87964 1.95535   2
  25  -1 -13 5.69478 1.65797   2
 -25   1  13 -1.8265  1.7264   1
  25   1 -13 8.08313 1.74344   2
  23  -1 -13 66.2483  3.7862   2
  23   1 -13 78.9496  3.9499   2
 -23   1  13 65.8987  4.0359   1
  21  -1 -13 26.2334  2.4526   2
  21  -1 -13 24.6545  2.3446   1
  21   1 -13 34.3110  2.5375   2
  19  -1 -13 47.1407  2.9691   2
  19  -1 -13 48.8392  2.8577   1
  19   1 -13 42.2049  2.4888   1
  19   1 -13 46.9174  2.7855   2
  17  -1 -13 34.2905  2.4457   2
  17  -1 -13 30.5399  2.2842   1
  17   1 -13 30.1410  2.0293   1
  17   1 -13 30.1883  2.3443   2
  15  -1 -13 21.2510  2.1064   2
  15  -1 -13 17.8776  1.9440   1
  15   1 -13 16.2123  1.8177   2
  15   1 -13 16.5714  1.6478   1
  13  -1 -13 0.37004 0.93430   2
  13  -1 -13 -1.1620  1.0194   1
  13   1 -13 -1.1865  0.8859   1
  13   1 -13 -0.1705  0.9282   2
  11  -1 -13 16.0751  1.7370   2
 -11  -1  13 15.1365  1.5919   3
  11  -1 -13 12.2422  1.7138   1
  11   1 -13 17.5031  1.8201   2
  11   1 -13 12.9291  1.4457   1
  -9  -1  13 32.1988  2.1610   3
   9  -1 -13 37.3890  2.2727   2
   9  -1 -13 32.6307  2.2299   1
   9   1 -13 32.4278  2.0476   1
   9   1 -13 33.5304  2.2934   2
  -9   1  13 32.0810  1.7416   3
  -7  -1  13 1.66838 1.05498   3
   7  -1 -13 1.13248 1.11238   1
   7  -1 -13 3.53618 0.99992   2
   7   1 -13 2.44431 1.07192   1
  -7   1  13 1.60225 0.83130   3
   7   1 -13 2.49895 1.01453   2
   5  -1 -13 10.1097  1.3206   2
  -5  -1  13 8.56892 1.39130   3
   5  -1 -13 9.44946 1.56310   1
   5   1 -13 8.41250 1.31622   1
   5   1 -13 9.44986 1.41479   2
  -5   1  13 10.8686  1.1517   3
   3  -1 -13 40.2495  2.5040   1
  -3  -1  13 40.2616  2.4080   3
   3  -1 -13 39.8978  2.2066   2
   3   1 -13 42.4376  2.3672   1
  -3   1  13 40.1251  2.0964   3
   3   1 -13 39.5524  2.4297   2
  -1  -1  13 142.910   5.405   3
   1  -1 -13 140.674   5.257   2
   1  -1 -13 143.239   5.512   1
  -1   1  13 138.660   5.122   3
   1   1 -13 135.175   5.511   2
   1   1 -13 143.413   5.337   1
   1  -1  13 58.9658  2.9412   3
  -1  -1 -13 62.2394  3.0489   1
  -1  -1 -13 55.3847  2.6056   2
   1   1  13 56.3302  2.6743   3
  -1   1 -13 59.8943  2.9766   2
  -1   1 -13 55.2057  2.8046   1
   3  -1  13 69.8013  3.1660   3
  -3  -1 -13 68.3372  3.2930   1
  -3  -1 -13 68.6781  2.8667   2
  -3   1 -13 64.4463  3.1646   2
   3   1  13 65.0405  3.0151   3
  -3   1 -13 63.9921  3.1908   1
  -5  -1 -13 3.37365 1.15529   1
   5  -1  13 2.66038 1.06571   3
   5   1  13 4.27404 1.09325   3
  -5   1 -13 3.45456 1.13973   1
  -5   1 -13 3.08247 0.95354   2
  -7  -1 -13 3.21839 1.17142   1
  -7  -1 -13 2.34012 0.62553   2
   7  -1  13 2.80635 1.15711   3
   7   1  13 4.55548 1.15839   3
  -7   1 -13 1.93421 0.95266   2
  -7   1 -13 4.48478 1.22555   1
   9  -1  13 15.5825  1.8264   3
  -9  -1 -13 15.7083  1.9393   1
   9   1  13 17.2994  1.7932   3
  -9   1 -13 15.5714  1.8543   1
  -9   1 -13 19.9631  1.8352   2
 -11  -1 -13 -1.5964  1.0859   1
  11  -1  13 -1.6990  1.1097   3
 -11   1 -13 -0.4715  1.1186   1
  11   1  13 0.29616 1.22765   3
 -11   1 -13 0.89066 0.95374   2
  13  -1  13 -2.0223  1.3094   3
 -13  -1 -13 -0.4114  1.1940   1
  13   1  13 1.69344 1.37338   3
 -13   1 -13 -0.2098  1.1725   1
 -13   1 -13 -1.0723  1.0219   2
  15  -1  13 27.0933  2.5543   3
 -15  -1 -13 25.4881  2.5881   1
 -15   1 -13 23.5302  2.4875   1
  15   1  13 30.4445  2.5619   3
  17  -1  13 5.49178 1.89833   3
 -17  -1 -13 5.00240 1.75765   1
  17   1  13 2.06899 1.71282   3
 -17   1 -13 1.68853 1.61713   1
 -19  -1 -13 18.1270  2.4673   1
  19  -1  13 20.9086  2.6059   3
 -19   1 -13 18.8522  2.5566   1
  19   1  13 17.8743  2.5680   3
 -21  -1 -13 15.7202  2.2933   1
  21  -1  13 18.0196  2.4848   3
  21   1  13 14.4382  2.4029   3
 -21   1 -13 17.5234  2.4621   1
  23  -1  13 2.33301 1.73127   3
 -23  -1 -13 4.59044 1.81610   1
  23   1  13 2.20132 2.05994   3
 -23   1 -13 2.05673 1.66677   1
  25  -1  13 0.12992 1.55369   3
 -25  -1 -13 -0.7345  1.4071   1
  25   1  13 0.19489 1.79653   3
 -25   1 -13 -0.1494  1.6124   1
  27  -1  13 -2.4595  1.5426   3
 -27  -1 -13 -0.8893  1.4182   1
 -27   1 -13 -3.6249  1.4238   1
  27   1  13 -1.4767  1.7616   3
  29  -1  13 -2.4042  1.6726   3
 -29  -1 -13 0.47316 1.68173   1
  29   1  13 -3.2015  1.7883   3
 -29   1 -13 -1.1257  1.6433   1
 -31  -1 -13 1.50533 1.98738   1
  31  -1  13 -0.9601  1.9753   3
  31   1  13 -2.5693  1.9485   3
 -31   1 -13 0.14523 1.92244   1
 -33  -1 -13 1.65262 2.03558   1
  33  -1  13 1.66768 2.20546   3
  33   1  13 -0.7082  2.1799   3
 -33   1 -13 2.91441 2.20641   1
  35  -1  13 -1.8231  2.1574   3
 -35  -1 -13 1.03299 2.20510   1
  35   1  13 2.64419 2.59571   3
 -35   1 -13 -1.0028  2.1000   1
  42   2 -13 1.51375 2.08906   2
  40  -2 -13 15.6732  3.0379   2
  40   2 -13 7.66693 2.38003   2
  38  -2 -13 -0.7841  1.7584   2
  38   2 -13 3.52901 1.87651   2
  36  -2 -13 1.61725 2.01813   2
  36   2 -13 0.10997 1.61411   2
  34  -2 -13 3.21567 1.97687   2
  34   2 -13 4.25796 2.03596   2
  32  -2 -13 15.4143  2.5787   2
  32   2 -13 13.6841  2.5231   2
  30  -2 -13 1.56143 1.59941   2
 -30   2  13 2.03368 1.73654   1
  30   2 -13 2.09062 1.69480   2
  28  -2 -13 10.8239  2.0725   2
  28   2 -13 13.5522  2.0830   2
 -28   2  13 5.11100 2.07353   1
  26  -2 -13 7.43091 2.03393   2
  26   2 -13 9.91593 1.89196   2
 -26   2  13 9.64659 2.15309   1
  24  -2 -13 85.6678  4.4736   2
  24   2 -13 77.2241  4.0500   2
 -24   2  13 81.1080  4.3946   1
  22  -2 -13 36.2607  2.7625   2
  22   2 -13 40.3219  2.7729   2
  20  -2 -13 151.767   6.151   1
  20  -2 -13 144.469   6.220   2
  20   2 -13 150.359   6.205   2
  18  -2 -13 27.7485  2.2356   2
  18  -2 -13 29.7721  2.4627   1
  18   2 -13 28.0165  2.3024   2
  16  -2 -13 3.08119 1.16824   2
  16  -2 -13 -1.2132  1.3462   1
  16   2 -13 2.76839 1.20995   2
  14  -2 -13 5.57502 1.35634   2
  14  -2 -13 0.85433 1.48565   1
  14   2 -13 8.41796 1.50656   2
  14   2 -13 4.66333 1.08534   1
  12  -2 -13 20.6022  1.9656   2
  12  -2 -13 16.2130  2.0549   1
  12   2 -13 17.9446  1.5375   1
  12   2 -13 19.5379  1.9112   2
  10  -2 -13 54.8776  3.1739   1
 -10  -2  13 47.6911  2.8882   3
  10  -2 -13 54.8623  2.9500   2
  10   2 -13 53.9715  3.0955   2
  10   2 -13 53.8790  2.5606   1
   8  -2 -13 128.890   5.128   2
  -8  -2  13 124.018   5.118   3
   8  -2 -13 123.234   5.201   1
   8   2 -13 130.605   5.339   2
   8   2 -13 130.281   4.721   1
   6  -2 -13 119.402   4.981   1
   6  -2 -13 111.525   4.660   2
  -6  -2  13 115.989   4.814   3
   6   2 -13 117.401   4.424   1
  -6   2  13 116.808   4.152   3
   6   2 -13 118.162   5.007   2
   4  -2 -13 170.439   6.484   1
  -4  -2  13 168.772   6.408   3
   4  -2 -13 167.093   6.245   2
   4   2 -13 177.030   6.702   2
   4   2 -13 170.372   6.052   1
  -4   2  13 165.187   5.792   3
   2  -2 -13 51.3730  2.8864   1
  -2  -2  13 48.7331  2.8309   3
   2  -2 -13 46.1983  2.3814   2
  -2   2  13 50.9128  2.2947   3
   2   2 -13 49.5111  2.5460   1
   2   2 -13 52.0000  2.9673   2
   0  -2  13 166.013   6.280   3
   0  -2 -13 169.135   6.366   1
   0  -2 -13 150.670   5.866   2
   0   2  13 169.751   5.857   3
   0   2 -13 167.767   6.512   2
   0   2 -13 171.024   6.071   1
   2  -2  13 3.49310 1.16729   3
  -2  -2 -13 4.43515 1.25875   1
  -2  -2 -13 2.15557 0.59933   2
  -2   2 -13 1.69523 1.05107   1
  -2   2 -13 3.35081 1.11594   2
   2   2  13 1.16523 0.97523   3
   4  -2  13 38.1720  2.3960   3
  -4  -2 -13 38.2313  2.4543   1
  -4  -2 -13 33.7290  1.7039   2
  -4   2 -13 34.7565  2.2557   1
   4   2  13 34.7231  2.1807   3
  -4   2 -13 39.2904  2.5212   2
  -6  -2 -13 1.15369 0.70427   1
   6  -2  13 3.05955 1.13283   3
  -6   2 -13 1.69150 1.10332   1
  -6   2 -13 4.01352 1.13107   2
   6   2  13 2.68521 1.17321   3
   8  -2  13 0.71257 1.15119   3
  -8  -2 -13 0.07313 0.36824   1
  -8   2 -13 2.37955 1.11600   2
   8   2  13 1.41011 1.11743   3
  -8   2 -13 1.76147 1.14138   1
  10  -2  13 57.0750  3.2653   3
 -10  -2 -13 59.9733  3.2864   1
 -10   2 -13 59.2344  3.2319   1
  10   2  13 66.0108  3.2745   3
 -10   2 -13 60.1881  3.2775   2
  12  -2  13 11.3124  1.8576   3
 -12  -2 -13 9.29613 1.77890   1
 -12   2 -13 11.6719  1.7092   2
  12   2  13 11.0375  1.7323   3
 -12   2 -13 11.8114  1.7547   1
  14  -2  13 99.9103  4.6669   3
 -14  -2 -13 103.818   4.757   1
  14   2  13 93.3289  4.4098   3
 -14   2 -13 94.8309  4.5374   1
 -14   2 -13 93.6198  4.5349   2
 -16  -2 -13 0.79334 1.52860   1
  16  -2  13 -0.0575  1.5292   3
  16   2  13 5.33881 1.73544   3
 -16   2 -13 -0.8774  1.3293   2
 -16   2 -13 -0.3751  1.4263   1
  18  -2  13 43.1035  3.1731   3
 -18  -2 -13 40.4055  3.1068   1
  18   2  13 40.3140  3.0662   3
 -18   2 -13 38.1109  3.2351   1
  20  -2  13 1.82441 1.67345   3
 -20  -2 -13 2.13769 1.64176   1
  20   2  13 0.21637 1.75860   3
 -20   2 -13 -0.3679  1.7524   1
  22  -2  13 19.5270  2.5113   3
 -22  -2 -13 22.3604  2.6094   1
 -22   2 -13 15.0476  2.4879   1
  22   2  13 14.0635  2.4407   3
 -24  -2 -13 8.84873 2.03213   1
  24  -2  13 8.54668 2.03989   3
 -24   2 -13 7.88942 2.09654   1
  24   2  13 5.67033 2.05203   3
  26  -2  13 19.9147  2.7586   3
 -26  -2 -13 13.3556  2.3408   1
 -26   2 -13 12.8177  2.3771   1
  26   2  13 14.6181  2.5514   3
  28  -2  13 1.76980 1.89062   3
 -28  -2 -13 0.56176 1.79610   1
 -28   2 -13 -0.3740  1.7144   1
  28   2  13 -0.2157  1.9348   3
 -30  -2 -13 2.43918 2.01250   1
  30  -2  13 2.80827 2.15352   3
  30   2  13 1.27115 2.08965   3
 -30   2 -13 4.16056 2.15397   1
  32  -2  13 2.52791 2.39732   3
 -32  -2 -13 3.69145 2.14817   1
  32   2  13 2.14049 2.27818   3
 -32   2 -13 4.82892 2.28645   1
  34  -2  13 5.59631 2.63557   3
 -34   2 -13 6.70425 2.53370   1
  34   2  13 7.75288 2.70224   3
 -36  -2 -13 3.49053 2.32050   1
  41   3 -13 2.17286 1.94690   2
  39  -3 -13 1.74281 2.12954   2
  39   3 -13 3.69464 2.00185   2
  37  -3 -13 3.39604 2.06469   2
  37   3 -13 0.42143 1.78704   2
  35  -3 -13 2.27736 1.99944   2
  35   3 -13 2.55628 1.93143   2
 -35   3  13 1.70729 1.94237   1
  33  -3 -13 21.2931  2.9717   2
  33   3 -13 23.3919  2.9578   2
 -33   3  13 23.3473  3.1299   1
  31  -3 -13 30.8803  3.3620   2
  31   3 -13 31.4481  2.8700   2
 -31   3  13 29.7869  3.4774   1
  29  -3 -13 53.7576  3.9225   2
  29   3 -13 48.6363  3.5528   2
 -29   3  13 52.0750  3.9840   1
  27  -3 -13 23.0400  2.9075   2
  27   3 -13 21.8561  2.5774   2
 -27   3  13 20.1416  2.9446   1
  25  -3 -13 11.1013  2.0760   2
  25   3 -13 11.1020  1.9669   2
 -25   3  13 11.0369  2.1919   1
  23  -3 -13 35.7172  2.9088   2
  23   3 -13 29.7316  2.5996   2
  21  -3 -13 5.32845 1.51151   2
  21  -3 -13 4.70296 1.67000   1
  21   3 -13 3.75200 1.38227   2
  19  -3 -13 94.0604  4.5906   1
  19  -3 -13 94.9259  4.6110   2
  19   3 -13 98.0969  4.5981   2
  17  -3 -13 2.05296 1.12666   2
  17  -3 -13 0.40728 1.51784   1
  17   3 -13 2.16457 1.11787   2
  15  -3 -13 37.1497  2.5343   2
  15  -3 -13 31.9511  2.6825   1
  15   3 -13 37.6582  2.5666   2
  13  -3 -13 30.6110  2.6102   1
  13  -3 -13 33.5882  2.4973   2
  13   3 -13 33.5037  2.4647   2
  11  -3 -13 132.341   5.639   1
 -11  -3  13 132.675   5.546   3
  11  -3 -13 130.918   5.513   2
  11   3 -13 139.339   5.787   2
   9  -3 -13 46.5406  3.1055   1
   9  -3 -13 48.8871  2.8559   2
  -9  -3  13 53.8217  3.1247   3
   9   3 -13 49.0707  3.0154   2
   9   3 -13 50.1947  2.3783   1
  -7  -3  13 405.438  13.940   3
   7  -3 -13 409.028  13.924   1
   7  -3 -13 410.497  13.896   2
   7   3 -13 405.394  13.120   1
   7   3 -13 420.407  14.351   2
   5  -3 -13 15.4108  1.9056   1
  -5  -3  13 13.1197  1.7989   3
   5  -3 -13 11.1927  1.4427   2
   5   3 -13 13.2043  1.8201   2
   5   3 -13 16.3972  1.4530   1
   3  -3 -13 94.6470  3.8517   2
   3  -3 -13 95.3430  4.2773   1
  -3  -3  13 86.3683  4.1350   3
   3   3 -13 89.0841  3.6641   1
   3   3 -13 92.9299  4.4220   2
  -3   3  13 95.5434  3.4825   3
   1  -3 -13 12.3922  1.7602   1
  -1  -3  13 8.15020 1.52040   3
   1  -3 -13 11.4762  1.2067   2
   1   3 -13 9.22473 1.56724   2
  -1   3  13 8.68722 1.15251   3
   1   3 -13 7.57615 1.15134   1
   1  -3  13 259.636   9.079   3
  -1  -3 -13 231.954   8.377   2
  -1   3 -13 246.097   8.512   1
  -1   3 -13 257.244   9.328   2
   1   3  13 250.322   8.412   3
   3  -3  13 12.1661  1.7635   3
  -3   3 -13 12.0421  1.7595   2
  -3   3 -13 8.52565 1.35601   1
   3   3  13 9.84043 1.35195   3
   5  -3  13 74.4731  3.6626   3
  -5   3 -13 69.3095  3.3546   1
  -5   3 -13 74.9411  3.8134   2
   5   3  13 72.4750  3.2643   3
  -7  -3 -13 7.40273 1.56379   1
   7  -3  13 7.05975 1.57771   3
   7   3  13 9.30330 1.48877   3
  -7   3 -13 9.21859 1.63977   2
  -7   3 -13 10.0834  1.5062   1
   9  -3  13 58.7100  3.3873   3
  -9  -3 -13 62.7226  3.5505   1
  -9   3 -13 58.6129  3.1623   1
  -9   3 -13 66.5473  3.6005   2
   9   3  13 59.2379  3.0696   3
 -11  -3 -13 2.01009 1.42521   1
  11  -3  13 0.27953 1.37260   3
  11   3  13 3.89886 1.36891   3
 -11   3 -13 3.43364 1.46550   2
 -11   3 -13 1.36372 1.23766   1
  13  -3  13 163.983   6.932   3
 -13  -3 -13 177.345   7.087   1
 -13   3 -13 176.499   7.177   2
 -13   3 -13 175.328   6.873   1
  13   3  13 168.688   6.644   3
 -15  -3 -13 37.2252  3.0327   1
  15  -3  13 33.9681  2.9424   3
  15   3  13 41.2093  2.8579   3
 -15   3 -13 36.9585  2.8559   1
 -15   3 -13 40.4700  3.1060   2
 -17  -3 -13 33.8793  3.0915   1
  17  -3  13 37.7185  3.0811   3
  17   3  13 38.9261  2.8915   3
 -17   3 -13 33.4355  3.0819   2
 -17   3 -13 37.6648  3.0584   1
  19  -3  13 21.7235  2.6472   3
 -19  -3 -13 21.7268  2.6357   1
  19   3  13 23.6465  2.6541   3
 -19   3 -13 18.9172  2.5225   1
  21  -3  13 12.1142  2.2388   3
 -21  -3 -13 11.8352  2.2473   1
 -21   3 -13 11.3936  2.1827   1
  21   3  13 10.7028  2.2434   3
 -23  -3 -13 3.04129 1.75207   1
  23  -3  13 4.40412 1.83608   3
 -23   3 -13 -0.3659  1.6159   1
  23   3  13 0.56125 1.85474   3
  25  -3  13 33.5759  3.1333   3
 -25  -3 -13 33.5804  3.0566   1
  25   3  13 28.5405  3.1564   3
 -25   3 -13 30.5962  3.2436   1
  27  -3  13 3.34999 1.94653   3
 -27  -3 -13 1.81354 1.83089   1
 -27   3 -13 -0.4302  1.6815   1
  27   3  13 1.41745 1.98277   3
  29  -3  13 15.3786  2.7322   3
 -29  -3 -13 10.5370  2.5268   1
  29   3  13 6.81908 2.55426   3
 -29   3 -13 9.56096 2.38091   1
 -31  -3 -13 12.6330  2.5467   1
  31  -3  13 12.5542  2.7402   3
  31   3  13 16.7972  2.9671   3
 -31   3 -13 14.8115  2.7330   1
  33  -3  13 4.35291 2.52340   3
 -33  -3 -13 10.5804  2.6900   1
  33   3  13 4.66305 2.59064   3
 -33   3 -13 8.52488 2.58090   1
  35  -3  13 10.1231  2.8930   3
 -35  -3 -13 8.98341 2.70961   1
  40   4 -13 12.1644  2.4856   2
  38  -4 -13 5.57954 2.42849   2
  38   4 -13 5.12016 2.09516   2
 -38   4  13 3.22006 2.23913   1
  36  -4 -13 16.3714  3.0835   2
 -36   4  13 20.5129  3.1387   1
  36   4 -13 20.8479  2.9047   2
  34  -4 -13 -0.0042  1.6738   2
 -34   4  13 4.36580 2.16409   1
  34   4 -13 1.52230 1.78698   2
  32  -4 -13 94.4310  5.6307   2
  32   4 -13 94.6800  5.1423   2
 -32   4  13 102.489   5.758   1
  30  -4 -13 1.94776 2.10919   2
  30   4 -13 4.62974 1.88195   2
 -30   4  13 2.73769 2.23764   1
  28  -4 -13 161.894   7.458   2
 -28   4  13 156.978   7.403   1
  28   4 -13 160.375   6.970   2
  26  -4 -13 18.8318  2.7048   2
 -26   4  13 18.2325  3.0171   1
  26   4 -13 23.5519  2.6390   2
  26   4 -13 21.2772  2.9561   3
  24  -4 -13 140.730   6.511   2
 -24   4  13 135.975   6.656   1
  24   4 -13 145.833   6.303   2
  22  -4 -13 13.0428  2.1438   2
  22   4 -13 11.3561  1.9303   2
  20  -4 -13 38.8185  2.8904   2
  20  -4 -13 38.1457  3.1535   1
  20   4 -13 40.4866  2.8169   2
  18  -4 -13 39.4714  3.0345   1
  18  -4 -13 40.1038  2.9657   2
  18   4 -13 42.9018  2.9689   2
  16  -4 -13 0.81216 1.17809   2
  16  -4 -13 -1.5808  1.3921   1
  16   4 -13 0.49794 1.07001   2
  14  -4 -13 36.7041  3.1257   1
  14  -4 -13 45.7094  2.8369   2
  14   4 -13 42.7423  2.9527   2
  12  -4 -13 242.794   9.032   1
  12  -4 -13 243.079   8.955   2
  12   4 -13 227.510   9.028   2
  10  -4 -13 27.4476  2.3287   2
 -10  -4  13 23.1670  2.5431   3
  10  -4 -13 32.4450  2.8830   1
  10   4 -13 30.1337  2.5177   2
   8  -4 -13 430.798  14.759   1
   8  -4 -13 428.943  14.683   2
  -8  -4  13 415.499  14.730   3
   8   4 -13 449.901  15.269   2
   6  -4 -13 37.0734  2.7675   1
   6  -4 -13 37.5584  2.4052   2
  -6  -4  13 35.5368  2.6466   3
   6   4 -13 36.7580  2.7471   2
   4  -4 -13 95.0359  4.4193   1
   4  -4 -13 98.4355  4.0136   2
  -4  -4  13 92.4748  4.3852   3
   4   4 -13 94.0460  3.6503   1
   4   4 -13 89.9200  4.6237   2
   2  -4 -13 46.9058  2.9293   1
  -2  -4  13 50.6861  3.0750   3
   2  -4 -13 57.3144  2.6127   2
   2   4 -13 49.8494  3.1235   2
  -2   4  13 46.8474  2.2739   3
   2   4 -13 48.8444  2.4165   1
   0  -4 -13 15.5025  1.2860   2
   0  -4  13 15.9076  2.0058   3
   0  -4 -13 9.94143 1.63632   1
   0   4 -13 15.8895  1.5203   1
   0   4  13 15.2913  1.3952   3
   0   4 -13 15.1417  2.0725   2
  -2  -4 -13 42.8854  2.8800   1
   2  -4  13 46.9507  2.9524   3
  -2   4 -13 46.6082  2.4998   1
  -2   4 -13 47.6221  3.1103   2
   2   4  13 41.8908  2.3710   3
   4  -4  13 18.7869  2.2193   3
  -4  -4 -13 19.0237  2.1906   1
   4   4  13 20.7877  1.8189   3
  -4   4 -13 22.6953  2.4365   2
  -4   4 -13 20.1958  1.8325   1
  -6  -4 -13 74.0073  3.8856   1
   6  -4  13 62.3920  3.6723   3
  -6   4 -13 70.5850  3.9119   2
  -6   4 -13 69.3522  3.3647   1
   6   4  13 66.2479  3.2331   3
   8  -4  13 37.9988  2.9460   3
  -8  -4 -13 41.8728  2.9914   1
  -8   4 -13 40.5054  3.0707   2
   8   4  13 45.6783  2.6444   3
  -8   4 -13 41.4877  2.6690   1
  10  -4  13 89.1577  4.6750   3
 -10  -4 -13 94.4895  4.7137   1
 -10   4 -13 103.282   4.486   1
  10   4  13 94.7360  4.3014   3
 -10   4 -13 99.2129  4.9314   2
  12  -4  13 79.1060  4.4078   3
 -12  -4 -13 75.5900  4.3047   1
 -12   4 -13 87.0357  4.6267   2
 -12   4 -13 89.7721  4.2661   1
  12   4  13 88.6686  4.1240   3
  14  -4  13 188.953   7.919   3
 -14  -4 -13 189.718   7.842   1
 -14   4 -13 191.465   8.144   2
  14   4  13 205.277   7.594   3
 -14   4 -13 199.585   7.700   1
 -16  -4 -13 8.40337 2.10164   1
  16  -4  13 12.3108  2.2733   3
 -16   4 -13 12.4723  2.2545   2
  16   4  13 12.1589  2.0609   3
 -16   4 -13 12.5166  2.1974   1
  18  -4  13 48.4907  3.5142   3
 -18  -4 -13 50.6325  3.5473   1
 -18   4 -13 53.5299  3.4540   1
 -18   4 -13 48.2421  3.7880   2
  18   4  13 49.2104  3.3005   3
 -20  -4 -13 -1.2148  1.5008   1
  20  -4  13 1.03509 1.65789   3
 -20   4 -13 -0.3161  1.5385   2
  20   4  13 0.21812 1.74612   3
 -20   4 -13 -1.8171  1.6104   1
  22  -4  13 6.82092 2.00290   3
 -22  -4 -13 6.30098 1.99212   1
  22   4  13 3.53393 1.89870   3
 -22   4 -13 3.52236 1.92672   1
  24  -4  13 1.04147 1.78554   3
 -24  -4 -13 -2.2372  1.6090   1
  24   4  13 -3.9900  1.6796   3
 -24   4 -13 -1.8441  1.6308   1
 -26  -4 -13 9.49066 2.19471   1
  26  -4  13 8.31322 2.29429   3
 -26   4 -13 11.9296  2.4795   1
  26   4  13 6.90620 2.38250   3
 -28  -4 -13 1.05219 1.78089   1
  28  -4  13 3.19681 2.00908   3
 -28   4 -13 0.89034 1.99547   1
  28   4  13 -2.4117  1.9681   3
 -30  -4 -13 19.5204  2.9357   1
  30  -4  13 16.2595  2.9829   3
 -30   4 -13 18.0248  2.9943   1
  30   4  13 13.7573  2.9625   3
  32  -4  13 1.57739 2.26772   3
 -32  -4 -13 3.26067 2.21685   1
  32   4  13 -3.0971  2.1955   3
 -32   4 -13 0.38984 1.97262   1
  34  -4  13 23.3066  3.5843   3
 -34  -4 -13 18.9856  3.2459   1
 -39   5  13 6.89686 2.50865   1
  39   5 -13 4.15625 2.19708   2
  37  -5 -13 3.68482 2.32969   2
 -37   5  13 2.88687 2.22192   1
  37   5 -13 4.41829 2.00761   2
  35  -5 -13 16.0211  2.9812   2
  35   5 -13 14.3779  2.5653   2
 -35   5  13 15.9811  2.9268   1
  33  -5 -13 35.6586  4.0801   2
  33   5 -13 34.4079  3.2337   2
 -33   5  13 39.2828  4.0774   1
  31  -5 -13 33.9934  3.7825   2
 -31   5  13 25.0454  3.5146   1
  31   5 -13 28.1170  3.1138   2
  29  -5 -13 103.773   5.935   2
  29   5 -13 111.323   5.559   2
 -29   5  13 112.532   6.163   1
  29   5 -13 111.568   6.116   3
  27  -5 -13 67.8399  4.6973   2
  27   5 -13 69.6871  4.2247   2
 -27   5  13 75.0457  4.9342   1
  27   5 -13 67.2799  4.6842   3
  25  -5 -13 62.6087  4.2316   2
  25   5 -13 69.8802  4.7021   3
  25   5 -13 66.2780  3.9455   2
 -25   5  13 66.9704  4.7069   1
  23  -5 -13 52.7576  3.8373   2
  23   5 -13 58.9632  3.6934   2
  21  -5 -13 6.18171 2.06187   1
  21  -5 -13 9.38829 1.95074   2
  21   5 -13 5.47435 1.61959   2
  19  -5 -13 72.9650  4.1735   2
  19  -5 -13 65.4863  4.1321   1
  19   5 -13 73.4999  4.1231   2
  17  -5 -13 0.47657 1.63042   1
  17  -5 -13 0.02070 1.18745   2
  17   5 -13 4.08174 1.48862   2
  15  -5 -13 160.506   6.987   2
  15  -5 -13 170.137   7.160   1
  15   5 -13 178.303   7.254   2
  13  -5 -13 0.95603 1.20093   2
  13  -5 -13 0.44826 1.58213   1
  13   5 -13 0.25985 1.21165   2
  11  -5 -13 197.748   7.893   1
  11  -5 -13 191.180   7.604   2
  11   5 -13 194.683   8.007   2
   9  -5 -13 59.4848  3.3195   2
  -9  -5  13 59.0882  3.5311   3
   9  -5 -13 53.5597  3.4790   1
   9   5 -13 56.4162  3.5378   2
   7  -5 -13 202.207   8.006   1
   7  -5 -13 206.701   7.712   2
  -7  -5  13 202.382   8.020   3
   7   5 -13 206.658   8.351   2
  -5  -5  13 23.2050  2.4354   3
   5  -5 -13 17.2115  2.1867   1
   5  -5 -13 17.1319  1.8196   2
   5   5 -13 19.4874  2.4314   2
  -3  -5  13 140.143   6.225   3
   3  -5 -13 143.482   6.181   1
   3  -5 -13 154.540   5.735   2
   3   5 -13 151.318   6.528   2
  -1  -5  13 4.74162 1.61935   3
   1  -5 -13 6.32918 1.62521   1
   1   5 -13 6.48560 1.23659   1
   1   5 -13 4.36054 1.53810   2
  -1  -5 -13 134.362   5.870   1
   1  -5  13 134.675   5.967   3
   1   5  13 136.958   5.086   3
  -1   5 -13 139.733   5.159   1
  -1   5 -13 133.133   6.156   2
   3  -5  13 16.2422  2.2990   3
  -3  -5 -13 16.8991  2.3524   1
   3   5  13 18.2514  1.7916   3
  -3   5 -13 21.2177  1.9072   1
  -3   5 -13 15.0870  2.2129   2
  -5  -5 -13 176.116   7.283   1
   5  -5  13 171.783   7.332   3
  -5   5 -13 181.463   6.720   1
   5   5  13 184.614   6.650   3
  -5   5 -13 185.794   7.708   2
  -7  -5 -13 9.22066 2.06515   1
   7  -5  13 7.12979 1.99052   3
   7   5  13 9.43821 1.56345   3
  -7   5 -13 9.39963 2.03451   2
  -7   5 -13 8.70978 1.58830   1
  -9  -5 -13 192.815   7.966   1
   9  -5  13 197.578   8.152   3
  -9   5 -13 209.842   7.615   1
   9   5  13 202.415   7.509   3
  -9   5 -13 200.723   8.446   2
  11  -5  13 6.34949 2.04199   3
 -11  -5 -13 5.27586 1.91456   1
 -11   5 -13 9.01317 2.03835   2
  11   5  13 10.5234  1.8091   3
 -11   5 -13 9.85513 1.81827   1
 -13  -5 -13 168.739   7.437   1
  13  -5  13 183.697   7.635   3
 -13   5 -13 185.357   7.235   1
 -13   5 -13 185.505   8.027   2
  13   5  13 179.511   7.065   3
  15  -5  13 17.7083  2.6012   3
 -15  -5 -13 17.7758  2.6330   1
  15   5  13 16.6384  2.2703   3
 -15   5 -13 17.7309  2.7229   2
 -15   5 -13 13.9347  2.2665   1
  17  -5  13 71.5137  4.2597   3
 -17  -5 -13 64.5592  4.0939   1
 -17   5 -13 61.4956  4.3973   2
  17   5  13 66.3767  3.8388   3
 -17   5 -13 69.4162  4.0554   1
 -19  -5 -13 17.1595  2.5753   1
  19  -5  13 17.0176  2.6421   3
  19   5  13 16.1116  2.5106   3
 -19   5 -13 16.9361  2.5086   1
 -19   5 -13 15.7194  2.7139   2
  21  -5  13 25.2312  3.0695   3
 -21  -5 -13 23.7965  3.0475   1
 -21   5 -13 27.8976  3.2935   2
 -21   5 -13 24.3279  2.9745   1
  21   5  13 25.4760  2.9174   3
 -23  -5 -13 18.3447  2.7275   1
  23  -5  13 18.0193  2.8040   3
 -23   5 -13 13.9930  2.4790   1
  23   5  13 12.4913  2.4559   3
 -25  -5 -13 3.16012 1.88971   1
  25  -5  13 4.88435 2.16256   3
  25   5  13 3.75366 2.15157   3
 -25   5 -13 2.95335 1.95595   1
  27  -5  13 10.4649  2.6921   3
 -27  -5 -13 12.6890  2.5524   1
 -27   5 -13 11.0803  2.5867   1
  27   5  13 11.0486  2.6291   3
 -29  -5 -13 3.70006 2.08068   1
  29  -5  13 3.72836 2.26686   3
  29   5  13 5.44468 2.45754   3
 -29   5 -13 6.79165 2.36678   1
  31  -5  13 3.23561 2.49504   3
 -31  -5 -13 2.97217 2.19562   1
 -31   5 -13 2.12323 2.19727   1
  31   5  13 4.64848 2.73454   3
  38   6 -13 -1.0379  1.8603   2
  36  -6 -13 16.0826  3.2658   2
 -36   6  13 17.2935  3.1588   1
  36   6 -13 20.7089  2.9315   2
  34  -6 -13 3.02919 2.35330   2
 -34   6  13 6.38483 2.44307   1
  34   6 -13 0.66621 1.79578   2
  32  -6 -13 43.9979  3.9799   2
 -32   6  13 47.9095  4.1144   1
  32   6 -13 38.7954  3.4199   2
  30  -6 -13 3.57439 2.31819   2
 -30   6  13 -1.6914  2.0894   1
  30   6 -13 -2.1884  1.9981   3
  30   6 -13 -2.5826  1.5814   2
  28  -6 -13 103.946   6.092   2
 -28   6  13 107.232   6.295   1
  28   6 -13 120.346   5.785   2
  28   6 -13 124.903   6.567   3
  26  -6 -13 9.06489 2.38524   2
 -26   6  13 8.15310 2.60669   1
  26   6 -13 9.63399 2.24503   2
  26   6 -13 11.1102  2.7346   3
  24  -6 -13 94.2729  5.4850   2
  24   6 -13 96.3217  4.9859   2
 -24   6  13 99.1390  5.8248   1
  22  -6 -13 7.44702 2.08301   2
  22   6 -13 8.38482 2.02380   2
  20  -6 -13 49.8786  3.7012   2
  20  -6 -13 50.1545  3.8368   1
  20   6 -13 56.5845  3.6720   2
  18  -6 -13 -2.5387  1.8123   1
  18  -6 -13 2.84848 1.56486   2
  18   6 -13 2.47252 1.49446   2
  16  -6 -13 69.8539  4.4271   1
  16  -6 -13 74.0441  4.2014   2
  16   6 -13 68.2600  4.1486   2
  14  -6 -13 10.8623  2.3374   1
  14  -6 -13 17.6107  2.2911   2
  14   6 -13 13.3681  2.1816   2
  12  -6 -13 102.284   4.793   2
  12  -6 -13 87.3953  4.8445   1
  12   6 -13 93.1122  5.0307   2
  10  -6 -13 81.8448  4.1320   2
  10  -6 -13 76.6795  4.4082   1
  10   6 -13 75.3804  4.4757   2
   8  -6 -13 87.7969  4.6837   1
   8  -6 -13 92.3187  4.3188   2
  -8  -6  13 94.1171  4.7541   3
   8   6 -13 81.2763  4.6735   2
   6  -6 -13 100.183   5.167   1
  -6  -6  13 105.589   5.301   3
   6  -6 -13 114.524   4.862   2
   6   6 -13 109.471   5.440   2
  -4  -6  13 175.411   7.198   3
   4  -6 -13 169.649   7.092   1
   4   6 -13 150.937   7.157   2
   2  -6 -13 76.3643  4.3536   1
  -2  -6  13 78.3899  4.5313   3
   2   6 -13 86.4489  4.7444   2
   0  -6 -13 87.5037  4.5795   1
   0  -6  13 87.7880  4.6753   3
   0   6 -13 82.9865  4.6714   2
   2  -6  13 66.6903  4.1011   3
  -2  -6 -13 68.7617  4.0200   1
  -2   6 -13 69.5519  4.2794   2
  -4  -6 -13 39.2572  3.1194   1
   4  -6  13 37.5894  3.2070   3
  -4   6 -13 38.2768  3.2979   2
  -4   6 -13 44.7269  2.6074   1
   4   6  13 40.1079  2.5204   3
  -6  -6 -13 113.032   5.555   1
   6  -6  13 115.345   5.734   3
   6   6  13 128.958   5.057   3
  -6   6 -13 116.635   5.930   2
  -6   6 -13 123.595   5.052   1
   8  -6  13 21.5672  2.7996   3
  -8  -6 -13 18.0391  2.6462   1
  -8   6 -13 22.2515  2.9460   2
   8   6  13 24.3839  2.1906   3
  -8   6 -13 22.8523  2.2340   1
 -10  -6 -13 100.514   5.239   1
  10  -6  13 99.5492  5.2925   3
  10   6  13 104.918   4.744   3
 -10   6 -13 108.105   5.734   2
 -10   6 -13 112.764   4.849   1
  12  -6  13 15.9033  2.6475   3
 -12  -6 -13 18.6856  2.6045   1
  12   6  13 18.5913  2.2592   3
 -12   6 -13 18.5946  2.2897   1
 -12   6 -13 16.6863  2.8691   2
  14  -6  13 124.483   5.980   3
 -14  -6 -13 115.456   5.731   1
 -14   6 -13 116.376   6.260   2
 -14   6 -13 115.789   5.391   1
  14   6  13 113.356   5.327   3
  16  -6  13 11.2723  2.4474   3
 -16  -6 -13 10.3023  2.4412   1
 -16   6 -13 6.78182 2.33872   2
 -16   6 -13 11.2392  2.2298   1
  16   6  13 11.4282  2.1453   3
  18  -6  13 75.5770  4.6179   3
 -18  -6 -13 75.3611  4.5950   1
 -18   6 -13 71.8316  4.2978   1
 -18   6 -13 73.0197  5.0247   2
  18   6  13 67.8747  4.1492   3
  20  -6  13 1.76917 1.88578   3
 -20  -6 -13 4.35299 2.02922   1
 -20   6 -13 4.42849 2.25115   2
  20   6  13 3.54401 2.07013   3
 -20   6 -13 4.32127 2.01494   1
  22  -6  13 45.9539  3.7445   3
 -22  -6 -13 45.0596  3.7418   1
 -22   6 -13 40.8995  3.3760   1
  22   6  13 38.1683  3.5512   3
 -22   6 -13 45.0243  4.0592   2
  24  -6  13 1.91057 1.91365   3
 -24  -6 -13 1.14581 1.86439   1
 -24   6 -13 -1.4179  1.7043   1
  24   6  13 -3.0772  1.9619   3
 -24   6 -13 0.88463 1.95191   2
  26  -6  13 23.6977  3.3309   3
 -26  -6 -13 22.2477  3.1179   1
 -26   6 -13 20.5534  3.0556   1
  26   6  13 18.0603  2.9538   3
 -28  -6 -13 0.92421 1.98437   1
  28  -6  13 1.36968 1.97921   3
 -28   6 -13 0.02298 1.87511   1
  28   6  13 -3.0046  1.9902   3
  30  -6  13 11.4036  2.8134   3
 -30  -6 -13 8.68332 2.57206   1
 -30   6 -13 13.7518  2.9081   1
  30   6  13 8.91290 2.90160   3
  35   7 -13 3.76118 2.07964   2
  33  -7 -13 21.8015  3.6810   2
 -33   7  13 21.5138  3.5033   1
  33   7 -13 18.6282  2.8259   2
  33   7 -13 22.7279  3.6534   3
  31  -7 -13 1.18648 2.13792   2
  31   7 -13 1.99407 2.40418   3
 -31   7  13 3.53539 2.23504   1
  31   7 -13 0.07885 1.75729   2
  29  -7 -13 11.9238  2.7937   2
  29   7 -13 17.5152  3.2276   3
 -29   7  13 14.1519  2.9970   1
  29   7 -13 13.2601  2.4972   2
  27  -7 -13 32.7122  3.9233   2
  27   7 -13 31.9910  3.1202   2
 -27   7  13 28.8214  3.7892   1
  27   7 -13 36.0231  4.1225   3
  25  -7 -13 9.20559 2.35493   2
 -25   7  13 11.4367  2.8821   1
  25   7 -13 8.55202 2.19115   2
  23  -7 -13 89.3782  5.3630   2
 -23   7  13 81.7772  5.5713   1
  23   7 -13 90.5747  4.9974   2
  21  -7 -13 12.4140  2.3985   2
  21   7 -13 10.6105  2.1186   2
  19  -7 -13 72.4420  4.5476   2
  19  -7 -13 69.4480  4.7423   1
  19   7 -13 71.8586  4.3779   2
  17  -7 -13 34.5226  3.1156   2
  17  -7 -13 31.9966  3.4224   1
  17   7 -13 28.1276  3.0937   2
  15  -7 -13 36.7172  3.0806   2
  15  -7 -13 34.7307  3.5337   1
  15   7 -13 30.9747  2.9464   2
  13  -7 -13 45.9496  3.7246   1
  13  -7 -13 44.6525  3.3179   2
  13   7 -13 46.0141  3.4711   2
  11  -7 -13 76.1057  4.4555   1
  11  -7 -13 75.7715  4.1670   2
  11   7 -13 66.6768  4.3005   2
   9  -7 -13 16.2060  2.6027   1
   9  -7 -13 12.2931  2.0779   2
   9   7 -13 11.8198  2.2704   2
   7  -7 -13 340.529  11.719   2
   7  -7 -13 311.112  11.905   1
  -7  -7  13 318.697  12.042   3
   7   7 -13 301.836  12.204   2
  -5  -7  13 7.05227 2.24733   3
   5  -7 -13 5.88043 2.07208   1
   5   7 -13 3.78836 1.95991   2
   3  -7 -13 239.231   9.423   1
  -3  -7  13 241.059   9.589   3
   3   7 -13 233.578   9.790   2
   1  -7 -13 5.36811 2.02466   1
  -1  -7  13 5.78072 2.10900   3
   1   7 -13 8.15300 2.12833   2
   1  -7  13 48.3195  3.6321   3
  -1  -7 -13 49.6233  3.6215   1
  -1   7 -13 49.3695  3.7991   2
   3  -7  13 -1.4201  1.5272   3
  -3  -7 -13 -0.4050  1.5971   1
  -3   7 -13 1.14181 1.45617   2
  -5  -7 -13 18.5829  2.5754   1
   5  -7  13 17.0320  2.6311   3
  -5   7 -13 18.2499  2.7669   2
   7  -7  13 -2.7005  1.5220   3
  -7  -7 -13 -2.2188  1.3872   1
   7   7  13 -0.6660  1.1815   3
  -7   7 -13 -1.3399  1.6458   2
   9  -7  13 64.8732  4.2347   3
  -9  -7 -13 64.4748  4.2230   1
  -9   7 -13 63.5126  3.5136   1
  -9   7 -13 61.5669  4.5478   2
   9   7  13 70.2078  3.6238   3
 -11  -7 -13 8.77945 2.32072   1
  11  -7  13 10.2246  2.4616   3
 -11   7 -13 10.1166  1.9350   1
 -11   7 -13 7.76919 2.33750   2
  11   7  13 11.1444  1.9422   3
  13  -7  13 81.2622  4.9785   3
 -13  -7 -13 82.0737  4.8824   1
 -13   7 -13 80.3158  5.3817   2
 -13   7 -13 80.3260  4.3231   1
  13   7  13 82.1025  4.3231   3
 -15  -7 -13 24.5102  3.1262   1
 -15   7 -13 27.3523  2.9164   1
  15   7  13 25.9977  2.8525   3
 -15   7 -13 25.4303  3.5970   2
 -17  -7 -13 42.9083  3.8129   1
  17  -7  13 44.0467  3.8058   3
 -17   7 -13 46.8985  3.5826   1
 -17   7 -13 49.5387  4.4380   2
  17   7  13 42.5074  3.3498   3
 -19  -7 -13 25.3754  3.2054   1
  19  -7  13 27.8301  3.4228   3
 -19   7 -13 22.1445  2.8825   1
  19   7  13 19.8318  2.7883   3
 -19   7 -13 23.0627  3.6021   2
 -21  -7 -13 15.8123  2.8148   1
  21  -7  13 14.9691  2.8559   3
 -21   7 -13 11.2341  2.8976   2
  21   7  13 9.96334 2.45635   3
 -21   7 -13 13.7178  2.4880   1
  23  -7  13 11.1435  2.7945   3
 -23  -7 -13 9.94304 2.46079   1
 -23   7 -13 6.91448 2.65410   2
  23   7  13 3.47915 2.20642   3
 -23   7 -13 10.7550  2.5006   1
 -25  -7 -13 15.7278  2.8954   1
  25  -7  13 10.9995  2.7214   3
 -25   7 -13 10.9772  2.9803   2
  25   7  13 9.46222 2.75404   3
 -25   7 -13 10.3121  2.5560   1
  27  -7  13 3.49986 2.39354   3
 -27   7 -13 2.82261 2.09313   1
  27   7  13 0.23015 2.23494   3
  32   8 -13 15.7844  3.2891   3
  32   8 -13 12.5285  2.6114   2
  30  -8 -13 9.47257 2.80588   2
  30   8 -13 0.35162 1.90966   2
  30   8 -13 1.55318 2.56693   3
 -30   8  13 5.43544 2.59786   1
  28  -8 -13 32.4950  4.0481   2
 -28   8  13 30.2775  3.9261   1
  28   8 -13 34.3207  4.2736   3
  28   8 -13 29.1721  3.2945   2
  26  -8 -13 2.56762 2.04547   2
  26   8 -13 6.63922 2.74915   3
  26   8 -13 1.94028 1.89803   2
 -26   8  13 -4.5969  2.0374   1
  24  -8 -13 48.2178  4.1833   2
  24   8 -13 43.2308  3.6634   2
 -24   8  13 46.2299  4.4780   1
  22  -8 -13 22.8035  3.2627   2
 -22   8  13 13.1330  3.1620   1
  22   8 -13 20.8713  2.8084   2
  20  -8 -13 48.2443  4.0172   2
  20   8 -13 54.0517  3.9178   2
  18  -8 -13 19.3256  2.8367   2
  18  -8 -13 10.3174  2.7237   1
  18   8 -13 12.8572  2.4424   2
  16  -8 -13 40.1263  3.4707   2
  16  -8 -13 47.1514  3.8167   1
  16   8 -13 44.5231  3.6584   2
  14  -8 -13 -1.0373  1.4615   2
  14  -8 -13 -0.7592  1.8689   1
  14   8 -13 -0.0455  1.7008   2
  12  -8 -13 53.0909  3.7492   2
  12  -8 -13 52.1567  3.9124   1
  12   8 -13 46.4550  3.8243   2
  10  -8 -13 3.21113 1.64562   2
  10  -8 -13 0.43804 2.03515   1
  10   8 -13 -0.0881  1.7676   2
   8  -8 -13 78.7105  4.7864   1
   8   8 -13 76.1507  4.7977   2
   6  -8 -13 61.6010  4.2239   1
   6   8 -13 57.3684  4.3860   2
  -4  -8  13 83.3114  4.9709   3
   4  -8 -13 81.1624  4.8670   1
   4   8 -13 81.3233  5.1690   2
  -2  -8  13 100.809   5.515   3
   2  -8 -13 95.7414  5.3346   1
   2   8 -13 98.3734  5.7120   2
   0  -8 -13 14.9489  2.5476   1
   0  -8  13 16.1581  2.7612   3
   0   8 -13 13.2358  2.7140   2
  -2  -8 -13 34.9307  3.1902   1
   2  -8  13 33.4859  3.5719   3
  -2   8 -13 40.9016  3.5398   2
   4  -8  13 11.5723  2.4272   3
  -4  -8 -13 8.82826 2.25972   1
  -4   8 -13 10.1982  2.4893   2
   6  -8  13 11.0095  2.4726   3
  -6  -8 -13 9.84720 2.26359   1
  -6   8 -13 10.2403  2.6017   2
   8  -8  13 10.4846  2.4160   3
  -8  -8 -13 14.0995  2.5811   1
  -8   8 -13 10.4867  2.5389   2
  10  -8  13 21.2154  3.0604   3
 -10  -8 -13 19.7999  2.8797   1
 -10   8 -13 14.7953  3.0248   2
  12  -8  13 17.4285  3.1034   3
 -12  -8 -13 17.8405  2.8765   1
  12   8  13 18.6765  2.4541   3
 -12   8 -13 16.7560  3.3327   2
  14  -8  13 69.4177  4.8062   3
 -14  -8 -13 75.0193  4.8206   1
  14   8  13 76.8141  4.3686   3
 -14   8 -13 67.3123  5.3991   2
 -14   8 -13 80.5292  4.5197   1
  16  -8  13 1.69526 2.10278   3
 -16  -8 -13 2.61286 2.03506   1
  16   8  13 2.24943 1.98886   3
 -16   8 -13 -0.9693  2.4020   2
 -16   8 -13 2.72877 2.00618   1
  18  -8  13 50.6298  4.2377   3
 -18  -8 -13 55.2463  4.1824   1
  18   8  13 43.6968  3.6841   3
 -18   8 -13 46.5162  4.9493   2
 -18   8 -13 47.1927  3.8093   1
  20  -8  13 3.09824 2.25130   3
 -20  -8 -13 5.22828 2.30072   1
  20   8  13 -0.0692  2.0966   3
 -20   8 -13 1.07435 1.92466   1
 -20   8 -13 0.43325 2.23523   2
 -22  -8 -13 16.7108  3.0346   1
  22  -8  13 12.9718  2.8513   3
 -22   8 -13 18.6768  3.5417   2
 -22   8 -13 17.7287  2.9757   1
  22   8  13 13.9455  2.8395   3
  24  -8  13 0.62555 2.03203   3
 -24   8 -13 -0.5150  2.2613   2
  24   8  13 -2.7973  2.0388   3
 -24   8 -13 1.44107 2.13997   1
 -26   8 -13 12.0984  3.2383   2
 -26   8 -13 8.65101 2.59008   1
  26   8  13 4.59205 2.68943   3
  29   9 -13 30.2048  3.4813   2
  27  -9 -13 20.1263  3.5812   2
  27   9 -13 17.4995  3.6698   3
  27   9 -13 14.2546  2.7055   2
  25  -9 -13 11.5076  2.8822   2
 -25   9  13 16.6638  3.4966   1
  25   9 -13 14.9841  2.7497   2
  25   9 -13 13.3096  3.3002   3
  23  -9 -13 36.7218  4.1610   2
  23   9 -13 32.1465  3.5786   2
 -23   9  13 39.7979  4.5541   1
  21  -9 -13 3.47442 2.05605   2
 -21   9  13 -1.4397  2.4297   1
  21   9 -13 3.26253 2.02919   2
  19  -9 -13 31.9345  3.7288   2
  19   9 -13 31.3108  3.4994   2
  17  -9 -13 1.94263 1.88637   2
  17   9 -13 1.78593 1.92807   2
  15  -9 -13 13.9503  2.8664   1
  15  -9 -13 16.8633  2.7691   2
  15   9 -13 15.4243  2.7218   2
  13  -9 -13 2.57658 2.16608   1
  13   9 -13 5.12074 1.98102   2
  11  -9 -13 25.3953  3.3855   1
  11   9 -13 25.1588  3.2895   2
   9  -9 -13 21.3154  3.1914   1
   9   9 -13 21.0635  3.2042   2
   7  -9 -13 81.1326  5.1441   1
   7   9 -13 83.0412  5.3492   2
   5  -9 -13 4.38553 2.36640   1
   5   9 -13 6.21516 2.42469   2
  -3  -9  13 67.9718  4.6311   3
   3  -9 -13 66.4274  4.6502   1
   3   9 -13 62.6741  4.7695   2
   1  -9 -13 13.8813  2.7378   1
  -1  -9  13 13.6258  2.7678   3
   1   9 -13 17.5697  2.9025   2
  -1  -9 -13 35.3823  3.3998   1
   1  -9  13 40.9449  3.7038   3
  -1   9 -13 33.9677  3.9084   2
   3  -9  13 2.17038 2.08493   3
  -3  -9 -13 5.55432 2.20053   1
  -3   9 -13 6.05235 2.41114   2
  -5  -9 -13 14.5075  2.6527   1
   5  -9  13 16.2063  2.8433   3
  -5   9 -13 17.5832  3.1952   2
  -7  -9 -13 0.56742 1.80899   1
   7  -9  13 -1.0124  1.9207   3
  -7   9 -13 -0.1716  1.8986   2
  -9  -9 -13 52.9799  4.1550   1
   9  -9  13 48.9377  4.2459   3
  -9   9 -13 50.6064  4.6108   2
 -11  -9 -13 5.45832 2.48530   1
  11  -9  13 1.58100 2.20527   3
 -11   9 -13 4.56395 2.74236   2
  13  -9  13 61.3047  4.6798   3
 -13  -9 -13 64.2776  4.5880   1
 -13   9 -13 51.8653  4.8275   2
 -15  -9 -13 14.8382  2.9284   1
  15  -9  13 8.54949 2.76936   3
 -15   9 -13 6.55266 2.96766   2
  17  -9  13 22.0730  3.4614   3
 -17  -9 -13 25.8337  3.4544   1
  17   9  13 23.1843  3.0773   3
 -17   9 -13 19.1406  3.8295   2
  19  -9  13 8.23572 2.74598   3
 -19   9 -13 5.97350 2.99911   2
  19   9  13 8.62955 2.46167   3
  21  -9  13 4.70821 2.37166   3
 -21   9 -13 2.96415 2.26532   1
  21   9  13 2.21530 2.16595   3
 -21   9 -13 5.22371 2.82552   2
  23   9  13 2.01766 2.44536   3
 -23   9 -13 6.34416 2.53566   1
 -23   9 -13 10.9680  3.2345   2
  24 -10 -13 4.65431 2.48066   2
  24  10 -13 5.89742 2.39498   2
  22 -10 -13 -0.2291  2.0279   2
  22  10 -13 1.51053 2.13180   2
  20 -10 -13 3.92829 2.19454   2
 -20  10  13 3.36108 2.52810   1
  20  10 -13 4.06842 2.19873   2
  18 -10 -13 4.08712 2.32906   2
 -18  10  13 2.86362 2.43433   1
  18  10 -13 3.75715 2.24906   2
  16  10 -13 11.9019  2.7314   2
  14 -10 -13 2.94222 2.54806   1
  14  10 -13 3.49916 2.18336   2
  12 -10 -13 42.4349  4.3646   1
  12  10 -13 41.3029  3.9545   2
  10 -10 -13 3.14762 2.25032   1
  10  10 -13 8.33248 2.58260   2
   8 -10 -13 28.7221  3.6388   1
   8  10 -13 25.1950  3.6525   2
   6 -10 -13 7.82292 2.58390   1
   6  10 -13 3.69496 2.37397   2
   4 -10 -13 6.22815 2.37242   1
   4  10 -13 2.77090 2.30938   2
   2 -10 -13 9.45823 2.70276   1
   2  10 -13 14.2634  3.0365   2
   0 -10  13 1.93171 2.20226   3
   0 -10 -13 2.05386 2.01118   1
   0  10 -13 -0.2540  1.8944   2
   2 -10  13 14.5283  3.0280   3
  -2 -10 -13 10.4036  2.6166   1
  -2  10 -13 14.0432  2.9645   2
  -4 -10 -13 2.24908 2.12824   1
   4 -10  13 2.70333 2.26979   3
  -4  10 -13 2.68437 2.14701   2
   6 -10  13 14.8671  3.0587   3
  -6 -10 -13 11.3294  2.8012   1
  -6  10 -13 14.5513  3.1720   2
  -8 -10 -13 16.1619  3.0259   1
   8 -10  13 14.3750  3.1769   3
  -8  10 -13 18.0472  3.5145   2
 -10 -10 -13 25.1402  3.4780   1
  10 -10  13 21.8583  3.4312   3
 -10  10 -13 15.6566  3.4883   2
 -12 -10 -13 14.6495  2.9928   1
  12 -10  13 12.8138  3.0606   3
 -12  10 -13 7.66473 3.08262   2
  14 -10  13 16.2655  3.2874   3
 -14  10 -13 9.82469 3.30838   2
  16 -10  13 6.58540 2.52654   3
 -16  10 -13 -1.0491  2.4951   2
  15  11 -13 2.17287 2.23972   2
  13  11 -13 4.77697 2.40686   2
  11 -11 -13 10.1477  2.9669   1
  11  11 -13 19.4592  3.3544   2
   9 -11 -13 5.76224 2.69329   1
   9  11 -13 5.21759 2.63433   2
   7 -11 -13 12.8169  3.0366   1
   7  11 -13 6.55794 2.58663   2
   5 -11 -13 0.11701 2.06629   1
   5  11 -13 2.18022 2.47731   2
   3 -11 -13 4.86492 2.30993   1
   3  11 -13 5.57729 2.49570   2
   1 -11 -13 -0.2970  2.0368   1
   1  11 -13 0.85517 2.21989   2
  -1 -11 -13 5.00524 2.48024   1
  -1  11 -13 4.29026 2.31473   2
  -3 -11 -13 3.19060 2.47986   1
  -3  11 -13 2.99787 2.37720   2
  -5 -11 -13 6.39787 2.65208   1
   5 -11  13 5.13260 2.82060   3
  -5  11 -13 4.90568 2.66864   2
   7 -11  13 2.27101 2.42454   3
  -7 -11 -13 0.25807 2.32012   1
  40   0 -14 2.76605 2.17678   2
  38   0 -14 37.3885  3.4034   2
  36   0 -14 1.47695 2.00548   2
  34   0 -14 72.6654  4.5648   2
  32   0 -14 0.03040 1.52121   2
  30   0 -14 81.5724  4.6007   2
  28   0 -14 42.8120  3.2031   2
  26   0 -14 237.964   9.307   2
  24   0 -14 283.787  10.666   2
  22   0 -14 101.323   4.828   2
  20   0 -14 120.134   5.375   2
  20   0 -14 123.242   5.033   1
  18   0 -14 55.7889  3.1600   2
  18   0 -14 56.9510  2.9657   1
  16   0 -14 20.9088  1.9502   1
  16   0 -14 22.5759  2.0911   2
  14   0 -14 136.330   5.300   1
  14   0 -14 135.190   5.537   2
 -12   0  14 170.265   5.933   3
  12   0 -14 165.671   6.167   1
  12   0 -14 161.172   6.413   2
 -10   0  14 105.119   4.168   3
  10   0 -14 107.271   4.614   2
  10   0 -14 111.971   4.510   1
   8   0 -14 368.668  12.186   1
   8   0 -14 367.793  12.524   2
  -8   0  14 355.930  12.003   3
   6   0 -14 76.2642  3.5583   2
   6   0 -14 71.4734  3.5549   1
  -6   0  14 74.2471  3.2997   3
   4   0 -14 1001.34   31.01   1
   4   0 -14 993.106  31.710   2
  -4   0  14 960.825  31.107   3
  -2   0  14 17.0605  1.7134   3
   2   0 -14 20.1838  1.9314   1
   2   0 -14 21.1145  1.7757   2
   0   0 -14 314.569  10.734   2
   0   0 -14 314.985  10.703   1
   0   0  14 306.585  10.537   3
  -2   0 -14 45.5156  2.4454   2
   2   0  14 46.2524  2.4541   3
  -2   0 -14 43.3668  2.5884   1
  -4   0 -14 256.233   8.753   2
  -4   0 -14 248.049   8.879   1
   4   0  14 244.920   8.744   3
  -6   0 -14 134.263   5.392   1
  -6   0 -14 121.096   4.920   2
   6   0  14 133.273   5.186   3
   8   0  14 212.760   7.929   3
  -8   0 -14 213.544   8.095   1
  -8   0 -14 230.443   7.813   2
  10   0  14 58.6654  3.1357   3
 -10   0 -14 54.6611  3.2731   1
 -12   0 -14 230.851   8.461   1
  12   0  14 214.333   8.240   3
  14   0  14 4.99878 1.65145   3
 -14   0 -14 5.74147 1.69844   1
  16   0  14 324.359  11.569   3
 -16   0 -14 321.173  11.650   1
 -18   0 -14 12.2991  2.2859   1
  18   0  14 8.52899 2.23649   3
 -20   0 -14 138.025   6.151   1
  20   0  14 133.398   6.039   3
 -22   0 -14 13.6163  2.3117   1
  22   0  14 13.2670  2.3576   3
 -24   0 -14 15.8396  2.4099   1
  24   0  14 19.7543  2.6312   3
 -26   0 -14 0.07358 1.63457   1
  26   0  14 -1.4379  1.5759   3
 -28   0 -14 18.9083  2.7603   1
  28   0  14 15.5255  2.6424   3
 -30   0 -14 3.98895 2.03117   1
  30   0  14 5.46291 2.41487   3
  32   0  14 20.4001  3.1607   3
 -32   0 -14 16.1589  2.7754   1
  34   0  14 11.2268  2.8408   3
 -34   0 -14 10.1197  2.5994   1
  41  -1 -14 10.9614  2.5823   2
  41   1 -14 12.1512  2.6402   2
  39  -1 -14 19.4176  3.0795   2
  39   1 -14 15.8806  2.8798   2
  37  -1 -14 28.8766  3.4399   2
  37   1 -14 32.3661  3.5802   2
  35  -1 -14 21.0476  2.9393   2
  35   1 -14 21.8715  2.8092   2
  33  -1 -14 37.4107  3.3366   2
  33   1 -14 36.2905  3.2607   2
  31  -1 -14 39.5550  3.3661   2
  31   1 -14 38.7320  3.2791   2
  29  -1 -14 112.852   5.537   2
  29   1 -14 101.503   5.184   2
  27  -1 -14 12.8470  2.1631   2
  27   1 -14 8.87558 1.91016   2
  25  -1 -14 274.643  10.524   2
  25   1 -14 262.783  10.344   2
 -25   1  14 296.212  10.366   1
  23  -1 -14 5.63947 1.58160   2
  23   1 -14 3.57048 1.35147   2
  21  -1 -14 173.469   6.810   2
  21  -1 -14 155.643   6.333   1
  21   1 -14 151.210   6.492   2
  19  -1 -14 -1.0513  1.2199   1
  19  -1 -14 -0.8257  1.0831   2
  19   1 -14 2.32093 1.13281   2
  17  -1 -14 123.560   5.079   1
  17  -1 -14 119.228   5.241   2
  17   1 -14 119.305   4.696   1
  17   1 -14 113.623   5.102   2
  15  -1 -14 51.5602  2.9528   2
  15  -1 -14 53.2116  3.0114   1
  15   1 -14 50.1174  3.0929   2
  15   1 -14 54.9981  2.7826   1
  13  -1 -14 238.753   8.425   1
  13  -1 -14 230.037   8.568   2
  13   1 -14 234.052   8.074   1
  13   1 -14 230.821   8.636   2
  11  -1 -14 38.7569  2.4391   2
 -11  -1  14 39.1140  2.3083   3
  11  -1 -14 36.3832  2.3794   1
  11   1 -14 30.1838  2.2067   1
  11   1 -14 32.5026  2.4696   2
   9  -1 -14 425.406  14.289   2
   9  -1 -14 424.330  14.024   1
  -9  -1  14 428.708  13.944   3
   9   1 -14 407.616  14.321   2
  -9   1  14 423.677  13.548   3
   9   1 -14 410.354  13.713   1
  -7  -1  14 135.305   5.393   3
   7  -1 -14 143.708   5.549   2
   7  -1 -14 141.578   5.654   1
   7   1 -14 139.559   5.338   1
   7   1 -14 149.213   5.766   2
  -7   1  14 140.622   5.082   3
   5  -1 -14 411.672  13.750   1
  -5  -1  14 410.118  13.644   3
   5  -1 -14 407.612  13.806   2
  -5   1  14 414.677  13.339   3
   5   1 -14 409.241  14.009   2
   5   1 -14 404.793  13.457   1
  -3  -1  14 528.604  17.527   3
   3  -1 -14 538.274  17.557   1
   3  -1 -14 529.142  17.626   2
   3   1 -14 539.270  17.303   1
  -3   1  14 535.674  17.228   3
   3   1 -14 543.633  17.912   2
  -1  -1  14 223.546   7.852   3
   1  -1 -14 211.803   7.683   2
   1  -1 -14 212.479   7.952   1
   1   1 -14 213.777   7.979   2
  -1   1  14 225.768   7.563   3
   1   1 -14 220.637   7.723   1
  -1  -1 -14 65.9803  2.9514   2
  -1  -1 -14 63.7152  3.3218   1
   1  -1  14 63.3212  3.1801   3
  -1   1 -14 73.8178  3.3852   2
   1   1  14 65.4673  2.9836   3
  -1   1 -14 69.3185  3.2568   1
  -3  -1 -14 15.6143  1.3165   2
  -3  -1 -14 15.0568  1.7581   1
   3  -1  14 14.8175  1.6665   3
   3   1  14 17.5309  1.6287   3
  -3   1 -14 16.6994  1.7380   2
  -3   1 -14 14.5339  1.6523   1
   5  -1  14 24.8467  2.0373   3
  -5  -1 -14 24.9588  1.6153   2
  -5  -1 -14 25.4234  2.2710   1
   5   1  14 28.0635  1.9396   3
  -5   1 -14 27.3125  2.0458   2
  -5   1 -14 25.6100  2.0248   1
   7  -1  14 247.507   9.066   3
  -7  -1 -14 266.421   9.273   1
   7   1  14 245.620   8.901   3
  -7   1 -14 252.920   9.070   1
  -7   1 -14 262.031   9.148   2
   9  -1  14 45.7981  2.8306   3
  -9  -1 -14 44.8684  2.9277   1
  -9   1 -14 51.4580  2.7547   2
   9   1  14 45.3711  2.7325   3
  -9   1 -14 48.5008  2.9660   1
 -11  -1 -14 105.964   4.940   1
  11  -1  14 111.734   4.875   3
 -11   1 -14 111.433   4.671   2
  11   1  14 111.455   4.763   3
 -11   1 -14 112.130   4.959   1
 -13  -1 -14 180.646   7.294   1
  13  -1  14 179.645   7.180   3
  13   1  14 182.616   7.082   3
 -13   1 -14 188.963   7.243   1
 -15  -1 -14 71.1019  4.0214   1
  15  -1  14 66.0456  3.9488   3
  15   1  14 79.7677  4.0065   3
 -15   1 -14 78.3525  4.1596   1
 -17  -1 -14 216.591   8.640   1
  17  -1  14 224.755   8.635   3
  17   1  14 225.562   8.594   3
 -17   1 -14 221.848   8.688   1
 -19  -1 -14 22.8796  2.6450   1
  19  -1  14 24.1516  2.7181   3
  19   1  14 22.9165  2.6852   3
 -19   1 -14 23.1249  2.7398   1
 -21  -1 -14 70.5287  4.1350   1
  21  -1  14 62.3155  3.8712   3
 -21   1 -14 64.4924  3.9380   1
  21   1  14 61.3544  4.0773   3
  23  -1  14 7.51927 1.98141   3
 -23  -1 -14 6.93938 1.88269   1
  23   1  14 5.60890 2.15713   3
 -23   1 -14 5.23923 1.85147   1
  25  -1  14 4.53349 1.88245   3
 -25  -1 -14 7.24979 2.08565   1
 -25   1 -14 7.11185 1.95806   1
  25   1  14 8.77041 2.31035   3
 -27  -1 -14 9.01558 2.19472   1
  27  -1  14 9.31911 2.24821   3
 -27   1 -14 8.96769 2.18982   1
  27   1  14 7.42875 2.27334   3
 -29  -1 -14 17.4190  2.7441   1
  29  -1  14 18.4699  2.8479   3
 -29   1 -14 16.7883  2.7068   1
  29   1  14 19.2518  2.9154   3
 -31  -1 -14 3.70160 2.18024   1
  31  -1  14 4.06372 2.21203   3
 -31   1 -14 1.53820 1.98241   1
  31   1  14 4.90797 2.33479   3
  33  -1  14 18.0654  3.1829   3
 -33  -1 -14 17.3191  3.1259   1
 -33   1 -14 17.5672  3.0750   1
  33   1  14 18.6553  3.0931   3
 -35  -1 -14 -0.8962  2.0488   1
 -35   1 -14 0.07360 2.27492   1
  40  -2 -14 -1.7764  1.7515   2
  40   2 -14 0.36497 1.74983   2
  38  -2 -14 10.1355  2.7869   2
  38   2 -14 18.3197  2.7317   2
  36  -2 -14 2.34162 2.04919   2
  36   2 -14 5.01065 1.96976   2
  34  -2 -14 52.0277  4.1085   2
  34   2 -14 54.2895  3.8975   2
  32  -2 -14 12.5527  2.3978   2
  32   2 -14 17.1751  2.6866   2
  30  -2 -14 154.869   7.109   2
 -30   2  14 156.322   6.920   1
  30   2 -14 149.531   6.846   2
  28  -2 -14 28.6649  3.0309   2
  28   2 -14 22.4346  2.6768   2
 -28   2  14 29.0965  3.0498   1
  26  -2 -14 135.927   6.440   2
  26   2 -14 145.182   6.339   2
 -26   2  14 152.759   6.565   1
  24  -2 -14 60.9250  3.6461   2
 -24   2  14 53.0678  3.8023   1
  24   2 -14 57.9527  3.4814   2
  22  -2 -14 6.77977 1.69521   2
  22  -2 -14 6.50902 1.78791   1
  22   2 -14 8.64791 1.64497   2
  20  -2 -14 -3.5489  1.2985   1
  20  -2 -14 -0.2186  1.1118   2
  20   2 -14 0.68246 0.99949   2
  18  -2 -14 20.1891  2.3237   1
  18  -2 -14 21.9248  2.0861   2
  18   2 -14 23.8728  2.0627   2
  16  -2 -14 15.3963  1.8960   2
  16  -2 -14 13.9176  2.0133   1
  16   2 -14 14.1923  1.9551   2
  14  -2 -14 352.360  12.168   1
  14  -2 -14 349.786  12.371   2
  14   2 -14 348.634  12.416   2
  12  -2 -14 373.286  12.881   1
 -12  -2  14 366.303  12.764   3
  12  -2 -14 376.138  13.108   2
  12   2 -14 400.441  13.339   2
  12   2 -14 370.201  12.257   1
  10  -2 -14 388.779  13.297   1
  10  -2 -14 368.244  13.341   2
 -10  -2  14 402.976  13.252   3
  10   2 -14 388.010  12.698   1
  10   2 -14 403.372  13.689   2
  -8  -2  14 494.538  16.216   3
   8  -2 -14 486.457  16.225   1
   8  -2 -14 471.228  16.341   2
   8   2 -14 493.550  15.686   1
   8   2 -14 494.695  16.664   2
   6  -2 -14 113.329   4.753   2
   6  -2 -14 113.513   4.994   1
  -6  -2  14 115.887   4.914   3
   6   2 -14 119.234   5.123   2
  -6   2  14 118.510   4.251   3
   6   2 -14 119.637   4.563   1
   4  -2 -14 454.315  15.927   2
   4  -2 -14 500.830  16.076   1
  -4  -2  14 473.618  16.000   3
   4   2 -14 497.520  15.567   1
  -4   2  14 490.969  15.425   3
   4   2 -14 468.617  16.348   2
  -2  -2  14 7.65184 1.45846   3
   2  -2 -14 6.83098 1.55325   1
   2  -2 -14 6.42707 1.08635   2
   2   2 -14 7.37421 1.46156   2
   2   2 -14 5.22992 1.19865   1
  -2   2  14 7.33595 1.07428   3
   0  -2 -14 39.1000  2.6081   1
   0  -2  14 44.1208  2.6226   3
   0  -2 -14 33.2608  2.0109   2
   0   2  14 40.8732  2.1701   3
   0   2 -14 40.4180  2.4055   1
   0   2 -14 43.4952  2.6510   2
  -2  -2 -14 22.7308  2.0417   1
   2  -2  14 17.7681  1.9227   3
  -2  -2 -14 18.0877  1.3639   2
   2   2  14 18.5397  1.7062   3
  -2   2 -14 20.0655  1.8854   2
  -2   2 -14 18.1454  1.7832   1
  -4  -2 -14 3.18812 1.30358   1
   4  -2  14 4.24448 1.35649   3
  -4   2 -14 6.15554 1.32677   2
  -4   2 -14 5.60006 1.28393   1
   4   2  14 4.60660 1.19968   3
  -6  -2 -14 42.4120  2.8370   1
   6  -2  14 39.1352  2.6314   3
  -6   2 -14 41.2243  2.5051   1
   6   2  14 39.4913  2.4762   3
  -6   2 -14 43.1655  2.7193   2
   8  -2  14 164.820   6.328   3
  -8  -2 -14 161.213   6.400   1
  -8   2 -14 158.251   6.380   2
   8   2  14 154.735   6.026   3
  -8   2 -14 151.143   6.111   1
 -10  -2 -14 3.94974 1.53059   1
  10  -2  14 4.02191 1.50882   3
 -10   2 -14 4.43777 1.37495   2
  10   2  14 5.88655 1.56882   3
 -10   2 -14 5.88614 1.47538   1
  12  -2  14 294.938  10.736   3
 -12  -2 -14 296.190  10.774   1
 -12   2 -14 301.832  10.786   2
  12   2  14 301.467  10.571   3
 -12   2 -14 290.330  10.566   1
 -14  -2 -14 8.92148 1.99629   1
  14  -2  14 3.25760 1.70924   3
 -14   2 -14 6.54797 1.74148   1
 -14   2 -14 3.29908 1.52154   2
  14   2  14 6.50019 1.80088   3
  16  -2  14 80.1884  4.4526   3
 -16  -2 -14 88.1670  4.5774   1
  16   2  14 89.9965  4.3655   3
 -16   2 -14 86.0201  4.4120   1
  18  -2  14 0.66104 1.61419   3
 -18  -2 -14 2.65680 1.63005   1
  18   2  14 1.79611 1.79755   3
 -18   2 -14 2.52394 1.65118   1
  20  -2  14 31.7788  2.8328   3
 -20  -2 -14 36.3169  3.0146   1
 -20   2 -14 29.5276  2.8650   1
  20   2  14 28.9741  2.8650   3
  22  -2  14 4.02397 1.78396   3
 -22  -2 -14 4.18496 1.80636   1
  22   2  14 0.32890 1.85602   3
 -22   2 -14 -0.7906  1.6465   1
 -24  -2 -14 17.7445  2.5491   1
  24  -2  14 17.6174  2.5378   3
  24   2  14 14.6992  2.5744   3
 -24   2 -14 13.0716  2.3799   1
  26  -2  14 3.52760 1.89816   3
 -26  -2 -14 3.45424 1.91808   1
  26   2  14 5.17873 2.18633   3
 -26   2 -14 5.22714 1.98886   1
 -28  -2 -14 26.8435  3.1935   1
  28  -2  14 26.0863  3.2686   3
 -28   2 -14 25.2452  3.1514   1
  28   2  14 25.7966  3.2457   3
  30  -2  14 5.29142 2.22980   3
 -30  -2 -14 4.66999 2.30637   1
 -30   2 -14 2.60105 2.13859   1
  30   2  14 4.41840 2.56900   3
 -32  -2 -14 20.7466  3.1064   1
  32  -2  14 13.3906  2.8815   3
  32   2  14 12.7865  2.9461   3
 -32   2 -14 9.39308 2.48486   1
  34  -2  14 9.55651 2.74277   3
 -34  -2 -14 3.90840 2.33364   1
  34   2  14 4.20145 2.66079   3
 -34   2 -14 5.31502 2.39338   1
  41   3 -14 2.67205 2.05819   2
  39  -3 -14 -0.6150  1.9641   2
  39   3 -14 0.51253 1.69014   2
  37  -3 -14 -2.0853  1.9916   2
  37   3 -14 0.25458 1.85984   2
  35  -3 -14 -0.6865  1.9846   2
  35   3 -14 -1.5505  1.7064   2
  33  -3 -14 38.3033  3.6501   2
 -33   3  14 37.7332  3.5766   1
  33   3 -14 37.4486  3.3355   2
  31  -3 -14 21.5453  3.0244   2
 -31   3  14 29.4366  3.3903   1
  31   3 -14 21.9112  2.8565   2
  29  -3 -14 159.278   7.332   2
 -29   3  14 154.089   7.180   1
  29   3 -14 151.073   6.795   2
  27  -3 -14 36.4328  3.1386   2
  27   3 -14 36.2066  3.0062   2
 -27   3  14 37.0905  3.4981   1
  25  -3 -14 65.4883  4.0677   2
 -25   3  14 62.9591  4.2343   1
  25   3 -14 58.7987  3.7226   2
  23  -3 -14 5.17362 1.65245   2
  23   3 -14 2.84660 1.39574   2
  21  -3 -14 8.81910 1.85017   2
  21  -3 -14 8.98505 1.99690   1
  21   3 -14 6.20901 1.48490   2
  19  -3 -14 14.9472  2.1933   1
  19  -3 -14 12.3625  2.0527   2
  19   3 -14 12.5835  1.8363   2
  17  -3 -14 41.0601  3.0069   1
  17  -3 -14 35.9912  2.7660   2
  17   3 -14 34.2584  2.5402   2
  15  -3 -14 1.00810 1.20842   2
  15  -3 -14 1.00601 1.53993   1
  15   3 -14 1.58860 1.15156   2
  13  -3 -14 255.742   9.442   1
  13  -3 -14 251.497   9.441   2
  13   3 -14 261.052   9.634   2
  11  -3 -14 6.47829 1.76184   1
  11  -3 -14 5.91909 1.43744   2
 -11  -3  14 8.13418 1.68340   3
  11   3 -14 8.97278 1.67809   2
   9  -3 -14 531.144  17.441   1
  -9  -3  14 529.989  17.434   3
   9  -3 -14 500.320  17.477   2
   9   3 -14 523.416  17.858   2
   7  -3 -14 70.1109  3.8857   1
   7  -3 -14 73.6952  3.6292   2
  -7  -3  14 69.4261  3.7397   3
   7   3 -14 79.4657  3.2418   1
   7   3 -14 83.1512  4.1078   2
   5  -3 -14 272.932  10.089   1
   5  -3 -14 283.698   9.928   2
  -5  -3  14 298.109  10.216   3
   5   3 -14 287.502   9.461   1
   5   3 -14 272.443  10.370   2
   3  -3 -14 48.8434  2.9762   1
   3  -3 -14 42.6058  2.3429   2
  -3  -3  14 41.3692  2.7461   3
   3   3 -14 47.0971  2.9962   2
  -3   3  14 44.4170  2.1527   3
   3   3 -14 48.3652  2.3954   1
   1  -3 -14 36.9556  2.6071   1
   1  -3 -14 33.6526  1.9516   2
  -1  -3  14 35.4050  2.4729   3
  -1   3  14 32.9706  1.9443   3
   1   3 -14 36.0164  2.1639   1
   1   3 -14 33.5702  2.6060   2
   1  -3  14 9.87762 1.64092   3
  -1  -3 -14 9.92591 1.68369   1
   1   3  14 8.81087 1.31307   3
  -1   3 -14 10.3855  1.7012   2
  -1   3 -14 9.56116 1.36927   1
  -3  -3 -14 61.6968  3.4366   1
   3  -3  14 66.8278  3.5421   3
   3   3  14 60.2568  2.9810   3
  -3   3 -14 63.2652  3.0891   1
  -3   3 -14 63.6614  3.5341   2
   5  -3  14 1.50081 1.30105   3
  -5  -3 -14 0.25589 1.17518   1
  -5   3 -14 1.08578 1.12394   1
   5   3  14 1.05205 1.13180   3
  -5   3 -14 1.60208 1.20433   2
  -7  -3 -14 62.7888  3.5866   1
   7  -3  14 68.2085  3.6475   3
   7   3  14 70.0052  3.3101   3
  -7   3 -14 62.6101  3.6258   2
  -7   3 -14 66.9803  3.3971   1
  -9  -3 -14 176.238   7.251   1
   9  -3  14 174.181   7.197   3
  -9   3 -14 182.706   6.946   1
  -9   3 -14 186.856   7.395   2
   9   3  14 180.613   6.805   3
  11  -3  14 57.6938  3.6086   3
 -11  -3 -14 60.6180  3.6891   1
 -11   3 -14 63.5339  3.4449   1
  11   3  14 58.8750  3.2416   3
 -11   3 -14 53.1825  3.5304   2
 -13  -3 -14 94.3193  4.7660   1
  13  -3  14 90.0477  4.6629   3
  13   3  14 92.0237  4.3783   3
 -13   3 -14 97.3810  4.6697   1
 -13   3 -14 90.0178  4.6714   2
  15  -3  14 58.3950  3.7679   3
 -15  -3 -14 66.1358  3.8899   1
 -15   3 -14 63.9801  3.9528   2
  15   3  14 62.6654  3.5866   3
 -15   3 -14 66.8713  3.8710   1
 -17  -3 -14 28.1001  2.9255   1
  17  -3  14 28.1950  2.7422   3
  17   3  14 26.6984  2.6266   3
 -17   3 -14 26.7493  2.8043   1
 -19  -3 -14 13.3849  2.2352   1
  19  -3  14 12.5369  2.2464   3
  19   3  14 11.2257  2.2058   3
 -19   3 -14 9.79926 2.16704   1
 -21  -3 -14 22.4669  2.8133   1
  21  -3  14 26.3235  2.9201   3
 -21   3 -14 21.3429  2.7097   1
  21   3  14 25.1298  2.7760   3
 -23  -3 -14 6.29279 1.96425   1
  23  -3  14 7.05936 2.02918   3
 -23   3 -14 4.84966 2.05827   1
  23   3  14 3.00840 2.03644   3
  25  -3  14 41.8739  3.4455   3
 -25  -3 -14 37.3918  3.4563   1
 -25   3 -14 43.1367  3.5691   1
  25   3  14 37.9322  3.3420   3
 -27  -3 -14 8.01462 2.23471   1
  27  -3  14 7.03861 2.26076   3
 -27   3 -14 5.85118 2.17264   1
  27   3  14 5.74919 2.33496   3
  29  -3  14 29.1079  3.4825   3
 -29  -3 -14 22.2008  3.1113   1
 -29   3 -14 19.5245  3.0434   1
  29   3  14 25.6658  3.3942   3
 -31  -3 -14 3.96773 2.20532   1
  31  -3  14 4.90350 2.54064   3
 -31   3 -14 5.11892 2.33044   1
  31   3  14 4.36671 2.53802   3
 -33  -3 -14 3.20974 2.33516   1
  33  -3  14 14.3757  2.9885   3
 -33   3 -14 10.0528  2.6746   1
  33   3  14 5.59133 2.73412   3
  40   4 -14 1.34989 1.95385   2
  38  -4 -14 0.98667 1.94937   2
  38   4 -14 1.62605 1.95660   2
  36  -4 -14 -0.0965  1.8675   2
  36   4 -14 2.06346 1.90404   2
 -36   4  14 0.03124 1.97784   1
  34  -4 -14 6.51799 2.40345   2
 -34   4  14 9.52270 2.47688   1
  34   4 -14 6.08328 1.99403   2
  32  -4 -14 1.14588 1.89095   2
 -32   4  14 3.39265 2.27347   1
  32   4 -14 6.45463 2.10121   2
  30  -4 -14 59.7288  4.4403   2
  30   4 -14 57.6535  3.9373   2
 -30   4  14 60.7401  4.5784   1
  28  -4 -14 23.9223  3.2018   2
 -28   4  14 15.7233  2.9488   1
  28   4 -14 21.7982  2.6811   2
  26  -4 -14 79.4463  4.7510   2
 -26   4  14 85.6284  5.1892   1
  26   4 -14 69.9247  4.1778   2
  24  -4 -14 18.6521  2.6461   2
  24   4 -14 15.7743  2.2191   2
  22  -4 -14 23.4278  2.8407   1
  22  -4 -14 20.0660  2.5884   2
  22   4 -14 21.4387  2.4518   2
  20  -4 -14 41.9444  3.1434   2
  20  -4 -14 39.5346  3.2600   1
  20   4 -14 40.2150  2.8751   2
  18  -4 -14 2.14687 1.36455   2
  18  -4 -14 -2.2547  1.5117   1
  18   4 -14 1.68017 1.27996   2
  16  -4 -14 28.1809  2.6736   1
  16  -4 -14 26.5197  2.3838   2
  16   4 -14 29.0100  2.5563   2
  14  -4 -14 25.3286  2.5479   2
  14  -4 -14 24.4811  2.6717   1
  14   4 -14 24.9831  2.4648   2
  12  -4 -14 13.3461  1.9474   2
  12  -4 -14 10.4497  2.1013   1
  12   4 -14 14.6849  2.0487   2
  10  -4 -14 91.1053  4.3582   2
 -10  -4  14 89.3707  4.3562   3
  10  -4 -14 91.7220  4.6243   1
  10   4 -14 77.6952  4.3446   2
  -8  -4  14 153.699   6.462   3
   8  -4 -14 163.984   6.356   2
   8  -4 -14 153.384   6.562   1
   8   4 -14 161.826   6.817   2
  -6  -4  14 34.9901  2.7086   3
   6  -4 -14 35.5631  2.7914   1
   6  -4 -14 33.4330  2.3877   2
   6   4 -14 31.2786  2.7607   2
   4  -4 -14 122.192   5.369   1
  -4  -4  14 119.076   5.290   3
   4  -4 -14 122.393   4.892   2
   4   4 -14 122.727   4.563   1
   4   4 -14 118.366   5.529   2
   2  -4 -14 0.57212 1.20894   1
  -2  -4  14 -0.4389  1.2284   3
   2  -4 -14 0.64197 0.74956   2
   2   4 -14 0.42288 0.92407   1
   2   4 -14 0.30795 1.17288   2
   0  -4  14 1.60110 1.34216   3
   0  -4 -14 -0.6940  1.0960   1
   0   4 -14 2.16342 1.29550   2
   0   4 -14 0.66843 0.97093   1
   0   4  14 1.87312 1.00870   3
   2  -4  14 34.7408  2.6355   3
  -2  -4 -14 27.6311  2.5008   1
  -2   4 -14 29.1929  2.6272   2
  -2   4 -14 32.1670  2.1579   1
   2   4  14 33.8969  2.0716   3
   4  -4  14 27.0214  2.5049   3
  -4  -4 -14 25.5004  2.4575   1
  -4   4 -14 28.6154  2.5864   2
   4   4  14 24.3808  1.9781   3
  -4   4 -14 30.0485  2.1570   1
  -6  -4 -14 15.9999  2.2730   1
   6  -4  14 18.6684  2.4546   3
  -6   4 -14 17.9955  1.9503   1
  -6   4 -14 18.5304  2.3454   2
   6   4  14 21.8181  1.9799   3
   8  -4  14 48.2601  3.4523   3
  -8  -4 -14 53.4590  3.5339   1
  -8   4 -14 53.2182  3.5973   2
  -8   4 -14 55.5331  3.2014   1
   8   4  14 59.1431  3.1378   3
  10  -4  14 4.88980 1.93731   3
 -10  -4 -14 4.49661 1.82609   1
 -10   4 -14 7.71079 1.78019   1
  10   4  14 7.14394 1.70084   3
 -10   4 -14 3.42998 1.75639   2
 -12  -4 -14 95.6078  4.9049   1
  12  -4  14 96.1512  4.9309   3
  12   4  14 93.0511  4.4262   3
 -12   4 -14 88.7318  5.0296   2
 -12   4 -14 101.773   4.735   1
  14  -4  14 6.43392 1.97019   3
 -14  -4 -14 4.01600 1.84249   1
  14   4  14 2.81155 1.68985   3
 -14   4 -14 3.09184 1.73685   1
 -14   4 -14 1.40081 1.68810   2
 -16  -4 -14 63.3169  3.9987   1
  16  -4  14 73.8903  4.1520   3
 -16   4 -14 58.6827  4.0052   2
 -16   4 -14 71.3268  4.0308   1
  16   4  14 61.6804  3.7005   3
  18  -4  14 7.67522 2.03482   3
 -18  -4 -14 4.60161 1.89303   1
 -18   4 -14 3.09634 1.84210   1
  18   4  14 1.81187 1.85813   3
 -18   4 -14 4.68870 1.82205   2
  20  -4  14 16.9027  2.5364   3
 -20  -4 -14 16.6098  2.5940   1
 -20   4 -14 18.8044  2.5898   1
  20   4  14 15.9914  2.5705   3
  22  -4  14 5.24213 1.99630   3
 -22  -4 -14 7.89920 2.14597   1
 -22   4 -14 5.71738 1.98128   1
  22   4  14 3.22060 1.99821   3
  24  -4  14 4.76874 2.08133   3
 -24  -4 -14 3.64929 1.91282   1
  24   4  14 1.27884 2.00037   3
 -24   4 -14 7.80918 2.15395   1
 -26  -4 -14 1.01417 1.92446   1
  26  -4  14 1.24007 1.92380   3
 -26   4 -14 2.01079 2.00542   1
  26   4  14 -0.9272  2.1394   3
  28  -4  14 13.0566  2.8520   3
 -28  -4 -14 8.13554 2.45014   1
 -28   4 -14 11.8247  2.6365   1
  28   4  14 10.7824  2.6187   3
 -30  -4 -14 2.41759 2.08918   1
  30  -4  14 4.48083 2.35795   3
  30   4  14 -0.6379  2.3368   3
 -30   4 -14 -1.7022  2.1692   1
  32  -4  14 4.89035 2.60877   3
 -32  -4 -14 5.04359 2.44636   1
 -32   4 -14 3.20076 2.42142   1
  32   4  14 4.42408 2.65071   3
 -34  -4 -14 1.72272 2.38854   1
  39   5 -14 -1.4775  1.8552   2
 -39   5  14 -2.0636  1.9921   1
  37  -5 -14 0.95436 2.24507   2
  37   5 -14 0.36050 1.88572   2
 -37   5  14 3.48084 2.17974   1
  35  -5 -14 8.52928 2.60967   2
  35   5 -14 8.68149 2.34237   2
 -35   5  14 13.2630  2.7766   1
  33  -5 -14 -0.6036  2.0309   2
  33   5 -14 1.52289 1.77451   2
 -33   5  14 0.74680 2.17774   1
  31   5 -14 12.4356  2.3424   2
 -31   5  14 11.9755  2.8775   1
  29  -5 -14 19.7858  3.1569   2
 -29   5  14 17.9900  3.2708   1
  29   5 -14 19.6714  2.7346   2
  27  -5 -14 6.37327 2.14179   2
  27   5 -14 10.8859  2.1903   2
  27   5 -14 1.48297 2.26464   3
 -27   5  14 2.67789 2.42397   1
  25  -5 -14 44.9334  3.7348   2
  25   5 -14 48.7254  3.5089   2
 -25   5  14 44.8502  4.4103   1
  23  -5 -14 2.37560 1.61517   2
  23   5 -14 2.79766 1.62616   2
  21  -5 -14 14.6202  2.3039   2
  21  -5 -14 18.7955  2.7450   1
  21   5 -14 13.8321  2.1462   2
  19  -5 -14 0.75803 1.77712   1
  19  -5 -14 2.56181 1.58705   2
  19   5 -14 4.96040 1.62188   2
  17  -5 -14 6.54830 2.10728   1
  17  -5 -14 4.99054 1.54584   2
  17   5 -14 5.18585 1.60242   2
  15  -5 -14 15.3607  2.0895   2
  15  -5 -14 11.0673  2.2060   1
  15   5 -14 17.4183  2.3453   2
  13  -5 -14 16.8591  2.4692   1
  13  -5 -14 18.5939  2.2626   2
  13   5 -14 14.7863  2.2739   2
  11  -5 -14 13.0338  2.2329   1
  11  -5 -14 9.32829 1.74500   2
  11   5 -14 10.0524  2.0059   2
   9  -5 -14 58.4647  3.7451   1
   9  -5 -14 64.9366  3.5434   2
  -9  -5  14 67.5029  3.8553   3
   9   5 -14 57.6317  3.7385   2
   7  -5 -14 44.2407  3.2090   1
  -7  -5  14 42.8992  3.0692   3
   7  -5 -14 39.2703  2.5996   2
   7   5 -14 36.1620  2.9595   2
   5  -5 -14 22.4364  1.9805   2
   5  -5 -14 19.2829  2.3623   1
  -5  -5  14 19.3468  2.3902   3
   5   5 -14 20.1582  2.4707   2
   3  -5 -14 46.3332  3.2308   1
  -3  -5  14 48.1872  3.2008   3
   3   5 -14 43.2586  3.2818   2
  -1  -5  14 0.55985 1.41834   3
   1  -5 -14 3.28669 1.51467   1
   1   5 -14 1.73385 1.40600   2
  -1  -5 -14 0.36592 1.45815   1
   1  -5  14 0.40276 1.45354   3
  -1   5 -14 0.43386 1.34746   2
  -1   5 -14 -0.5575  1.0015   1
   3  -5  14 27.8532  2.7401   3
  -3  -5 -14 28.2160  2.6883   1
  -3   5 -14 34.9209  2.2856   1
   3   5  14 29.9061  2.1648   3
  -3   5 -14 28.3767  2.6470   2
   5  -5  14 0.43395 1.65288   3
  -5  -5 -14 1.10498 1.61521   1
   5   5  14 2.35434 1.32421   3
  -5   5 -14 2.53183 1.48504   2
  -5   5 -14 2.14010 1.30331   1
   7  -5  14 68.9028  4.3111   3
  -7  -5 -14 73.8601  4.3138   1
   7   5  14 74.0136  3.5633   3
  -7   5 -14 74.1441  3.7339   1
  -7   5 -14 64.9649  4.2614   2
  -9  -5 -14 2.13520 1.93406   1
   9  -5  14 3.21103 1.89636   3
  -9   5 -14 6.42615 2.01709   2
  -9   5 -14 4.47618 1.60753   1
   9   5  14 7.37473 1.64018   3
 -11  -5 -14 21.1104  2.7461   1
  11  -5  14 22.0269  2.7355   3
 -11   5 -14 15.9355  2.7209   2
  11   5  14 28.1554  2.5777   3
 -11   5 -14 27.9454  2.5112   1
 -13  -5 -14 13.6644  2.3940   1
  13  -5  14 17.4062  2.5179   3
 -13   5 -14 8.58793 2.34849   2
 -13   5 -14 19.7501  2.3690   1
  13   5  14 13.9948  2.1576   3
 -15  -5 -14 7.87255 2.11832   1
  15  -5  14 9.54032 2.17739   3
  15   5  14 5.55748 1.86079   3
 -15   5 -14 4.33413 2.02290   2
 -15   5 -14 5.39299 1.93654   1
  17  -5  14 32.1476  3.1376   3
 -17  -5 -14 29.0761  3.1832   1
 -17   5 -14 29.6426  3.3551   2
 -17   5 -14 28.7429  2.9893   1
  17   5  14 28.0597  2.8976   3
  19  -5  14 3.44171 1.88058   3
 -19  -5 -14 3.00683 1.76030   1
 -19   5 -14 -0.0110  1.7623   2
  19   5  14 -0.8379  1.7201   3
 -19   5 -14 0.37267 1.82422   1
  21  -5  14 0.43865 1.81438   3
 -21  -5 -14 1.74869 1.81692   1
  21   5  14 -1.8016  1.8995   3
 -21   5 -14 -0.7675  1.8051   1
 -21   5 -14 0.13712 1.82329   2
  23  -5  14 2.34911 1.95202   3
 -23  -5 -14 2.20533 1.95282   1
 -23   5 -14 0.33881 1.89739   1
  23   5  14 0.35651 1.92802   3
 -25  -5 -14 1.13771 1.77452   1
  25  -5  14 -1.5505  1.8413   3
  25   5  14 -2.8468  1.8539   3
 -25   5 -14 -0.3327  1.7695   1
  27  -5  14 3.43437 2.21554   3
 -27  -5 -14 2.66631 2.11696   1
  27   5  14 2.74111 2.43415   3
 -27   5 -14 3.08833 2.10395   1
  29  -5  14 3.15913 2.37533   3
 -29  -5 -14 1.97831 2.14188   1
 -29   5 -14 0.48508 2.02339   1
  29   5  14 -0.6230  2.3643   3
 -31  -5 -14 -1.3518  2.0928   1
  31  -5  14 -0.4649  2.1239   3
 -31   5 -14 3.94747 2.29296   1
  31   5  14 -2.6011  2.3542   3
 -33  -5 -14 -1.7878  2.1765   1
  36   6 -14 3.62724 2.07072   2
 -36   6  14 3.15846 2.31361   1
  34  -6 -14 1.89519 2.17339   2
  34   6 -14 1.30959 1.85956   2
 -34   6  14 2.64134 2.37638   1
  32  -6 -14 5.08766 2.42195   2
 -32   6  14 6.61490 2.61165   1
  32   6 -14 4.20208 1.96615   2
  30  -6 -14 3.63621 2.21606   2
 -30   6  14 4.27449 2.37786   1
  30   6 -14 2.20773 1.87861   2
  28  -6 -14 2.78370 2.07157   2
  28   6 -14 3.62260 1.73464   2
 -28   6  14 3.34123 2.53860   1
  28   6 -14 3.23947 2.33861   3
  26  -6 -14 5.18865 2.15454   2
  26   6 -14 4.73928 1.83048   2
  26   6 -14 2.75712 2.50121   3
 -26   6  14 1.10133 2.26924   1
  24  -6 -14 17.3001  2.8581   2
  24   6 -14 22.3858  2.7152   2
 -24   6  14 19.0822  3.4570   1
  22  -6 -14 1.22758 1.58696   2
  22   6 -14 3.03443 1.70938   2
  20  -6 -14 12.7292  2.3587   2
  20  -6 -14 9.69490 2.57517   1
  20   6 -14 14.9785  2.3818   2
  18  -6 -14 8.80601 2.35515   1
  18  -6 -14 12.1101  2.2589   2
  18   6 -14 9.87511 2.11470   2
  16  -6 -14 10.0017  2.0121   2
  16  -6 -14 9.65362 2.41173   1
  16   6 -14 7.97639 2.01516   2
  14  -6 -14 11.5720  2.1079   2
  14  -6 -14 10.7506  2.3514   1
  14   6 -14 8.08798 1.94331   2
  12  -6 -14 38.9271  3.5678   1
  12  -6 -14 44.3931  3.2386   2
  12   6 -14 40.5722  3.2379   2
  10  -6 -14 9.20110 1.85486   2
  10  -6 -14 10.0566  2.2066   1
  10   6 -14 7.82655 1.95859   2
  -8  -6  14 10.1137  2.1446   3
   8  -6 -14 13.5719  1.9195   2
   8  -6 -14 12.9079  2.2209   1
   8   6 -14 9.60854 2.12169   2
  -6  -6  14 10.1665  2.2004   3
   6  -6 -14 10.0296  2.1278   1
   6   6 -14 8.87218 2.14654   2
  -4  -6  14 60.5847  3.9048   3
   4  -6 -14 54.7867  3.7055   1
   4   6 -14 55.0943  3.7445   2
  -2  -6  14 35.5103  3.1077   3
   2  -6 -14 35.9811  3.0900   1
   2   6 -14 36.6831  3.2402   2
   0  -6  14 49.7003  3.5188   3
   0  -6 -14 44.0503  3.3229   1
   0   6 -14 41.8579  3.4576   2
   2  -6  14 -0.6941  1.7193   3
  -2  -6 -14 0.56239 1.65064   1
  -2   6 -14 4.07505 1.72613   2
   4  -6  14 3.78926 2.09237   3
  -4  -6 -14 6.16919 1.94012   1
  -4   6 -14 5.67983 1.99697   2
   6  -6  14 17.5713  2.6239   3
  -6  -6 -14 23.5010  2.8337   1
   6   6  14 21.5991  2.1226   3
  -6   6 -14 20.3142  2.1335   1
  -6   6 -14 16.1279  2.5913   2
  -8  -6 -14 5.48161 1.96012   1
   8  -6  14 5.10065 2.00383   3
  -8   6 -14 8.39797 1.81563   1
  -8   6 -14 4.35385 1.90358   2
   8   6  14 5.61851 1.64308   3
  10  -6  14 4.91199 1.97633   3
 -10  -6 -14 1.07551 1.86803   1
 -10   6 -14 4.98143 1.68121   1
  10   6  14 1.48760 1.54223   3
 -10   6 -14 3.62066 2.04547   2
 -12  -6 -14 11.4247  2.2814   1
  12  -6  14 6.52307 2.11987   3
 -12   6 -14 10.9949  2.0583   1
  12   6  14 10.2947  1.9567   3
 -12   6 -14 8.18499 2.43473   2
  14  -6  14 18.5182  2.7262   3
 -14  -6 -14 17.6456  2.6965   1
 -14   6 -14 9.94668 2.63757   2
  14   6  14 13.5211  2.2857   3
 -14   6 -14 12.2286  2.1998   1
 -16  -6 -14 5.18809 2.07176   1
  16  -6  14 4.41836 2.03329   3
  16   6  14 3.74137 1.97890   3
 -16   6 -14 2.30154 2.27918   2
 -16   6 -14 4.03806 1.84675   1
  18  -6  14 4.80877 2.12279   3
 -18  -6 -14 4.58038 2.04573   1
 -18   6 -14 4.21844 1.99979   1
  18   6  14 3.07442 2.02609   3
 -18   6 -14 2.53855 2.11835   2
 -20  -6 -14 1.27899 1.75578   1
  20  -6  14 3.68920 1.94861   3
 -20   6 -14 0.40505 1.90130   1
 -20   6 -14 2.78961 2.18908   2
  20   6  14 -1.0148  1.8119   3
 -22  -6 -14 2.71497 1.96228   1
  22  -6  14 2.17992 1.91026   3
  22   6  14 1.79013 1.97445   3
 -22   6 -14 -0.7859  1.8384   1
 -22   6 -14 0.65925 1.86485   2
 -24  -6 -14 0.68645 1.96865   1
  24  -6  14 1.16610 2.03090   3
 -24   6 -14 0.38684 1.98794   1
  24   6  14 -1.0173  2.1426   3
 -26  -6 -14 3.21850 2.15976   1
  26  -6  14 0.32231 2.11296   3
 -26   6 -14 2.03213 2.02824   1
  26   6  14 0.95016 2.34533   3
  28  -6  14 -0.1164  2.1392   3
 -28  -6 -14 -0.8879  1.9969   1
 -28   6 -14 -0.4719  2.0081   1
  28   6  14 -0.5053  2.2094   3
 -30  -6 -14 -1.8886  1.9601   1
  35   7 -14 -0.1615  1.8939   2
  33  -7 -14 0.16298 2.14480   2
 -33   7  14 1.76798 2.30780   1
  33   7 -14 2.70639 2.00956   2
  31  -7 -14 0.11314 2.11020   2
  31   7 -14 3.11471 2.32083   3
  31   7 -14 -1.1128  1.6039   2
 -31   7  14 3.31187 2.37073   1
  29  -7 -14 0.83207 2.10444   2
  29   7 -14 4.22431 2.32978   3
 -29   7  14 3.10511 2.16857   1
  29   7 -14 6.63836 2.05176   2
  27  -7 -14 -0.9716  1.5670   2
  27   7 -14 0.72835 2.12475   3
  27   7 -14 -0.9565  1.6445   2
 -27   7  14 0.43283 2.07772   1
  25  -7 -14 0.98870 1.95993   2
  25   7 -14 1.84436 1.77654   2
 -25   7  14 1.70785 2.24560   1
  23  -7 -14 1.79595 1.87062   2
 -23   7  14 -0.5367  2.1726   1
  23   7 -14 4.82763 2.01486   2
  21  -7 -14 5.31998 2.03556   2
  21   7 -14 6.99055 2.05041   2
  19  -7 -14 3.40273 2.27396   1
  19  -7 -14 2.70721 1.77553   2
  19   7 -14 3.39328 1.84804   2
  17  -7 -14 1.37098 2.11786   1
  17  -7 -14 9.58758 2.21124   2
  17   7 -14 4.51874 1.85939   2
  15  -7 -14 4.07605 1.85456   2
  15  -7 -14 2.90441 2.10716   1
  15   7 -14 1.97208 1.76485   2
  13  -7 -14 7.71773 1.97795   2
  13  -7 -14 5.54016 2.14176   1
  13   7 -14 8.74791 2.17911   2
  11  -7 -14 4.97181 1.68100   2
  11  -7 -14 4.72424 1.97300   1
  11   7 -14 0.77013 1.74487   2
   9  -7 -14 9.65275 1.81215   2
   9  -7 -14 13.3625  2.4492   1
   9   7 -14 4.41632 1.91050   2
  -7  -7  14 7.94969 2.24885   3
   7  -7 -14 8.02018 2.20608   1
   7   7 -14 5.80596 2.08117   2
   5  -7 -14 20.9644  2.8160   1
  -5  -7  14 20.8530  2.8960   3
   5   7 -14 22.2457  2.8428   2
   3  -7 -14 4.86886 1.99148   1
  -3  -7  14 8.30720 2.36530   3
   3   7 -14 7.89666 2.17254   2
  -1  -7  14 7.13635 2.29606   3
   1  -7 -14 7.03162 2.11987   1
   1   7 -14 9.53202 2.22371   2
  -1  -7 -14 0.93907 1.73738   1
   1  -7  14 2.91796 1.97127   3
  -1   7 -14 6.33367 1.95821   2
  -3  -7 -14 1.45348 1.75516   1
   3  -7  14 1.10744 1.75817   3
  -3   7 -14 3.02541 1.86616   2
  -5  -7 -14 -0.6150  1.5568   1
   5  -7  14 -1.9109  1.5771   3
  -5   7 -14 -1.5196  1.4243   2
   7  -7  14 3.03804 1.89072   3
  -7  -7 -14 3.22361 1.90913   1
  -7   7 -14 1.98003 1.76926   2
   9  -7  14 1.87089 1.86595   3
  -9  -7 -14 0.52345 1.70547   1
  -9   7 -14 2.09690 2.05251   2
   9   7  14 1.85503 1.46904   3
  11  -7  14 3.60257 2.00239   3
 -11  -7 -14 2.63522 1.86617   1
 -11   7 -14 2.85756 1.62822   1
 -11   7 -14 3.08966 2.05588   2
  11   7  14 3.85784 1.69516   3
  13  -7  14 5.19462 2.04131   3
 -13  -7 -14 2.44158 2.02790   1
  13   7  14 2.32095 1.78009   3
 -13   7 -14 3.32134 1.87078   1
 -13   7 -14 -0.2784  1.9697   2
  15  -7  14 4.78911 2.22914   3
 -15  -7 -14 3.82586 2.10256   1
  15   7  14 0.01226 1.85617   3
 -15   7 -14 -1.6467  2.0823   2
 -15   7 -14 1.12323 1.80970   1
  17  -7  14 10.0103  2.4469   3
 -17  -7 -14 6.37473 2.20812   1
 -17   7 -14 4.62024 2.03655   1
  17   7  14 7.82174 2.21208   3
 -17   7 -14 5.38402 2.37331   2
 -19  -7 -14 2.47278 2.04728   1
  19  -7  14 3.12952 2.07494   3
 -19   7 -14 -4.2341  1.6764   1
  19   7  14 -1.2261  1.9612   3
 -19   7 -14 0.13160 2.03424   2
 -21  -7 -14 5.02349 2.22445   1
  21  -7  14 4.16611 2.20405   3
  21   7  14 -2.9087  1.9939   3
 -21   7 -14 0.73896 2.08553   2
 -21   7 -14 0.89985 1.99892   1
  23  -7  14 0.13812 1.96454   3
 -23  -7 -14 2.83047 2.18197   1
 -23   7 -14 2.48991 2.30533   2
  23   7  14 -0.0444  2.2632   3
 -23   7 -14 2.47042 2.09003   1
  25  -7  14 -3.2150  1.8522   3
 -25  -7 -14 -0.6197  1.9744   1
  25   7  14 -1.0623  2.2868   3
 -25   7 -14 -0.0232  1.9280   1
  27  -7  14 0.03979 2.31693   3
  27   7  14 -2.9247  2.3207   3
 -27   7 -14 -2.0857  1.8636   1
  32   8 -14 1.20873 2.61804   3
  32   8 -14 -0.8333  1.8702   2
  30  -8 -14 1.22796 2.35370   2
  30   8 -14 4.13346 2.63571   3
  30   8 -14 0.68480 1.96209   2
  28  -8 -14 6.77844 2.58145   2
 -28   8  14 8.76536 2.78891   1
  28   8 -14 8.94265 2.37536   2
  28   8 -14 10.9893  2.9659   3
  26  -8 -14 3.35690 2.19863   2
  26   8 -14 3.51329 2.54033   3
 -26   8  14 1.98422 2.30970   1
  26   8 -14 4.35049 2.07481   2
  24  -8 -14 6.95059 2.36378   2
 -24   8  14 0.57388 2.39457   1
  24   8 -14 7.93396 2.23269   2
  22  -8 -14 7.01820 2.21792   2
 -22   8  14 0.75718 2.55471   1
  22   8 -14 6.32623 2.14028   2
  20  -8 -14 5.16806 2.01522   2
  20   8 -14 5.05045 1.97042   2
  18  -8 -14 10.4437  2.7103   1
  18  -8 -14 10.3958  2.4469   2
  18   8 -14 12.9234  2.5109   2
  16  -8 -14 1.53020 2.26678   1
  16  -8 -14 1.82382 1.71553   2
  16   8 -14 3.57718 1.92258   2
  14  -8 -14 3.95312 1.91292   2
  14  -8 -14 7.15771 2.34695   1
  14   8 -14 7.26511 2.24779   2
  12  -8 -14 7.29624 2.35349   1
  12  -8 -14 3.53365 1.73864   2
  12   8 -14 3.88806 1.96628   2
  10  -8 -14 9.10171 2.43819   1
  10   8 -14 3.56750 2.09924   2
   8  -8 -14 17.8366  2.8789   1
   8   8 -14 19.1338  2.9053   2
   6  -8 -14 22.2370  3.1224   1
   6   8 -14 19.6439  3.0023   2
   4  -8 -14 36.7593  3.4528   1
  -4  -8  14 26.6727  3.3186   3
   4   8 -14 35.2844  3.8124   2
   2  -8 -14 5.96373 2.13079   1
  -2  -8  14 1.91927 2.10803   3
   2   8 -14 5.78757 2.13440   2
   0  -8  14 28.1565  3.3776   3
   0  -8 -14 32.9014  3.4873   1
   0   8 -14 36.1091  3.5514   2
   2  -8  14 5.34443 2.10892   3
  -2  -8 -14 3.76221 2.08983   1
  -2   8 -14 6.73592 2.10952   2
  -4  -8 -14 14.4575  2.6323   1
   4  -8  14 12.2262  2.5330   3
  -4   8 -14 14.3545  2.6947   2
   6  -8  14 0.75537 1.80306   3
  -6  -8 -14 2.59440 1.86224   1
  -6   8 -14 1.27825 1.77700   2
   8  -8  14 3.28018 2.03452   3
  -8  -8 -14 2.32782 1.87187   1
  -8   8 -14 1.84253 2.16449   2
 -10  -8 -14 4.22352 2.01895   1
  10  -8  14 2.74608 2.03964   3
 -10   8 -14 -1.9547  2.0340   2
  12  -8  14 6.48476 2.32814   3
 -12  -8 -14 6.80557 2.36286   1
 -12   8 -14 2.10712 2.54773   2
 -14  -8 -14 2.17679 2.04246   1
  14  -8  14 3.69065 2.18903   3
 -14   8 -14 -0.2631  2.3631   2
  14   8  14 0.63690 1.87090   3
 -16  -8 -14 12.3502  2.6789   1
  16  -8  14 16.1553  3.0100   3
 -16   8 -14 17.9537  2.7175   1
  16   8  14 15.9205  2.6154   3
 -16   8 -14 16.2449  3.3685   2
 -18  -8 -14 1.75657 2.10289   1
  18  -8  14 2.68317 2.35945   3
 -18   8 -14 2.92873 2.00785   1
  18   8  14 -2.3116  1.7996   3
 -18   8 -14 0.33690 2.27755   2
  20  -8  14 12.0538  2.8754   3
 -20  -8 -14 9.70174 2.64456   1
  20   8  14 6.84722 2.39494   3
 -20   8 -14 8.23965 2.35092   1
 -20   8 -14 9.71437 2.89412   2
  22  -8  14 0.19229 2.17608   3
 -22  -8 -14 0.62400 2.12751   1
 -22   8 -14 2.88354 2.13000   1
  22   8  14 1.86380 2.07038   3
 -22   8 -14 -2.0779  1.9735   2
  24  -8  14 5.09680 2.41070   3
 -24   8 -14 2.95222 2.46994   2
  24   8  14 -4.4476  2.0201   3
 -24   8 -14 2.66282 2.08739   1
  27   9 -14 2.44088 1.96917   2
  27   9 -14 2.80009 2.76405   3
  25  -9 -14 6.64773 2.59639   2
  25   9 -14 9.31340 2.49462   2
 -25   9  14 1.47312 2.57827   1
  23  -9 -14 2.51319 2.15794   2
 -23   9  14 -1.6591  2.2207   1
  23   9 -14 0.10352 1.66479   2
  21  -9 -14 17.5488  3.0625   2
 -21   9  14 13.4458  3.3500   1
  21   9 -14 15.8309  2.6644   2
  19  -9 -14 4.47830 2.12138   2
  19   9 -14 4.31042 2.16789   2
  17  -9 -14 25.2926  3.5975   1
  17  -9 -14 24.0941  3.3732   2
  17   9 -14 24.2895  3.3363   2
  15  -9 -14 0.98814 2.13240   1
  15   9 -14 3.87260 2.12657   2
  13  -9 -14 8.76474 2.58397   1
  13   9 -14 10.0820  2.5522   2
  11  -9 -14 0.57380 2.10073   1
  11   9 -14 3.16008 1.93251   2
   9  -9 -14 14.4751  2.8653   1
   9   9 -14 16.4687  2.9101   2
   7  -9 -14 3.99633 2.31606   1
   7   9 -14 5.60289 2.32734   2
   5  -9 -14 20.7491  3.2508   1
   5   9 -14 21.4716  3.2790   2
   3  -9 -14 7.73918 2.49950   1
  -3  -9  14 9.95768 2.63705   3
   3   9 -14 11.7837  2.6682   2
   1  -9 -14 23.8339  3.3046   1
  -1  -9  14 36.0438  3.8560   3
   1   9 -14 27.9694  3.6548   2
   1  -9  14 27.6211  3.4481   3
  -1  -9 -14 20.9314  3.1319   1
  -1   9 -14 18.7521  3.2055   2
   3  -9  14 23.0460  3.2683   3
  -3  -9 -14 19.8221  3.0123   1
  -3   9 -14 20.6722  3.3180   2
   5  -9  14 4.00807 2.27103   3
  -5  -9 -14 5.81622 2.20084   1
  -5   9 -14 2.45008 2.18825   2
   7  -9  14 4.53955 2.24639   3
  -7  -9 -14 4.71640 2.15223   1
  -7   9 -14 7.93646 2.65409   2
   9  -9  14 -0.1436  2.1249   3
  -9  -9 -14 2.18654 2.11811   1
  -9   9 -14 0.09576 2.18587   2
  11  -9  14 9.80964 2.81933   3
 -11  -9 -14 11.5077  2.7230   1
 -11   9 -14 5.12077 2.67695   2
  13  -9  14 8.80168 2.66331   3
 -13  -9 -14 10.5995  2.7906   1
 -13   9 -14 2.07859 2.71056   2
 -15  -9 -14 13.1835  2.7788   1
  15  -9  14 14.2823  3.2224   3
 -15   9 -14 11.6271  3.2686   2
 -17  -9 -14 10.7006  2.7998   1
  17  -9  14 9.59136 2.82295   3
 -17   9 -14 12.5175  3.2075   2
  19  -9  14 6.42338 2.79275   3
 -19   9 -14 5.74961 3.01357   2
  19   9  14 4.15118 2.37746   3
 -21   9 -14 7.79905 3.04510   2
  21   9  14 8.41092 2.73048   3
  22 -10 -14 14.0802  3.0792   2
  22  10 -14 16.1791  2.9556   2
  20 -10 -14 5.53781 2.41487   2
  20  10 -14 1.47391 1.95292   2
 -18  10  14 11.2679  3.0310   1
  18  10 -14 12.5996  2.8405   2
  16  10 -14 10.8701  2.7574   2
  14 -10 -14 6.41122 2.77245   1
  14  10 -14 8.64204 2.60239   2
  12 -10 -14 12.1510  3.0482   1
  12  10 -14 8.97322 2.61986   2
  10 -10 -14 9.63644 2.72267   1
  10  10 -14 10.5265  2.6173   2
   8 -10 -14 17.6570  3.1140   1
   8  10 -14 12.4506  2.8529   2
   6 -10 -14 4.06029 2.41914   1
   6  10 -14 6.13513 2.55783   2
   4 -10 -14 20.0947  3.2135   1
   4  10 -14 20.9516  3.2897   2
   2 -10 -14 0.51986 2.16111   1
   2  10 -14 2.37671 2.22671   2
   0 -10 -14 17.1962  3.0839   1
   0 -10  14 15.6328  3.0957   3
   0  10 -14 15.9100  3.1498   2
  -2 -10 -14 3.48287 2.38864   1
   2 -10  14 1.85396 2.28390   3
  -2  10 -14 3.15368 2.34264   2
   4 -10  14 9.21325 2.77673   3
  -4 -10 -14 12.3505  2.7977   1
  -4  10 -14 11.2860  2.9320   2
   6 -10  14 7.12401 2.72872   3
  -6 -10 -14 2.36078 2.21003   1
  -6  10 -14 4.71507 2.57828   2
   8 -10  14 11.1928  2.8593   3
  -8 -10 -14 13.0510  2.9332   1
  -8  10 -14 7.22026 2.91329   2
 -10 -10 -14 6.75131 2.37090   1
  10 -10  14 2.98080 2.31762   3
 -10  10 -14 1.42876 2.58350   2
 -12 -10 -14 19.3995  3.2445   1
  12 -10  14 14.9559  3.1987   3
 -12  10 -14 11.8040  3.3283   2
  14 -10  14 0.50125 2.36208   3
 -14  10 -14 -1.7022  2.4663   2
   9 -11 -14 29.1362  4.0014   1
   9  11 -14 42.7635  4.6613   2
   7 -11 -14 2.12921 2.52323   1
   7  11 -14 0.39551 2.30844   2
   5 -11 -14 28.7524  3.8012   1
   5  11 -14 30.9168  4.2105   2
   3 -11 -14 0.54074 2.16641   1
   3  11 -14 3.04752 2.33777   2
   1 -11 -14 12.1966  2.9688   1
   1  11 -14 7.89846 2.79462   2
  -1 -11 -14 -0.6509  2.1503   1
  -3 -11 -14 9.86620 2.86952   1
  -5 -11 -14 5.01178 2.64072   1
  -7 -11 -14 9.34598 2.85330   1
  40   0 -15 -0.4030  1.8040   2
  38   0 -15 1.30154 2.10341   2
  36   0 -15 -1.4095  1.9139   2
  34   0 -15 1.17242 2.00993   2
  32   0 -15 1.35063 1.61439   2
  30   0 -15 0.82391 1.67395   2
  28   0 -15 2.68471 1.65297   2
  26   0 -15 1.53158 1.49557   2
  24   0 -15 2.03220 1.42266   2
  22   0 -15 0.28473 1.31856   2
  20   0 -15 1.22843 1.31912   2
  20   0 -15 -1.4284  1.2609   1
  18   0 -15 -1.8002  0.9433   2
  18   0 -15 -3.2586  1.1598   1
  16   0 -15 -1.2800  1.1300   1
  16   0 -15 -0.0419  1.0745   2
  14   0 -15 -2.8977  1.0264   1
  14   0 -15 -0.2901  0.8827   2
  12   0 -15 0.78089 1.10116   1
  12   0 -15 -0.6766  0.8759   2
  10   0 -15 -1.7567  0.8149   2
 -10   0  15 -0.7767  0.8498   3
  10   0 -15 -0.6715  1.0241   1
   8   0 -15 -0.2108  1.0618   1
   8   0 -15 0.61129 0.91179   2
  -8   0  15 -0.4305  0.8931   3
  -6   0  15 -0.5263  0.9451   3
   6   0 -15 -0.2650  0.8357   2
   6   0 -15 -0.0036  1.0557   1
   4   0 -15 3.55085 1.25838   1
   2   0 -15 -0.1250  0.7633   2
  -2   0  15 1.61052 0.99908   3
   2   0 -15 0.16882 1.04453   1
   0   0  15 4.54516 1.20552   3
   0   0 -15 2.11016 1.11115   1
   0   0 -15 1.87214 0.88308   2
  -2   0 -15 0.32756 1.17955   1
   2   0  15 -0.1162  1.0443   3
  -2   0 -15 0.64765 0.85085   2
  -4   0 -15 3.18344 1.37018   1
   4   0  15 1.92678 1.20812   3
  -4   0 -15 0.77164 0.91255   2
  -6   0 -15 1.61474 1.24485   1
  -6   0 -15 0.53344 0.91456   2
   6   0  15 0.21614 1.17589   3
   8   0  15 1.11186 1.31164   3
  -8   0 -15 -0.6337  1.2130   1
 -10   0 -15 -1.4511  1.3669   1
  10   0  15 -2.4054  1.3100   3
 -12   0 -15 -1.9175  1.2936   1
  12   0  15 -1.4889  1.3425   3
 -14   0 -15 -1.4854  1.5856   1
  14   0  15 -0.0878  1.4828   3
 -16   0 -15 -0.9349  1.6250   1
  16   0  15 -1.9022  1.6608   3
 -18   0 -15 1.16231 1.65332   1
  18   0  15 -1.1624  1.5812   3
 -20   0 -15 2.62105 1.70568   1
  20   0  15 -0.2772  1.7092   3
 -22   0 -15 -0.5919  1.4928   1
  22   0  15 -0.1432  1.6740   3
 -24   0 -15 -1.5872  1.3782   1
  24   0  15 1.39244 1.77223   3
 -26   0 -15 0.78821 1.76115   1
  26   0  15 0.79910 1.89777   3
 -28   0 -15 0.45616 1.94245   1
  28   0  15 1.00157 2.05401   3
 -30   0 -15 -1.2282  1.9282   1
  30   0  15 2.73547 2.13555   3
  32   0  15 0.65113 2.21836   3
 -32   0 -15 -1.1462  1.9524   1
 -34   0 -15 1.59903 2.37708   1
  41   1 -15 2.70019 2.00008   2
  39  -1 -15 12.5052  2.8108   2
  39   1 -15 6.94043 2.45096   2
  37  -1 -15 4.45572 2.30418   2
  37   1 -15 3.83879 2.15170   2
  35  -1 -15 14.6728  2.6918   2
  35   1 -15 15.2563  2.6417   2
  33  -1 -15 6.69215 2.12738   2
  33   1 -15 13.8298  2.5045   2
  31  -1 -15 1.91561 1.78340   2
  31   1 -15 0.28011 1.59565   2
  29  -1 -15 1.80777 1.73800   2
  29   1 -15 2.29518 1.67512   2
  27  -1 -15 2.39060 1.43277   2
  27   1 -15 4.41494 1.69064   2
  25  -1 -15 6.21831 1.71939   2
  25   1 -15 3.79528 1.44913   2
  23  -1 -15 6.13834 1.72440   2
  23   1 -15 3.63946 1.40620   2
  21  -1 -15 9.96837 1.93280   2
  21  -1 -15 5.19305 1.84376   1
  21   1 -15 8.25977 1.64464   2
  19  -1 -15 54.4045  3.3581   2
  19  -1 -15 61.5201  3.4902   1
  19   1 -15 61.0650  3.4717   2
  17  -1 -15 11.6091  1.8450   2
  17  -1 -15 10.0797  1.7958   1
  17   1 -15 12.2252  1.9132   2
  15  -1 -15 125.707   5.329   1
  15  -1 -15 131.746   5.530   2
  15   1 -15 125.806   4.996   1
  15   1 -15 128.597   5.510   2
  13  -1 -15 4.67863 1.26835   2
  13  -1 -15 5.92146 1.50585   1
  13   1 -15 5.39926 1.30694   1
  13   1 -15 6.84474 1.47283   2
  11  -1 -15 11.4199  1.6472   2
 -11  -1  15 10.4170  1.4861   3
  11  -1 -15 12.6881  1.7496   1
  11   1 -15 12.5896  1.5759   1
  11   1 -15 12.7546  1.7061   2
  -9  -1  15 2.75618 1.20901   3
   9  -1 -15 2.98304 1.09496   2
   9  -1 -15 2.01766 1.32085   1
   9   1 -15 2.13147 1.17220   1
   9   1 -15 3.83931 1.21660   2
   7  -1 -15 31.4032  2.1522   2
  -7  -1  15 32.0475  2.2493   3
   7  -1 -15 30.6598  2.3169   1
   7   1 -15 31.5496  2.3531   2
  -7   1  15 28.6644  1.8626   3
   7   1 -15 33.1936  2.2839   1
   5  -1 -15 0.98650 1.19447   1
  -5  -1  15 1.42865 1.13949   3
   5  -1 -15 2.34351 0.95915   2
   5   1 -15 1.87413 0.95492   2
  -5   1  15 1.97053 0.98057   3
   5   1 -15 1.36577 1.15915   1
   3  -1 -15 33.6633  2.1214   2
  -3  -1  15 36.9870  2.3719   3
   3  -1 -15 35.7786  2.5400   1
   3   1 -15 30.9744  2.2955   2
  -3   1  15 35.8015  2.0845   3
   3   1 -15 35.6964  2.3097   1
   1  -1 -15 13.8849  1.8201   1
  -1  -1  15 14.1731  1.6789   3
   1  -1 -15 15.7151  1.5349   2
  -1   1  15 14.6318  1.4778   3
   1   1 -15 16.6792  1.7478   1
   1   1 -15 12.9878  1.6269   2
  -1  -1 -15 34.5909  2.4465   1
   1  -1  15 34.4717  2.2724   3
  -1  -1 -15 30.0255  1.9647   2
  -1   1 -15 32.3014  2.1990   2
  -1   1 -15 34.6319  2.3303   1
   1   1  15 35.5054  2.1727   3
  -3  -1 -15 0.90649 1.28032   1
   3  -1  15 0.82193 1.21024   3
  -3  -1 -15 1.77662 0.77804   2
   3   1  15 1.34308 1.04295   3
  -3   1 -15 1.97224 1.14950   1
  -3   1 -15 3.41326 1.12470   2
  -5  -1 -15 29.3209  2.4211   1
   5  -1  15 27.0431  2.2309   3
  -5   1 -15 32.5878  2.4709   1
  -5   1 -15 29.1825  2.1370   2
   5   1  15 30.8716  2.1177   3
   7  -1  15 2.05732 1.28199   3
  -7  -1 -15 1.44069 1.32058   1
   7   1  15 0.74274 1.24764   3
  -7   1 -15 1.60834 1.08589   2
  -7   1 -15 0.96228 1.25471   1
   9  -1  15 1.92439 1.43274   3
  -9  -1 -15 -0.1182  1.3168   1
   9   1  15 1.49257 1.32840   3
  -9   1 -15 1.84593 1.37477   1
  -9   1 -15 3.82353 1.19140   2
  11  -1  15 -0.4633  1.4763   3
 -11  -1 -15 -0.7999  1.3405   1
 -11   1 -15 0.11658 1.38245   1
  11   1  15 -0.8975  1.4147   3
  13  -1  15 0.05338 1.55993   3
 -13  -1 -15 -0.6362  1.5374   1
 -13   1 -15 2.81848 1.59134   1
  13   1  15 2.11450 1.53691   3
 -15  -1 -15 10.0063  2.0804   1
  15  -1  15 6.66524 1.96634   3
 -15   1 -15 9.76664 2.04448   1
  15   1  15 8.04964 1.95272   3
 -17  -1 -15 7.83654 2.00287   1
  17  -1  15 7.18988 1.99406   3
 -17   1 -15 8.01429 1.94819   1
  17   1  15 9.21699 2.03613   3
 -19  -1 -15 5.19474 1.85387   1
  19  -1  15 4.33780 1.87657   3
  19   1  15 6.02784 2.00106   3
 -19   1 -15 6.78893 1.95866   1
  21  -1  15 1.72397 1.69966   3
 -21  -1 -15 -0.0220  1.4639   1
  21   1  15 -1.8732  1.7712   3
 -21   1 -15 -1.1584  1.6071   1
  23  -1  15 1.76251 1.70440   3
 -23  -1 -15 4.43602 1.80932   1
  23   1  15 3.07450 2.04604   3
 -23   1 -15 1.59620 1.68853   1
  25  -1  15 4.57354 1.93743   3
 -25  -1 -15 0.03942 1.61512   1
 -25   1 -15 -0.3872  1.5423   1
  25   1  15 1.02794 1.90615   3
  27  -1  15 5.62003 2.08826   3
 -27  -1 -15 1.16650 1.96614   1
 -27   1 -15 0.45124 1.85803   1
  27   1  15 0.61776 2.17444   3
 -29  -1 -15 5.42559 2.22634   1
  29  -1  15 0.68095 2.04318   3
 -29   1 -15 -0.0690  2.0465   1
  29   1  15 -1.9244  1.9798   3
 -31  -1 -15 -0.1670  2.1025   1
  31  -1  15 -0.7320  1.9997   3
  31   1  15 -0.9769  2.1174   3
 -31   1 -15 -2.4057  1.8241   1
 -33  -1 -15 0.93853 2.20431   1
  33  -1  15 1.77476 2.45147   3
  33   1  15 -1.1087  2.3814   3
 -33   1 -15 -0.9415  2.2406   1
  40   2 -15 1.88766 1.93905   2
  38  -2 -15 7.28297 2.41021   2
  38   2 -15 8.56949 2.26449   2
  36  -2 -15 29.2340  3.6047   2
  36   2 -15 24.9553  3.0391   2
  34  -2 -15 0.47742 1.92845   2
  34   2 -15 4.60595 1.97065   2
  32  -2 -15 14.2922  2.5981   2
  32   2 -15 14.1169  2.4199   2
  30  -2 -15 5.92565 2.04179   2
  30   2 -15 6.56662 1.97534   2
  28  -2 -15 3.08105 1.77335   2
  28   2 -15 1.76902 1.52266   2
 -28   2  15 -1.4382  1.8644   1
  26  -2 -15 4.20739 1.64422   2
  26   2 -15 4.35776 1.58646   2
 -26   2  15 3.40025 1.87178   1
  24  -2 -15 2.67792 1.52043   2
  24   2 -15 4.29582 1.44166   2
  22  -2 -15 15.9173  2.2505   2
  22  -2 -15 15.9333  2.2839   1
  22   2 -15 14.8543  2.0854   2
  20  -2 -15 2.62601 1.38806   2
  20  -2 -15 2.38441 1.63163   1
  20   2 -15 2.36660 1.34177   2
  18  -2 -15 110.328   5.167   2
  18  -2 -15 118.448   5.201   1
  18   2 -15 112.541   5.108   2
  16  -2 -15 17.0601  2.1586   2
  16  -2 -15 13.8910  2.0251   1
  16   2 -15 14.5822  1.9728   2
  14  -2 -15 87.3470  4.2359   2
  14  -2 -15 83.5435  4.1596   1
  14   2 -15 85.4852  4.1779   2
  12  -2 -15 15.3249  2.0914   1
 -12  -2  15 15.8520  1.9329   3
  12  -2 -15 17.1517  1.9592   2
  12   2 -15 15.8265  2.0522   2
  10  -2 -15 20.3169  2.0761   2
 -10  -2  15 18.6986  2.0433   3
  10  -2 -15 20.4550  2.3234   1
  10   2 -15 18.1009  1.7624   1
  10   2 -15 22.8109  2.2515   2
   8  -2 -15 2.63011 1.50868   1
  -8  -2  15 3.27250 1.39575   3
   8  -2 -15 1.97655 1.06922   2
   8   2 -15 3.28341 1.16606   1
   8   2 -15 2.89122 1.23851   2
   6  -2 -15 48.4241  3.0829   1
  -6  -2  15 45.6793  2.8393   3
   6  -2 -15 49.0165  2.6822   2
   6   2 -15 48.1306  2.9604   2
   6   2 -15 46.9891  2.5919   1
   4  -2 -15 8.30062 1.28885   2
   4  -2 -15 7.81040 1.68574   1
  -4  -2  15 7.62887 1.55303   3
   4   2 -15 7.38632 1.48121   2
   4   2 -15 7.71410 1.33118   1
  -4   2  15 7.96946 1.10850   3
  -2  -2  15 45.4839  2.7131   3
   2  -2 -15 37.2557  2.6605   1
   2  -2 -15 35.9755  2.1986   2
   2   2 -15 40.5051  2.4087   1
  -2   2  15 38.5272  2.0865   3
   2   2 -15 40.2666  2.6494   2
   0  -2  15 15.2810  1.8690   3
   0  -2 -15 15.6799  1.4939   2
   0  -2 -15 16.9048  2.0164   1
   0   2 -15 18.9476  2.0198   2
   0   2  15 15.9872  1.5754   3
   0   2 -15 20.3696  1.7937   1
   2  -2  15 114.415   4.929   3
  -2  -2 -15 117.542   5.093   1
  -2   2 -15 113.312   5.028   2
  -2   2 -15 115.555   4.762   1
   2   2  15 117.110   4.577   3
  -4  -2 -15 14.0186  1.9740   1
   4  -2  15 16.7408  2.0234   3
   4   2  15 18.4483  1.8056   3
  -4   2 -15 22.5315  2.0272   2
  -4   2 -15 18.8355  1.9278   1
  -6  -2 -15 113.674   5.127   1
   6  -2  15 113.718   4.993   3
  -6   2 -15 115.728   4.931   1
  -6   2 -15 111.499   5.012   2
   6   2  15 114.796   4.702   3
  -8  -2 -15 9.88954 1.86133   1
   8  -2  15 9.78040 1.81002   3
   8   2  15 9.78752 1.67257   3
  -8   2 -15 8.74763 1.75990   1
  -8   2 -15 10.5411  1.8133   2
 -10  -2 -15 36.4015  2.9200   1
  10  -2  15 41.8645  2.9395   3
  10   2  15 39.3947  2.7211   3
 -10   2 -15 35.7425  2.8973   1
 -10   2 -15 35.2420  2.8273   2
  12  -2  15 6.25172 1.90394   3
 -12  -2 -15 9.78677 2.04161   1
 -12   2 -15 7.91560 1.84849   1
  12   2  15 11.5190  1.9931   3
 -12   2 -15 9.61233 1.83679   2
  14  -2  15 9.59704 2.05535   3
 -14  -2 -15 11.9504  2.2525   1
 -14   2 -15 12.9829  2.2036   1
  14   2  15 11.5280  2.0737   3
 -16  -2 -15 15.4666  2.3715   1
  16  -2  15 15.7886  2.4012   3
 -16   2 -15 19.2782  2.5021   1
  16   2  15 20.9744  2.4849   3
  18  -2  15 4.46814 1.79662   3
 -18  -2 -15 2.41753 1.72336   1
 -18   2 -15 3.26041 1.68001   1
  18   2  15 3.44715 1.80316   3
 -20  -2 -15 7.83074 2.00710   1
  20  -2  15 10.5728  2.1319   3
  20   2  15 7.27272 2.02165   3
 -20   2 -15 5.53361 1.88132   1
  22  -2  15 7.17859 1.97850   3
 -22  -2 -15 9.21064 2.09698   1
 -22   2 -15 4.19095 1.84833   1
  22   2  15 7.28754 2.07007   3
 -24  -2 -15 4.54014 1.97238   1
  24  -2  15 2.38572 1.80442   3
  24   2  15 0.81128 1.92797   3
 -24   2 -15 -0.5888  1.7284   1
  26  -2  15 11.1579  2.5372   3
 -26  -2 -15 12.8978  2.5798   1
  26   2  15 10.1509  2.5831   3
 -26   2 -15 8.57230 2.35376   1
  28  -2  15 2.68367 2.11700   3
 -28  -2 -15 3.33695 2.08780   1
  28   2  15 1.85691 2.34761   3
 -28   2 -15 4.13843 2.14777   1
 -30  -2 -15 9.55353 2.54193   1
  30  -2  15 12.8241  2.8108   3
 -30   2 -15 11.1443  2.6158   1
  30   2  15 7.10686 2.65160   3
  32  -2  15 4.48452 2.47393   3
 -32  -2 -15 5.67348 2.46925   1
 -32   2 -15 3.18405 2.26164   1
  32   2  15 5.39479 2.71057   3
  39   3 -15 11.4041  2.5270   2
  37  -3 -15 -1.3361  1.8097   2
  37   3 -15 -3.8533  1.6341   2
  35  -3 -15 17.8729  2.9119   2
  35   3 -15 16.7345  2.7868   2
  33  -3 -15 2.34637 1.97287   2
  33   3 -15 0.93081 1.85725   2
  31  -3 -15 52.4777  4.1117   2
 -31   3  15 57.4315  4.2448   1
  31   3 -15 54.0935  3.7251   2
  29  -3 -15 9.01244 2.32754   2
  29   3 -15 7.10874 2.03191   2
 -29   3  15 2.64468 2.20211   1
  27  -3 -15 31.0272  2.9579   2
  27   3 -15 32.1775  2.9284   2
 -27   3  15 26.3854  3.3355   1
  25  -3 -15 3.90429 1.81302   2
 -25   3  15 2.19098 2.09743   1
  25   3 -15 4.54492 1.61176   2
  23  -3 -15 3.70564 1.91353   1
  23  -3 -15 6.82812 1.86533   2
  23   3 -15 7.52994 1.79180   2
  21  -3 -15 4.83816 1.73090   2
  21  -3 -15 1.65156 1.68911   1
  21   3 -15 2.08612 1.27571   2
  19  -3 -15 21.6604  2.4989   1
  19  -3 -15 25.1496  2.6739   2
  19   3 -15 21.9110  2.1922   2
  17  -3 -15 4.84114 1.61847   2
  17  -3 -15 8.06879 1.85798   1
  17   3 -15 7.96825 1.67532   2
  15  -3 -15 107.319   4.982   1
  15  -3 -15 104.868   4.910   2
  15   3 -15 98.4297  4.8227   2
  13  -3 -15 8.17480 1.68981   2
  13  -3 -15 10.1457  1.9643   1
  13   3 -15 7.11607 1.63038   2
  11  -3 -15 226.022   8.602   2
  11  -3 -15 235.970   8.770   1
 -11  -3  15 233.312   8.580   3
  11   3 -15 219.932   8.767   2
  -9  -3  15 84.6510  4.2785   3
   9  -3 -15 88.1270  4.5454   1
   9  -3 -15 81.8250  4.1033   2
   9   3 -15 95.2999  4.5281   2
   7  -3 -15 137.845   5.742   2
  -7  -3  15 138.391   5.857   3
   7  -3 -15 140.828   6.028   1
   7   3 -15 146.090   6.186   2
   7   3 -15 148.280   5.319   1
  -5  -3  15 144.959   6.213   3
   5  -3 -15 152.569   6.025   2
   5  -3 -15 153.657   6.365   1
   5   3 -15 163.384   6.595   2
   5   3 -15 160.556   5.749   1
   3  -3 -15 53.3814  2.7577   2
   3  -3 -15 51.9519  3.2492   1
  -3  -3  15 54.8167  3.1801   3
   3   3 -15 53.8192  3.3009   2
   3   3 -15 55.3355  2.7446   1
  -1  -3  15 28.5621  2.4955   3
   1  -3 -15 29.4849  1.9535   2
   1  -3 -15 27.6251  2.4799   1
  -1   3  15 32.2736  1.8939   3
   1   3 -15 32.6832  2.0750   1
   1   3 -15 33.3063  2.4260   2
   1  -3  15 7.58083 1.69365   3
  -1  -3 -15 6.80225 1.60730   1
   1   3  15 7.11604 1.22310   3
  -1   3 -15 9.35768 1.40329   1
  -1   3 -15 8.57378 1.68162   2
  -3  -3 -15 9.06831 1.75638   1
   3  -3  15 5.48054 1.67355   3
  -3   3 -15 6.47772 1.38939   1
   3   3  15 9.47873 1.45567   3
  -3   3 -15 6.22984 1.51374   2
  -5  -3 -15 24.5363  2.5377   1
   5  -3  15 24.2830  2.4827   3
  -5   3 -15 21.9872  2.0808   1
  -5   3 -15 24.5547  2.3509   2
   5   3  15 21.9622  2.0021   3
  -7  -3 -15 75.1863  4.1332   1
   7  -3  15 77.3114  4.1103   3
   7   3  15 80.6218  3.7730   3
  -7   3 -15 75.4645  3.8592   1
  -7   3 -15 81.9762  4.2369   2
  -9  -3 -15 4.61969 1.91674   1
   9  -3  15 9.01180 2.04328   3
  -9   3 -15 5.83225 1.75246   2
  -9   3 -15 5.49085 1.74535   1
   9   3  15 6.36195 1.62307   3
 -11  -3 -15 119.506   5.623   1
  11  -3  15 119.240   5.550   3
 -11   3 -15 123.083   5.599   2
 -11   3 -15 114.209   5.276   1
  11   3  15 121.443   5.260   3
  13  -3  15 2.42233 1.81437   3
 -13  -3 -15 3.77187 1.81274   1
 -13   3 -15 3.90826 1.77109   1
 -13   3 -15 0.86347 1.62487   2
  13   3  15 3.19609 1.70271   3
  15  -3  15 60.1874  3.7320   3
 -15  -3 -15 60.5555  3.7535   1
 -15   3 -15 54.3462  3.5618   2
 -15   3 -15 56.1883  3.5482   1
  15   3  15 55.0706  3.4695   3
  17  -3  15 -0.6524  1.4374   3
 -17  -3 -15 -1.0969  1.4420   1
  17   3  15 0.26214 1.66907   3
 -17   3 -15 -1.3359  1.5747   1
 -19  -3 -15 13.4628  2.3543   1
  19  -3  15 14.5652  2.3616   3
 -19   3 -15 13.6698  2.3640   1
  19   3  15 13.1885  2.3030   3
 -21  -3 -15 -0.4406  1.5973   1
  21  -3  15 3.06456 1.71914   3
 -21   3 -15 -1.3306  1.5560   1
  21   3  15 0.85344 1.89650   3
 -23  -3 -15 5.89684 2.03310   1
  23  -3  15 4.93889 1.94780   3
 -23   3 -15 2.79693 1.97963   1
  23   3  15 5.33470 2.11143   3
  25  -3  15 3.82715 2.11733   3
 -25  -3 -15 2.39710 2.01450   1
 -25   3 -15 3.06481 2.05493   1
  25   3  15 0.53667 2.04760   3
 -27  -3 -15 18.3336  3.0184   1
  27  -3  15 15.7442  2.8695   3
  27   3  15 16.3149  2.9031   3
 -27   3 -15 15.4194  2.7296   1
 -29  -3 -15 0.97581 2.04453   1
  29  -3  15 3.94284 2.28743   3
 -29   3 -15 3.91491 2.39468   1
  29   3  15 0.47145 2.30282   3
  31  -3  15 26.6562  3.6156   3
 -31  -3 -15 26.1725  3.4466   1
 -31   3 -15 22.0040  3.2852   1
  31   3  15 21.0686  3.3846   3
 -33  -3 -15 -2.1519  2.0142   1
  38   4 -15 11.5990  2.6054   2
  36  -4 -15 6.07907 2.51556   2
  36   4 -15 7.41916 2.24350   2
  34  -4 -15 26.9702  3.5537   2
  34   4 -15 34.4551  3.2598   2
 -34   4  15 34.2517  3.7264   1
  32  -4 -15 18.2686  3.1269   2
 -32   4  15 19.8142  3.1585   1
  32   4 -15 20.3107  2.7619   2
  30  -4 -15 51.2838  4.0797   2
 -30   4  15 45.5170  4.1218   1
  30   4 -15 40.9233  3.4530   2
  28  -4 -15 35.1222  3.2980   2
 -28   4  15 35.0824  3.8047   1
  28   4 -15 33.5644  2.9590   2
  26  -4 -15 47.8283  3.6245   2
 -26   4  15 42.3560  3.9068   1
  26   4 -15 51.3856  3.5630   2
  24  -4 -15 47.5944  3.5460   2
  24   4 -15 52.1048  3.5135   2
  22  -4 -15 1.92978 1.90871   1
  22  -4 -15 8.61130 2.06913   2
  22   4 -15 8.02774 1.79084   2
  20  -4 -15 35.6041  2.9239   2
  20  -4 -15 37.2918  3.1108   1
  20   4 -15 40.6831  2.9131   2
  18  -4 -15 14.0243  2.2731   2
  18  -4 -15 12.1427  2.2518   1
  18   4 -15 11.2914  1.9567   2
  16  -4 -15 -0.9494  1.5371   1
  16  -4 -15 1.39168 1.32894   2
  16   4 -15 2.58590 1.51335   2
  14  -4 -15 153.449   6.494   1
  14  -4 -15 140.178   6.287   2
  14   4 -15 149.921   6.503   2
  12  -4 -15 14.9577  2.3593   1
  12  -4 -15 19.5260  2.2394   2
  12   4 -15 20.2205  2.4294   2
  10  -4 -15 301.540  11.127   1
 -10  -4  15 306.065  11.106   3
  10  -4 -15 304.840  11.023   2
  10   4 -15 307.597  11.414   2
   8  -4 -15 13.4514  1.8552   2
  -8  -4  15 17.7099  2.2813   3
   8  -4 -15 14.4215  2.2501   1
   8   4 -15 13.2815  2.0375   2
   6  -4 -15 145.298   6.348   1
  -6  -4  15 139.633   6.260   3
   6  -4 -15 166.726   6.127   2
   6   4 -15 150.468   6.525   2
   4  -4 -15 4.89037 1.64285   1
  -4  -4  15 4.68719 1.66419   3
   4  -4 -15 3.86279 1.14878   2
   4   4 -15 4.52543 1.52185   2
   2  -4 -15 24.8149  2.4357   1
  -2  -4  15 27.9744  2.5843   3
   2   4 -15 28.3176  2.5722   2
   2   4 -15 30.1758  2.0225   1
   0  -4 -15 1.58297 1.38019   1
   0  -4  15 2.63799 1.47872   3
   0   4 -15 1.93676 1.33655   2
   0   4 -15 3.86771 1.13644   1
  -2  -4 -15 35.3805  2.8506   1
   2  -4  15 34.8335  2.7624   3
   2   4  15 39.3372  2.3200   3
  -2   4 -15 37.3339  2.9087   2
  -2   4 -15 36.8597  2.3366   1
  -4  -4 -15 1.23663 1.52011   1
   4  -4  15 -0.2948  1.5101   3
  -4   4 -15 4.16782 1.58781   2
   4   4  15 4.93342 1.33206   3
  -4   4 -15 3.01950 1.33899   1
  -6  -4 -15 149.433   6.556   1
   6  -4  15 148.279   6.545   3
   6   4  15 160.226   5.953   3
  -6   4 -15 152.811   6.696   2
  -6   4 -15 149.573   6.019   1
   8  -4  15 7.67184 2.08653   3
  -8  -4 -15 6.79596 2.05419   1
   8   4  15 8.04476 1.76953   3
  -8   4 -15 8.96593 1.99815   2
  -8   4 -15 10.0097  1.8708   1
 -10  -4 -15 262.453   9.986   1
  10  -4  15 258.413   9.998   3
  10   4  15 258.639   9.420   3
 -10   4 -15 253.581  10.163   2
 -10   4 -15 269.413   9.601   1
  12  -4  15 28.2862  3.0778   3
 -12  -4 -15 27.3692  3.0179   1
 -12   4 -15 33.4279  3.0838   2
 -12   4 -15 29.2800  2.7018   1
  12   4  15 32.8517  2.8878   3
  14  -4  15 53.6736  3.6481   3
 -14  -4 -15 56.9044  3.7135   1
  14   4  15 47.7919  3.2680   3
 -14   4 -15 52.2743  3.4472   1
 -14   4 -15 53.0698  3.7523   2
 -16  -4 -15 12.6190  2.2862   1
  16  -4  15 13.5621  2.4425   3
 -16   4 -15 6.52161 2.08602   1
  16   4  15 11.6705  2.2123   3
 -16   4 -15 12.9344  2.2796   2
  18  -4  15 11.6425  2.2742   3
 -18  -4 -15 12.0196  2.2946   1
 -18   4 -15 12.3716  2.2763   1
  18   4  15 10.6568  2.2402   3
 -20  -4 -15 -0.1621  1.5691   1
  20  -4  15 -0.0769  1.5870   3
 -20   4 -15 -3.2343  1.5580   1
  20   4  15 -3.4667  1.5439   3
  22  -4  15 1.81489 1.80937   3
 -22  -4 -15 1.68199 1.76436   1
 -22   4 -15 -0.8283  1.6543   1
  22   4  15 -1.3511  1.9334   3
 -24  -4 -15 -0.1750  1.6802   1
  24  -4  15 0.30175 1.83000   3
 -24   4 -15 0.08833 1.73525   1
  24   4  15 0.85135 1.98343   3
 -26  -4 -15 3.04402 2.06458   1
  26  -4  15 0.74295 2.01723   3
 -26   4 -15 1.85561 2.11648   1
  26   4  15 1.10422 2.14050   3
 -28  -4 -15 6.72836 2.38622   1
  28  -4  15 12.1118  2.8640   3
  28   4  15 9.01384 2.67641   3
 -28   4 -15 7.53804 2.41254   1
  30  -4  15 10.1800  2.8558   3
 -30  -4 -15 12.0184  2.8005   1
 -30   4 -15 8.50689 2.65329   1
  30   4  15 12.6537  3.1336   3
 -32  -4 -15 15.1824  3.0660   1
  37   5 -15 3.15890 2.10311   2
 -37   5  15 3.51988 2.25989   1
  35  -5 -15 26.8584  3.7522   2
 -35   5  15 27.5974  3.6066   1
  35   5 -15 29.7602  3.3468   2
  33  -5 -15 2.23588 2.23658   2
  33   5 -15 0.37071 1.80916   2
 -33   5  15 2.22758 2.09176   1
  31  -5 -15 72.5792  5.0622   2
  31   5 -15 69.3034  4.4325   2
 -31   5  15 81.7173  5.2648   1
  29  -5 -15 5.36187 2.07986   2
  29   5 -15 2.90294 1.92123   2
 -29   5  15 0.41083 2.33420   1
  27  -5 -15 93.6070  5.3555   2
 -27   5  15 69.8747  5.0770   1
  27   5 -15 89.5710  4.8392   2
  25  -5 -15 2.07080 1.70804   2
  25   5 -15 3.46985 1.73678   2
 -25   5  15 -4.1287  1.9647   1
  23  -5 -15 69.5586  4.4778   2
  23  -5 -15 65.5461  4.4137   1
  23   5 -15 70.9436  4.0915   2
  21  -5 -15 2.93927 1.73395   2
  21  -5 -15 0.59081 1.85241   1
  21   5 -15 0.15202 1.48598   2
  19  -5 -15 33.5232  3.0556   2
  19  -5 -15 39.9098  3.4139   1
  19   5 -15 43.6225  3.2520   2
  17  -5 -15 -1.6004  1.8035   1
  17  -5 -15 0.10796 1.39114   2
  17   5 -15 0.25330 1.49225   2
  15  -5 -15 114.719   5.512   1
  15  -5 -15 98.3355  5.1279   2
  15   5 -15 108.918   5.369   2
  13  -5 -15 61.3554  3.8889   1
  13  -5 -15 56.3326  3.4701   2
  13   5 -15 48.5003  3.4617   2
  11  -5 -15 132.194   6.132   1
  11  -5 -15 132.137   5.742   2
  11   5 -15 125.570   6.016   2
   9  -5 -15 173.544   7.480   1
   9  -5 -15 192.361   7.289   2
  -9  -5  15 178.188   7.448   3
   9   5 -15 178.013   7.665   2
   7  -5 -15 59.0211  3.7672   1
  -7  -5  15 62.7446  3.7192   3
   7  -5 -15 58.7021  3.2312   2
   7   5 -15 58.9955  3.8483   2
   5  -5 -15 40.4973  3.0599   1
  -5  -5  15 34.5564  2.8910   3
   5   5 -15 42.6673  3.0643   2
  -3  -5  15 40.4100  3.0032   3
   3  -5 -15 38.1864  2.9800   1
   3   5 -15 37.6488  3.1167   2
   1  -5 -15 14.4775  2.2194   1
  -1  -5  15 16.0147  2.3133   3
   1   5 -15 19.3766  2.4472   2
  -1  -5 -15 38.0362  3.0513   1
   1  -5  15 40.6656  3.1241   3
  -1   5 -15 36.0587  2.9539   2
   3  -5  15 31.4490  3.1198   3
  -3  -5 -15 30.6656  3.1231   1
  -3   5 -15 29.0384  2.2613   1
  -3   5 -15 26.4464  2.8847   2
   5  -5  15 32.3072  3.1164   3
  -5  -5 -15 34.4735  3.2244   1
  -5   5 -15 43.7106  2.6962   1
   5   5  15 45.3965  2.7186   3
  -5   5 -15 43.8214  3.3975   2
   7  -5  15 123.981   5.958   3
  -7  -5 -15 122.175   5.883   1
  -7   5 -15 117.000   5.911   2
   7   5  15 124.925   5.165   3
  -7   5 -15 129.473   5.384   1
  -9  -5 -15 41.4469  3.5821   1
   9  -5  15 38.8544  3.3473   3
   9   5  15 43.7648  2.9135   3
  -9   5 -15 38.2478  3.2723   2
  -9   5 -15 40.5476  2.9652   1
 -11  -5 -15 195.045   8.133   1
  11  -5  15 185.738   8.101   3
 -11   5 -15 200.679   8.459   2
 -11   5 -15 194.704   7.675   1
  11   5  15 194.534   7.511   3
  13  -5  15 3.12442 1.89945   3
 -13  -5 -15 4.29810 2.06066   1
 -13   5 -15 4.34616 2.05192   2
 -13   5 -15 0.67462 1.73701   1
  13   5  15 3.41572 1.75250   3
  15  -5  15 87.7322  4.9373   3
 -15  -5 -15 91.0368  4.9886   1
  15   5  15 93.5796  4.6857   3
 -15   5 -15 89.8168  5.1999   2
 -15   5 -15 92.2263  4.7792   1
 -17  -5 -15 -0.8571  1.5776   1
  17  -5  15 3.68528 1.83728   3
 -17   5 -15 -1.4863  1.6928   1
 -17   5 -15 -0.3313  1.7452   2
  17   5  15 -0.9599  1.7110   3
 -19  -5 -15 10.6135  2.3383   1
  19  -5  15 11.1023  2.4526   3
 -19   5 -15 9.16108 2.14353   1
 -19   5 -15 8.69045 2.26466   2
  19   5  15 9.32617 2.34386   3
  21  -5  15 3.84276 2.13785   3
 -21  -5 -15 1.22465 1.88557   1
 -21   5 -15 0.59137 1.76509   1
  21   5  15 -3.4087  1.7455   3
 -23  -5 -15 18.2052  2.8793   1
  23  -5  15 21.1833  3.1250   3
 -23   5 -15 13.6929  2.5310   1
  23   5  15 10.2625  2.4907   3
 -25  -5 -15 -1.4665  1.7226   1
  25  -5  15 -2.1175  1.8597   3
  25   5  15 -4.2091  2.0438   3
 -25   5 -15 -0.4297  1.7873   1
  27  -5  15 17.7473  3.2240   3
 -27  -5 -15 18.8737  3.1592   1
 -27   5 -15 16.1163  2.7830   1
  27   5  15 19.8334  3.1327   3
 -29  -5 -15 -1.7752  2.0115   1
  29  -5  15 1.40940 2.27847   3
  29   5  15 0.08328 2.46676   3
 -29   5 -15 4.50107 2.38689   1
 -31  -5 -15 15.9554  3.1621   1
 -36   6  15 36.4161  4.2346   1
  34  -6 -15 7.08610 2.72326   2
  34   6 -15 9.28531 2.41217   2
 -34   6  15 10.8277  2.8862   1
  32  -6 -15 24.9675  3.5831   2
  32   6 -15 17.8108  2.7689   2
 -32   6  15 17.4290  3.2510   1
  30  -6 -15 34.4204  4.0245   2
 -30   6  15 29.8956  3.8600   1
  30   6 -15 35.4136  3.3039   2
  28  -6 -15 6.99230 2.35652   2
  28   6 -15 12.2877  2.3752   2
 -28   6  15 12.2453  2.7747   1
  26  -6 -15 50.0515  3.9802   2
  26   6 -15 52.8556  3.8144   2
 -26   6  15 48.0136  4.3012   1
  24  -6 -15 1.92207 1.89870   2
  24   6 -15 2.57688 1.74561   2
  22  -6 -15 46.1142  3.8326   1
  22  -6 -15 44.2841  3.7630   2
  22   6 -15 48.4270  3.4815   2
  20  -6 -15 7.59495 2.32200   1
  20  -6 -15 5.78369 2.04490   2
  20   6 -15 4.06520 1.75557   2
  18  -6 -15 35.2548  3.2659   2
  18  -6 -15 46.2492  3.7491   1
  18   6 -15 41.3292  3.2510   2
  16  -6 -15 41.6016  3.2847   2
  16  -6 -15 41.3599  3.5658   1
  16   6 -15 42.4666  3.4115   2
  14  -6 -15 114.676   5.557   2
  14  -6 -15 112.910   5.762   1
  14   6 -15 113.438   5.777   2
  12  -6 -15 21.9203  2.8991   1
  12  -6 -15 24.8634  2.7036   2
  12   6 -15 18.8595  2.7050   2
  10  -6 -15 299.916  11.273   1
  10  -6 -15 298.178  10.964   2
  10   6 -15 285.105  11.417   2
   8  -6 -15 5.99800 1.58538   2
   8  -6 -15 2.58369 1.96320   1
  -8  -6  15 4.23703 1.91732   3
   8   6 -15 3.11070 1.85811   2
  -6  -6  15 126.260   5.883   3
   6  -6 -15 114.386   5.671   1
   6   6 -15 116.571   5.871   2
  -4  -6  15 1.49472 1.66470   3
   4  -6 -15 4.24178 1.78626   1
   4   6 -15 2.83528 1.66138   2
  -2  -6  15 47.3092  3.5424   3
   2  -6 -15 44.7964  3.4231   1
   2   6 -15 50.8625  3.6717   2
   0  -6 -15 4.29241 1.91395   1
   0  -6  15 7.79890 2.09695   3
   0   6 -15 6.02412 1.86247   2
   2  -6  15 112.386   5.691   3
  -2  -6 -15 110.318   5.572   1
  -2   6 -15 117.275   5.824   2
  -4  -6 -15 -0.9341  1.9128   1
   4  -6  15 -2.4585  1.8605   3
  -4   6 -15 2.94814 1.78754   2
   6  -6  15 137.410   6.528   3
  -6  -6 -15 133.692   6.393   1
  -6   6 -15 132.328   6.619   2
  -8  -6 -15 1.37618 1.88095   1
   8  -6  15 -0.0293  1.8316   3
  -8   6 -15 2.39311 1.53261   1
   8   6  15 3.93052 1.53672   3
  -8   6 -15 3.00826 1.95283   2
 -10  -6 -15 140.244   6.649   1
  10  -6  15 138.154   6.668   3
 -10   6 -15 147.906   6.107   1
 -10   6 -15 139.939   7.003   2
  10   6  15 146.061   5.969   3
 -12  -6 -15 36.7999  3.3941   1
  12  -6  15 38.4434  3.4334   3
  12   6  15 42.7666  3.0802   3
 -12   6 -15 37.4557  3.6967   2
 -12   6 -15 37.8354  3.0619   1
 -14  -6 -15 45.1286  3.7620   1
  14  -6  15 46.3020  3.7943   3
 -14   6 -15 45.9082  3.4302   1
  14   6  15 43.7853  3.3038   3
 -14   6 -15 41.0342  4.2397   2
  16  -6  15 28.3932  3.3670   3
 -16  -6 -15 25.0813  3.1081   1
  16   6  15 22.9125  2.8177   3
 -16   6 -15 22.8914  2.8501   1
 -16   6 -15 26.0247  3.3208   2
 -18  -6 -15 14.7177  2.6393   1
  18  -6  15 15.6202  2.7918   3
 -18   6 -15 11.6693  2.6583   2
  18   6  15 7.77011 2.30709   3
 -18   6 -15 8.89627 2.31049   1
 -20  -6 -15 7.49977 2.22372   1
  20  -6  15 5.24462 2.18321   3
 -20   6 -15 2.71657 2.02793   1
  20   6  15 4.73876 2.28075   3
 -20   6 -15 4.97003 2.21948   2
  22  -6  15 14.8487  2.8574   3
 -22  -6 -15 12.8884  2.6752   1
 -22   6 -15 17.9097  2.7917   1
  22   6  15 7.79519 2.44533   3
 -24  -6 -15 7.64463 2.51151   1
  24  -6  15 11.9425  2.9091   3
  24   6  15 6.51389 2.59000   3
 -24   6 -15 9.68724 2.53960   1
 -26  -6 -15 14.9386  2.9244   1
  26  -6  15 16.7485  3.1887   3
  26   6  15 13.8229  2.9952   3
 -26   6 -15 13.5180  2.7316   1
 -28  -6 -15 4.30004 2.49534   1
 -28   6 -15 2.76932 2.28689   1
  28   6  15 4.28892 2.76313   3
  33   7 -15 3.49700 2.11366   2
  31  -7 -15 28.2687  3.8862   2
 -31   7  15 22.4186  3.6207   1
  31   7 -15 24.8094  3.1766   2
  29  -7 -15 2.58439 2.20717   2
 -29   7  15 3.53878 2.24363   1
  29   7 -15 1.07482 2.26217   3
  29   7 -15 1.47068 1.85641   2
  27  -7 -15 4.44690 2.21359   2
  27   7 -15 2.43938 1.96195   2
 -27   7  15 3.04866 2.21886   1
  27   7 -15 6.01973 2.50144   3
  25  -7 -15 9.28430 2.39486   2
  25   7 -15 3.60597 1.87790   2
 -25   7  15 3.47530 2.34346   1
  23  -7 -15 25.7722  3.4267   2
  23   7 -15 26.8499  3.1837   2
  21  -7 -15 9.12412 2.35856   2
  21  -7 -15 9.13434 2.75033   1
  21   7 -15 10.3026  2.3677   2
  19  -7 -15 70.9668  4.7882   1
  19  -7 -15 81.7893  4.8514   2
  19   7 -15 69.0945  4.4280   2
  17  -7 -15 1.28624 2.21071   1
  17  -7 -15 4.23422 1.84521   2
  17   7 -15 2.83037 1.75854   2
  15  -7 -15 130.540   6.641   1
  15  -7 -15 138.628   6.499   2
  15   7 -15 134.850   6.645   2
  13  -7 -15 4.92956 2.26267   1
  13  -7 -15 6.42103 1.88213   2
  13   7 -15 2.14460 1.91315   2
  11  -7 -15 146.450   6.363   2
  11  -7 -15 134.843   6.568   1
  11   7 -15 130.172   6.675   2
   9  -7 -15 45.6464  3.5730   1
   9   7 -15 33.5799  3.2367   2
   7  -7 -15 42.1635  3.5715   1
  -7  -7  15 40.0716  3.4369   3
   7   7 -15 33.9001  3.4247   2
   5  -7 -15 64.2041  4.1668   1
  -5  -7  15 62.1792  4.2128   3
   5   7 -15 64.1376  4.3654   2
   3  -7 -15 7.22590 2.19086   1
  -3  -7  15 9.80224 2.41474   3
   3   7 -15 10.4330  2.3961   2
  -1  -7  15 79.9707  4.7521   3
   1  -7 -15 80.8697  4.7266   1
   1   7 -15 80.6368  4.9521   2
   1  -7  15 18.4787  2.8402   3
  -1  -7 -15 12.4305  2.5817   1
  -1   7 -15 19.6220  2.8039   2
   3  -7  15 31.2982  3.4740   3
  -3  -7 -15 32.7351  3.4583   1
  -3   7 -15 34.0126  3.2199   2
  -5  -7 -15 37.7577  3.3943   1
   5  -7  15 39.1952  3.4802   3
  -5   7 -15 44.5039  3.8034   2
   7  -7  15 29.1541  3.3806   3
  -7  -7 -15 32.0589  3.4934   1
  -7   7 -15 28.9186  3.4861   2
  -9  -7 -15 33.7668  3.5688   1
   9  -7  15 36.2652  3.3970   3
  -9   7 -15 37.4565  4.0129   2
 -11  -7 -15 55.7927  4.1160   1
  11  -7  15 54.8567  4.0446   3
 -11   7 -15 51.7613  4.4032   2
 -13  -7 -15 1.56543 1.85796   1
  13  -7  15 2.34877 2.02554   3
 -13   7 -15 0.07229 1.83635   1
  13   7  15 -0.2554  1.7510   3
 -13   7 -15 0.26382 2.16601   2
 -15  -7 -15 44.0848  3.8955   1
  15  -7  15 45.6097  3.8165   3
 -15   7 -15 43.8456  3.4662   1
 -15   7 -15 43.9117  4.1582   2
  15   7  15 43.3209  3.4354   3
  17  -7  15 13.2546  2.7366   3
 -17  -7 -15 12.6329  2.7324   1
 -17   7 -15 5.06030 2.05244   1
 -17   7 -15 10.0618  2.7173   2
  17   7  15 7.21895 2.16689   3
 -19  -7 -15 17.1388  2.9933   1
  19  -7  15 17.3922  3.0834   3
 -19   7 -15 17.9862  2.7975   1
 -19   7 -15 19.3673  3.3015   2
  19   7  15 15.0585  2.7620   3
 -21  -7 -15 2.83400 2.08627   1
  21  -7  15 0.49559 2.15322   3
 -21   7 -15 0.89526 1.95661   1
 -21   7 -15 0.18661 2.02276   2
  21   7  15 1.18849 2.11873   3
  23  -7  15 20.0322  3.3671   3
 -23  -7 -15 22.5363  3.4367   1
 -23   7 -15 18.7688  3.0188   1
  23   7  15 19.2592  3.1391   3
  25  -7  15 2.72418 2.37776   3
 -25  -7 -15 1.96377 2.29044   1
  25   7  15 -1.1807  2.3109   3
 -25   7 -15 0.95090 2.17999   1
 -27  -7 -15 9.24097 2.77384   1
  30   8 -15 5.52638 2.19821   2
  30   8 -15 9.97036 3.06300   3
  28  -8 -15 3.27726 2.39943   2
 -28   8  15 4.52202 2.61992   1
  28   8 -15 1.92680 1.99646   2
  28   8 -15 3.75439 2.57679   3
  26  -8 -15 13.1051  2.8556   2
 -26   8  15 8.21748 2.84042   1
  26   8 -15 9.97247 2.41492   2
  24  -8 -15 1.68277 2.02098   2
 -24   8  15 1.10378 2.40392   1
  24   8 -15 -0.0805  1.7884   2
  22  -8 -15 28.9582  3.6976   2
  22   8 -15 32.5772  3.5539   2
  20  -8 -15 9.10365 2.42192   2
  20  -8 -15 8.94758 2.77475   1
  20   8 -15 7.53115 2.28302   2
  18  -8 -15 36.3673  4.0280   1
  18  -8 -15 43.3819  3.7486   2
  18   8 -15 37.5728  3.4061   2
  16  -8 -15 21.3503  3.0676   2
  16  -8 -15 18.4652  3.2767   1
  16   8 -15 21.8099  3.1073   2
  14  -8 -15 69.6247  4.6592   1
  14   8 -15 64.9023  4.4642   2
  12  -8 -15 28.1695  3.3917   1
  12   8 -15 22.8403  3.2326   2
  10  -8 -15 87.0519  5.1070   1
  10   8 -15 81.5418  5.1569   2
   8  -8 -15 1.65815 1.99298   1
   8   8 -15 0.34393 1.75999   2
   6  -8 -15 54.3855  4.0229   1
  -6  -8  15 44.7549  3.8923   3
   6   8 -15 45.9799  3.8135   2
  -4  -8  15 2.72349 2.13749   3
   4  -8 -15 4.08849 2.15427   1
   4   8 -15 4.45645 2.21543   2
   2  -8 -15 51.0218  3.9048   1
  -2  -8  15 48.6759  4.0088   3
   2   8 -15 51.4221  4.1872   2
   0  -8 -15 0.88327 1.92195   1
   0  -8  15 0.75609 2.02663   3
   0   8 -15 -0.1273  1.8673   2
   2  -8  15 41.3662  3.7109   3
  -2  -8 -15 45.9836  3.7394   1
  -2   8 -15 47.2779  3.9124   2
   4  -8  15 2.83838 2.04556   3
  -4  -8 -15 -2.6035  1.8280   1
  -4   8 -15 2.50601 1.93630   2
  -6  -8 -15 32.7890  3.6797   1
   6  -8  15 34.8527  3.4578   3
  -6   8 -15 41.1781  3.9627   2
  -8  -8 -15 3.70349 2.13221   1
   8  -8  15 -0.8774  1.8269   3
  -8   8 -15 -0.1413  1.9573   2
 -10  -8 -15 50.4188  4.0778   1
  10  -8  15 52.1720  4.1286   3
 -10   8 -15 46.5241  4.2878   2
  12  -8  15 13.5305  2.8813   3
 -12  -8 -15 12.7528  2.6498   1
 -12   8 -15 5.59176 2.73784   2
  14  -8  15 11.5266  2.7592   3
 -14  -8 -15 14.0098  2.7197   1
 -14   8 -15 10.9985  3.0773   2
 -16  -8 -15 12.3042  2.6921   1
  16  -8  15 13.8666  3.0566   3
 -16   8 -15 13.8272  3.0975   2
  18  -8  15 6.00163 2.50858   3
 -18  -8 -15 2.98140 2.24558   1
 -18   8 -15 8.59880 2.73502   2
 -18   8 -15 7.08743 2.30509   1
  18   8  15 4.81328 2.35301   3
  20  -8  15 11.8851  2.9255   3
 -20  -8 -15 8.15960 2.68953   1
 -20   8 -15 10.4057  2.9775   2
 -20   8 -15 9.47263 2.57229   1
  20   8  15 6.34744 2.56374   3
 -22  -8 -15 7.92701 2.70396   1
  22   8  15 1.84832 2.48162   3
 -22   8 -15 6.41620 2.33587   1
 -22   8 -15 8.06802 2.82806   2
 -24   8 -15 3.84538 2.36106   1
  25  -9 -15 4.49687 2.33096   2
  25   9 -15 0.63497 1.78442   2
  23  -9 -15 18.3046  3.1426   2
  23   9 -15 12.6493  2.6887   2
 -23   9  15 17.3329  3.5022   1
  21  -9 -15 9.48608 2.56589   2
  21   9 -15 6.69918 2.42852   2
 -21   9  15 2.86208 2.67971   1
  19  -9 -15 15.4664  2.8789   2
  19   9 -15 7.68303 2.29111   2
  17  -9 -15 3.45908 2.60518   1
  17   9 -15 5.50622 2.24552   2
  15  -9 -15 15.1068  3.0886   1
  15   9 -15 19.9200  3.0429   2
  13  -9 -15 10.5912  2.7101   1
  13   9 -15 10.6365  2.6176   2
  11  -9 -15 33.9383  3.8171   1
  11   9 -15 30.1992  3.7664   2
   9  -9 -15 15.5692  2.8970   1
   9   9 -15 14.8113  2.9267   2
   7  -9 -15 16.4109  2.9303   1
   7   9 -15 15.2313  2.8952   2
   5  -9 -15 15.3908  2.9422   1
   5   9 -15 13.0812  2.7295   2
  -3  -9  15 1.05483 2.23387   3
   3  -9 -15 5.87624 2.41303   1
   3   9 -15 5.35027 2.35222   2
  -1  -9  15 30.4657  3.7580   3
   1  -9 -15 29.7908  3.6532   1
   1   9 -15 26.8645  3.7226   2
   1  -9  15 7.14726 2.57014   3
  -1  -9 -15 1.73836 2.20349   1
  -1   9 -15 2.95579 2.19500   2
  -3  -9 -15 26.4950  3.4982   1
   3  -9  15 26.5561  3.5428   3
  -3   9 -15 31.4911  3.9305   2
   5  -9  15 14.6670  3.0328   3
  -5  -9 -15 14.9893  2.8730   1
  -5   9 -15 13.5484  3.0439   2
   7  -9  15 23.2153  3.4646   3
  -7  -9 -15 22.1159  3.3017   1
  -7   9 -15 19.5106  3.5406   2
  -9  -9 -15 16.3443  3.0312   1
   9  -9  15 23.5099  3.3892   3
  -9   9 -15 11.1216  3.2213   2
 -11  -9 -15 33.0081  3.8402   1
  11  -9  15 33.7432  4.0103   3
 -11   9 -15 29.0928  4.2246   2
 -13  -9 -15 1.42324 2.21409   1
  13  -9  15 5.56902 2.48257   3
 -13   9 -15 2.67894 2.47564   2
  15  -9  15 26.2147  3.8449   3
 -15  -9 -15 26.1570  3.5728   1
 -15   9 -15 23.2165  4.0384   2
  17  -9  15 1.42073 2.34656   3
 -17  -9 -15 3.61167 2.47224   1
 -17   9 -15 -0.2781  2.3734   2
 -19  -9 -15 14.1156  2.9789   1
 -19   9 -15 11.9909  3.2794   2
  18  10 -15 -0.8680  1.9622   2
  16 -10 -15 0.38965 2.46907   1
  16  10 -15 4.06345 2.46894   2
  14 -10 -15 9.56399 2.98501   1
  14  10 -15 14.0104  2.9647   2
  12 -10 -15 3.44268 2.52050   1
  12  10 -15 2.58179 2.32955   2
  10 -10 -15 27.7092  3.7045   1
  10  10 -15 29.8630  3.9030   2
   8 -10 -15 2.86171 2.46130   1
   8  10 -15 0.83525 2.05449   2
   6 -10 -15 27.2246  3.6367   1
   6  10 -15 19.0687  3.3501   2
   4 -10 -15 3.13239 2.41049   1
   4  10 -15 1.34543 1.98213   2
   2 -10 -15 5.00047 2.51518   1
   2  10 -15 6.63913 2.40899   2
   0 -10 -15 -2.5140  1.8949   1
   0 -10  15 -1.9703  2.1181   3
   0  10 -15 -0.0419  1.9571   2
   2 -10  15 6.33011 2.54962   3
  -2 -10 -15 5.54854 2.44429   1
  -2  10 -15 2.45036 2.38315   2
  -4 -10 -15 -0.4435  2.1248   1
   4 -10  15 -1.2333  2.1601   3
  -4  10 -15 1.72830 2.40612   2
   6 -10  15 15.9722  3.1588   3
  -6 -10 -15 18.6916  3.1988   1
  -6  10 -15 17.6994  3.5539   2
   8 -10  15 0.43798 2.24167   3
  -8 -10 -15 0.24855 2.28618   1
  -8  10 -15 0.78729 2.40446   2
 -10 -10 -15 15.0191  3.1720   1
  10 -10  15 20.0874  3.4367   3
 -10  10 -15 14.3037  3.5298   2
 -12 -10 -15 8.39549 2.77632   1
 -14 -10 -15 7.84509 2.72381   1
   3 -11 -15 0.88691 2.37643   1
   1 -11 -15 1.38251 2.38682   1
  -1 -11 -15 -0.5864  2.0753   1
  -3 -11 -15 5.74694 2.72300   1
  -5 -11 -15 3.02876 2.45184   1
  38   0 -16 19.6232  3.1161   2
  36   0 -16 59.5922  4.3993   2
  34   0 -16 41.3225  3.7161   2
  32   0 -16 74.0831  4.5818   2
  30   0 -16 14.7987  2.3580   2
  28   0 -16 101.354   5.176   2
  26   0 -16 2.49117 1.50957   2
  24   0 -16 57.7067  3.7038   2
  22   0 -16 1.87902 1.49836   2
  20   0 -16 255.397   9.742   2
  18   0 -16 3.73052 1.48557   1
  18   0 -16 4.09253 1.57750   2
  16   0 -16 280.659  10.503   2
  16   0 -16 293.192  10.112   1
  14   0 -16 2.33165 1.21105   2
  14   0 -16 0.95657 1.30242   1
  12   0 -16 142.642   5.772   2
  12   0 -16 131.397   5.435   1
  10   0 -16 10.4268  1.7132   1
  10   0 -16 11.4151  1.6882   2
  -8   0  16 175.364   6.452   3
   8   0 -16 175.644   6.715   1
   8   0 -16 181.785   6.885   2
  -6   0  16 25.4396  1.9148   3
   6   0 -16 26.4841  2.0381   2
   6   0 -16 25.4761  2.2031   1
   4   0 -16 9.56257 1.46536   2
  -4   0  16 9.68778 1.45023   3
   4   0 -16 9.69508 1.61432   1
   2   0 -16 89.5166  3.8777   2
  -2   0  16 86.1356  3.7831   3
   2   0 -16 82.8945  3.9611   1
   0   0 -16 44.5688  2.9077   1
   0   0 -16 52.2601  2.8321   2
   0   0  16 53.4697  2.8398   3
  -2   0 -16 268.906   9.631   1
   2   0  16 260.391   9.390   3
  -2   0 -16 271.090   9.470   2
  -4   0 -16 515.861  16.904   2
  -4   0 -16 507.463  16.917   1
   4   0  16 498.830  16.824   3
  -6   0 -16 96.1064  4.5145   1
   6   0  16 91.5568  4.2575   3
  -8   0 -16 277.227  10.281   1
   8   0  16 290.072  10.198   3
 -10   0 -16 110.607   5.314   1
  10   0  16 120.557   5.187   3
  12   0  16 60.3080  3.4685   3
 -12   0 -16 56.7920  3.5906   1
  14   0  16 85.2689  4.3375   3
 -14   0 -16 86.7903  4.5466   1
  16   0  16 22.4115  2.5998   3
 -16   0 -16 25.6012  2.7911   1
 -18   0 -16 59.2588  3.8260   1
  18   0  16 62.1450  3.8002   3
 -20   0 -16 7.24381 1.95151   1
  20   0  16 12.5479  2.2934   3
  22   0  16 16.2726  2.6573   3
 -22   0 -16 14.8158  2.4255   1
 -24   0 -16 20.4733  2.8260   1
  24   0  16 22.3018  2.9961   3
  26   0  16 37.7444  3.5562   3
 -26   0 -16 42.7294  3.6979   1
 -28   0 -16 1.75118 2.06324   1
  28   0  16 1.74074 2.32546   3
  30   0  16 20.4076  3.1984   3
 -30   0 -16 22.3011  3.2775   1
 -32   0 -16 2.88791 2.32680   1
  32   0  16 4.85807 2.50094   3
  39  -1 -16 3.20253 2.28606   2
  39   1 -16 -0.2153  2.0807   2
  37  -1 -16 74.6294  4.9534   2
  37   1 -16 69.1773  4.5879   2
  35  -1 -16 9.45495 2.35807   2
  35   1 -16 6.08732 2.29717   2
  33  -1 -16 122.475   6.254   2
  33   1 -16 113.411   5.890   2
  31  -1 -16 30.5642  3.3453   2
  31   1 -16 30.3825  3.2843   2
  29  -1 -16 51.1573  3.6820   2
  29   1 -16 45.0218  3.3643   2
  27  -1 -16 20.1278  2.5273   2
  27   1 -16 17.8856  2.4699   2
  25  -1 -16 28.9823  2.7656   2
  25   1 -16 25.1484  2.7462   2
  23  -1 -16 24.2343  2.6617   1
  23  -1 -16 31.4753  2.6460   2
  23   1 -16 28.4993  2.4757   2
  21  -1 -16 43.5340  3.0992   1
  21  -1 -16 49.7609  3.3900   2
  21   1 -16 53.9701  3.3748   2
  19  -1 -16 87.9242  4.3918   1
  19  -1 -16 88.5640  4.5129   2
  19   1 -16 84.0810  4.2823   2
  17  -1 -16 131.654   5.410   1
  17  -1 -16 123.866   5.591   2
  17   1 -16 114.830   5.385   2
  15  -1 -16 194.203   7.622   2
  15  -1 -16 186.505   7.359   1
  15   1 -16 192.116   7.624   2
  15   1 -16 197.956   7.072   1
  13  -1 -16 115.074   5.027   1
  13  -1 -16 120.660   5.139   2
  13   1 -16 111.397   5.111   2
  13   1 -16 112.738   4.731   1
  11  -1 -16 207.202   7.792   2
  11  -1 -16 209.130   7.718   1
 -11  -1  16 202.708   7.404   3
  11   1 -16 202.063   7.876   2
  11   1 -16 199.586   7.370   1
  -9  -1  16 110.448   4.620   3
   9  -1 -16 114.212   4.923   1
   9  -1 -16 117.553   4.885   2
   9   1 -16 108.872   4.650   1
   9   1 -16 106.359   4.875   2
   7  -1 -16 272.029   9.833   2
   7  -1 -16 262.928   9.771   1
  -7  -1  16 279.792   9.691   3
   7   1 -16 279.950  10.023   2
   7   1 -16 285.572   9.644   1
   5  -1 -16 70.5739  3.4474   2
  -5  -1  16 72.6462  3.4819   3
   5  -1 -16 70.3033  3.7614   1
   5   1 -16 71.9585  3.6091   2
   5   1 -16 71.6876  3.4856   1
  -5   1  16 75.4965  3.2256   3
  -3  -1  16 78.9723  3.7476   3
   3  -1 -16 83.2696  3.6909   2
   3  -1 -16 75.6735  3.9520   1
   3   1 -16 81.8723  3.7629   1
  -3   1  16 80.8748  3.4854   3
   3   1 -16 81.3019  3.8412   2
   1  -1 -16 13.1928  1.5681   2
   1  -1 -16 13.7026  2.0304   1
  -1  -1  16 14.4753  1.8396   3
   1   1 -16 16.0443  1.7929   2
  -1   1  16 15.3629  1.5805   3
   1   1 -16 13.7889  1.8052   1
  -1  -1 -16 54.0377  3.3050   1
   1  -1  16 53.8896  3.1916   3
  -1  -1 -16 48.0567  2.7462   2
  -1   1 -16 60.2733  3.0935   1
   1   1  16 58.9670  2.8812   3
  -1   1 -16 62.4336  3.1833   2
  -3  -1 -16 36.6985  2.8311   1
   3  -1  16 34.0014  2.6108   3
   3   1  16 41.2078  2.5135   3
  -3   1 -16 37.9255  2.6359   1
  -3   1 -16 43.8394  2.6692   2
  -5  -1 -16 218.476   8.296   1
   5  -1  16 221.420   8.173   3
   5   1  16 212.862   7.937   3
  -5   1 -16 222.447   8.196   1
  -5   1 -16 215.411   8.124   2
   7  -1  16 4.01716 1.54536   3
  -7  -1 -16 4.11560 1.63874   1
  -7   1 -16 2.68016 1.61307   1
   7   1  16 2.15521 1.37679   3
  -7   1 -16 5.29008 1.37873   2
  -9  -1 -16 221.390   8.367   1
   9  -1  16 210.491   8.129   3
   9   1  16 214.512   8.023   3
  -9   1 -16 213.494   8.187   1
 -11  -1 -16 0.08166 1.60375   1
  11  -1  16 0.93805 1.45819   3
 -11   1 -16 0.54265 1.46129   1
  11   1  16 -0.6277  1.4035   3
 -13  -1 -16 172.345   7.266   1
  13  -1  16 174.168   7.111   3
 -13   1 -16 176.610   7.188   1
  13   1  16 176.794   6.990   3
  15  -1  16 20.6266  2.5246   3
 -15  -1 -16 19.2356  2.5124   1
 -15   1 -16 22.1203  2.6111   1
  15   1  16 21.5170  2.5436   3
  17  -1  16 35.8289  2.9369   3
 -17  -1 -16 38.0445  3.1067   1
 -17   1 -16 31.9963  2.9141   1
  17   1  16 34.5210  2.8836   3
 -19  -1 -16 2.57858 1.64006   1
  19  -1  16 2.30912 1.78809   3
 -19   1 -16 3.21621 1.66645   1
  19   1  16 2.38903 1.72707   3
 -21  -1 -16 20.3687  2.6549   1
  21  -1  16 17.6659  2.5303   3
  21   1  16 16.1305  2.4177   3
 -21   1 -16 16.6610  2.5386   1
 -23  -1 -16 1.25409 1.73760   1
  23  -1  16 2.86413 1.97786   3
  23   1  16 0.21316 1.91747   3
 -23   1 -16 2.49660 1.81633   1
  25  -1  16 35.0857  3.3988   3
 -25  -1 -16 39.9802  3.4887   1
 -25   1 -16 41.9694  3.6069   1
  25   1  16 42.0774  3.5248   3
  27  -1  16 4.78086 2.34389   3
 -27  -1 -16 4.71735 2.13033   1
 -27   1 -16 5.17833 2.26975   1
  27   1  16 5.64037 2.35252   3
  29  -1  16 16.7039  2.9741   3
 -29  -1 -16 17.4749  2.8891   1
 -29   1 -16 12.8563  2.8068   1
  29   1  16 16.9533  3.0478   3
 -31  -1 -16 16.6022  2.9861   1
  31  -1  16 19.8374  3.1905   3
  31   1  16 14.9044  3.0367   3
 -31   1 -16 16.6946  2.9739   1
  38  -2 -16 15.5983  2.8966   2
  38   2 -16 14.6856  2.7606   2
  36  -2 -16 46.7253  4.1144   2
  36   2 -16 43.0704  3.7175   2
  34  -2 -16 8.98110 2.38790   2
  34   2 -16 14.5516  2.6840   2
  32  -2 -16 84.1638  5.1084   2
  32   2 -16 84.0014  4.9094   2
  30  -2 -16 4.62302 2.00156   2
  30   2 -16 2.31182 1.72078   2
  28  -2 -16 94.1012  5.0819   2
  28   2 -16 83.2280  4.6678   2
  26  -2 -16 1.77411 1.62863   2
  26   2 -16 1.27413 1.43567   2
 -26   2  16 -2.2565  1.6247   1
  24  -2 -16 53.5543  3.5419   2
  24   2 -16 50.5936  3.3257   2
  22  -2 -16 3.26339 1.82097   1
  22  -2 -16 4.16505 1.61804   2
  22   2 -16 4.17312 1.48098   2
  20  -2 -16 33.4351  2.7668   1
  20  -2 -16 34.4739  2.8698   2
  20   2 -16 36.0706  2.7045   2
  18  -2 -16 13.1413  2.1663   1
  18  -2 -16 13.2906  2.1000   2
  18   2 -16 12.6945  1.9335   2
  16  -2 -16 73.9281  4.1061   1
  16  -2 -16 73.8727  4.0492   2
  16   2 -16 81.5944  4.1460   2
  14  -2 -16 4.22928 1.41379   2
  14  -2 -16 3.20438 1.66698   1
  14   2 -16 5.44540 1.57490   2
  12  -2 -16 330.133  11.694   1
  12  -2 -16 319.588  11.786   2
 -12  -2  16 348.044  11.575   3
  12   2 -16 325.594  11.923   2
  10  -2 -16 27.6557  2.6694   1
  10  -2 -16 30.5517  2.3334   2
 -10  -2  16 26.7416  2.3308   3
  10   2 -16 26.5536  2.3321   2
  10   2 -16 22.3335  2.0702   1
   8  -2 -16 335.166  12.027   2
   8  -2 -16 340.767  12.041   1
  -8  -2  16 347.686  11.945   3
   8   2 -16 347.623  11.544   1
   8   2 -16 350.899  12.359   2
   6  -2 -16 115.208   5.124   1
   6  -2 -16 107.220   4.682   2
  -6  -2  16 110.755   4.862   3
   6   2 -16 110.108   5.024   2
   6   2 -16 112.745   4.587   1
  -4  -2  16 106.561   4.709   3
   4  -2 -16 103.395   4.474   2
   4  -2 -16 106.631   4.866   1
   4   2 -16 104.308   4.753   2
   4   2 -16 109.314   4.459   1
   2  -2 -16 8.96704 1.31883   2
  -2  -2  16 4.77069 1.59911   3
   2  -2 -16 6.25858 1.74067   1
  -2   2  16 9.07493 1.25653   3
   2   2 -16 8.53183 1.45892   1
   2   2 -16 8.43713 1.59509   2
   0  -2 -16 44.0568  3.0542   1
   0  -2 -16 46.3857  2.4497   2
   0  -2  16 38.4236  2.8802   3
   0   2 -16 46.4583  2.7079   1
   0   2 -16 47.6269  2.9385   2
   0   2  16 48.9473  2.4959   3
   2  -2  16 -0.2816  1.3014   3
  -2  -2 -16 -2.5001  1.2715   1
  -2   2 -16 -0.6340  1.1420   1
  -2   2 -16 -0.6060  1.0366   2
   2   2  16 -0.6452  1.0412   3
   4  -2  16 80.5189  4.0951   3
  -4  -2 -16 85.1335  4.2902   1
   4   2  16 80.0821  3.7533   3
  -4   2 -16 92.2379  4.1173   1
  -4   2 -16 81.9736  4.1341   2
  -6  -2 -16 95.1692  4.6541   1
   6  -2  16 94.7192  4.5382   3
  -6   2 -16 88.6344  4.4048   1
  -6   2 -16 93.0888  4.4688   2
   6   2  16 97.0117  4.2340   3
  -8  -2 -16 149.444   6.439   1
   8  -2  16 154.640   6.337   3
  -8   2 -16 141.431   6.227   2
  -8   2 -16 155.470   6.287   1
   8   2  16 149.681   6.016   3
 -10  -2 -16 164.859   6.930   1
  10  -2  16 160.433   6.697   3
 -10   2 -16 166.597   6.747   1
 -10   2 -16 163.044   6.692   2
  10   2  16 156.161   6.475   3
  12  -2  16 42.8506  3.2038   3
 -12  -2 -16 40.5744  3.3511   1
  12   2  16 47.6484  3.0807   3
 -12   2 -16 45.9744  3.1328   1
  14  -2  16 72.9364  4.1170   3
 -14  -2 -16 66.8410  4.0907   1
  14   2  16 69.7716  4.0226   3
 -14   2 -16 79.6028  4.2136   1
  16  -2  16 2.13993 1.79296   3
 -16  -2 -16 2.07180 1.63507   1
  16   2  16 1.14911 1.66512   3
 -16   2 -16 4.48076 1.79986   1
  18  -2  16 12.3255  2.2163   3
 -18  -2 -16 10.6212  2.1322   1
  18   2  16 16.5358  2.4755   3
 -18   2 -16 11.6908  2.1833   1
  20  -2  16 2.74645 1.73659   3
 -20  -2 -16 2.13992 1.65233   1
  20   2  16 2.53954 1.85146   3
 -20   2 -16 1.07535 1.71848   1
 -22  -2 -16 1.96003 1.69571   1
  22  -2  16 1.96389 1.75581   3
 -22   2 -16 -0.4241  1.8002   1
  22   2  16 0.48885 1.89283   3
 -24  -2 -16 24.1275  3.0908   1
  24  -2  16 22.3859  2.9415   3
 -24   2 -16 22.8081  2.9423   1
  24   2  16 20.2275  3.0243   3
  26  -2  16 30.4802  3.4786   3
 -26  -2 -16 31.1721  3.5482   1
  26   2  16 35.2647  3.6812   3
 -26   2 -16 30.4616  3.4731   1
 -28  -2 -16 4.41817 2.29805   1
  28  -2  16 4.75698 2.37029   3
 -28   2 -16 -0.9146  1.9958   1
  28   2  16 1.80954 2.39343   3
  30  -2  16 29.0918  3.5847   3
 -30  -2 -16 22.6521  3.3262   1
 -30   2 -16 24.6683  3.4740   1
  30   2  16 26.7471  3.5085   3
 -32  -2 -16 3.71019 2.39303   1
  37  -3 -16 11.5549  2.7340   2
  37   3 -16 9.68221 2.51630   2
  35  -3 -16 4.65702 2.16914   2
  35   3 -16 4.21239 2.06189   2
  33  -3 -16 29.3039  3.4954   2
  33   3 -16 24.6343  2.9742   2
  31  -3 -16 24.1463  3.1663   2
  31   3 -16 27.0325  3.0323   2
 -31   3  16 24.0950  3.2759   1
  29  -3 -16 40.6991  3.6260   2
  29   3 -16 43.1695  3.4370   2
 -29   3  16 39.2276  3.8133   1
  27  -3 -16 32.1307  3.4172   2
 -27   3  16 29.4698  3.4994   1
  27   3 -16 30.2219  2.9371   2
  25  -3 -16 34.6320  3.0801   2
  25   3 -16 22.9424  2.7364   2
  23  -3 -16 22.0436  2.6606   2
  23  -3 -16 19.9933  2.7173   1
  23   3 -16 16.3304  2.2741   2
  21  -3 -16 11.1529  2.2011   1
  21  -3 -16 14.2108  2.3154   2
  21   3 -16 16.4261  2.2332   2
  19  -3 -16 10.1907  2.0398   2
  19  -3 -16 7.07649 2.05985   1
  19   3 -16 12.3432  2.0691   2
  17  -3 -16 49.9463  3.2959   1
  17  -3 -16 44.4614  3.2346   2
  17   3 -16 42.5094  3.0234   2
  15  -3 -16 44.0873  3.1223   2
  15  -3 -16 45.5980  3.2268   1
  15   3 -16 44.7355  3.1594   2
  13  -3 -16 29.6258  2.5465   2
  13  -3 -16 32.8292  2.9183   1
  13   3 -16 27.1349  2.4949   2
  11  -3 -16 175.882   7.316   2
  11  -3 -16 185.376   7.475   1
 -11  -3  16 198.142   7.402   3
  11   3 -16 189.344   7.634   2
   9  -3 -16 39.6781  2.7474   2
  -9  -3  16 44.4321  3.0538   3
   9  -3 -16 48.0508  3.3832   1
   9   3 -16 40.3429  2.9315   2
   7  -3 -16 361.387  12.278   1
   7  -3 -16 323.530  11.922   2
  -7  -3  16 346.796  12.126   3
   7   3 -16 339.309  12.410   2
  -5  -3  16 26.4186  2.4628   3
   5  -3 -16 26.0012  2.7290   1
   5  -3 -16 23.1661  2.1064   2
   5   3 -16 23.9607  2.3680   2
   5   3 -16 36.0914  2.2009   1
  -3  -3  16 84.6047  4.1635   3
   3  -3 -16 81.3505  4.2898   1
   3  -3 -16 77.6158  3.7041   2
   3   3 -16 89.2949  4.4055   2
   3   3 -16 87.0605  3.7285   1
   1  -3 -16 65.1236  3.8758   1
  -1  -3  16 70.8478  3.8001   3
   1   3 -16 78.0414  3.4872   1
   1   3 -16 73.8969  3.9597   2
  -1  -3 -16 0.53960 1.41011   1
   1  -3  16 -1.4385  1.4356   3
  -1   3 -16 0.87550 1.13035   1
   1   3  16 1.02424 1.06299   3
  -1   3 -16 1.52155 1.28249   2
   3  -3  16 28.8292  2.5987   3
  -3  -3 -16 29.9914  2.7205   1
  -3   3 -16 30.2205  2.6173   2
  -3   3 -16 30.4711  2.3299   1
   3   3  16 31.9108  2.2061   3
   5  -3  16 78.2941  4.1931   3
  -5  -3 -16 75.8756  4.3542   1
   5   3  16 85.5964  3.8403   3
  -5   3 -16 78.2238  4.2474   2
  -5   3 -16 80.4255  3.9475   1
   7  -3  16 10.1353  2.1873   3
  -7  -3 -16 8.66866 2.10190   1
  -7   3 -16 10.0594  1.9349   1
   7   3  16 11.2790  1.8781   3
  -7   3 -16 11.7217  2.0700   2
  -9  -3 -16 206.805   8.300   1
   9  -3  16 207.592   8.232   3
   9   3  16 206.750   7.811   3
  -9   3 -16 194.158   7.818   1
  -9   3 -16 214.306   8.374   2
 -11  -3 -16 36.2933  3.1660   1
  11  -3  16 37.7721  3.1497   3
 -11   3 -16 38.5649  3.1033   1
  11   3  16 34.0674  2.7995   3
 -11   3 -16 41.4953  3.2203   2
 -13  -3 -16 97.4545  5.0983   1
  13  -3  16 98.4294  5.0717   3
 -13   3 -16 97.7785  4.8604   1
  13   3  16 103.784   4.915   3
 -13   3 -16 107.172   5.156   2
  15  -3  16 10.7730  2.1346   3
  15   3  16 4.67459 2.02965   3
 -15   3 -16 11.6686  2.1841   1
 -17  -3 -16 11.6903  2.2149   1
  17  -3  16 8.70733 2.03650   3
  17   3  16 6.55142 1.99406   3
 -17   3 -16 8.67707 2.00006   1
 -19  -3 -16 0.29403 1.49971   1
  19  -3  16 1.77789 1.61529   3
  19   3  16 -1.2054  1.6376   3
 -19   3 -16 0.20186 1.52675   1
  21  -3  16 18.7901  2.6718   3
 -21  -3 -16 16.8282  2.5240   1
  21   3  16 13.3104  2.4231   3
 -21   3 -16 12.5732  2.2990   1
  23  -3  16 1.15204 1.91684   3
 -23  -3 -16 -0.3461  1.7987   1
  23   3  16 0.98114 1.97699   3
 -23   3 -16 -1.1394  1.7565   1
  25  -3  16 36.3675  3.6042   3
 -25  -3 -16 40.2817  3.7343   1
 -25   3 -16 37.9829  3.5866   1
  25   3  16 40.6915  3.7601   3
  27  -3  16 11.6849  2.8212   3
 -27  -3 -16 11.3934  2.7345   1
  27   3  16 13.6417  3.0145   3
 -27   3 -16 4.83263 2.43186   1
 -29  -3 -16 18.1411  3.1347   1
  29  -3  16 21.7589  3.3442   3
 -29   3 -16 17.6764  3.0129   1
  29   3  16 19.0108  3.3248   3
 -31  -3 -16 21.7849  3.3658   1
  31   3  16 12.3483  3.1191   3
  36  -4 -16 7.75832 2.57597   2
  36   4 -16 10.3242  2.5470   2
  34  -4 -16 2.71983 2.00759   2
  34   4 -16 3.04406 1.98350   2
 -34   4  16 5.25884 2.28298   1
  32  -4 -16 16.6185  3.0580   2
 -32   4  16 22.2759  3.2201   1
  32   4 -16 19.1337  2.7309   2
  30  -4 -16 1.29006 1.76466   2
  30   4 -16 3.50009 1.86911   2
 -30   4  16 -0.0762  2.0103   1
  28  -4 -16 30.9315  3.4309   2
  28   4 -16 25.4244  2.9584   2
 -28   4  16 28.1515  3.6386   1
  26  -4 -16 3.26447 1.82688   2
 -26   4  16 -4.0471  1.9781   1
  26   4 -16 2.18708 1.70302   2
  24  -4 -16 22.4120  2.8686   2
  24  -4 -16 15.4073  2.8241   1
  24   4 -16 19.3249  2.5954   2
  22  -4 -16 6.29240 2.01191   2
  22  -4 -16 5.74359 2.27991   1
  22   4 -16 6.21077 1.73293   2
  20  -4 -16 36.3490  3.2174   2
  20  -4 -16 40.5787  3.4797   1
  20   4 -16 39.5965  3.0901   2
  18  -4 -16 -1.6418  1.3632   2
  18  -4 -16 6.95269 2.04790   1
  18   4 -16 2.91095 1.57448   2
  16  -4 -16 48.9858  3.4966   1
  16  -4 -16 48.7566  3.3866   2
  16   4 -16 47.0142  3.2682   2
  14  -4 -16 27.5620  2.5982   2
  14  -4 -16 30.2583  3.0499   1
  14   4 -16 30.8721  2.8280   2
  12  -4 -16 44.8474  3.3036   1
  12  -4 -16 41.0924  2.9267   2
 -12  -4  16 45.6020  3.2396   3
  12   4 -16 44.5563  3.1393   2
 -10  -4  16 31.2782  2.8785   3
  10  -4 -16 26.2199  2.3808   2
  10  -4 -16 27.2178  2.9726   1
  10   4 -16 30.9873  2.7597   2
   8  -4 -16 95.5494  4.8607   1
  -8  -4  16 98.1016  4.7656   3
   8  -4 -16 95.0664  4.4750   2
   8   4 -16 91.5955  4.7529   2
   6  -4 -16 15.4089  2.3484   1
   6  -4 -16 16.4207  1.9099   2
  -6  -4  16 16.6167  2.3577   3
   6   4 -16 21.1192  2.5073   2
   4  -4 -16 79.6074  4.2913   1
  -4  -4  16 87.3332  4.3618   3
   4   4 -16 74.5989  4.2203   2
  -2  -4  16 3.69076 1.59993   3
   2  -4 -16 5.72856 1.74685   1
   2   4 -16 5.67725 1.59022   2
   0  -4 -16 11.2266  2.1398   1
   0  -4  16 11.5126  2.0742   3
   0   4 -16 12.6134  2.0790   2
   0   4 -16 12.9464  1.6149   1
   2  -4  16 5.98055 1.80122   3
  -2  -4 -16 4.68626 1.73776   1
  -2   4 -16 7.39235 1.86680   2
  -2   4 -16 6.37591 1.40395   1
   4  -4  16 29.1361  2.8105   3
  -4  -4 -16 30.6496  2.8471   1
   4   4  16 34.3581  2.4404   3
  -4   4 -16 33.0530  2.5259   1
  -4   4 -16 27.5077  2.6308   2
   6  -4  16 20.5475  2.7590   3
  -6  -4 -16 15.7160  2.5569   1
   6   4  16 18.7741  2.0891   3
  -6   4 -16 17.7964  2.5126   2
  -6   4 -16 15.5881  2.1334   1
   8  -4  16 74.8718  4.3408   3
  -8  -4 -16 78.0545  4.4206   1
  -8   4 -16 73.0962  3.9620   1
   8   4  16 76.6883  3.8439   3
  -8   4 -16 67.4656  4.3364   2
 -10  -4 -16 87.3337  4.8486   1
  10  -4  16 76.7859  4.5757   3
  10   4  16 85.3916  4.2490   3
 -10   4 -16 77.8179  4.6368   2
 -10   4 -16 86.8229  4.4534   1
  12  -4  16 20.9729  2.8025   3
 -12  -4 -16 15.8776  2.6012   1
 -12   4 -16 18.0082  2.5832   2
  12   4  16 17.5044  2.4086   3
 -14  -4 -16 36.3457  3.1043   1
  14  -4  16 34.3939  3.0474   3
 -14   4 -16 32.3391  3.0334   2
  14   4  16 32.0408  2.9628   3
 -14   4 -16 28.3856  2.9951   1
  16  -4  16 3.77380 1.83556   3
 -16  -4 -16 2.22199 1.73960   1
  16   4  16 -1.6508  1.7797   3
 -16   4 -16 3.29812 1.77726   1
  18  -4  16 9.80017 2.19673   3
 -18  -4 -16 8.15566 2.09369   1
 -18   4 -16 6.88542 2.11066   1
  18   4  16 6.18771 2.17258   3
  20  -4  16 1.56232 1.81068   3
 -20  -4 -16 -0.4940  1.6380   1
  20   4  16 -0.6581  1.7776   3
 -20   4 -16 -0.7411  1.5565   1
 -22  -4 -16 3.51626 2.02884   1
  22  -4  16 5.55574 2.17122   3
  22   4  16 0.76511 2.10067   3
 -22   4 -16 2.20656 1.98965   1
 -24  -4 -16 3.58048 2.30291   1
  24  -4  16 6.23504 2.38741   3
  24   4  16 6.61556 2.46827   3
 -24   4 -16 4.30534 2.19800   1
  26  -4  16 7.10799 2.52154   3
 -26  -4 -16 5.18423 2.42147   1
  26   4  16 4.41811 2.42937   3
 -26   4 -16 5.53689 2.30350   1
  28  -4  16 0.60998 2.46615   3
 -28  -4 -16 -0.3564  2.1808   1
  28   4  16 0.75613 2.40571   3
 -28   4 -16 0.81600 2.13493   1
 -30  -4 -16 10.9558  2.7858   1
 -37   5  16 11.0989  2.7562   1
  35  -5 -16 -0.3573  2.2063   2
 -35   5  16 5.75437 2.44936   1
  35   5 -16 4.07963 2.13922   2
  33  -5 -16 9.44007 2.74569   2
  33   5 -16 8.62183 2.22698   2
 -33   5  16 11.3503  2.7842   1
  31  -5 -16 2.43135 2.17186   2
  31   5 -16 2.15322 1.88988   2
 -31   5  16 -0.4167  2.0809   1
  29  -5 -16 6.22797 2.25767   2
 -29   5  16 4.97841 2.43726   1
  29   5 -16 3.41966 1.80367   2
  27  -5 -16 6.22206 2.07158   2
 -27   5  16 3.27308 2.50946   1
  27   5 -16 6.73973 2.07119   2
  25  -5 -16 5.48976 2.13264   2
  25   5 -16 4.34144 1.77297   2
  23  -5 -16 7.73670 2.19194   2
  23  -5 -16 6.00397 2.36542   1
  23   5 -16 12.0936  2.2761   2
  21  -5 -16 18.5692  2.8101   2
  21  -5 -16 21.0118  3.0135   1
  21   5 -16 17.2316  2.5547   2
  19  -5 -16 -1.0046  1.5000   2
  19  -5 -16 -0.4604  1.8877   1
  19   5 -16 0.38799 1.44613   2
  17  -5 -16 34.6036  3.3134   1
  17  -5 -16 32.2853  2.9765   2
  17   5 -16 33.7302  3.0539   2
  15  -5 -16 9.04068 2.30140   1
  15  -5 -16 2.02851 1.54167   2
  15   5 -16 5.06647 1.72864   2
  13  -5 -16 19.8402  2.7465   1
  13  -5 -16 21.6547  2.5020   2
  13   5 -16 16.1630  2.4783   2
  11  -5 -16 11.3005  2.2787   1
 -11  -5  16 11.8874  2.2901   3
  11  -5 -16 8.02315 1.70982   2
  11   5 -16 7.30663 1.97342   2
   9  -5 -16 17.1730  2.1362   2
   9  -5 -16 19.0485  2.6799   1
  -9  -5  16 17.6775  2.4550   3
   9   5 -16 15.8165  2.3877   2
   7  -5 -16 7.75187 2.03015   1
  -7  -5  16 10.1196  2.0921   3
   7   5 -16 9.24181 1.91312   2
  -5  -5  16 10.6919  2.1935   3
   5  -5 -16 8.79238 2.01855   1
   5   5 -16 12.2968  2.1745   2
  -3  -5  16 19.0053  2.4848   3
   3  -5 -16 15.9114  2.3807   1
   3   5 -16 18.1253  2.4924   2
   1  -5 -16 20.9011  2.6121   1
  -1  -5  16 22.6134  2.6449   3
   1   5 -16 17.8035  2.4739   2
   1  -5  16 3.54387 1.78505   3
  -1  -5 -16 2.81353 1.72435   1
  -1   5 -16 2.15426 1.64750   2
  -3  -5 -16 6.70734 2.02465   1
   3  -5  16 8.34066 2.08512   3
  -3   5 -16 9.66275 1.65470   1
  -3   5 -16 6.04847 1.83750   2
  -5  -5 -16 19.8187  2.7601   1
   5  -5  16 18.7015  2.6672   3
  -5   5 -16 20.9365  2.2212   1
  -5   5 -16 18.6968  2.7408   2
  -7  -5 -16 29.0484  3.2126   1
   7  -5  16 32.7506  3.3806   3
   7   5  16 29.4704  2.5335   3
  -7   5 -16 33.9658  2.6678   1
  -7   5 -16 23.5029  3.0000   2
  -9  -5 -16 38.4729  3.5132   1
   9  -5  16 39.7262  3.3611   3
  -9   5 -16 36.4374  3.4705   2
   9   5  16 37.1522  3.0374   3
  -9   5 -16 41.3812  3.0188   1
  11  -5  16 3.26198 1.90545   3
 -11  -5 -16 3.61353 2.13111   1
  11   5  16 3.57411 1.88367   3
 -11   5 -16 1.21517 1.77065   1
 -11   5 -16 3.91752 1.91048   2
 -13  -5 -16 15.4547  2.5493   1
  13  -5  16 11.7510  2.3715   3
  13   5  16 11.1427  2.1709   3
 -13   5 -16 14.3089  2.3459   1
 -13   5 -16 9.84435 2.25737   2
  15  -5  16 20.6229  2.8164   3
 -15  -5 -16 20.6657  2.8869   1
 -15   5 -16 15.8114  2.6654   2
  15   5  16 13.9795  2.4225   3
 -15   5 -16 11.5749  2.3495   1
 -17  -5 -16 0.87533 1.70241   1
  17  -5  16 2.57843 1.84725   3
 -17   5 -16 -2.0901  1.6723   1
  17   5  16 -0.0751  1.9555   3
 -17   5 -16 0.33287 1.71296   2
 -19  -5 -16 4.97665 2.17083   1
  19  -5  16 7.57345 2.25564   3
 -19   5 -16 8.71937 2.25946   1
  19   5  16 8.93158 2.29288   3
  21  -5  16 -1.3565  1.7794   3
 -21  -5 -16 1.05568 1.85913   1
 -21   5 -16 3.27841 1.95343   1
  21   5  16 0.67709 2.00627   3
 -23  -5 -16 0.43203 2.05793   1
  23  -5  16 -0.3070  2.0744   3
  23   5  16 -1.2549  1.9780   3
 -23   5 -16 -0.1772  1.8823   1
 -25  -5 -16 -3.1827  1.7525   1
  25  -5  16 -0.8612  2.2236   3
 -25   5 -16 -0.5310  1.9920   1
  25   5  16 1.02739 2.35949   3
 -27  -5 -16 0.68465 2.30632   1
  27  -5  16 -0.4315  2.3550   3
  27   5  16 -0.8672  2.2765   3
 -27   5 -16 3.00625 2.30662   1
 -29  -5 -16 -0.0342  2.1357   1
 -34   6  16 0.90630 2.22965   1
  34   6 -16 4.94748 2.11580   2
  32  -6 -16 4.98683 2.39006   2
  32   6 -16 2.14035 1.95421   2
 -32   6  16 2.39921 2.37152   1
  30  -6 -16 -0.4071  1.7655   2
 -30   6  16 -0.7985  2.1651   1
  30   6 -16 1.17443 1.78631   2
  28  -6 -16 0.77380 1.89777   2
 -28   6  16 0.78529 2.21310   1
  28   6 -16 2.09526 1.80981   2
  26  -6 -16 3.40877 2.08322   2
 -26   6  16 1.19103 2.22375   1
  26   6 -16 1.02830 1.73107   2
  24  -6 -16 1.40600 1.76290   2
  24   6 -16 2.09595 1.65789   2
  22  -6 -16 -0.6577  2.0282   1
  22  -6 -16 -0.9201  1.6286   2
  22   6 -16 -0.0841  1.6518   2
  20  -6 -16 1.80967 1.82043   2
  20  -6 -16 0.81661 1.98153   1
  20   6 -16 0.92690 1.78924   2
  18  -6 -16 2.13544 1.79251   2
  18  -6 -16 0.90907 1.95044   1
  18   6 -16 0.24839 1.61256   2
  16  -6 -16 12.9159  2.3614   2
  16  -6 -16 12.9291  2.6482   1
  16   6 -16 13.6886  2.4706   2
  14  -6 -16 2.77891 1.64597   2
  14  -6 -16 0.71178 1.99990   1
  14   6 -16 1.45439 1.60247   2
  12  -6 -16 17.7075  2.4302   2
  12  -6 -16 19.9812  2.8850   1
  12   6 -16 15.0856  2.5844   2
  10  -6 -16 5.20407 1.66075   2
 -10  -6  16 3.94110 1.94479   3
  10  -6 -16 4.88526 2.08077   1
  10   6 -16 4.09535 1.83419   2
   8  -6 -16 5.41003 2.00699   1
  -8  -6  16 8.55749 2.19880   3
   8   6 -16 8.47542 2.04880   2
   6  -6 -16 2.97887 1.77652   1
  -6  -6  16 4.72282 1.94324   3
   6   6 -16 3.25992 1.71033   2
  -4  -6  16 2.12179 1.77130   3
   4  -6 -16 0.88000 1.62687   1
   4   6 -16 1.10236 1.58475   2
  -2  -6  16 7.00001 2.11638   3
   2  -6 -16 10.5623  2.3069   1
   2   6 -16 10.5103  2.2106   2
   0  -6  16 2.92461 1.85837   3
   0  -6 -16 4.43070 1.90625   1
   0   6 -16 2.75997 1.66872   2
  -2  -6 -16 11.8577  2.4394   1
   2  -6  16 7.90772 2.30095   3
  -2   6 -16 13.9811  2.5063   2
   4  -6  16 10.6008  2.4329   3
  -4  -6 -16 11.0090  2.4286   1
  -4   6 -16 7.03415 2.24416   2
   6  -6  16 1.01095 1.96889   3
  -6  -6 -16 2.36457 1.98757   1
  -6   6 -16 3.20349 2.00520   2
   8  -6  16 13.3546  2.6424   3
  -8  -6 -16 12.8219  2.6130   1
  -8   6 -16 18.6135  2.3382   1
  -8   6 -16 13.1919  2.6678   2
 -10  -6 -16 4.92270 2.16113   1
  10  -6  16 7.81169 2.20532   3
 -10   6 -16 5.38439 1.87637   1
 -10   6 -16 2.87599 2.13412   2
 -12  -6 -16 5.43449 2.09257   1
  12  -6  16 5.17827 2.06041   3
 -12   6 -16 0.11168 1.81722   1
 -12   6 -16 0.68115 1.90642   2
  12   6  16 2.30603 1.83270   3
 -14  -6 -16 3.72641 2.03099   1
  14  -6  16 5.44550 2.22331   3
  14   6  16 1.01164 1.76416   3
 -14   6 -16 1.98946 1.93089   1
 -14   6 -16 2.76467 2.03288   2
  16  -6  16 9.12460 2.35136   3
 -16  -6 -16 9.57854 2.37531   1
 -16   6 -16 3.51530 2.09948   2
  16   6  16 2.71568 2.09398   3
 -16   6 -16 4.10502 2.06873   1
  18  -6  16 3.09638 2.06112   3
 -18  -6 -16 2.15865 1.90564   1
  18   6  16 0.09365 1.90255   3
 -18   6 -16 0.73827 1.94562   1
 -18   6 -16 2.31068 2.03605   2
 -20  -6 -16 -0.4875  1.9499   1
  20  -6  16 -0.2790  1.9672   3
  20   6  16 -5.8439  1.7429   3
 -20   6 -16 -0.5438  1.8842   1
 -22  -6 -16 0.08621 2.06746   1
  22  -6  16 2.19770 2.18398   3
 -22   6 -16 -1.6000  1.8899   1
  22   6  16 0.22401 2.22630   3
  24  -6  16 0.60623 2.18863   3
 -24  -6 -16 1.48115 2.10563   1
 -24   6 -16 3.48374 2.26179   1
  24   6  16 0.27591 2.47478   3
 -26  -6 -16 -2.0580  2.1261   1
 -26   6 -16 1.85552 2.27115   1
  26   6  16 -0.6141  2.5293   3
  31  -7 -16 1.99508 2.11910   2
 -31   7  16 0.89262 2.35054   1
  31   7 -16 1.81622 1.95680   2
  29  -7 -16 1.27363 1.95026   2
 -29   7  16 5.42890 2.59605   1
  29   7 -16 5.80146 2.09269   2
  27  -7 -16 -0.3301  1.8472   2
 -27   7  16 0.03939 1.95811   1
  27   7 -16 -3.1389  1.5507   2
  27   7 -16 0.45396 2.18513   3
  25  -7 -16 1.63402 1.93593   2
 -25   7  16 -0.0929  2.0133   1
  25   7 -16 -1.2002  1.6270   2
  23  -7 -16 0.01406 1.77276   2
  23   7 -16 0.58859 1.67057   2
  21  -7 -16 -0.7358  1.7075   2
  21  -7 -16 0.59879 2.22398   1
  21   7 -16 1.03283 1.91008   2
  19  -7 -16 5.24422 2.01765   2
  19  -7 -16 4.19889 2.48778   1
  19   7 -16 4.48350 2.09567   2
  17  -7 -16 8.17084 2.20448   2
  17  -7 -16 7.33086 2.55729   1
  17   7 -16 6.36338 2.08781   2
  15  -7 -16 8.34689 2.10180   2
  15  -7 -16 10.4115  2.6335   1
  15   7 -16 7.30984 2.23814   2
  13  -7 -16 8.20154 2.09285   2
  13  -7 -16 12.8474  2.6366   1
  13   7 -16 7.41044 2.30382   2
  11  -7 -16 7.50762 2.23760   1
  11   7 -16 4.90350 1.99384   2
   9  -7 -16 12.9678  2.6635   1
   9   7 -16 13.0523  2.4347   2
  -7  -7  16 3.50407 2.11571   3
   7  -7 -16 6.68213 2.09089   1
   7   7 -16 1.89828 1.63939   2
  -5  -7  16 14.9286  2.6786   3
   5  -7 -16 15.2527  2.6221   1
   5   7 -16 13.7890  2.5317   2
  -3  -7  16 2.69427 1.98388   3
   3  -7 -16 6.64263 2.15142   1
   3   7 -16 2.96020 1.87504   2
   1  -7 -16 4.18457 2.12875   1
  -1  -7  16 7.51148 2.35941   3
   1   7 -16 8.08151 2.28460   2
   1  -7  16 1.29544 2.03980   3
  -1  -7 -16 3.05240 2.10141   1
  -1   7 -16 4.12354 2.01458   2
   3  -7  16 0.96256 1.98868   3
  -3  -7 -16 -0.2070  1.8540   1
  -3   7 -16 -0.3359  1.8841   2
   5  -7  16 10.7803  2.5366   3
  -5  -7 -16 12.1496  2.4904   1
  -5   7 -16 9.55139 2.51711   2
   7  -7  16 1.79666 2.02107   3
  -7  -7 -16 2.10223 2.05779   1
  -7   7 -16 0.46941 1.88190   2
  -9  -7 -16 7.99505 2.31574   1
   9  -7  16 4.42006 2.16821   3
  -9   7 -16 2.63546 2.23046   2
 -11  -7 -16 2.22250 1.85146   1
  11  -7  16 2.53066 1.97592   3
 -11   7 -16 1.73493 2.02724   2
 -13  -7 -16 6.67623 2.31398   1
  13  -7  16 7.04055 2.27923   3
 -13   7 -16 3.69118 2.29811   2
  15  -7  16 5.07764 2.24563   3
 -15  -7 -16 5.75909 2.28157   1
 -15   7 -16 3.66891 2.14713   2
 -15   7 -16 2.26359 1.93740   1
  15   7  16 1.75876 1.99579   3
 -17  -7 -16 1.41146 2.19912   1
  17  -7  16 2.77813 2.09641   3
  17   7  16 -0.7752  2.0350   3
 -17   7 -16 2.55283 2.09370   1
 -17   7 -16 5.87016 2.41065   2
 -19  -7 -16 2.62799 2.20092   1
  19  -7  16 2.62867 2.24136   3
 -19   7 -16 1.25604 2.03255   1
 -19   7 -16 0.39253 2.08663   2
  19   7  16 -3.5692  1.8079   3
 -21  -7 -16 0.28557 1.96371   1
  21  -7  16 1.21325 2.25339   3
  21   7  16 -1.9415  2.1633   3
 -21   7 -16 0.45118 2.00938   1
 -23  -7 -16 2.22810 2.34702   1
  23  -7  16 -1.4872  2.1073   3
  23   7  16 -3.6222  2.2930   3
 -23   7 -16 1.11428 2.16445   1
 -25  -7 -16 1.42500 2.29687   1
 -25   7 -16 4.13516 2.35914   1
  25   7  16 2.42169 2.62623   3
  28  -8 -16 2.61729 2.34307   2
  28   8 -16 2.73053 1.94082   2
  28   8 -16 5.54697 2.67526   3
  26  -8 -16 -2.5197  1.6640   2
  26   8 -16 -0.5992  1.7567   2
 -26   8  16 0.05846 2.28311   1
  24  -8 -16 5.92569 2.38702   2
  24   8 -16 4.52030 2.14655   2
 -24   8  16 5.02053 2.63135   1
  22  -8 -16 3.11392 1.94108   2
  22   8 -16 0.82139 1.79042   2
  20  -8 -16 4.02388 2.55220   1
  20  -8 -16 5.62037 2.19235   2
  20   8 -16 1.84860 2.01632   2
  18  -8 -16 2.43659 1.90943   2
  18  -8 -16 -0.1327  2.3807   1
  18   8 -16 0.50765 1.77491   2
  16  -8 -16 7.57572 2.67246   1
  16   8 -16 10.4310  2.4755   2
  14  -8 -16 3.27687 2.31759   1
  14   8 -16 1.82205 2.07672   2
  12  -8 -16 13.0453  2.7372   1
  12   8 -16 11.6704  2.5497   2
  10  -8 -16 7.58652 2.34507   1
  10   8 -16 4.15250 2.01862   2
   8  -8 -16 7.57723 2.38141   1
   8   8 -16 6.67835 2.12889   2
  -6  -8  16 3.42355 2.14068   3
   6  -8 -16 2.28733 2.09458   1
   6   8 -16 1.39549 1.96262   2
   4  -8 -16 4.86352 2.26776   1
  -4  -8  16 3.55187 2.15724   3
   4   8 -16 3.65872 2.00782   2
  -2  -8  16 17.3805  2.9454   3
   2  -8 -16 15.0235  2.8281   1
   2   8 -16 18.3662  3.0510   2
   0  -8 -16 8.89347 2.51187   1
   0  -8  16 10.8484  2.7986   3
   2  -8  16 30.7781  3.6876   3
  -2  -8 -16 41.5363  4.0722   1
  -2   8 -16 36.3631  4.0586   2
   4  -8  16 8.78916 2.71643   3
  -4  -8 -16 12.7815  2.6747   1
  -4   8 -16 13.7425  2.9780   2
  -6  -8 -16 15.0688  2.7551   1
   6  -8  16 9.69981 2.52420   3
  -6   8 -16 10.4206  2.6165   2
   8  -8  16 6.42319 2.31068   3
  -8  -8 -16 5.59665 2.29176   1
  -8   8 -16 6.29088 2.70348   2
  10  -8  16 3.58148 2.22902   3
 -10  -8 -16 4.06921 2.22567   1
 -10   8 -16 0.15338 2.15620   2
 -12  -8 -16 5.12715 2.28312   1
  12  -8  16 3.36709 2.19274   3
 -12   8 -16 0.67694 2.09678   2
  14  -8  16 1.20265 2.06626   3
 -14  -8 -16 3.18975 2.23495   1
 -14   8 -16 -1.0325  2.0833   2
 -16  -8 -16 4.66969 2.43921   1
  16  -8  16 8.07167 2.62103   3
 -16   8 -16 9.65963 2.90007   2
 -18  -8 -16 1.62396 2.18400   1
  18  -8  16 1.31680 2.36848   3
 -18   8 -16 2.85563 2.43919   2
 -20  -8 -16 0.63961 2.26956   1
 -20   8 -16 3.08898 2.42175   2
 -22  -8 -16 0.57208 2.29844   1
 -22   8 -16 -0.1607  2.1163   2
 -22   8 -16 1.32789 2.19269   1
  22   8  16 -0.1008  2.4522   3
  23  -9 -16 3.14034 2.27765   2
  23   9 -16 0.75802 2.14908   2
  21  -9 -16 2.46250 2.06421   2
  21   9 -16 1.59088 2.03602   2
  19  -9 -16 1.65286 2.53434   1
  19   9 -16 4.27379 2.24546   2
  17  -9 -16 12.0065  3.0575   1
  17   9 -16 12.6319  2.7530   2
  15  -9 -16 14.6452  3.1471   1
  15   9 -16 14.1270  2.8513   2
  13  -9 -16 13.6220  2.9235   1
  13   9 -16 15.2268  2.8725   2
  11  -9 -16 7.30785 2.59171   1
  11   9 -16 9.59682 2.49604   2
   9  -9 -16 3.30083 2.39256   1
   9   9 -16 5.69547 2.33494   2
   7  -9 -16 2.14433 2.37413   1
   7   9 -16 9.11745 2.49985   2
   5  -9 -16 -0.1131  2.0567   1
   5   9 -16 -1.0054  1.7906   2
  -3  -9  16 8.08114 2.64096   3
   3  -9 -16 6.05690 2.43265   1
   3   9 -16 11.2326  2.6736   2
  -1  -9  16 2.74645 2.29983   3
   1  -9 -16 0.06463 2.22604   1
   1   9 -16 3.90412 2.14952   2
   1  -9  16 15.4976  3.1025   3
  -1  -9 -16 18.6917  3.1865   1
  -1   9 -16 22.2709  3.4444   2
  -3  -9 -16 0.92032 2.29607   1
   3  -9  16 3.65122 2.34648   3
  -3   9 -16 0.52570 2.21789   2
  -5  -9 -16 30.0602  3.7247   1
   5  -9  16 27.0222  3.6081   3
  -5   9 -16 23.5999  3.6799   2
  -7  -9 -16 3.66239 2.39103   1
   7  -9  16 4.44568 2.29095   3
  -7   9 -16 1.39423 2.37797   2
  -9  -9 -16 14.0470  2.8953   1
   9  -9  16 8.71444 2.68858   3
  -9   9 -16 8.32898 2.97651   2
 -11  -9 -16 1.49684 2.13169   1
  11  -9  16 3.28384 2.46254   3
 -11   9 -16 -1.0374  2.1189   2
  13  -9  16 5.72382 2.63433   3
 -13  -9 -16 8.20599 2.63364   1
 -13   9 -16 3.45772 2.75898   2
 -15  -9 -16 3.07270 2.32173   1
 -15   9 -16 -3.7945  2.2253   2
 -17  -9 -16 6.97681 2.59248   1
 -17   9 -16 4.59800 2.93109   2
  14  10 -16 3.87810 2.23027   2
  12 -10 -16 19.3062  3.4376   1
  12  10 -16 20.2336  3.3183   2
  10 -10 -16 4.38986 2.54485   1
  10  10 -16 2.00250 2.26287   2
   8 -10 -16 8.58195 2.81948   1
   8  10 -16 12.6808  2.8340   2
   6 -10 -16 0.32698 2.31517   1
   6  10 -16 3.45606 2.31123   2
   4 -10 -16 9.52924 2.80838   1
   4  10 -16 7.80188 2.54379   2
   2 -10 -16 0.63071 2.24013   1
   2  10 -16 0.24112 2.08544   2
   0 -10 -16 10.1239  2.8848   1
   0 -10  16 9.89503 2.99414   3
   0  10 -16 11.1337  3.0255   2
   2 -10  16 -1.6753  2.0987   3
  -2 -10 -16 0.57194 2.22337   1
  -2  10 -16 2.42362 2.48383   2
   4 -10  16 14.6571  3.1157   3
  -4 -10 -16 13.0735  2.9942   1
  -4  10 -16 12.6638  3.2196   2
  -6 -10 -16 6.53769 2.55444   1
   6 -10  16 13.3140  3.1448   3
  -6  10 -16 10.9347  3.1824   2
  -8 -10 -16 5.96938 2.70512   1
 -10 -10 -16 9.46257 2.87482   1
 -12 -10 -16 8.25620 2.82843   1
  38   0 -17 0.38132 1.93212   2
  36   0 -17 0.36421 1.89770   2
  34   0 -17 2.33917 1.90384   2
  32   0 -17 2.76804 1.97735   2
  30   0 -17 0.94339 1.68063   2
  28   0 -17 0.69151 1.59564   2
  26   0 -17 -2.5244  1.3149   2
  24   0 -17 -1.2627  1.4451   2
  22   0 -17 -1.7152  1.3612   2
  20   0 -17 -0.2071  1.3897   2
  18   0 -17 -1.5042  1.5116   1
  18   0 -17 -1.1332  1.3175   2
  16   0 -17 1.15433 1.54656   1
  16   0 -17 -0.7592  1.3239   2
  14   0 -17 1.15605 1.30657   1
  14   0 -17 0.55479 1.20148   2
  12   0 -17 0.42145 1.07470   2
  12   0 -17 1.01208 1.33831   1
  10   0 -17 -0.0948  1.0232   2
  10   0 -17 0.05995 1.16153   1
   8   0 -17 0.14031 0.98259   2
   8   0 -17 -0.7164  1.1086   1
   6   0 -17 -2.2043  1.0902   1
  -6   0  17 0.39927 1.01189   3
   6   0 -17 -1.2903  0.8129   2
   4   0 -17 -1.4382  1.1432   1
   4   0 -17 0.86529 0.95434   2
  -4   0  17 -0.5616  1.0187   3
   2   0 -17 -1.3197  0.8995   2
  -2   0  17 -1.0443  1.0306   3
   2   0 -17 -1.3007  1.2512   1
   0   0 -17 0.32180 0.94522   2
   0   0  17 0.28671 1.24557   3
   0   0 -17 -1.8177  1.3989   1
  -2   0 -17 0.83118 1.08226   2
   2   0  17 3.66987 1.50641   3
  -2   0 -17 2.55879 1.68146   1
  -4   0 -17 6.23027 1.77835   1
   4   0  17 8.60760 1.74670   3
  -6   0 -17 -2.1769  1.6058   1
   6   0  17 -1.5001  1.3492   3
   8   0  17 2.00746 1.57102   3
  -8   0 -17 2.24391 1.73364   1
 -10   0 -17 -1.6009  1.5372   1
  10   0  17 -1.3142  1.4712   3
  12   0  17 -1.2820  1.3821   3
 -12   0 -17 0.45353 1.56840   1
 -14   0 -17 -1.0143  1.4932   1
  14   0  17 0.17308 1.54929   3
 -16   0 -17 1.20686 1.58172   1
  16   0  17 0.90355 1.66772   3
  18   0  17 1.56666 1.62950   3
 -18   0 -17 -0.7921  1.4452   1
 -20   0 -17 -0.7758  1.4886   1
  20   0  17 -1.5896  1.5596   3
 -22   0 -17 -1.8596  1.6415   1
  22   0  17 -0.0101  1.8016   3
  24   0  17 0.32493 1.98204   3
 -24   0 -17 1.02263 1.93265   1
  26   0  17 2.36485 2.17683   3
 -26   0 -17 0.13971 2.09539   1
 -28   0 -17 -2.4379  1.9321   1
  28   0  17 1.86485 2.26513   3
  30   0  17 2.77649 2.57660   3
 -30   0 -17 0.00432 2.30713   1
  37  -1 -17 4.29093 2.17969   2
  37   1 -17 1.60321 2.06051   2
  35  -1 -17 10.8163  2.5790   2
  35   1 -17 12.9266  2.5417   2
  33  -1 -17 15.9108  2.8179   2
  33   1 -17 12.9449  2.5696   2
  31  -1 -17 15.0316  2.5850   2
  31   1 -17 7.69631 2.12244   2
  29  -1 -17 2.74453 1.84307   2
  29   1 -17 2.70007 1.80639   2
  27  -1 -17 2.80848 1.69118   2
  27   1 -17 -0.2817  1.5673   2
  25  -1 -17 2.49409 1.54540   2
  25   1 -17 -0.2030  1.3343   2
  23  -1 -17 3.11812 1.67219   2
  23   1 -17 2.76926 1.64316   2
  21  -1 -17 4.57651 1.75346   2
  21  -1 -17 0.14782 1.77839   1
  21   1 -17 4.42752 1.62953   2
  19  -1 -17 -1.1020  1.5006   1
  19  -1 -17 -0.7113  1.4456   2
  19   1 -17 -1.0015  1.3210   2
  17  -1 -17 65.1067  3.8033   2
  17  -1 -17 55.6079  3.5908   1
  17   1 -17 62.6857  3.5715   2
  15  -1 -17 15.3391  2.0736   2
  15  -1 -17 14.8077  2.1793   1
  15   1 -17 18.4175  2.2468   2
  13  -1 -17 132.696   5.537   2
  13  -1 -17 125.613   5.432   1
  13   1 -17 121.793   5.100   1
  13   1 -17 118.789   5.387   2
  11  -1 -17 4.36495 1.31382   2
  11  -1 -17 4.31696 1.53798   1
  11   1 -17 5.56351 1.42449   2
  11   1 -17 2.24577 1.32074   1
   9  -1 -17 16.1415  2.0623   1
   9  -1 -17 16.8834  1.9388   2
  -9  -1  17 17.8595  1.8759   3
   9   1 -17 15.3278  1.8124   1
   9   1 -17 18.8185  2.0771   2
   7  -1 -17 2.28188 1.03460   2
   7  -1 -17 1.83329 1.38330   1
  -7  -1  17 1.27989 1.15926   3
   7   1 -17 0.76539 1.04718   2
   7   1 -17 0.73576 1.23934   1
  -5  -1  17 38.9938  2.5318   3
   5  -1 -17 39.8605  2.4488   2
   5  -1 -17 40.1373  2.8843   1
   5   1 -17 39.5996  2.6347   2
   5   1 -17 40.9134  2.6113   1
  -3  -1  17 5.10804 1.42723   3
   3  -1 -17 3.17435 1.48600   1
   3  -1 -17 5.90818 1.22446   2
  -3   1  17 7.34237 1.30933   3
   3   1 -17 6.28047 1.45605   1
   3   1 -17 4.03792 1.23034   2
  -1  -1  17 -2.7827  1.2085   3
   1  -1 -17 -0.0071  0.9189   2
   1  -1 -17 -3.1538  1.3313   1
  -1   1  17 1.94303 1.07027   3
   1   1 -17 -1.2502  0.9011   2
   1   1 -17 1.62847 1.32269   1
  -1  -1 -17 16.8384  1.7440   2
   1  -1  17 17.7383  2.1225   3
  -1  -1 -17 17.1808  2.2649   1
   1   1  17 20.9751  1.9310   3
  -1   1 -17 17.5523  2.0972   1
  -1   1 -17 17.7374  2.0257   2
   3  -1  17 19.7112  2.2382   3
  -3  -1 -17 15.0763  2.2543   1
   3   1  17 18.9340  2.0005   3
  -3   1 -17 18.4280  2.2420   1
  -3   1 -17 18.6154  2.0869   2
  -5  -1 -17 13.9158  2.1794   1
   5  -1  17 13.0851  2.0813   3
   5   1  17 13.8122  1.8999   3
  -5   1 -17 11.8256  1.7610   2
  -5   1 -17 13.6211  2.0670   1
   7  -1  17 27.9502  2.7295   3
  -7  -1 -17 30.3511  2.7617   1
   7   1  17 30.1647  2.5910   3
  -7   1 -17 29.6401  2.8465   1
  -9  -1 -17 1.98083 1.62067   1
   9  -1  17 2.12094 1.52083   3
   9   1  17 -2.7294  1.4160   3
  -9   1 -17 0.21449 1.55070   1
 -11  -1 -17 11.2695  2.1790   1
  11  -1  17 14.3059  2.1780   3
 -11   1 -17 9.64027 2.05455   1
  11   1  17 8.56325 1.95113   3
  13  -1  17 1.59071 1.55261   3
 -13  -1 -17 1.03658 1.59520   1
 -13   1 -17 -0.2907  1.4851   1
  13   1  17 1.77295 1.63007   3
  15  -1  17 0.16252 1.58159   3
 -15  -1 -17 0.00771 1.56370   1
 -15   1 -17 0.78279 1.59431   1
  15   1  17 1.40888 1.53121   3
 -17  -1 -17 2.09653 1.58717   1
  17  -1  17 0.22649 1.62267   3
 -17   1 -17 0.01027 1.47708   1
  17   1  17 1.37962 1.73669   3
  19  -1  17 1.18421 1.60953   3
 -19  -1 -17 1.89232 1.62363   1
 -19   1 -17 0.11239 1.68664   1
  19   1  17 1.15242 1.76004   3
 -21  -1 -17 5.22843 2.09686   1
  21  -1  17 5.63587 1.96868   3
  21   1  17 4.81676 2.00332   3
 -21   1 -17 3.16521 1.85627   1
 -23  -1 -17 3.92305 2.18226   1
  23  -1  17 4.01549 2.09498   3
  23   1  17 4.61547 2.25210   3
 -23   1 -17 -0.4504  1.9385   1
 -25  -1 -17 1.37503 2.14178   1
  25  -1  17 2.33186 2.15109   3
 -25   1 -17 -0.1917  1.9675   1
  25   1  17 3.15705 2.40172   3
 -27  -1 -17 2.27864 2.05563   1
  27  -1  17 1.69641 2.08964   3
  27   1  17 1.01045 2.22525   3
 -27   1 -17 1.71869 2.25157   1
 -29  -1 -17 5.30056 2.48936   1
  29  -1  17 0.60448 2.20762   3
  29   1  17 4.12685 2.62725   3
 -29   1 -17 1.81908 2.36892   1
  38   2 -17 10.2654  2.6222   2
  36  -2 -17 3.36995 2.26741   2
  36   2 -17 3.10327 2.01067   2
  34  -2 -17 32.1785  3.6549   2
  34   2 -17 23.4006  3.0954   2
  32  -2 -17 1.03906 1.76948   2
  32   2 -17 3.28056 1.99438   2
  30  -2 -17 14.9613  2.5049   2
  30   2 -17 13.8841  2.3661   2
  28  -2 -17 -0.3378  1.6280   2
  28   2 -17 0.00495 1.48990   2
  26  -2 -17 2.08348 1.70828   2
 -26   2  17 -6.5205  1.6375   1
  26   2 -17 -0.5022  1.5275   2
  24  -2 -17 -3.1769  1.6015   1
  24  -2 -17 1.33314 1.59977   2
  24   2 -17 1.99238 1.60917   2
  22  -2 -17 -1.0884  1.4177   2
  22  -2 -17 -2.8649  1.7333   1
  22   2 -17 0.68462 1.50838   2
  20  -2 -17 14.6686  2.3514   1
  20  -2 -17 14.7094  2.2858   2
  20   2 -17 13.5383  2.0874   2
  18  -2 -17 76.2829  4.2724   2
  18  -2 -17 76.0751  4.2365   1
  18   2 -17 77.6352  4.1334   2
  16  -2 -17 19.4310  2.4226   1
  16  -2 -17 18.3245  2.3962   2
  16   2 -17 17.1547  2.2058   2
  14  -2 -17 129.594   5.722   2
  14  -2 -17 130.538   5.746   1
  14   2 -17 126.908   5.753   2
  12  -2 -17 53.6862  3.3362   2
  12  -2 -17 61.1846  3.6384   1
 -12  -2  17 57.6375  3.3479   3
  12   2 -17 59.4653  3.4865   2
 -10  -2  17 17.6101  2.0418   3
  10  -2 -17 18.2067  2.2815   1
  10  -2 -17 17.6190  2.0543   2
  10   2 -17 18.3382  2.2219   2
  -8  -2  17 3.90655 1.49789   3
   8  -2 -17 5.15021 1.25999   2
   8  -2 -17 3.78447 1.55515   1
   8   2 -17 1.44916 1.31454   2
   8   2 -17 4.94403 1.40112   1
   6  -2 -17 1.40174 1.05965   2
  -6  -2  17 2.41626 1.38801   3
   6  -2 -17 0.72017 1.46849   1
   6   2 -17 2.46330 1.27024   1
   6   2 -17 1.37624 1.24030   2
   4  -2 -17 0.88842 0.93671   2
  -4  -2  17 -0.1825  1.2094   3
   4  -2 -17 0.81447 1.48807   1
   4   2 -17 1.00222 1.25204   1
   4   2 -17 0.53443 1.16566   2
   2  -2 -17 -1.6467  1.3580   1
   2  -2 -17 -0.3000  0.8605   2
  -2  -2  17 -0.9038  1.2057   3
   2   2 -17 0.48092 1.16248   1
   2   2 -17 -0.8755  1.0588   2
   0  -2  17 62.2137  3.5625   3
   0  -2 -17 67.6722  3.8286   1
   0   2  17 68.4697  3.1718   3
   0   2 -17 69.3169  3.7036   2
   0   2 -17 66.7742  3.4181   1
   2  -2  17 25.8989  2.6248   3
  -2  -2 -17 27.6639  2.7666   1
   2   2  17 30.5847  2.1120   3
  -2   2 -17 27.0247  2.5436   2
  -2   2 -17 27.7595  2.3921   1
  -4  -2 -17 28.0356  2.6836   1
   4  -2  17 24.7126  2.5562   3
  -4   2 -17 25.1068  2.4370   1
   4   2  17 27.5856  2.3340   3
  -4   2 -17 27.6428  2.4516   2
  -6  -2 -17 35.4626  2.9305   1
   6  -2  17 35.4534  2.9066   3
  -6   2 -17 33.5879  2.8097   2
   6   2  17 30.2310  2.5434   3
  -6   2 -17 31.8648  2.8119   1
   8  -2  17 40.6299  2.9823   3
  -8  -2 -17 41.3386  3.3134   1
   8   2  17 33.8306  2.8395   3
  -8   2 -17 39.5428  2.9395   2
  -8   2 -17 34.0682  2.9889   1
 -10  -2 -17 0.97291 1.68952   1
  10  -2  17 2.84578 1.74815   3
  10   2  17 -0.5260  1.5923   3
 -10   2 -17 0.61873 1.69610   1
 -12  -2 -17 14.9067  2.4366   1
  12  -2  17 18.4230  2.3930   3
  12   2  17 13.5710  2.1365   3
 -12   2 -17 14.9425  2.2922   1
 -14  -2 -17 -0.1793  1.4745   1
  14  -2  17 -0.0366  1.5429   3
  14   2  17 -1.6525  1.5577   3
 -14   2 -17 0.81168 1.61082   1
 -16  -2 -17 3.62678 1.76390   1
  16  -2  17 6.19764 1.90737   3
 -16   2 -17 2.40047 1.64255   1
  16   2  17 2.66723 1.74807   3
  18  -2  17 0.03639 1.58031   3
 -18  -2 -17 1.38108 1.57121   1
  18   2  17 -0.7019  1.5686   3
 -18   2 -17 2.10017 1.68318   1
 -20  -2 -17 9.72069 2.22687   1
  20  -2  17 11.4732  2.3010   3
  20   2  17 9.91111 2.19147   3
 -20   2 -17 11.5786  2.2320   1
  22  -2  17 0.00468 1.91379   3
 -22  -2 -17 -0.5084  1.8643   1
  22   2  17 3.34045 2.13252   3
 -22   2 -17 1.99288 1.88392   1
 -24  -2 -17 15.2234  2.7940   1
  24  -2  17 19.0771  2.9087   3
 -24   2 -17 13.5584  2.7137   1
  24   2  17 14.0955  2.6911   3
 -26  -2 -17 2.61799 2.11588   1
  26  -2  17 3.16325 2.26011   3
  26   2  17 -1.5110  2.1313   3
 -26   2 -17 1.14101 2.28148   1
  28  -2  17 9.68366 2.65296   3
 -28  -2 -17 9.57924 2.69185   1
 -28   2 -17 9.32986 2.78280   1
  28   2  17 5.29148 2.68758   3
  30  -2  17 4.45968 2.43528   3
 -30  -2 -17 2.64541 2.45465   1
 -30   2 -17 0.49836 2.30721   1
  30   2  17 0.61365 2.39398   3
  37   3 -17 10.8332  2.4753   2
  35  -3 -17 3.32343 2.10381   2
  35   3 -17 4.77898 2.07490   2
  33  -3 -17 11.5270  2.5987   2
  33   3 -17 14.1202  2.5235   2
  31  -3 -17 1.01701 2.04118   2
  31   3 -17 3.02538 1.84411   2
  29  -3 -17 6.30534 2.19877   2
 -29   3  17 6.78131 2.37808   1
  29   3 -17 9.73240 2.17227   2
  27  -3 -17 10.3735  2.3119   2
  27   3 -17 11.8781  2.1759   2
 -27   3  17 3.56659 2.41300   1
  25  -3 -17 15.1782  2.5802   2
  25   3 -17 13.5151  2.2970   2
  23  -3 -17 -3.1589  1.6812   1
  23  -3 -17 0.73240 1.59375   2
  23   3 -17 -2.0232  1.2987   2
  21  -3 -17 6.85612 2.07577   1
  21  -3 -17 10.1845  2.1174   2
  21   3 -17 10.6565  2.1215   2
  19  -3 -17 6.02479 2.03296   1
  19  -3 -17 4.10532 1.78384   2
  19   3 -17 8.60469 1.92995   2
  17  -3 -17 66.0307  3.9604   2
  17  -3 -17 76.0061  4.1832   1
  17   3 -17 73.0776  4.1038   2
  15  -3 -17 16.2068  2.2279   2
  15  -3 -17 14.7934  2.3932   1
  15   3 -17 15.4146  2.1850   2
  13  -3 -17 144.122   6.212   1
  13  -3 -17 131.506   5.974   2
  13   3 -17 139.229   6.099   2
 -11  -3  17 1.41357 1.53334   3
  11  -3 -17 4.29621 1.81697   1
  11  -3 -17 1.62908 1.24317   2
  11   3 -17 4.98948 1.51506   2
   9  -3 -17 97.3294  4.6112   2
  -9  -3  17 109.655   4.870   3
   9  -3 -17 102.085   4.975   1
   9   3 -17 97.9631  4.8546   2
   7  -3 -17 1.15804 1.14412   2
  -7  -3  17 -0.2139  1.5228   3
   7  -3 -17 0.45636 1.61739   1
   7   3 -17 2.92738 1.45698   2
   5  -3 -17 81.7544  4.2820   1
   5  -3 -17 73.7642  3.7247   2
  -5  -3  17 78.3140  4.1327   3
   5   3 -17 80.8118  4.2120   2
   3  -3 -17 -3.4767  1.4678   1
  -3  -3  17 -0.2324  1.3887   3
   3   3 -17 1.33932 1.23632   1
   3   3 -17 1.19582 1.30658   2
   1  -3 -17 64.4246  3.8599   1
  -1  -3  17 60.6359  3.6381   3
   1   3 -17 71.2721  3.4109   1
   1   3 -17 62.7639  3.7503   2
  -1  -3 -17 4.55067 1.89128   1
   1  -3  17 1.65023 1.58059   3
  -1   3 -17 4.85343 1.38028   1
  -1   3 -17 4.98313 1.55514   2
   3  -3  17 40.3219  3.0273   3
  -3  -3 -17 33.5051  3.0284   1
   3   3  17 32.4189  2.2796   3
  -3   3 -17 33.3852  2.5625   1
  -3   3 -17 29.6165  2.7247   2
  -5  -3 -17 1.65429 1.70669   1
   5  -3  17 4.54674 1.82498   3
  -5   3 -17 3.53021 1.67205   2
   5   3  17 6.34544 1.53127   3
  -5   3 -17 3.67048 1.60944   1
   7  -3  17 84.2475  4.4973   3
  -7  -3 -17 84.8151  4.5217   1
  -7   3 -17 78.9620  4.2234   1
  -7   3 -17 79.0393  4.3846   2
   7   3  17 79.0164  3.9602   3
  -9  -3 -17 26.2470  2.8525   1
   9  -3  17 24.1828  2.7686   3
  -9   3 -17 19.4845  2.5715   1
   9   3  17 21.2710  2.4512   3
  -9   3 -17 25.5915  2.7504   2
 -11  -3 -17 45.6101  3.3625   1
  11  -3  17 45.2953  3.3240   3
 -11   3 -17 42.1648  3.1055   1
  11   3  17 41.4842  3.1816   3
 -11   3 -17 40.3247  3.1237   2
 -13  -3 -17 16.6413  2.4952   1
  13  -3  17 16.9826  2.5159   3
  13   3  17 13.3927  2.2361   3
 -13   3 -17 14.1807  2.2814   1
  15  -3  17 8.88760 2.03408   3
 -15  -3 -17 10.1021  2.1730   1
  15   3  17 7.12915 2.04374   3
 -15   3 -17 8.99781 1.97246   1
  17  -3  17 2.51444 1.72373   3
 -17  -3 -17 0.42152 1.55464   1
  17   3  17 -1.0977  1.8058   3
 -17   3 -17 0.18652 1.51246   1
  19  -3  17 14.0807  2.4732   3
 -19  -3 -17 12.9459  2.4116   1
  19   3  17 12.3185  2.3806   3
 -19   3 -17 12.6398  2.2719   1
  21  -3  17 13.4532  2.5444   3
 -21  -3 -17 9.34544 2.36359   1
  21   3  17 9.82691 2.41335   3
 -21   3 -17 12.8698  2.4124   1
  23  -3  17 6.11416 2.32810   3
 -23  -3 -17 6.07466 2.38640   1
  23   3  17 12.2621  2.6658   3
 -23   3 -17 9.09472 2.33511   1
  25  -3  17 9.21203 2.65458   3
 -25  -3 -17 9.83328 2.67352   1
  25   3  17 5.95778 2.51202   3
 -25   3 -17 5.83716 2.32197   1
  27  -3  17 11.9724  2.7613   3
 -27  -3 -17 6.40996 2.65721   1
  27   3  17 4.34272 2.58230   3
 -27   3 -17 8.17070 2.58278   1
  29  -3  17 2.96915 2.61437   3
 -29  -3 -17 3.40331 2.35618   1
 -29   3 -17 2.62520 2.58522   1
  29   3  17 5.67054 2.68383   3
  36   4 -17 0.45286 2.08686   2
  34  -4 -17 25.5817  3.5628   2
  34   4 -17 27.4648  3.2710   2
  32  -4 -17 11.5331  2.7520   2
  32   4 -17 10.8305  2.4045   2
 -32   4  17 11.2680  2.6117   1
  30  -4 -17 14.4859  2.7901   2
 -30   4  17 14.0247  2.8770   1
  30   4 -17 10.9819  2.2624   2
  28  -4 -17 9.56736 2.23594   2
  28   4 -17 7.67229 2.15997   2
 -28   4  17 4.82696 2.42415   1
  26  -4 -17 46.0601  3.6758   2
  26   4 -17 47.6818  3.6062   2
  24  -4 -17 -1.9521  1.9284   1
  24  -4 -17 2.57589 1.80965   2
  24   4 -17 0.05099 1.65963   2
  22  -4 -17 143.212   6.800   2
  22  -4 -17 144.409   6.719   1
  22   4 -17 134.496   6.369   2
  20  -4 -17 11.5621  2.3530   2
  20  -4 -17 16.9598  2.7645   1
  20   4 -17 15.5177  2.4109   2
  18  -4 -17 109.411   5.616   2
  18  -4 -17 118.326   5.682   1
  18   4 -17 113.329   5.559   2
  16  -4 -17 0.74621 1.92798   1
  16  -4 -17 0.08915 1.48962   2
  16   4 -17 3.39379 1.56337   2
  14  -4 -17 65.5900  3.8774   2
  14  -4 -17 67.6473  4.2649   1
  14   4 -17 72.1613  4.0718   2
 -12  -4  17 98.7148  4.8461   3
  12  -4 -17 87.6900  4.5956   2
  12  -4 -17 97.8306  4.9901   1
  12   4 -17 101.168   5.043   2
 -10  -4  17 4.72516 1.90280   3
  10  -4 -17 5.10133 1.83293   1
  10  -4 -17 3.79814 1.37590   2
  10   4 -17 3.37364 1.61177   2
  -8  -4  17 52.9800  3.4469   3
   8  -4 -17 56.5498  3.2657   2
   8  -4 -17 53.4775  3.7910   1
   8   4 -17 57.9641  3.5421   2
   6  -4 -17 6.49250 2.05611   1
  -6  -4  17 6.02024 1.96940   3
   6   4 -17 4.88925 1.59577   2
  -4  -4  17 30.1014  2.8721   3
   4  -4 -17 30.6828  3.0010   1
   4   4 -17 36.5653  2.8324   2
   2  -4 -17 40.1023  3.1244   1
  -2  -4  17 35.4947  2.9593   3
   2   4 -17 39.1028  2.9450   2
   0  -4 -17 22.1211  2.6691   1
   0  -4  17 23.6669  2.6539   3
   0   4 -17 29.8303  2.2055   1
   0   4 -17 21.9459  2.6146   2
   2  -4  17 27.8959  2.8712   3
  -2  -4 -17 25.7377  2.9186   1
  -2   4 -17 26.1965  2.8555   2
  -2   4 -17 26.9274  2.2124   1
   4  -4  17 32.6335  3.1979   3
  -4  -4 -17 29.9910  2.9168   1
  -4   4 -17 29.4223  2.8792   2
  -4   4 -17 30.7596  2.5794   1
   6  -4  17 29.4980  2.8935   3
  -6  -4 -17 34.3699  3.0859   1
   6   4  17 29.6628  2.6363   3
  -6   4 -17 31.0046  2.9915   2
  -6   4 -17 32.8882  2.7093   1
   8  -4  17 89.1701  4.8203   3
  -8  -4 -17 90.1180  4.8819   1
   8   4  17 86.9729  4.2805   3
  -8   4 -17 86.0360  4.4323   1
  -8   4 -17 90.5534  4.8859   2
 -10  -4 -17 6.47298 2.11722   1
  10  -4  17 12.7859  2.3861   3
 -10   4 -17 9.39364 2.11356   2
 -10   4 -17 4.72380 1.93205   1
  10   4  17 6.85267 1.92037   3
  12  -4  17 72.8728  4.4189   3
 -12  -4 -17 80.2903  4.6640   1
  12   4  17 75.1084  4.1710   3
 -12   4 -17 79.0118  4.6222   2
 -12   4 -17 75.5625  4.2888   1
 -14  -4 -17 2.72619 1.81389   1
  14  -4  17 3.16637 1.83422   3
  14   4  17 0.87448 1.87867   3
 -14   4 -17 -4.1926  1.5940   1
 -16  -4 -17 25.7107  3.0043   1
  16  -4  17 23.9778  2.9849   3
  16   4  17 22.3435  2.7327   3
 -16   4 -17 22.4223  2.7639   1
 -18  -4 -17 2.97547 1.98580   1
  18  -4  17 2.43099 1.96457   3
  18   4  17 -0.4797  1.8112   3
 -18   4 -17 0.88894 1.65797   1
  20  -4  17 12.3063  2.6135   3
 -20  -4 -17 11.5613  2.5614   1
 -20   4 -17 9.67015 2.24010   1
  20   4  17 11.6307  2.4448   3
 -22  -4 -17 -0.8378  1.9796   1
  22  -4  17 -0.7036  2.0717   3
  22   4  17 0.99158 2.13910   3
 -22   4 -17 0.71812 1.89910   1
  24  -4  17 2.23338 2.30694   3
 -24  -4 -17 7.30061 2.45125   1
 -24   4 -17 7.86280 2.42252   1
  24   4  17 4.90329 2.37664   3
  26  -4  17 -2.3271  2.1554   3
 -26  -4 -17 1.10313 2.17634   1
  26   4  17 -1.7349  2.1741   3
 -26   4 -17 -2.7533  2.0244   1
 -28  -4 -17 9.54260 2.71322   1
 -28   4 -17 6.86410 2.69152   1
  28   4  17 10.2482  3.0483   3
 -35   5  17 17.3816  3.2107   1
  33  -5 -17 28.9686  3.8799   2
 -33   5  17 31.0797  3.8951   1
  33   5 -17 26.0219  3.2417   2
  31  -5 -17 -0.4468  1.8603   2
 -31   5  17 1.49457 2.11317   1
  31   5 -17 -0.9994  1.5275   2
  29  -5 -17 23.5369  3.3751   2
  29   5 -17 23.7912  2.9724   2
 -29   5  17 21.0447  3.4040   1
  27  -5 -17 8.27168 2.39825   2
 -27   5  17 5.36837 2.61960   1
  27   5 -17 10.1652  2.2788   2
  25  -5 -17 34.9997  3.7139   2
  25   5 -17 28.1872  3.0886   2
  23  -5 -17 35.2052  3.6817   1
  23  -5 -17 34.1624  3.4461   2
  23   5 -17 38.2615  3.3394   2
  21  -5 -17 56.4869  4.1919   1
  21  -5 -17 68.8242  4.4553   2
  21   5 -17 67.1213  4.0827   2
  19  -5 -17 44.9699  3.6470   1
  19  -5 -17 43.7642  3.5710   2
  19   5 -17 42.4123  3.4567   2
  17  -5 -17 86.8363  4.8891   2
  17  -5 -17 102.795   5.207   1
  17   5 -17 81.3101  4.8539   2
  15  -5 -17 6.48003 2.19097   1
  15  -5 -17 6.07453 1.80278   2
  15   5 -17 4.92627 1.81570   2
  13  -5 -17 148.472   6.706   1
  13  -5 -17 140.304   6.347   2
  13   5 -17 139.651   6.596   2
 -11  -5  17 8.01931 2.21389   3
  11  -5 -17 10.7295  1.8733   2
  11  -5 -17 12.5588  2.4309   1
  11   5 -17 8.50953 2.03266   2
   9  -5 -17 117.779   5.788   1
  -9  -5  17 124.200   5.765   3
   9   5 -17 111.308   5.760   2
   7  -5 -17 20.4480  2.8710   1
  -7  -5  17 21.9661  2.6827   3
   7   5 -17 19.7875  2.6259   2
  -5  -5  17 52.3566  3.6122   3
   5  -5 -17 48.3991  3.5753   1
   5   5 -17 48.1956  3.5711   2
  -3  -5  17 8.00024 2.11055   3
   3  -5 -17 5.86690 2.00124   1
   3   5 -17 7.00777 1.93765   2
   1  -5 -17 45.6356  3.4520   1
  -1  -5  17 51.2936  3.5586   3
   1   5 -17 51.7452  3.6719   2
  -1  -5 -17 7.84612 2.05270   1
   1  -5  17 7.77328 2.05763   3
  -1   5 -17 5.38835 1.89793   2
  -3  -5 -17 54.0288  3.7816   1
   3  -5  17 59.4089  3.8578   3
  -3   5 -17 54.1451  3.8945   2
  -5  -5 -17 -1.5938  1.9073   1
   5  -5  17 1.15566 1.82550   3
  -5   5 -17 2.34388 1.48084   1
  -5   5 -17 -0.7171  1.6117   2
  -7  -5 -17 98.1826  5.1689   1
   7  -5  17 87.3105  5.0197   3
  -7   5 -17 95.1712  4.5944   1
  -7   5 -17 90.4788  5.1904   2
  -9  -5 -17 28.1766  3.2322   1
   9  -5  17 25.8596  3.1450   3
  -9   5 -17 25.8326  3.1323   2
   9   5  17 25.2861  2.6041   3
  -9   5 -17 28.1718  2.8490   1
  11  -5  17 80.4428  4.8180   3
 -11  -5 -17 93.3399  5.0416   1
 -11   5 -17 82.2259  5.0212   2
  11   5  17 80.3231  4.2768   3
 -11   5 -17 81.2534  4.4271   1
  13  -5  17 34.5408  3.4265   3
 -13  -5 -17 32.4686  3.4992   1
 -13   5 -17 35.7528  3.1038   1
  13   5  17 34.1974  3.0680   3
 -13   5 -17 36.0906  3.5048   2
  15  -5  17 19.4831  2.8836   3
 -15  -5 -17 21.4715  2.9243   1
  15   5  17 18.8236  2.6767   3
 -15   5 -17 18.1508  2.6520   1
 -15   5 -17 20.6708  2.8841   2
 -17  -5 -17 8.42532 2.39771   1
  17  -5  17 5.55539 2.16565   3
  17   5  17 9.41231 2.34882   3
 -17   5 -17 8.47221 2.14353   1
  19  -5  17 13.3795  2.6311   3
 -19  -5 -17 8.42328 2.38919   1
 -19   5 -17 12.4462  2.4411   1
  19   5  17 6.61920 2.32404   3
 -21  -5 -17 1.80538 2.04067   1
  21  -5  17 6.54403 2.36165   3
  21   5  17 -0.3699  1.9567   3
 -21   5 -17 2.19672 2.14184   1
  23  -5  17 9.65174 2.80867   3
 -23  -5 -17 7.43756 2.61096   1
  23   5  17 8.34777 2.57617   3
 -23   5 -17 10.2237  2.6055   1
  25  -5  17 2.93946 2.46260   3
 -25  -5 -17 6.53073 2.48736   1
  25   5  17 3.12057 2.39427   3
 -25   5 -17 5.77127 2.43639   1
 -27  -5 -17 5.65968 2.54718   1
  27   5  17 6.18127 2.77367   3
 -27   5 -17 6.52156 2.66330   1
  32  -6 -17 1.95633 2.20414   2
 -32   6  17 2.61803 2.46788   1
  32   6 -17 0.88093 1.78588   2
  30  -6 -17 24.0783  3.5165   2
  30   6 -17 20.1901  2.9036   2
 -30   6  17 25.7666  3.8524   1
  28  -6 -17 6.50853 2.42447   2
 -28   6  17 5.09945 2.51448   1
  28   6 -17 3.07431 1.78824   2
  26  -6 -17 18.7275  3.0927   2
 -26   6  17 18.4426  3.4148   1
  26   6 -17 20.8228  2.8593   2
  24  -6 -17 0.11920 1.76196   2
  24   6 -17 -0.5075  1.5667   2
  22  -6 -17 46.6314  3.9951   2
  22  -6 -17 55.5494  4.1815   1
  22   6 -17 54.5907  3.9346   2
  20  -6 -17 10.2074  2.4054   2
  20  -6 -17 8.65778 2.62430   1
  20   6 -17 8.46694 2.29601   2
  18  -6 -17 71.9226  4.5835   1
  18  -6 -17 68.4676  4.4265   2
  18   6 -17 62.7270  4.1862   2
  16  -6 -17 12.6447  2.7662   1
  16  -6 -17 14.5637  2.4504   2
  16   6 -17 13.0852  2.5406   2
  14  -6 -17 88.0492  5.1716   1
  14  -6 -17 92.0971  4.9397   2
  14   6 -17 92.1764  5.1576   2
  12  -6 -17 41.7836  3.6026   1
  12  -6 -17 47.4898  3.3824   2
  12   6 -17 38.7353  3.3123   2
  10  -6 -17 31.8018  3.4703   1
 -10  -6  17 34.3159  3.2504   3
  10   6 -17 26.9888  3.1127   2
   8  -6 -17 60.5588  4.1778   1
  -8  -6  17 69.0461  4.2542   3
   8   6 -17 58.1742  4.0322   2
   6  -6 -17 4.86862 2.02680   1
  -6  -6  17 5.04938 2.10821   3
   6   6 -17 5.33618 1.80379   2
   4  -6 -17 54.8800  3.7440   1
  -4  -6  17 47.0456  3.5528   3
   4   6 -17 47.8855  3.7086   2
  -2  -6  17 9.41594 2.25757   3
   2  -6 -17 7.36139 2.17314   1
   2   6 -17 8.28336 2.19567   2
   0  -6 -17 45.7691  3.6494   1
   0  -6  17 51.6242  3.7385   3
   0   6 -17 49.7318  3.8418   2
  -2  -6 -17 40.7523  3.5205   1
   2  -6  17 47.3226  3.6826   3
  -2   6 -17 42.5683  3.5365   2
   4  -6  17 72.3889  4.6193   3
  -4  -6 -17 74.3331  4.6384   1
  -4   6 -17 76.6352  4.7227   2
   6  -6  17 48.7924  3.9591   3
  -6  -6 -17 49.1011  3.9838   1
  -6   6 -17 47.1457  3.9666   2
  -8  -6 -17 85.1218  5.0504   1
   8  -6  17 83.0030  5.0002   3
  -8   6 -17 85.3597  5.1965   2
 -10  -6 -17 8.08876 2.46619   1
  10  -6  17 8.88276 2.41716   3
 -10   6 -17 4.14951 2.18442   2
 -10   6 -17 6.15503 1.86861   1
 -12  -6 -17 67.1398  4.4765   1
  12  -6  17 62.6677  4.3871   3
 -12   6 -17 64.3760  4.6000   2
 -12   6 -17 69.8860  4.0647   1
 -14  -6 -17 0.14027 2.02627   1
  14  -6  17 4.24235 2.09197   3
 -14   6 -17 -1.0038  1.7178   2
  14   6  17 -0.3396  1.8773   3
 -14   6 -17 -1.6913  1.7011   1
  16  -6  17 27.7734  3.4272   3
 -16  -6 -17 29.2332  3.3872   1
 -16   6 -17 26.2456  3.3931   2
 -16   6 -17 21.6875  2.9461   1
  16   6  17 27.2755  3.1209   3
 -18  -6 -17 -1.7908  1.9764   1
  18  -6  17 -0.0992  2.0710   3
 -18   6 -17 -3.2272  1.5390   1
  18   6  17 -3.1668  1.9817   3
 -20  -6 -17 16.2071  2.8822   1
  20  -6  17 12.6177  2.9153   3
 -20   6 -17 17.0097  2.7914   1
  20   6  17 10.4588  2.7146   3
 -22  -6 -17 3.76133 2.23653   1
  22  -6  17 -0.9724  2.0800   3
 -22   6 -17 1.72000 2.07882   1
  22   6  17 0.13069 2.38024   3
 -24  -6 -17 19.3616  3.3774   1
  24  -6  17 19.4605  3.3962   3
 -24   6 -17 15.4932  2.8965   1
  24   6  17 15.8167  3.1564   3
  29  -7 -17 15.1072  3.1162   2
 -29   7  17 5.19887 2.61572   1
  29   7 -17 15.2898  2.6944   2
  27  -7 -17 0.86871 1.95990   2
  27   7 -17 -1.2740  1.7543   2
 -27   7  17 0.02227 2.20964   1
  25  -7 -17 3.45369 2.11219   2
 -25   7  17 3.10783 2.28889   1
  25   7 -17 2.57389 1.94889   2
  23  -7 -17 2.41752 1.98623   2
  23   7 -17 2.09573 1.93997   2
  21  -7 -17 22.5999  3.1934   2
  21  -7 -17 20.1562  3.3010   1
  21   7 -17 19.2102  2.8679   2
  19  -7 -17 19.0686  2.9048   2
  19  -7 -17 18.2434  3.1666   1
  19   7 -17 17.3810  2.9040   2
  17  -7 -17 118.269   6.205   2
  17  -7 -17 119.504   6.420   1
  17   7 -17 125.939   6.379   2
  15  -7 -17 21.9079  3.3283   1
  15   7 -17 17.7244  2.8712   2
  13  -7 -17 131.771   6.592   1
  13   7 -17 119.413   6.299   2
  11  -7 -17 13.7194  2.7571   1
  11   7 -17 11.8831  2.4747   2
   9  -7 -17 48.4817  3.8919   1
   9   7 -17 54.8180  3.9598   2
  -7  -7  17 1.71067 1.95838   3
   7  -7 -17 2.87526 1.95268   1
   7   7 -17 2.61984 1.76944   2
  -5  -7  17 28.4837  3.3339   3
   5  -7 -17 31.3524  3.4285   1
   5   7 -17 29.3336  3.4067   2
  -3  -7  17 -0.3984  1.8567   3
   3  -7 -17 -1.3456  1.8395   1
   3   7 -17 0.31035 1.64012   2
   1  -7 -17 53.1859  4.0777   1
  -1  -7  17 49.7548  3.8687   3
   1   7 -17 47.9675  3.9907   2
   1  -7  17 2.72579 2.13019   3
  -1  -7 -17 1.13526 2.04592   1
  -1   7 -17 0.60148 1.91274   2
  -3  -7 -17 65.1182  4.4486   1
   3  -7  17 62.7647  4.4358   3
  -3   7 -17 65.7894  4.6820   2
   5  -7  17 1.86784 2.25444   3
  -5  -7 -17 2.50824 2.13830   1
  -5   7 -17 1.83310 1.94931   2
   7  -7  17 56.6833  4.2561   3
  -7  -7 -17 58.6344  4.3348   1
  -7   7 -17 53.1753  4.3802   2
  -9  -7 -17 8.51552 2.52878   1
   9  -7  17 10.4086  2.6386   3
  -9   7 -17 15.3945  2.9430   2
  11  -7  17 16.3703  2.9273   3
 -11  -7 -17 25.0314  3.3089   1
 -11   7 -17 18.0173  3.1972   2
 -13  -7 -17 16.9765  2.9696   1
  13  -7  17 18.1374  3.0518   3
 -13   7 -17 16.0712  3.0229   2
 -15  -7 -17 1.66755 2.03105   1
  15  -7  17 0.04843 1.93800   3
 -15   7 -17 1.32749 2.11448   2
 -17  -7 -17 7.97774 2.64093   1
  17  -7  17 8.63354 2.53253   3
 -17   7 -17 4.30295 2.21370   1
 -17   7 -17 7.02933 2.56540   2
 -19  -7 -17 7.88788 2.82463   1
  19  -7  17 3.55360 2.42374   3
 -19   7 -17 7.15484 2.53231   2
 -19   7 -17 6.58745 2.44020   1
  19   7  17 5.45430 2.50401   3
  21  -7  17 1.43409 2.32554   3
 -21  -7 -17 8.52341 2.84307   1
 -21   7 -17 5.19115 2.31698   1
  21   7  17 0.51065 2.44005   3
 -23  -7 -17 10.1391  2.9048   1
  23   7  17 1.88005 2.38799   3
 -23   7 -17 8.40955 2.57477   1
  26  -8 -17 10.2145  2.6601   2
  24  -8 -17 1.25148 1.91317   2
  24   8 -17 -2.6831  1.5430   2
 -24   8  17 -1.2079  2.2891   1
  22  -8 -17 10.6925  2.6174   2
  22   8 -17 9.30869 2.55098   2
  20  -8 -17 6.07677 2.18245   2
  20  -8 -17 0.79325 2.40035   1
  20   8 -17 1.98756 2.03388   2
  18  -8 -17 34.4285  4.0226   1
  18   8 -17 38.1402  3.4997   2
  16  -8 -17 21.5099  3.3480   1
  16   8 -17 19.0080  2.9813   2
  14  -8 -17 73.9730  5.0036   1
  14   8 -17 71.5422  4.9105   2
  12  -8 -17 30.0248  3.7335   1
  12   8 -17 35.6542  3.4532   2
  10  -8 -17 24.5003  3.3506   1
  10   8 -17 23.2227  3.2490   2
   8  -8 -17 20.3631  3.1078   1
   8   8 -17 19.1188  3.0537   2
  -6  -8  17 0.68625 2.12930   3
   6  -8 -17 6.06679 2.31410   1
   6   8 -17 4.26643 2.06609   2
   4  -8 -17 5.03780 2.26151   1
  -4  -8  17 9.29638 2.60413   3
   4   8 -17 7.05600 2.40184   2
  -2  -8  17 12.1052  2.8066   3
   2  -8 -17 16.4720  2.9134   1
   2   8 -17 12.1863  2.6675   2
   0  -8  17 10.9537  2.6936   3
   0  -8 -17 9.38010 2.65073   1
   0   8 -17 10.5403  2.5618   2
  -2  -8 -17 33.1594  3.7407   1
   2  -8  17 29.2827  3.6340   3
  -2   8 -17 26.2085  3.6927   2
   4  -8  17 39.3701  3.9001   3
  -4  -8 -17 46.3737  3.9849   1
  -4   8 -17 40.0111  4.3571   2
   6  -8  17 16.6250  3.0138   3
  -6  -8 -17 12.6408  2.7931   1
  -6   8 -17 12.2203  2.9641   2
   8  -8  17 48.3684  4.0775   3
  -8  -8 -17 43.7816  3.9605   1
  -8   8 -17 50.0221  4.4571   2
 -10  -8 -17 1.05302 2.14782   1
  10  -8  17 2.05343 2.22898   3
 -10   8 -17 -0.1112  2.1830   2
 -12  -8 -17 14.3028  2.9515   1
  12  -8  17 13.8854  2.8775   3
 -12   8 -17 14.6444  3.2096   2
 -14  -8 -17 -0.3535  2.1349   1
  14  -8  17 0.00984 2.02730   3
 -14   8 -17 -0.0487  2.1700   2
 -16  -8 -17 9.68453 2.70698   1
  16  -8  17 4.71535 2.45743   3
 -16   8 -17 7.04854 2.71331   2
 -18  -8 -17 -1.0315  2.1971   1
 -18   8 -17 1.78348 2.29205   2
 -20   8 -17 10.8069  2.8943   2
  23  -9 -17 7.16487 2.59618   2
  19  -9 -17 7.07793 2.82371   1
  19   9 -17 5.36028 2.40437   2
  17  -9 -17 22.9819  3.6414   1
  17   9 -17 21.3674  3.3580   2
  15  -9 -17 1.39648 2.36091   1
  15   9 -17 4.21187 2.29801   2
  13  -9 -17 23.0910  3.5484   1
  13   9 -17 18.9453  3.2668   2
  11  -9 -17 6.20008 2.55879   1
  11   9 -17 4.75679 2.21067   2
   9  -9 -17 20.9090  3.3429   1
   9   9 -17 19.5953  3.1811   2
   7  -9 -17 2.72397 2.46945   1
   7   9 -17 7.76506 2.33275   2
   5  -9 -17 12.8781  2.9551   1
   5   9 -17 15.4406  3.0105   2
   3  -9 -17 -0.5394  2.0964   1
  -3  -9  17 -1.1501  2.0521   3
   3   9 -17 3.07386 2.26125   2
   1  -9 -17 26.3460  3.6190   1
  -1  -9  17 30.5138  3.8880   3
   1   9 -17 25.1526  3.6912   2
   1  -9  17 -0.3591  2.3007   3
  -1  -9 -17 1.23135 2.35534   1
  -1   9 -17 0.53814 2.12879   2
  -3  -9 -17 34.7270  4.0345   1
   3  -9  17 36.5931  4.1589   3
  -3   9 -17 35.1178  4.3713   2
  -5  -9 -17 5.45116 2.53292   1
   5  -9  17 5.31749 2.48548   3
  -5   9 -17 4.24524 2.44985   2
   7  -9  17 24.3014  3.5940   3
  -7  -9 -17 17.3761  3.2480   1
  -7   9 -17 16.1019  3.1921   2
  -9  -9 -17 8.75732 2.64871   1
   9  -9  17 11.0758  2.8745   3
  -9   9 -17 8.15402 2.92506   2
  11  -9  17 5.70177 2.44927   3
 -11  -9 -17 4.52539 2.40193   1
 -11   9 -17 7.36533 2.85815   2
 -13  -9 -17 11.3282  2.8861   1
 -13   9 -17 4.83078 2.74617   2
 -15  -9 -17 11.4196  2.9466   1
   8 -10 -17 15.8034  3.3740   1
   6 -10 -17 6.73033 2.69790   1
   6  10 -17 6.82275 2.64017   2
   4 -10 -17 4.00861 2.56139   1
   4  10 -17 3.61659 2.46273   2
   2 -10 -17 5.54982 2.59420   1
   2  10 -17 9.01150 2.87645   2
   0 -10 -17 0.92786 2.26498   1
   0  10 -17 4.21646 2.43310   2
  -2 -10 -17 7.51683 2.82295   1
  -4 -10 -17 6.01566 2.63673   1
  36   0 -18 40.0239  3.8017   2
  34   0 -18 14.7297  2.8173   2
  32   0 -18 57.0301  4.1342   2
  30   0 -18 13.3661  2.4888   2
  28   0 -18 31.8298  3.3426   2
  26   0 -18 3.50440 1.80952   2
  24   0 -18 41.5430  3.1757   2
  22   0 -18 29.5398  2.6980   2
  20   0 -18 101.574   5.126   2
  18   0 -18 185.587   7.664   2
  16   0 -18 47.5366  3.1410   1
  16   0 -18 48.8617  3.4028   2
  14   0 -18 322.487  11.719   2
  14   0 -18 320.561  11.270   1
  12   0 -18 32.2792  2.4872   2
  12   0 -18 32.0778  2.6109   1
  10   0 -18 75.2696  3.8327   1
  10   0 -18 77.1946  3.9169   2
   8   0 -18 45.1051  2.9331   1
   8   0 -18 47.7641  2.8818   2
   6   0 -18 7.76084 1.69997   1
   6   0 -18 10.9296  1.6241   2
   4   0 -18 -2.9931  1.2203   1
   4   0 -18 -1.6606  0.8621   2
  -4   0  18 0.22777 1.08197   3
  -2   0  18 85.2699  4.0412   3
   2   0 -18 89.8413  4.1771   2
   2   0 -18 92.2807  4.4411   1
   0   0  18 8.78881 1.76775   3
   0   0 -18 4.47956 1.80192   1
   0   0 -18 6.57694 1.46944   2
   2   0  18 406.180  13.921   3
  -2   0 -18 412.474  14.113   1
  -2   0 -18 401.377  13.891   2
   4   0  18 5.84649 1.79281   3
  -4   0 -18 5.09355 2.05879   1
   6   0  18 346.530  12.082   3
  -6   0 -18 335.331  12.149   1
  -8   0 -18 11.5354  2.1284   1
   8   0  18 7.74155 1.83605   3
 -10   0 -18 98.9961  4.8516   1
  10   0  18 89.6878  4.5944   3
 -12   0 -18 0.06948 1.43683   1
  12   0  18 1.15328 1.42253   3
  14   0  18 33.6380  2.8798   3
 -14   0 -18 34.3742  3.0726   1
 -16   0 -18 0.93620 1.53938   1
  16   0  18 0.96127 1.52591   3
 -18   0 -18 20.7632  2.7238   1
  18   0  18 17.7036  2.5104   3
 -20   0 -18 2.05136 1.79482   1
  20   0  18 3.31808 1.90382   3
 -22   0 -18 58.4787  4.1206   1
  22   0  18 56.9022  4.0370   3
  24   0  18 3.68564 2.42678   3
 -24   0 -18 6.52561 2.35461   1
 -26   0 -18 23.9610  3.3731   1
  26   0  18 25.6355  3.4294   3
  28   0  18 38.4123  4.1669   3
 -28   0 -18 41.9527  3.9773   1
  37   1 -18 7.47066 2.31175   2
  35  -1 -18 50.0699  4.1052   2
  35   1 -18 50.0345  4.0109   2
  33  -1 -18 4.59426 2.06471   2
  33   1 -18 8.55059 2.31331   2
  31  -1 -18 60.5517  4.3090   2
  31   1 -18 55.6667  3.9452   2
  29  -1 -18 -0.1106  1.6070   2
  29   1 -18 -1.6383  1.4545   2
  27  -1 -18 21.1606  2.8540   2
  27   1 -18 21.1443  2.7504   2
  25  -1 -18 2.08566 1.56505   2
  25   1 -18 1.66547 1.66293   2
  23  -1 -18 28.9581  3.0642   2
  23   1 -18 26.1858  2.6029   2
  21  -1 -18 13.3252  2.3417   2
  21   1 -18 16.2564  2.4009   2
  19  -1 -18 234.316   9.219   2
  19  -1 -18 228.410   8.824   1
  19   1 -18 239.365   9.217   2
  17  -1 -18 30.8819  2.8524   2
  17  -1 -18 27.2852  2.7836   1
  17   1 -18 25.7104  2.4888   2
  15  -1 -18 279.462  10.526   2
  15  -1 -18 294.355  10.275   1
  15   1 -18 265.773  10.383   2
  13  -1 -18 36.9432  2.9667   1
  13  -1 -18 40.3524  2.9032   2
  13   1 -18 34.8255  2.8373   2
  11  -1 -18 191.406   7.409   1
  11  -1 -18 195.851   7.503   2
  11   1 -18 176.238   7.426   2
  11   1 -18 189.349   7.128   1
   9  -1 -18 1.74245 1.48675   1
   9  -1 -18 1.26698 1.10458   2
   9   1 -18 0.21320 1.07868   2
   9   1 -18 1.34498 1.32005   1
   7  -1 -18 18.9989  2.2754   1
   7  -1 -18 22.4200  1.9959   2
  -7  -1  18 21.3314  2.0870   3
   7   1 -18 21.1760  2.2038   2
   7   1 -18 22.5977  2.2096   1
   5  -1 -18 0.28457 0.94114   2
  -5  -1  18 -1.1236  1.1656   3
   5  -1 -18 -2.3493  1.3547   1
   5   1 -18 2.59141 1.17785   2
   5   1 -18 -0.6598  1.2016   1
   3  -1 -18 53.0546  3.4538   1
  -3  -1  18 52.6869  3.1192   3
   3  -1 -18 49.6517  2.9177   2
   3   1 -18 54.5677  3.1741   1
   3   1 -18 53.4336  3.1266   2
  -1  -1  18 26.7456  2.6179   3
   1  -1 -18 34.0744  2.2772   2
   1  -1 -18 29.0443  2.9263   1
  -1   1  18 32.7748  2.3028   3
   1   1 -18 34.3708  2.5450   2
   1   1 -18 34.6026  2.6935   1
   1  -1  18 209.473   8.038   3
  -1  -1 -18 219.141   8.350   1
   1   1  18 219.525   7.781   3
  -1   1 -18 209.773   7.968   1
  -1   1 -18 192.775   7.899   2
  -3  -1 -18 184.178   7.558   1
   3  -1  18 178.909   7.302   3
  -3   1 -18 182.514   7.311   1
   3   1  18 188.846   7.096   3
  -3   1 -18 185.143   7.184   2
   5  -1  18 125.285   5.562   3
  -5  -1 -18 122.707   5.675   1
   5   1  18 116.105   5.156   3
  -5   1 -18 128.689   5.639   1
   7  -1  18 148.703   6.319   3
  -7  -1 -18 152.684   6.523   1
  -7   1 -18 152.595   6.466   1
   7   1  18 143.600   6.047   3
  -9  -1 -18 23.2553  2.7265   1
   9  -1  18 25.8222  2.6389   3
   9   1  18 24.1693  2.3533   3
  -9   1 -18 20.9794  2.6198   1
 -11  -1 -18 27.6576  2.8936   1
  11  -1  18 25.4338  2.7247   3
 -11   1 -18 26.5210  2.8405   1
  11   1  18 27.5761  2.4790   3
  13  -1  18 15.8441  2.2985   3
 -13  -1 -18 13.8035  2.2795   1
  13   1  18 12.3011  2.0494   3
 -13   1 -18 11.8913  2.1920   1
 -15  -1 -18 6.82623 1.92485   1
  15  -1  18 4.28806 1.68554   3
  15   1  18 6.63840 1.83463   3
 -15   1 -18 5.66318 1.75926   1
  17  -1  18 10.0275  2.1130   3
 -17  -1 -18 8.95022 2.11099   1
 -17   1 -18 6.49694 1.94858   1
  17   1  18 7.55474 2.10676   3
  19  -1  18 13.9333  2.4293   3
 -19  -1 -18 14.7644  2.4793   1
  19   1  18 10.8665  2.3562   3
 -19   1 -18 10.6548  2.3113   1
  21  -1  18 15.3037  2.6882   3
 -21  -1 -18 11.4797  2.5247   1
 -21   1 -18 17.8359  2.8660   1
  21   1  18 13.5314  2.5666   3
 -23  -1 -18 26.7058  3.3128   1
  23  -1  18 25.0339  3.2590   3
 -23   1 -18 25.8604  3.4052   1
  23   1  18 27.4120  3.3642   3
 -25  -1 -18 8.10692 2.53984   1
  25  -1  18 4.87419 2.52044   3
 -25   1 -18 5.89867 2.33987   1
  25   1  18 2.65039 2.52208   3
 -27  -1 -18 51.4425  4.3817   1
  27  -1  18 45.6359  4.1978   3
 -27   1 -18 42.9819  4.2035   1
  27   1  18 43.0689  4.0420   3
 -29  -1 -18 3.47520 2.43230   1
  29   1  18 3.81704 2.63156   3
 -29   1 -18 2.22819 2.63625   1
  36  -2 -18 36.8441  3.9774   2
  36   2 -18 35.4588  3.5181   2
  34  -2 -18 6.50503 2.39085   2
  34   2 -18 8.88402 2.34940   2
  32  -2 -18 22.9449  3.2293   2
  32   2 -18 19.8996  2.9724   2
  30  -2 -18 33.1646  3.5884   2
  30   2 -18 27.1761  3.0758   2
  28  -2 -18 3.56356 2.01832   2
  28   2 -18 1.64653 1.75551   2
  26  -2 -18 12.6680  2.4262   2
  26   2 -18 12.0036  2.2380   2
  24  -2 -18 54.3576  3.7546   1
  24  -2 -18 50.1706  3.7983   2
  24   2 -18 55.9124  3.7252   2
  22  -2 -18 16.6445  2.5240   2
  22  -2 -18 10.4803  2.3827   1
  22   2 -18 13.4295  2.3349   2
  20  -2 -18 126.699   5.957   2
  20  -2 -18 134.809   5.990   1
  20   2 -18 125.577   5.898   2
  18  -2 -18 57.2225  3.7714   1
  18  -2 -18 56.9610  3.7186   2
  18   2 -18 58.5632  3.7174   2
  16  -2 -18 64.0217  3.9035   1
  16  -2 -18 58.7530  3.7430   2
  16   2 -18 60.5711  3.7107   2
  14  -2 -18 91.9923  4.6191   2
  14  -2 -18 90.5676  4.6648   1
  14   2 -18 88.3359  4.5376   2
  12  -2 -18 17.7868  2.2403   2
  12  -2 -18 22.6337  2.5142   1
  12   2 -18 17.7461  2.2287   2
  10  -2 -18 64.5007  3.8709   1
  10  -2 -18 72.9916  3.6811   2
 -10  -2  18 64.9608  3.5423   3
  10   2 -18 65.0865  3.7356   2
  -8  -2  18 24.2166  2.3620   3
   8  -2 -18 19.4497  2.4044   1
   8  -2 -18 20.4184  2.0342   2
   8   2 -18 22.7220  2.3937   2
   6  -2 -18 82.5210  4.3785   1
   6  -2 -18 84.5417  4.0074   2
  -6  -2  18 85.1484  4.1968   3
   6   2 -18 83.5116  4.3153   2
   6   2 -18 91.1752  4.0733   1
  -4  -2  18 25.1041  2.5093   3
   4  -2 -18 29.6414  2.1793   2
   4  -2 -18 26.7349  2.8814   1
   4   2 -18 25.7452  2.3955   2
   4   2 -18 28.6013  2.3992   1
   2  -2 -18 79.5005  4.3211   1
  -2  -2  18 76.4128  4.1231   3
   2   2 -18 84.1728  3.9451   1
   2   2 -18 77.3378  4.0734   2
   0  -2  18 48.1767  3.3410   3
   0  -2 -18 45.9162  3.4338   1
   0   2 -18 47.5730  3.1286   2
   0   2 -18 49.2417  3.0651   1
  -2  -2 -18 226.616   8.696   1
   2  -2  18 197.779   8.286   3
  -2   2 -18 215.492   8.471   2
  -2   2 -18 229.935   8.284   1
   2   2  18 221.820   7.930   3
   4  -2  18 1.33418 1.74696   3
  -4  -2 -18 2.21395 1.86392   1
   4   2  18 6.32624 1.55856   3
  -4   2 -18 2.83716 1.79461   1
  -4   2 -18 1.49180 1.43756   2
   6  -2  18 106.392   5.107   3
  -6  -2 -18 111.721   5.302   1
   6   2  18 105.489   4.759   3
  -6   2 -18 106.701   5.034   2
  -6   2 -18 110.472   5.121   1
   8  -2  18 23.8362  2.6619   3
  -8  -2 -18 21.2742  2.6481   1
  -8   2 -18 19.7852  2.5484   1
   8   2  18 14.1770  2.1151   3
 -10  -2 -18 26.9899  2.9000   1
  10  -2  18 25.4759  2.7182   3
  10   2  18 25.6663  2.6511   3
 -10   2 -18 25.8824  2.8062   1
  12  -2  18 3.19024 1.63629   3
 -12  -2 -18 1.64627 1.69846   1
  12   2  18 2.04862 1.63456   3
 -12   2 -18 4.25169 1.69597   1
  14  -2  18 25.5603  2.7582   3
 -14  -2 -18 23.6635  2.7580   1
 -14   2 -18 24.1174  2.7187   1
  14   2  18 25.9801  2.5461   3
  16  -2  18 2.42551 1.65906   3
 -16  -2 -18 -0.9341  1.6109   1
 -16   2 -18 0.13129 1.56009   1
  16   2  18 0.49651 1.58084   3
 -18  -2 -18 17.5748  2.6719   1
  18  -2  18 14.9486  2.5402   3
  18   2  18 15.9854  2.3893   3
 -18   2 -18 18.2203  2.5692   1
 -20  -2 -18 -0.8691  1.7103   1
  20  -2  18 -0.4768  1.7821   3
 -20   2 -18 0.85735 1.79108   1
  20   2  18 1.04765 1.87174   3
 -22  -2 -18 20.8518  3.1219   1
  22  -2  18 17.5849  3.0013   3
  22   2  18 17.7163  2.7427   3
 -22   2 -18 16.9123  2.8153   1
 -24  -2 -18 7.03017 2.54012   1
  24  -2  18 6.17357 2.53500   3
  24   2  18 7.16891 2.43125   3
 -24   2 -18 3.68087 2.21371   1
 -26  -2 -18 23.8599  3.4085   1
  26  -2  18 22.3587  3.3430   3
 -26   2 -18 20.7781  3.1843   1
  26   2  18 20.5910  3.3505   3
 -28  -2 -18 9.60241 2.84274   1
  28  -2  18 13.1652  2.9771   3
  28   2  18 18.3813  3.1463   3
 -28   2 -18 10.9884  2.8375   1
  35  -3 -18 8.26176 2.52686   2
  35   3 -18 9.72445 2.40616   2
  33  -3 -18 -1.4408  1.8475   2
  33   3 -18 0.28439 1.65619   2
  31  -3 -18 12.8398  2.8510   2
  31   3 -18 14.2119  2.5658   2
  29  -3 -18 5.42201 2.07689   2
  29   3 -18 4.16097 1.98246   2
  27  -3 -18 16.0726  2.8164   2
 -27   3  18 14.7953  2.9142   1
  27   3 -18 15.1276  2.4760   2
  25  -3 -18 0.15855 1.53712   2
  25  -3 -18 -1.7203  1.9739   1
  25   3 -18 -2.5133  1.4614   2
  23  -3 -18 32.3069  3.4319   2
  23  -3 -18 34.4381  3.2897   1
  23   3 -18 32.3005  2.9066   2
  21  -3 -18 9.43344 2.35731   1
  21  -3 -18 3.51714 1.93568   2
  21   3 -18 5.82770 1.81901   2
  19  -3 -18 130.472   6.167   2
  19  -3 -18 129.649   6.004   1
  19   3 -18 126.475   5.969   2
  17  -3 -18 7.54575 1.95574   2
  17  -3 -18 8.63367 2.22288   1
  17   3 -18 6.71079 1.93917   2
  15  -3 -18 86.6250  4.6212   2
  15  -3 -18 91.7944  4.8495   1
  15   3 -18 88.9258  4.6760   2
  13  -3 -18 19.2758  2.6344   1
  13  -3 -18 23.7137  2.5595   2
  13   3 -18 24.0297  2.6837   2
  11  -3 -18 25.6111  2.8053   1
  11  -3 -18 23.7423  2.3378   2
 -11  -3  18 27.6370  2.5874   3
  11   3 -18 27.2883  2.6307   2
   9  -3 -18 65.4498  3.9679   1
   9  -3 -18 56.2382  3.3452   2
  -9  -3  18 59.1353  3.5838   3
   9   3 -18 63.6874  3.7471   2
   7  -3 -18 58.0450  3.3210   2
   7  -3 -18 60.4142  3.7742   1
  -7  -3  18 62.6682  3.6608   3
   7   3 -18 58.7864  3.5391   2
   5  -3 -18 4.94578 1.95247   1
  -5  -3  18 3.47456 1.82193   3
   5   3 -18 2.65301 1.52932   2
   3  -3 -18 144.501   6.563   1
  -3  -3  18 153.778   6.521   3
   3   3 -18 150.199   6.583   2
   3   3 -18 154.484   5.987   1
  -1  -3  18 5.54869 1.93629   3
   1  -3 -18 4.23292 2.01755   1
   1   3 -18 9.42807 1.85353   2
   1   3 -18 11.6362  1.7854   1
   1  -3  18 125.547   5.773   3
  -1  -3 -18 119.407   5.777   1
  -1   3 -18 121.906   5.756   2
  -1   3 -18 129.356   5.303   1
  -3  -3 -18 36.3869  3.1554   1
   3  -3  18 38.7045  3.0594   3
  -3   3 -18 33.7329  2.9634   2
  -3   3 -18 38.5880  2.7968   1
  -5  -3 -18 29.1371  3.0973   1
   5  -3  18 33.0597  2.9864   3
  -5   3 -18 33.7733  2.7959   1
   5   3  18 33.0546  2.5103   3
  -5   3 -18 30.0292  3.0031   2
   7  -3  18 51.3200  3.4844   3
  -7  -3 -18 50.7186  3.5257   1
  -7   3 -18 40.7979  3.1858   2
   7   3  18 45.1218  2.9818   3
  -7   3 -18 42.7684  3.2119   1
  -9  -3 -18 3.06685 1.75595   1
   9  -3  18 1.99159 1.67868   3
  -9   3 -18 -0.5983  1.6275   1
   9   3  18 0.14684 1.62083   3
  -9   3 -18 1.45751 1.50483   2
  11  -3  18 32.5672  2.8912   3
 -11  -3 -18 30.4699  2.9097   1
 -11   3 -18 31.8102  2.8401   1
  11   3  18 28.5439  2.7685   3
  13  -3  18 5.58912 1.87476   3
 -13  -3 -18 3.37138 1.88321   1
  13   3  18 0.58010 1.75458   3
 -13   3 -18 3.46299 1.85724   1
 -15  -3 -18 19.2542  2.7914   1
  15  -3  18 21.6030  2.7896   3
  15   3  18 18.0848  2.4741   3
 -15   3 -18 22.9219  2.7176   1
 -17  -3 -18 10.4888  2.3264   1
  17  -3  18 8.70204 2.21466   3
  17   3  18 13.2896  2.4358   3
 -17   3 -18 9.07294 2.14124   1
 -19  -3 -18 1.12994 1.93998   1
  19  -3  18 2.39258 1.97657   3
  19   3  18 6.12974 2.14088   3
 -19   3 -18 5.21390 2.08220   1
  21  -3  18 3.64744 2.25544   3
 -21  -3 -18 1.96797 2.08118   1
  21   3  18 7.93255 2.31028   3
 -21   3 -18 7.23926 2.31072   1
 -23  -3 -18 14.3197  2.9234   1
  23  -3  18 14.1744  2.8111   3
  23   3  18 19.4124  3.0150   3
 -23   3 -18 15.3354  2.7687   1
 -25  -3 -18 3.85464 2.32824   1
  25  -3  18 4.80054 2.46688   3
  25   3  18 6.43634 2.66298   3
 -25   3 -18 6.14715 2.57843   1
  27  -3  18 31.0578  3.8807   3
 -27  -3 -18 25.7361  3.6276   1
  27   3  18 27.4082  3.5553   3
 -27   3 -18 30.1975  3.7037   1
  34  -4 -18 2.24619 2.22979   2
  34   4 -18 4.14396 2.14659   2
  32  -4 -18 2.46073 2.05426   2
  32   4 -18 2.10780 1.99585   2
  30  -4 -18 7.08455 2.40218   2
  30   4 -18 8.42266 2.18198   2
 -30   4  18 5.44684 2.26678   1
  28  -4 -18 2.32364 2.02940   2
  28   4 -18 1.44818 1.75312   2
 -28   4  18 -0.3616  2.0523   1
  26  -4 -18 -1.3994  1.7292   2
  26   4 -18 -0.1513  1.8106   2
  24  -4 -18 20.8460  3.0626   2
  24  -4 -18 25.0411  3.2152   1
  24   4 -18 20.1376  2.8078   2
  22  -4 -18 5.62285 2.41915   1
  22  -4 -18 4.63484 1.93016   2
  22   4 -18 3.89739 1.88529   2
  20  -4 -18 51.0351  3.9214   2
  20  -4 -18 49.4112  3.8946   1
  20   4 -18 56.9813  3.8504   2
  18  -4 -18 50.0085  3.8555   1
  18  -4 -18 41.2834  3.4505   2
  18   4 -18 47.4947  3.5174   2
  16  -4 -18 39.6792  3.1537   2
  16  -4 -18 43.7496  3.4597   1
  16   4 -18 32.5562  2.9858   2
  14  -4 -18 80.4640  4.3953   2
  14  -4 -18 86.3023  4.8245   1
  14   4 -18 78.4629  4.4752   2
  12  -4 -18 3.51887 1.41708   2
 -12  -4  18 0.32725 1.68916   3
  12  -4 -18 2.17336 1.81067   1
  12   4 -18 4.38151 1.56422   2
 -10  -4  18 19.6627  2.5719   3
  10  -4 -18 17.6744  2.1345   2
  10  -4 -18 21.8206  2.7512   1
  10   4 -18 17.7395  2.3994   2
   8  -4 -18 -0.1547  1.6809   1
  -8  -4  18 0.50138 1.68663   3
   8   4 -18 3.44648 1.62679   2
  -6  -4  18 3.78952 1.87882   3
   6  -4 -18 3.37674 1.88273   1
   6   4 -18 6.48291 1.80838   2
  -4  -4  18 12.6331  2.2070   3
   4  -4 -18 7.01801 2.11241   1
   4   4 -18 9.84653 2.03447   2
  -2  -4  18 29.3380  2.8059   3
   2  -4 -18 26.1750  3.0198   1
   2   4 -18 25.9173  2.8732   2
   0  -4 -18 10.5714  2.2504   1
   0  -4  18 5.74887 2.01947   3
   0   4 -18 6.21302 1.90942   2
   2  -4  18 68.6364  4.1746   3
  -2  -4 -18 71.1200  4.3433   1
  -2   4 -18 81.2397  3.9258   1
  -2   4 -18 72.4012  4.3455   2
  -4  -4 -18 1.60426 1.70208   1
   4  -4  18 0.48633 1.77119   3
  -4   4 -18 -0.4034  1.4065   1
  -4   4 -18 0.38316 1.56609   2
  -6  -4 -18 20.9672  2.7505   1
   6  -4  18 26.1662  2.9496   3
  -6   4 -18 21.4186  2.4799   1
  -6   4 -18 18.4354  2.6836   2
  -8  -4 -18 0.30998 1.79301   1
   8  -4  18 3.80727 1.89341   3
  -8   4 -18 0.04267 1.51683   2
  -8   4 -18 -0.9406  1.5975   1
   8   4  18 -0.2761  1.5889   3
  10  -4  18 28.3447  3.0987   3
 -10  -4 -18 26.9494  3.0784   1
 -10   4 -18 25.0705  3.0268   2
  10   4  18 25.8440  2.7294   3
 -10   4 -18 29.1534  2.9244   1
  12  -4  18 9.26693 2.18935   3
 -12  -4 -18 7.33115 2.23839   1
  12   4  18 3.78280 1.98949   3
 -12   4 -18 3.61998 1.77985   1
  14  -4  18 13.5657  2.5052   3
 -14  -4 -18 13.2339  2.4825   1
  14   4  18 15.9030  2.4751   3
 -14   4 -18 15.6023  2.4715   1
 -16  -4 -18 3.46637 2.07007   1
  16  -4  18 4.00932 2.08886   3
  16   4  18 1.29056 1.99900   3
 -16   4 -18 2.70862 1.86123   1
  18  -4  18 12.7143  2.6389   3
 -18  -4 -18 10.5925  2.4828   1
 -18   4 -18 11.1637  2.3896   1
  18   4  18 10.0114  2.4191   3
  20  -4  18 -3.5877  1.7410   3
 -20  -4 -18 -1.1380  1.8946   1
 -20   4 -18 1.80892 1.87296   1
  20   4  18 0.11464 1.99307   3
 -22  -4 -18 14.5320  2.9035   1
  22  -4  18 9.40922 2.68081   3
  22   4  18 10.7683  2.7526   3
 -22   4 -18 8.34354 2.46123   1
 -24  -4 -18 2.49889 2.46870   1
  24  -4  18 0.01716 2.38500   3
  24   4  18 5.03744 2.52382   3
 -24   4 -18 6.70984 2.39158   1
  26  -4  18 8.80631 2.91778   3
 -26  -4 -18 8.80283 2.84505   1
 -26   4 -18 12.0052  2.7197   1
  26   4  18 11.4316  2.8413   3
 -33   5  18 1.26665 2.23730   1
  31  -5 -18 3.60289 2.22736   2
 -31   5  18 3.00495 2.46290   1
  31   5 -18 6.12916 2.12910   2
  29  -5 -18 -1.5838  1.6212   2
  29   5 -18 2.67024 1.90286   2
 -29   5  18 -0.3788  2.0750   1
  27  -5 -18 0.59318 1.92481   2
 -27   5  18 -5.3157  2.0108   1
  27   5 -18 0.70485 1.77843   2
  25  -5 -18 7.84895 2.19539   2
  25   5 -18 4.47118 1.91974   2
  23  -5 -18 8.64011 2.40850   2
  23  -5 -18 9.51043 2.71990   1
  23   5 -18 11.5136  2.3153   2
  21  -5 -18 7.76118 2.51376   1
  21  -5 -18 3.02072 1.98709   2
  21   5 -18 6.58594 2.13503   2
  19  -5 -18 22.7191  3.1955   1
  19  -5 -18 20.4443  2.8530   2
  19   5 -18 23.8279  2.9614   2
  17  -5 -18 5.48013 2.30002   1
  17  -5 -18 3.58051 1.77840   2
  17   5 -18 3.73938 1.87695   2
  15  -5 -18 37.1775  3.1482   2
  15  -5 -18 40.9089  3.6214   1
  15   5 -18 38.9514  3.3443   2
  13  -5 -18 6.24976 2.16784   1
  13  -5 -18 10.2707  2.0091   2
  13   5 -18 6.29914 1.99881   2
 -11  -5  18 19.9335  2.6694   3
  11  -5 -18 15.4789  2.6319   1
  11  -5 -18 17.8621  2.2902   2
  11   5 -18 18.8907  2.6411   2
  -9  -5  18 0.77917 1.80570   3
   9  -5 -18 0.23044 1.88859   1
   9   5 -18 1.62589 1.64182   2
   7  -5 -18 0.23864 1.73650   1
  -7  -5  18 -1.4442  1.6663   3
   7   5 -18 2.23543 1.65104   2
  -5  -5  18 3.75175 1.97541   3
   5  -5 -18 1.15339 1.77893   1
   5   5 -18 2.42334 1.56376   2
  -3  -5  18 5.51283 1.96408   3
   3  -5 -18 3.20522 1.93934   1
   3   5 -18 9.23492 2.13102   2
  -1  -5  18 10.2244  2.3460   3
   1  -5 -18 6.26753 2.16567   1
   1   5 -18 8.65473 2.01889   2
   1  -5  18 21.8771  2.8626   3
  -1  -5 -18 19.7272  2.6888   1
  -1   5 -18 14.5620  2.5733   2
   3  -5  18 5.06246 2.00497   3
  -3  -5 -18 5.85024 2.05912   1
  -3   5 -18 3.44092 1.94612   2
  -5  -5 -18 14.9188  2.5741   1
   5  -5  18 14.7408  2.5362   3
  -5   5 -18 10.4875  2.4064   2
  -7  -5 -18 1.97407 1.96881   1
   7  -5  18 4.12052 2.01248   3
  -7   5 -18 3.54059 1.87556   1
  -7   5 -18 0.69349 1.78621   2
   9  -5  18 8.73141 2.31329   3
  -9  -5 -18 7.63991 2.26805   1
  -9   5 -18 9.88439 2.20338   1
  -9   5 -18 6.47491 2.10826   2
  11  -5  18 6.72450 2.22875   3
 -11  -5 -18 5.85846 2.15145   1
 -11   5 -18 5.98550 2.09827   2
 -11   5 -18 3.24684 1.93858   1
  13  -5  18 -1.6279  1.7639   3
 -13  -5 -18 -0.2664  1.8793   1
 -13   5 -18 0.98284 1.79281   1
 -13   5 -18 3.12084 1.92524   2
  13   5  18 -3.1548  1.6935   3
  15  -5  18 5.19085 2.26194   3
 -15  -5 -18 4.32459 2.12453   1
  15   5  18 5.01664 2.03839   3
 -15   5 -18 7.88394 2.21185   1
 -17  -5 -18 -0.2085  2.0651   1
  17  -5  18 4.67715 2.19625   3
 -17   5 -18 -0.6288  1.7957   1
  17   5  18 0.44324 2.04995   3
 -19  -5 -18 -0.3858  1.9281   1
  19  -5  18 -0.9912  1.9783   3
 -19   5 -18 0.69103 1.93906   1
  19   5  18 -1.0359  1.9601   3
 -21  -5 -18 4.20866 2.18797   1
  21  -5  18 -1.1833  1.9398   3
  21   5  18 0.94718 2.23688   3
 -21   5 -18 -0.2769  2.0136   1
  23  -5  18 1.03226 2.28074   3
 -23  -5 -18 -1.2894  2.2187   1
 -23   5 -18 4.03408 2.32145   1
  23   5  18 -0.2714  2.2101   3
 -25  -5 -18 2.07901 2.44090   1
 -25   5 -18 -1.3304  2.1215   1
  25   5  18 0.26758 2.37379   3
 -32   6  18 3.89950 2.48049   1
  30  -6 -18 0.74712 2.05021   2
 -30   6  18 -1.4582  2.2518   1
  30   6 -18 3.53797 2.10607   2
  28  -6 -18 0.13453 1.81796   2
 -28   6  18 1.71379 2.47561   1
  28   6 -18 -0.4640  1.6238   2
  26  -6 -18 5.56599 2.20619   2
 -26   6  18 3.65718 2.51320   1
  26   6 -18 3.77810 1.96434   2
  24  -6 -18 -1.6632  1.7348   2
  24  -6 -18 1.32333 2.25778   1
  24   6 -18 -0.2582  1.8201   2
  22  -6 -18 1.43099 1.97255   2
  22  -6 -18 2.32766 2.39784   1
  22   6 -18 1.55311 1.88170   2
  20  -6 -18 1.63401 1.89240   2
  20  -6 -18 2.52448 2.23116   1
  20   6 -18 0.67863 1.79184   2
  18  -6 -18 8.21819 2.26670   2
  18  -6 -18 4.01316 2.37777   1
  18   6 -18 4.06485 1.94338   2
  16  -6 -18 10.4918  2.5427   1
  16  -6 -18 7.03323 2.00212   2
  16   6 -18 3.65508 1.91197   2
  14  -6 -18 19.0179  2.6071   2
  14   6 -18 18.1150  2.6673   2
  12  -6 -18 3.81293 2.15029   1
  12   6 -18 2.43976 1.66903   2
 -10  -6  18 2.08335 1.90765   3
  10  -6 -18 3.52752 2.06015   1
  10   6 -18 5.16174 1.88666   2
   8  -6 -18 -3.0772  1.7087   1
  -8  -6  18 0.18450 1.70798   3
   8   6 -18 -0.1781  1.6190   2
  -6  -6  18 8.97556 2.32978   3
   6  -6 -18 5.84361 2.15773   1
   6   6 -18 7.56960 2.11496   2
   4  -6 -18 -0.3008  1.8582   1
  -4  -6  18 -1.6228  1.7092   3
   4   6 -18 -0.9884  1.4386   2
   2  -6 -18 -0.8141  1.7344   1
  -2  -6  18 1.16753 1.88153   3
   2   6 -18 1.93927 1.74153   2
   0  -6 -18 1.04217 1.85879   1
   0  -6  18 2.49892 2.01344   3
   0   6 -18 1.51516 1.86414   2
   2  -6  18 27.6402  3.2572   3
  -2  -6 -18 22.5261  3.1100   1
  -2   6 -18 27.2513  3.3188   2
  -4  -6 -18 6.70798 2.41844   1
   4  -6  18 6.25408 2.30418   3
  -4   6 -18 4.90627 2.16636   2
  -6  -6 -18 17.2575  2.8398   1
   6  -6  18 22.6652  3.0820   3
  -6   6 -18 15.0451  2.8409   2
   8  -6  18 0.85090 2.01676   3
  -8  -6 -18 3.51550 2.17819   1
  -8   6 -18 2.76849 2.05372   2
 -10  -6 -18 0.21994 2.08088   1
  10  -6  18 2.49392 2.21170   3
 -10   6 -18 -0.5131  1.8138   2
  12  -6  18 0.93982 2.02228   3
 -12  -6 -18 2.37246 2.03402   1
 -12   6 -18 0.36299 1.74657   1
 -12   6 -18 -1.2216  1.8030   2
 -14  -6 -18 4.41802 2.14844   1
  14  -6  18 -0.7658  1.9173   3
 -14   6 -18 0.56579 1.75912   1
 -14   6 -18 0.36657 1.79661   2
  16  -6  18 0.80989 1.97164   3
 -16  -6 -18 -0.8361  1.8564   1
 -16   6 -18 -1.5105  1.7335   1
 -18  -6 -18 -1.3574  1.8680   1
  18  -6  18 0.21836 1.96902   3
 -18   6 -18 -1.8301  1.9100   1
  18   6  18 -0.9807  2.0858   3
 -20  -6 -18 -1.2815  2.1382   1
  20  -6  18 1.10709 2.24843   3
  20   6  18 0.17306 2.13392   3
 -20   6 -18 -0.7037  2.0613   1
  22  -6  18 2.43971 2.33472   3
 -22  -6 -18 0.83230 2.26993   1
  22   6  18 -1.8541  2.3178   3
 -22   6 -18 0.69031 2.17934   1
  24   6  18 -1.1365  2.5014   3
  27  -7 -18 -1.6795  1.9316   2
  27   7 -18 -1.4261  1.8234   2
 -27   7  18 -1.9276  2.1865   1
  25  -7 -18 -0.2789  1.8550   2
  25   7 -18 -0.7641  1.6984   2
  23  -7 -18 1.67220 1.90191   2
  23  -7 -18 -2.2009  2.1422   1
  23   7 -18 2.41518 1.88951   2
  21  -7 -18 3.47713 2.31729   1
  21  -7 -18 4.36908 2.06196   2
  21   7 -18 1.12969 1.98156   2
  19  -7 -18 6.61153 2.55021   1
  19  -7 -18 4.11626 2.04607   2
  19   7 -18 2.48006 2.07674   2
  17  -7 -18 7.04489 2.62121   1
  17   7 -18 8.62176 2.46554   2
  15  -7 -18 13.3061  2.9093   1
  15   7 -18 9.19178 2.39437   2
  13  -7 -18 7.19521 2.49056   1
  13   7 -18 3.52436 2.04219   2
  11  -7 -18 7.04635 2.54127   1
  11   7 -18 6.73596 2.23583   2
   9  -7 -18 5.38295 2.32865   1
   9   7 -18 8.76722 2.24073   2
   7  -7 -18 2.35179 2.09639   1
  -7  -7  18 0.70009 2.01299   3
   7   7 -18 5.30544 2.15252   2
   5  -7 -18 -0.9524  1.9202   1
  -5  -7  18 0.31576 2.02644   3
   5   7 -18 0.26963 1.64809   2
  -3  -7  18 6.65462 2.33538   3
   3  -7 -18 5.08636 2.17630   1
   3   7 -18 13.9344  2.6674   2
  -1  -7  18 0.77335 2.05081   3
   1  -7 -18 2.46101 2.14740   1
   1   7 -18 3.12296 2.07631   2
  -1  -7 -18 6.32034 2.30889   1
   1  -7  18 3.59300 2.22974   3
  -1   7 -18 -1.2944  1.9077   2
   3  -7  18 4.01614 2.40138   3
  -3  -7 -18 0.64534 2.02125   1
  -3   7 -18 0.09456 1.84478   2
  -5  -7 -18 5.90911 2.31861   1
   5  -7  18 6.99367 2.43337   3
  -5   7 -18 1.84624 2.13596   2
  -7  -7 -18 3.58999 2.14385   1
   7  -7  18 4.52230 2.27060   3
  -7   7 -18 0.58088 2.05427   2
   9  -7  18 2.56012 2.25475   3
  -9  -7 -18 -1.2317  2.0476   1
  -9   7 -18 5.83072 2.36596   2
  11  -7  18 1.38499 2.04753   3
 -11  -7 -18 -0.0924  1.9810   1
 -11   7 -18 -0.7583  1.9354   2
  13  -7  18 -0.6877  2.0858   3
 -13  -7 -18 1.34480 2.05527   1
 -13   7 -18 -0.1311  2.0065   2
 -15  -7 -18 -2.5224  1.8216   1
  15  -7  18 -2.0422  1.8745   3
 -15   7 -18 -0.5331  1.9175   2
 -17  -7 -18 -1.3601  2.1526   1
  17  -7  18 -0.8855  1.9584   3
 -17   7 -18 -0.9714  2.0807   2
 -19  -7 -18 -2.4354  2.1932   1
 -19   7 -18 0.34868 2.05931   1
 -21   7 -18 -1.1057  2.0889   1
  24  -8 -18 0.33361 2.04899   2
  22  -8 -18 3.70776 2.17156   2
  22   8 -18 6.23011 2.38198   2
  20  -8 -18 -2.7618  2.0979   1
  20   8 -18 -1.5990  1.9179   2
  18  -8 -18 8.32356 2.79255   1
  18   8 -18 7.12924 2.27490   2
  16  -8 -18 1.52982 2.43050   1
  16   8 -18 2.36044 2.10639   2
  14  -8 -18 6.72528 2.65336   1
  14   8 -18 6.77672 2.34592   2
  12  -8 -18 10.2795  2.7730   1
  12   8 -18 8.75613 2.50034   2
  10  -8 -18 4.41360 2.36668   1
  10   8 -18 3.57133 1.95300   2
   8  -8 -18 3.81443 2.36867   1
   8   8 -18 6.66284 2.40876   2
  -6  -8  18 0.26446 2.07127   3
   6  -8 -18 1.38795 2.12282   1
   6   8 -18 -1.4799  1.5907   2
  -4  -8  18 0.45850 2.20584   3
   4  -8 -18 -0.8276  1.8865   1
   4   8 -18 -0.3454  1.7650   2
   2  -8 -18 8.75960 2.66720   1
  -2  -8  18 5.63277 2.43788   3
   2   8 -18 3.91260 2.23486   2
   0  -8 -18 2.41703 2.23883   1
   0  -8  18 1.45108 2.18840   3
   0   8 -18 3.34660 2.29790   2
  -2  -8 -18 27.7467  3.5765   1
   2  -8  18 25.0316  3.5256   3
  -2   8 -18 24.5338  3.7002   2
   4  -8  18 4.33566 2.50130   3
  -4  -8 -18 7.62453 2.50796   1
  -4   8 -18 5.22255 2.48700   2
   6  -8  18 17.6169  3.1074   3
  -6  -8 -18 18.4515  3.1046   1
  -6   8 -18 18.8844  3.4096   2
  -8  -8 -18 4.21637 2.39349   1
   8  -8  18 3.41439 2.39005   3
  -8   8 -18 0.84247 2.23033   2
  10  -8  18 3.12519 2.24317   3
 -10  -8 -18 3.47149 2.24844   1
 -10   8 -18 3.35854 2.33063   2
 -12  -8 -18 0.37554 2.08846   1
  12  -8  18 -1.2158  1.9773   3
 -12   8 -18 -0.9271  2.0587   2
 -14  -8 -18 -3.3632  1.9680   1
  14  -8  18 -1.3049  1.9153   3
 -14   8 -18 -1.0339  2.0721   2
 -16  -8 -18 1.39688 2.29342   1
 -16   8 -18 2.04589 2.36567   2
 -18   8 -18 1.92596 2.32837   2
  15  -9 -18 14.3554  3.1897   1
  15   9 -18 17.2856  3.0499   2
  13  -9 -18 0.43607 2.43048   1
  13   9 -18 13.0804  3.0561   2
  11  -9 -18 22.5666  3.5143   1
  11   9 -18 21.7174  3.3396   2
   9  -9 -18 1.85822 2.27999   1
   9   9 -18 3.76394 2.29115   2
   7  -9 -18 7.92258 2.76056   1
   7   9 -18 6.08448 2.34565   2
   5  -9 -18 -0.5470  2.1151   1
   5   9 -18 3.57558 2.09216   2
   3  -9 -18 -1.6968  2.1890   1
  -3  -9  18 0.23009 2.36692   3
   3   9 -18 0.33665 2.07950   2
  -1  -9  18 6.63953 2.63759   3
   1   9 -18 0.82577 2.24099   2
  -1  -9 -18 3.28650 2.43340   1
   1  -9  18 4.74318 2.68093   3
  -1   9 -18 4.88567 2.58167   2
   3  -9  18 10.8083  2.8452   3
  -3  -9 -18 14.3862  3.2129   1
  -3   9 -18 15.1760  3.3384   2
   5  -9  18 15.2966  3.1026   3
  -5  -9 -18 11.4347  3.0368   1
  -5   9 -18 17.8330  3.5585   2
  -7  -9 -18 16.6960  3.2840   1
   7  -9  18 12.4843  2.9936   3
  -7   9 -18 15.4805  3.4027   2
  -9  -9 -18 5.83571 2.67133   1
  -9   9 -18 3.78928 2.59992   2
 -11  -9 -18 2.98452 2.37965   1
 -11   9 -18 2.02327 2.31554   2
  34   0 -19 0.40772 1.95449   2
  32   0 -19 -0.0623  1.8459   2
  30   0 -19 -0.5564  1.7762   2
  28   0 -19 -0.5629  1.5815   2
  26   0 -19 0.71110 1.68708   2
  24   0 -19 -1.4031  1.6190   2
  22   0 -19 1.12811 1.68238   2
  20   0 -19 -1.1163  1.3093   2
  18   0 -19 0.39458 1.53753   2
  16   0 -19 0.43394 1.53019   2
  14   0 -19 3.36324 1.47952   2
  14   0 -19 2.49928 1.54592   1
  12   0 -19 0.74516 1.42948   1
  12   0 -19 -0.7646  1.2079   2
  10   0 -19 1.35425 1.37709   1
  10   0 -19 0.25284 1.12488   2
   8   0 -19 -1.5290  1.2292   1
   8   0 -19 -1.0007  0.9822   2
   6   0 -19 -3.3133  1.2280   1
   6   0 -19 -0.1919  1.0506   2
   4   0 -19 -2.7443  1.3078   1
   4   0 -19 -0.3961  1.0001   2
   2   0 -19 -1.1648  1.5130   1
  -2   0  19 -0.6570  1.2609   3
   2   0 -19 -1.2462  1.0991   2
   0   0 -19 -0.2891  1.1325   2
   0   0  19 -0.9845  1.3960   3
   0   0 -19 -2.2344  1.6424   1
  -2   0 -19 9.38134 2.14449   1
   2   0  19 6.96581 1.82307   3
  -4   0 -19 -1.5236  1.7582   1
   4   0  19 0.46137 1.50654   3
   6   0  19 7.44664 1.85826   3
  -6   0 -19 8.85101 2.06842   1
   8   0  19 0.72585 1.47296   3
  -8   0 -19 -0.0006  1.5574   1
 -10   0 -19 1.50931 1.61996   1
  10   0  19 1.76104 1.49160   3
 -12   0 -19 -1.5731  1.5198   1
  12   0  19 2.29987 1.55163   3
  14   0  19 0.33244 1.52831   3
 -14   0 -19 0.62100 1.65271   1
  16   0  19 -0.9630  1.4482   3
 -16   0 -19 -0.5708  1.5237   1
 -18   0 -19 0.19055 1.84460   1
  18   0  19 1.19717 1.83788   3
  20   0  19 0.92026 1.92619   3
 -20   0 -19 -3.1369  1.7525   1
 -22   0 -19 0.03406 2.04382   1
  22   0  19 1.21352 2.16003   3
 -24   0 -19 0.12188 2.22303   1
  24   0  19 1.47683 2.28920   3
  26   0  19 0.98051 2.43295   3
 -26   0 -19 1.58056 2.42745   1
  35  -1 -19 1.34491 2.07775   2
  35   1 -19 2.90474 2.00096   2
  33  -1 -19 15.7648  2.7844   2
  33   1 -19 13.3439  2.6461   2
  31  -1 -19 1.38321 2.07740   2
  31   1 -19 2.01177 1.94765   2
  29  -1 -19 6.31403 2.17617   2
  29   1 -19 6.07952 2.03960   2
  27  -1 -19 2.98715 1.98230   2
  27   1 -19 1.63589 1.73844   2
  25  -1 -19 -1.5874  1.5599   2
  25   1 -19 -0.7461  1.5008   2
  23  -1 -19 -1.0028  1.4173   2
  23   1 -19 -1.0751  1.5973   2
  21  -1 -19 -0.0890  1.6041   2
  21   1 -19 -1.9396  1.4779   2
  19  -1 -19 17.7620  2.5031   2
  19  -1 -19 9.80084 2.15566   1
  19   1 -19 12.6493  2.2102   2
  17  -1 -19 3.68667 1.87577   1
  17  -1 -19 2.47939 1.69565   2
  17   1 -19 4.23264 1.69746   2
  15  -1 -19 26.0687  2.7722   2
  15  -1 -19 24.3233  2.6933   1
  15   1 -19 28.8900  2.6953   2
  13  -1 -19 73.8098  3.9713   2
  13  -1 -19 66.7173  3.9215   1
  13   1 -19 69.3166  3.9212   2
  11  -1 -19 3.14711 1.35582   2
  11  -1 -19 4.88389 1.73483   1
  11   1 -19 4.36983 1.50195   2
   9  -1 -19 13.8621  1.9293   2
   9  -1 -19 12.3073  2.0682   1
   9   1 -19 13.6318  1.9951   2
   9   1 -19 13.2787  1.8697   1
   7  -1 -19 5.44871 1.37002   2
   7  -1 -19 2.94700 1.63885   1
   7   1 -19 4.69892 1.48469   2
   7   1 -19 1.20336 1.43774   1
   5  -1 -19 2.43792 1.71598   1
   5  -1 -19 5.56256 1.41697   2
  -5  -1  19 4.55090 1.57228   3
   5   1 -19 3.80492 1.41431   2
   5   1 -19 4.75131 1.56790   1
   3  -1 -19 -2.8860  1.3830   1
   3  -1 -19 -0.9165  0.9834   2
  -3  -1  19 0.43405 1.37508   3
   3   1 -19 1.60209 1.54588   1
   3   1 -19 -0.7854  1.0770   2
  -1  -1  19 -0.7561  1.4719   3
   1  -1 -19 -1.8043  1.5552   1
   1   1 -19 -0.0103  1.2419   2
   1   1 -19 -1.8773  1.5066   1
  -1  -1 -19 16.1207  2.4714   1
   1  -1  19 15.4052  2.2000   3
   1   1  19 19.9081  2.0662   3
  -1   1 -19 12.7360  2.2025   1
  -1   1 -19 12.0896  1.8938   2
   3  -1  19 14.8404  2.2906   3
  -3  -1 -19 15.4228  2.4433   1
   3   1  19 16.9372  2.0812   3
  -3   1 -19 16.2928  2.3951   1
  -5  -1 -19 3.42982 1.90148   1
   5  -1  19 2.70479 1.65600   3
   5   1  19 3.67090 1.59325   3
  -5   1 -19 2.89310 1.77900   1
   7  -1  19 14.4836  2.1575   3
  -7  -1 -19 16.6602  2.4237   1
   7   1  19 14.4254  2.1173   3
  -7   1 -19 15.2828  2.3419   1
   9  -1  19 20.3495  2.5012   3
  -9  -1 -19 20.4247  2.6914   1
   9   1  19 20.7676  2.4278   3
  -9   1 -19 21.9528  2.6314   1
  11  -1  19 3.23340 1.56578   3
 -11  -1 -19 2.30567 1.67187   1
  11   1  19 2.82255 1.66888   3
 -11   1 -19 2.65836 1.65754   1
  13  -1  19 2.94390 1.63905   3
 -13  -1 -19 -2.4523  1.5006   1
 -13   1 -19 1.39709 1.61014   1
  13   1  19 4.79644 1.76694   3
  15  -1  19 2.88509 1.69395   3
 -15  -1 -19 3.88519 1.80256   1
  15   1  19 2.80737 1.77543   3
 -15   1 -19 0.59593 1.55224   1
 -17  -1 -19 -1.7117  1.7286   1
  17  -1  19 1.24326 1.65063   3
 -17   1 -19 -0.1611  1.6831   1
  17   1  19 2.11956 1.75075   3
  19  -1  19 -0.3542  1.8989   3
 -19  -1 -19 -1.2455  1.8901   1
 -19   1 -19 0.18839 1.75665   1
  19   1  19 -1.3943  1.6616   3
  21  -1  19 1.50059 2.08711   3
 -21  -1 -19 0.10637 2.00140   1
  21   1  19 3.62035 2.14643   3
 -21   1 -19 1.44079 2.00238   1
 -23  -1 -19 1.90226 2.27999   1
  23  -1  19 -1.1659  2.2535   3
  23   1  19 2.69745 2.28348   3
 -23   1 -19 -0.8725  2.0847   1
  25  -1  19 -0.3408  2.2825   3
 -25  -1 -19 0.42287 2.40256   1
 -25   1 -19 3.99941 2.46991   1
  25   1  19 3.19020 2.56215   3
  27  -1  19 5.64039 2.84638   3
 -27  -1 -19 3.69145 2.47485   1
 -27   1 -19 4.28727 2.49319   1
  27   1  19 3.07687 2.67405   3
  34  -2 -19 2.32944 2.19354   2
  34   2 -19 6.78415 2.34918   2
  32  -2 -19 9.31437 2.46090   2
  32   2 -19 10.8976  2.4053   2
  30  -2 -19 5.63692 2.13895   2
  30   2 -19 3.96384 2.04487   2
  28  -2 -19 1.23392 1.80091   2
  28   2 -19 3.54378 1.83749   2
  26  -2 -19 7.39983 2.26221   2
  26   2 -19 10.4426  2.3338   2
  24  -2 -19 3.36034 1.96355   2
  24   2 -19 2.40976 1.71426   2
  22  -2 -19 2.30046 1.74793   2
  22  -2 -19 -1.9737  1.7146   1
  22   2 -19 -0.9281  1.6085   2
  20  -2 -19 6.54134 1.91332   2
  20  -2 -19 2.91643 2.00932   1
  20   2 -19 4.25188 1.83709   2
  18  -2 -19 6.45652 1.93118   2
  18  -2 -19 7.53723 2.17901   1
  18   2 -19 7.48579 1.83648   2
  16  -2 -19 42.7918  3.2203   2
  16  -2 -19 42.3960  3.3519   1
  16   2 -19 44.7071  3.2439   2
  14  -2 -19 0.67673 1.38692   2
  14  -2 -19 1.47248 1.65919   1
  14   2 -19 0.92476 1.27552   2
  12  -2 -19 70.6126  4.1022   1
  12  -2 -19 71.5880  3.9175   2
  12   2 -19 69.9521  3.9791   2
  10  -2 -19 0.48955 1.23443   2
  10  -2 -19 -1.7488  1.4871   1
  10   2 -19 0.98889 1.30821   2
   8  -2 -19 21.7500  2.1212   2
  -8  -2  19 22.0762  2.3408   3
   8  -2 -19 23.4005  2.6224   1
   8   2 -19 23.6565  2.4791   2
   6  -2 -19 -1.7499  0.9583   2
   6  -2 -19 -1.5992  1.5556   1
  -6  -2  19 1.28564 1.44914   3
   6   2 -19 -0.7784  1.2010   2
   6   2 -19 -2.2550  1.1984   1
  -4  -2  19 14.9780  2.1551   3
   4  -2 -19 16.4001  2.4971   1
   4   2 -19 17.3151  2.2363   2
   4   2 -19 19.0786  2.2155   1
   2  -2 -19 3.19954 1.96242   1
  -2  -2  19 4.56952 1.80019   3
   2   2 -19 5.34204 1.64331   2
   2   2 -19 0.72445 1.60501   1
   0  -2 -19 14.7574  2.4956   1
   0  -2  19 14.0442  2.2716   3
   0   2 -19 14.5494  2.1686   1
   0   2 -19 12.6435  2.0453   2
   2  -2  19 2.30370 1.64453   3
  -2  -2 -19 2.42908 1.95761   1
  -2   2 -19 1.97161 1.45711   2
  -2   2 -19 2.38178 1.61450   1
  -4  -2 -19 33.9959  3.0806   1
   4  -2  19 33.5510  2.8461   3
  -4   2 -19 31.1108  2.8552   1
   4   2  19 36.2859  2.5824   3
  -4   2 -19 34.6163  2.7485   2
  -6  -2 -19 12.9276  2.3105   1
   6  -2  19 15.6478  2.2600   3
  -6   2 -19 10.7615  2.1343   1
   6   2  19 10.6222  1.8797   3
   8  -2  19 30.8540  2.7815   3
  -8  -2 -19 34.2762  2.9916   1
   8   2  19 32.2469  2.6617   3
  -8   2 -19 31.6566  2.9386   1
  10  -2  19 10.0478  2.0743   3
 -10  -2 -19 7.70608 2.04218   1
 -10   2 -19 7.17580 1.93774   1
  10   2  19 9.03921 1.92706   3
  12  -2  19 10.6625  2.0253   3
 -12  -2 -19 6.08122 1.92197   1
  12   2  19 5.57341 1.79592   3
 -12   2 -19 7.40419 2.00540   1
  14  -2  19 1.10017 1.60235   3
 -14  -2 -19 1.11980 1.65343   1
 -14   2 -19 -0.0142  1.5468   1
  14   2  19 0.30857 1.61622   3
 -16  -2 -19 -0.0683  1.7800   1
  16  -2  19 2.73990 1.78234   3
  16   2  19 0.29034 1.82479   3
 -16   2 -19 0.45947 1.79665   1
  18  -2  19 0.55479 1.81356   3
 -18  -2 -19 -0.7493  1.7374   1
  18   2  19 2.49965 2.00076   3
 -18   2 -19 -0.5367  1.6925   1
  20  -2  19 8.13119 2.41116   3
 -20  -2 -19 4.48804 2.33784   1
  20   2  19 7.70233 2.33944   3
 -20   2 -19 4.83991 2.19258   1
 -22  -2 -19 1.93745 2.16579   1
  22  -2  19 1.92493 2.32293   3
 -22   2 -19 7.66830 2.57947   1
  22   2  19 4.54687 2.27521   3
 -24  -2 -19 -0.6097  2.3320   1
  24  -2  19 4.56430 2.63153   3
  24   2  19 4.61394 2.41704   3
 -24   2 -19 2.51049 2.39897   1
  26  -2  19 11.9158  3.0085   3
 -26  -2 -19 9.67676 2.98581   1
 -26   2 -19 8.41838 2.78895   1
  26   2  19 14.3725  3.0925   3
  33  -3 -19 9.47833 2.52398   2
  33   3 -19 5.93582 2.24415   2
  31  -3 -19 3.31705 2.25742   2
  31   3 -19 2.70960 1.97250   2
  29  -3 -19 4.75964 2.27557   2
  29   3 -19 4.65094 1.95266   2
  27  -3 -19 -1.6824  1.6788   2
  27   3 -19 -2.2845  1.5930   2
  25  -3 -19 30.2959  3.3802   1
  25  -3 -19 30.5688  3.4302   2
  25   3 -19 31.2101  3.3265   2
  23  -3 -19 5.43836 2.25141   1
  23  -3 -19 2.88260 1.98907   2
  23   3 -19 4.03976 1.89678   2
  21  -3 -19 35.9700  3.3837   1
  21  -3 -19 35.3313  3.2595   2
  21   3 -19 34.3252  3.1758   2
  19  -3 -19 20.9230  2.8494   2
  19  -3 -19 21.7308  2.9197   1
  19   3 -19 21.4513  2.7370   2
  17  -3 -19 28.7443  3.0780   2
  17  -3 -19 30.6622  3.1971   1
  17   3 -19 30.7723  2.7740   2
  15  -3 -19 15.9252  2.3790   2
  15  -3 -19 20.6704  2.7193   1
  15   3 -19 20.3909  2.4981   2
  13  -3 -19 15.3967  2.4781   1
  13  -3 -19 17.7212  2.3110   2
  13   3 -19 15.6762  2.2998   2
 -11  -3  19 9.93038 1.96076   3
  11  -3 -19 8.74768 1.78573   2
  11  -3 -19 7.99271 2.10401   1
  11   3 -19 9.92400 1.95739   2
   9  -3 -19 3.89464 1.45502   2
   9  -3 -19 -0.3699  1.8365   1
  -9  -3  19 3.35820 1.72328   3
   9   3 -19 5.89888 1.70496   2
  -7  -3  19 5.17077 1.83491   3
   7  -3 -19 5.18920 2.04578   1
   7   3 -19 3.70073 1.56657   2
   5  -3 -19 48.3010  3.6187   1
  -5  -3  19 46.1105  3.3754   3
   5   3 -19 47.8520  3.3357   2
  -3  -3  19 30.3491  3.0926   3
   3  -3 -19 34.4642  3.1562   1
   3   3 -19 34.9689  2.9415   2
  -1  -3  19 37.8984  3.1876   3
   1  -3 -19 33.4903  3.3761   1
   1   3 -19 33.4061  2.9863   2
   1   3 -19 38.1353  2.7840   1
   1  -3  19 85.2272  4.6441   3
  -1  -3 -19 85.2305  4.8597   1
  -1   3 -19 92.6435  4.7923   2
  -1   3 -19 94.1937  4.4652   1
  -3  -3 -19 3.26284 1.96147   1
   3  -3  19 5.57502 1.92485   3
  -3   3 -19 5.22662 1.77647   2
  -3   3 -19 7.00800 1.81372   1
   5  -3  19 55.9414  3.7793   3
  -5  -3 -19 56.0538  3.8237   1
  -5   3 -19 55.3076  3.6418   2
  -5   3 -19 55.2033  3.4958   1
  -7  -3 -19 2.49231 1.76068   1
   7  -3  19 2.85074 1.67754   3
  -7   3 -19 -1.5361  1.5975   1
   7   3  19 1.08805 1.59125   3
  -7   3 -19 0.10889 1.46668   2
   9  -3  19 20.5466  2.6197   3
  -9  -3 -19 17.6300  2.5431   1
   9   3  19 19.7951  2.3601   3
  -9   3 -19 19.4079  2.5544   1
  11  -3  19 1.89764 1.63721   3
 -11  -3 -19 1.00543 1.70630   1
 -11   3 -19 -0.1407  1.6277   1
  11   3  19 -1.0433  1.5814   3
  13  -3  19 12.5411  2.3658   3
 -13  -3 -19 7.41953 2.08902   1
  13   3  19 6.21751 1.98772   3
 -13   3 -19 6.26581 2.08158   1
 -15  -3 -19 -0.9093  1.6219   1
  15  -3  19 2.91631 1.91473   3
 -15   3 -19 -0.9840  1.6127   1
  15   3  19 1.62735 1.87167   3
  17  -3  19 16.6122  2.7460   3
 -17  -3 -19 17.7357  2.8838   1
  17   3  19 17.3126  2.6467   3
 -17   3 -19 16.7180  2.6609   1
  19  -3  19 -2.1229  1.8154   3
 -19  -3 -19 -1.2973  2.0446   1
  19   3  19 2.78309 2.13720   3
 -19   3 -19 2.22642 1.99087   1
  21  -3  19 14.8224  2.8856   3
 -21  -3 -19 16.7088  2.9542   1
  21   3  19 21.7932  3.1003   3
 -21   3 -19 16.5663  2.9732   1
 -23  -3 -19 2.22170 2.48579   1
  23  -3  19 1.27659 2.44510   3
 -23   3 -19 3.92763 2.43841   1
  23   3  19 3.01931 2.41730   3
  25  -3  19 10.0219  2.8173   3
 -25  -3 -19 7.16895 2.66146   1
  25   3  19 11.8690  2.7446   3
 -25   3 -19 8.54140 2.69581   1
  32  -4 -19 15.7256  3.1036   2
  32   4 -19 15.1106  2.6458   2
  30  -4 -19 1.84086 1.93846   2
  30   4 -19 -0.0797  1.7132   2
  28  -4 -19 16.7097  2.8796   2
  28   4 -19 14.5468  2.6097   2
 -28   4  19 17.7928  3.0371   1
  26  -4 -19 2.56993 1.89171   2
  26   4 -19 4.31611 2.08635   2
  24  -4 -19 53.3680  4.1472   1
  24  -4 -19 50.0769  4.0221   2
  24   4 -19 47.8824  3.7938   2
  22  -4 -19 47.4939  3.9995   2
  22  -4 -19 52.6413  4.0808   1
  22   4 -19 59.3385  4.0048   2
  20  -4 -19 58.3665  4.1354   2
  20  -4 -19 57.1808  4.2159   1
  20   4 -19 56.8008  3.8929   2
  18  -4 -19 55.9596  4.0868   1
  18  -4 -19 47.7499  3.7138   2
  18   4 -19 56.4689  3.7359   2
  16  -4 -19 41.0170  3.5916   1
  16  -4 -19 52.6562  3.6819   2
  16   4 -19 50.9190  3.6201   2
  14  -4 -19 1.24771 1.44283   2
  14  -4 -19 2.58680 1.89402   1
  14   4 -19 1.14598 1.56681   2
  12  -4 -19 31.9119  3.3202   1
 -12  -4  19 31.7211  2.8798   3
  12  -4 -19 28.2109  2.6838   2
  12   4 -19 26.7201  2.6349   2
  10  -4 -19 13.9961  2.4709   1
 -10  -4  19 11.1389  2.2561   3
  10   4 -19 12.4530  2.2364   2
  -8  -4  19 26.5018  2.8679   3
   8  -4 -19 27.9587  3.1570   1
   8   4 -19 27.9773  2.7632   2
   6  -4 -19 -2.0529  1.8784   1
  -6  -4  19 -1.2910  1.6430   3
   6   4 -19 2.90988 1.51748   2
  -4  -4  19 44.5299  3.4656   3
   4  -4 -19 48.2227  3.6325   1
   4   4 -19 45.1027  3.4465   2
  -2  -4  19 2.38327 2.05279   3
   2  -4 -19 2.99893 1.99085   1
   2   4 -19 5.13974 1.91255   2
   0  -4 -19 95.3176  5.0814   1
   0  -4  19 93.1762  5.0110   3
   0   4 -19 88.3270  4.9838   2
   2  -4  19 7.39186 2.17864   3
  -2  -4 -19 6.45593 2.20343   1
  -2   4 -19 7.12133 2.03688   2
  -4  -4 -19 67.4584  4.1977   1
   4  -4  19 55.5074  3.7640   3
  -4   4 -19 51.8754  3.4842   1
  -4   4 -19 49.8120  3.7473   2
  -6  -4 -19 8.40391 2.17140   1
   6  -4  19 8.46262 2.09717   3
  -6   4 -19 9.08208 2.14376   2
  -6   4 -19 9.34647 2.00141   1
  -8  -4 -19 32.5143  3.3769   1
   8  -4  19 33.7778  3.0256   3
  -8   4 -19 28.7531  3.1989   2
  -8   4 -19 30.3211  2.8612   1
  10  -4  19 8.06594 2.14687   3
 -10  -4 -19 7.65088 2.18327   1
 -10   4 -19 7.66592 2.07667   1
 -12  -4 -19 14.5021  2.6685   1
  12  -4  19 16.2117  2.6015   3
  12   4  19 12.5412  2.3294   3
 -12   4 -19 12.2071  2.3382   1
 -14  -4 -19 4.68375 2.25244   1
  14  -4  19 3.53430 2.04858   3
  14   4  19 3.90438 2.04432   3
 -14   4 -19 3.40375 1.81002   1
 -16  -4 -19 16.2430  2.9700   1
  16  -4  19 24.6094  3.2157   3
 -16   4 -19 23.2626  2.9281   1
  16   4  19 22.3551  2.9735   3
 -18  -4 -19 10.9081  2.5675   1
  18  -4  19 6.27059 2.37608   3
 -18   4 -19 13.6690  2.6144   1
  18   4  19 10.3573  2.6010   3
 -20  -4 -19 10.7675  2.7218   1
  20  -4  19 6.20599 2.57567   3
 -20   4 -19 12.4023  2.7261   1
  20   4  19 18.0203  2.9289   3
 -22  -4 -19 7.76829 2.71444   1
  22  -4  19 7.38149 2.65462   3
  22   4  19 9.49204 2.86756   3
 -22   4 -19 9.25891 2.59542   1
 -24  -4 -19 0.66324 2.30795   1
  24  -4  19 2.03494 2.39638   3
 -24   4 -19 5.22500 2.40545   1
  24   4  19 1.99459 2.61169   3
  31  -5 -19 2.16832 2.18524   2
 -31   5  19 0.89661 2.21625   1
  29  -5 -19 9.46642 2.66213   2
  29   5 -19 10.8132  2.4932   2
 -29   5  19 9.87560 2.75680   1
  27  -5 -19 4.55775 2.22583   2
  27   5 -19 4.10648 2.09077   2
 -27   5  19 6.02789 2.65670   1
  25  -5 -19 26.7253  3.5671   2
  25  -5 -19 28.7771  3.6806   1
  25   5 -19 32.9384  3.2146   2
  23  -5 -19 3.41511 2.05222   2
  23  -5 -19 4.01460 2.42108   1
  23   5 -19 3.14721 2.04239   2
  21  -5 -19 93.6710  5.5654   2
  21  -5 -19 102.249   5.649   1
  21   5 -19 102.023   5.487   2
  19  -5 -19 12.1357  2.4309   2
  19  -5 -19 15.2195  2.8232   1
  19   5 -19 14.4917  2.5989   2
  17  -5 -19 80.6887  4.7861   2
  17  -5 -19 84.8715  5.0601   1
  17   5 -19 83.5708  4.8808   2
  15  -5 -19 25.6321  2.9065   2
  15  -5 -19 27.9533  3.3593   1
  15   5 -19 21.3014  2.8437   2
  13  -5 -19 15.2072  2.6912   1
  13   5 -19 13.7710  2.3485   2
 -11  -5  19 32.2270  3.0749   3
  11  -5 -19 27.4945  3.2456   1
  11   5 -19 33.2384  3.0451   2
   9  -5 -19 1.58158 1.89286   1
  -9  -5  19 1.20126 1.78652   3
   9   5 -19 3.38136 1.79202   2
   7  -5 -19 19.8520  2.8954   1
  -7  -5  19 18.7926  2.6717   3
   7   5 -19 19.8445  2.6557   2
  -5  -5  19 15.6566  2.5404   3
   5  -5 -19 12.9578  2.5651   1
   5   5 -19 13.4648  2.4654   2
   3  -5 -19 40.7465  3.5779   1
  -3  -5  19 36.5917  3.2436   3
   3   5 -19 36.1354  3.3392   2
   1  -5 -19 26.0724  3.1817   1
  -1  -5  19 30.9529  3.0422   3
   1   5 -19 27.6873  3.2418   2
   1  -5  19 41.4504  3.5464   3
  -1  -5 -19 42.2013  3.5231   1
  -1   5 -19 37.7051  3.4634   2
   3  -5  19 36.2429  3.2986   3
  -3  -5 -19 38.9759  3.4407   1
  -3   5 -19 29.1780  3.4016   2
   5  -5  19 74.2029  4.6022   3
  -5  -5 -19 83.7712  4.8975   1
  -5   5 -19 75.2573  4.7643   2
  -7  -5 -19 5.76323 2.18163   1
   7  -5  19 7.55862 2.27990   3
  -7   5 -19 7.66179 2.25348   2
   9  -5  19 40.9906  3.4553   3
  -9  -5 -19 38.7010  3.5999   1
  -9   5 -19 34.4151  3.3595   2
  -9   5 -19 34.3844  3.0288   1
  11  -5  19 -2.1682  1.7067   3
 -11  -5 -19 -2.9922  1.7019   1
 -11   5 -19 -2.3886  1.5671   1
 -11   5 -19 2.04917 1.76982   2
 -13  -5 -19 19.4942  3.0549   1
  13  -5  19 18.4981  2.9781   3
 -13   5 -19 20.5763  2.7506   1
 -15  -5 -19 1.03136 2.00372   1
  15  -5  19 -1.2852  2.0146   3
  15   5  19 -0.3292  2.0035   3
 -15   5 -19 1.81403 1.94266   1
 -17  -5 -19 32.0841  3.8080   1
  17  -5  19 31.6169  3.7650   3
  17   5  19 29.1063  3.3490   3
 -17   5 -19 32.8845  3.1401   1
  19  -5  19 1.26029 2.32777   3
 -19  -5 -19 1.19559 2.22354   1
 -19   5 -19 -1.0276  2.0011   1
  19   5  19 0.91608 2.31531   3
 -21  -5 -19 18.2695  3.4132   1
  21  -5  19 22.4545  3.4295   3
  21   5  19 19.8402  3.2016   3
 -21   5 -19 25.0330  3.2286   1
 -23  -5 -19 -1.0458  2.3083   1
 -23   5 -19 0.16041 2.28203   1
  23   5  19 -2.1017  2.2865   3
 -30   6  19 8.95840 2.83347   1
  28  -6 -19 18.1986  3.2700   2
  28   6 -19 12.1813  2.5094   2
 -28   6  19 13.4211  3.2395   1
  26  -6 -19 7.71256 2.57060   2
  26   6 -19 6.78585 2.17207   2
  24  -6 -19 20.1947  3.1941   2
  24  -6 -19 23.8425  3.5167   1
  24   6 -19 16.8963  2.8236   2
  22  -6 -19 5.02049 2.45737   1
  22  -6 -19 7.94990 2.33810   2
  22   6 -19 6.16570 2.12775   2
  20  -6 -19 54.2931  4.1071   2
  20  -6 -19 50.4470  4.1714   1
  20   6 -19 51.0012  3.8741   2
  18  -6 -19 2.66376 1.83263   2
  18  -6 -19 5.67491 2.52883   1
  18   6 -19 3.51522 1.98179   2
  16  -6 -19 79.7240  5.0694   1
  16   6 -19 80.8630  4.9449   2
  14  -6 -19 -0.3001  1.9912   1
  14   6 -19 1.39134 1.83448   2
  12  -6 -19 36.9134  3.7973   1
  12   6 -19 35.3095  3.3243   2
  10  -6 -19 1.99538 1.95566   1
 -10  -6  19 0.14142 1.80541   3
  10   6 -19 -1.0096  1.3974   2
   8  -6 -19 36.7469  3.8414   1
  -8  -6  19 44.9166  3.5556   3
   8   6 -19 43.4122  3.6309   2
   6  -6 -19 -0.1116  1.9064   1
  -6  -6  19 -1.2958  1.8351   3
   6   6 -19 3.16798 1.87776   2
  -4  -6  19 47.8988  3.7324   3
   4  -6 -19 52.2922  4.0341   1
   4   6 -19 50.6277  3.8115   2
  -2  -6  19 -0.5556  2.0034   3
   2  -6 -19 -1.1106  1.9240   1
   2   6 -19 0.52836 1.79452   2
   0  -6 -19 58.6978  4.2249   1
   0  -6  19 60.7882  4.2062   3
   0   6 -19 62.4640  4.3868   2
   2  -6  19 8.29861 2.53668   3
  -2  -6 -19 8.94815 2.55101   1
  -2   6 -19 6.34856 2.13913   2
   4  -6  19 62.1358  4.3331   3
  -4  -6 -19 60.0805  4.3318   1
  -4   6 -19 59.4847  4.4393   2
   6  -6  19 16.2950  2.9538   3
  -6  -6 -19 17.5039  2.9761   1
  -6   6 -19 19.8669  3.0450   2
   8  -6  19 39.3006  3.6048   3
  -8  -6 -19 37.6875  3.9382   1
  -8   6 -19 33.8481  3.7318   2
 -10  -6 -19 19.5517  3.1928   1
  10  -6  19 15.6589  2.8600   3
 -10   6 -19 25.0322  3.2478   2
  12  -6  19 4.20571 2.23097   3
 -12  -6 -19 8.55042 2.79100   1
 -12   6 -19 8.24035 2.42853   2
  14  -6  19 2.78131 2.18477   3
 -14  -6 -19 2.47735 2.34860   1
  16  -6  19 18.0938  3.0983   3
 -16  -6 -19 20.7231  3.2594   1
 -16   6 -19 19.9884  2.9081   1
 -18  -6 -19 5.32785 2.68261   1
  18  -6  19 5.81900 2.62234   3
 -18   6 -19 7.61374 2.45259   1
 -20  -6 -19 7.26172 2.87380   1
 -20   6 -19 13.8579  2.8243   1
  22   6  19 8.31193 2.67803   3
 -22   6 -19 11.9498  2.8056   1
  27  -7 -19 -1.8708  1.8063   2
  25  -7 -19 9.16980 2.57906   2
  23  -7 -19 -1.7027  1.7792   2
  23  -7 -19 -2.9986  2.1275   1
  23   7 -19 -0.1438  1.8983   2
  21  -7 -19 9.82312 2.79625   1
  21  -7 -19 13.1499  2.7261   2
  21   7 -19 8.98457 2.49360   2
  19  -7 -19 8.85956 2.85312   1
  19   7 -19 8.20410 2.47609   2
  17  -7 -19 38.2500  4.1226   1
  17   7 -19 40.1538  3.7102   2
  15  -7 -19 45.5481  4.0844   1
  15   7 -19 37.5678  3.5249   2
  13  -7 -19 36.4756  4.0331   1
  13   7 -19 34.3564  3.7392   2
  11  -7 -19 27.5813  3.6212   1
  11   7 -19 22.9150  3.1655   2
   9  -7 -19 23.4448  3.3945   1
   9   7 -19 22.6252  3.1476   2
  -7  -7  19 3.90255 2.28528   3
   7  -7 -19 2.50076 2.12856   1
   7   7 -19 3.73536 1.94164   2
   5  -7 -19 32.4505  3.6450   1
  -5  -7  19 31.9024  3.6661   3
   5   7 -19 27.1637  3.4869   2
  -3  -7  19 17.5743  2.9607   3
   3  -7 -19 11.5938  2.7452   1
   3   7 -19 12.9155  2.7218   2
  -1  -7  19 18.2665  2.9507   3
   1  -7 -19 17.6495  3.0095   1
   1   7 -19 17.8516  3.0565   2
   1  -7  19 33.5262  3.8056   3
  -1  -7 -19 31.5121  3.6396   1
  -1   7 -19 25.0260  3.4807   2
  -3  -7 -19 16.9968  3.1473   1
   3  -7  19 13.4040  2.9569   3
  -3   7 -19 17.2562  3.0823   2
   5  -7  19 47.7420  4.0647   3
  -5  -7 -19 52.8017  4.3146   1
  -5   7 -19 48.0987  4.2455   2
   7  -7  19 1.36329 2.20849   3
  -7  -7 -19 1.75377 2.23411   1
  -7   7 -19 1.77993 2.10310   2
   9  -7  19 33.3834  3.8360   3
  -9  -7 -19 33.0494  3.8299   1
  -9   7 -19 27.4286  3.6257   2
  11  -7  19 -1.6207  1.9135   3
 -11  -7 -19 1.09639 2.17079   1
 -11   7 -19 -0.7018  1.9222   2
  13  -7  19 8.88439 2.58768   3
 -13  -7 -19 11.1606  2.8536   1
 -13   7 -19 11.5988  2.7706   2
  15  -7  19 1.55572 2.28854   3
 -15  -7 -19 2.40108 2.54746   1
 -15   7 -19 -1.3558  1.9451   2
 -17  -7 -19 6.62142 2.63593   1
  20  -8 -19 23.8959  3.6703   1
  18  -8 -19 2.69201 2.59084   1
  18   8 -19 -1.4176  1.9611   2
  16  -8 -19 34.5020  4.1431   1
  16   8 -19 38.8883  3.7937   2
  14  -8 -19 0.90112 2.46095   1
  14   8 -19 3.22044 2.09536   2
  12  -8 -19 42.1755  4.0106   1
  12   8 -19 28.0868  3.6141   2
  10  -8 -19 -2.5675  2.1189   1
  10   8 -19 2.45457 1.95126   2
   8  -8 -19 17.8068  3.2845   1
   8   8 -19 22.7081  3.3282   2
   6  -8 -19 2.40743 2.39990   1
  -6  -8  19 2.87929 2.24112   3
   6   8 -19 1.54097 2.14626   2
  -4  -8  19 28.8291  3.6292   3
   4  -8 -19 19.8631  3.2067   1
   4   8 -19 23.7279  3.4536   2
   2  -8 -19 0.34117 2.28839   1
  -2  -8  19 -0.8345  2.1809   3
   2   8 -19 0.00401 2.12231   2
   0  -8 -19 35.2505  3.9221   1
   0  -8  19 29.9179  3.8169   3
   0   8 -19 35.4534  4.0887   2
  -2  -8 -19 2.58906 2.33957   1
   2  -8  19 4.19320 2.36377   3
  -2   8 -19 0.57186 2.32741   2
   4  -8  19 32.0829  3.8878   3
  -4  -8 -19 27.7018  3.7215   1
  -4   8 -19 29.4895  3.8979   2
   6  -8  19 8.66007 2.69932   3
  -6  -8 -19 5.63709 2.73290   1
  -6   8 -19 9.63767 2.81445   2
  -8  -8 -19 10.8602  2.9063   1
   8  -8  19 10.1196  2.8341   3
  -8   8 -19 14.1210  3.1571   2
 -10  -8 -19 6.70477 2.71391   1
  10  -8  19 12.2073  2.9519   3
 -10   8 -19 6.18581 2.53447   2
 -12  -8 -19 3.75846 2.58126   1
 -12   8 -19 6.14271 2.55682   2
 -14   8 -19 -0.6260  2.1455   2
 -16   8 -19 4.33890 2.61130   2
   9  -9 -19 4.39493 2.70561   1
   9   9 -19 7.73796 2.62523   2
   7  -9 -19 11.0427  2.9667   1
   7   9 -19 16.7817  3.2787   2
   5  -9 -19 12.5751  3.1157   1
   5   9 -19 13.2066  3.0171   2
  -3  -9  19 2.14885 2.46650   3
   3  -9 -19 4.48769 2.55049   1
   3   9 -19 7.52559 2.74088   2
  -1  -9  19 9.29900 2.90664   3
   1  -9 -19 13.3385  2.9571   1
   1   9 -19 10.0508  2.8528   2
  -1  -9 -19 18.7845  3.2978   1
   1  -9  19 17.6757  3.4851   3
  -1   9 -19 16.2516  3.3989   2
  -3  -9 -19 7.14308 2.86180   1
  -3   9 -19 3.76780 2.69262   2
  34   0 -20 17.5501  3.0578   2
  32   0 -20 0.67988 1.91723   2
  30   0 -20 28.2717  3.2521   2
  28   0 -20 19.1612  2.9258   2
  26   0 -20 97.3913  5.4219   2
  22   0 -20 130.691   6.302   2
  20   0 -20 10.4878  2.1424   2
  18   0 -20 134.406   6.219   2
  16   0 -20 46.1024  3.1992   2
  14   0 -20 66.3995  3.9155   2
  12   0 -20 36.5987  2.8567   1
  12   0 -20 30.0669  2.6568   2
  10   0 -20 17.6732  2.3470   1
  10   0 -20 16.9222  2.1609   2
   8   0 -20 14.1415  1.9872   2
   8   0 -20 11.5001  2.1881   1
   6   0 -20 66.7374  3.6500   2
   6   0 -20 59.4122  3.7182   1
   4   0 -20 -1.4414  1.1969   2
   4   0 -20 -1.5680  1.6421   1
   2   0 -20 111.856   5.083   2
   2   0 -20 120.344   5.510   1
   0   0  20 89.2442  4.4608   3
   0   0 -20 92.2970  4.7974   1
   2   0  20 44.7017  3.1394   3
  -2   0 -20 43.2910  3.4687   1
  -4   0 -20 172.617   7.315   1
   4   0  20 179.883   7.168   3
  -6   0 -20 27.8592  2.9818   1
   6   0  20 27.7049  2.7649   3
   8   0  20 54.5737  3.4515   3
  -8   0 -20 62.5086  3.9550   1
 -10   0 -20 22.2450  2.8406   1
  10   0  20 29.5265  2.6311   3
 -12   0 -20 6.19462 1.92865   1
  12   0  20 6.17028 1.81192   3
  14   0  20 22.6814  2.7037   3
 -14   0 -20 21.6316  2.8249   1
  16   0  20 12.6780  2.3556   3
 -16   0 -20 11.1618  2.4478   1
 -18   0 -20 25.0021  3.2278   1
  18   0  20 35.4157  3.3402   3
  20   0  20 26.3789  3.2251   3
 -20   0 -20 26.2607  3.3952   1
 -22   0 -20 4.09490 2.45726   1
  22   0  20 4.36621 2.30758   3
  24   0  20 53.3892  4.5097   3
 -24   0 -20 54.6217  4.4839   1
  33  -1 -20 9.31641 2.62947   2
  33   1 -20 5.74134 2.25477   2
  31  -1 -20 15.8840  2.9824   2
  31   1 -20 18.7338  2.9482   2
  29  -1 -20 2.55184 1.93410   2
  29   1 -20 8.30704 2.31926   2
  27  -1 -20 55.4352  4.1133   2
  27   1 -20 58.5579  4.1576   2
  25  -1 -20 20.3751  2.9072   2
  25   1 -20 18.1379  2.8173   2
  23  -1 -20 76.4316  4.6101   2
  23   1 -20 73.7101  4.5207   2
  21  -1 -20 74.7702  4.4753   2
  21   1 -20 74.9895  4.4617   2
  19  -1 -20 46.7851  3.5088   2
  19   1 -20 45.4904  3.4114   2
  17  -1 -20 126.287   5.830   2
  17  -1 -20 123.485   5.645   1
  17   1 -20 112.537   5.537   2
  15  -1 -20 18.7311  2.5072   1
  15  -1 -20 22.7561  2.6691   2
  15   1 -20 20.6048  2.5276   2
  13  -1 -20 74.5964  4.0250   2
  13  -1 -20 66.4840  3.9737   1
  13   1 -20 66.0693  3.9008   2
  11  -1 -20 0.47003 1.62792   1
  11  -1 -20 -1.2838  1.0960   2
  11   1 -20 1.40359 1.39740   2
   9  -1 -20 22.9191  2.6384   1
   9  -1 -20 26.0452  2.3966   2
   9   1 -20 23.0204  2.4737   2
   9   1 -20 22.9644  2.4148   1
   7  -1 -20 10.6712  2.1700   1
   7  -1 -20 12.4775  1.8754   2
   7   1 -20 9.75342 1.82022   2
   7   1 -20 6.54651 1.94507   1
   5  -1 -20 54.8076  3.2394   2
   5  -1 -20 53.1261  3.4965   1
   5   1 -20 48.8338  3.4031   1
   5   1 -20 48.2393  3.2086   2
   3  -1 -20 38.7124  3.2289   1
  -3  -1  20 46.8921  3.1300   3
   3   1 -20 45.1147  3.2233   1
   3   1 -20 41.2314  2.9230   2
   1  -1 -20 156.684   6.915   1
  -1  -1  20 162.648   6.659   3
   1   1 -20 163.975   6.734   1
   1   1 -20 158.996   6.652   2
  -1  -1 -20 3.49518 1.97848   1
   1  -1  20 4.31718 1.74912   3
  -1   1 -20 4.22239 1.96023   1
  -3  -1 -20 157.516   6.795   1
   3  -1  20 147.257   6.425   3
   3   1  20 150.116   6.163   3
  -3   1 -20 148.443   6.489   1
   5  -1  20 17.7309  2.3975   3
  -5  -1 -20 18.7349  2.6746   1
   5   1  20 21.0174  2.3680   3
  -5   1 -20 16.5707  2.5101   1
   7  -1  20 39.0324  3.0540   3
  -7  -1 -20 45.1149  3.3731   1
   7   1  20 43.9198  2.9459   3
  -7   1 -20 42.3663  3.2957   1
   9  -1  20 3.03485 1.61171   3
  -9  -1 -20 1.99193 1.74260   1
   9   1  20 2.32106 1.53377   3
  -9   1 -20 3.59311 1.82490   1
 -11  -1 -20 16.2489  2.5402   1
  11  -1  20 13.0268  2.2821   3
 -11   1 -20 17.4686  2.4871   1
  11   1  20 15.1496  2.3080   3
 -13  -1 -20 1.42876 1.72178   1
  13  -1  20 0.87495 1.56668   3
 -13   1 -20 0.34756 1.66100   1
  13   1  20 -0.1817  1.4653   3
 -15  -1 -20 22.8210  3.0130   1
  15  -1  20 26.1477  2.9477   3
  15   1  20 19.9987  2.5980   3
 -15   1 -20 23.3174  3.0388   1
  17  -1  20 -0.7997  1.8338   3
 -17  -1 -20 -0.2685  1.9074   1
  17   1  20 0.82228 1.74606   3
 -17   1 -20 1.21542 1.88504   1
  19  -1  20 38.8678  3.4853   3
 -19  -1 -20 34.5406  3.7241   1
 -19   1 -20 40.6046  3.7634   1
  19   1  20 37.6883  3.3560   3
  21  -1  20 11.7059  2.6349   3
 -21  -1 -20 7.73014 2.56964   1
  21   1  20 17.0273  2.8196   3
 -21   1 -20 11.3252  2.7341   1
  23  -1  20 26.3402  3.5449   3
 -23  -1 -20 22.4904  3.4535   1
  23   1  20 31.6917  3.7066   3
 -23   1 -20 23.2991  3.4681   1
  25  -1  20 15.6007  3.1346   3
 -25  -1 -20 16.6840  3.2822   1
  25   1  20 19.0290  3.2129   3
 -25   1 -20 13.3633  3.0482   1
  32  -2 -20 2.20162 1.99557   2
  32   2 -20 0.80051 1.97420   2
  30  -2 -20 12.5453  2.5998   2
  30   2 -20 15.4847  2.6455   2
  28  -2 -20 -2.3103  1.8368   2
  28   2 -20 2.39748 1.88127   2
  26  -2 -20 30.0213  3.4979   2
  26   2 -20 31.8353  3.3705   2
  24  -2 -20 2.50959 1.91860   2
  24   2 -20 0.44930 1.68987   2
  22  -2 -20 123.453   6.026   2
  22   2 -20 121.416   5.915   2
  20  -2 -20 2.79330 1.97536   1
  20  -2 -20 4.57159 1.82085   2
  20   2 -20 0.56414 1.72304   2
  18  -2 -20 127.858   6.165   2
  18  -2 -20 150.134   6.396   1
  18   2 -20 130.978   6.251   2
  16  -2 -20 7.28581 2.15096   1
  16  -2 -20 9.75799 2.02703   2
  16   2 -20 9.78788 2.01737   2
  14  -2 -20 26.0016  2.8615   1
  14  -2 -20 25.9646  2.5729   2
  14   2 -20 23.6750  2.6573   2
  12  -2 -20 9.10700 2.14987   1
  12  -2 -20 6.31142 1.69236   2
  12   2 -20 8.42784 1.81631   2
  10  -2 -20 18.2688  2.2742   2
  10  -2 -20 12.3292  2.3245   1
  10   2 -20 16.1594  2.1757   2
   8  -2 -20 0.77866 1.66481   1
   8  -2 -20 0.65137 1.22457   2
   8   2 -20 2.50522 1.52441   2
   6  -2 -20 54.2279  3.7739   1
  -6  -2  20 56.5590  3.5029   3
   6   2 -20 54.3454  3.5135   2
  -4  -2  20 1.04721 1.86477   3
   4  -2 -20 4.12003 2.15159   1
   4   2 -20 2.53862 1.81561   1
   4   2 -20 0.09768 1.41635   2
   2  -2 -20 186.007   7.812   1
  -2  -2  20 184.796   7.506   3
   2   2 -20 189.071   7.403   1
   2   2 -20 183.865   7.611   2
   0  -2  20 55.6033  3.8408   3
   0  -2 -20 61.0833  4.0468   1
   0   2 -20 61.9500  3.7265   2
   0   2 -20 64.6601  3.7546   1
   2  -2  20 87.8641  4.7074   3
  -2  -2 -20 88.0673  4.9530   1
  -2   2 -20 89.0349  4.5590   1
  -2   2 -20 88.6039  4.5741   2
  -4  -2 -20 58.0426  4.0060   1
   4  -2  20 60.1965  3.8418   3
  -4   2 -20 59.4400  3.6909   1
  -6  -2 -20 5.90701 2.05036   1
   6  -2  20 8.26301 2.06833   3
  -6   2 -20 8.32604 2.02002   1
   6   2  20 11.2625  1.8559   3
   8  -2  20 26.7067  2.6053   3
  -8  -2 -20 21.4852  2.8110   1
   8   2  20 21.2164  2.3932   3
  -8   2 -20 19.1750  2.5906   1
 -10  -2 -20 2.85454 1.85815   1
  10  -2  20 2.44494 1.60004   3
 -10   2 -20 0.77747 1.67801   1
  10   2  20 0.26154 1.53667   3
 -12  -2 -20 -0.5040  1.6186   1
  12  -2  20 1.65415 1.71461   3
 -12   2 -20 1.71654 1.67088   1
  12   2  20 1.05775 1.51722   3
 -14  -2 -20 6.77227 2.14647   1
  14  -2  20 11.1947  2.2652   3
 -14   2 -20 6.75338 2.16518   1
  14   2  20 8.51132 2.12119   3
  16  -2  20 5.87660 2.12790   3
 -16  -2 -20 4.37654 2.19601   1
  16   2  20 5.23271 2.05754   3
 -16   2 -20 7.96085 2.20730   1
 -18  -2 -20 7.11314 2.49334   1
  18  -2  20 7.55197 2.33290   3
 -18   2 -20 6.21827 2.20255   1
  18   2  20 8.75189 2.25379   3
 -20  -2 -20 31.4524  3.7696   1
  20  -2  20 33.7944  3.7056   3
  20   2  20 37.8134  3.4963   3
 -20   2 -20 33.9643  3.6720   1
 -22  -2 -20 2.68026 2.46163   1
  22  -2  20 3.57162 2.61210   3
 -22   2 -20 2.76912 2.47255   1
  22   2  20 8.54160 2.66354   3
  24  -2  20 24.4119  3.6307   3
 -24  -2 -20 17.9913  3.2771   1
 -24   2 -20 16.2097  3.1370   1
  24   2  20 28.4162  3.6330   3
  31  -3 -20 2.76369 2.07690   2
  31   3 -20 1.65742 1.95917   2
  29  -3 -20 1.02509 2.08826   2
  29   3 -20 3.93130 1.91551   2
  27  -3 -20 5.27723 2.09832   2
  27   3 -20 5.32333 2.15286   2
  25  -3 -20 11.9384  2.6964   1
  25  -3 -20 14.4836  2.7237   2
  25   3 -20 15.6496  2.5331   2
  23  -3 -20 24.8368  3.1421   1
  23  -3 -20 23.4020  3.1077   2
  23   3 -20 20.8637  2.9135   2
  21  -3 -20 68.2487  4.3594   2
  21  -3 -20 68.5467  4.4294   1
  21   3 -20 62.2846  4.1092   2
  19  -3 -20 47.9084  3.7277   1
  19  -3 -20 40.8175  3.4546   2
  19   3 -20 45.9901  3.5331   2
  17  -3 -20 55.8880  3.9616   1
  17  -3 -20 54.5445  3.7431   2
  17   3 -20 50.1533  3.5513   2
  15  -3 -20 6.31273 1.86897   2
  15  -3 -20 8.88011 2.21493   1
  15   3 -20 7.88291 1.95448   2
  13  -3 -20 19.3249  2.7621   1
  13  -3 -20 18.7423  2.3841   2
  13   3 -20 17.9264  2.4044   2
  11  -3 -20 1.48958 1.33595   2
  11  -3 -20 0.71885 1.67784   1
  11   3 -20 0.71034 1.36414   2
  -9  -3  20 8.35741 2.00240   3
   9  -3 -20 6.45460 2.07221   1
   9   3 -20 7.30974 1.82745   2
  -7  -3  20 -1.2290  1.6180   3
   7  -3 -20 -0.1234  1.7877   1
   7   3 -20 1.27550 1.57092   2
   5  -3 -20 47.9449  3.8362   1
  -5  -3  20 55.4440  3.6398   3
   5   3 -20 47.3410  3.4815   2
  -3  -3  20 20.8343  2.7915   3
   3  -3 -20 16.5957  2.8344   1
   3   3 -20 17.2918  2.5207   2
  -1  -3  20 140.040   6.352   3
   1  -3 -20 137.611   6.569   1
   1   3 -20 145.735   6.486   2
   1  -3  20 11.4306  2.3871   3
  -1  -3 -20 10.8628  2.6128   1
  -1   3 -20 5.61912 1.90515   2
  -1   3 -20 11.1464  2.0745   1
  -3  -3 -20 109.042   5.606   1
   3  -3  20 106.374   5.309   3
  -3   3 -20 104.573   5.364   2
  -3   3 -20 103.610   5.028   1
  -5  -3 -20 6.70598 2.08140   1
   5  -3  20 7.21290 2.14136   3
  -5   3 -20 8.20368 1.98944   1
  -5   3 -20 6.53423 1.87685   2
   7  -3  20 8.58976 2.02125   3
  -7  -3 -20 9.33163 2.23331   1
  -7   3 -20 3.74316 1.79989   1
   9  -3  20 2.14600 1.63800   3
  -9  -3 -20 0.73596 1.83461   1
  -9   3 -20 1.76069 1.78582   1
  11  -3  20 6.00599 1.95028   3
 -11  -3 -20 5.66120 2.00691   1
 -11   3 -20 4.75648 1.86715   1
  11   3  20 3.77235 1.83821   3
 -13  -3 -20 -0.1227  1.7721   1
  13  -3  20 -1.3480  1.6645   3
 -13   3 -20 -0.7031  1.5852   1
  13   3  20 1.38779 1.67540   3
 -15  -3 -20 6.97232 2.24712   1
  15  -3  20 8.29585 2.32412   3
  15   3  20 12.5661  2.3943   3
 -15   3 -20 11.4282  2.4359   1
 -17  -3 -20 1.26036 2.19241   1
  17  -3  20 -1.1213  1.8773   3
  17   3  20 1.15154 2.00373   3
 -17   3 -20 1.85772 2.02793   1
 -19  -3 -20 26.8998  3.6193   1
  19  -3  20 31.2017  3.6876   3
  19   3  20 29.5114  3.3481   3
 -19   3 -20 29.8322  3.5261   1
 -21  -3 -20 8.69630 2.88696   1
  21  -3  20 13.4524  3.1165   3
 -21   3 -20 10.5213  2.6434   1
  21   3  20 12.7866  2.7351   3
  23  -3  20 24.2405  3.5994   3
 -23  -3 -20 21.6996  3.4930   1
  23   3  20 17.4182  3.0427   3
 -23   3 -20 19.8889  3.2973   1
  25   3  20 10.1114  2.6835   3
  30  -4 -20 4.33124 2.24273   2
  30   4 -20 6.31813 2.14686   2
  28  -4 -20 0.89684 2.01604   2
  28   4 -20 -0.7022  1.7343   2
 -28   4  20 3.17608 2.42647   1
  26  -4 -20 6.90693 2.39506   2
  26   4 -20 9.89761 2.37250   2
  24  -4 -20 4.15848 2.38698   1
  24  -4 -20 1.64538 1.88872   2
  24   4 -20 1.36943 1.73714   2
  22  -4 -20 44.8554  3.8805   2
  22  -4 -20 44.0687  3.7904   1
  22   4 -20 43.9205  3.6276   2
  20  -4 -20 8.14311 2.55067   1
  20  -4 -20 5.28113 2.04368   2
  20   4 -20 2.23224 1.90336   2
  18  -4 -20 49.3243  3.8574   2
  18  -4 -20 52.5252  4.0317   1
  18   4 -20 44.8953  3.4994   2
  16  -4 -20 2.70895 2.21202   1
  16  -4 -20 5.12381 1.85785   2
  16   4 -20 9.12453 2.15471   2
  14  -4 -20 27.5257  2.9647   2
  14  -4 -20 26.1485  3.1758   1
  14   4 -20 28.0089  2.7274   2
  12  -4 -20 10.7347  2.4519   1
 -12  -4  20 6.26652 2.06396   3
  12   4 -20 10.5007  2.1630   2
  10  -4 -20 4.62532 2.12330   1
 -10  -4  20 4.08469 1.93499   3
  10   4 -20 5.54611 1.79162   2
  -8  -4  20 11.4183  2.3094   3
   8  -4 -20 13.2929  2.5309   1
   8   4 -20 12.6556  2.2300   2
  -6  -4  20 -1.8337  1.7431   3
   6  -4 -20 -1.8344  1.8183   1
   6   4 -20 0.78518 1.63809   2
  -4  -4  20 -1.8120  1.7766   3
   4  -4 -20 -2.2946  1.8150   1
   4   4 -20 0.59345 1.60770   2
  -2  -4  20 72.9600  4.3990   3
   2  -4 -20 74.9704  4.5786   1
   2   4 -20 71.0274  4.4300   2
   0  -4  20 6.54247 2.30196   3
   0  -4 -20 6.34052 2.30897   1
   0   4 -20 6.90130 2.10152   2
   2  -4  20 37.5295  3.2631   3
  -2  -4 -20 41.5280  3.5895   1
  -2   4 -20 35.3065  3.2624   2
   4  -4  20 24.7235  2.9415   3
  -4  -4 -20 15.6468  2.7401   1
  -4   4 -20 17.5075  2.6749   2
  -6  -4 -20 2.16412 1.96720   1
   6  -4  20 1.47782 1.73742   3
  -6   4 -20 1.32203 1.72643   1
  -6   4 -20 -0.8571  1.6209   2
   8  -4  20 6.75589 2.08153   3
  -8  -4 -20 3.22230 1.97478   1
  -8   4 -20 1.42274 1.79041   1
 -10  -4 -20 -2.1503  1.5646   1
  10  -4  20 0.93192 1.73087   3
 -10   4 -20 -0.1208  1.5894   1
  12  -4  20 2.98630 2.00725   3
 -12  -4 -20 0.11065 1.91632   1
 -12   4 -20 0.34416 1.78254   1
  14  -4  20 6.90388 2.42765   3
 -14  -4 -20 6.81790 2.41469   1
 -14   4 -20 10.0593  2.3032   1
  14   4  20 7.44286 2.13946   3
 -16  -4 -20 5.48765 2.42169   1
  16  -4  20 4.29549 2.30365   3
 -16   4 -20 4.33650 2.08220   1
  16   4  20 4.86811 2.06765   3
 -18  -4 -20 1.54753 2.38914   1
  18  -4  20 2.02737 2.28084   3
 -18   4 -20 4.06413 2.28012   1
  18   4  20 6.96358 2.44317   3
  20  -4  20 17.6477  3.2931   3
 -20  -4 -20 19.8415  3.3264   1
  20   4  20 17.1290  2.8958   3
 -20   4 -20 20.5862  3.0676   1
  22  -4  20 0.97342 2.58626   3
 -22  -4 -20 -4.2381  2.0861   1
 -22   4 -20 7.50942 2.61789   1
  22   4  20 4.42472 2.46903   3
  24   4  20 9.10898 2.84052   3
 -31   5  20 4.51730 2.66610   1
  29  -5 -20 -1.4305  1.8377   2
 -29   5  20 1.23525 2.39912   1
  27  -5 -20 2.60157 2.16394   2
  27   5 -20 1.22863 2.00694   2
  25  -5 -20 -0.2764  2.4273   1
  25  -5 -20 0.74221 1.90166   2
  25   5 -20 3.66615 2.04608   2
  23  -5 -20 19.4724  3.2215   1
  23  -5 -20 11.0750  2.6374   2
  23   5 -20 14.3798  2.6315   2
  21  -5 -20 4.60843 2.08365   2
  21  -5 -20 6.94430 2.56502   1
  21   5 -20 6.89500 2.23714   2
  19  -5 -20 11.1752  2.6656   1
  19  -5 -20 6.81983 2.14041   2
  19   5 -20 11.2651  2.4396   2
  17  -5 -20 16.9246  2.9957   1
  17  -5 -20 16.2854  2.6079   2
  17   5 -20 16.6484  2.5807   2
  15  -5 -20 0.37690 2.01577   1
  15   5 -20 -0.5558  1.6350   2
  13  -5 -20 11.3680  2.6697   1
  13   5 -20 16.8137  2.6028   2
 -11  -5  20 -0.7148  1.7289   3
  11  -5 -20 -3.3619  1.6598   1
  11   5 -20 2.37160 1.72135   2
  -9  -5  20 0.36215 1.82370   3
   9  -5 -20 -1.0134  1.8085   1
   9   5 -20 1.15256 1.62882   2
  -7  -5  20 -1.8251  1.7462   3
   7  -5 -20 -1.4763  1.8374   1
   7   5 -20 0.57143 1.62127   2
  -5  -5  20 0.82457 1.88290   3
   5  -5 -20 -0.5877  1.9915   1
   5   5 -20 2.17139 1.83397   2
  -3  -5  20 9.91016 2.36263   3
   3  -5 -20 12.4658  2.5604   1
   3   5 -20 3.66990 1.98943   2
  -1  -5  20 10.9528  2.4391   3
   1  -5 -20 11.3561  2.5326   1
   1   5 -20 8.24384 2.31144   2
   1  -5  20 2.75627 2.02094   3
  -1  -5 -20 4.25895 2.11254   1
  -1   5 -20 0.02051 1.80557   2
  -3  -5 -20 23.5605  3.0984   1
   3  -5  20 25.4715  3.1022   3
  -3   5 -20 18.0845  2.8597   2
   5  -5  20 17.7648  2.8509   3
  -5  -5 -20 18.2651  2.8464   1
  -5   5 -20 15.0254  2.6352   2
   7  -5  20 2.71784 1.92259   3
  -7  -5 -20 5.34837 2.20530   1
  -7   5 -20 4.64095 2.02399   2
  -9  -5 -20 0.46558 1.90425   1
   9  -5  20 1.75588 1.90138   3
  -9   5 -20 0.99918 1.73231   2
  11  -5  20 4.74832 2.18023   3
 -11  -5 -20 0.92658 2.10457   1
 -11   5 -20 1.43902 1.87859   1
 -13  -5 -20 0.52735 2.16113   1
  13  -5  20 2.70235 2.07483   3
 -13   5 -20 0.55112 1.82898   1
 -15  -5 -20 1.70946 2.24065   1
  15  -5  20 2.09558 2.29857   3
 -15   5 -20 4.33609 1.91245   1
 -17  -5 -20 1.00399 2.40940   1
  17  -5  20 -0.3121  2.3248   3
 -17   5 -20 3.67315 2.21221   1
  19  -5  20 5.21747 2.79470   3
 -19  -5 -20 9.91957 2.95889   1
  19   5  20 5.17371 2.65066   3
 -19   5 -20 11.1107  2.6878   1
 -21   5 -20 5.87176 2.43470   1
  21   5  20 1.83257 2.55874   3
  23   5  20 -1.3453  2.3200   3
  28  -6 -20 0.63429 2.23886   2
 -28   6  20 2.07402 2.61060   1
  26  -6 -20 0.01060 1.90657   2
  26   6 -20 2.84052 2.20366   2
  24  -6 -20 -0.0290  2.3340   1
  24  -6 -20 1.03158 2.03526   2
  24   6 -20 1.91847 1.97068   2
  22  -6 -20 1.34349 1.92315   2
  22  -6 -20 0.73332 2.28150   1
  22   6 -20 -0.8173  1.7365   2
  20  -6 -20 -2.1432  2.0741   1
  20  -6 -20 1.60101 1.85538   2
  20   6 -20 -1.8858  1.6104   2
  18  -6 -20 1.59877 2.37506   1
  18   6 -20 -0.1357  1.8603   2
  16  -6 -20 5.36977 2.52783   1
  16   6 -20 4.21310 2.08710   2
  14  -6 -20 2.38298 2.23854   1
  14   6 -20 0.31134 1.68206   2
  12  -6 -20 0.00129 2.15321   1
  12   6 -20 1.14935 1.76301   2
  10  -6 -20 -0.5889  1.9244   1
 -10  -6  20 2.09289 2.01260   3
  10   6 -20 0.94454 1.79445   2
   8  -6 -20 -2.4193  1.8739   1
  -8  -6  20 1.46837 1.94443   3
   8   6 -20 0.80166 1.62887   2
  -6  -6  20 2.93240 2.07349   3
   6  -6 -20 3.96630 2.19467   1
   6   6 -20 3.05410 2.07468   2
   4  -6 -20 2.96743 2.22325   1
  -4  -6  20 0.69417 2.07001   3
   4   6 -20 4.45473 2.13666   2
   2  -6 -20 7.15538 2.40239   1
  -2  -6  20 5.18009 2.23374   3
   2   6 -20 6.85438 2.27903   2
   0  -6  20 0.66106 2.06563   3
   0  -6 -20 2.18648 2.10065   1
   0   6 -20 0.47745 1.81701   2
   2  -6  20 1.59060 2.16105   3
  -2  -6 -20 1.01485 2.08582   1
  -2   6 -20 5.04710 2.22926   2
   4  -6  20 14.9833  2.8269   3
  -4  -6 -20 12.7376  2.7256   1
  -4   6 -20 8.32539 2.41340   2
  -6  -6 -20 9.20568 2.54910   1
   6  -6  20 5.45837 2.44525   3
  -6   6 -20 4.93843 2.22438   2
  -8  -6 -20 9.38137 2.59101   1
   8  -6  20 8.13084 2.53999   3
  -8   6 -20 5.50479 2.18011   2
  10  -6  20 -2.0622  1.9672   3
 -10  -6 -20 0.73739 2.09343   1
 -10   6 -20 0.90376 1.93566   2
  12  -6  20 0.58099 2.17204   3
 -12  -6 -20 -4.0367  1.8742   1
 -14  -6 -20 -0.0854  2.1890   1
  14  -6  20 -0.2405  2.1720   3
 -16  -6 -20 -0.9223  2.2747   1
  16  -6  20 1.66906 2.45769   3
 -18  -6 -20 0.13097 2.32096   1
 -18   6 -20 3.00879 2.29658   1
 -20   6 -20 -1.9509  2.1207   1
  25  -7 -20 -0.5955  1.9599   2
  23  -7 -20 2.04460 2.16217   2
  23  -7 -20 0.66242 2.42712   1
  21  -7 -20 5.67183 2.58777   1
  21   7 -20 2.24137 2.09222   2
  19  -7 -20 0.09991 2.24520   1
  19   7 -20 1.98665 2.05158   2
  17  -7 -20 5.70351 2.56568   1
  17   7 -20 4.79578 2.13831   2
  15  -7 -20 5.16556 2.61222   1
  15   7 -20 2.97943 2.14320   2
  13  -7 -20 3.90869 2.52361   1
  13   7 -20 1.78745 1.89486   2
  11  -7 -20 2.72408 2.48443   1
  11   7 -20 4.95292 2.17178   2
   9  -7 -20 2.14979 2.35303   1
   9   7 -20 2.19033 2.06620   2
   7  -7 -20 1.18241 2.21072   1
  -7  -7  20 3.87409 2.34695   3
   7   7 -20 3.11503 2.19299   2
  -5  -7  20 1.72443 2.18668   3
   5  -7 -20 1.45502 2.19366   1
   5   7 -20 -0.5067  1.9725   2
   3  -7 -20 0.39618 2.09558   1
  -3  -7  20 5.35327 2.36723   3
   3   7 -20 0.95983 2.09687   2
  -1  -7  20 4.52370 2.29122   3
   1  -7 -20 3.80363 2.42639   1
   1   7 -20 4.10731 2.28938   2
  -1  -7 -20 3.93509 2.32704   1
   1  -7  20 6.64195 2.50022   3
  -1   7 -20 1.75132 2.07099   2
  -3  -7 -20 2.73344 2.26694   1
   3  -7  20 1.61290 2.16357   3
  -3   7 -20 1.26039 2.13852   2
   5  -7  20 1.28245 2.27550   3
  -5  -7 -20 4.55898 2.38888   1
  -5   7 -20 1.27613 2.08681   2
  -7  -7 -20 1.05090 2.31672   1
   7  -7  20 3.61897 2.23667   3
  -7   7 -20 -0.2761  1.9984   2
   9  -7  20 4.39522 2.38298   3
  -9  -7 -20 -0.3977  2.1125   1
  -9   7 -20 2.75920 2.07683   2
  11  -7  20 -0.6811  2.1006   3
 -11  -7 -20 0.91204 2.24333   1
 -11   7 -20 1.00165 2.05073   2
 -13  -7 -20 -3.0383  2.0467   1
  13  -7  20 -3.5564  2.0390   3
 -13   7 -20 2.78231 2.22861   2
  16  -8 -20 -2.2453  2.2808   1
  16   8 -20 1.00988 1.96868   2
  14  -8 -20 2.59620 2.52504   1
  14   8 -20 3.91627 2.32728   2
  12  -8 -20 2.23133 2.42701   1
  12   8 -20 -0.6577  1.9583   2
  10  -8 -20 6.16264 2.65178   1
  10   8 -20 3.26653 2.15553   2
   8  -8 -20 0.12286 2.19341   1
   8   8 -20 2.16109 2.07086   2
  -6  -8  20 0.54660 2.21276   3
   6  -8 -20 6.26272 2.66599   1
   6   8 -20 6.55767 2.38265   2
   4  -8 -20 1.64099 2.27634   1
  -4  -8  20 -0.0817  2.2057   3
   4   8 -20 -0.1235  1.9759   2
  -2  -8  20 5.43719 2.60409   3
   2  -8 -20 3.79112 2.29694   1
   2   8 -20 1.42040 2.28311   2
   0  -8  20 6.10811 2.47359   3
   0  -8 -20 6.86465 2.61271   1
   0   8 -20 3.81221 2.25489   2
  -2  -8 -20 7.76273 2.64141   1
   2  -8  20 8.43390 2.80996   3
  -2   8 -20 7.39780 2.70148   2
   4  -8  20 8.03084 2.78318   3
  -4  -8 -20 10.1415  2.9367   1
  -4   8 -20 12.5629  2.9417   2
   6  -8  20 3.92101 2.62952   3
  -6  -8 -20 5.28355 2.61117   1
  -6   8 -20 1.86269 2.35145   2
  -8  -8 -20 3.18793 2.62970   1
  -8   8 -20 6.86960 2.38442   2
 -10   8 -20 -1.7482  2.0516   2
 -12   8 -20 -0.1253  2.1153   2
  32   0 -21 -1.2011  1.7522   2
  30   0 -21 0.48159 2.01152   2
  28   0 -21 2.01344 2.08873   2
  26   0 -21 2.32683 2.09219   2
  24   0 -21 0.19979 1.90158   2
  22   0 -21 1.79711 1.85642   2
  20   0 -21 0.63917 1.52765   2
  18   0 -21 -0.3111  1.4691   2
  16   0 -21 1.21189 1.47685   2
  14   0 -21 0.31047 1.41855   2
  12   0 -21 0.29778 1.35751   2
  10   0 -21 -2.0119  1.5612   1
  10   0 -21 -0.4830  1.2824   2
   8   0 -21 0.08808 1.59391   1
   8   0 -21 0.09750 1.25416   2
   6   0 -21 -0.7939  1.6273   1
   6   0 -21 -0.4083  1.1971   2
   4   0 -21 -1.8116  1.6118   1
   4   0 -21 -0.9367  1.2285   2
   2   0 -21 1.02240 1.81018   1
   0   0 -21 3.48777 1.90796   1
  -2   0 -21 3.57709 1.98656   1
   2   0  21 2.80555 1.66440   3
   4   0  21 5.97144 1.79085   3
  -4   0 -21 4.21188 1.85221   1
  -6   0 -21 1.40199 1.74885   1
   6   0  21 1.90041 1.59605   3
   8   0  21 1.55939 1.58118   3
  -8   0 -21 0.43107 1.64496   1
  10   0  21 1.86835 1.56955   3
 -10   0 -21 0.68584 1.69873   1
  12   0  21 1.53056 1.73841   3
 -12   0 -21 3.51783 1.91622   1
 -14   0 -21 0.74680 1.95061   1
  14   0  21 2.70499 1.88749   3
  16   0  21 1.04163 1.86219   3
 -16   0 -21 -0.6664  2.0225   1
 -18   0 -21 -1.6259  2.1309   1
  18   0  21 -1.3712  1.8713   3
 -20   0 -21 2.19900 2.33171   1
  20   0  21 1.55563 2.18758   3
  22   0  21 -0.6125  2.2845   3
 -22   0 -21 -3.0852  2.4006   1
  24   0  21 1.64674 2.53384   3
  31  -1 -21 3.20968 2.27544   2
  31   1 -21 7.48247 2.38989   2
  29  -1 -21 5.84748 2.40753   2
  29   1 -21 5.48095 2.29319   2
  27  -1 -21 3.31655 2.19473   2
  27   1 -21 4.84711 2.30151   2
  25  -1 -21 8.31036 2.28778   2
  25   1 -21 8.16129 2.30783   2
  23  -1 -21 2.02545 1.74646   2
  23   1 -21 -0.9695  1.7442   2
  21  -1 -21 1.82697 1.63040   2
  21   1 -21 0.35060 1.47672   2
  19  -1 -21 4.32770 1.79120   2
  19   1 -21 4.20345 1.84526   2
  17  -1 -21 4.15894 1.71781   2
  17   1 -21 4.05942 1.65936   2
  15  -1 -21 3.65979 1.67095   2
  15  -1 -21 1.19838 1.86390   1
  15   1 -21 5.46637 1.65102   2
  13  -1 -21 -3.2172  1.4934   1
  13  -1 -21 -0.4413  1.3860   2
  13   1 -21 1.47804 1.46478   2
  11  -1 -21 17.6391  2.5227   1
  11  -1 -21 18.7862  2.3766   2
  11   1 -21 17.0289  2.3340   2
   9  -1 -21 0.03260 1.73252   1
   9  -1 -21 1.59440 1.38599   2
   9   1 -21 0.47933 1.36070   2
   7  -1 -21 38.9358  2.7594   2
   7  -1 -21 34.4649  2.9791   1
   7   1 -21 29.6959  2.6923   2
   7   1 -21 33.6565  3.0007   1
   5  -1 -21 2.30112 1.87222   1
   5   1 -21 -0.6372  1.3029   2
   5   1 -21 -2.1653  1.6534   1
   3  -1 -21 8.02076 2.07777   1
   3   1 -21 4.19450 1.91570   1
   3   1 -21 6.59089 1.71311   2
  -1  -1  21 3.94114 1.80258   3
   1  -1 -21 2.73885 1.96722   1
   1   1 -21 0.76747 1.74916   1
  -1  -1 -21 1.89066 2.00782   1
   1  -1  21 0.29321 1.64158   3
  -1   1 -21 1.46737 1.83548   1
  -3  -1 -21 5.56824 2.01259   1
   3  -1  21 5.80123 1.87132   3
  -3   1 -21 6.58852 2.00065   1
  -5  -1 -21 1.08061 1.85684   1
   5  -1  21 0.27479 1.55148   3
   5   1  21 0.14865 1.42808   3
  -5   1 -21 1.87802 1.69237   1
   7  -1  21 1.34634 1.67555   3
  -7  -1 -21 0.61366 1.69418   1
   7   1  21 3.31865 1.65303   3
  -7   1 -21 0.76792 1.72205   1
   9  -1  21 3.76311 1.82859   3
  -9  -1 -21 1.28159 1.74956   1
   9   1  21 2.77452 1.61647   3
  -9   1 -21 2.67098 1.81913   1
 -11  -1 -21 0.35158 1.91371   1
  11  -1  21 1.59789 1.78233   3
  11   1  21 1.03896 1.54672   3
 -11   1 -21 1.51485 1.67784   1
 -13  -1 -21 6.22224 2.17110   1
  13  -1  21 8.35597 2.23614   3
  13   1  21 10.2663  2.2358   3
 -13   1 -21 9.96314 2.37712   1
  15  -1  21 1.83099 1.88415   3
 -15  -1 -21 1.20172 2.13359   1
 -15   1 -21 0.48818 1.98852   1
  15   1  21 4.24312 1.91583   3
 -17  -1 -21 -1.3990  2.1164   1
  17  -1  21 2.60109 2.08349   3
 -17   1 -21 2.06165 2.06524   1
  17   1  21 4.15932 2.12204   3
 -19  -1 -21 0.62249 2.31088   1
  19  -1  21 1.72384 2.30643   3
  19   1  21 0.98683 2.11491   3
 -19   1 -21 2.48610 2.36991   1
  21  -1  21 3.37155 2.46464   3
 -21  -1 -21 1.07276 2.40861   1
 -21   1 -21 7.07563 2.70910   1
  21   1  21 2.54357 2.22895   3
  23  -1  21 4.75583 2.67854   3
 -23  -1 -21 3.26729 2.68801   1
 -23   1 -21 3.23255 2.54306   1
  23   1  21 3.14483 2.48882   3
  32  -2 -21 4.60330 2.31489   2
  30  -2 -21 -1.3343  1.9268   2
  30   2 -21 0.95877 2.00552   2
  28  -2 -21 20.4332  3.1938   2
  28   2 -21 23.8540  3.1366   2
  26  -2 -21 -3.8423  1.8128   2
  26   2 -21 2.43138 2.03673   2
  24  -2 -21 12.2495  2.5048   2
  24   2 -21 8.24966 2.27345   2
  22  -2 -21 0.87921 1.84891   2
  22   2 -21 4.89934 1.96633   2
  20  -2 -21 -0.2597  1.8274   1
  20  -2 -21 1.75656 1.53683   2
  20   2 -21 5.10035 1.94527   2
  18  -2 -21 16.1401  2.4327   2
  18  -2 -21 12.6834  2.4813   1
  18   2 -21 13.0196  2.3043   2
  16  -2 -21 0.95248 1.90358   1
  16  -2 -21 -1.3193  1.3729   2
  16   2 -21 2.65774 1.61067   2
  14  -2 -21 1.54603 1.52347   2
  14  -2 -21 1.66830 1.92333   1
  14   2 -21 1.26813 1.48237   2
  12  -2 -21 4.15568 1.65432   2
  12  -2 -21 2.10620 1.90790   1
  12   2 -21 5.17852 1.72956   2
  10  -2 -21 5.50650 1.68138   2
  10  -2 -21 5.72686 1.98526   1
  10   2 -21 4.66882 1.71284   2
   8  -2 -21 37.4712  3.2655   1
   8   2 -21 35.6505  2.9411   2
   6  -2 -21 22.1834  2.8211   1
   6   2 -21 15.6182  2.3145   2
  -4  -2  21 11.0926  2.1587   3
   4  -2 -21 10.4055  2.3671   1
   4   2 -21 8.74789 2.00663   2
   2  -2 -21 22.5895  2.8884   1
  -2  -2  21 22.1113  2.6148   3
   2   2 -21 19.5385  2.4779   2
   2   2 -21 21.4888  2.6694   1
   0  -2 -21 0.07611 1.92378   1
   0  -2  21 2.82260 1.77362   3
   0   2 -21 -0.6542  1.4777   2
   0   2 -21 1.54748 1.77554   1
   2  -2  21 22.1887  2.6947   3
  -2  -2 -21 18.0817  2.7925   1
  -2   2 -21 21.0382  2.5895   1
   4  -2  21 1.08470 1.67934   3
  -4  -2 -21 0.48144 1.74470   1
  -4   2 -21 0.71971 1.66503   1
  -6  -2 -21 11.7045  2.3965   1
   6  -2  21 15.1254  2.3272   3
  -6   2 -21 12.7431  2.2867   1
   8  -2  21 1.26368 1.56102   3
  -8  -2 -21 -1.1691  1.6282   1
  -8   2 -21 1.31890 1.69450   1
  10  -2  21 1.41653 1.66484   3
 -10  -2 -21 1.90726 1.99628   1
 -10   2 -21 1.58049 1.77030   1
  10   2  21 2.51105 1.63583   3
  12  -2  21 -0.2143  1.7900   3
 -12  -2 -21 3.87288 2.06298   1
 -12   2 -21 1.88877 1.86431   1
  12   2  21 3.40571 1.82277   3
 -14  -2 -21 11.1384  2.6321   1
  14  -2  21 15.1077  2.6210   3
  14   2  21 18.3810  2.6558   3
 -14   2 -21 11.8343  2.5928   1
  16  -2  21 4.13616 2.26307   3
 -16  -2 -21 2.18682 2.10838   1
  16   2  21 2.22993 2.07493   3
 -16   2 -21 1.71647 2.15856   1
 -18  -2 -21 2.22787 2.41003   1
  18  -2  21 5.69265 2.46770   3
  18   2  21 5.58503 2.26539   3
 -18   2 -21 1.28884 2.31701   1
 -20  -2 -21 2.64038 2.52808   1
  20  -2  21 1.04499 2.41331   3
 -20   2 -21 4.14570 2.41709   1
  20   2  21 4.91396 2.43026   3
 -22  -2 -21 4.16446 2.57224   1
  22  -2  21 3.25779 2.63491   3
 -22   2 -21 5.71368 2.51971   1
  22   2  21 7.42566 2.59143   3
  24   2  21 6.26519 2.59451   3
  31  -3 -21 8.78159 2.57783   2
  29  -3 -21 1.34761 2.08516   2
  29   3 -21 1.60474 1.95785   2
  27  -3 -21 7.45075 2.45882   2
  27   3 -21 9.13519 2.40421   2
  25  -3 -21 6.04364 2.18451   2
  25   3 -21 4.10482 1.93137   2
  23  -3 -21 19.4803  2.8669   2
  23  -3 -21 13.0112  2.6968   1
  23   3 -21 19.4365  2.8457   2
  21  -3 -21 2.46831 2.20202   1
  21  -3 -21 4.47657 1.94395   2
  21   3 -21 2.80955 1.87912   2
  19  -3 -21 30.1489  3.3613   1
  19  -3 -21 32.5705  3.1256   2
  19   3 -21 30.2705  3.0376   2
  17  -3 -21 2.45796 1.76028   2
  17  -3 -21 0.92008 2.03472   1
  17   3 -21 1.90467 1.59705   2
  15  -3 -21 11.1003  2.1827   2
  15  -3 -21 6.18209 2.22190   1
  15   3 -21 8.32654 1.96136   2
  13  -3 -21 -0.6097  1.4521   2
  13  -3 -21 -2.5788  1.7555   1
  13   3 -21 -0.9187  1.2972   2
  11  -3 -21 11.5606  2.5097   1
  11   3 -21 11.5865  2.1353   2
   9  -3 -21 0.77495 2.03508   1
   9   3 -21 4.76593 1.76340   2
  -7  -3  21 49.7959  3.6027   3
   7  -3 -21 56.7197  3.9862   1
   7   3 -21 52.9990  3.6506   2
  -5  -3  21 0.89142 1.71769   3
   5  -3 -21 2.74735 2.16555   1
   5   3 -21 6.27482 1.99605   2
   3  -3 -21 89.2197  4.9730   1
  -3  -3  21 75.1762  4.5133   3
   3   3 -21 77.1350  4.5183   2
  -1  -3  21 8.72612 2.28420   3
   1  -3 -21 12.0931  2.6590   1
   1   3 -21 5.71615 1.98784   2
  -1  -3 -21 55.4727  4.0319   1
   1  -3  21 58.6262  3.9417   3
  -1   3 -21 57.0737  3.7873   2
  -3  -3 -21 17.6662  2.8557   1
   3  -3  21 19.4545  2.6588   3
  -3   3 -21 16.4180  2.4331   2
  -3   3 -21 16.5119  2.3996   1
   5  -3  21 10.3218  2.1847   3
  -5  -3 -21 7.07794 2.16406   1
  -5   3 -21 6.48727 1.96151   1
  -7  -3 -21 4.90792 2.16795   1
   7  -3  21 7.79707 2.16626   3
  -7   3 -21 7.25539 2.01376   1
  -9  -3 -21 -0.0634  1.6969   1
   9  -3  21 1.52261 1.69464   3
  -9   3 -21 -0.4391  1.6119   1
  11  -3  21 0.21114 1.74832   3
 -11  -3 -21 0.03886 1.92598   1
 -11   3 -21 -1.4681  1.6739   1
  13  -3  21 14.3343  2.6581   3
 -13  -3 -21 10.6511  2.5544   1
 -13   3 -21 13.2873  2.4470   1
  13   3  21 15.7464  2.4262   3
 -15  -3 -21 4.45980 2.33954   1
  15  -3  21 1.05075 2.06522   3
  15   3  21 3.22586 2.04343   3
 -15   3 -21 1.36520 2.10411   1
 -17  -3 -21 4.56239 2.41128   1
  17  -3  21 8.84935 2.71103   3
  17   3  21 11.4847  2.6026   3
 -17   3 -21 9.07138 2.55747   1
  19  -3  21 10.3537  2.9135   3
 -19  -3 -21 9.03418 2.82485   1
  19   3  21 12.4088  2.7790   3
 -19   3 -21 12.4725  2.7119   1
  21  -3  21 0.22675 2.43561   3
 -21  -3 -21 5.02177 2.76632   1
 -21   3 -21 5.83239 2.58025   1
  21   3  21 3.51586 2.52828   3
  23   3  21 9.57129 2.72889   3
  30  -4 -21 -1.0559  1.9489   2
  28  -4 -21 6.69645 2.51927   2
  28   4 -21 9.37098 2.48001   2
  26  -4 -21 12.3558  2.7453   2
  26  -4 -21 12.5186  2.8915   1
  26   4 -21 10.8864  2.3541   2
  24  -4 -21 31.1264  3.5796   1
  24  -4 -21 32.4128  3.7416   2
  24   4 -21 29.0159  3.3901   2
  22  -4 -21 14.6750  2.8134   1
  22  -4 -21 15.8922  2.8255   2
  22   4 -21 9.71523 2.35513   2
  20  -4 -21 57.9316  4.2320   1
  20  -4 -21 57.5042  4.2015   2
  20   4 -21 58.1874  4.1045   2
  18  -4 -21 2.30573 1.76727   2
  18  -4 -21 4.55064 2.28709   1
  18   4 -21 5.08830 2.02707   2
  16  -4 -21 35.9304  3.4182   1
  16  -4 -21 30.1135  2.9743   2
  16   4 -21 25.7789  2.9841   2
  14  -4 -21 -0.5140  1.9120   1
  14   4 -21 3.51881 1.79263   2
  12  -4 -21 24.4472  3.1486   1
  12   4 -21 20.2904  2.7221   2
  10  -4 -21 1.92000 1.95259   1
 -10  -4  21 -0.3405  1.7446   3
  10   4 -21 0.01221 1.59173   2
   8  -4 -21 16.0977  2.8236   1
  -8  -4  21 20.8481  2.7690   3
   8   4 -21 20.6724  2.6958   2
  -6  -4  21 17.4886  2.6913   3
   6  -4 -21 16.8008  2.9569   1
   6   4 -21 21.1416  2.7215   2
  -4  -4  21 0.14330 1.97793   3
   4  -4 -21 6.41328 2.36429   1
   4   4 -21 2.50566 1.83678   2
   2  -4 -21 53.4365  4.0468   1
  -2  -4  21 54.9988  3.9190   3
   2   4 -21 62.0279  4.0279   2
   0  -4  21 0.76585 1.96650   3
   0  -4 -21 2.71813 2.11794   1
   0   4 -21 3.71018 1.95535   2
  -2  -4 -21 62.8507  4.3208   1
   2  -4  21 62.0713  4.2365   3
  -2   4 -21 65.4600  4.2580   2
   4  -4  21 9.48353 2.40076   3
  -4  -4 -21 13.3012  2.6770   1
  -4   4 -21 8.46108 2.15033   2
  -6  -4 -21 22.6232  3.0914   1
   6  -4  21 24.6227  3.0707   3
   8  -4  21 3.40027 2.05934   3
  -8  -4 -21 -1.1175  1.8129   1
  -8   4 -21 0.63740 1.72921   1
  10  -4  21 2.86217 1.91058   3
 -10  -4 -21 5.94214 2.25477   1
 -10   4 -21 2.83022 1.86358   1
  12  -4  21 5.18435 2.35180   3
 -12  -4 -21 4.54585 2.25295   1
 -12   4 -21 5.03470 2.01399   1
  14  -4  21 6.82048 2.40495   3
 -14  -4 -21 8.62599 2.64352   1
 -14   4 -21 10.0869  2.4401   1
  16  -4  21 -0.7994  2.1791   3
 -16  -4 -21 -1.0434  2.3780   1
 -16   4 -21 1.08431 1.98019   1
  18  -4  21 30.2686  3.8306   3
 -18  -4 -21 22.2130  3.5801   1
  18   4  21 37.7562  3.5905   3
 -18   4 -21 28.1215  3.5514   1
 -20  -4 -21 -2.5913  2.2839   1
  20  -4  21 3.33718 2.46865   3
  20   4  21 8.34955 2.51601   3
 -20   4 -21 1.63321 2.26850   1
  22   4  21 14.2830  3.0307   3
 -29   5  21 2.79619 2.65916   1
  27  -5 -21 25.2167  3.5756   2
  25  -5 -21 -1.8241  2.2537   1
  25  -5 -21 1.79104 2.07616   2
  25   5 -21 1.73737 1.98110   2
  23  -5 -21 31.6847  3.7612   2
  23  -5 -21 40.2869  4.1013   1
  23   5 -21 41.5910  3.6322   2
  21  -5 -21 2.72601 2.30766   1
  21  -5 -21 7.34990 2.21446   2
  21   5 -21 3.12418 1.97793   2
  19  -5 -21 47.2004  3.8371   2
  19  -5 -21 49.6724  4.1883   1
  19   5 -21 47.6024  3.8271   2
  17  -5 -21 4.78840 2.36927   1
  17   5 -21 4.60228 1.92209   2
  15  -5 -21 44.3527  3.9257   1
  15   5 -21 44.4681  3.6526   2
  13  -5 -21 2.41044 2.31362   1
  13   5 -21 3.77051 1.93264   2
 -11  -5  21 22.3170  2.9765   3
  11  -5 -21 22.5374  3.1051   1
  11   5 -21 19.8949  2.8573   2
   9  -5 -21 1.75408 2.10479   1
  -9  -5  21 1.40544 1.96995   3
   9   5 -21 1.96147 1.70015   2
   7  -5 -21 48.4383  3.9705   1
  -7  -5  21 42.0920  3.5683   3
   7   5 -21 42.9105  3.4458   2
  -5  -5  21 7.41561 2.36648   3
   5  -5 -21 4.68217 2.31454   1
   5   5 -21 7.56820 2.10610   2
  -3  -5  21 49.2726  3.7640   3
   3  -5 -21 50.5453  4.0791   1
   3   5 -21 42.3723  3.7594   2
  -1  -5  21 11.1179  2.5480   3
   1  -5 -21 13.1364  2.8350   1
   1   5 -21 13.8513  2.6819   2
   1  -5  21 43.6998  3.7584   3
  -1  -5 -21 40.0331  3.6323   1
  -1   5 -21 40.7805  3.6416   2
   3  -5  21 6.99657 2.42826   3
  -3  -5 -21 7.38627 2.38458   1
  -3   5 -21 6.51814 2.23374   2
   5  -5  21 19.1426  2.9269   3
  -5  -5 -21 25.3422  3.3078   1
  -5   5 -21 21.6913  3.0240   2
  -7  -5 -21 3.75555 2.16598   1
   7  -5  21 5.03502 2.11641   3
  -7   5 -21 3.72186 1.90404   2
  -9  -5 -21 5.15957 2.46489   1
   9  -5  21 7.57965 2.36029   3
  11  -5  21 -0.1240  2.0732   3
 -11  -5 -21 -2.5190  2.0180   1
 -13  -5 -21 8.10891 2.72127   1
  13  -5  21 7.90785 2.74962   3
 -13   5 -21 8.04084 2.25414   1
  15  -5  21 1.59802 2.40304   3
 -15  -5 -21 3.10118 2.50606   1
 -15   5 -21 6.40578 2.32783   1
  17  -5  21 20.2187  3.5177   3
 -17  -5 -21 19.9349  3.5630   1
 -17   5 -21 18.2634  3.0503   1
 -19   5 -21 17.1176  2.9677   1
  26  -6 -21 4.76534 2.55097   2
  24  -6 -21 17.4569  3.1298   2
  24  -6 -21 21.6047  3.5037   1
  22  -6 -21 13.0435  2.9839   1
  22  -6 -21 3.32079 2.05311   2
  22   6 -21 9.33265 2.51022   2
  20  -6 -21 12.3078  2.8985   1
  20   6 -21 12.3184  2.4918   2
  18  -6 -21 18.5734  3.2286   1
  18   6 -21 12.3844  2.7293   2
  16  -6 -21 19.9331  3.2388   1
  16   6 -21 15.7995  2.7548   2
  14  -6 -21 21.5682  3.2581   1
  14   6 -21 17.8018  2.8987   2
  12  -6 -21 10.5360  2.8433   1
  12   6 -21 12.1374  2.6003   2
 -10  -6  21 6.27047 2.33545   3
  10  -6 -21 6.62623 2.44802   1
  10   6 -21 7.66539 2.36224   2
   8  -6 -21 26.1470  3.4700   1
  -8  -6  21 26.2755  3.3451   3
   8   6 -21 24.0340  3.1551   2
  -6  -6  21 29.6719  3.5250   3
   6  -6 -21 26.8610  3.5018   1
   6   6 -21 29.2219  3.4658   2
   4  -6 -21 26.9027  3.5223   1
  -4  -6  21 25.8261  3.3631   3
   4   6 -21 25.4267  3.3666   2
   2  -6 -21 50.7540  4.1240   1
  -2  -6  21 46.4693  3.8738   3
   2   6 -21 48.5426  4.0701   2
   0  -6  21 4.52758 2.28114   3
   0  -6 -21 4.28039 2.44072   1
   0   6 -21 2.75426 2.12986   2
   2  -6  21 51.6989  4.1094   3
  -2  -6 -21 43.6514  3.8726   1
  -2   6 -21 44.8645  3.9218   2
  -4  -6 -21 1.80643 2.09704   1
   4  -6  21 2.35712 2.12460   3
  -4   6 -21 2.74698 2.09448   2
   6  -6  21 36.2868  3.8751   3
  -6  -6 -21 31.7539  3.7603   1
  -6   6 -21 28.3421  3.5784   2
   8  -6  21 -1.2258  1.9347   3
  -8  -6 -21 -2.4092  2.1316   1
  -8   6 -21 2.01240 1.92562   2
  10  -6  21 9.97655 2.86596   3
 -10  -6 -21 10.2684  2.7983   1
  12  -6  21 4.87245 2.64783   3
 -12  -6 -21 1.49667 2.40173   1
  14  -6  21 13.4906  3.1660   3
 -14  -6 -21 10.9780  3.1941   1
  19  -7 -21 16.2413  3.2308   1
  17  -7 -21 0.02907 2.33792   1
  17   7 -21 -1.6332  1.8212   2
  15  -7 -21 24.5491  3.5896   1
  15   7 -21 23.3089  3.2634   2
  13  -7 -21 5.35408 2.68933   1
  13   7 -21 -0.2663  1.8363   2
  11  -7 -21 28.5248  3.8070   1
  11   7 -21 28.0393  3.5257   2
   9  -7 -21 4.26764 2.55090   1
   9   7 -21 3.78111 2.24150   2
   7  -7 -21 38.4764  4.1299   1
  -7  -7  21 33.5360  3.8666   3
   7   7 -21 38.2310  4.0979   2
   5  -7 -21 -0.1386  2.1968   1
  -5  -7  21 -0.4333  2.3302   3
   5   7 -21 1.85335 2.19239   2
   3  -7 -21 51.6230  4.3420   1
  -3  -7  21 46.2310  4.0261   3
   3   7 -21 49.9235  4.2907   2
  -1  -7  21 3.69113 2.35037   3
   1  -7 -21 4.44367 2.44057   1
   1   7 -21 3.24999 2.27403   2
   1  -7  21 23.1635  3.4290   3
  -1  -7 -21 21.7249  3.3826   1
  -1   7 -21 25.0497  3.4857   2
   3  -7  21 11.9001  2.7857   3
  -3  -7 -21 8.41334 2.62224   1
  -3   7 -21 9.25906 2.54907   2
   5  -7  21 6.18302 2.57772   3
  -5  -7 -21 5.94944 2.52717   1
  -5   7 -21 3.05303 2.20045   2
   7  -7  21 3.54706 2.41993   3
  -7  -7 -21 6.31863 2.63557   1
  -7   7 -21 10.1984  2.6668   2
  -9  -7 -21 7.51196 2.68464   1
   9  -7  21 1.55366 2.48906   3
  -9   7 -21 6.19712 2.34585   2
 -11   7 -21 0.05401 2.05817   2
  10   8 -21 3.02762 2.18710   2
   8  -8 -21 20.3994  3.4189   1
   8   8 -21 21.1127  3.4028   2
   6  -8 -21 15.8538  3.1899   1
  -6  -8  21 14.6034  3.0696   3
   6   8 -21 9.61708 2.81433   2
  -4  -8  21 26.3454  3.6275   3
   4  -8 -21 21.5979  3.5851   1
   4   8 -21 17.3536  3.3004   2
   2  -8 -21 29.2708  3.8435   1
  -2  -8  21 28.9704  3.8199   3
   2   8 -21 21.5175  3.4795   2
   0  -8  21 3.60508 2.58828   3
   0   8 -21 3.88458 2.46564   2
   2  -8  21 16.9431  3.1421   3
  -2   8 -21 11.0372  2.9221   2
  -4   8 -21 1.02887 2.19591   2
  -6   8 -21 9.18383 2.82342   2
  30   0 -22 22.1844  3.1719   2
  28   0 -22 19.3966  3.1504   2
  26   0 -22 80.4044  4.9407   2
  24   0 -22 68.2115  4.5936   2
  22   0 -22 56.0277  4.1263   2
  20   0 -22 48.7496  3.6884   2
  18   0 -22 1.98429 1.56257   2
  16   0 -22 9.45741 1.92660   2
  14   0 -22 -0.5892  1.2045   2
  12   0 -22 37.1698  3.0788   2
  10   0 -22 3.44709 1.66592   2
  10   0 -22 0.10593 1.98375   1
   8   0 -22 66.8089  3.8588   2
   8   0 -22 62.9707  4.0229   1
   6   0 -22 28.2914  2.5987   2
   6   0 -22 26.7448  3.0337   1
   4   0 -22 80.3876  4.5903   1
   2   0 -22 5.72261 2.12768   1
   0   0 -22 94.1309  4.9508   1
  -2   0 -22 21.6240  2.8761   1
  -4   0 -22 40.0987  3.2969   1
  -6   0 -22 6.20046 2.09934   1
   6   0  22 5.36548 1.84853   3
   8   0  22 19.1539  2.5580   3
  -8   0 -22 19.6532  2.8180   1
 -10   0 -22 0.38293 2.10694   1
  10   0  22 0.56371 1.75334   3
  12   0  22 54.1900  3.9321   3
 -12   0 -22 58.3834  4.2522   1
  14   0  22 4.50228 2.12426   3
 -14   0 -22 0.77800 2.23114   1
  16   0  22 38.2985  3.5444   3
 -16   0 -22 39.9248  3.8639   1
  18   0  22 11.1419  2.6962   3
 -18   0 -22 9.20677 2.89084   1
 -20   0 -22 30.3633  3.8771   1
  20   0  22 36.6966  3.8993   3
  22   0  22 8.28403 2.72328   3
  29  -1 -22 39.7313  3.7038   2
  29   1 -22 44.2851  3.7220   2
  27  -1 -22 7.30901 2.42104   2
  27   1 -22 9.71876 2.62657   2
  25  -1 -22 105.714   5.881   2
  25   1 -22 107.474   5.867   2
  23  -1 -22 6.58495 2.16355   2
  23   1 -22 -0.1664  1.7064   2
  21  -1 -22 52.9462  3.7982   2
  21   1 -22 59.2904  4.0302   2
  19  -1 -22 9.01131 2.17719   2
  19   1 -22 5.82776 2.00118   2
  17  -1 -22 6.19566 1.92404   2
  17   1 -22 6.27443 1.94572   2
  15  -1 -22 4.86845 1.75665   2
  15   1 -22 5.26583 1.69797   2
  13  -1 -22 29.5127  3.0679   2
  13  -1 -22 30.6106  3.1304   1
  13   1 -22 29.3705  2.8135   2
  11  -1 -22 13.2187  2.2512   2
  11  -1 -22 10.3793  2.3845   1
  11   1 -22 12.2785  2.1742   2
   9  -1 -22 71.0319  4.0962   2
   9  -1 -22 77.9585  4.4508   1
   9   1 -22 74.9645  4.2060   2
   7  -1 -22 2.21459 2.08880   1
   7   1 -22 6.44095 1.88786   2
   5  -1 -22 113.735   5.533   1
   5   1 -22 104.754   5.218   1
   5   1 -22 101.148   5.141   2
   3  -1 -22 20.5337  2.8903   1
   3   1 -22 14.3170  2.5387   1
   1  -1 -22 64.6265  4.2326   1
   1   1 -22 63.6398  4.0257   1
  -1  -1 -22 40.5415  3.3819   1
   1  -1  22 35.9142  3.1002   3
  -1   1 -22 41.7885  3.3315   1
  -3  -1 -22 6.73534 2.13156   1
   3  -1  22 6.88839 1.97840   3
  -3   1 -22 11.2564  2.3078   1
  -5  -1 -22 9.20593 2.24974   1
   5  -1  22 11.5922  2.1838   3
  -5   1 -22 13.1371  2.3868   1
   7  -1  22 10.2298  2.1835   3
  -7  -1 -22 4.59749 1.97731   1
  -7   1 -22 7.56119 2.15097   1
   9  -1  22 21.9786  2.8417   3
  -9  -1 -22 19.8080  2.8879   1
  -9   1 -22 20.3315  2.7993   1
   9   1  22 19.3868  2.5680   3
 -11  -1 -22 10.2763  2.5993   1
  11  -1  22 7.45728 2.23489   3
  11   1  22 14.1979  2.3757   3
 -11   1 -22 6.87521 2.22953   1
 -13  -1 -22 24.4813  3.3608   1
  13  -1  22 19.6702  2.8992   3
  13   1  22 19.7710  2.8327   3
 -15  -1 -22 7.56815 2.59646   1
  15  -1  22 14.4256  2.8221   3
 -15   1 -22 12.3187  2.7904   1
  15   1  22 9.00939 2.44392   3
 -17  -1 -22 22.5277  3.3448   1
  17  -1  22 26.0158  3.4115   3
 -17   1 -22 27.8095  3.6023   1
  17   1  22 26.2641  3.3058   3
  19  -1  22 3.18504 2.44028   3
 -19  -1 -22 -1.2196  2.2708   1
  19   1  22 1.84214 2.22795   3
 -19   1 -22 2.13863 2.51157   1
  21  -1  22 26.3467  3.6510   3
  21   1  22 22.5913  3.2282   3
 -21   1 -22 15.4924  3.1659   1
  30  -2 -22 20.9620  3.2461   2
  28  -2 -22 11.0176  2.7134   2
  28   2 -22 10.9192  2.5531   2
  26  -2 -22 30.6335  3.5789   2
  26   2 -22 29.7676  3.4476   2
  24  -2 -22 53.0980  4.1656   2
  24   2 -22 56.3577  4.1007   2
  22  -2 -22 11.0769  2.4403   2
  22   2 -22 8.54741 2.31302   2
  20  -2 -22 34.6525  3.1824   2
  20   2 -22 32.4195  2.9619   2
  18  -2 -22 0.11003 1.85243   1
  18  -2 -22 2.22465 1.67237   2
  18   2 -22 3.28436 1.79522   2
  16  -2 -22 14.3030  2.5422   1
  16  -2 -22 11.9865  2.2936   2
  16   2 -22 13.9694  2.3834   2
  14  -2 -22 5.37627 2.20192   1
  14  -2 -22 8.89167 2.01449   2
  14   2 -22 13.9804  2.3247   2
  12  -2 -22 14.2711  2.5773   1
  12  -2 -22 12.0077  2.2298   2
  12   2 -22 15.8973  2.3215   2
  10  -2 -22 21.7413  2.9046   1
  10   2 -22 23.3732  2.7505   2
   8  -2 -22 25.7610  3.1436   1
   8   2 -22 27.2513  2.9242   2
   6  -2 -22 6.19053 2.27328   1
   6   2 -22 12.7203  2.2694   2
   4  -2 -22 84.1466  4.7884   1
   4   2 -22 71.6766  4.2552   2
  -2  -2  22 3.03701 1.93355   3
   2  -2 -22 4.21982 2.24080   1
   2   2 -22 -0.5426  1.5668   2
   0  -2  22 86.5732  4.6691   3
   0  -2 -22 79.9831  4.7984   1
   0   2 -22 87.3271  4.6367   1
   2  -2  22 2.76682 1.84165   3
  -2  -2 -22 -0.6904  1.7640   1
  -2   2 -22 1.63400 1.81587   1
  -4  -2 -22 31.9711  3.4565   1
   4  -2  22 37.8637  3.2179   3
  -4   2 -22 37.0755  3.1501   1
   6  -2  22 0.95026 1.65828   3
  -6  -2 -22 -0.0098  1.8642   1
  -6   2 -22 2.21871 1.69424   1
  -8  -2 -22 17.3173  2.8424   1
   8  -2  22 22.7704  2.9167   3
  -8   2 -22 20.4078  2.6819   1
 -10  -2 -22 -1.6966  1.8734   1
  10  -2  22 0.00912 1.76221   3
 -10   2 -22 1.24151 1.82861   1
  12  -2  22 16.9918  2.7997   3
 -12  -2 -22 10.6687  2.6379   1
 -12   2 -22 14.7732  2.6645   1
  12   2  22 17.7885  2.5364   3
  14  -2  22 11.6343  2.5698   3
 -14  -2 -22 3.57124 2.29465   1
  14   2  22 10.4022  2.3019   3
 -14   2 -22 5.33146 2.23069   1
  16  -2  22 18.9787  3.1200   3
 -16  -2 -22 14.1652  2.9720   1
 -16   2 -22 15.3615  2.8586   1
  16   2  22 16.5894  2.7877   3
 -18  -2 -22 -0.9609  2.4083   1
  18  -2  22 7.25052 2.73305   3
  18   2  22 8.74087 2.57738   3
 -18   2 -22 5.79860 2.52567   1
  20  -2  22 13.0244  2.9787   3
 -20  -2 -22 17.8813  3.3008   1
 -20   2 -22 18.2880  3.3040   1
  20   2  22 20.5144  3.1883   3
  22   2  22 8.40618 2.53524   3
  29  -3 -22 13.9243  2.9264   2
  27  -3 -22 -2.8193  1.8852   2
  27   3 -22 1.82106 2.09309   2
  25  -3 -22 29.3925  3.6267   2
  25   3 -22 34.2213  3.6343   2
  23  -3 -22 13.0729  2.7060   2
  23   3 -22 9.92537 2.42683   2
  21  -3 -22 13.5448  2.7474   1
  21  -3 -22 16.7946  2.7107   2
  21   3 -22 15.3702  2.5966   2
  19  -3 -22 23.9869  3.2196   1
  19  -3 -22 21.1334  2.8527   2
  19   3 -22 23.9714  2.9453   2
  17  -3 -22 8.68175 2.42205   1
  17  -3 -22 11.8020  2.2975   2
  17   3 -22 17.3786  2.6148   2
  15  -3 -22 0.16519 2.01184   1
  15  -3 -22 -0.4097  1.6364   2
  15   3 -22 -1.7204  1.4720   2
  13  -3 -22 29.2254  3.3051   1
  13   3 -22 27.4965  3.0655   2
  11  -3 -22 -2.2814  1.9128   1
  11   3 -22 0.51953 1.61375   2
   9  -3 -22 34.8660  3.2973   1
   9   3 -22 36.2914  3.1330   2
   7  -3 -22 9.69037 2.53607   1
   7   3 -22 7.99764 2.03855   2
  -5  -3  22 40.4273  3.3606   3
   5  -3 -22 42.4872  3.6853   1
   5   3 -22 32.9475  3.1798   2
   3  -3 -22 40.7688  3.7159   1
  -3  -3  22 43.6516  3.4976   3
   3   3 -22 33.0563  3.1449   2
  -1  -3  22 41.7043  3.4128   3
   1  -3 -22 35.0663  3.4259   1
   1   3 -22 32.4240  3.0929   2
   1  -3  22 28.4180  3.1845   3
  -1  -3 -22 26.9157  3.3251   1
  -1   3 -22 28.2914  2.8330   2
  -3  -3 -22 14.4195  2.7659   1
   3  -3  22 14.3111  2.5799   3
  -5  -3 -22 9.22950 2.45877   1
   5  -3  22 9.02875 2.34172   3
  -5   3 -22 7.75435 2.09154   1
   7  -3  22 9.42771 2.28686   3
  -7  -3 -22 9.86562 2.53001   1
  -7   3 -22 10.9547  2.2134   1
   9  -3  22 0.45370 1.81906   3
  -9  -3 -22 1.61387 2.00966   1
  -9   3 -22 2.34121 1.88815   1
 -11  -3 -22 -0.5003  1.9464   1
  11  -3  22 -0.9365  1.9399   3
 -11   3 -22 0.46863 1.80475   1
  13  -3  22 9.84736 2.57761   3
 -13  -3 -22 8.70831 2.53554   1
 -13   3 -22 6.07496 2.34637   1
 -15  -3 -22 2.25092 2.27295   1
  15  -3  22 2.45829 2.35252   3
 -15   3 -22 2.97788 2.19543   1
 -17  -3 -22 21.2652  3.5447   1
  17  -3  22 21.9088  3.4794   3
 -17   3 -22 23.9159  3.3143   1
  17   3  22 24.2962  3.1030   3
  19  -3  22 2.65681 2.60798   3
 -19   3 -22 2.72361 2.53309   1
  19   3  22 5.94371 2.35866   3
  21   3  22 15.1383  2.9085   3
  28  -4 -22 4.03719 2.34579   2
  26  -4 -22 13.4744  2.8556   2
  26   4 -22 12.8007  2.6884   2
  24  -4 -22 13.2535  2.9898   1
  24  -4 -22 15.5028  2.9265   2
  24   4 -22 16.5911  2.7476   2
  22  -4 -22 0.09972 2.27555   1
  22  -4 -22 2.72941 2.13415   2
  22   4 -22 0.33256 1.78918   2
  20  -4 -22 12.0402  2.5843   2
  20  -4 -22 8.53384 2.73215   1
  20   4 -22 13.7692  2.5955   2
  18  -4 -22 2.42657 1.81626   2
  18  -4 -22 -2.0666  2.1231   1
  18   4 -22 -0.4933  1.7592   2
  16  -4 -22 5.46870 2.47132   1
  16   4 -22 7.11742 2.16853   2
  14  -4 -22 7.23922 2.45545   1
  14   4 -22 6.60395 1.96170   2
  12  -4 -22 10.4256  2.6301   1
  12   4 -22 8.46185 2.19953   2
  10  -4 -22 10.9816  2.5284   1
  10   4 -22 6.27596 2.07097   2
  -8  -4  22 31.5336  3.2935   3
   8  -4 -22 29.8401  3.5161   1
   8   4 -22 29.2503  3.3031   2
   6  -4 -22 -0.3951  1.9248   1
  -6  -4  22 -2.2981  1.7750   3
   6   4 -22 0.95057 1.76657   2
  -4  -4  22 25.0697  2.9968   3
   4  -4 -22 24.6357  3.2173   1
   4   4 -22 19.8263  2.7698   2
   2  -4 -22 0.60196 2.17493   1
  -2  -4  22 3.26638 2.04548   3
   2   4 -22 1.77381 1.83008   2
   0  -4 -22 11.7500  2.8038   1
   0  -4  22 16.8789  2.7492   3
   0   4 -22 11.7390  2.4319   2
   2  -4  22 2.12551 2.02250   3
  -2  -4 -22 3.39817 2.24773   1
  -2   4 -22 3.09292 1.90043   2
   4  -4  22 12.6573  2.6117   3
  -4  -4 -22 13.3727  2.7048   1
  -6  -4 -22 1.44428 2.08281   1
   6  -4  22 0.74205 1.84252   3
  -8  -4 -22 1.86405 2.20036   1
   8  -4  22 3.64433 2.06626   3
  10  -4  22 -2.1311  1.6786   3
 -10  -4 -22 -2.0351  1.7960   1
 -10   4 -22 1.53623 1.85122   1
  12  -4  22 3.32927 2.24686   3
 -12  -4 -22 -0.0531  2.0956   1
 -12   4 -22 2.56672 2.01687   1
  14  -4  22 0.10919 2.23547   3
 -14  -4 -22 -1.9020  1.9774   1
 -14   4 -22 1.04167 1.99225   1
  16  -4  22 13.7111  3.2458   3
 -16  -4 -22 11.1115  2.9858   1
 -16   4 -22 17.9901  3.0596   1
 -18   4 -22 1.81798 2.37643   1
  27  -5 -22 2.14676 2.13291   2
  25  -5 -22 8.05179 2.55521   2
  25  -5 -22 5.64258 2.77007   1
  23  -5 -22 -0.2270  1.8651   2
  23  -5 -22 -1.1871  2.1267   1
  23   5 -22 2.72422 2.11728   2
  21  -5 -22 8.94942 2.43109   2
  21  -5 -22 11.8366  2.9866   1
  21   5 -22 6.15505 2.17406   2
  19  -5 -22 0.79055 2.22392   1
  19   5 -22 0.99078 1.92676   2
  17  -5 -22 2.70559 2.40898   1
  17   5 -22 6.55045 2.15196   2
  15  -5 -22 -2.0462  2.1052   1
  15   5 -22 2.68439 1.89156   2
  13  -5 -22 3.18374 2.38661   1
  13   5 -22 3.86234 1.99322   2
  11  -5 -22 1.14187 2.11232   1
  11   5 -22 0.02367 1.75172   2
   9  -5 -22 8.52815 2.57898   1
  -9  -5  22 12.2919  2.5392   3
   9   5 -22 10.9245  2.4388   2
  -7  -5  22 1.54945 2.02182   3
   7  -5 -22 0.39277 2.04359   1
   7   5 -22 -2.3439  1.6965   2
   5  -5 -22 10.2500  2.7230   1
  -5  -5  22 10.7238  2.4672   3
   5   5 -22 9.26013 2.31853   2
   3  -5 -22 2.50711 2.32255   1
  -3  -5  22 1.64313 2.02079   3
   3   5 -22 1.71796 1.89620   2
  -1  -5  22 3.12157 2.14642   3
   1  -5 -22 5.26785 2.45564   1
   1   5 -22 0.85657 1.87168   2
   1  -5  22 4.09330 2.14808   3
  -1  -5 -22 5.38180 2.27736   1
  -1   5 -22 3.63034 2.09774   2
   3  -5  22 -1.1616  1.8000   3
  -3  -5 -22 1.95321 2.22442   1
  -3   5 -22 4.17216 2.03357   2
  -5  -5 -22 7.10351 2.43081   1
   5  -5  22 7.79956 2.28661   3
  -5   5 -22 5.32137 2.12044   2
   7  -5  22 0.06583 2.02714   3
  -7  -5 -22 4.95796 2.31494   1
   9  -5  22 -0.4414  1.9573   3
  -9  -5 -22 -3.5660  2.0570   1
  11  -5  22 -3.2025  1.9790   3
 -11  -5 -22 -0.9717  2.0796   1
 -13  -5 -22 -3.0942  2.2874   1
  13  -5  22 -2.4012  2.2680   3
  15  -5  22 5.61706 2.66170   3
 -17   5 -22 7.12251 2.60827   1
  22  -6 -22 -1.9913  2.1697   1
  20  -6 -22 0.06516 2.38834   1
  20   6 -22 0.96638 1.98704   2
  18  -6 -22 0.32787 2.34724   1
  18   6 -22 0.57922 1.82495   2
  16  -6 -22 2.63547 2.41041   1
  16   6 -22 1.54590 2.00329   2
  14  -6 -22 -1.7043  2.0444   1
  14   6 -22 2.51457 2.11926   2
  12  -6 -22 -2.9405  2.1391   1
  12   6 -22 -1.1983  1.8802   2
  10  -6 -22 1.66587 2.32148   1
 -10  -6  22 0.07205 2.20060   3
  10   6 -22 3.16152 2.14970   2
   8  -6 -22 4.15085 2.51956   1
  -8  -6  22 7.79043 2.49575   3
   8   6 -22 2.98839 2.17753   2
  -6  -6  22 9.72139 2.56344   3
   6  -6 -22 12.0346  2.8433   1
   6   6 -22 7.53473 2.47321   2
   4  -6 -22 12.5478  2.9147   1
  -4  -6  22 10.4379  2.7157   3
   4   6 -22 5.28889 2.39360   2
  -2  -6  22 2.39963 2.10061   3
   2  -6 -22 -0.4868  1.9747   1
   2   6 -22 1.32196 2.02222   2
   0  -6  22 2.93587 2.26653   3
   0  -6 -22 2.89983 2.22563   1
   0   6 -22 2.19316 2.10290   2
  -2  -6 -22 3.20819 2.24310   1
   2  -6  22 10.3688  2.5941   3
  -2   6 -22 6.50897 2.25704   2
   4  -6  22 3.47276 2.26477   3
  -4  -6 -22 -1.4581  1.9936   1
  -4   6 -22 1.98186 2.01579   2
   6  -6  22 3.42170 2.37364   3
  -6  -6 -22 2.76006 2.39156   1
  -6   6 -22 5.16971 2.22356   2
   8  -6  22 2.49683 2.29374   3
  -8  -6 -22 0.76039 2.26212   1
  10  -6  22 -1.0882  2.0951   3
 -10  -6 -22 -2.6604  2.0796   1
  15  -7 -22 -0.9878  2.3082   1
  13  -7 -22 0.84638 2.35783   1
  13   7 -22 2.87374 2.20632   2
  11  -7 -22 2.51632 2.62490   1
  11   7 -22 3.31609 2.31956   2
   9  -7 -22 5.76713 2.70343   1
   9   7 -22 0.90948 1.89599   2
   7  -7 -22 3.90536 2.51277   1
  -7  -7  22 -0.4799  2.2531   3
   7   7 -22 1.10862 2.13726   2
   5  -7 -22 4.59167 2.57662   1
  -5  -7  22 6.76199 2.57486   3
   5   7 -22 3.23181 2.39465   2
   3  -7 -22 8.34467 2.61201   1
  -3  -7  22 4.15236 2.35674   3
   3   7 -22 0.00356 1.99307   2
   1  -7 -22 5.93408 2.56939   1
  -1  -7  22 5.43333 2.40061   3
   1   7 -22 5.32589 2.43542   2
  -1  -7 -22 1.15799 2.28888   1
   1  -7  22 1.37471 2.14041   3
  -1   7 -22 2.07467 2.20990   2
   3  -7  22 5.68467 2.45154   3
  -3  -7 -22 1.65802 2.31633   1
  -3   7 -22 2.09342 2.04769   2
   5  -7  22 0.47563 2.07197   3
  -5   7 -22 -0.5805  1.8077   2
  -7   7 -22 0.69806 1.93589   2
  28   0 -23 2.43056 2.15893   2
  26   0 -23 0.94620 2.02428   2
  24   0 -23 2.73507 2.12587   2
  22   0 -23 2.53132 1.95933   2
  20   0 -23 -0.7428  1.6567   2
  18   0 -23 -0.1770  1.5741   2
  16   0 -23 -0.1573  1.5117   2
  14   0 -23 -0.0678  1.4881   2
  12   0 -23 -3.2179  1.3378   2
  10   0 -23 -0.5959  1.5045   2
   8   0 -23 1.35772 1.49626   2
   8   0 -23 1.54985 1.91353   1
   6   0 -23 2.54051 1.93232   1
   4   0 -23 0.21883 1.85403   1
   2   0 -23 0.98105 1.91437   1
   0   0 -23 7.47278 2.14122   1
  -2   0 -23 2.19955 1.88512   1
  -4   0 -23 1.81061 1.93973   1
  -6   0 -23 -0.2851  1.7430   1
   8   0  23 2.59802 1.85837   3
  -8   0 -23 -0.7671  1.8691   1
  10   0  23 0.07877 1.89919   3
 -10   0 -23 1.02719 2.24011   1
 -12   0 -23 3.70719 2.30716   1
  12   0  23 1.47584 2.04996   3
  14   0  23 1.06201 1.99676   3
 -14   0 -23 0.23158 2.27109   1
  16   0  23 -0.4551  2.2334   3
 -16   0 -23 0.85398 2.37028   1
 -18   0 -23 -0.3965  2.3212   1
  18   0  23 2.46841 2.31264   3
  20   0  23 2.94997 2.40312   3
  27  -1 -23 9.86211 2.63601   2
  27   1 -23 7.76879 2.51085   2
  25  -1 -23 0.60545 1.97792   2
  25   1 -23 1.35420 1.84715   2
  23  -1 -23 4.91224 2.19702   2
  23   1 -23 7.99079 2.29233   2
  21  -1 -23 1.26244 1.82826   2
  21   1 -23 -0.1034  1.5058   2
  19  -1 -23 0.02525 1.69299   2
  19   1 -23 0.50415 1.77242   2
  17  -1 -23 -0.6683  1.5078   2
  17   1 -23 -1.9385  1.4944   2
  15  -1 -23 -1.2960  1.4819   2
  15   1 -23 -0.1555  1.3455   2
  13  -1 -23 6.53313 2.01156   2
  13   1 -23 7.49275 2.01167   2
  11  -1 -23 1.83840 1.94143   1
  11  -1 -23 0.59914 1.57309   2
  11   1 -23 -0.7620  1.4667   2
   9  -1 -23 9.31001 2.30755   1
   9   1 -23 2.54327 1.71212   2
   7  -1 -23 13.4382  2.4963   1
   7   1 -23 11.1588  2.1930   2
   5  -1 -23 15.2293  2.6877   1
   3  -1 -23 3.62006 2.01256   1
   3   1 -23 1.78187 1.91148   1
   1  -1 -23 4.90429 2.11479   1
   1   1 -23 7.18584 2.13264   1
  -1  -1 -23 1.05257 1.87785   1
  -1   1 -23 -0.5305  1.7706   1
  -3  -1 -23 3.57266 2.11889   1
  -3   1 -23 1.33057 1.86751   1
  -5  -1 -23 -0.5968  1.8883   1
   5  -1  23 0.26519 1.68172   3
  -5   1 -23 1.57863 1.93060   1
  -7  -1 -23 0.20474 1.98945   1
   7  -1  23 2.95064 1.90523   3
  -7   1 -23 0.56607 1.80756   1
   9  -1  23 2.24880 1.92737   3
  -9  -1 -23 2.03527 2.16267   1
  -9   1 -23 3.98143 2.29559   1
  11  -1  23 5.81249 2.32049   3
 -11  -1 -23 1.70810 2.16988   1
 -11   1 -23 2.81086 2.12695   1
  11   1  23 6.10927 2.05862   3
  13  -1  23 1.18096 2.19980   3
 -13  -1 -23 2.54928 2.38460   1
 -13   1 -23 5.24439 2.38814   1
  13   1  23 7.42638 2.27599   3
 -15  -1 -23 2.24572 2.55805   1
  15  -1  23 2.88544 2.23971   3
  15   1  23 5.15105 2.34628   3
 -15   1 -23 0.50753 2.44019   1
  17  -1  23 -0.2735  2.2209   3
 -17  -1 -23 -2.8995  2.1774   1
  17   1  23 3.62672 2.40264   3
 -17   1 -23 1.15451 2.47118   1
  19  -1  23 5.94332 2.55701   3
  19   1  23 4.48730 2.48620   3
  28  -2 -23 3.12196 2.30281   2
  26  -2 -23 18.1906  3.1049   2
  26   2 -23 16.5739  2.8298   2
  24  -2 -23 2.83081 2.11599   2
  24   2 -23 1.27651 2.03048   2
  22  -2 -23 4.12572 2.21046   2
  22   2 -23 8.72561 2.31758   2
  20  -2 -23 1.10016 1.74942   2
  20   2 -23 0.78371 1.76384   2
  18  -2 -23 0.62544 1.61294   2
  18   2 -23 0.40249 1.63005   2
  16  -2 -23 0.10301 1.55947   2
  16  -2 -23 -3.4985  1.7862   1
  16   2 -23 -0.1288  1.6604   2
  14  -2 -23 -1.5954  1.8999   1
  14  -2 -23 2.25387 1.71679   2
  14   2 -23 2.18755 1.69617   2
  12  -2 -23 -0.0411  2.0026   1
  12   2 -23 1.33659 1.62548   2
  10  -2 -23 11.5370  2.5604   1
  10   2 -23 6.58906 2.00479   2
   8  -2 -23 2.08182 1.98480   1
   8   2 -23 0.48724 1.57582   2
   6  -2 -23 45.7051  3.7121   1
   6   2 -23 39.9833  3.2463   2
   4  -2 -23 8.24005 2.41611   1
   4   2 -23 1.84912 1.63662   2
   2  -2 -23 25.2740  3.1509   1
   0  -2 -23 3.94515 2.11263   1
   2  -2  23 2.06012 1.76242   3
  -2  -2 -23 0.97851 1.93165   1
  -2   2 -23 1.89724 1.91295   1
  -4  -2 -23 0.84015 1.96054   1
   4  -2  23 0.65247 1.75174   3
  -4   2 -23 0.81860 1.78406   1
   6  -2  23 0.20759 1.82144   3
  -6  -2 -23 -0.8115  2.1051   1
  -6   2 -23 0.61957 1.84321   1
   8  -2  23 -2.5472  1.8534   3
  -8  -2 -23 -0.1676  2.2238   1
  -8   2 -23 2.68061 1.94087   1
 -10  -2 -23 6.63897 2.52494   1
  10  -2  23 6.59628 2.27879   3
 -10   2 -23 4.40602 2.22846   1
 -12  -2 -23 -3.4429  1.9369   1
  12  -2  23 -0.6899  2.1180   3
 -12   2 -23 -0.8084  1.9204   1
 -14  -2 -23 2.74041 2.42314   1
  14  -2  23 7.52259 2.47627   3
 -14   2 -23 5.45793 2.54782   1
 -16  -2 -23 -0.5327  2.2992   1
  16  -2  23 4.54646 2.51320   3
 -16   2 -23 5.99658 2.54837   1
  16   2  23 8.63815 2.50628   3
  18  -2  23 4.09263 2.60684   3
 -18   2 -23 3.01006 2.48840   1
  18   2  23 8.08334 2.50135   3
  20   2  23 6.39745 2.46661   3
  27  -3 -23 7.98798 2.54804   2
  25  -3 -23 6.41361 2.36799   2
  25   3 -23 4.58437 2.13701   2
  23  -3 -23 3.35796 2.02843   2
  23   3 -23 4.25190 2.01466   2
  21  -3 -23 3.40454 1.95877   2
  21   3 -23 1.23171 1.94458   2
  19  -3 -23 3.83472 2.34251   1
  19  -3 -23 5.57997 2.06523   2
  19   3 -23 2.48619 1.94856   2
  17  -3 -23 8.72348 2.52080   1
  17  -3 -23 8.21628 2.17033   2
  17   3 -23 8.92569 2.31367   2
  15  -3 -23 7.54311 2.42712   1
  15   3 -23 9.45680 2.22678   2
  13  -3 -23 3.79800 2.18058   1
  13   3 -23 5.00263 1.87977   2
  11  -3 -23 11.6780  2.6926   1
  11   3 -23 15.4998  2.4856   2
   9  -3 -23 8.87126 2.43969   1
   9   3 -23 10.1391  2.1881   2
   7  -3 -23 8.00021 2.51605   1
   7   3 -23 7.04475 2.07046   2
   5  -3 -23 38.2114  3.6287   1
   5   3 -23 35.2215  3.2031   2
   3  -3 -23 6.78121 2.31438   1
   3   3 -23 4.35331 1.99422   2
  -1  -3  23 24.0576  2.9607   3
   1  -3 -23 22.5400  3.1557   1
   1   3 -23 21.9307  2.8299   2
   1  -3  23 3.23722 2.02579   3
  -1  -3 -23 4.22395 2.19947   1
   3  -3  23 13.4001  2.5742   3
  -3  -3 -23 13.0747  2.8130   1
   5  -3  23 -1.4654  1.8330   3
  -5  -3 -23 -0.4891  2.0072   1
   7  -3  23 9.39707 2.47051   3
  -7  -3 -23 8.32335 2.55336   1
  -7   3 -23 9.99429 2.28093   1
   9  -3  23 -2.3350  1.9117   3
  -9  -3 -23 0.92002 2.25053   1
  -9   3 -23 0.69608 1.90288   1
  11  -3  23 0.37961 2.11085   3
 -11  -3 -23 2.11227 2.34363   1
 -11   3 -23 1.55520 1.94184   1
 -13  -3 -23 -1.5040  2.3489   1
  13  -3  23 -2.7448  1.9039   3
 -13   3 -23 -0.7445  2.1495   1
  15  -3  23 6.12076 2.72174   3
 -15  -3 -23 12.5008  3.0086   1
 -15   3 -23 13.8937  2.9548   1
  17  -3  23 2.68790 2.51812   3
 -17   3 -23 0.94692 2.44976   1
  26  -4 -23 33.6447  3.9264   2
  24  -4 -23 0.72225 1.92597   2
  24   4 -23 0.15181 1.81794   2
  22  -4 -23 29.7615  3.5910   2
  22  -4 -23 31.3244  3.6977   1
  22   4 -23 23.9777  3.1651   2
  20  -4 -23 2.88848 2.31591   1
  20  -4 -23 2.13126 2.05067   2
  20   4 -23 0.93342 1.93884   2
  18  -4 -23 18.3380  3.0947   1
  18   4 -23 18.1483  2.8635   2
  16  -4 -23 6.25572 2.57246   1
  16   4 -23 5.52013 2.14353   2
  14  -4 -23 18.3486  3.0262   1
  14   4 -23 13.8918  2.4908   2
  12  -4 -23 7.82241 2.61284   1
  12   4 -23 11.9487  2.4743   2
  10  -4 -23 28.2690  3.4537   1
  10   4 -23 26.6999  3.2521   2
   8  -4 -23 1.07554 2.13099   1
   8   4 -23 -0.1150  1.7246   2
   6  -4 -23 36.2060  3.8203   1
   6   4 -23 35.0434  3.2824   2
   4  -4 -23 20.1036  3.0318   1
  -4  -4  23 19.9897  2.8506   3
   4   4 -23 19.6372  2.7946   2
  -2  -4  23 16.9098  2.7634   3
   2  -4 -23 9.09279 2.63204   1
   2   4 -23 11.3435  2.3794   2
   0  -4 -23 9.07242 2.55129   1
   0  -4  23 10.0883  2.4807   3
   0   4 -23 7.77148 2.19498   2
  -2  -4 -23 10.4141  2.6593   1
   2  -4  23 8.37390 2.38003   3
  -4  -4 -23 0.51736 2.08487   1
   4  -4  23 2.65380 2.11017   3
   6  -4  23 11.6482  2.5958   3
  -6  -4 -23 15.6711  2.9775   1
   8  -4  23 -1.5431  1.9384   3
  -8  -4 -23 -0.9947  2.1404   1
 -10  -4 -23 8.26722 2.64353   1
  10  -4  23 9.16859 2.62838   3
  12  -4  23 0.36367 2.31263   3
 -12  -4 -23 -2.0373  2.1581   1
  14  -4  23 6.15239 2.73236   3
 -14   4 -23 9.43144 2.71601   1
 -16   4 -23 10.9650  2.9075   1
  25  -5 -23 11.2361  2.7422   2
  25  -5 -23 4.95528 2.66228   1
  23  -5 -23 11.5886  2.9751   1
  21  -5 -23 22.4055  3.4551   1
  19  -5 -23 4.99915 2.56587   1
  19   5 -23 8.46972 2.27543   2
  17  -5 -23 6.61024 2.69701   1
  17   5 -23 3.59816 1.96060   2
  15  -5 -23 13.1104  3.0284   1
  15   5 -23 17.0126  2.7232   2
  13  -5 -23 7.16299 2.66304   1
  13   5 -23 3.08504 2.02840   2
  11  -5 -23 26.4934  3.5498   1
  11   5 -23 28.2939  3.3904   2
   9  -5 -23 22.9423  3.4246   1
   9   5 -23 22.5468  3.0660   2
  -7  -5  23 17.5578  2.8523   3
   7  -5 -23 15.4342  3.0644   1
   7   5 -23 16.7311  2.7545   2
   5  -5 -23 46.2646  4.0718   1
  -5  -5  23 39.8053  3.6350   3
   5   5 -23 36.4445  3.5168   2
   3  -5 -23 1.11336 2.31241   1
  -3  -5  23 1.80747 2.14404   3
   3   5 -23 0.82717 1.85670   2
   1  -5 -23 25.3722  3.3724   1
  -1  -5  23 27.3743  3.3386   3
   1   5 -23 27.6299  3.3502   2
   1  -5  23 1.00638 2.15095   3
  -1  -5 -23 -0.5043  2.0160   1
  -1   5 -23 0.31601 1.98020   2
   3  -5  23 9.33330 2.47609   3
  -3  -5 -23 11.1463  2.7726   1
  -3   5 -23 9.68996 2.36039   2
   5  -5  23 0.92460 2.16298   3
  -5  -5 -23 -1.1059  2.0212   1
   7  -5  23 -0.2660  2.1657   3
  -7  -5 -23 3.37604 2.46450   1
   9  -5  23 6.00466 2.39651   3
  -9  -5 -23 2.97618 2.47137   1
  11  -5  23 10.3839  2.8364   3
  18  -6 -23 12.2618  2.9995   1
  16  -6 -23 -2.5423  2.0822   1
  16   6 -23 -1.3487  1.9458   2
  14  -6 -23 8.35707 2.71664   1
  14   6 -23 5.13610 2.29945   2
  12  -6 -23 2.15498 2.45942   1
  12   6 -23 -1.4584  1.9210   2
  10  -6 -23 34.5534  4.0283   1
  10   6 -23 32.4952  3.7436   2
   8  -6 -23 1.46336 2.34118   1
  -8  -6  23 2.16014 2.17077   3
   8   6 -23 2.06038 2.00793   2
  -6  -6  23 43.8255  3.8897   3
   6  -6 -23 48.6676  4.1465   1
   6   6 -23 41.0059  3.8924   2
   4  -6 -23 4.17196 2.50356   1
  -4  -6  23 6.13844 2.47036   3
   4   6 -23 6.94209 2.41623   2
   2  -6 -23 19.3298  3.3521   1
  -2  -6  23 20.6735  3.2063   3
   2   6 -23 20.5332  3.1662   2
   0  -6 -23 13.3275  2.9065   1
   0  -6  23 9.61415 2.66949   3
   0   6 -23 10.1651  2.6402   2
  -2  -6 -23 11.3637  2.8694   1
   2  -6  23 10.1549  2.7702   3
  -2   6 -23 6.54197 2.33913   2
   4  -6  23 7.09513 2.48667   3
  -4  -6 -23 5.73996 2.58517   1
  -4   6 -23 4.38571 2.30104   2
   6  -6  23 3.51894 2.38992   3
  -7  -7  23 23.2757  3.5002   3
   7   7 -23 17.9750  3.2259   2
  -5  -7  23 36.1145  3.9990   3
   5   7 -23 27.0481  3.6705   2
  -3  -7  23 11.3799  2.9410   3
   3   7 -23 4.17222 2.40828   2
  -1  -7  23 13.5005  2.9467   3
   1   7 -23 15.2366  3.1368   2
   1  -7  23 3.59579 2.44520   3
  -1   7 -23 1.07659 2.07954   2
  -3   7 -23 4.29373 2.34629   2
  -5   7 -23 -0.8518  1.9416   2
  26   0 -24 0.50411 2.02274   2
  24   0 -24 47.8137  4.0363   2
  22   0 -24 2.00498 1.97074   2
  20   0 -24 27.5331  3.2880   2
  18   0 -24 -3.4237  1.5347   2
  16   0 -24 12.8802  2.4429   2
  14   0 -24 -0.8964  1.5971   2
  12   0 -24 34.6584  3.1613   2
   6   0 -24 59.3316  4.1106   1
   4   0 -24 35.2094  3.3651   1
   2   0 -24 24.6817  3.0972   1
   0   0 -24 0.63402 1.87164   1
  -2   0 -24 2.21202 2.00217   1
  -4   0 -24 -1.4365  1.9266   1
  -6   0 -24 22.7298  3.0792   1
  -8   0 -24 10.9883  2.7119   1
 -10   0 -24 25.6344  3.4656   1
  12   0  24 10.5187  2.6016   3
 -12   0 -24 5.12451 2.64764   1
  14   0  24 32.2719  3.6612   3
 -14   0 -24 33.9398  3.9406   1
 -16   0 -24 2.60067 2.67477   1
  16   0  24 7.30700 2.60059   3
  18   0  24 17.7127  3.0336   3
  25  -1 -24 17.6380  2.9924   2
  25   1 -24 11.3318  2.7217   2
  23  -1 -24 17.1860  2.9273   2
  23   1 -24 20.4161  2.9231   2
  21  -1 -24 2.22837 2.01125   2
  21   1 -24 2.45657 1.98418   2
  19  -1 -24 9.18045 2.31008   2
  19   1 -24 11.1475  2.4344   2
  17  -1 -24 9.07172 2.30388   2
  17   1 -24 8.61511 2.24553   2
  15  -1 -24 16.5055  2.6442   2
  15   1 -24 18.5216  2.7163   2
  13  -1 -24 19.7574  2.7700   2
  13   1 -24 18.2988  2.5849   2
  11   1 -24 54.0721  3.7618   2
   9  -1 -24 9.94996 2.54049   1
   9   1 -24 8.65337 2.14799   2
   7  -1 -24 93.2049  5.2282   1
   5  -1 -24 6.49044 2.36303   1
   3  -1 -24 45.7312  3.7502   1
   1  -1 -24 1.04130 2.04440   1
   1   1 -24 2.87725 1.94778   1
  -1  -1 -24 7.91899 2.37849   1
  -1   1 -24 7.59286 2.19841   1
  -3  -1 -24 -0.4574  2.0416   1
  -3   1 -24 -2.3228  1.7080   1
  -5  -1 -24 16.1523  2.8804   1
  -5   1 -24 18.8303  2.7469   1
  -7  -1 -24 -0.2109  2.0923   1
   7  -1  24 3.43515 2.03078   3
  -7   1 -24 0.73950 2.09252   1
  -9  -1 -24 37.2397  4.0066   1
   9  -1  24 42.5516  3.6426   3
  -9   1 -24 34.7371  3.7630   1
  11  -1  24 3.34926 2.25696   3
 -11  -1 -24 7.09739 2.65397   1
 -11   1 -24 2.93412 2.45507   1
  13  -1  24 23.8643  3.4175   3
 -13  -1 -24 27.3253  3.7245   1
 -13   1 -24 26.4789  3.5752   1
  15  -1  24 10.9877  2.7997   3
 -15  -1 -24 5.69489 2.78944   1
 -15   1 -24 6.26166 2.63911   1
  15   1  24 11.3569  2.7601   3
  17  -1  24 9.33197 2.78429   3
  17   1  24 14.6466  2.7763   3
  26  -2 -24 1.48412 2.14027   2
  24  -2 -24 16.0538  2.8893   2
  24   2 -24 15.6009  2.8482   2
  22  -2 -24 7.11300 2.35336   2
  22   2 -24 8.89204 2.46203   2
  20  -2 -24 10.4301  2.5464   2
  20   2 -24 7.37378 2.23227   2
  18  -2 -24 -0.8625  1.5952   2
  18   2 -24 -1.8786  1.6260   2
  16  -2 -24 25.6307  3.0160   2
  16   2 -24 24.7912  3.0395   2
  14  -2 -24 1.96333 2.16476   1
  14   2 -24 1.41841 1.83939   2
  12  -2 -24 63.6676  4.4139   1
  12   2 -24 65.5726  4.2077   2
  10  -2 -24 5.68575 2.43288   1
  10   2 -24 4.49943 2.00514   2
   8  -2 -24 49.1140  3.9418   1
   8   2 -24 47.7257  3.5491   2
   6  -2 -24 26.7791  3.3379   1
   6   2 -24 28.2888  3.0562   2
   4  -2 -24 26.4404  3.2536   1
   2  -2 -24 24.7858  3.2853   1
   0  -2 -24 4.79056 2.30954   1
  -2  -2 -24 1.66153 2.20717   1
   4  -2  24 15.7673  2.6254   3
  -4  -2 -24 13.1533  2.7298   1
  -4   2 -24 13.5316  2.5099   1
   6  -2  24 0.33190 2.05294   3
  -6  -2 -24 4.51489 2.36249   1
  -6   2 -24 4.45101 2.19339   1
  -8  -2 -24 18.7052  3.1927   1
   8  -2  24 16.0520  2.9254   3
  -8   2 -24 17.6678  2.8239   1
  10  -2  24 30.2706  3.5380   3
 -10  -2 -24 26.3820  3.6595   1
 -10   2 -24 28.0218  3.4502   1
 -12  -2 -24 2.26371 2.49055   1
  12  -2  24 5.98468 2.44839   3
 -12   2 -24 3.51405 2.45519   1
  14  -2  24 20.5958  3.2500   3
 -14  -2 -24 21.4321  3.5490   1
 -14   2 -24 20.3672  3.3203   1
  16  -2  24 0.66186 2.11082   3
 -16   2 -24 -5.1333  2.1548   1
  25  -3 -24 -0.0057  2.0260   2
  23  -3 -24 9.61631 2.52252   2
  23   3 -24 10.8351  2.4081   2
  21  -3 -24 6.08724 2.30630   2
  21   3 -24 2.33836 1.98252   2
  19  -3 -24 14.1467  2.6325   2
  19   3 -24 13.1593  2.6394   2
  17  -3 -24 1.86437 2.31361   1
  17   3 -24 -0.3389  1.7953   2
  15  -3 -24 10.9200  2.7503   1
  15   3 -24 13.4136  2.5690   2
  13  -3 -24 19.1436  3.0871   1
  13   3 -24 21.0659  2.9005   2
  11  -3 -24 18.7749  3.0761   1
  11   3 -24 23.5191  3.0036   2
   9  -3 -24 13.3494  2.7690   1
   9   3 -24 11.9856  2.3869   2
   7  -3 -24 46.6071  3.8445   1
   7   3 -24 43.5765  3.4911   2
   5  -3 -24 6.62650 2.41692   1
   5   3 -24 4.09446 1.83711   2
   3  -3 -24 38.1675  3.6401   1
   3   3 -24 28.4168  3.2069   2
   1  -3 -24 10.4542  2.7123   1
  -1  -3 -24 6.42470 2.45343   1
   1  -3  24 6.01757 2.18446   3
   3  -3  24 0.61439 1.89897   3
  -3  -3 -24 -2.2848  2.1801   1
   5  -3  24 6.62173 2.40450   3
  -5  -3 -24 7.70216 2.68839   1
   7  -3  24 1.12285 2.07340   3
  -7  -3 -24 0.43281 2.34262   1
  -9  -3 -24 15.6686  3.1191   1
   9  -3  24 23.8396  3.3407   3
  -9   3 -24 18.7148  2.9314   1
 -11  -3 -24 -2.0134  2.2826   1
  11  -3  24 0.40577 2.19167   3
 -11   3 -24 5.37554 2.45887   1
  13  -3  24 16.7035  3.1094   3
 -13   3 -24 18.1650  3.1457   1
 -15   3 -24 3.94176 2.56102   1
  24  -4 -24 9.33782 2.57861   2
  20  -4 -24 4.61067 2.46094   1
  20   4 -24 4.49342 2.10876   2
  18  -4 -24 0.57341 2.35233   1
  18   4 -24 4.09769 2.11023   2
  16  -4 -24 6.23988 2.58077   1
  16   4 -24 2.37937 1.97611   2
  14  -4 -24 -0.4733  2.2187   1
  14   4 -24 0.28449 1.93060   2
  12  -4 -24 26.8134  3.5102   1
  12   4 -24 20.5980  2.9288   2
  10  -4 -24 2.97993 2.36131   1
  10   4 -24 1.55232 1.86410   2
   8  -4 -24 23.8528  3.3849   1
   8   4 -24 19.3791  2.9013   2
   6  -4 -24 18.1816  3.1891   1
   6   4 -24 16.8429  2.7454   2
   4  -4 -24 3.26262 2.37067   1
   4   4 -24 2.89557 1.91556   2
  -2  -4  24 21.8269  3.0864   3
   2  -4 -24 18.5055  3.1110   1
   2   4 -24 21.4167  2.8944   2
   0  -4  24 1.40445 2.08937   3
   0  -4 -24 0.81508 2.23051   1
   2  -4  24 -1.5203  1.9144   3
  -2  -4 -24 -3.2051  1.9185   1
   4  -4  24 -0.7249  2.0646   3
  -4  -4 -24 6.22750 2.55162   1
   6  -4  24 -2.0775  1.9966   3
  -6  -4 -24 -3.5223  2.0110   1
  -8  -4 -24 6.28362 2.77397   1
   8  -4  24 8.27984 2.59660   3
  10  -4  24 11.8422  2.8789   3
  12  -4  24 2.78588 2.30622   3
  21  -5 -24 1.28647 2.35053   1
  19  -5 -24 -2.1553  2.2418   1
  17  -5 -24 2.33679 2.47071   1
  17   5 -24 2.45480 2.08033   2
  15  -5 -24 -1.9444  2.2749   1
  15   5 -24 -0.7112  1.8916   2
  13  -5 -24 0.28012 2.22752   1
  13   5 -24 0.69930 1.90221   2
  11  -5 -24 10.3093  2.7614   1
  11   5 -24 5.98360 2.36010   2
   9  -5 -24 4.20405 2.51694   1
   9   5 -24 0.93879 1.87723   2
   7  -5 -24 9.85973 2.83858   1
   7   5 -24 10.1508  2.5144   2
  -5  -5  24 1.66455 2.14740   3
   5  -5 -24 -2.8900  2.0926   1
   5   5 -24 1.38989 1.98041   2
  -3  -5  24 2.81289 2.12854   3
   3  -5 -24 8.20952 2.69616   1
   3   5 -24 5.28397 2.09951   2
   1  -5 -24 -5.7472  1.7619   1
  -1  -5  24 0.08440 2.10194   3
   1   5 -24 -1.1430  1.7684   2
   1  -5  24 0.33574 2.09522   3
  -1  -5 -24 -0.9167  2.2272   1
  -1   5 -24 -0.5745  1.7096   2
   3  -5  24 -0.2576  2.1137   3
  -3  -5 -24 -0.8797  2.2722   1
  -5  -5 -24 -1.8713  2.1703   1
   5  -5  24 0.74612 2.28304   3
   7  -5  24 1.09754 2.40118   3
   9  -5  24 10.4615  2.8031   3
  10  -6 -24 -1.7784  2.2434   1
  10   6 -24 0.13101 1.91158   2
   8  -6 -24 7.42248 2.76837   1
   8   6 -24 4.40757 2.40689   2
  -6  -6  24 5.86482 2.47093   3
   6  -6 -24 4.11598 2.65020   1
   6   6 -24 4.07299 2.31617   2
   4  -6 -24 2.93989 2.42781   1
  -4  -6  24 2.61934 2.31140   3
   4   6 -24 2.02765 2.06371   2
  -2  -6  24 3.14042 2.29781   3
   2   6 -24 2.34859 1.98693   2
   0  -6  24 -0.9758  2.1209   3
   0   6 -24 -1.5663  1.8655   2
   2  -6  24 -2.5679  1.9655   3
  -2   6 -24 -0.8193  1.8654   2
  24   0 -25 1.25641 2.10610   2
  22   0 -25 -0.6783  1.9467   2
  20   0 -25 -1.2070  1.8591   2
  18   0 -25 -3.3765  1.6174   2
  16   0 -25 0.10429 1.77862   2
  14   0 -25 -2.5158  1.5540   2
   4   0 -25 4.67135 2.20704   1
   2   0 -25 0.85577 1.97954   1
   0   0 -25 -0.5204  1.8938   1
  -2   0 -25 -1.5154  1.8889   1
  -4   0 -25 -2.6398  1.9742   1
  -6   0 -25 -1.5448  2.2028   1
  -8   0 -25 0.03950 2.31571   1
 -10   0 -25 -4.2379  2.2199   1
 -12   0 -25 3.24344 2.60853   1
  23  -1 -25 -1.1700  1.9437   2
  23   1 -25 2.16775 2.10629   2
  21  -1 -25 2.15687 2.22040   2
  21   1 -25 1.12896 1.97528   2
  19  -1 -25 -0.5820  1.8139   2
  19   1 -25 1.27840 1.96875   2
  17  -1 -25 0.22760 1.81210   2
  17   1 -25 -1.8888  1.7360   2
  15   1 -25 -0.6413  1.7834   2
  13   1 -25 4.65104 1.98654   2
  11   1 -25 2.03103 1.73093   2
   7  -1 -25 6.47963 2.36503   1
   5  -1 -25 6.62804 2.28687   1
   3  -1 -25 4.99907 2.16396   1
   1  -1 -25 1.55704 1.96952   1
  -1  -1 -25 -2.0100  2.0092   1
  -1   1 -25 -0.9520  1.8226   1
  -3  -1 -25 -4.2822  1.8390   1
  -3   1 -25 0.14472 1.98393   1
  -5  -1 -25 1.33334 2.27788   1
  -5   1 -25 4.13852 2.24753   1
  -7  -1 -25 -1.4077  2.1943   1
  -7   1 -25 -0.0904  2.2013   1
  -9  -1 -25 -0.3802  2.4504   1
  -9   1 -25 1.61688 2.33749   1
  11  -1  25 2.61403 2.35270   3
 -11  -1 -25 3.42770 2.66455   1
 -11   1 -25 4.38824 2.68423   1
  13  -1  25 3.66271 2.38881   3
 -13   1 -25 -0.6792  2.4058   1
  24  -2 -25 0.52388 2.15193   2
  22  -2 -25 -0.0957  2.0039   2
  22   2 -25 1.34340 1.94013   2
  20  -2 -25 -0.7638  1.8880   2
  20   2 -25 0.04970 1.90712   2
  18   2 -25 -2.4480  1.7284   2
  16   2 -25 -0.7420  1.7487   2
  14   2 -25 2.31940 1.93065   2
  12  -2 -25 9.51063 2.56943   1
  12   2 -25 10.1805  2.2680   2
  10  -2 -25 2.29466 2.20295   1
  10   2 -25 0.38994 1.71311   2
   8  -2 -25 14.5080  2.7887   1
   8   2 -25 14.5245  2.4050   2
   6  -2 -25 2.48519 2.16658   1
   4  -2 -25 5.52044 2.30472   1
   2  -2 -25 2.56534 2.22480   1
   0  -2 -25 -1.5294  2.0235   1
  -2  -2 -25 1.59529 2.17820   1
  -4  -2 -25 0.88239 2.35589   1
  -6  -2 -25 -2.8564  2.1487   1
  -6   2 -25 -1.9948  2.0496   1
  -8  -2 -25 1.27175 2.46141   1
   8  -2  25 1.95132 2.32585   3
  -8   2 -25 2.24758 2.36504   1
  10  -2  25 0.42157 2.35594   3
 -10  -2 -25 0.35796 2.39634   1
 -10   2 -25 0.05487 2.38228   1
  12  -2  25 8.03002 2.62284   3
 -12   2 -25 6.73664 2.76361   1
  23  -3 -25 -1.1613  1.9409   2
  19   3 -25 -2.8455  1.7551   2
  17   3 -25 4.64067 2.20968   2
  15  -3 -25 -0.6028  2.2148   1
  15   3 -25 1.39792 1.73776   2
  13  -3 -25 19.0605  3.1458   1
  13   3 -25 11.5659  2.4784   2
  11  -3 -25 1.15252 2.20377   1
  11   3 -25 0.16911 1.80637   2
   9  -3 -25 15.7987  2.8974   1
   9   3 -25 17.9188  2.6644   2
   7  -3 -25 2.28736 2.29483   1
   7   3 -25 5.34814 2.00308   2
   5  -3 -25 11.2526  2.7077   1
   3  -3 -25 1.51732 2.24693   1
   1  -3 -25 10.4589  2.7415   1
  -1  -3 -25 -1.3482  1.9910   1
  -3  -3 -25 8.84201 2.75683   1
   5  -3  25 -1.7556  1.9356   3
  -5  -3 -25 -2.2054  2.4133   1
  -7  -3 -25 3.30111 2.45687   1
   7  -3  25 4.70841 2.52550   3
   9  -3  25 6.17696 2.56905   3
  11  -3  25 3.72735 2.55891   3
 -13   3 -25 7.80765 2.76632   1
  18  -4 -25 6.89470 2.70535   1
  16  -4 -25 3.56668 2.59145   1
  16   4 -25 2.23830 1.89295   2
  14  -4 -25 14.7268  3.0728   1
  14   4 -25 17.2896  2.8890   2
  12  -4 -25 12.1829  2.8850   1
  12   4 -25 8.71527 2.35973   2
  10  -4 -25 18.7916  3.2205   1
  10   4 -25 13.6647  2.6448   2
   8  -4 -25 20.2314  3.1743   1
   8   4 -25 14.1222  2.6129   2
   6  -4 -25 3.85969 2.40851   1
   6   4 -25 7.09343 2.22162   2
   4  -4 -25 8.97398 2.72572   1
   4   4 -25 6.12570 2.08008   2
   2  -4 -25 -0.4570  2.1506   1
   0  -4 -25 6.78367 2.52097   1
   2  -4  25 -1.9629  2.0442   3
  -2  -4 -25 -1.4628  2.2055   1
   4  -4  25 2.64239 2.21308   3
  -4  -4 -25 3.45577 2.53288   1
   6  -4  25 -1.0849  2.1919   3
   8  -4  25 14.7858  2.9637   3
  15  -5 -25 -3.2312  2.1893   1
  13  -5 -25 26.4107  3.7414   1
  11  -5 -25 4.95696 2.48310   1
  11   5 -25 2.88498 2.17890   2
   9  -5 -25 28.2793  3.7485   1
   9   5 -25 24.8098  3.2827   2
   7  -5 -25 3.48360 2.51415   1
   7   5 -25 0.46803 1.89498   2
   5  -5 -25 20.7327  3.3528   1
   5   5 -25 9.82356 2.51504   2
   3  -5 -25 4.90357 2.48290   1
   3   5 -25 3.51862 2.08118   2
  -1  -5  25 6.88793 2.53017   3
   1  -5  25 2.70700 2.37300   3
   3  -5  25 -0.1869  2.3108   3
   5  -5  25 0.59419 2.31372   3
  -4  -6  25 17.3505  3.1110   3
  -2  -6  25 2.52633 2.30474   3
  20   0 -26 20.9314  3.1843   2
  18   0 -26 18.1689  2.9874   2
  16   0 -26 20.9587  3.1775   2
   2   0 -26 -0.6662  2.0109   1
   0   0 -26 -0.8127  1.9872   1
  -2   0 -26 9.73608 2.66520   1
  -4   0 -26 4.92758 2.55058   1
  -6   0 -26 39.4029  4.1519   1
  -8   0 -26 3.56050 2.54248   1
  21  -1 -26 2.22111 2.22221   2
  19  -1 -26 31.5940  3.6153   2
  19   1 -26 25.6344  3.3429   2
  17   1 -26 -2.0151  1.7956   2
  15   1 -26 38.9594  3.6961   2
  13   1 -26 13.9520  2.5745   2
   5  -1 -26 17.4950  2.8936   1
   3  -1 -26 -0.9639  2.0551   1
   1  -1 -26 2.05225 2.20815   1
  -1  -1 -26 6.31763 2.64779   1
  -3  -1 -26 1.23416 2.21389   1
  -3   1 -26 1.33587 2.16067   1
  -5  -1 -26 23.5956  3.4572   1
  -5   1 -26 26.0600  3.5282   1
  -7  -1 -26 15.5751  3.1320   1
  -7   1 -26 16.1525  3.1830   1
  -9   1 -26 3.39748 2.74481   1
  22  -2 -26 3.07426 2.24053   2
  18   2 -26 11.2208  2.6431   2
  16   2 -26 7.89903 2.33108   2
  14   2 -26 32.1074  3.5060   2
  12   2 -26 3.25464 1.95258   2
  10  -2 -26 39.2673  3.7389   1
  10   2 -26 34.3360  3.2911   2
   8  -2 -26 6.28022 2.59550   1
   6  -2 -26 12.3421  2.7463   1
   4  -2 -26 2.12090 2.16981   1
   2  -2 -26 3.44554 2.37288   1
   0  -2 -26 1.07120 2.20549   1
  -2  -2 -26 8.22300 2.89890   1
  -4  -2 -26 -1.0153  2.3718   1
  -6  -2 -26 23.6412  3.6739   1
 -10   2 -26 21.6356  3.4638   1
  17   3 -26 5.83467 2.37117   2
  15   3 -26 12.8971  2.7017   2
  13  -3 -26 6.18211 2.63902   1
  13   3 -26 11.2298  2.5224   2
  11  -3 -26 16.2121  3.0289   1
  11   3 -26 12.2383  2.5154   2
   9  -3 -26 5.70060 2.56478   1
   9   3 -26 5.64573 2.16228   2
   7  -3 -26 9.06177 2.64334   1
   5  -3 -26 5.43119 2.60786   1
   3  -3 -26 4.18259 2.52144   1
   1  -3 -26 5.14886 2.54815   1
  -1  -3 -26 0.24295 2.29423   1
  -3  -3 -26 0.55844 2.36256   1
   7  -3  26 8.90726 2.79439   3
  16  -4 -26 2.51326 2.46968   1
  14  -4 -26 17.7735  3.2306   1
  12  -4 -26 0.23835 2.33303   1
  12   4 -26 2.68729 2.12741   2
  10  -4 -26 11.5532  2.9251   1
  10   4 -26 11.4643  2.5452   2
   8  -4 -26 1.93183 2.37437   1
   8   4 -26 1.97093 1.79452   2
   6  -4 -26 9.71955 2.79792   1
   6   4 -26 9.54868 2.34898   2
   4  -4 -26 0.20914 2.23052   1
   4  -4  26 -1.2413  2.1583   3
  18   0 -27 -0.0758  2.0166   2
  -2   0 -27 -1.7598  2.3250   1
  -4   0 -27 -0.1479  2.3913   1
  17   1 -27 1.08772 1.97022   2
   3  -1 -27 -0.9557  2.2088   1
   1  -1 -27 -2.3094  2.1267   1
  -1  -1 -27 1.15273 2.45950   1
  -3  -1 -27 1.13656 2.49497   1
  -7   1 -27 1.02601 2.50193   1
  14   2 -27 0.02065 1.87322   2
   8  -2 -27 3.48670 2.33854   1
   6  -2 -27 2.66205 2.39531   1
   4  -2 -27 1.74097 2.32024   1
   2  -2 -27 1.50454 2.41250   1
   0  -2 -27 5.03935 2.61042   1
  11  -3 -27 6.12264 2.66000   1
  11   3 -27 7.92661 2.29920   2
   9  -3 -27 3.56712 2.51131   1
   7  -3 -27 3.97417 2.47106   1
   5  -3 -27 3.12753 2.41260   1
   0   0   0    0.00    0.00   0
;
_shelx_hkl_checksum              3501
_shelx_shelxl_version_number     2014/7
_olex2_submission_special_instructions 'No special instructions were received'
loop_
_space_group_symop_operation_xyz
'x, y, z'
'-x, y, -z+1/2'
'x+1/2, y+1/2, z'
'-x+1/2, y+1/2, -z+1/2'
'-x, -y, -z'
'x, -y, z-1/2'
'-x+1/2, -y+1/2, -z'
'x+1/2, -y+1/2, z-1/2'
loop_
_atom_site_label
_atom_site_type_symbol
_atom_site_fract_x
_atom_site_fract_y
_atom_site_fract_z
_atom_site_U_iso_or_equiv
_atom_site_adp_type
_atom_site_occupancy
_atom_site_site_symmetry_order
_atom_site_calc_flag
_atom_site_refinement_flags_posn
_atom_site_refinement_flags_adp
_atom_site_refinement_flags_occupancy
Ru1 Ru 0.43818(3) 0.21219(6) 0.56766(2) 0.03624(15) Uani 1 1 d . . .
Cl1 Cl 0.56096(10) 0.0793(2) 0.63965(10) 0.0571(4) Uani 1 1 d . . .
S1 S 0.48978(9) 0.2220(2) 0.66663(8) 0.0467(4) Uani 1 1 d . . .
O1 O 0.3876(2) 0.0059(5) 0.5436(2) 0.0446(10) Uani 1 1 d . . .
O2 O 0.2901(3) -0.1492(6) 0.4793(3) 0.0727(16) Uani 1 1 d . . .
O3 O 0.4460(3) 0.2942(7) 0.6651(3) 0.0651(14) Uani 1 1 d . . .
N0AA N 0.3853(3) 0.1884(5) 0.4713(3) 0.0388(11) Uani 1 1 d . . .
N1 N 0.4790(3) 0.4190(6) 0.5804(3) 0.0419(11) Uani 1 1 d . . .
N2 N 0.3342(3) 0.4536(6) 0.5153(3) 0.0423(11) Uani 1 1 d . . .
N3 N 0.2712(3) 0.2479(5) 0.4620(3) 0.0357(10) Uani 1 1 d . . .
C1 C 0.3427(3) 0.3101(6) 0.5126(3) 0.0353(12) Uani 1 1 d . . .
C2 C 0.2184(4) 0.3544(8) 0.4339(4) 0.0519(16) Uani 1 1 d . . .
H2 H 0.1653 0.3393 0.3983 0.062 Uiso 1 1 calc R . .
C3 C 0.2571(4) 0.4835(8) 0.4671(4) 0.0521(16) Uani 1 1 d . . .
H3 H 0.2367 0.5742 0.4594 0.062 Uiso 1 1 calc R . .
C4 C 0.4006(4) 0.5545(7) 0.5693(4) 0.0498(15) Uani 1 1 d . . .
H4A H 0.4310 0.5289 0.6155 0.060 Uiso 1 1 calc R . .
H4B H 0.3810 0.6547 0.5578 0.060 Uiso 1 1 calc R . .
C5 C 0.4539(4) 0.5512(7) 0.5751(3) 0.0449(14) Uani 1 1 d . . .
C6 C 0.4778(4) 0.6845(7) 0.5774(4) 0.0569(18) Uani 1 1 d . . .
H6 H 0.4600 0.7733 0.5744 0.068 Uiso 1 1 calc R . .
C7 C 0.5271(5) 0.6866(9) 0.5841(5) 0.071(2) Uani 1 1 d . . .
H7 H 0.5441 0.7758 0.5865 0.086 Uiso 1 1 calc R . .
C8 C 0.5510(4) 0.5535(9) 0.5874(4) 0.064(2) Uani 1 1 d . . .
H8 H 0.5834 0.5514 0.5904 0.077 Uiso 1 1 calc R . .
C9 C 0.5269(4) 0.4216(8) 0.5860(4) 0.0548(17) Uani 1 1 d . . .
H9 H 0.5444 0.3322 0.5891 0.066 Uiso 1 1 calc R . .
C10 C 0.2517(4) 0.0951(7) 0.4378(3) 0.0453(14) Uani 1 1 d . . .
H10A H 0.2349 0.0918 0.3980 0.054 Uiso 1 1 calc R . .
H10B H 0.2068 0.0671 0.4191 0.054 Uiso 1 1 calc R . .
C11 C 0.3151(4) -0.0232(7) 0.4919(3) 0.0446(14) Uani 1 1 d . . .
C12 C 0.5135(5) 0.0404(9) 0.7017(5) 0.076(2) Uani 1 1 d . . .
H12A H 0.5448 0.0476 0.7489 0.114 Uiso 1 1 calc GR . .
H12B H 0.5424 -0.0115 0.7042 0.114 Uiso 1 1 calc GR . .
H12C H 0.4660 -0.0127 0.6710 0.114 Uiso 1 1 calc GR . .
C13 C 0.5855(4) 0.3001(13) 0.7410(4) 0.087(3) Uani 1 1 d . . .
H13A H 0.5828 0.4029 0.7317 0.130 Uiso 1 1 calc GR . .
H13B H 0.6186 0.2481 0.7483 0.130 Uiso 1 1 calc GR . .
H13C H 0.6070 0.2916 0.7832 0.130 Uiso 1 1 calc GR . .
C14 C 0.3967(4) 0.0654(8) 0.4589(4) 0.0517(16) Uani 1 1 d . . .
H14 H 0.4321 -0.0051 0.4951 0.062 Uiso 1 1 calc R . .
C15 C 0.3584(5) 0.0387(9) 0.3950(4) 0.0615(19) Uani 1 1 d . . .
H15 H 0.3694 -0.0472 0.3895 0.074 Uiso 1 1 calc R . .
C16 C 0.3043(4) 0.1379(9) 0.3394(4) 0.0566(17) Uani 1 1 d . . .
C17 C 0.2925(4) 0.2642(9) 0.3521(4) 0.0559(17) Uani 1 1 d . . .
H17 H 0.2568 0.3356 0.3164 0.067 Uiso 1 1 calc R . .
C18 C 0.3335(4) 0.2845(8) 0.4175(4) 0.0504(15) Uani 1 1 d . . .
H18 H 0.3243 0.3709 0.4246 0.060 Uiso 1 1 calc R . .
C19 C 0.2602(6) 0.1124(13) 0.2683(5) 0.091(3) Uani 1 1 d . . .
H19A H 0.2961 0.1161 0.2743 0.137 Uiso 1 1 calc GR . .
H19B H 0.2210 0.1880 0.2351 0.137 Uiso 1 1 calc GR . .
H19C H 0.2353 0.0169 0.2500 0.137 Uiso 1 1 calc GR . .
Cl2 Cl 0.3058(3) 0.6700(4) 0.3873(2) 0.1611(17) Uani 1 1 d . . .
Cl3 Cl 0.1614(3) 0.8245(8) 0.2715(3) 0.217(3) Uani 1 1 d . . .
C20 C 0.2148(10) 0.700(3) 0.3346(10) 0.203(9) Uani 1 1 d . . .
H20A H 0.1865 0.6063 0.3122 0.243 Uiso 1 1 calc R . .
H20B H 0.2192 0.7282 0.3652 0.243 Uiso 1 1 calc R . .
Cl4 Cl 0.0862(3) 0.7944(7) 0.3206(4) 0.210(3) Uani 1 1 d . . .
C21 C 0.0000 0.896(3) 0.2500 0.183(12) Uani 1 2 d S T P
H21A H 0.0048 0.9597 0.2311 0.220 Uiso 0.5 1 calc R . .
H21B H -0.0048 0.9597 0.2689 0.220 Uiso 0.5 1 calc R . .
loop_
_atom_site_aniso_label
_atom_site_aniso_U_11
_atom_site_aniso_U_22
_atom_site_aniso_U_33
_atom_site_aniso_U_23
_atom_site_aniso_U_13
_atom_site_aniso_U_12
Ru1 0.0342(2) 0.0334(3) 0.0394(3) 0.0008(2) 0.0306(2) 0.00000(19)
Cl1 0.0470(8) 0.0512(10) 0.0693(10) 0.0070(8) 0.0482(9) 0.0096(7)
S1 0.0365(7) 0.0554(10) 0.0359(7) -0.0010(7) 0.0283(7) -0.0039(7)
O1 0.040(2) 0.034(2) 0.048(2) 0.0033(19) 0.035(2) 0.0000(18)
O2 0.060(3) 0.038(3) 0.092(4) -0.002(3) 0.059(3) -0.007(2)
O3 0.060(3) 0.086(4) 0.054(3) -0.007(3) 0.048(3) -0.001(3)
N0AA 0.046(3) 0.029(3) 0.050(3) 0.000(2) 0.042(3) 0.000(2)
N1 0.042(3) 0.037(3) 0.042(3) 0.000(2) 0.034(2) -0.003(2)
N2 0.044(3) 0.038(3) 0.047(3) 0.003(2) 0.039(3) 0.004(2)
N3 0.038(2) 0.029(2) 0.042(2) 0.0047(19) 0.034(2) 0.0027(19)
C1 0.042(3) 0.031(3) 0.038(3) 0.000(2) 0.035(3) -0.001(2)
C2 0.040(3) 0.059(4) 0.054(4) 0.008(3) 0.039(3) 0.007(3)
C3 0.053(4) 0.050(4) 0.064(4) 0.013(3) 0.051(4) 0.015(3)
C4 0.057(4) 0.039(3) 0.054(4) -0.001(3) 0.046(3) 0.002(3)
C5 0.042(3) 0.039(3) 0.039(3) -0.004(3) 0.031(3) -0.008(3)
C6 0.054(4) 0.034(4) 0.061(4) 0.000(3) 0.045(4) -0.004(3)
C7 0.068(5) 0.054(5) 0.085(6) 0.001(4) 0.063(5) -0.015(4)
C8 0.055(4) 0.062(5) 0.075(5) 0.003(4) 0.055(4) -0.007(4)
C9 0.049(4) 0.051(4) 0.065(4) 0.000(3) 0.048(4) -0.004(3)
C10 0.040(3) 0.039(3) 0.045(3) 0.001(3) 0.034(3) -0.003(3)
C11 0.045(3) 0.041(4) 0.047(3) -0.001(3) 0.039(3) 0.001(3)
C12 0.090(6) 0.062(5) 0.071(5) 0.017(4) 0.066(5) 0.013(5)
C13 0.046(4) 0.124(8) 0.048(4) -0.017(5) 0.032(4) -0.023(5)
C14 0.058(4) 0.040(4) 0.060(4) -0.004(3) 0.050(4) 0.002(3)
C15 0.077(5) 0.052(4) 0.072(5) -0.013(4) 0.066(5) -0.007(4)
C16 0.053(4) 0.070(5) 0.053(4) -0.013(4) 0.045(4) -0.012(4)
C17 0.058(4) 0.062(5) 0.052(4) 0.004(3) 0.047(4) -0.002(3)
C18 0.061(4) 0.047(4) 0.059(4) 0.005(3) 0.053(4) 0.004(3)
C19 0.088(6) 0.121(9) 0.065(5) -0.014(6) 0.064(5) -0.006(6)
Cl2 0.172(4) 0.091(2) 0.129(3) 0.027(2) 0.110(3) 0.019(2)
Cl3 0.181(5) 0.283(8) 0.163(4) 0.088(5) 0.140(4) 0.110(5)
C20 0.142(14) 0.29(3) 0.177(17) 0.057(18) 0.135(14) 0.060(17)
Cl4 0.199(5) 0.199(5) 0.264(6) -0.073(5) 0.200(5) -0.047(4)
C21 0.100(14) 0.16(2) 0.057(9) 0.000 0.026(10) 0.000
loop_
_atom_type_symbol
_atom_type_description
_atom_type_scat_dispersion_real
_atom_type_scat_dispersion_imag
_atom_type_scat_source
C C 0.0033 0.0016 'International Tables Vol C Tables 4.2.6.8 and 6.1.1.4'
H H 0.0000 0.0000 'International Tables Vol C Tables 4.2.6.8 and 6.1.1.4'
Cl Cl 0.1484 0.1585 'International Tables Vol C Tables 4.2.6.8 and 6.1.1.4'
N N 0.0061 0.0033 'International Tables Vol C Tables 4.2.6.8 and 6.1.1.4'
O O 0.0106 0.0060 'International Tables Vol C Tables 4.2.6.8 and 6.1.1.4'
Ru Ru -1.2594 0.8363 'International Tables Vol C Tables 4.2.6.8 and 6.1.1.4'
S S 0.1246 0.1234 'International Tables Vol C Tables 4.2.6.8 and 6.1.1.4'
loop_
_geom_angle_atom_site_label_1
_geom_angle_atom_site_label_2
_geom_angle_atom_site_label_3
_geom_angle
_geom_angle_site_symmetry_1
_geom_angle_site_symmetry_3
S1 Ru1 Cl1 88.31(6) . .
O1 Ru1 Cl1 89.58(12) . .
O1 Ru1 S1 88.59(13) . .
O1 Ru1 N0AA 87.46(17) . .
N0AA Ru1 Cl1 91.66(14) . .
N0AA Ru1 S1 176.05(14) . .
N1 Ru1 Cl1 93.15(15) . .
N1 Ru1 S1 96.58(14) . .
N1 Ru1 O1 174.21(17) . .
N1 Ru1 N0AA 87.36(19) . .
C1 Ru1 Cl1 178.29(17) . .
C1 Ru1 S1 90.84(16) . .
C1 Ru1 O1 88.9(2) . .
C1 Ru1 N0AA 89.1(2) . .
C1 Ru1 N1 88.4(2) . .
O3 S1 Ru1 120.2(2) . .
O3 S1 C12 105.9(4) . .
O3 S1 C13 105.9(4) . .
C12 S1 Ru1 110.6(3) . .
C13 S1 Ru1 113.2(3) . .
C13 S1 C12 98.7(5) . .
C11 O1 Ru1 127.2(4) . .
C14 N0AA Ru1 120.7(4) . .
C18 N0AA Ru1 122.8(4) . .
C18 N0AA C14 116.1(6) . .
C5 N1 Ru1 124.8(4) . .
C9 N1 Ru1 117.4(5) . .
C9 N1 C5 117.3(6) . .
C1 N2 C3 110.6(5) . .
C1 N2 C4 122.5(5) . .
C3 N2 C4 126.3(6) . .
C1 N3 C2 109.3(5) . .
C1 N3 C10 125.3(5) . .
C2 N3 C10 125.2(5) . .
N2 C1 Ru1 127.0(4) . .
N2 C1 N3 106.3(5) . .
N3 C1 Ru1 126.7(4) . .
N3 C2 H2 126.0 . .
C3 C2 N3 108.0(5) . .
C3 C2 H2 126.0 . .
N2 C3 H3 127.1 . .
C2 C3 N2 105.8(6) . .
C2 C3 H3 127.1 . .
N2 C4 H4A 108.9 . .
N2 C4 H4B 108.9 . .
N2 C4 C5 113.4(5) . .
H4A C4 H4B 107.7 . .
C5 C4 H4A 108.9 . .
C5 C4 H4B 108.9 . .
N1 C5 C4 119.4(5) . .
N1 C5 C6 122.0(6) . .
C6 C5 C4 118.5(6) . .
C5 C6 H6 119.8 . .
C7 C6 C5 120.4(7) . .
C7 C6 H6 119.8 . .
C6 C7 H7 121.0 . .
C6 C7 C8 118.1(7) . .
C8 C7 H7 121.0 . .
C7 C8 H8 120.0 . .
C7 C8 C9 120.0(7) . .
C9 C8 H8 120.0 . .
N1 C9 C8 122.1(7) . .
N1 C9 H9 118.9 . .
C8 C9 H9 118.9 . .
N3 C10 H10A 107.8 . .
N3 C10 H10B 107.8 . .
N3 C10 C11 118.2(5) . .
H10A C10 H10B 107.1 . .
C11 C10 H10A 107.8 . .
C11 C10 H10B 107.8 . .
O1 C11 C10 121.9(6) . .
O2 C11 O1 123.1(6) . .
O2 C11 C10 114.9(6) . .
S1 C12 H12A 109.5 . .
S1 C12 H12B 109.5 . .
S1 C12 H12C 109.5 . .
H12A C12 H12B 109.5 . .
H12A C12 H12C 109.5 . .
H12B C12 H12C 109.5 . .
S1 C13 H13A 109.5 . .
S1 C13 H13B 109.5 . .
S1 C13 H13C 109.5 . .
H13A C13 H13B 109.5 . .
H13A C13 H13C 109.5 . .
H13B C13 H13C 109.5 . .
N0AA C14 H14 118.5 . .
N0AA C14 C15 123.0(7) . .
C15 C14 H14 118.5 . .
C14 C15 H15 119.7 . .
C16 C15 C14 120.6(7) . .
C16 C15 H15 119.7 . .
C15 C16 C17 116.4(6) . .
C15 C16 C19 122.4(8) . .
C17 C16 C19 121.1(8) . .
C16 C17 H17 120.0 . .
C18 C17 C16 119.9(7) . .
C18 C17 H17 120.0 . .
N0AA C18 C17 124.0(7) . .
N0AA C18 H18 118.0 . .
C17 C18 H18 118.0 . .
C16 C19 H19A 109.5 . .
C16 C19 H19B 109.5 . .
C16 C19 H19C 109.5 . .
H19A C19 H19B 109.5 . .
H19A C19 H19C 109.5 . .
H19B C19 H19C 109.5 . .
Cl2 C20 H20A 108.0 . .
Cl2 C20 H20B 108.0 . .
Cl3 C20 Cl2 117.2(12) . .
Cl3 C20 H20A 108.0 . .
Cl3 C20 H20B 108.0 . .
H20A C20 H20B 107.2 . .
Cl4 C21 Cl4 116.4(15) . 2
Cl4 C21 H21A 108.2 . .
Cl4 C21 H21A 108.2 2 .
Cl4 C21 H21B 108.2 2 .
Cl4 C21 H21B 108.2 . .
H21A C21 H21B 107.4 . .
loop_
_geom_bond_atom_site_label_1
_geom_bond_atom_site_label_2
_geom_bond_distance
_geom_bond_site_symmetry_2
Ru1 Cl1 2.5281(17) .
Ru1 S1 2.2256(17) .
Ru1 O1 2.112(4) .
Ru1 N0AA 2.131(5) .
Ru1 N1 2.091(5) .
Ru1 C1 1.955(6) .
S1 O3 1.482(5) .
S1 C12 1.784(8) .
S1 C13 1.776(8) .
O1 C11 1.270(7) .
O2 C11 1.234(8) .
N0AA C14 1.340(8) .
N0AA C18 1.327(8) .
N1 C5 1.355(8) .
N1 C9 1.347(8) .
N2 C1 1.339(7) .
N2 C3 1.391(8) .
N2 C4 1.455(8) .
N3 C1 1.347(7) .
N3 C2 1.384(8) .
N3 C10 1.452(8) .
C2 H2 0.9300 .
C2 C3 1.343(10) .
C3 H3 0.9300 .
C4 H4A 0.9700 .
C4 H4B 0.9700 .
C4 C5 1.511(9) .
C5 C6 1.383(9) .
C6 H6 0.9300 .
C6 C7 1.363(11) .
C7 H7 0.9300 .
C7 C8 1.370(12) .
C8 H8 0.9300 .
C8 C9 1.391(10) .
C9 H9 0.9300 .
C10 H10A 0.9700 .
C10 H10B 0.9700 .
C10 C11 1.529(9) .
C12 H12A 0.9600 .
C12 H12B 0.9600 .
C12 H12C 0.9600 .
C13 H13A 0.9600 .
C13 H13B 0.9600 .
C13 H13C 0.9600 .
C14 H14 0.9300 .
C14 C15 1.375(10) .
C15 H15 0.9300 .
C15 C16 1.372(11) .
C16 C17 1.377(11) .
C16 C19 1.504(10) .
C17 H17 0.9300 .
C17 C18 1.374(9) .
C18 H18 0.9300 .
C19 H19A 0.9600 .
C19 H19B 0.9600 .
C19 H19C 0.9600 .
Cl2 C20 1.681(16) .
Cl3 C20 1.635(19) .
C20 H20A 0.9700 .
C20 H20B 0.9700 .
Cl4 C21 1.737(14) .
C21 Cl4 1.737(14) 2
C21 H21A 0.9700 .
C21 H21B 0.9700 .
loop_
_geom_torsion_atom_site_label_1
_geom_torsion_atom_site_label_2
_geom_torsion_atom_site_label_3
_geom_torsion_atom_site_label_4
_geom_torsion
Ru1 O1 C11 O2 175.8(5)
Ru1 O1 C11 C10 -0.3(8)
Ru1 N0AA C14 C15 174.0(5)
Ru1 N0AA C18 C17 -173.0(5)
Ru1 N1 C5 C4 8.5(8)
Ru1 N1 C5 C6 -173.8(5)
Ru1 N1 C9 C8 173.4(6)
N0AA C14 C15 C16 -1.6(11)
N1 C5 C6 C7 1.0(11)
N2 C4 C5 N1 -48.9(8)
N2 C4 C5 C6 133.4(6)
N3 C2 C3 N2 0.5(7)
N3 C10 C11 O1 -30.5(9)
N3 C10 C11 O2 153.2(6)
C1 N2 C3 C2 -1.1(7)
C1 N2 C4 C5 51.2(8)
C1 N3 C2 C3 0.2(7)
C1 N3 C10 C11 32.3(9)
C2 N3 C1 Ru1 -178.1(4)
C2 N3 C1 N2 -0.9(6)
C2 N3 C10 C11 -151.3(6)
C3 N2 C1 Ru1 178.4(4)
C3 N2 C1 N3 1.2(6)
C3 N2 C4 C5 -138.1(6)
C4 N2 C1 Ru1 -9.7(8)
C4 N2 C1 N3 173.1(5)
C4 N2 C3 C2 -172.6(6)
C4 C5 C6 C7 178.6(7)
C5 N1 C9 C8 0.7(10)
C5 C6 C7 C8 1.0(12)
C6 C7 C8 C9 -2.0(12)
C7 C8 C9 N1 1.2(12)
C9 N1 C5 C4 -179.5(6)
C9 N1 C5 C6 -1.8(9)
C10 N3 C1 Ru1 -1.3(8)
C10 N3 C1 N2 175.9(5)
C10 N3 C2 C3 -176.6(6)
C14 N0AA C18 C17 0.0(10)
C14 C15 C16 C17 1.4(11)
C14 C15 C16 C19 -179.1(8)
C15 C16 C17 C18 -0.6(10)
C16 C17 C18 N0AA -0.1(11)
C18 N0AA C14 C15 0.9(10)
C19 C16 C17 C18 179.9(7)
