#------------------------------------------------------------------------------
#$Date: 2017-02-04 04:17:45 +0200 (Sat, 04 Feb 2017) $
#$Revision: 191361 $
#$URL: file:///home/coder/svn-repositories/cod/cif/1/54/48/1544842.cif $
#------------------------------------------------------------------------------
#
# This file is available in the Crystallography Open Database (COD),
# http://www.crystallography.net/
#
# All data on this site have been placed in the public domain by the
# contributors.
#
data_1544842
loop_
_publ_author_name
'Chen, Changjuan'
'Cui, Yaqin'
'Mao, Xiaoyang'
'Pan, Xiaobo'
'Wu, Jincai'
_publ_section_title
;
 Suppressing Cyclic Polymerization for Isoselective Synthesis of
 High-Molecular-Weight Linear Polylactide Catalyzed by Sodium/Potassium
 Sulfonamidate Complexes
;
_journal_issue                   1
_journal_name_full               Macromolecules
_journal_page_first              83
_journal_paper_doi               10.1021/acs.macromol.6b02271
_journal_volume                  50
_journal_year                    2017
_chemical_formula_moiety         'C29 H32 N2 Na O10 S'
_chemical_formula_sum            'C29 H32 N2 Na O10 S'
_chemical_formula_weight         623.61
_space_group_crystal_system      monoclinic
_space_group_IT_number           14
_space_group_name_Hall           '-P 2yn'
_space_group_name_H-M_alt        'P 1 21/n 1'
_symmetry_space_group_name_Hall  '-P 2yn'
_symmetry_space_group_name_H-M   'P 1 21/n 1'
_atom_sites_solution_hydrogens   geom
_atom_sites_solution_primary     direct
_audit_creation_date             2016-04-27
_audit_creation_method
;
Olex2 1.2
(compiled 2016.02.19 svn.r3266 for OlexSys, GUI svn.r5155)
;
_cell_angle_alpha                90
_cell_angle_beta                 91.924(7)
_cell_angle_gamma                90
_cell_formula_units_Z            4
_cell_length_a                   10.7318(8)
_cell_length_b                   16.8460(15)
_cell_length_c                   16.1244(13)
_cell_measurement_reflns_used    2591
_cell_measurement_temperature    293.00(10)
_cell_measurement_theta_max      28.1080
_cell_measurement_theta_min      3.9330
_cell_volume                     2913.5(4)
_computing_cell_refinement
;
CrysAlisPro, Agilent Technologies,
Version 1.171.37.35 (release 13-08-2014 CrysAlis171 .NET)
(compiled Aug 13 2014,18:06:01)
;
_computing_data_collection
;
CrysAlisPro, Agilent Technologies,
Version 1.171.37.35 (release 13-08-2014 CrysAlis171 .NET)
(compiled Aug 13 2014,18:06:01)
;
_computing_data_reduction
;
CrysAlisPro, Agilent Technologies,
Version 1.171.37.35 (release 13-08-2014 CrysAlis171 .NET)
(compiled Aug 13 2014,18:06:01)
;
_computing_molecular_graphics    'Olex2 (Dolomanov et al., 2009)'
_computing_publication_material  'Olex2 (Dolomanov et al., 2009)'
_computing_structure_refinement  'ShelXL (Sheldrick, 2015)'
_computing_structure_solution    'ShelXT (Sheldrick, 2015)'
_diffrn_ambient_environment      air
_diffrn_ambient_temperature      293.00(10)
_diffrn_detector                 'CCD plate'
_diffrn_detector_area_resol_mean 16.0733
_diffrn_detector_type            Eos
_diffrn_measured_fraction_theta_full 0.996
_diffrn_measured_fraction_theta_max 0.996
_diffrn_measurement_details
;
#__ type_ start__ end____ width___ exp.time_
  1 omega  -28.00   -3.00   1.0000    6.0000
omega____ theta____ kappa____ phi______ frames
    -       21.2104  -38.0000   60.0000 25

#__ type_ start__ end____ width___ exp.time_
  2 omega  -11.00   25.00   1.0000    6.0000
omega____ theta____ kappa____ phi______ frames
    -      -16.6791  -99.0000    0.0000 36

#__ type_ start__ end____ width___ exp.time_
  3 omega  -11.00   39.00   1.0000    6.0000
omega____ theta____ kappa____ phi______ frames
    -       21.2104  -57.0000  -30.0000 50

#__ type_ start__ end____ width___ exp.time_
  4 omega  -48.00   43.00   1.0000    6.0000
omega____ theta____ kappa____ phi______ frames
    -       21.2104  -57.0000 -150.0000 91

#__ type_ start__ end____ width___ exp.time_
  5 omega   -1.00   39.00   1.0000    6.0000
omega____ theta____ kappa____ phi______ frames
    -       21.2104  -99.0000  150.0000 40
;
_diffrn_measurement_device       'four-circle diffractometer'
_diffrn_measurement_device_type  'SuperNova, Dual, Cu at zero, Eos'
_diffrn_measurement_method       '\w scans'
_diffrn_orient_matrix_UB_11      0.0028047000
_diffrn_orient_matrix_UB_12      0.0037740000
_diffrn_orient_matrix_UB_13      0.0438203000
_diffrn_orient_matrix_UB_21      0.0316122000
_diffrn_orient_matrix_UB_22      -0.0368946000
_diffrn_orient_matrix_UB_23      0.0032827000
_diffrn_orient_matrix_UB_31      0.0580255000
_diffrn_orient_matrix_UB_32      0.0199572000
_diffrn_orient_matrix_UB_33      -0.0022091000
_diffrn_radiation_monochromator  mirror
_diffrn_radiation_probe          x-ray
_diffrn_radiation_type           MoK\a
_diffrn_radiation_wavelength     0.71073
_diffrn_reflns_av_R_equivalents  0.0383
_diffrn_reflns_av_unetI/netI     0.0599
_diffrn_reflns_Laue_measured_fraction_full 0.996
_diffrn_reflns_Laue_measured_fraction_max 0.996
_diffrn_reflns_limit_h_max       12
_diffrn_reflns_limit_h_min       -12
_diffrn_reflns_limit_k_max       20
_diffrn_reflns_limit_k_min       -19
_diffrn_reflns_limit_l_max       19
_diffrn_reflns_limit_l_min       -19
_diffrn_reflns_number            11368
_diffrn_reflns_point_group_measured_fraction_full 0.996
_diffrn_reflns_point_group_measured_fraction_max 0.996
_diffrn_reflns_theta_full        24.996
_diffrn_reflns_theta_max         24.996
_diffrn_reflns_theta_min         3.301
_diffrn_source                   'SuperNova (Mo) X-ray Source'
_exptl_absorpt_coefficient_mu    0.187
_exptl_absorpt_correction_T_max  1.00000
_exptl_absorpt_correction_T_min  0.86293
_exptl_absorpt_correction_type   multi-scan
_exptl_absorpt_process_details
;
CrysAlisPro, Agilent Technologies,
Version 1.171.37.35 (release 13-08-2014 CrysAlis171 .NET)
(compiled Aug 13 2014,18:06:01)
Empirical absorption correction using spherical harmonics,
 implemented in SCALE3 ABSPACK scaling algorithm.
;
_exptl_crystal_colour            yellow
_exptl_crystal_colour_primary    yellow
_exptl_crystal_density_diffrn    1.422
_exptl_crystal_description       prism
_exptl_crystal_F_000             1308
_exptl_crystal_size_max          0.3
_exptl_crystal_size_mid          0.28
_exptl_crystal_size_min          0.2
_refine_diff_density_max         0.531
_refine_diff_density_min         -0.520
_refine_diff_density_rms         0.059
_refine_ls_extinction_method     none
_refine_ls_goodness_of_fit_ref   0.995
_refine_ls_hydrogen_treatment    constr
_refine_ls_matrix_type           full
_refine_ls_number_parameters     388
_refine_ls_number_reflns         5113
_refine_ls_number_restraints     0
_refine_ls_restrained_S_all      0.995
_refine_ls_R_factor_all          0.0777
_refine_ls_R_factor_gt           0.0534
_refine_ls_shift/su_max          0.001
_refine_ls_shift/su_mean         0.000
_refine_ls_structure_factor_coef Fsqd
_refine_ls_weighting_details
'w=1/[\s^2^(Fo^2^)+(0.1000P)^2^] where P=(Fo^2^+2Fc^2^)/3'
_refine_ls_weighting_scheme      calc
_refine_ls_wR_factor_gt          0.1452
_refine_ls_wR_factor_ref         0.1687
_reflns_Friedel_coverage         0.000
_reflns_number_gt                3714
_reflns_number_total             5113
_reflns_threshold_expression     'I > 2\s(I)'
_cod_data_source_file            ma6b02271_si_007.cif
_cod_data_source_block           wujc_0426_1
_cod_depositor_comments
'Adding full bibliography for 1544839--1544842.cif.'
_cod_database_code               1544842
_shelx_space_group_comment
;
The symmetry employed for this shelxl refinement is uniquely defined
by the following loop, which should always be used as a source of
symmetry information in preference to the above space-group names.
They are only intended as comments.
;
_reflns_odcompleteness_completeness 99.74
_reflns_odcompleteness_iscentric 1
_reflns_odcompleteness_theta     26.32
_olex2_refinement_description
;
1. Fixed Uiso
 At 1.2 times of:
  All C(H) groups, All C(H,H) groups
2.a Ternary CH refined with riding coordinates:
 C7(H7)
2.b Secondary CH2 refined with riding coordinates:
 C28(H28A,H28B), C29(H29A,H29B), C21(H21A,H21B), C20(H20A,H20B), C27(H27A,
 H27B), C26(H26A,H26B), C25(H25A,H25B), C22(H22A,H22B), C23(H23A,H23B)
2.c Aromatic/amide H refined with riding coordinates:
 C6(H6), C9(H9), C15(H15), C2(H2), C18(H18), C10(H10), C5(H5), C12(H12),
 C17(H17), C11(H11), C16(H16), C3(H3), C24(H24)
;
_shelx_res_file
;
    wujc_0426_1.res created by SHELXL-2014/7

TITL wujc_0426_1_a.res in P2(1)/n
REM Old TITL wujc_0426_1 in P21/n #14
REM SHELXT solution in P2(1)/n
REM R1 0.182, Rweak 0.118, Alpha 0.031, Orientation as input
REM Formula found by SHELXT: C30 N O10 Cl2
CELL 0.71073 10.731812 16.845987 16.124392 90 91.9237 90
ZERR 4 0.00081 0.001483 0.001287 0 0.0068 0
LATT 1
SYMM 0.5-X,0.5+Y,0.5-Z
SFAC C H N Na O S
UNIT 116 128 8 4 40 4

L.S. 4
PLAN  20
BOND $H
LIST 6
fmap 2 53
MORE -1
ACTA
CONF
OMIT -0.01 50
OMIT 6 6 0
OMIT 0 3 6
OMIT 7 7 0
OMIT -5 0 1
OMIT 3 0 3
OMIT -6 9 6
OMIT -4 5 2
OMIT 5 19 0
OMIT 6 6 3
REM <olex2.extras>
REM <HklSrc "%.\\wujc_0426_1.hkl">
REM </olex2.extras>

WGHT    0.100000
FVAR       0.34402
S1    6    0.694699    0.332536    0.367108    11.00000    0.02976    0.02398 =
         0.02350    0.00290   -0.00412   -0.00266
NA1   4    0.566377    0.179238    0.420709    11.00000    0.02713    0.02485 =
         0.02958    0.00034    0.00070   -0.00249
O2    5    0.752281    0.363788    0.293588    11.00000    0.04612    0.03183 =
         0.02573    0.00931   -0.00025   -0.00266
O1    5    0.561551    0.316037    0.360084    11.00000    0.02895    0.02895 =
         0.03335    0.00129   -0.00772   -0.00045
O7    5    0.494106    0.234162    0.554664    11.00000    0.03021    0.03831 =
         0.03296    0.00557    0.00316   -0.00258
O10   5    1.022100    0.110158    0.476743    11.00000    0.03576    0.03190 =
         0.03832    0.00435   -0.00854    0.00145
O6    5    0.625858    0.098480    0.546599    11.00000    0.02871    0.04139 =
         0.04346    0.00807    0.00146    0.00291
O4    5    0.452022    0.112080    0.304950    11.00000    0.05091    0.03221 =
         0.03450    0.00013   -0.00364   -0.00515
O3    5    0.334107    0.193902    0.423522    11.00000    0.03535    0.04005 =
         0.03591    0.00352   -0.00574   -0.00111
O5    5    0.664535    0.055695    0.383411    11.00000    0.04443    0.02982 =
         0.05140   -0.00408   -0.00001    0.00057
O12   5    0.873964    0.612878    0.635266    11.00000    0.06086    0.04312 =
         0.04998   -0.00002   -0.01183   -0.02279
O11   5    0.717160    0.566107    0.700436    11.00000    0.06121    0.05278 =
         0.04439   -0.01771    0.00394   -0.00794
N1    3    0.757440    0.258311    0.406821    11.00000    0.02522    0.02071 =
         0.02381    0.00234    0.00004   -0.00189
N2    3    0.782676    0.569253    0.639443    11.00000    0.04315    0.02763 =
         0.03911   -0.00002   -0.01123   -0.00157
C7    1    0.894660    0.249110    0.401500    11.00000    0.02283    0.02680 =
         0.02226    0.00386    0.00209   -0.00789
AFIX  13
H7    2    0.928071    0.294160    0.370865    11.00000   -1.20000
AFIX   0
C19   1    0.923113    0.173051    0.356020    11.00000    0.02220    0.02874 =
         0.02561    0.00062    0.00864   -0.00593
C8    1    0.954614    0.247318    0.488225    11.00000    0.02048    0.03353 =
         0.02659    0.00468   -0.00064   -0.00637
C1    1    0.707222    0.411299    0.441615    11.00000    0.03015    0.02101 =
         0.02855    0.00458   -0.00514   -0.00001
C13   1    1.010377    0.179376    0.520808    11.00000    0.02246    0.02928 =
         0.03344    0.00322    0.00129   -0.00367
C6    1    0.642616    0.405028    0.514906    11.00000    0.02693    0.03056 =
         0.03963   -0.00424    0.00125   -0.00668
AFIX  43
H6    2    0.584636    0.364546    0.520712    11.00000   -1.20000
AFIX   0
C14   1    0.979892    0.109081    0.394436    11.00000    0.02236    0.03102 =
         0.03421    0.00328    0.00252   -0.00361
C4    1    0.751749    0.517025    0.568644    11.00000    0.03234    0.02287 =
         0.03473   -0.00325   -0.00641    0.00022
C9    1    0.952566    0.314154    0.538946    11.00000    0.02867    0.03785 =
         0.03107   -0.00246   -0.00239    0.00101
AFIX  43
H9    2    0.917218    0.360772    0.518115    11.00000   -1.20000
AFIX   0
C15   1    0.997835    0.037651    0.353174    11.00000    0.03005    0.02676 =
         0.05076    0.00361    0.00264    0.00019
AFIX  43
H15   2    1.034922   -0.004953    0.381147    11.00000   -1.20000
AFIX   0
C2    1    0.789975    0.473317    0.431895    11.00000    0.04474    0.02858 =
         0.03073    0.00576   -0.00119   -0.00852
AFIX  43
H2    2    0.829674    0.479380    0.381899    11.00000   -1.20000
AFIX   0
C18   1    0.885812    0.164410    0.272347    11.00000    0.03404    0.03964 =
         0.02882    0.00467    0.00876    0.00074
AFIX  43
H18   2    0.846921    0.206556    0.244673    11.00000   -1.20000
AFIX   0
C10   1    1.001682    0.313295    0.619642    11.00000    0.03732    0.05335 =
         0.02824   -0.00508   -0.00396    0.00145
AFIX  43
H10   2    0.999845    0.358831    0.652187    11.00000   -1.20000
AFIX   0
C5    1    0.663692    0.458126    0.578834    11.00000    0.03417    0.03116 =
         0.03676   -0.00348    0.00641   -0.00190
AFIX  43
H5    2    0.619936    0.454484    0.627504    11.00000   -1.20000
AFIX   0
C12   1    1.058299    0.176704    0.602588    11.00000    0.03088    0.04437 =
         0.03415    0.01464   -0.00579   -0.00286
AFIX  43
H12   2    1.092992    0.130043    0.623797    11.00000   -1.20000
AFIX   0
C17   1    0.905987    0.093860    0.230016    11.00000    0.04800    0.04192 =
         0.02904   -0.00821    0.00907   -0.00352
AFIX  43
H17   2    0.882658    0.089601    0.174124    11.00000   -1.20000
AFIX   0
C11   1    1.053726    0.243482    0.651295    11.00000    0.03719    0.06039 =
         0.02507    0.00477   -0.00741   -0.00048
AFIX  43
H11   2    1.085539    0.242026    0.705638    11.00000   -1.20000
AFIX   0
C28   1    0.363098    0.246443    0.558326    11.00000    0.04090    0.03552 =
         0.04063   -0.00611    0.00980    0.00120
AFIX  23
H28A  2    0.345904    0.290939    0.594369    11.00000   -1.20000
H28B  2    0.323211    0.199554    0.580132    11.00000   -1.20000
AFIX   0
C16   1    0.960820    0.029971    0.271125    11.00000    0.03525    0.03243 =
         0.04682   -0.00622    0.01288    0.00064
AFIX  43
H16   2    0.972505   -0.017747    0.243444    11.00000   -1.20000
AFIX   0
C3    1    0.814185    0.526391    0.495897    11.00000    0.04233    0.02829 =
         0.04086    0.00609   -0.00537   -0.01055
AFIX  43
H3    2    0.871206    0.567412    0.490013    11.00000   -1.20000
AFIX   0
C29   1    0.314589    0.263013    0.472336    11.00000    0.02836    0.03279 =
         0.05393   -0.00062    0.00715    0.00357
AFIX  23
H29A  2    0.226405    0.275572    0.472796    11.00000   -1.20000
H29B  2    0.358210    0.307918    0.449311    11.00000   -1.20000
AFIX   0
C21   1    0.320556    0.127877    0.297035    11.00000    0.03605    0.05796 =
         0.03945    0.00479   -0.01154   -0.01385
AFIX  23
H21A  2    0.274199    0.085281    0.322220    11.00000   -1.20000
H21B  2    0.294978    0.131186    0.238866    11.00000   -1.20000
AFIX   0
C20   1    0.294734    0.203578    0.338878    11.00000    0.03132    0.05108 =
         0.04056    0.00563   -0.01009   -0.00236
AFIX  23
H20A  2    0.340319    0.246528    0.313706    11.00000   -1.20000
H20B  2    0.206388    0.215702    0.334682    11.00000   -1.20000
AFIX   0
C27   1    0.549574    0.201262    0.628667    11.00000    0.05428    0.04869 =
         0.02656   -0.00179    0.00098   -0.00894
AFIX  23
H27A  2    0.491929    0.165117    0.654258    11.00000   -1.20000
H27B  2    0.570698    0.243144    0.667957    11.00000   -1.20000
AFIX   0
C24   1    0.681199    0.001255    0.447923    11.00000    0.04707    0.02237 =
         0.06701    0.00421    0.01448    0.00206
AFIX  43
H24   2    0.668429   -0.053248    0.444157    11.00000   -1.20000
AFIX   0
C26   1    0.664505    0.157899    0.605051    11.00000    0.03848    0.05370 =
         0.03183    0.01238   -0.00699   -0.00699
AFIX  23
H26A  2    0.723017    0.194104    0.580410    11.00000   -1.20000
H26B  2    0.704620    0.133654    0.653542    11.00000   -1.20000
AFIX   0
C25   1    0.722892    0.045281    0.523780    11.00000    0.03082    0.05591 =
         0.05791    0.02987    0.00953    0.01577
AFIX  23
H25A  2    0.741116    0.008279    0.568656    11.00000   -1.20000
H25B  2    0.798186    0.074916    0.513141    11.00000   -1.20000
AFIX   0
C22   1    0.483695    0.030823    0.292992    11.00000    0.05743    0.03807 =
         0.04334   -0.00633    0.00184   -0.00571
AFIX  23
H22A  2    0.457103    0.013535    0.237811    11.00000   -1.20000
H22B  2    0.443452   -0.002312    0.333372    11.00000   -1.20000
AFIX   0
C23   1    0.619810    0.025187    0.303593    11.00000    0.05397    0.03993 =
         0.05280   -0.02351    0.01543   -0.00390
AFIX  23
H23A  2    0.644727   -0.029910    0.298607    11.00000   -1.20000
H23B  2    0.658305    0.054842    0.259695    11.00000   -1.20000
AFIX   0
HKLF 4

REM  wujc_0426_1_a.res in P2(1)/n
REM R1 =  0.0534 for    3714 Fo > 4sig(Fo)  and  0.0777 for all    5113 data
REM    388 parameters refined using      0 restraints

END

WGHT      0.0598      0.4160

REM Highest difference peak  0.531,  deepest hole -0.520,  1-sigma level  0.059
Q1    1   0.5961 -0.0253  0.4543  11.00000  0.05    0.53
Q2    1   0.7556 -0.0389  0.4327  11.00000  0.05    0.47
Q3    1   0.6073 -0.0083  0.3625  11.00000  0.05    0.35
Q4    1   0.5982  0.0377  0.4212  11.00000  0.05    0.30
Q5    1   0.5565  0.0573  0.2602  11.00000  0.05    0.26
Q6    1   0.9194  0.2428  0.4535  11.00000  0.05    0.25
Q7    1   0.7189  0.2592  0.3670  11.00000  0.05    0.23
Q8    1   0.8082  0.2588  0.4072  11.00000  0.05    0.23
Q9    1   0.7353  0.2726  0.3847  11.00000  0.05    0.22
Q10   1   0.7863  0.5197  0.5351  11.00000  0.05    0.22
Q11   1   0.4114  0.3250  0.2214  11.00000  0.05    0.21
Q12   1   1.0821  0.2171  0.6088  11.00000  0.05    0.21
Q13   1   0.6647  0.0611  0.5433  11.00000  0.05    0.20
Q14   1   0.8850  0.2034  0.3762  11.00000  0.05    0.20
Q15   1   0.5343  0.1324  0.2931  11.00000  0.05    0.19
Q16   1   0.9367  0.1229  0.2412  11.00000  0.05    0.19
Q17   1   0.9355  0.1820  0.3058  11.00000  0.05    0.19
Q18   1   0.8999  0.4421  0.5200  11.00000  0.05    0.19
Q19   1   0.5304  0.1043  0.2971  11.00000  0.05    0.19
Q20   1   0.6930  0.0399  0.4380  11.00000  0.05    0.19
;
_shelx_res_checksum              36375
_shelx_hkl_file
;
   0   0  -3    0.17    0.19
   0   0  -4 1436.11   12.72
   0   0  -5    1.63    0.64
   0   0  -6   74.13    3.67
   0   0  -7   11.62    1.71
   0   0  -8   52.59    3.58
   0   0  -9    1.09    0.81
   0   0 -10    0.71    0.77
   0   0 -11    1.39    0.89
   0   0 -12  316.19   10.83
   0   0  12  306.83   15.56
   0   0  13    8.31    3.10
   0   0 -13    5.00    1.48
   0   0 -14  424.82   13.44
   0   0  14  385.91   19.30
   0   0  15    2.39    2.26
   0   0  16   17.12    4.52
   0   0  17    2.93    1.83
   0   0  18   99.92   11.53
   0   0  19    2.61    2.40
   0   0  20   -1.58    2.39
   0   0 -20   -2.86    2.56
   0  -1   3   39.51    2.41
   0  -1   4  800.85    9.68
   0   1  -4  816.51   10.47
   0  -1   4  785.52   12.92
   0   1  -5   63.97    3.21
   0  -1   5   61.88    2.96
   0   1  -6  109.03    4.56
   0  -1   7  180.35    8.45
   0   1  -7  164.89    6.07
   0  -1   8  244.89   10.72
   0   1  -8  239.90    7.77
   0  -1  -8  249.16    7.82
   0  -1  -9    3.83    1.08
   0  -1   9    2.52    1.44
   0   1  -9    3.46    0.95
   0  -1 -10   -0.06    0.63
   0  -1  10    0.27    1.18
   0   1 -10    1.22    0.79
   0  -1  11   35.39    4.97
   0  -1 -11   41.62    3.74
   0   1 -11   43.14    3.94
   0  -1  12   10.02    2.91
   0  -1 -12    9.50    1.89
   0  -1  13   82.37    8.23
   0  -1 -13   74.01    5.43
   0  -1  14    3.76    2.31
   0  -1 -14    4.81    1.50
   0  -1  15  158.94   12.72
   0   1  15  163.34   13.41
   0  -1  16  348.18   19.58
   0   1  16  363.30   20.66
   0  -1  17    4.23    2.39
   0   1  17    7.10    3.59
   0   1 -18    3.64    2.72
   0   1  18    4.34    2.42
   0  -1  18    3.51    2.28
   0   1  19    9.00    3.89
   0   1 -19   15.29    5.20
   0  -1  19   11.32    4.01
   0   1  20   41.86    8.18
   0   1 -20   45.25    9.40
   0   1  21   -2.50    2.40
   0  -2   2  733.30    8.70
   0   2  -3  872.69   15.23
   0  -2   3  836.33   10.96
   0   2  -3  838.08   10.56
   0  -2   4 1732.97   17.37
   0  -2   4 1695.37   18.02
   0   2  -4 1676.43   23.24
   0   2  -5  703.76   16.43
   0  -2   5  667.18   10.93
   0  -2   5  639.14   12.72
   0  -2   6   28.04    2.29
   0  -2   6   22.48    2.65
   0  -2   7    1.92    0.99
   0  -2   7    0.45    0.31
   0  -2   8  105.32    6.77
   0  -2   8  102.21    4.79
   0  -2   9  341.93   13.10
   0  -2  10   32.78    4.42
   0  -2 -11    5.73    1.59
   0  -2  11    6.14    2.06
   0  -2 -12    8.56    1.90
   0  -2  12   13.25    3.13
   0  -2  13  334.69   16.41
   0  -2 -13  331.53   11.87
   0  -2 -14    1.04    0.90
   0  -2  14    2.05    1.06
   0  -2  15   41.14    6.32
   0   2 -15   40.89    7.28
   0   2  15   36.62    6.48
   0  -2  16   19.83    4.59
   0   2  16   33.40    6.43
   0   2 -16   35.91    7.17
   0  -2  17    8.58    3.10
   0   2  17    6.71    3.07
   0   2 -17    7.58    2.93
   0   2  18    7.47    3.42
   0  -2  18    9.54    3.59
   0   2 -18    5.59    3.44
   0  -2  19    5.94    2.87
   0   2  19    1.65    2.16
   0   2 -19    9.86    4.82
   0   2 -20   -4.19    3.38
   0   2  20   -1.15    1.85
   0   2  21    0.31    1.53
   0   3   0    0.06    0.70
   0   3  -1  499.37   12.18
   0   3   1  500.23   11.76
   0  -3  -1  496.76    9.35
   0   3  -2 1617.57   22.83
   0   3  -3  616.35   14.70
   0   3  -3  603.88    9.37
   0  -3   4 1131.38   14.63
   0   3  -4 1109.58   13.84
   0   3  -4 1078.08   20.54
   0   3  -5  256.18   10.71
   0  -3   5  276.67    8.15
   0  -3   5  262.20    7.89
   0  -3   6   40.79    3.20
   0  -3   6   44.01    3.72
   0   3  -6   48.00    5.12
   0  -3   7  866.02   17.43
   0  -3   7  929.42   15.16
   0   3  -7  914.17   22.99
   0  -3   8    1.56    0.74
   0  -3   8    3.18    0.93
   0   3  -8    3.05    2.05
   0  -3   9   62.14    5.52
   0   3  -9   62.46    6.94
   0  -3   9   62.30    4.14
   0   3 -10   49.06    6.26
   0  -3  10   43.80    4.89
   0  -3  11  646.74   20.08
   0   3 -11  659.22   24.19
   0   3 -12   58.22    7.64
   0  -3  12   45.08    5.58
   0  -3 -13  202.72    9.60
   0   3 -13  233.74   15.95
   0  -3  13  205.61   12.72
   0  -3 -14  475.77   14.98
   0  -3  14  442.17   19.53
   0   3 -14  470.97   23.60
   0  -3  15   32.20    5.64
   0   3 -15   24.31    5.83
   0   3 -16    3.25    2.35
   0   3  16    6.10    2.96
   0  -3  16    2.84    1.57
   0  -3  17   -1.02    1.29
   0   3  17   -1.40    1.54
   0   3 -18    0.98    2.25
   0  -3  18   -0.73    1.51
   0   3  18    0.32    2.08
   0   3 -19    7.00    3.77
   0   3  19    6.10    3.40
   0   3  20   11.99    4.56
   0   3 -20    8.60    4.83
   0   3  21    7.60    3.58
   0   4   0  140.59    7.31
   0   4  -1  304.35   10.96
   0   4   1  325.18   10.86
   0  -4  -1  312.71    8.56
   0   4   2 1130.53   17.18
   0   4  -2 1147.46   21.85
   0   4  -3   27.32    2.16
   0   4  -3   29.61    3.74
   0   4  -4    3.31    1.70
   0   4  -4    4.75    0.97
   0  -4   5  717.22   13.39
   0   4  -5  709.03   19.36
   0   4  -5  751.84   12.68
   0   4  -6  211.11   11.07
   0  -4   6  197.57    7.67
   0   4  -7  289.48   13.62
   0  -4   7  295.67    9.68
   0  -4   7  274.87    9.81
   0  -4   8  178.37    7.44
   0   4  -8  182.81   11.45
   0  -4   8  183.27    8.59
   0   4  -9  357.28   16.89
   0  -4   9  364.94   12.97
   0  -4   9  351.48   10.56
   0   4 -10   43.07    6.11
   0  -4  10   35.73    3.38
   0  -4  10   41.38    4.70
   0   4 -11  396.27   19.47
   0  -4  11  411.38   15.72
   0  -4  11  366.80   11.10
   0  -4  12  223.95   12.38
   0   4 -12  215.68   15.10
   0   4 -13    0.20    1.50
   0  -4  13    0.07    1.54
   0  -4  14    1.24    1.28
   0   4 -14    0.29    2.21
   0  -4 -14    1.12    0.91
   0  -4  15    6.12    2.57
   0  -4 -15    3.22    1.45
   0   4 -15    7.92    3.70
   0  -4  16    3.41    1.90
   0   4 -16    4.04    1.98
   0   4  17   11.71    4.34
   0   4 -17    9.37    4.25
   0  -4  17    5.81    2.69
   0   4 -18   33.19    7.83
   0   4  18   27.30    6.68
   0   4  19   -1.45    2.26
   0   4 -19   -3.77    2.90
   0   4  20    0.29    2.24
   0   4 -20    8.32    4.34
   0   4  21   -2.28    2.56
   0   5   0    1.13    0.86
   0   5   1  119.90    7.46
   0   5  -1  127.18    7.90
   0  -5  -1  130.73    6.22
   0   5  -2    1.24    0.45
   0   5  -2    1.47    1.03
   0   5   2    1.35    0.67
   0   5  -3  292.59   12.71
   0   5   3  315.05   10.42
   0   5  -4   22.12    3.69
   0   5  -4   18.89    2.02
   0   5  -5    4.05    1.58
   0   5  -5    3.60    0.90
   0   5  -6   25.66    4.25
   0   5  -6   23.25    2.43
   0   5  -7  192.70   11.83
   0  -5   7  179.04    7.79
   0   5  -8   93.63    8.59
   0  -5   8  105.17    6.44
   0  -5   8   97.27    6.11
   0  -5   9    8.17    1.88
   0  -5   9    6.73    1.54
   0   5  -9    9.45    3.15
   0   5 -10    2.81    2.13
   0  -5  10    1.66    1.15
   0   5 -11   13.18    4.09
   0  -5  11    6.86    2.03
   0  -5  12  313.02   14.33
   0   5 -12  324.76   18.93
   0  -5  13  188.62   11.72
   0   5 -13  199.40   15.52
   0   5 -14   31.94    6.97
   0  -5  14   37.00    5.41
   0  -5 -15   -0.02    0.73
   0  -5  15   -0.83    0.74
   0   5 -15    2.55    2.97
   0  -5  16   49.63    6.85
   0   5 -16   84.97   11.56
   0   5 -17    0.36    1.16
   0   5  18   20.09    5.67
   0   5 -18   16.70    5.68
   0   5 -19    1.14    1.71
   0   5  19   -7.08    3.67
   0   5  20   19.11    5.89
   0   5  21   -5.63    3.57
   0   6   0   71.75    6.46
   0   6   1   83.92    6.88
   0   6  -1   90.37    7.36
   0  -6  -1   80.59    5.37
   0   6  -2  186.08   10.66
   0  -6  -2  184.42    8.08
   0   6  -2  181.66    5.68
   0   6  -3    0.27    1.29
   0   6   3    0.28    0.63
   0   6  -4  671.68   12.87
   0   6  -4  647.56   21.06
   0   6   4  654.17   16.72
   0   6  -5   57.01    3.76
   0   6  -5   66.91    7.01
   0   6  -6  112.49    9.37
   0   6  -6  114.76    5.46
   0   6  -7  139.71    6.35
   0   6  -7  147.42   11.03
   0  -6   8   77.74    3.26
   0   6  -8   90.83    8.96
   0  -6   9   57.56    3.48
   0  -6   9   53.98    4.97
   0   6  -9   61.48    7.78
   0  -6  10    8.48    1.53
   0   6 -10    7.63    3.03
   0  -6  10    9.76    2.29
   0  -6  11   56.21    4.35
   0   6 -11   59.36    8.18
   0  -6  11   55.76    5.61
   0  -6  12   10.32    2.70
   0   6 -12   18.89    5.75
   0   6 -13   10.99    3.72
   0  -6  13    2.20    1.04
   0   6 -14  122.64   13.14
   0  -6  14  152.18   10.84
   0   6 -15   -0.28    2.55
   0  -6  15    1.00    0.81
   0   6 -16   22.09    6.30
   0   6 -17    1.67    1.81
   0   6 -18   40.83    8.86
   0   6  19    0.44    1.88
   0   6 -19    0.50    1.19
   0   6  20   55.39   10.26
   0   7   0    8.40    2.85
   0   7  -1   15.16    3.25
   0  -7  -1   16.09    2.67
   0   7   1   16.06    3.27
   0   7  -2  359.29    9.19
   0   7   2  381.20   15.80
   0   7  -2  347.47   15.82
   0  -7  -2  368.10   12.34
   0   7   3    5.76    1.63
   0   7  -3    1.36    1.48
   0   7  -3    4.48    0.87
   0   7   4  104.91    7.11
   0   7  -4   92.63    8.67
   0   7  -5  131.68    6.07
   0   7   5  115.11    7.80
   0   7  -5  127.33   10.33
   0   7  -6    6.43    1.37
   0   7  -6    4.67    2.18
   0   7  -7   30.14    5.53
   0   7  -7   28.39    2.94
   0   7  -8    5.92    2.81
   0   7  -9   13.22    3.62
   0  -7  10   40.43    2.43
   0   7 -10   41.48    7.04
   0  -7  11   14.99    1.83
   0   7 -11   13.35    4.42
   0  -7  11   18.96    3.23
   0  -7  12 1199.22   27.09
   0   7 -12 1316.58   41.07
   0  -7  13    0.31    0.87
   0   7 -13    0.80    1.58
   0   7 -14   33.90    7.18
   0  -7  14   27.09    4.52
   0   7 -15   27.06    6.65
   0   7 -16   33.20    7.66
   0   7 -17   17.30    5.81
   0   7 -18   23.05    6.64
   0   7 -19    0.19    1.32
   0   8   0   66.75    7.17
   0  -8  -1   10.96    2.36
   0   8  -1   10.84    3.06
   0   8   1   11.40    2.93
   0  -8  -2    9.77    2.13
   0   8  -2    9.18    1.60
   0   8   2   11.48    3.01
   0   8  -2   12.42    3.28
   0   8  -3    0.29    0.23
   0   8  -3    2.20    1.70
   0   8   4  934.12   21.97
   0   8  -4  932.48   28.68
   0   8   5   77.69    6.59
   0   8  -5   73.40    8.26
   0   8  -5   73.10    4.87
   0   8  -6   16.31    2.26
   0   8  -6   18.72    4.01
   0   8  -7   22.67    4.84
   0   8  -7   27.38    2.92
   0   8  -8  238.57   16.09
   0   8  -8  226.20    8.55
   0   8  -9   10.32    3.68
   0   8 -10   74.23    9.49
   0   8 -11   72.86    9.67
   0   8 -12    2.76    2.30
   0   8 -13   24.05    5.87
   0   8 -14   26.42    6.66
   0   8 -15    1.21    1.96
   0   8 -16    3.67    3.36
   0   8 -17   17.22    5.98
   0   8 -18   42.25    9.58
   0   9   0    1.93    1.93
   0   9  -1   37.15    3.87
   0   9   1   39.68    5.67
   0   9  -1   41.04    6.11
   0  -9  -1   39.81    4.69
   0   9   2    0.14    1.51
   0   9  -2    0.39    0.39
   0  -9  -2    0.38    0.63
   0   9  -2   -0.16    1.06
   0   9  -3   91.53    9.44
   0   9  -3   90.46    4.78
   0   9  -4   44.04    6.74
   0   9  -5   61.32    4.74
   0   9  -5   63.10    8.14
   0   9  -6  168.89   13.51
   0   9  -6  171.15    7.66
   0   9  -7   48.04    7.23
   0   9  -7   40.67    3.66
   0   9  -8  102.88    5.89
   0   9  -8  126.94   12.17
   0   9  -9   75.59    9.97
   0   9 -10  235.55   17.69
   0   9 -11   96.19   11.57
   0   9 -12  145.70   14.75
   0   9 -13   98.55   12.53
   0   9 -14   -0.24    2.10
   0   9 -15   94.93   13.19
   0   9 -16   -1.13    3.02
   0   9 -17    7.57    4.41
   0   9 -18    2.30    3.09
   0  10   0   -0.77    1.95
   0  10  -1  103.90    6.82
   0  10  -1  102.05   10.18
   0  10   1  102.66    9.89
   0 -10  -1  111.69    8.31
   0  10   2   80.55    8.71
   0  10  -2   80.36    9.03
   0 -10  -2   80.72    6.97
   0  10  -2   80.87    5.55
   0  10  -3  161.90   13.08
   0  10  -3  167.64    7.05
   0  10  -4   15.15    4.28
   0  10  -5  371.83   20.60
   0  10  -6    1.38    0.71
   0  10  -6   -0.13    1.59
   0  10  -7    8.18    1.72
   0  10  -7    7.32    3.85
   0  10  -8   51.75    8.32
   0  10  -9  119.21   12.74
   0  10 -10   61.97    9.61
   0  10 -11  174.02   16.19
   0  10 -12   -0.32    2.20
   0  10 -13   20.29    6.47
   0  10 -14    6.53    3.15
   0  10 -15    6.46    3.88
   0  10 -16   17.41    6.22
   0  10 -17    9.66    5.20
   0  10 -18    4.96    3.93
   0  11   0    0.83    1.78
   0 -11   0    0.58    0.64
   0  11  -1   10.22    2.26
   0 -11  -1    4.57    2.05
   0  11   1    6.97    3.02
   0  11  -1    5.81    3.02
   0  11  -2    0.27    1.26
   0  11   2   -0.94    2.40
   0  11  -2    0.37    0.44
   0 -11  -2    0.07    0.93
   0  11  -3   91.83    5.68
   0  11  -3   95.76   10.58
   0  11  -4   -0.63    2.15
   0  11  -5   10.62    3.79
   0  11  -6  249.31   18.04
   0  11  -7  237.97   17.86
   0  11  -8   -0.56    2.46
   0  11  -9    4.51    3.08
   0  11 -10  173.56   16.32
   0  11 -11  193.72   17.83
   0  11 -12    2.31    2.30
   0  11 -13   15.90    5.48
   0  11 -14    5.85    3.93
   0  11 -15   31.09    8.06
   0  11 -16    2.32    2.51
   0  11 -17   22.38    7.42
   0 -12   0  292.22   15.20
   0  12   0  325.87   19.42
   0 -12  -1  229.46   13.26
   0  12  -1  240.69   16.84
   0  12   1  231.67   16.24
   0  12   2  162.27   13.61
   0 -12  -2  174.26   11.20
   0  12  -2  172.71   14.67
   0  12  -2  172.62    9.10
   0  12  -3    2.60    1.05
   0  12  -3    2.17    1.67
   0  12  -4   87.19   10.69
   0  12  -4   74.50    4.64
   0  12  -5   77.70   10.44
   0  12  -6   27.65    6.50
   0  12  -7   38.94    7.55
   0  12  -8   39.72    7.94
   0  12  -9   82.88   11.35
   0  12 -10   84.52   12.02
   0  12 -11   37.20    8.01
   0  12 -12    0.02    1.72
   0  12 -13    6.50    3.77
   0  12 -14   -2.25    2.27
   0  12 -15   23.50    7.17
   0  12 -16   -1.54    2.96
   0  13   0    1.89    2.22
   0 -13   0    2.65    2.25
   0  13   1   95.43   10.84
   0 -13  -1   82.74    8.34
   0  13  -1   90.54   10.86
   0  13  -2  175.47   15.32
   0  13   2  212.19   16.21
   0 -13  -2  170.42   11.56
   0  13  -3   46.58    8.23
   0  13  -4   48.05    8.33
   0  13  -5   30.17    6.66
   0  13  -6   68.74   10.34
   0  13  -7    2.43    2.06
   0  13  -8    5.16    3.64
   0  13  -9   32.85    7.55
   0  13 -10    1.27    1.97
   0  13 -11    1.78    1.62
   0  13 -12   25.79    7.18
   0  13 -13   -7.29    4.10
   0  13 -14    2.18    3.87
   0  13 -15    8.12    5.07
   0  13 -16   37.48    9.67
   0  14   0 1581.60   46.68
   0 -14   0 1603.70   39.03
   0  14  -1   44.96    8.09
   0  14   1   34.89    6.76
   0 -14  -1   54.36    6.98
   0  14   2  169.97   15.21
   0 -14  -2  183.13   12.50
   0  14  -2  162.03   15.31
   0  14  -3  522.97   27.95
   0  14  -4   27.41    6.50
   0  14  -5   18.60    5.49
   0  14  -6   13.48    4.91
   0  14  -7    7.38    3.83
   0  14  -8   30.70    8.18
   0  14  -9    0.49    1.70
   0  14 -10    1.60    2.29
   0  14 -11   31.53    8.12
   0  14 -12    6.29    4.37
   0  14 -13   13.15    5.75
   0  14 -14   24.87    8.15
   0  14 -15   17.12    6.65
   0 -15   0    0.59    1.21
   0  15   0    3.86    3.02
   0 -15  -1    7.48    2.85
   0 -15   1    4.25    2.37
   0  15  -1    2.26    1.54
   0  15   1    3.23    2.53
   0  15  -2   69.84   10.42
   0 -15  -2   83.49    8.77
   0  15   2   92.35   11.66
   0  15  -3    4.89    2.49
   0  15  -4   -0.23    2.02
   0  15  -5   87.94   12.25
   0  15  -6   72.00   11.29
   0  15  -7   74.74   11.60
   0  15  -8   26.49    7.06
   0  15  -9   -0.20    2.75
   0  15 -10    8.00    4.01
   0  15 -11   -0.42    1.62
   0  15 -12   11.46    4.96
   0  15 -13   -0.10    1.58
   0  15 -14    7.59    4.67
   0  16   0   43.45    8.33
   0 -16   0   46.56    7.16
   0 -16   1    5.69    3.00
   0  16  -1    0.51    1.96
   0 -16  -1    2.60    1.70
   0  16   1    2.93    2.75
   0  16  -2   28.63    6.93
   0 -16  -2   27.83    5.26
   0  16  -3   -0.17    1.82
   0  16  -4   52.86    9.82
   0  16  -5   33.41    7.90
   0  16  -6    4.54    2.68
   0  16  -7    2.81    3.34
   0  16  -8    4.86    3.35
   0  16  -9   80.49   12.98
   0  16 -10    4.61    3.36
   0  16 -11   21.36    7.29
   0  16 -12   -2.15    2.69
   0  16 -13    2.40    2.83
   0 -17   0    0.85    1.93
   0  17   0    1.32    1.98
   0  17  -1   55.71   10.00
   0 -17   1   54.37    8.11
   0  17   1   64.89   10.62
   0 -17  -1   64.67    8.38
   0 -17   2    1.57    1.67
   0  17  -2    2.84    2.84
   0  17  -3  102.33   13.59
   0  17  -4   27.90    7.20
   0  17  -5    4.55    2.99
   0  17  -6   55.74   10.66
   0  17  -7   67.08   11.73
   0  17  -8   43.31    9.66
   0  17  -9   15.27    6.17
   0  17 -10   47.68   10.45
   0  17 -11   40.59    9.63
   0  17 -12   11.61    5.52
   0  18   0    0.71    1.99
   0 -18   0    3.97    2.36
   0  18  -1   41.93    9.00
   0 -18   1   32.99    6.44
   0  18   1   42.44    8.96
   0  18  -2   -1.74    2.64
   0 -18   2    4.58    2.58
   0  18  -3    6.33    3.77
   0  18  -4   62.29   11.32
   0  18  -5    1.49    1.88
   0  18  -6    7.29    4.36
   0  18  -7   -4.29    3.40
   0  18  -8   77.32   13.29
   0  18  -9    7.15    4.28
   0  18 -10   12.28    5.50
   0  18 -11    5.00    3.90
   0  19   0   -0.26    2.73
   0  19  -1   26.32    7.30
   0  19   1   24.57    7.01
   0  19  -2   68.09   11.88
   0 -19   3    7.18    3.28
   0  19  -3    8.21    4.42
   0  19  -4    4.66    2.73
   0  19  -5   -8.45    4.57
   0  19  -6   18.33    6.64
   0  19  -7    9.61    5.62
   0  19  -8   17.81    6.82
   0  19  -9    6.09    4.78
   0  20   0   19.25    6.38
   0  20  -1    1.85    2.45
   0  20  -2   10.54    5.03
   0  20  -3    5.07    3.63
   0  20  -4    5.56    3.01
   0  20  -5   19.19    6.68
   0  20  -6    1.88    2.33
   0  20  -7   24.13    7.70
   0  21   0    1.99    1.95
   0  21  -1   14.09    5.60
   0  21  -2    3.01    3.04
   0  21  -3    6.90    4.67
   0  21  -4    3.13    2.83
   1   0 -20    2.27    1.43
  -1   0  19   15.57    4.49
   1   0 -19   33.00    7.52
  -1   0  18    0.40    1.22
  -1   0  17    0.61    1.44
  -1   0  16   -0.27    1.58
   1   0 -15  256.77   12.32
  -1   0  15  272.93   16.59
   1   0 -14   -0.01    0.76
   1   0 -13   59.86    5.56
   1   0 -12    0.06    0.54
   1   0 -11    0.65    0.80
   1   0 -10   -0.55    1.03
   1   0  -9  436.88   12.51
   1   0  -8   -0.10    0.65
   1   0  -7  136.64    6.23
   1   0  -6   -0.04    0.38
   1   0  -5    2.44    0.79
   1   0  -4    0.27    0.32
   1   0  -3  420.01    8.31
   1   0   3   73.05    4.17
   1   0   3   77.59    4.33
   1   0   4    0.48    0.35
   1   0   4    2.17    0.87
   1   0   5   18.06    2.54
  -1   0  -6   -0.14    0.20
   1   0   6    1.58    1.17
  -1   0  -7 5112.72   24.49
   1   0   7 5255.49   50.26
  -1   0  -8    0.27    0.27
   1   0   8    1.06    1.43
  -1   0  -9  385.42    8.13
   1   0   9  412.76   15.93
  -1   0 -10    0.06    0.27
   1   0  10    1.11    1.33
  -1   0 -11    3.57    0.93
   1   0  11    4.48    1.98
  -1   0 -12   -0.23    0.42
   1   0  12    0.91    1.37
   1   0  13  148.49   11.86
   1   0  14    0.95    1.31
   1   0  15  163.61   13.50
   1   0  16   -1.87    2.48
   1   0  17    9.95    3.61
   1   0  18   -0.45    1.16
   1   0  19    8.37    3.68
   1   0  20    0.08    1.11
   1   0  21    1.75    1.59
  -1   1  20    7.20    3.21
   1   1 -20    8.54    4.32
  -1  -1  19   40.43    7.35
  -1   1  19   43.81    7.91
   1   1 -19   40.97    8.44
  -1  -1  18    0.67    1.03
   1   1 -18    1.91    1.74
  -1   1  18    1.52    1.38
  -1  -1  17    8.30    3.22
  -1   1  17    9.73    3.14
   1   1 -17   15.90    4.97
  -1  -1  16   14.72    3.92
  -1   1  16   18.84    4.85
   1  -1 -15   46.94    5.25
  -1  -1  15   42.54    6.43
   1   1 -14    7.26    2.04
  -1  -1  14    1.47    1.26
   1  -1 -14    9.99    2.41
   1   1 -13    5.74    1.67
   1  -1 -13    4.26    1.47
  -1  -1  13    6.21    1.99
   1   1 -12   30.51    3.88
   1  -1 -12   28.09    3.65
   1   1 -11   27.35    3.52
   1  -1 -11   31.16    3.68
   1   1 -10   57.51    4.87
   1  -1 -10   60.71    4.93
   1   1  -9   25.33    3.07
   1  -1  -9   22.69    2.83
   1  -1  -8  223.11    8.56
   1   1  -8  220.11    8.71
   1  -1  -7   23.23    2.61
   1   1  -7   21.81    2.59
  -1  -1   6   64.48    3.95
   1   1  -6   62.92    4.16
  -1  -1   5 1316.05   17.06
   1   1  -5 1293.78   17.96
   1   1  -4   17.53    1.96
  -1  -1   4   16.97    1.83
   1   1  -3   24.57    2.32
   1   1  -3   20.56    1.99
   1   1  -2   34.15    2.43
   1  -1   2   51.21    2.71
   1   1   2   51.75    3.45
   1  -1   2   51.87    3.18
   1  -1   3   62.97    3.45
   1  -1   3   63.94    3.91
   1   1   3   68.33    4.39
   1  -1   4   52.60    3.56
   1  -1   4   52.59    3.91
   1  -1   5   52.17    4.27
   1  -1   5   53.77    3.99
   1  -1   6  101.75    6.01
   1  -1   6   98.06    6.25
   1  -1   7   10.09    2.33
   1  -1   8  624.67   18.15
  -1  -1  -9  632.21   10.95
   1   1   9  624.97   20.32
   1  -1   9  655.18   19.77
  -1  -1 -10   17.08    1.92
   1   1  10   19.22    3.79
   1  -1  10   15.80    3.32
   1   1  11   26.32    4.59
  -1  -1 -11   24.35    2.42
   1  -1  11   24.35    4.29
   1  -1  12   20.99    4.12
  -1  -1 -12   22.89    2.45
   1   1  12   12.81    3.34
   1   1  13   -1.84    1.98
  -1  -1 -13   -0.16    0.37
   1  -1  13    1.70    1.91
   1  -1  14    7.01    2.83
   1   1  14    7.54    3.19
   1   1  15   -0.94    1.90
   1  -1  15    1.93    1.50
   1   1  16   25.39    5.73
   1  -1  16   23.91    5.38
   1  -1  17   41.04    7.34
   1   1  17   35.49    6.95
   1  -1  18   -2.08    2.03
   1   1  18    2.34    1.94
  -1   1 -19   -1.63    3.14
   1  -1  19    0.55    1.64
   1   1  19    0.38    1.60
  -1   1 -20    0.11    1.25
   1   1  20   -2.72    2.29
   1  -1  20   -2.11    2.04
   1   1  21   26.85    6.93
  -1   2  21    5.49    3.23
  -1   2  20    2.03    1.80
   1   2 -20    3.61    2.42
   1   2 -19   -2.23    2.25
  -1   2  19    1.54    1.56
  -1  -2  18   28.59    5.81
   1   2 -18   29.10    6.84
  -1   2  18   32.91    6.72
   1   2 -17    1.55    1.95
  -1   2  17    0.47    1.46
  -1  -2  17    2.75    1.85
   1   2 -16    6.60    3.54
  -1  -2  16    0.25    1.03
   1  -2 -15   -0.29    0.91
   1   2 -15    0.41    1.80
  -1  -2  15   -0.55    0.95
   1  -2 -14    5.91    1.84
   1   2 -14    8.68    3.13
  -1  -2  14    5.66    2.45
   1  -2 -13  115.99    7.82
   1   2 -13  110.69   10.88
  -1  -2  13  102.02    8.73
  -1  -2  12   63.97    6.66
   1  -2 -12   74.69    6.04
   1   2 -12   74.45    8.44
   1  -2 -11   64.78    5.39
   1   2 -11   59.81    7.21
  -1  -2  11   63.04    6.08
  -1  -2  10  346.53   13.43
   1  -2 -10  341.11   11.95
   1   2 -10  334.41   12.05
   1   2  -9  143.67    9.94
   1   2  -9  143.38    7.62
  -1  -2   8  150.57    6.81
   1   2  -8  154.01    7.61
   1   2  -8  157.26    9.68
  -1  -2   7   60.27    4.15
   1   2  -7   64.45    4.73
   1   2  -7   70.02    6.04
   1   2  -6   42.63    4.39
   1   2  -6   37.20    3.46
  -1  -2   6   42.04    3.36
   1   2  -5  133.14    6.19
   1   2  -5  147.91    7.66
  -1  -2   5  144.67    5.99
   1   2  -4   72.09    4.92
  -1  -2   4   72.14    4.07
   1   2  -3  119.65    5.90
   1   2  -2   70.80    4.29
   1   2  -1  287.09    8.24
   1   2   1  232.63    7.17
  -1   2  -2  131.97    5.23
   1   2   2  121.02    5.74
  -1   2  -3  199.13    7.19
   1  -2   3  199.44    7.06
   1   2   3  199.03    8.02
  -1   2  -3  192.52    5.31
   1  -2   3  199.65    5.38
   1  -2   4  107.00    4.54
  -1   2  -4  121.30    5.76
   1  -2   4  118.30    5.94
  -1   2  -5  706.46   14.89
   1  -2   5  700.18   15.44
   1  -2   5  677.70   13.06
   1  -2   5  746.52    9.27
   1  -2   6  190.54    7.58
   1  -2   6  199.73    4.77
   1  -2   6  211.70    9.06
   1  -2   7  140.79    7.16
   1  -2   7  126.67    7.61
   1  -2   7  133.43    4.04
   1  -2   8  844.22   20.76
   1  -2   8  821.28   18.80
   1  -2   9  139.56    8.22
   1  -2   9  139.50    9.03
   1  -2  10  206.64   11.61
  -1  -2 -11   19.96    2.33
   1  -2  11   19.39    3.75
  -1  -2 -12    1.03    0.57
   1   2  12    2.17    1.39
   1  -2  12    2.67    1.74
  -1  -2 -13   13.71    2.05
   1  -2  13   16.91    3.92
   1   2  13   15.78    4.08
   1  -2  14  116.29   10.67
   1   2  14  125.09   11.74
   1   2  15  133.14   12.58
   1  -2  15  122.84   11.44
   1   2  16   81.08   10.28
   1  -2  16   68.23    8.87
   1   2  17   41.10    7.62
  -1   2 -17   43.52    8.28
   1  -2  17   36.60    6.72
  -1   2 -18    6.18    3.66
   1  -2  18    1.72    1.80
   1   2  18    7.68    3.36
   1  -2  19   57.96    9.08
   1   2  19   71.03   10.61
  -1   2 -19   78.13   11.89
   1   2  20   -2.21    2.21
  -1   2 -20    6.28    3.72
   1   2  21    8.43    4.75
  -1   3  21   -2.87    2.17
  -1   3  20   12.22    4.52
   1   3 -20   17.59    6.48
  -1   3  19    3.04    2.54
   1   3 -19    0.49    2.05
   1   3 -18   -2.11    2.20
  -1   3  18   -2.12    2.06
   1   3 -17   24.93    6.18
  -1  -3  17   24.03    4.94
   1   3 -16   47.17    8.22
  -1  -3  16   44.90    6.56
  -1  -3  15   61.03    7.29
   1  -3 -15   62.60    6.16
   1   3 -15   55.29    8.50
   1   3 -14  144.57   13.07
   1  -3 -14  130.99    8.72
  -1  -3  14  143.82   10.64
  -1  -3  13   31.78    4.77
   1  -3 -13   34.32    4.34
   1   3 -13   33.49    5.99
  -1  -3  12    0.55    0.87
   1  -3 -12    1.72    1.32
   1   3 -12    0.28    1.26
   1   3 -11    2.57    2.23
  -1  -3  11    0.19    1.00
  -1  -3  10    5.22    1.53
   1   3 -10    5.10    2.71
  -1  -3   9  901.65   19.27
   1   3  -9  896.27   25.61
   1   3  -8  498.80   18.13
  -1  -3   8  496.78   13.09
  -1  -3   8  509.09   13.10
  -1  -3   7   26.81    2.75
  -1  -3   7   25.84    2.88
   1   3  -7   20.74    3.57
  -1  -3   6  565.74   11.01
   1   3  -6  565.16   17.19
  -1  -3   6  595.69   13.55
  -1  -3   5   14.33    2.07
   1   3  -5   13.98    2.61
  -1  -3   5   12.12    1.38
  -1  -3   4  547.20    7.19
  -1  -3   4  590.32   13.23
   1   3  -4  534.46   15.03
   1   3  -3  271.72   10.21
   1   3  -2 2405.91   29.02
   1  -3  -1  184.44    7.26
   1   3  -1  193.43    8.05
  -1   3   1  198.27    6.87
   1   3   0   17.57    1.97
   1   3   0   23.49    2.76
  -1   3   0   17.38    2.11
  -1   3  -1  911.72   15.60
   1   3   1  913.91   15.67
   1   3   1  884.82   16.83
   1   3   2 1918.09   24.71
  -1   3  -2 1924.69   23.75
  -1   3  -3 1815.68   13.58
  -1   3  -3 1723.82   24.09
  -1   3  -3 1814.80   21.82
  -1   3  -4    4.35    1.32
  -1   3  -4    4.04    1.12
   1  -3   4    4.84    1.21
   1  -3   5    7.38    1.63
  -1   3  -5    6.99    1.48
   1  -3   5    5.88    1.07
  -1   3  -5    5.72    1.64
   1  -3   6  221.41    9.32
  -1   3  -6  230.83   10.66
  -1   3  -6  204.10    8.49
   1  -3   6  210.10    7.24
  -1   3  -7   95.15    7.35
   1  -3   7   85.82    5.18
   1  -3   7   78.66    5.94
   1  -3   7   90.87    4.02
   1  -3   8  111.73    7.57
  -1   3  -8  110.17    8.51
   1  -3   8  104.18    6.23
   1  -3   8  112.06    4.51
   1  -3   9   42.78    4.32
   1  -3   9   42.18    4.92
   1  -3   9   47.73    2.97
  -1   3  -9   43.00    5.67
   1  -3  10   16.92    3.26
   1  -3  10   17.21    2.94
  -1   3 -10   18.28    3.99
  -1   3 -11   69.37    7.84
   1  -3  11   66.06    6.88
  -1   3 -12   89.11    9.50
   1  -3  12   93.58    8.60
  -1  -3 -13   13.18    2.21
   1   3  13    8.51    3.17
   1  -3  13   12.17    3.32
  -1   3 -13    8.63    3.45
  -1   3 -14  130.40   12.64
  -1  -3 -14  118.85    6.59
   1  -3  14  123.56   10.85
   1   3  14  114.22   11.46
  -1   3 -15   28.18    6.06
   1   3  15   22.05    5.31
   1  -3  15   26.00    5.17
   1  -3  16   14.90    4.14
  -1   3 -16   22.36    5.59
   1   3  16   13.91    4.13
   1   3  17    7.40    3.52
  -1   3 -17    1.54    1.46
   1  -3  17    5.15    2.45
   1  -3  18    1.05    1.68
  -1   3 -18   -2.00    1.78
   1   3  19    4.25    3.18
  -1   3 -19   -0.26    2.34
   1   3  20   -3.12    2.61
  -1   3 -20   -1.34    2.10
   1   3  21   53.31   10.02
  -1   4  21   22.57    6.46
   1   4 -20   16.93    6.06
  -1   4  20    3.52    2.44
  -1   4  19    9.18    3.98
   1   4 -19   10.82    5.06
   1   4 -18    3.19    2.29
   1   4 -17   14.93    5.29
   1   4 -16    2.22    2.85
  -1  -4  16    5.13    2.12
  -1  -4  15    3.56    2.11
   1  -4 -15    3.48    1.93
   1   4 -15    0.75    1.39
  -1  -4  14   42.82    5.70
   1  -4 -14   54.93    5.88
   1   4 -14   51.83    8.29
   1   4 -13  101.85   10.84
  -1  -4  13   98.99    8.19
  -1  -4  12  281.94   12.93
   1   4 -12  292.46   17.42
  -1  -4  11   47.85    5.01
   1   4 -11   51.63    7.12
   1   4 -10  219.60   13.79
  -1  -4  10  228.58   10.13
   1   4  -9    8.37    2.80
  -1  -4   9    5.32    1.50
   1   4  -8  371.15   16.39
  -1  -4   8  393.26   11.07
   1   4  -7    9.34    2.21
  -1  -4   7    9.68    1.91
  -1  -4   7   10.29    1.64
   1   4  -6    0.32    0.83
  -1  -4   6    0.58    0.35
  -1  -4   6    0.65    0.41
  -1  -4   5  178.17    7.99
   1   4  -5  159.88    9.41
  -1  -4   5  150.78    4.54
   1   4  -4 1440.77   27.10
   1   4  -3   34.51    4.13
   1   4  -2  129.13    7.69
  -1  -4   2  119.76    4.57
  -1  -4   1    0.27    0.42
   1  -4  -1    0.94    0.66
  -1   4   1    0.17    0.46
   1   4  -1    0.35    0.29
   1   4  -1    0.65    0.72
   1   4   0 2285.24   24.52
   1   4   0 2272.29   30.40
  -1   4   0 2226.61   27.80
  -1   4  -1  223.77    8.99
   1   4   1  229.01    8.51
   1   4   1  218.57    9.33
  -1  -4  -1  218.43    5.15
  -1   4  -2  977.54   19.58
   1   4   2 1008.07   19.23
   1   4   2  952.93   11.84
  -1   4  -3  637.50   13.69
  -1   4  -3  614.85   16.17
  -1   4  -4   28.74    3.67
  -1   4  -4   31.39    3.10
   1  -4   5   16.16    2.47
  -1   4  -5   15.44    2.28
  -1   4  -5   13.78    2.76
   1  -4   6  956.31   19.51
   1  -4   6  882.17   13.09
  -1   4  -6  964.43   18.59
  -1   4  -6  977.31   23.42
  -1   4  -7   -0.71    1.24
   1  -4   7   -0.56    0.95
   1  -4   7    1.19    0.65
  -1   4  -7   -0.08    0.65
   1  -4   8   36.50    3.01
   1  -4   8   32.05    3.16
   1  -4   8   32.10    4.09
  -1   4  -8   38.32    5.18
   1  -4   9   78.38    5.38
   1  -4   9   80.51    4.38
   1  -4   9   78.45    6.67
  -1   4  -9   87.10    8.22
   1  -4  10  398.86   15.88
   1  -4  10  376.94    9.48
   1  -4  10  372.49   12.80
  -1   4 -10  427.98   19.08
   1  -4  11    3.57    0.93
   1  -4  11    5.52    2.25
   1  -4  11    5.02    1.65
  -1   4 -11    3.66    1.62
   1  -4  12   28.65    4.81
  -1   4 -12   23.98    5.06
   1  -4  13    1.35    1.17
  -1   4 -13   -1.48    2.34
  -1   4 -14  238.61   17.30
   1  -4  14  281.62   16.20
  -1  -4 -14  248.06   10.22
   1   4  15    5.75    2.54
   1  -4  15    1.98    1.32
   1  -4  16    9.07    3.14
   1   4  16    3.65    2.61
  -1   4 -16    9.56    3.58
   1   4  17    3.09    1.99
  -1   4 -17   -1.23    2.28
   1  -4  17    4.85    2.56
  -1   4 -18   30.67    7.50
   1   4  18   35.93    7.65
   1  -4  18   33.25    6.46
  -1   4 -19    7.77    4.07
   1   4  19    6.04    3.03
   1   4  20   14.48    5.19
   1   4  21    0.01    1.75
  -1   5  21    0.40    2.31
  -1   5  20   28.39    7.04
   1   5 -19    2.97    2.86
   1   5 -18   37.63    8.27
   1   5 -17   13.05    4.85
   1   5 -16   44.72    8.44
   1   5 -15   87.23   11.21
   1  -5 -15   87.25    7.65
  -1  -5  15   79.57    7.87
  -1  -5  14    2.15    1.49
   1   5 -14   -0.87    1.92
  -1  -5  13    0.96    0.91
   1   5 -13    2.46    2.55
  -1  -5  12   27.56    3.97
   1   5 -12   22.48    5.09
  -1  -5  11  339.77   12.90
   1   5 -11  328.74   18.43
   1   5 -10  118.89   10.70
  -1  -5  10  148.23    7.89
  -1  -5   9    0.71    0.55
   1   5  -9   -0.70    1.90
  -1  -5   8    4.65    1.18
   1   5  -8    3.96    1.81
   1   5  -7   97.28    8.61
  -1  -5   7   94.04    4.63
   1   5  -6 2422.62   41.23
   1   5  -5  890.42   24.09
   1   5  -4    7.25    2.10
  -1   5   3  140.61    8.05
   1  -5  -3  138.14    8.17
   1   5  -3  135.66    8.86
  -1  -5   3  142.48    4.92
   1   5  -2 1297.21   26.47
  -1   5   2 1254.59   23.46
  -1  -5   2 1301.70   16.35
   1  -5  -2 1304.79   24.15
   1  -5  -2 1348.84   23.42
   1   5  -1  309.73    9.08
  -1   5   1  310.83   11.51
   1  -5  -1  302.95   11.20
  -1  -5   1  318.06    8.94
   1   5  -1  299.66   12.61
  -1   5   0  234.24   10.09
   1   5   0  244.83    8.68
   1   5   0  238.73   11.01
  -1   5  -1   22.70    3.27
   1   5   1   25.13    3.58
  -1  -5  -1   22.86    2.02
   1   5   1   22.50    2.83
  -1   5  -2  179.70    9.37
   1   5   2  194.36    8.98
  -1   5  -3 2150.38   33.26
   1   5   3 2191.25   22.32
  -1   5  -4  375.81   14.42
  -1   5  -4  416.41   11.85
  -1   5  -5    8.63    2.20
  -1   5  -5   10.38    1.88
  -1   5  -6  398.86   16.16
  -1   5  -6  433.15   12.61
   1  -5   7   79.58    6.08
  -1   5  -7   85.83    7.83
  -1   5  -7   86.73    5.92
   1  -5   8  184.71    6.60
  -1   5  -8  182.28   11.96
   1  -5   8  192.37    7.97
   1  -5   8  180.72    9.60
  -1   5  -9   -0.44    1.54
   1  -5   9    1.67    0.72
   1  -5   9    2.51    1.26
   1  -5   9    1.90    0.82
   1  -5  10    0.41    0.57
  -1   5 -10    2.09    2.05
   1  -5  10    0.40    0.37
   1  -5  10   -0.45    0.88
   1  -5  11   81.78    5.93
   1  -5  11   86.39    7.81
  -1   5 -11   89.06    9.55
   1  -5  11   83.39    4.91
   1  -5  12   26.87    4.51
  -1   5 -12   40.77    6.83
  -1   5 -13    5.75    2.92
   1  -5  13    2.66    1.49
   1  -5  14   15.35    3.69
  -1   5 -14   13.82    4.45
  -1   5 -15   47.27    8.15
   1  -5  15   71.76    8.51
   1   5  16   23.51    5.81
  -1   5 -16   22.82    6.05
   1  -5  16   16.50    4.28
  -1   5 -17   27.82    7.06
   1   5  17   27.12    6.57
   1  -5  17   25.29    5.38
   1   5  18   -3.90    2.82
  -1   5 -18    1.50    2.85
  -1   5 -19   11.11    4.55
   1   5  19    8.52    4.14
   1   5  20   -1.66    2.26
   1   6 -19   -3.15    2.54
   1   6 -18    5.83    3.18
   1   6 -17  229.61   20.14
   1   6 -16    4.92    2.58
   1   6 -15    5.30    3.27
  -1  -6  14   43.61    5.38
   1   6 -14   42.17    7.64
  -1  -6  13  265.02   12.46
   1   6 -13  262.20   18.59
  -1  -6  12    2.26    1.28
   1   6 -12    5.91    3.15
   1   6 -11    3.66    2.43
  -1  -6  11    2.05    1.15
   1   6 -10   18.39    4.27
  -1  -6  10   21.87    2.92
  -1  -6   9  204.58    8.15
   1   6  -9  215.44   14.36
   1   6  -8   31.63    5.17
   1   6  -7    0.02    1.70
   1   6  -6  206.75   12.86
  -1  -6   5    7.33    1.07
   1   6  -5    5.03    1.82
   1   6  -5    7.11    0.89
   1   6  -4 1683.27   34.51
  -1   6   4 1738.32   30.51
  -1  -6   4 1620.19   16.31
   1   6  -3   57.74    6.30
  -1   6   3   52.69    5.20
  -1  -6   3   53.45    3.19
   1  -6  -2  139.23    8.03
   1   6  -2  137.42    5.93
   1  -6  -2  148.16    8.94
   1   6  -2  172.01   10.52
   1   6  -1  362.35   10.50
  -1   6   1  365.23   13.69
   1  -6  -1  360.26   13.91
   1  -6  -1  331.94   12.64
   1   6  -1  355.64   14.76
  -1   6   0  211.34   10.76
   1   6   0  225.94   11.57
   1  -6   0  225.14   10.96
   1   6   0  214.28    8.86
   1   6   1  445.36   16.19
   1   6   1  478.84   14.09
  -1  -6  -1  478.27   10.77
  -1   6  -1  447.53   15.79
   1   6   2   16.90    2.84
  -1   6  -2   19.78    3.37
  -1   6  -3  339.61   14.45
   1   6   3  332.46    9.53
  -1   6  -4    6.96    2.00
  -1   6  -4    9.57    1.93
   1   6   4   10.54    1.87
  -1   6  -5  925.93   25.30
  -1   6  -5  963.73   19.09
  -1   6  -6   76.43    7.53
  -1   6  -6   68.79    5.21
  -1   6  -7  456.60   13.75
  -1   6  -7  471.72   19.46
  -1   6  -8  152.82   11.42
   1  -6   9  347.11   14.11
  -1   6  -9  377.28   18.76
   1  -6   9  388.10   12.46
   1  -6  10  495.14   13.63
  -1   6 -10  458.26   21.50
   1  -6  10  446.84   11.02
   1  -6  10  440.18   16.59
   1  -6  11  221.71   12.28
  -1   6 -11  234.19   15.88
   1  -6  11  203.19    8.27
  -1   6 -12  206.44   15.77
   1  -6  12  222.56   12.91
  -1   6 -13   37.12    6.96
   1  -6  13   37.26    5.50
   1  -6  14   32.78    5.34
  -1   6 -14   32.55    7.01
  -1   6 -15   57.56    9.21
   1  -6  15   70.34    8.22
   1  -6  16    0.50    1.25
  -1   6 -16    0.51    2.32
  -1   6 -17    8.70    4.24
   1   6  17   11.90    4.50
  -1   6 -18   -1.83    2.72
   1   6  18    0.17    2.27
   1   6  19   18.20    5.77
  -1   6 -19   33.37    8.36
   1   6  20    2.18    3.68
   1   7 -19   89.21   14.74
   1   7 -18    3.71    3.00
   1   7 -17   -0.65    1.35
   1   7 -16   22.05    6.52
   1   7 -15   59.96    9.89
   1   7 -14   36.01    7.36
   1   7 -13    5.08    2.06
  -1  -7  13    2.72    1.15
  -1  -7  12   63.75    5.63
   1   7 -12   74.51    9.89
   1   7 -11   39.15    6.86
  -1  -7  11   45.25    4.34
   1   7 -10  242.33   16.61
   1   7  -9   48.06    7.40
   1   7  -8   62.42    7.95
   1   7  -7   89.39    9.30
  -1  -7   7   80.09    3.22
   1   7  -6    0.40    0.31
   1   7  -6    1.67    1.77
  -1  -7   6    0.01    0.14
  -1  -7   5  227.21    5.59
   1   7  -5  237.89    5.64
   1   7  -5  250.88   14.70
   1   7  -4   93.65    8.85
  -1   7   3  290.88   12.93
   1   7  -3  324.60   15.94
   1   7  -2    4.82    1.15
   1  -7  -2    4.30    1.43
  -1   7   2    0.76    0.79
   1   7  -2    5.72    2.01
   1   7  -1  733.18   16.05
  -1   7   1  717.05   20.89
   1  -7  -1  702.08   19.47
   1   7  -1  722.40   22.95
   1   7   0   22.56    3.07
   1   7   0   20.89    3.72
  -1   7   0   22.33    3.73
   1   7   1   23.16    3.30
   1   7   1   23.47    4.11
  -1   7  -1   20.06    3.70
  -1  -7  -1   25.03    2.80
  -1   7  -2  243.92   12.93
   1   7   2  258.30   13.37
   1   7   2  242.41   11.25
  -1   7  -3 4152.97   54.40
   1   7   4  604.32   14.87
  -1   7  -4  608.87   21.31
  -1   7  -5  561.00   15.12
  -1   7  -5  574.29   21.33
   1   7   5  563.48   15.21
  -1   7  -6  133.31    7.43
  -1   7  -6  137.43   10.77
  -1   7  -7  124.15    7.25
  -1   7  -7  128.12   10.71
  -1   7  -8   -1.85    2.26
  -1   7  -9    3.95    2.14
  -1   7 -10   34.91    6.43
  -1   7 -11  525.98   25.01
  -1   7 -12    7.58    3.60
   1  -7  12    5.18    2.14
  -1   7 -13   18.78    5.37
   1  -7  13   18.82    3.93
   1  -7  14   30.81    5.23
  -1   7 -14   27.16    6.25
  -1   7 -15   26.12    6.53
   1  -7  15   33.37    5.57
  -1   7 -16   64.19   10.50
  -1   7 -17   22.42    6.60
   1   7  17   11.69    4.46
   1   7  18   -7.80    3.88
  -1   7 -18    9.59    5.32
   1   7  19  118.63   14.99
  -1   7 -19  100.92   14.85
   1   8 -18   12.64    5.23
   1   8 -17   42.07    9.14
   1   8 -16    4.95    3.11
   1   8 -15    8.23    3.81
   1   8 -14   26.55    6.74
   1   8 -13  185.35   16.60
   1   8 -12  334.63   21.62
   1   8 -11   15.96    4.53
   1   8 -10    1.08    2.08
   1   8  -9   19.62    4.77
   1   8  -8   52.64    7.52
   1   8  -7  201.17   14.44
   1   8  -6  124.31    4.35
   1   8  -6  143.52   12.03
   1   8  -5   54.03    7.38
   1   8  -5   50.97    3.00
   1   8  -4 1172.08   32.94
   1   8  -3   40.93    5.94
  -1   8   2   64.01    6.77
   1   8  -2   55.10    4.39
   1  -8  -2   57.68    5.77
   1   8  -2   60.48    7.14
   1  -8  -1  218.29   11.48
   1   8  -1  229.36    9.56
  -1   8   1  227.71   12.61
   1   8  -1  225.30   13.72
   1   8   0    2.54    1.24
   1   8   0    2.55    1.20
  -1   8   0    2.82    1.57
  -1   8  -1   73.36    7.38
   1   8   1   77.70    6.35
  -1  -8  -1   70.12    5.17
   1   8   1   82.04    8.06
  -1  -8  -2   55.10    4.43
  -1   8  -2   57.34    6.78
   1   8   2   60.17    6.81
  -1   8  -3   63.22    7.14
   1   8   4  176.82    8.50
  -1   8  -4  174.26   12.16
  -1   8  -5  662.10   17.32
  -1   8  -5  665.54   24.49
   1   8   5  703.73   17.67
   1   8   6  149.97    8.59
  -1   8  -6  153.85    8.27
  -1   8  -6  166.06   12.58
  -1   8  -7    1.79    0.99
  -1   8  -7    0.27    1.21
  -1   8  -8   13.19    3.90
  -1   8  -9  335.24   19.41
  -1   8 -10  203.60   15.55
  -1   8 -11   15.94    4.62
  -1   8 -12    7.83    3.38
  -1   8 -13   24.19    6.02
  -1   8 -14   -1.99    3.28
  -1   8 -15   -4.81    3.14
  -1   8 -16    2.62    1.58
  -1   8 -17    2.28    3.55
  -1   8 -18   31.75    8.20
   1   8  18   50.38    9.65
   1   8  19   -7.00    4.03
   1   9 -18   40.85    9.51
   1   9 -17   28.58    7.71
   1   9 -16    4.94    3.62
   1   9 -15   16.43    5.93
   1   9 -14   82.43   12.03
   1   9 -13   -0.77    2.59
   1   9 -12   40.30    8.32
   1   9 -11  132.31   13.77
   1   9 -10  246.41   18.40
   1   9  -9   63.95    9.09
   1   9  -8  238.01   16.90
   1   9  -7   34.23    6.40
   1   9  -7   33.35    2.35
   1   9  -6  375.94   20.44
   1   9  -6  338.81    7.90
   1   9  -5  146.03   12.43
   1   9  -5  155.51    5.93
   1   9  -4  112.17   10.83
   1   9  -3 1715.82   41.38
   1  -9  -2   82.71    7.26
   1   9  -2   82.06    5.64
   1   9  -2   77.36    8.67
  -1   9   2   87.20    8.43
  -1   9   1   41.53    5.71
   1  -9  -1   36.36    4.92
   1   9  -1   29.48    5.30
   1   9  -1   32.28    3.81
   1   9   0  133.08   10.86
  -1   9   0  142.62   10.81
   1   9   0  143.31    8.62
  -1   9  -1   62.14    7.32
  -1  -9  -1   58.35    5.09
   1   9   1   55.63    6.97
  -1  -9  -2  189.74    8.80
   1   9   2  181.27   12.76
  -1   9  -2  183.74   12.72
  -1   9  -3   45.64    6.42
  -1   9  -4   -2.32    2.13
  -1   9  -4    0.77    0.35
  -1   9  -5   35.27    4.22
  -1   9  -5   33.47    5.81
   1   9   5   29.47    3.83
   1   9   6    8.18    2.06
  -1   9  -6    4.78    2.51
  -1   9  -7  142.48   12.62
  -1   9  -8  103.01   10.94
  -1   9  -9   19.97    5.05
  -1   9 -10    3.71    2.95
  -1   9 -11   10.25    4.24
  -1   9 -12   78.64   10.92
  -1   9 -13   13.13    4.89
  -1   9 -14   -1.53    1.83
  -1   9 -15   -7.74    3.93
  -1   9 -16   26.11    7.01
  -1   9 -17    9.23    4.73
  -1   9 -18    0.65    2.19
   1  10 -18    5.91    4.14
   1  10 -17    4.37    3.66
   1  10 -16   52.83   10.48
   1  10 -15    9.94    5.08
   1  10 -14  107.35   13.96
   1  10 -13   38.59    7.96
   1  10 -12   23.03    6.25
   1  10 -11    9.02    3.74
   1  10 -10    2.74    2.39
   1  10  -9    3.56    1.45
   1  10  -8  211.87   16.90
   1  10  -7   29.79    2.36
   1  10  -7   31.11    6.20
   1  10  -6    2.52    0.76
   1  10  -6    0.46    1.87
   1  10  -5    3.16    1.88
   1  10  -5    2.25    0.79
   1  10  -4  521.58   24.30
   1  10  -3   19.46    2.62
   1  10  -3   14.12    3.95
  -1  10   2  234.04   14.57
   1  10  -2  230.06   15.62
   1  10  -2  224.77    9.99
   1 -10  -2  237.26   12.92
   1  10  -1  175.73   13.48
  -1  10   1  199.07   13.48
   1 -10  -1  177.67   11.39
   1  10  -1  182.80    9.54
  -1  10   0    4.66    1.78
   1  10   0    8.12    2.81
   1 -10   0    5.75    1.97
  -1 -10  -1  101.93    7.22
   1  10   1  104.45   10.07
  -1  10  -1  107.10   10.05
  -1 -10  -2   62.32    5.38
   1  10   2   67.54    8.16
  -1  10  -2   73.38    8.51
  -1  10  -3  244.45   15.86
  -1  10  -4  327.04   18.73
  -1  10  -4  310.64    7.59
  -1  10  -5  103.88   10.67
  -1  10  -6  207.00   15.44
  -1  10  -7    7.80    2.95
  -1  10  -8   70.25    9.56
  -1  10  -9    7.56    3.42
  -1  10 -10  131.69   13.65
  -1  10 -11    0.49    2.55
  -1  10 -12    1.40    2.23
  -1  10 -13   96.94   12.78
  -1  10 -14   86.13   12.36
  -1  10 -15    1.90    2.45
  -1  10 -16   10.21    4.85
  -1  10 -17   16.90    6.70
   1  11 -17    0.34    1.71
   1  11 -16    1.74    2.65
   1  11 -15    2.36    2.45
   1  11 -14   18.70    6.40
   1  11 -13    2.24    2.17
   1  11 -12   -1.86    2.41
   1  11 -11    3.67    2.94
   1  11 -10    6.50    3.15
   1  11  -9  315.00   21.76
   1  11  -8   11.09    4.17
   1  11  -7    3.17    2.97
   1  11  -6  203.06   16.45
   1  11  -6  202.41    7.32
   1  11  -5  226.75   17.22
   1  11  -4   -0.97    2.10
   1  11  -3    0.49    1.32
   1  11  -3   -0.75    0.63
   1  11  -2   96.87   10.81
  -1  11   2   94.29    9.68
   1  11  -2   86.31    6.49
   1 -11  -2   96.73    8.70
   1  11  -1  140.33    8.85
   1 -11  -1  137.42   10.58
   1  11  -1  158.09   13.34
  -1  11   1  142.16   11.92
   1  11   0   15.03    4.05
   1 -11   0   12.60    3.31
  -1  11   0   14.91    3.81
  -1 -11  -1  142.70    8.97
   1  11   1  152.35   12.73
  -1  11  -1  151.30   12.55
  -1 -11  -2    2.81    1.19
  -1  11  -2    7.24    3.15
   1  11   2    2.87    1.98
  -1  11  -3  213.71    8.36
  -1  11  -3  202.99   15.23
  -1  11  -4   24.73    2.35
  -1  11  -4   20.58    4.97
  -1  11  -5   28.39    5.93
  -1  11  -6   -0.81    1.31
  -1  11  -7  114.23   12.21
  -1  11  -8  135.94   13.66
  -1  11  -9    5.89    2.69
  -1  11 -10   15.84    4.70
  -1  11 -11   -0.47    2.18
  -1  11 -12  116.55   14.13
  -1  11 -13   10.57    4.49
  -1  11 -14   10.55    4.63
  -1  11 -15    3.27    3.42
  -1  11 -16   -2.54    2.55
  -1  11 -17   -1.96    3.63
   1  12 -16    6.50    3.31
   1  12 -15   -0.38    2.47
   1  12 -14   16.49    5.70
   1  12 -13   23.94    6.72
   1  12 -12   19.87    6.18
   1  12 -11   -1.75    3.35
   1  12 -10   41.25    8.45
   1  12  -9   91.52   12.12
   1  12  -8   96.13   12.20
   1  12  -7   30.55    6.94
   1  12  -6   43.26    7.86
   1  12  -5    5.50    2.78
   1  12  -4   39.28    7.32
   1  12  -3  105.02    6.88
   1  12  -3  120.64   12.70
   1 -12  -2   -1.64    1.54
   1  12  -2    0.05    1.95
   1  12  -2   -0.70    0.71
  -1  12   2   -1.37    2.16
   1 -12  -1   89.34    8.94
   1  12  -1   96.48   10.85
  -1  12   1   95.01   10.34
  -1 -12   0   12.25    2.88
  -1  12   0   17.85    4.57
   1  12   0   11.92    3.81
   1 -12   0   14.27    3.54
   1  12   1  317.40   19.42
  -1  12  -1  301.26   18.75
  -1 -12  -1  316.78   14.20
  -1 -12  -2    7.67    2.23
  -1  12  -2    4.39    2.51
   1  12   2    6.42    2.61
  -1  12  -3  277.67   10.13
  -1  12  -3  295.53   19.07
  -1  12  -4    3.05    0.92
  -1  12  -4    0.26    1.62
  -1  12  -5   30.70    6.32
  -1  12  -6  160.21   14.88
  -1  12  -7    3.81    2.59
  -1  12  -8   31.06    6.94
  -1  12  -9   -2.36    2.73
  -1  12 -10  134.95   14.80
  -1  12 -11   74.32   11.37
  -1  12 -12    1.61    2.56
  -1  12 -13   29.28    7.61
  -1  12 -14   -0.60    2.32
  -1  12 -15   18.81    6.41
  -1  12 -16   11.83    5.16
   1  13 -16   14.55    6.22
   1  13 -15    8.46    4.83
   1  13 -14    3.68    2.91
   1  13 -13   -0.84    3.38
   1  13 -12    3.57    1.85
   1  13 -11    8.65    4.14
   1  13 -10    4.68    3.46
   1  13  -9    9.69    3.80
   1  13  -8    9.18    4.14
   1  13  -7    5.35    3.08
   1  13  -6   55.55    9.37
   1  13  -5  143.94   14.79
   1  13  -4    3.96    2.47
   1  13  -3   14.37    5.19
   1 -13  -2   41.64    6.22
  -1  13   2   43.98    7.31
   1  13  -2   34.18    6.95
  -1  13   1  130.30   12.53
   1  13  -1  127.54   13.05
   1 -13  -1  129.50   11.08
  -1  13   0   18.09    4.70
   1 -13   0   18.17    4.23
   1  13   0   19.89    5.10
  -1 -13   0   12.98    3.07
   1  13   1   73.79    9.91
  -1  13  -1   61.12    8.90
  -1 -13  -1   75.80    7.20
  -1 -13  -2   18.19    3.43
   1  13   2   15.81    4.45
  -1  13  -2   18.67    5.09
  -1  13  -3  127.77   13.26
  -1  13  -4   -0.03    1.29
  -1  13  -5   -6.18    3.19
  -1  13  -6   79.27   10.99
  -1  13  -7   25.88    6.71
  -1  13  -8   45.02    8.45
  -1  13  -9    1.69    1.84
  -1  13 -10   24.05    6.84
  -1  13 -11   10.16    4.40
  -1  13 -12    8.26    4.02
  -1  13 -13    2.41    2.53
  -1  13 -14    8.09    4.26
  -1  13 -15    2.53    2.48
  -1  13 -16   -2.06    2.78
   1  14 -15   14.17    6.18
   1  14 -14    0.30    2.26
   1  14 -13    7.74    3.72
   1  14 -12   47.31   10.03
   1  14 -11   14.44    5.68
   1  14 -10    6.98    3.09
   1  14  -9   25.71    6.79
   1  14  -8   49.16    9.39
   1  14  -7   18.11    5.80
   1  14  -6    8.11    4.26
   1  14  -5   49.21    8.95
   1  14  -4   47.35    8.61
   1  14  -3   77.29   10.90
   1 -14  -2   56.30    7.41
  -1  14   2   72.00    9.77
  -1  14   1  186.80   15.80
   1 -14  -1  160.15   12.89
   1  14  -1  152.96   14.80
   1 -14   0    1.60    1.48
   1  14   0    4.08    2.78
  -1  14   0    2.82    2.43
  -1 -14   0    1.93    1.38
  -1 -14  -1   17.27    3.55
   1  14   1   23.30    6.01
   1 -14   1   21.27    5.11
  -1  14  -1   18.40    4.94
  -1 -14  -2   13.87    3.08
   1  14   2   11.51    4.47
  -1  14  -2   20.49    5.56
  -1  14  -3   16.84    5.20
  -1  14  -4  200.12   17.32
  -1  14  -5   61.23    9.76
  -1  14  -6    3.41    3.16
  -1  14  -7  251.12   20.53
  -1  14  -8   74.89   11.53
  -1  14  -9   19.98    6.38
  -1  14 -10    8.78    3.99
  -1  14 -11    1.93    3.27
  -1  14 -12    1.32    1.68
  -1  14 -13    1.94    2.20
  -1  14 -14   11.95    5.52
  -1  14 -15  101.74   15.73
   1  15 -14   42.64   10.34
   1  15 -13    9.89    5.52
   1  15 -12    1.21    1.85
   1  15 -11   -0.13    2.19
   1  15 -10   48.07    9.89
   1  15  -9    3.91    3.22
   1  15  -8   65.51   11.21
   1  15  -7   -0.07    1.35
   1  15  -6  112.30   14.10
   1  15  -5   10.98    4.31
   1  15  -4   37.08    8.02
   1  15  -3   -0.26    1.50
   1  15  -2   61.90   10.15
   1 -15  -2   80.33    9.20
  -1  15   2   76.27   10.46
   1  15  -1   86.61   11.80
  -1  15   1   82.86   10.91
  -1 -15   1   78.19    8.56
   1 -15  -1   77.21    9.21
   1 -15   0   83.17    9.65
   1  15   0   81.76   11.10
  -1 -15   0   79.67    8.43
  -1  15   0   90.85   11.53
   1 -15   1    2.08    1.72
  -1 -15  -1    0.99    1.15
   1  15   1    2.57    2.38
  -1  15  -1   -0.89    2.22
  -1 -15  -2   42.29    5.77
  -1  15  -2   41.08    7.78
  -1  15  -3    7.71    3.29
  -1  15  -4   -0.90    1.90
  -1  15  -5   32.30    7.40
  -1  15  -6   32.42    7.44
  -1  15  -7   22.05    6.30
  -1  15  -8  207.12   19.53
  -1  15  -9    1.48    1.32
  -1  15 -10    3.33    2.43
  -1  15 -11    5.26    3.65
  -1  15 -12    8.92    4.39
  -1  15 -13   31.65    8.67
  -1  15 -14   13.43    5.50
   1  16 -13   -1.75    2.63
   1  16 -12    5.27    3.96
   1  16 -11   -1.75    2.29
   1  16 -10   19.09    6.75
   1  16  -9    7.23    4.76
   1  16  -8   95.86   13.99
   1  16  -7    0.17    3.07
   1  16  -6   -0.92    1.80
   1  16  -5   24.64    6.72
   1  16  -4   34.11    7.92
   1  16  -3   51.53    9.50
   1 -16  -2    2.73    2.11
   1  16  -2    1.23    2.10
   1  16  -1   -1.90    3.27
  -1  16   1   -1.80    1.88
  -1 -16   1   -3.45    1.98
   1 -16  -1   -0.55    1.42
  -1 -16   0    4.80    2.22
  -1  16   0    0.50    1.77
   1  16   0    1.99    2.14
   1 -16   0    5.93    3.21
   1 -16   1   32.14    6.68
  -1 -16  -1   27.94    5.06
   1  16   1   29.09    6.89
  -1  16  -1   27.00    6.43
   1 -16   2    0.54    1.26
  -1  16  -2    1.96    1.92
  -1  16  -3   -0.54    1.25
  -1  16  -4   62.78   10.43
  -1  16  -5    2.20    2.63
  -1  16  -6    2.66    2.66
  -1  16  -7   10.63    4.66
  -1  16  -8    4.02    3.92
  -1  16  -9   13.59    5.26
  -1  16 -10   16.79    6.17
  -1  16 -11   -1.73    3.69
  -1  16 -12   -1.61    2.69
  -1  16 -13   89.81   14.89
   1  17 -12   14.12    6.60
   1  17 -11   27.45    8.34
   1  17 -10    3.86    3.53
   1  17  -9    5.41    3.43
   1  17  -8   32.53    8.42
   1  17  -7    0.99    2.18
   1  17  -6   92.98   13.78
   1  17  -5   26.42    7.11
   1  17  -4   15.56    5.46
   1  17  -3   31.21    7.53
  -1 -17   2   27.51    5.61
   1 -17  -2   24.33    5.44
   1  17  -2   33.79    7.95
   1  17  -1    5.73    2.94
  -1  17   1   14.73    5.20
  -1 -17   1   12.14    3.65
   1 -17  -1   12.12    3.97
  -1  17   0   -2.57    2.38
   1 -17   0    0.81    0.99
  -1 -17   0   -0.70    1.55
   1  17   0   -4.75    3.14
  -1  17  -1  147.94   15.92
   1 -17   1  169.75   15.12
   1  17   1  155.13   16.47
   1 -17   2   15.38    4.40
  -1  17  -2   10.52    4.03
  -1  17  -3   -0.79    3.12
  -1  17  -4   27.57    6.97
  -1  17  -5   -1.21    1.70
  -1  17  -6    2.66    2.07
  -1  17  -7   30.80    8.39
  -1  17  -8   24.77    7.09
  -1  17  -9    6.47    4.46
  -1  17 -10   13.36    5.96
  -1  17 -11   14.20    5.85
  -1  17 -12   -1.63    2.55
   1  18 -10   13.08    5.73
   1  18  -9   37.04    9.46
   1  18  -8   12.70    5.90
   1  18  -7   28.72    8.32
   1  18  -6    1.27    2.57
   1  18  -5   30.86    8.14
   1  18  -4   -3.09    3.39
   1  18  -3   17.46    5.81
   1  18  -2   15.12    5.42
  -1  18   1   -4.71    3.16
   1  18  -1   -2.10    2.42
   1 -18  -1   -2.02    1.76
  -1  18   0    3.48    3.05
   1 -18   0    5.01    2.78
   1  18   0   11.75    5.33
   1 -18   1    6.88    3.36
   1  18   1    2.25    2.14
  -1  18  -1    3.39    2.71
   1 -18   2    3.37    2.65
  -1  18  -2    1.21    1.74
   1 -18   3    3.00    2.36
  -1  18  -3    7.95    4.04
  -1  18  -4    2.73    3.24
  -1  18  -5   45.07    9.63
  -1  18  -6    4.51    3.44
  -1  18  -7    2.75    1.44
  -1  18  -8    6.29    4.02
  -1  18  -9   40.75    9.79
  -1  18 -10    4.25    3.56
  -1  18 -11   -0.43    1.75
   1  19  -9   -1.17    2.37
   1  19  -8   36.21    9.65
   1  19  -7   13.99    6.29
   1  19  -6   -2.33    2.80
   1  19  -5   -0.84    1.94
   1  19  -4    4.55    3.06
   1  19  -3    1.75    2.82
   1  19  -2    7.26    3.82
  -1  19   1   -0.47    2.09
   1  19  -1    6.32    4.05
   1 -19   0    3.32    2.00
  -1  19   0    3.54    2.77
   1  19   0    4.37    3.28
  -1  19  -1   36.09    8.33
   1 -19   1   39.22    7.74
   1 -19   2   18.44    5.29
  -1  19  -2    9.98    4.65
   1 -19   3   51.26    9.15
  -1  19  -3   61.87   11.26
  -1  19  -4    4.06    3.05
  -1  19  -5   10.59    4.29
  -1  19  -6   44.16    9.97
  -1  19  -7   30.35    8.68
  -1  19  -8    1.20    2.27
  -1  19  -9    4.35    3.46
   1  20  -7    0.97    2.76
   1  20  -6    9.91    4.75
   1  20  -5    1.57    2.52
   1  20  -4   -1.63    3.38
   1  20  -3    8.12    4.55
   1  20  -2    2.44    4.36
   1  20  -1   -6.15    3.84
  -1  20   0   10.44    4.87
   1  20   0   24.47    7.32
  -1  20  -1    2.84    2.65
  -1  20  -2   -0.93    1.94
  -1  20  -3   -1.79    2.46
   1 -20   3    6.70    3.58
  -1  20  -4    0.94    2.07
   1 -20   4   -0.46    1.14
  -1  20  -5   -3.26    3.09
  -1  20  -6   32.06    8.72
  -1  20  -7    2.83    3.04
   1  21  -4   -3.81    3.45
   1  21  -3   21.04    7.11
   1  21  -2   -1.44    2.15
   1  21  -1   17.33    6.59
   1  21   0    2.45    2.76
  -1  21   0   11.64    5.18
  -1  21  -1    5.62    4.05
  -1  21  -2    5.32    3.67
  -1  21  -3   49.50   10.70
  -1  21  -4   -4.45    3.38
  -1  21  -5    2.78    2.37
   2   0 -20   26.04    7.01
   2   0 -19    2.24    1.93
  -2   0  19    1.42    1.89
   2   0 -18   12.14    4.41
  -2   0  18   12.59    3.93
  -2   0  17    1.88    2.47
   2   0 -16   53.78    6.40
   2   0 -15    0.26    0.98
   2   0 -14   13.64    2.89
   2   0 -13   -0.60    1.40
   2   0 -12  219.48   11.21
   2   0 -11   -0.03    0.64
   2   0 -10   46.84    4.85
   2   0  -9   -0.79    1.09
   2   0  -8   52.38    4.61
   2   0  -7   -0.21    0.89
   2   0  -6  878.44   17.22
   2   0  -5    0.21    0.61
   2   0  -4   30.29    2.93
   2   0  -3   -0.56    0.76
   2   0  -2    3.34    0.84
   2   0  -2    2.84    0.63
   2   0  -1    0.40    0.46
   2   0   0    0.65    0.36
   2   0   0    1.20    0.54
   2   0   1   -0.37    0.59
   2   0   1    0.29    0.40
   2   0   2  172.80    4.28
   2   0   2  180.50    7.21
  -2   0  -2  181.35    4.27
  -2   0  -3    0.40    0.20
   2   0   3    0.41    0.34
   2   0   3   -0.09    0.51
   2   0   4   15.18    2.43
   2   0   4   17.77    2.56
   2   0   5   -0.06    0.71
   2   0   5   -0.14    0.72
   2   0   6  118.59    7.51
   2   0   6  120.23    7.80
   2   0   7    0.48    0.60
   2   0   7    0.67    1.39
   2   0   8  592.10   19.22
   2   0   9    0.12    0.88
   2   0  10    0.83    1.33
   2   0  11    2.56    1.55
   2   0  12  170.84   12.71
   2   0  13   -1.21    1.60
   2   0  14  343.56   19.57
   2   0  15    2.41    2.67
   2   0  16   17.41    4.90
   2   0  17   -0.85    1.64
   2   0  18   42.11    7.93
   2   0  19   -2.26    2.14
   2   0  20   17.05    5.49
   2   0  21   -0.14    1.17
   2   1 -20   -0.55    1.71
   2  -1 -20    5.03    3.19
   2   1 -19   14.82    5.32
  -2   1  19   12.27    4.21
  -2   1  18   10.49    3.77
   2   1 -18    7.90    3.78
  -2  -1  18   10.93    3.24
   2   1 -17   41.54    7.74
  -2  -1  17   38.79    6.41
   2   1 -16   29.46    4.74
   2   1 -16   33.86    6.71
  -2  -1  16   31.98    5.53
   2  -1 -16   24.54    4.38
   2   1 -15   75.43    9.67
   2   1 -15   87.62    8.08
   2  -1 -15   71.77    7.08
   2   1 -14  179.58   14.17
   2  -1 -14  192.61   11.25
   2   1 -14  177.23   11.03
   2   1 -13   11.75    2.70
   2  -1 -13   10.47    2.50
   2   1 -12   -0.66    0.99
   2  -1 -12   -3.67    1.54
   2   1 -11    4.54    1.66
   2  -1 -11    8.61    2.01
   2   1 -10  164.01    9.11
   2  -1 -10  166.77    9.01
   2  -1  -9  363.07   12.75
   2   1  -9  362.41   12.99
   2  -1  -8  132.20    7.38
   2   1  -8  124.07    7.30
   2   1  -7  231.58    9.58
   2  -1  -7  224.80    9.25
   2   1  -6   60.12    4.59
  -2  -1   6   47.22    3.90
   2  -1  -6   58.02    4.40
   2   1  -6   58.32    5.00
   2   1  -5   -0.06    0.46
  -2  -1   5    0.25    0.25
   2   1  -4 1258.55   19.12
   2   1  -4 1282.06   19.45
   2   1  -3  882.21   14.83
   2   1  -3  866.18   15.00
  -2  -1   2  933.57   13.14
   2   1  -2  935.47   14.81
   2   1  -2  948.24   14.00
   2   1  -1 4248.69   27.54
   2   1  -1 4229.37   29.65
   2   1   0   15.68    1.82
   2   1   0   16.09    1.76
   2   1   0   14.72    1.55
   2  -1   0   18.24    2.27
   2   1   1  344.60    9.21
  -2  -1  -2 2585.78   19.16
   2   1   2 2606.28   27.42
   2   1   2 2594.75   28.84
   2  -1   2 2612.87   28.31
   2   1   3  224.59    8.65
  -2   1  -3  212.58    8.08
   2  -1   3  207.93    8.47
   2   1   3  220.18    9.00
  -2   1  -4 1072.11   18.56
   2  -1   4 1055.31   20.20
   2   1   4 1063.28   20.96
   2   1   4 1068.11   20.54
   2  -1   4 1059.09   18.57
   2   1   5  389.19   13.26
   2  -1   5  372.87   12.78
   2  -1   5  364.60   11.71
  -2   1  -5  361.46   11.36
   2   1   5  389.35   13.43
   2   1   6   80.38    6.36
   2  -1   6   69.93    5.42
   2  -1   6   73.30    5.99
   2   1   6   70.88    6.10
   2   1   7   48.25    5.47
   2  -1   7   33.93    4.46
   2  -1   7   40.71    4.41
   2   1   8  591.55   19.51
   2  -1   8  556.58   18.56
   2  -1   9   77.84    7.40
   2   1   9   88.85    8.04
  -2  -1  -9   80.89    2.75
   2   1  10    4.99    2.07
  -2  -1 -10    6.29    0.83
   2  -1  10    5.95    2.28
  -2  -1 -11    0.39    0.24
   2   1  11    0.45    1.92
   2  -1  11    1.52    1.50
   2  -1  12  119.47   10.53
   2   1  12  113.47   10.43
   2   1  13  118.00   11.11
   2  -1  13  117.95   10.77
   2   1  14   29.24    5.77
   2  -1  14   22.15    4.99
   2  -1  15  168.68   14.18
   2   1  15  179.33   14.87
   2  -1  16    9.99    3.47
   2   1  16    9.58    3.62
   2   1  17   -0.08    1.78
   2  -1  17    2.72    2.23
   2   1  18   28.68    6.81
   2  -1  18   30.03    6.75
   2   1  19   -4.91    3.17
   2  -1  19    1.37    1.52
  -2   1 -20    4.97    3.46
   2  -1  20    8.69    4.08
   2   1  20    2.75    2.07
   2   1  21    2.85    2.56
   2  -1  21    7.28    3.69
  -2   2  20    5.63    3.08
   2   2 -20    2.19    2.70
  -2   2  19    2.07    1.96
   2   2 -19    3.06    2.32
   2   2 -18   -0.06    2.38
  -2  -2  17   42.21    6.54
   2   2 -17   44.06    8.13
   2   2 -16    5.36    2.89
  -2  -2  16    6.86    2.68
   2  -2 -16    7.01    2.34
   2  -2 -15   71.24    7.03
   2   2 -15   67.04    9.05
  -2  -2  15   63.15    7.42
  -2  -2  14   72.26    7.49
   2   2 -14   69.53    8.94
   2  -2 -14   67.68    6.69
   2   2 -13  202.89   14.35
   2  -2 -13  201.84   11.13
   2   2 -13  187.50   11.15
   2  -2 -12   27.60    3.96
   2   2 -12   30.33    5.35
   2   2 -12   26.63    4.14
   2   2 -11  301.11   13.19
   2   2 -11  287.11   15.55
   2  -2 -11  303.30   12.72
   2  -2 -10   -0.77    0.88
   2   2 -10   -0.04    0.85
   2   2  -9    7.48    2.37
   2  -2  -9    5.01    1.61
   2   2  -9    4.70    1.41
   2   2  -8   70.34    5.68
   2   2  -8   61.26    6.09
   2   2  -7  179.86    9.76
   2   2  -7  186.98    8.82
   2   2  -6   47.40    4.26
   2   2  -6   48.34    4.71
  -2  -2   6   42.60    3.84
  -2  -2   5    0.62    0.41
   2   2  -5   -0.25    0.67
   2   2  -5    0.81    0.84
   2   2  -4  115.66    6.23
   2   2  -4  111.03    6.39
  -2  -2   4  124.10    6.29
   2   2  -3 1263.90   20.31
   2   2  -3 1253.41   19.75
   2   2  -2 3679.36   32.09
   2   2  -2 3620.24   32.97
  -2  -2   2 3538.56   21.84
   2  -2  -1 1484.36   12.99
  -2  -2   1 1475.36   14.84
   2  -2  -1 1497.64   22.65
   2   2  -1 1471.99   15.21
   2   2  -1 1469.80   20.01
  -2   2   0 1891.24   15.01
   2   2   0 1793.00   21.25
   2   2   0 1804.87   18.62
   2  -2   0 1864.08   25.14
   2  -2   0 1817.32   13.81
   2  -2   1 2489.04   18.18
   2   2   1 2454.72   28.18
  -2   2  -1 2516.73   19.63
   2   2   1 2484.13   24.37
  -2   2  -2  728.34   12.03
   2   2   2  741.00   16.30
   2   2   2  754.63   14.78
  -2   2  -3  116.75    5.55
   2  -2   3  114.01    6.50
   2   2   3  116.09    6.40
   2   2   3  130.38    7.29
   2  -2   4   88.41    5.91
   2   2   4   92.21    6.49
   2   2   4   85.96    5.95
  -2   2  -4   81.18    4.86
   2  -2   5  162.13    7.24
   2   2   5  181.38    9.63
   2   2   5  162.29    8.77
   2  -2   5  160.83    8.43
  -2   2  -5  185.58    8.70
  -2   2  -5  177.03    7.49
   2   2   6   80.71    6.55
   2  -2   6   83.35    6.41
   2  -2   6   79.75    5.48
   2  -2   7  532.24   17.11
   2   2   7  552.45   18.18
   2  -2   7  528.83   15.06
   2  -2   8    2.92    1.21
   2   2   8    1.10    1.29
   2  -2   8    4.86    1.92
   2   2   9    5.79    2.27
   2  -2   9    4.41    1.70
   2  -2  10   94.00    8.36
   2   2  10  105.21    9.29
   2   2  11    5.69    2.65
  -2  -2 -11    5.90    1.05
   2  -2  11    2.58    1.39
  -2  -2 -12   37.90    2.62
   2  -2  12   35.59    5.75
   2   2  12   43.25    6.58
   2   2  13    9.32    3.28
   2  -2  13    7.62    2.72
   2  -2  14    3.20    1.32
   2   2  14    2.01    1.42
   2  -2  15  172.94   14.19
   2   2  15  151.68   13.85
   2   2  16  100.72   11.79
   2  -2  16   97.33   11.18
   2   2  17   13.52    4.43
  -2   2 -17   12.45    4.26
   2  -2  17    9.67    3.65
   2   2  18   20.90    5.60
   2  -2  18   20.30    5.61
  -2   2 -18   23.84    6.52
   2  -2  19   34.15    7.38
  -2   2 -19   38.47    8.59
   2   2  19   29.84    7.21
   2  -2  20    5.01    3.09
   2   2  20    1.91    2.58
  -2   2 -20   -0.32    1.61
   2   2  21   -0.83    1.89
  -2   3  21    0.74    1.67
   2   3 -20    3.49    3.03
  -2   3  20    0.57    1.17
   2   3 -19   37.97    8.33
   2   3 -18    3.60    2.65
   2   3 -17    1.36    1.12
   2   3 -16    0.13    1.43
   2  -3 -16    1.69    1.30
  -2  -3  16    2.18    1.61
   2  -3 -15    0.17    0.70
   2   3 -15    1.29    1.99
  -2  -3  15    0.34    0.89
   2  -3 -14   14.17    3.16
  -2  -3  14   15.44    3.50
   2   3 -14   17.02    4.54
   2  -3 -13  248.62   12.56
  -2  -3  13  247.32   12.69
   2   3 -13  257.66   16.68
   2   3 -12   23.93    5.04
   2  -3 -12   23.51    3.75
  -2  -3  12   21.97    3.51
  -2  -3  11   12.66    2.48
   2   3 -11   11.86    3.21
   2  -3 -11   14.44    2.70
   2   3 -10    1.66    1.22
   2   3  -9  319.32   15.36
   2   3  -8  213.37   11.99
   2   3  -7   -0.24    0.90
   2   3  -6    0.69    1.19
  -2  -3   5  259.04    9.69
   2   3  -5  253.80   11.12
   2   3  -4  125.00    7.51
   2   3  -3 1010.05   20.70
   2  -3  -2 4819.12   33.96
   2   3  -2 4807.74   43.25
   2  -3  -1 3998.88   39.95
  -2  -3   1 4007.32   23.52
   2   3  -1 4039.03   38.63
   2  -3  -1 4104.41   29.29
   2   3  -1 4093.75   24.59
   2   3   0 1973.07   26.02
   2   3   0 1920.55   19.61
   2  -3   0 1928.90   27.74
  -2   3   0 1934.66   20.32
   2  -3   0 1978.84   20.45
  -2   3  -1 1939.62   21.64
   2   3   1 1953.44   26.43
   2   3   1 1921.37   21.95
   2  -3   1 1903.21   20.25
   2   3   2 1026.31   17.72
   2   3   2 1024.76   20.40
  -2   3  -2 1006.58   16.73
   2  -3   2 1053.16   15.83
   2   3   3  341.83   12.52
  -2   3  -3  344.95   10.43
   2   3   3  365.09   11.55
  -2   3  -4  347.34   11.79
   2   3   4  353.42   12.30
   2  -3   4  334.07   11.86
  -2   3  -4  336.47    9.24
   2   3   4  360.16   13.51
  -2   3  -4  341.85   11.20
  -2   3  -5  175.10    7.13
   2  -3   5  189.68    9.29
  -2   3  -5  189.86    9.00
  -2   3  -5  178.88    8.70
   2  -3   6   30.20    3.85
  -2   3  -6   41.23    4.56
   2  -3   6   34.27    3.32
   2  -3   7  140.81    8.89
   2  -3   7  137.46    7.20
   2   3   7  144.86    9.57
   2  -3   7  152.68    4.35
   2   3   8   16.70    3.50
   2  -3   8   18.14    1.33
   2  -3   8   21.88    3.07
   2  -3   8   18.59    3.45
   2   3   9    5.66    2.38
   2  -3   9    6.45    2.06
   2  -3   9    7.99    2.02
   2  -3  10   59.75    6.77
   2   3  10   64.45    7.53
   2   3  11   63.03    7.70
   2  -3  11   53.64    6.51
   2   3  12   46.85    7.04
   2  -3  12   59.99    7.31
   2  -3  13   32.96    5.70
  -2  -3 -13   38.90    3.11
   2   3  13   28.72    5.51
  -2   3 -13   33.64    6.19
   2   3  14   53.08    8.07
  -2   3 -14   57.55    8.39
   2  -3  14   65.76    8.40
  -2   3 -15   13.43    4.05
   2  -3  15   24.87    5.43
   2   3  15   27.20    5.94
   2  -3  16   15.07    4.67
   2   3  16   11.73    4.17
  -2   3 -16   15.52    5.42
   2  -3  17   42.80    7.53
   2   3  17   49.53    8.66
  -2   3 -17   55.32    9.42
  -2   3 -18   10.81    4.43
   2   3  18   14.67    4.99
   2  -3  18   13.05    4.23
   2   3  19    0.89    1.22
   2  -3  19    3.59    2.29
   2   3  20   -1.33    1.86
   2   3  21   -2.58    2.62
  -2   4  21   52.78    9.69
   2   4 -20   -1.70    2.20
   2   4 -19   -3.74    3.02
   2   4 -18   14.53    5.39
   2   4 -17   -0.05    2.05
   2  -4 -16   46.01    5.96
   2   4 -16   57.40    9.29
   2  -4 -15   27.16    4.56
  -2  -4  15   27.92    4.61
   2   4 -15   24.43    5.97
  -2  -4  14  173.45   10.81
   2  -4 -14  169.12   10.87
   2   4 -14  181.85   15.12
   2  -4 -13   -0.72    1.28
   2   4 -13    0.21    1.37
  -2  -4  13    1.34    1.25
  -2  -4  12  197.08   10.18
   2   4 -12  207.95   14.83
   2   4 -11  212.16   14.36
  -2  -4  11  219.29    9.98
   2   4 -10    0.12    1.19
  -2  -4  10    2.77    1.06
   2   4  -9    2.02    1.71
  -2  -4   9    1.17    0.84
  -2  -4   8   43.43    3.31
   2   4  -8   39.80    5.46
  -2  -4   7  394.49    8.69
   2   4  -7  411.73   16.85
  -2  -4   6  119.06    3.87
   2   4  -6  115.73    8.60
   2   4  -5   71.14    6.54
   2   4  -4   -0.66    1.24
   2   4  -3  771.14   20.05
   2   4  -2  567.39   16.56
   2  -4  -2  546.90   13.34
   2   4  -2  562.78    7.49
   2   4  -1  394.95    7.80
   2  -4  -1  360.93   12.92
   2  -4  -1  385.09   10.77
  -2   4   1  391.36   10.67
  -2  -4   1  390.64   11.33
   2   4  -1  401.76   13.61
   2  -4   0   27.41    2.89
   2   4   0   21.01    2.73
   2   4   0   19.75    2.93
  -2   4   0   23.94    2.73
   2   4   0   24.06    2.32
   2  -4   0   20.03    3.14
   2   4   1  601.82   15.53
   2  -4   1  630.68   13.92
   2   4   1  614.20   16.47
  -2   4  -1  583.90   14.05
   2   4   2 1656.34   27.20
   2  -4   2 1711.41   23.11
  -2   4  -2 1594.41   24.24
   2   4   3  270.56   11.57
   2  -4   3  282.23    9.76
  -2   4  -3  282.53   10.87
  -2   4  -3  277.13   10.51
  -2   4  -4    4.52    1.36
  -2   4  -4    4.62    1.51
  -2   4  -4    5.39    1.15
  -2   4  -5    0.02    0.93
  -2   4  -5    2.04    1.11
  -2   4  -5    0.30    0.41
  -2   4  -6  815.94   21.32
   2  -4   6  794.38   20.34
   2  -4   7  110.52    7.86
  -2   4  -7  106.51    8.24
   2  -4   8    0.23    0.38
   2  -4   8    0.32    1.12
  -2   4  -8    1.86    1.79
   2  -4   8    1.66    0.99
  -2   4  -9    4.73    1.87
   2  -4   9    4.66    0.89
   2  -4   9    3.77    1.28
   2  -4   9    6.52    2.03
   2  -4  10  117.07    7.58
   2  -4  10  131.86    9.88
   2  -4  10  119.91    4.09
  -2   4 -10  121.21   10.22
   2   4  11  149.83   12.20
   2  -4  11  135.62   10.48
  -2   4 -11  148.51   11.90
   2   4  12   41.11    6.66
  -2   4 -12   49.75    7.33
   2  -4  12   40.10    5.97
   2   4  13   -1.11    2.12
   2  -4  13   -1.34    1.99
  -2   4 -13    2.25    2.32
  -2   4 -14    0.15    1.56
   2  -4  14    1.30    1.51
   2   4  14   -0.81    2.07
  -2   4 -15   -0.54    1.66
   2  -4  15   -0.24    1.39
   2   4  15    0.69    1.64
  -2   4 -16    1.41    2.65
   2  -4  16    2.22    1.33
   2   4  16   -3.06    2.97
   2  -4  17   11.02    3.79
  -2   4 -17    7.55    4.12
   2   4  17    6.08    2.81
   2   4  18    0.60    1.65
   2  -4  18    0.37    1.23
  -2   4 -19    8.46    4.55
   2   4  19   17.44    5.60
   2   4  20   18.24    5.82
  -2   5  21    1.35    1.80
   2   5 -20   -1.92    2.31
   2   5 -19   13.83    5.03
   2   5 -18   20.11    6.14
   2   5 -17    0.19    2.61
   2   5 -16    3.95    2.03
   2  -5 -16    6.63    2.42
   2  -5 -15   40.12    5.67
   2   5 -15   47.81    8.35
   2   5 -14    0.65    1.40
  -2  -5  14   -0.60    1.08
   2   5 -13  119.93   12.20
  -2  -5  13  122.91    8.14
   2   5 -12   10.00    3.61
  -2  -5  12   13.10    2.48
  -2  -5  11    1.47    0.79
   2   5 -11    4.17    2.01
  -2  -5  10  221.19    8.63
   2   5 -10  213.41   14.45
  -2  -5   9  191.13    7.20
   2   5  -9  199.45   13.39
   2   5  -8   -0.91    1.87
  -2  -5   8    0.13    0.31
  -2  -5   7   85.30    3.39
   2   5  -7   91.63    8.49
   2   5  -6   87.87    8.00
   2   5  -5  645.33   21.08
   2   5  -4   16.00    3.24
   2   5  -3    2.58    1.27
   2  -5  -3    3.80    1.29
   2  -5  -2  600.07   15.62
   2   5  -2  601.50   18.61
  -2  -5   2  607.56   14.15
   2  -5  -2  608.14   17.75
   2   5  -2  595.04    8.28
  -2   5   1   24.74    3.11
  -2  -5   1   20.37    2.69
   2  -5  -1   22.59    2.97
   2   5  -1   20.57    3.39
   2  -5  -1   22.29    3.53
   2  -5   0  112.63    7.79
  -2  -5   0  118.53    6.90
  -2   5   0  119.29    6.99
   2   5   0  115.93    6.81
   2   5   0  108.43    7.69
   2  -5   0  119.19    6.84
   2  -5   1   13.20    2.32
   2   5   1   10.77    2.18
   2   5   1   10.78    2.44
  -2   5  -1    7.45    1.78
   2  -5   2    1.44    0.57
  -2   5  -2    0.30    0.59
   2   5   2    1.01    0.67
   2   5   3   27.34    1.86
  -2   5  -3   29.72    3.86
   2  -5   3   25.79    3.26
  -2   5  -4  711.45   18.05
  -2   5  -4  709.85   19.47
  -2   5  -5   34.41    4.53
  -2   5  -5   27.18    2.35
  -2   5  -5   27.31    3.59
  -2   5  -6   44.41    5.42
  -2   5  -7   33.26    4.79
   2  -5   7   38.23    4.72
  -2   5  -8   23.52    4.37
   2  -5   8   15.77    3.17
   2  -5   9   80.28    4.54
  -2   5  -9   66.55    7.62
   2  -5   9   70.80    7.02
   2  -5  10  197.12   12.09
   2  -5  10  200.36    6.69
   2  -5  10  179.53    8.59
  -2   5 -10  194.51   13.33
   2  -5  11   19.51    3.05
  -2   5 -11   21.18    4.50
   2  -5  11   27.47    4.81
  -2   5 -12    5.45    3.08
   2   5  12    5.19    3.58
   2  -5  12    9.39    2.95
  -2   5 -13   25.07    5.61
   2  -5  13   25.27    4.91
   2   5  13   26.63    5.69
   2   5  14   -1.03    2.70
   2  -5  14    4.32    2.56
  -2   5 -14    3.69    2.84
  -2   5 -15    0.83    2.07
   2   5  15   -1.08    2.27
   2  -5  15    0.85    0.99
   2  -5  16   24.48    5.42
   2   5  16   26.49    6.33
  -2   5 -16   13.89    4.64
   2   5  17   -2.08    2.87
  -2   5 -17   -1.86    2.39
   2  -5  17    4.11    2.30
  -2   5 -18    7.62    3.87
   2   5  18   -2.06    2.29
   2   5  19   14.50    5.45
  -2   5 -19   13.82    5.85
   2   5  20    3.47    3.08
   2   6 -19    1.30    2.00
   2   6 -18    6.49    3.83
   2   6 -17    2.64    2.51
   2  -6 -16  159.01   11.56
   2   6 -16  201.89   18.33
   2   6 -15   30.60    6.95
   2   6 -14    5.75    3.21
  -2  -6  13  103.64    7.12
   2   6 -13  113.69   12.35
   2   6 -12    5.77    2.45
  -2  -6  12   10.86    2.19
  -2  -6  11    8.61    1.76
   2   6 -11    6.18    2.90
  -2  -6  10   18.16    2.28
   2   6 -10   16.92    4.38
   2   6  -9   18.77    4.27
  -2  -6   9   22.08    2.15
   2   6  -8   82.02    8.69
   2   6  -7    2.61    2.17
   2   6  -6   48.93    6.31
   2   6  -5   63.03    7.10
   2   6  -4   76.61    7.59
  -2  -6   4   87.05    5.14
   2  -6  -3  246.30   11.46
   2   6  -3  239.04   13.00
  -2  -6   3  246.26    8.94
   2   6  -2  139.52    9.86
   2  -6  -2  147.32    8.65
   2  -6  -2  137.00    8.84
  -2  -6   2  143.16    7.13
   2  -6  -1    0.23    0.49
   2   6  -1   -0.64    1.01
   2   6  -1    0.19    0.48
  -2   6   1    0.91    0.90
   2  -6  -1    0.48    0.94
  -2  -6   1    0.11    0.54
   2   6   0   47.83    4.60
  -2   6   0   42.46    4.63
  -2  -6   0   42.08    4.27
   2   6   0   37.89    4.89
   2  -6   0   44.42    4.69
   2  -6   0   42.15    5.15
   2   6   1   36.10    4.16
  -2  -6  -1   36.20    2.16
   2  -6   1   42.21    4.55
  -2   6  -1   34.28    4.31
   2   6   1   48.39    5.48
   2   6   2   32.60    4.15
   2  -6   2   33.67    4.08
  -2   6  -2   31.25    4.23
  -2   6  -3   61.35    6.05
  -2   6  -4    0.91    0.56
  -2   6  -4    1.18    1.05
  -2   6  -5   33.41    4.79
  -2   6  -5   27.93    2.17
  -2   6  -6   -0.02    1.60
  -2   6  -7    2.91    1.06
  -2   6  -8   75.59    8.07
  -2   6  -9   55.30    7.20
   2  -6   9   67.42    6.86
  -2   6 -10   12.03    3.38
   2  -6  10    7.28    2.12
   2  -6  10    9.23    1.70
   2  -6  11   19.41    4.11
  -2   6 -11   19.66    4.67
   2  -6  12   58.22    7.19
  -2   6 -12   61.85    8.61
   2  -6  13   33.48    5.67
  -2   6 -13   32.21    6.48
  -2   6 -14   39.71    7.38
   2   6  14   34.72    7.00
   2  -6  14   39.62    6.36
   2  -6  15    0.68    1.51
  -2   6 -15    1.79    1.77
   2   6  15    1.58    1.95
  -2   6 -16    2.34    2.34
   2   6  16    2.48    2.50
   2  -6  16   -0.85    1.70
  -2   6 -17    0.78    2.27
   2   6  17    5.38    2.99
  -2   6 -18   14.16    5.41
   2   6  18   12.95    4.81
  -2   6 -19   -1.80    2.35
   2   6  19   -0.10    1.42
   2   7 -19    0.61    2.26
   2   7 -18   69.41   12.03
   2   7 -17   -0.44    1.64
   2   7 -16    8.45    4.60
   2   7 -15    0.68    1.67
   2   7 -14   45.59    8.22
   2   7 -13    5.65    2.55
   2   7 -12   78.36   10.19
   2   7 -11   47.12    7.60
  -2  -7  11   41.05    3.38
   2   7 -10   12.66    4.00
   2   7  -9   25.42    5.26
   2   7  -8    7.52    3.19
   2   7  -7   31.13    5.52
   2   7  -6    0.68    1.18
  -2  -7   5   31.35    3.13
   2   7  -5   30.73    5.33
   2   7  -4  379.78   18.01
  -2  -7   4  362.40   10.73
  -2  -7   3  110.69    6.19
   2   7  -3  110.47    9.44
  -2   7   2   -1.12    1.35
  -2  -7   2    0.11    0.65
   2  -7  -2    0.94    1.10
   2   7  -2    1.26    1.92
  -2   7   1   22.01    3.59
   2  -7  -1   27.33    4.21
   2   7  -1   26.06    3.39
  -2  -7   1   29.76    3.54
   2  -7  -1   30.30    4.26
   2   7  -1   29.06    4.70
  -2   7   0  435.60   16.04
   2   7   0  441.76   14.72
   2  -7   0  442.88   16.21
   2  -7   0  426.89   16.82
   2   7   0  444.43   18.00
  -2   7  -1   26.81    4.11
  -2  -7  -1   24.93    2.17
   2   7   1   20.21    3.84
   2   7   1   27.13    3.87
  -2   7  -2   15.25    3.27
  -2   7  -3   18.49    3.66
   2   7   4   64.20    3.88
  -2   7  -4   57.91    6.55
  -2   7  -5   44.29    2.53
   2   7   5   46.59    3.75
  -2   7  -5   39.81    5.58
  -2   7  -6  181.51   12.30
  -2   7  -7   81.64    8.41
  -2   7  -8  128.71   11.00
  -2   7  -9   21.64    4.85
  -2   7 -10  631.62   26.23
  -2   7 -11   51.33    7.86
  -2   7 -12  108.30   11.80
   2  -7  13    6.88    2.68
  -2   7 -13    0.59    1.57
  -2   7 -14   18.98    5.20
   2  -7  14   22.52    4.70
   2  -7  15   -1.54    1.53
  -2   7 -15    0.56    1.20
   2   7  16   18.00    5.21
  -2   7 -16   11.66    4.62
   2  -7  16   17.81    4.58
  -2   7 -17    2.45    2.02
   2   7  17    2.74    2.95
   2   7  18   10.18    4.41
  -2   7 -18    9.39    4.20
   2   7  19    2.73    1.94
  -2   7 -19   11.84    5.26
   2   8 -18    1.76    2.70
   2   8 -17    1.43    1.29
   2   8 -16   36.07    8.16
   2   8 -15    7.15    4.13
   2   8 -14    1.68    2.14
   2   8 -13  214.45   18.02
   2   8 -12   14.80    4.79
   2   8 -11   55.50    8.62
   2   8 -10    1.16    2.14
   2   8  -9    1.56    1.39
   2   8  -8    2.02    1.64
  -2  -8   7   48.07    3.65
   2   8  -7   48.38    7.25
  -2  -8   6   33.57    3.09
   2   8  -6   36.01    6.08
   2   8  -5  121.17   11.10
  -2  -8   5  122.08    6.10
  -2  -8   4   -0.48    0.57
   2   8  -4    2.07    2.10
  -2  -8   3   37.26    3.70
   2   8  -3   32.73    5.60
  -2   8   2   18.37    3.54
   2  -8  -2   23.31    4.25
   2   8  -2   20.71    4.34
  -2  -8   2   20.09    2.96
   2   8  -1  295.83   15.90
   2   8  -1  278.26   11.58
  -2   8   1  295.88   14.04
   2  -8  -1  292.33   14.38
  -2   8   0    2.04    1.05
   2  -8   0    0.92    1.18
   2   8   0   -0.80    1.00
   2   8   0    1.03    0.82
   2   8   1  272.79   14.96
  -2   8  -1  273.21   14.10
  -2  -8  -1  270.31    8.33
  -2   8  -2  206.08   12.48
   2   8   2  201.01   12.89
  -2   8  -3    2.15    1.00
  -2   8  -4   12.41    3.10
  -2   8  -5    0.28    0.18
   2   8   5    0.37    0.49
   2   8   6  286.39   10.48
  -2   8  -6  267.98   15.76
  -2   8  -7    6.23    2.56
  -2   8  -8   17.72    4.31
  -2   8  -9   34.98    6.33
  -2   8 -10   27.25    5.63
  -2   8 -11  294.75   19.41
  -2   8 -12   22.88    5.78
  -2   8 -13   79.77   10.93
  -2   8 -14   -0.61    2.09
  -2   8 -15    2.35    1.64
   2   8  15    9.88    4.03
   2   8  16   -0.57    2.02
  -2   8 -16   -7.66    3.97
  -2   8 -17   20.08    6.64
   2   8  17   14.74    5.07
  -2   8 -18   -2.48    3.00
   2   8  18   -2.95    2.58
   2   9 -18    9.20    4.35
   2   9 -17   -5.95    3.79
   2   9 -16    8.87    4.39
   2   9 -15   49.01    9.53
   2   9 -14   -0.10    1.63
   2   9 -13   55.60    9.55
   2   9 -12   32.56    7.17
   2   9 -11   15.86    4.72
  -2  -9  10  112.91    4.97
   2   9 -10  111.67   12.28
  -2  -9   9  183.57    6.32
   2   9  -9  165.83   14.59
  -2  -9   8   16.21    1.94
   2   9  -8   18.34    4.86
  -2  -9   7   29.38    2.73
   2   9  -7   26.51    5.78
  -2  -9   6    4.72    1.16
   2   9  -6    8.63    3.04
  -2  -9   5   65.58    4.54
   2   9  -5   61.75    8.22
   2   9  -4   36.52    6.46
   2   9  -3  208.88   14.73
   2   9  -2   66.29    8.28
  -2   9   2   77.53    7.68
   2  -9  -2   73.01    7.74
   2   9  -1  106.59   10.16
  -2   9   1  108.93    9.14
   2   9  -1   97.51    7.19
   2  -9  -1   98.85    8.83
   2   9   0  116.31   10.31
   2  -9   0  112.64    9.56
  -2   9   0  117.80    9.68
   2   9   1    5.82    2.50
  -2  -9  -1    8.80    1.72
  -2   9  -1    9.24    3.07
  -2   9  -2  145.66   11.16
   2   9   2  133.93   11.11
  -2   9  -3  246.46   14.86
  -2   9  -4   40.67    6.22
  -2   9  -5   -1.14    1.82
   2   9   6   27.43    3.38
  -2   9  -6   30.47    5.50
  -2   9  -7   13.95    3.93
   2   9   7   11.58    2.35
  -2   9  -8   41.89    7.06
  -2   9  -9  164.01   14.13
  -2   9 -10   55.05    8.52
  -2   9 -11   67.70    9.76
  -2   9 -12    3.36    2.31
  -2   9 -13   56.73    9.48
  -2   9 -14   -1.09    2.48
  -2   9 -15   21.83    6.16
  -2   9 -16    2.49    2.78
   2   9  16   -2.50    3.34
  -2   9 -17   11.49    4.88
   2   9  17   12.80    4.54
   2   9  18    3.04    2.75
  -2   9 -18    2.03    3.25
   2  10 -18    2.64    2.78
   2  10 -17    5.62    3.18
   2  10 -16    0.81    2.59
   2  10 -15   51.27   10.05
   2  10 -14  106.43   13.95
   2  10 -13   81.57   12.01
   2  10 -12   69.29   10.77
   2  10 -11   10.34    4.19
   2  10 -10   74.46   10.47
   2  10  -9   52.24    8.69
   2  10  -8  175.31   15.54
   2  10  -7  218.16   16.88
   2  10  -6    6.45    2.89
   2  10  -5   72.78    9.44
   2  10  -5   69.28    2.82
   2  10  -4   27.42    5.55
   2  10  -3  143.95   12.74
   2 -10  -2    6.52    2.56
  -2  10   2    7.82    2.84
   2  10  -2    6.62    2.83
   2  10  -2    7.47    2.03
   2 -10  -1    1.43    1.81
   2  10  -1    3.39    1.75
  -2  10   1    1.05    0.92
   2 -10   0  323.56   16.81
   2  10   0  320.23   18.20
  -2  10   0  351.70   17.68
   2  10   1    3.88    2.10
  -2  10  -1    1.85    1.20
  -2 -10  -1    1.37    0.87
  -2  10  -2   -0.07    1.45
   2  10   2    0.11    1.06
  -2  10  -3    4.87    2.44
  -2  10  -4   65.62    8.32
  -2  10  -5   40.93    6.53
   2  10   6    0.80    0.72
  -2  10  -6    1.52    1.55
  -2  10  -7   71.73    9.29
  -2  10  -8   23.78    5.34
  -2  10  -9    8.58    3.71
  -2  10 -10   65.13    9.60
  -2  10 -11  221.14   18.20
  -2  10 -12   89.17   11.74
  -2  10 -13   42.89    8.59
  -2  10 -14    8.87    3.84
  -2  10 -15    0.07    2.48
  -2  10 -16    6.11    3.46
   2  10  17   -2.09    2.58
  -2  10 -17    1.20    1.96
   2  11 -17    3.71    3.53
   2  11 -16    5.15    3.73
   2  11 -15   -0.50    2.72
   2  11 -14   17.29    6.02
   2  11 -13   20.56    6.21
   2  11 -12   14.99    5.29
   2  11 -11    9.82    4.54
   2  11 -10   99.23   12.74
   2  11  -9   58.86    9.52
   2  11  -8   -1.69    2.79
   2  11  -7    2.68    2.27
   2  11  -6    8.23    3.64
   2  11  -5   76.89   10.03
   2  11  -4    3.69    2.64
   2 -11  -3  108.37    9.92
   2  11  -3   86.87   10.24
   2  11  -2  386.26   21.55
  -2  11   2  400.81   19.70
   2 -11  -2  371.46   18.25
   2  11  -1  158.03   13.48
  -2  11   1  146.84   11.89
   2 -11  -1  135.78   11.21
  -2  11   0    3.00    2.12
   2 -11   0   -0.09    1.91
   2  11   0   -1.35    2.11
  -2  11  -1   83.18    9.18
  -2 -11  -1   95.90    6.51
   2  11   1   98.18   10.43
   2  11   2   60.80    8.41
  -2  11  -2   56.73    7.84
  -2  11  -3   19.03    4.89
  -2  11  -4  381.21   20.83
  -2  11  -5    6.52    0.95
  -2  11  -5    2.19    1.67
  -2  11  -6   30.96    6.11
  -2  11  -7   55.75    8.52
  -2  11  -8   -0.26    1.96
  -2  11  -9   44.82    7.97
  -2  11 -10   61.32    9.79
  -2  11 -11    7.85    3.71
  -2  11 -12    0.66    2.38
  -2  11 -13   43.00    8.84
  -2  11 -14    2.30    2.69
  -2  11 -15    8.16    4.27
  -2  11 -16   20.63    6.78
   2  11  17    1.42    1.67
  -2  11 -17   -1.80    2.10
   2  12 -16   45.15   10.39
   2  12 -15   20.29    6.54
   2  12 -14   33.33    8.24
   2  12 -13    6.42    3.81
   2  12 -12  257.04   22.15
   2  12 -11   30.64    7.32
   2  12 -10   61.14   10.34
   2  12  -9   71.94   10.99
   2  12  -8   22.59    5.92
   2  12  -7   72.71   10.63
   2  12  -6    1.68    2.19
   2  12  -5   63.13    9.60
   2  12  -4   22.37    5.51
   2  12  -3  173.23   15.27
   2  12  -2   16.13    4.76
  -2  12   2   18.75    4.42
   2 -12  -2   13.07    3.62
   2  12  -1    0.77    1.61
  -2  12   1    3.70    2.27
   2 -12  -1    0.23    1.07
   2  12   0   11.50    3.97
   2 -12   0   14.67    3.95
  -2  12   0    6.73    2.57
  -2 -12  -1   35.25    4.17
   2  12   1   46.64    7.38
  -2  12  -1   37.39    6.41
  -2  12  -2  100.03   10.80
   2  12   2   92.20   10.71
  -2  12  -3   -0.14    2.05
  -2  12  -4  108.45   11.82
  -2  12  -5   89.91   10.87
  -2  12  -6   -1.52    1.58
  -2  12  -7   83.57   10.92
  -2  12  -8   29.54    6.79
  -2  12  -9    0.51    1.39
  -2  12 -10    0.40    1.69
  -2  12 -11   14.05    5.11
  -2  12 -12    1.65    2.74
  -2  12 -13   -1.67    2.30
  -2  12 -14   38.67    8.94
  -2  12 -15   -0.55    2.48
  -2  12 -16    3.30    2.67
   2  13 -16   30.07    8.90
   2  13 -15    9.37    5.12
   2  13 -14   18.57    6.14
   2  13 -13   -0.09    3.63
   2  13 -12    2.89    1.41
   2  13 -11   61.65   10.91
   2  13 -10   -5.08    3.22
   2  13  -9   25.76    6.81
   2  13  -8   20.74    6.17
   2  13  -7    2.68    2.78
   2  13  -6   88.09   11.97
   2  13  -5   18.18    5.38
   2  13  -4  163.67   15.73
   2  13  -3   -0.54    1.84
   2 -13  -2   15.92    4.06
   2  13  -2   20.82    5.56
  -2  13   2   12.93    3.86
   2  13  -1    2.06    1.55
   2 -13  -1    0.35    1.18
  -2  13   1   -0.18    1.77
   2 -13   0   31.56    6.02
  -2 -13   0   34.27    4.66
   2  13   0   29.78    6.46
  -2  13   0   40.62    7.02
   2  13   1   28.96    6.24
  -2  13  -1   24.35    5.63
  -2 -13  -1   18.07    3.17
   2 -13   1   26.00    5.56
   2  13   2    6.58    2.54
  -2  13  -2   18.84    4.97
  -2  13  -3    2.34    1.65
  -2  13  -4   60.93    9.14
  -2  13  -5   20.54    5.36
  -2  13  -6   -2.43    2.60
  -2  13  -7   72.93   10.57
  -2  13  -8    6.52    2.92
  -2  13  -9    4.52    2.37
  -2  13 -10   -2.24    3.10
  -2  13 -11   15.61    5.31
  -2  13 -12   11.16    4.57
  -2  13 -13    1.26    1.86
  -2  13 -14    2.45    2.85
  -2  13 -15    1.81    2.62
  -2  13 -16    6.93    4.25
   2  14 -15   -3.13    3.25
   2  14 -14   10.46    5.11
   2  14 -13   11.71    4.70
   2  14 -12    4.28    3.33
   2  14 -11    7.41    5.01
   2  14 -10   -0.67    2.39
   2  14  -9    1.54    2.84
   2  14  -8    6.72    3.53
   2  14  -7  170.81   17.47
   2  14  -6   32.24    7.40
   2  14  -5    2.06    1.93
   2  14  -4    7.38    3.85
   2  14  -3   47.62    8.57
   2  14  -2   10.96    4.09
   2 -14  -2   15.55    4.48
  -2  14   2    6.51    2.52
  -2  14   1   33.67    6.71
   2 -14  -1   21.88    5.10
  -2  14   0  490.24   25.24
   2  14   0  479.22   26.39
  -2 -14   0  464.22   17.84
   2 -14   0  448.25   22.99
  -2  14  -1   78.03   10.32
   2  14   1   77.19   10.74
  -2 -14  -1   90.03    7.37
   2 -14   1   72.52    9.45
  -2  14  -2   -2.01    2.78
  -2  14  -3   63.77    9.48
  -2  14  -4    0.83    2.36
  -2  14  -5   12.34    4.71
  -2  14  -6   -0.64    2.18
  -2  14  -7   -0.73    1.73
  -2  14  -8    7.24    4.60
  -2  14  -9   32.15    7.77
  -2  14 -10    8.91    4.27
  -2  14 -11   54.50   10.38
  -2  14 -12   47.45   10.04
  -2  14 -13   14.42    5.77
  -2  14 -14    5.32    4.16
  -2  14 -15    9.17    4.79
   2  15 -14   -6.26    4.18
   2  15 -13    3.34    3.43
   2  15 -12    2.29    1.75
   2  15 -11    3.88    2.87
   2  15 -10   45.11    9.84
   2  15  -9   37.48    8.60
   2  15  -8   26.33    7.56
   2  15  -7    3.89    3.36
   2  15  -6   -1.64    1.79
   2  15  -5   80.52   12.06
   2  15  -4   13.19    5.15
   2  15  -3    4.45    2.71
   2 -15  -2    8.90    3.31
   2  15  -2    5.93    3.13
  -2  15   1  545.16   27.64
   2 -15  -1  622.23   27.39
   2  15  -1  592.89   30.91
  -2 -15   1  540.94   21.51
   2  15   0    2.01    3.05
  -2  15   0    0.05    1.48
   2 -15   0    1.84    1.64
  -2 -15   0    0.86    1.08
   2  15   1  144.30   14.88
  -2 -15  -1  152.79   10.03
   2 -15   1  137.01   13.34
  -2  15  -1  149.09   14.78
  -2  15  -2   63.94    9.74
   2 -15   2   61.38    9.26
  -2  15  -3    2.14    2.60
  -2  15  -4   79.29   11.27
  -2  15  -5    0.84    2.17
  -2  15  -6   43.11    8.59
  -2  15  -7   27.69    7.07
  -2  15  -8    1.40    1.26
  -2  15  -9   71.67   11.75
  -2  15 -10   -4.08    3.17
  -2  15 -11   28.23    7.84
  -2  15 -12   16.87    6.19
  -2  15 -13   51.53   10.90
  -2  15 -14    8.52    5.27
   2  16 -13   12.31    5.26
   2  16 -12   18.74    6.91
   2  16 -11   51.67   10.91
   2  16 -10    5.81    3.21
   2  16  -9   17.41    6.07
   2  16  -8    3.17    3.05
   2  16  -7   40.09    9.21
   2  16  -6   -2.05    2.50
   2  16  -5   37.21    8.71
   2  16  -4   61.13   10.73
   2  16  -3  170.19   17.39
   2 -16  -2   58.75    8.72
   2  16  -2   46.57    9.12
  -2 -16   1   26.75    4.90
   2 -16  -1   24.82    5.74
  -2  16   1   14.05    4.82
   2  16  -1   35.41    7.77
  -2  16   0   15.31    4.98
   2  16   0   19.68    5.84
   2 -16   0   13.36    4.10
  -2  16  -1   13.07    4.80
   2 -16   1   28.07    6.25
   2  16   1   14.99    5.11
   2 -16   2  126.05   13.45
  -2  16  -2  160.58   16.08
  -2  16  -3   25.25    6.39
  -2  16  -4   14.74    5.15
  -2  16  -5   25.28    6.74
  -2  16  -6    8.83    4.48
  -2  16  -7    3.18    2.28
  -2  16  -8   34.27    8.54
  -2  16  -9   51.43   10.37
  -2  16 -10    0.92    1.98
  -2  16 -11   -1.37    3.16
  -2  16 -12   -7.38    4.33
  -2  16 -13   -0.11    2.25
   2  17 -12   -3.05    3.23
   2  17 -11   24.65    7.87
   2  17 -10   -3.46    4.11
   2  17  -9   10.28    5.14
   2  17  -8    0.14    1.98
   2  17  -7   17.79    6.44
   2  17  -6    9.27    4.44
   2  17  -5  120.95   15.67
   2  17  -4    2.52    1.69
   2  17  -3   18.81    6.37
   2  17  -2  158.65   17.23
   2 -17  -2  174.85   15.35
  -2  17   1   68.77   10.70
   2 -17  -1   46.53    8.10
   2  17  -1   47.44    9.43
  -2  17   0   84.09   11.89
   2  17   0   80.28   12.01
   2 -17   0   81.60   10.73
   2 -17   1   13.43    4.45
  -2  17  -1    8.63    3.60
   2  17   1    8.99    3.86
  -2  17  -2    5.12    3.27
   2 -17   2    0.40    1.31
   2 -17   3   -1.00    2.43
  -2  17  -3   -2.65    1.75
  -2  17  -4   11.55    4.75
  -2  17  -5   20.57    6.24
  -2  17  -6   49.07    9.77
  -2  17  -7   -6.24    3.66
  -2  17  -8    0.93    1.66
  -2  17  -9    3.75    2.50
  -2  17 -10   -0.45    2.28
  -2  17 -11    6.06    4.07
  -2  17 -12   10.65    5.43
   2  18 -10    3.42    3.87
   2  18  -9   11.73    5.75
   2  18  -8   61.72   12.09
   2  18  -7    8.89    4.74
   2  18  -6    7.47    5.18
   2  18  -5    3.90    3.64
   2  18  -4    7.20    4.22
   2  18  -3   70.16   12.04
   2 -18  -2    5.01    2.75
   2  18  -2    8.18    4.24
   2  18  -1   14.59    5.42
  -2  18   1   17.39    5.68
   2 -18  -1   19.17    5.26
   2 -18   0   -0.09    1.24
  -2  18   0   -1.49    2.51
   2  18   0   -1.22    2.22
   2 -18   1    0.16    1.56
  -2  18  -1   -0.90    2.32
   2  18   1   -3.73    3.04
  -2  18  -2  103.74   13.93
   2 -18   2   94.29   12.31
   2 -18   3    0.67    1.63
  -2  18  -3    0.73    1.32
  -2  18  -4   61.69   10.93
  -2  18  -5   -0.60    2.00
  -2  18  -6   97.90   14.36
  -2  18  -7    5.78    3.83
  -2  18  -8   28.45    7.80
  -2  18  -9    4.49    3.74
  -2  18 -10   53.31   11.39
  -2  18 -11   31.09    8.82
   2  19  -8    4.08    4.29
   2  19  -7   29.23    8.71
   2  19  -6    4.59    3.21
   2  19  -5    1.33    3.82
   2  19  -4   20.41    6.64
   2  19  -3    4.29    3.74
   2  19  -2    3.55    2.43
   2 -19  -1   12.32    4.51
   2  19  -1   14.08    5.51
   2 -19   0   21.53    5.85
  -2  19   0   30.08    7.50
   2  19   0   19.57    6.62
   2 -19   1   64.46   10.32
  -2  19  -1   58.76   10.65
   2 -19   2   18.00    5.56
  -2  19  -2   16.82    5.58
  -2  19  -3   16.94    5.92
   2 -19   3   18.91    5.91
  -2  19  -4   37.21    8.86
   2 -19   4   39.25    8.46
  -2  19  -5    0.65    1.34
  -2  19  -6   32.47    8.55
  -2  19  -7   25.39    7.68
  -2  19  -8   44.69   10.03
  -2  19  -9   14.29    5.93
   2  20  -6   -2.80    3.36
   2  20  -5   15.78    6.25
   2  20  -4   -6.42    4.75
   2  20  -3   28.81    8.12
   2  20  -2    7.60    4.68
   2 -20  -1   -2.88    2.34
   2  20  -1    0.28    1.50
   2  20   0    0.68    1.68
   2 -20   0   -0.74    1.43
  -2  20   0    4.42    3.08
   2 -20   1    7.92    3.62
  -2  20  -1    3.02    2.81
   2 -20   2   29.65    7.32
  -2  20  -2   24.21    7.24
  -2  20  -3   -0.58    2.02
   2 -20   3   -1.07    2.50
  -2  20  -4   11.33    5.05
   2 -20   4   11.87    4.84
   2 -20   5    1.25    2.13
  -2  20  -5    2.97    1.89
  -2  20  -6   34.88    8.91
  -2  20  -7   -1.13    2.34
  -2  20  -8    7.06    4.58
   2  21  -2   19.59    6.65
   2  21  -1   53.85   11.44
  -2  21   0    2.59    2.78
  -2  21  -1    3.84    3.22
  -2  21  -2   -2.62    2.79
   2 -21   3   36.76    8.47
  -2  21  -3   47.75   10.45
  -2  21  -4   -2.24    2.54
   2 -21   4    1.62    1.80
   2 -21   5    1.29    2.01
  -2  21  -5    7.13    4.55
  -2  22  -1   34.31    9.01
   3   0 -20   -2.07    1.63
   3   0 -19   14.62    5.17
   3   0 -18   -3.96    2.71
   3   0 -17   12.19    3.25
   3   0 -17    5.87    2.82
   3   0 -16    1.21    1.73
   3   0 -16   -0.41    1.36
   3   0 -15   69.86    9.02
   3   0 -15   76.30    7.86
   3   0 -14   -0.55    1.29
   3   0 -13   -0.67    0.93
   3   0 -12   -0.18    1.24
   3   0 -11  298.34   13.76
   3   0 -10   -0.59    0.75
   3   0  -9   25.21    3.75
   3   0  -8    0.18    0.89
   3   0  -7   13.28    2.50
   3   0  -6   -0.24    0.76
   3   0  -5   44.36    3.81
   3   0  -5   39.78    3.97
   3   0  -4   -0.25    0.56
   3   0  -4   -0.30    0.40
   3   0  -3    9.27    1.38
   3   0  -3    8.09    1.70
   3   0  -2   -0.23    0.35
   3   0  -2    0.10    0.60
   3   0  -1 9999.00   51.82
  -3   0   0   -0.02    0.21
   3   0   0    0.26    0.61
   3   0   0   -0.23    0.51
  -3   0  -1 1891.98   20.02
   3   0   1 1935.58   27.41
   3   0   1 1912.91   20.09
   3   0   1 2025.21   25.97
   3   0   2    0.28    0.39
  -3   0  -2    0.55    0.44
   3   0   3    5.97    1.11
   3   0   3    8.05    2.39
  -3   0  -4    0.54    0.85
   3   0   4    0.12    0.84
  -3   0  -5    2.11    1.11
   3   0   5    3.71    1.53
   3   0   5    0.21    0.79
   3   0   6    1.59    1.35
  -3   0  -6    0.13    1.10
   3   0   7  268.67   13.25
   3   0   8   -0.53    1.49
   3   0   9   51.57    6.50
   3   0  10    0.34    1.35
   3   0  11   24.98    4.87
   3   0  12   -2.20    2.60
   3   0  13  194.80   14.84
   3   0  14    0.99    1.84
   3   0  15  118.86   12.60
   3   0  16    3.81    2.51
   3   0  17    0.19    2.09
   3   0  18   -1.21    2.04
   3   0  19   15.14    5.18
   3   0  20    9.39    4.58
   3   0  21   32.77    8.20
   3  -1 -20   11.82    4.65
   3   1 -20    9.63    4.28
   3  -1 -19   10.39    4.43
   3   1 -19   12.10    4.28
   3  -1 -18   12.77    4.38
   3   1 -18   13.89    4.71
  -3  -1  17   38.96    6.30
   3  -1 -17   49.00    6.65
   3   1 -17   48.11    8.40
   3  -1 -16    0.08    1.41
   3   1 -16   -0.40    1.31
   3  -1 -15   -0.18    1.13
   3   1 -15    1.88    1.93
   3   1 -15    2.22    2.38
   3  -1 -14   -0.63    0.86
   3   1 -14    0.67    1.91
   3   1 -14   -1.00    1.57
   3   1 -13  141.91   11.83
   3  -1 -13  138.14    9.90
   3   1 -13  163.41   11.05
   3   1 -12    0.60    1.43
   3  -1 -12    0.04    1.05
   3   1 -12    0.35    0.77
   3   1 -11    0.98    1.21
   3  -1 -11    1.78    1.21
   3   1 -11   -0.02    1.14
   3   1 -10   -0.92    1.25
   3  -1 -10   -4.03    1.64
   3   1 -10   -0.84    1.04
   3  -1  -9   69.40    6.10
   3   1  -9   72.41    6.83
   3   1  -9   71.15    6.27
   3  -1  -8   49.10    4.98
   3   1  -8   54.89    5.61
   3   1  -8   49.23    5.04
   3   1  -7    0.05    0.78
   3   1  -7    0.75    1.03
   3  -1  -7    0.14    1.02
   3   1  -6    1.51    1.26
   3  -1  -6    1.58    1.14
   3   1  -6    0.55    0.93
   3  -1  -5    0.69    0.62
   3   1  -5    0.76    0.46
   3   1  -5    2.04    1.21
   3   1  -4    9.48    2.03
   3  -1  -4    6.27    1.57
   3   1  -4    6.58    1.54
  -3  -1   3   18.80    2.06
   3   1  -3   15.30    2.11
   3  -1  -3   17.60    2.49
   3   1  -3   19.45    2.65
   3  -1  -2  856.14   15.87
   3   1  -2  855.23   16.46
   3   1  -2  832.58   14.17
  -3  -1   2  872.80   13.38
   3  -1  -2  827.13    8.80
  -3  -1   1  146.87    6.72
   3   1  -1  137.45    6.32
   3  -1  -1  127.12    5.75
  -3  -1   1  130.56    5.23
   3   1  -1  135.22    5.27
   3  -1   0 1351.52   22.86
  -3  -1   0 1358.34   20.03
   3  -1   0 1371.88   17.92
  -3  -1   0 1332.65   17.21
   3   1   0 1331.67   18.93
   3   1   0 1337.37   21.05
  -3  -1  -1  192.23    6.68
   3   1   1  183.34    7.06
   3  -1   1  189.94    6.21
   3   1   1  183.80    6.77
   3   1   1  189.14    8.25
   3   1   2   34.70    3.71
   3  -1   2   35.92    4.06
  -3  -1  -2   32.74    2.63
   3  -1   2   33.67    2.41
  -3  -1  -3   54.96    3.19
   3  -1   3   54.92    2.88
   3   1   3   53.39    4.84
   3  -1   3   57.59    5.24
  -3   1  -3   55.30    4.80
   3  -1   4  139.25    4.04
   3   1   4  137.61    8.32
  -3   1  -4  119.52    7.22
   3   1   4  140.79    8.28
  -3  -1  -4  136.81    4.66
   3  -1   4  144.86    8.65
   3   1   5    8.08    2.05
  -3   1  -5    9.36    2.16
  -3  -1  -5    8.67    1.06
   3  -1   5    7.53    0.83
  -3  -1  -5    9.17    2.40
   3  -1   5    9.66    2.46
  -3  -1  -6   24.00    1.56
  -3  -1  -6   25.69    4.07
   3   1   6   23.29    3.69
  -3   1  -6   26.24    3.70
   3  -1   6   27.41    4.18
   3  -1   6   29.02    3.88
   3   1   7  176.87   10.99
   3  -1   7  178.84   10.84
   3   1   8  172.22   11.34
   3  -1   8  168.36   10.96
   3   1   9    0.60    1.63
   3  -1   9    1.47    1.15
   3   1  10   13.75    3.58
   3  -1  10   13.56    3.66
   3   1  11   -0.55    1.48
   3  -1  11   -1.38    2.19
   3   1  12    1.39    1.45
   3  -1  12    3.97    2.34
   3  -1  13    2.95    1.62
   3   1  13    1.71    1.76
   3  -1  14   30.22    6.14
   3   1  14   29.86    6.23
   3  -1  15    3.55    2.34
   3   1  15    7.39    3.32
   3   1  16   13.74    4.42
   3  -1  16   13.36    4.42
   3  -1  17   31.52    6.91
   3   1  17   21.73    5.86
   3  -1  18    4.65    3.27
   3   1  18    1.52    1.30
   3   1  19   -1.56    2.12
   3  -1  19    2.08    2.42
   3  -1  20    0.09    2.51
   3   1  20   -1.91    2.41
   3   1  21    5.14    3.35
   3  -1  21   -0.55    1.65
   3   2 -20   32.84    8.07
   3  -2 -20   37.96    8.19
   3   2 -19   -0.68    1.93
   3   2 -18    3.48    2.69
   3  -2 -17    4.82    2.31
   3   2 -17    4.62    2.86
   3   2 -16    2.09    2.43
  -3  -2  16   -0.25    1.36
   3  -2 -16    2.67    1.76
   3  -2 -15   46.15    6.20
   3   2 -15   40.81    5.89
   3   2 -14   10.99    3.34
   3   2 -14    9.53    2.93
   3  -2 -14    9.31    2.90
   3   2 -13   12.44    3.08
   3  -2 -13   17.31    3.61
   3   2 -13   14.88    3.93
   3   2 -12    3.29    1.72
   3  -2 -12    4.51    1.76
   3   2 -12    4.74    2.21
   3   2 -11   24.81    4.19
   3   2 -11   19.79    4.09
   3  -2 -11   22.31    3.74
   3  -2 -10   63.83    6.12
   3   2 -10   68.78    6.65
   3   2 -10   62.04    6.89
   3   2  -9   18.14    3.21
   3   2  -9   20.89    3.85
   3  -2  -9   28.13    3.92
   3  -2  -8   15.10    2.79
   3   2  -8   12.42    2.70
   3   2  -8   15.98    3.19
   3   2  -7  327.88   12.96
   3   2  -7  327.24   13.55
   3   2  -6   92.53    6.86
   3   2  -6  103.48    7.10
   3   2  -5   18.02    2.78
   3   2  -5   18.23    3.01
   3   2  -4  105.95    6.66
  -3  -2   4  125.67    6.43
   3   2  -4  109.00    6.65
   3   2  -3  579.39   14.88
   3   2  -3  568.33   14.50
  -3  -2   3  597.73   13.69
  -3  -2   2  820.61   14.49
  -3  -2   2  860.05   16.23
   3   2  -2  839.54   17.34
   3   2  -2  806.45   16.39
   3   2  -1   80.95    4.92
  -3  -2   1   83.10    5.06
   3   2  -1   82.09    5.30
   3  -2  -1   85.61    6.22
  -3  -2   1   78.67    4.56
  -3  -2   0  471.75   12.21
   3   2   0  462.71   11.48
  -3  -2   0  451.35   11.44
   3  -2   0  467.15   14.50
   3   2   0  452.68   11.86
  -3  -2   0  481.47   10.78
   3   2   1   13.76    2.25
  -3  -2  -1   16.51    2.37
  -3   2  -1   13.31    1.37
   3   2   1   17.74    1.89
  -3  -2  -1   14.35    2.01
  -3   2  -2    0.64    0.45
  -3  -2  -2    1.13    0.70
   3   2   2   -0.38    0.72
   3  -2   3  140.45    8.30
  -3  -2  -3  143.43    5.94
   3   2   3  149.69    8.22
   3   2   3  154.48    8.81
  -3  -2  -4   53.22    3.43
   3  -2   4   47.96    5.08
  -3   2  -4   54.47    4.70
   3   2   4   56.37    5.35
   3   2   5   31.10    4.20
  -3   2  -5   23.88    3.21
   3  -2   5   23.63    3.75
   3   2   6  761.87   21.79
   3  -2   6  703.12   20.86
  -3   2  -6  744.31   18.62
   3  -2   7  130.95    8.17
   3  -2   7  145.81    9.80
   3   2   7  132.54    9.60
   3   2   8    6.34    2.46
   3  -2   8    3.55    1.94
   3   2   9    6.57    2.64
   3  -2   9    3.99    2.07
   3  -2  10   20.50    4.31
   3   2  10   23.45    4.70
   3  -2  11   82.91    8.76
   3   2  11   97.47    9.78
   3   2  12    1.57    1.56
   3  -2  12   -0.89    1.42
   3   2  13    0.17    1.64
   3  -2  13    1.40    1.92
   3  -2  14  150.77   13.37
   3   2  14  148.47   13.72
   3   2  15   -0.64    1.45
   3  -2  15    2.79    2.33
   3  -2  16    2.68    2.53
   3   2  16    1.11    1.50
   3  -2  17    1.06    1.71
   3   2  17   -2.44    2.67
  -3   2 -18   -0.27    1.73
   3  -2  18    1.78    2.70
   3   2  18   -2.53    2.38
  -3   2 -19    6.40    3.78
   3  -2  19    2.54    2.18
   3   2  19    7.87    4.36
   3  -2  20   -2.55    2.54
   3   2  20   -1.70    2.08
   3   3 -20   10.07    4.73
   3   3 -19    6.89    3.61
   3   3 -18    4.86    3.23
   3   3 -17   10.79    4.08
   3  -3 -17    9.35    2.82
   3   3 -16    7.94    3.96
   3  -3 -16   11.92    3.39
   3   3 -15    2.90    2.11
   3  -3 -15    5.74    2.40
  -3  -3  15    7.21    2.61
   3   3 -14    5.36    3.03
   3  -3 -14    6.93    2.43
  -3  -3  14    7.40    2.52
   3   3 -13    8.33    3.39
   3  -3 -13    8.79    2.71
   3   3 -12   12.88    3.56
   3  -3 -12   21.12    3.75
   3   3 -11   27.01    5.08
   3   3 -11   21.90    3.91
   3  -3 -11   14.20    2.99
   3   3 -10   67.27    6.73
   3  -3 -10   76.96    6.83
   3   3 -10   58.10    6.88
   3   3  -9    1.19    1.10
   3   3  -9   -0.74    1.65
   3   3  -8  376.73   15.05
   3   3  -8  342.17   15.47
   3   3  -7   91.69    7.18
   3   3  -7   83.65    7.36
   3   3  -6   22.82    3.61
   3   3  -6   22.75    3.45
   3   3  -5    0.34    0.70
   3   3  -5   -0.29    1.06
   3   3  -4  127.57    8.02
   3   3  -4  132.36    7.77
  -3  -3   4  147.98    7.80
  -3  -3   3   13.64    2.41
  -3  -3   3   16.40    1.80
   3   3  -3   18.08    3.15
   3  -3  -2  797.73   12.34
  -3  -3   2  815.91   12.98
  -3  -3   2  859.32   18.63
   3   3  -2  820.55   18.67
   3   3  -1  108.79    5.29
  -3  -3   1  113.84    5.19
   3  -3  -1  108.67    4.20
   3   3  -1  109.20    6.59
  -3  -3   1  113.34    6.77
   3  -3  -1  105.74    7.38
  -3  -3   0  408.85   10.62
  -3   3   0  404.98    8.48
   3   3   0  406.23   11.03
  -3  -3   0  409.16    8.98
   3   3   0  419.92   12.63
  -3  -3   0  397.06   12.83
   3  -3   0  421.35    7.86
   3  -3   0  389.21   14.30
   3  -3   1   18.11    1.78
  -3   3  -1   15.75    1.88
  -3  -3  -1   21.02    2.99
  -3  -3  -1   20.33    2.58
   3   3   1   19.95    2.69
   3   3   2  719.53   10.38
  -3   3  -2  727.07   13.82
   3   3   2  748.35   19.27
  -3  -3  -2  744.44   18.28
   3   3   2  744.04   17.12
   3   3   3   35.87    4.46
   3   3   3   36.86    4.08
  -3   3  -3   40.09    3.53
   3   3   4    6.49    1.92
  -3   3  -4    8.54    1.80
  -3   3  -4    8.86    1.87
   3   3   5  230.56   11.35
  -3   3  -5  234.16   10.00
  -3   3  -5  221.13    9.39
   3  -3   5  204.45   11.03
  -3   3  -6   12.62    2.34
   3   3   6   15.78    3.29
   3  -3   6   13.02    2.99
   3   3   7  232.21   12.91
   3  -3   7  229.22   12.40
  -3   3  -7  224.73   10.11
   3   3   8   17.35    3.73
   3  -3   8   12.47    2.88
   3   3   9   34.83    5.46
   3  -3   9   36.12    5.32
   3  -3  10  150.27   11.29
   3   3  10  134.95   11.13
   3   3  11   30.06    5.57
   3  -3  11   40.09    6.15
   3  -3  12  188.74   13.74
   3   3  12  157.89   13.16
   3   3  13    8.67    3.77
   3  -3  13    4.85    2.56
   3   3  14   34.61    6.73
   3  -3  14   33.86    6.37
  -3   3 -14   34.42    6.54
   3   3  15   10.04    3.96
   3  -3  15    7.56    3.38
  -3   3 -15   13.82    4.46
   3  -3  16  149.32   14.21
   3   3  16  161.10   15.60
   3   3  17   13.08    5.10
  -3   3 -17   22.13    5.91
   3  -3  17   10.71    4.24
   3  -3  18    8.09    3.80
  -3   3 -18   13.44    5.00
   3   3  18    7.10    3.69
  -3   3 -19    8.39    3.93
   3  -3  19    4.33    3.15
   3   3  19    5.27    3.14
   3  -3  20   18.56    5.80
   3   3  20   21.40    6.62
   3   4 -20   35.41    8.45
   3   4 -19   -1.31    2.02
   3   4 -18    1.64    1.10
   3  -4 -17    5.87    2.73
   3   4 -17    5.81    3.19
   3  -4 -16   34.82    5.50
   3   4 -16   32.57    7.03
   3  -4 -15   -0.39    0.93
   3   4 -15    1.34    1.66
  -3  -4  14  182.92   10.67
   3  -4 -14  164.30   11.52
   3   4 -14  194.08   15.71
  -3  -4  13   -0.26    0.71
   3   4 -13   -1.46    1.68
   3  -4 -13    0.04    0.85
   3  -4 -12    1.94    1.56
  -3  -4  12    2.45    1.16
   3   4 -12    0.72    1.43
   3   4 -11   39.79    6.26
   3   4 -10  296.93   16.57
   3   4  -9    3.71    1.70
   3   4  -8   -0.89    1.40
   3   4  -7  321.39   15.26
   3   4  -6  233.82   12.49
   3   4  -5   91.61    7.61
  -3  -4   4   37.11    2.11
   3   4  -4   29.43    4.04
   3   4  -3   31.47    4.16
  -3  -4   3   33.00    4.07
  -3  -4   3   33.33    2.17
   3  -4  -3   25.77    2.86
   3   4  -2  119.07    4.92
  -3  -4   2  113.95    4.60
  -3  -4   2  121.99    7.82
   3   4  -2  124.77    8.15
   3  -4  -2  114.14    5.63
  -3   4   1    7.61    1.38
  -3  -4   1    7.79    1.34
   3  -4  -1    4.47    1.66
  -3  -4   1    8.12    2.09
   3  -4  -1    9.81    1.60
  -3  -4   1    6.65    1.97
   3   4  -1    8.83    2.09
   3   4  -1    7.60    1.38
   3   4   0  430.73   11.31
   3   4   0  424.07   14.16
   3  -4   0  437.84   10.38
  -3   4   0  437.22   10.96
  -3  -4   0  426.48   14.66
   3  -4   0  455.12   16.19
   3   4   1  783.78   16.54
  -3  -4  -1  811.28   20.44
  -3   4  -1  760.35   15.37
   3  -4   1  823.58   14.37
   3  -4   2  453.18   11.13
  -3   4  -2  430.89   12.28
  -3  -4  -2  461.72   15.66
   3   4   2  460.62   15.80
   3   4   2  440.81   13.34
   3   4   3  244.99   10.68
  -3   4  -3  242.09    9.68
   3   4   4   91.06    6.87
  -3   4  -4  103.61    6.75
   3   4   5    1.04    1.31
  -3   4  -5    0.12    0.58
  -3   4  -5   -0.18    0.63
  -3   4  -6  552.07   14.60
   3   4   6  568.30   19.40
   3  -4   6  550.94   18.84
  -3   4  -6  546.19   17.46
  -3   4  -7  272.76   13.03
   3   4   7  265.55   13.97
  -3   4  -7  268.31   10.50
   3  -4   7  265.46   13.48
   3   4   8    2.10    1.48
   3  -4   8    5.33    2.05
  -3   4  -8    3.96    1.89
  -3   4  -9   92.14    8.48
   3  -4   9  114.33    9.54
   3  -4   9   89.11    2.70
   3   4   9   97.65    9.36
   3   4  10   47.56    6.82
   3  -4  10   37.12    5.63
  -3   4 -10   40.89    5.97
   3   4  11   48.22    7.22
  -3   4 -11   38.32    6.02
   3  -4  11   52.69    7.00
   3   4  12    5.16    2.76
   3  -4  12    5.01    2.06
  -3   4 -12    1.19    1.27
  -3   4 -13  126.05   12.00
   3  -4  13  121.02   11.45
   3   4  13  103.72   11.25
   3   4  14   20.42    5.30
  -3   4 -14   24.11    5.44
   3  -4  14   22.85    5.39
   3   4  15    2.51    2.73
  -3   4 -15    1.18    1.61
   3  -4  15   -0.16    1.75
   3   4  16    6.45    3.36
  -3   4 -16    8.11    3.97
   3  -4  16    8.48    3.48
   3   4  17   24.18    6.36
  -3   4 -17   19.08    5.86
   3  -4  17   24.00    5.91
   3  -4  18   80.39   11.11
   3   4  18  108.86   13.80
  -3   4 -18  106.69   13.92
   3  -4  19    1.35    1.33
  -3   4 -19    5.47    3.06
   3   4  19    6.48    3.56
   3   4  20   -0.57    3.05
   3   5 -20    4.75    2.96
   3   5 -19   -1.27    2.06
   3   5 -18   -2.35    2.80
   3   5 -17   17.40    5.32
   3  -5 -17   23.05    4.64
   3  -5 -16    1.24    1.41
   3   5 -16    3.06    1.80
   3  -5 -15   41.42    6.03
   3   5 -15   51.26    8.55
   3   5 -14   51.36    8.45
   3  -5 -14   60.06    7.06
  -3  -5  13  177.65    9.14
   3   5 -13  157.03   14.12
  -3  -5  12  127.48    7.26
   3   5 -12  121.95   11.94
   3   5 -11   22.90    5.09
  -3  -5  11   26.37    2.95
   3   5 -10    4.42    2.29
  -3  -5  10    7.83    1.47
  -3  -5   9   86.90    4.32
   3   5  -9   84.01    8.79
  -3  -5   8  219.05    5.78
   3   5  -8  198.06   13.21
   3   5  -7    3.28    2.10
   3   5  -6  304.44   15.36
   3   5  -5   33.72    4.91
   3   5  -4  191.97   11.41
   3  -5  -3  105.46    6.51
   3   5  -3   96.58    7.99
  -3  -5   2  209.86    9.73
   3  -5  -2  198.32    8.60
   3   5  -2  205.58   11.34
   3  -5  -2  211.83   11.63
   3   5  -2  192.79    6.17
   3   5  -1   22.48    2.47
   3  -5  -1   26.35    3.07
  -3  -5   1   22.18    3.25
   3   5  -1   25.01    3.82
  -3   5   1   23.40    2.84
   3  -5  -1   22.69    3.85
   3  -5   0    7.57    2.20
   3   5   0    8.84    1.69
   3  -5   0    8.12    1.66
   3   5   0    9.07    2.32
  -3  -5   0    8.77    2.13
  -3   5   0    9.98    2.00
   3   5   1   22.43    3.57
   3  -5   1   24.29    2.89
  -3   5  -1   25.68    3.25
   3   5   1   25.70    3.04
   3   5   1   24.42    3.63
   3  -5   2  208.29    8.60
  -3   5  -2  189.55    9.13
   3   5   2  208.54    9.39
   3  -5   3  178.98    8.24
   3   5   3  170.12    9.07
  -3   5  -3  166.13    8.95
  -3   5  -4  112.25    7.71
   3   5   4  127.44    8.38
  -3   5  -5  324.17   10.54
   3   5   5  317.83   14.07
  -3   5  -5  302.45   13.17
  -3   5  -6  127.91    6.74
   3   5   6  145.49   10.03
  -3   5  -6  130.70    9.01
   3   5   7   60.55    6.79
  -3   5  -7   61.41    4.75
  -3   5  -7   66.60    6.80
   3  -5   8   59.23    6.69
   3   5   8   60.71    7.13
  -3   5  -8   57.78    6.65
   3  -5   9  121.20    9.90
   3   5   9  144.83   11.52
  -3   5  -9  147.51   11.23
  -3   5 -10   51.48    7.04
   3   5  10   55.72    7.64
   3  -5  10   56.18    2.84
   3  -5  10   59.36    7.19
  -3   5 -11   17.93    4.35
   3   5  11   17.88    4.65
   3  -5  11   25.69    4.85
   3   5  12  133.09   12.53
  -3   5 -12  152.80   13.06
   3  -5  12  147.95   12.14
  -3   5 -13   -0.04    1.77
   3   5  13   -0.26    2.07
   3  -5  13    2.56    1.97
   3   5  14    3.58    2.39
  -3   5 -14    6.84    3.27
   3  -5  14   13.39    4.20
  -3   5 -15    5.11    2.98
   3  -5  15    0.64    1.14
   3   5  16   -0.90    1.83
  -3   5 -16    0.39    1.68
   3  -5  16   -0.48    1.37
   3  -5  17   26.10    5.94
  -3   5 -17   17.70    5.69
   3   5  17   20.83    6.03
   3   5  18   13.30    4.98
   3  -5  18    6.80    3.31
  -3   5 -18   13.84    5.20
   3   5  19    9.36    4.08
  -3   5 -19    9.43    4.83
   3   6 -19   12.23    5.00
   3   6 -18    2.84    2.53
   3  -6 -17    1.02    1.19
   3   6 -17   -0.92    2.49
   3   6 -16   15.41    5.51
   3  -6 -16   18.45    4.22
   3   6 -15   27.78    6.68
   3  -6 -15   42.29    6.13
   3   6 -14   12.09    4.29
   3   6 -13    0.43    1.45
   3   6 -12  261.94   18.22
  -3  -6  11  167.22    6.56
   3   6 -11  178.37   14.46
   3   6 -10   75.41    9.14
  -3  -6  10   69.93    3.61
   3   6  -9   68.35    8.42
   3   6  -8    3.29    2.50
   3   6  -7    0.53    1.39
   3   6  -6   17.59    3.89
   3   6  -5   97.71    9.00
   3  -6  -4  118.06    7.88
   3   6  -4  116.50    9.50
   3  -6  -3   20.34    3.19
  -3  -6   3   17.51    2.87
   3   6  -3   16.67    1.54
   3   6  -3   22.30    4.06
   3   6  -2  402.77    9.05
  -3  -6   2  395.56   13.78
   3   6  -2  391.52   16.65
   3  -6  -2  387.30   13.56
   3  -6  -2  399.80   16.77
   3  -6  -1   22.69    3.19
  -3   6   1   21.61    3.08
   3   6  -1   20.62    3.75
   3   6  -1   21.62    2.47
   3  -6  -1   14.69    2.99
  -3  -6   1   21.95    3.33
   3   6   0  112.59    8.71
  -3  -6   0  122.02    8.11
   3   6   0  117.28    6.13
   3  -6   0  111.11    8.92
   3  -6   0  123.62    7.39
  -3   6   0  117.59    7.38
  -3  -6  -1   -0.58    1.15
   3  -6   1    0.80    0.54
   3   6   1    0.35    1.12
   3   6   1    0.60    0.75
  -3   6  -1    0.16    0.58
  -3   6  -2  389.28   14.45
   3   6   2  381.17   13.02
   3  -6   2  393.96   13.18
   3   6   3  858.54   21.06
  -3   6  -3  837.63   21.83
  -3   6  -4   15.55    3.14
   3   6   4   16.47    3.15
  -3   6  -5  571.63   13.58
  -3   6  -5  563.18   19.41
  -3   6  -6  104.52    5.75
  -3   6  -6  113.50    9.01
   3   6   7   84.68    8.19
  -3   6  -7   77.79    5.02
  -3   6  -7   80.02    7.86
   3   6   8   39.34    5.88
  -3   6  -8   39.03    5.80
   3   6   9  139.49   11.45
  -3   6  -9  144.35   11.57
   3  -6  10   31.49    5.33
   3   6  10   29.86    5.64
  -3   6 -10   25.46    5.16
  -3   6 -11   -0.10    1.94
   3   6  11    1.54    1.80
   3  -6  11    0.53    1.38
   3  -6  12    1.54    1.38
   3   6  12   -0.03    2.11
  -3   6 -12    1.67    1.96
  -3   6 -13   43.92    7.67
   3  -6  13   47.81    7.18
   3   6  13   61.49    8.98
   3  -6  14   22.50    5.17
  -3   6 -14   13.54    4.02
   3   6  15    1.25    2.03
   3  -6  15    3.15    2.15
  -3   6 -15    0.51    1.63
   3  -6  16    2.48    1.63
   3   6  16    4.98    2.18
  -3   6 -16    7.05    3.61
   3   6  17   -1.60    2.43
  -3   6 -17    1.72    2.33
   3  -6  17    1.75    1.76
   3   6  18    1.80    1.91
  -3   6 -18    0.23    2.29
   3   6  19    4.58    3.02
  -3   6 -19   13.08    5.34
   3   7 -19   -3.21    2.87
   3   7 -18    0.67    2.30
   3   7 -17   30.85    7.74
   3  -7 -17   34.65    5.95
   3   7 -16    9.55    3.80
   3  -7 -16   15.41    3.88
   3   7 -15   14.61    5.01
   3   7 -14   25.79    6.20
   3   7 -13  300.78   20.93
   3   7 -12   17.25    5.33
   3   7 -11    6.33    3.38
   3   7 -10  158.15   13.85
   3   7  -9   90.93   10.28
   3   7  -8  123.60   11.54
   3   7  -7   59.56    7.89
   3   7  -6    3.06    1.74
   3   7  -5  585.72   23.29
  -3  -7   4    8.12    1.95
   3   7  -4    8.70    3.27
  -3  -7   3  228.65   10.45
   3  -7  -3  230.22   11.62
   3   7  -3  219.58    5.78
   3   7  -3  238.19   14.28
   3  -7  -2  323.47   15.64
   3  -7  -2  313.99   13.37
  -3  -7   2  307.11   12.47
   3   7  -2  326.94    8.56
   3   7  -2  296.53   15.51
  -3  -7   1   44.75    4.94
   3  -7  -1   49.45    6.21
   3  -7  -1   47.56    5.13
  -3   7   1   49.92    5.20
   3   7  -1   50.41    6.21
   3   7  -1   45.06    3.71
   3   7   0   84.83    5.46
  -3  -7   0   78.63    6.82
   3   7   0   73.33    7.48
   3  -7   0   81.07    6.63
   3  -7   0   86.33    8.24
  -3   7   0   77.67    6.61
  -3   7  -1  478.96   16.91
  -3  -7  -1  486.09   17.26
   3   7   1  473.16   18.88
   3   7   1  471.60   14.07
   3  -7   1  503.13   16.46
  -3  -7  -2   12.46    2.92
  -3   7  -2    7.22    2.15
  -3   7  -3  699.21   21.62
  -3   7  -4  809.51   23.92
   3   7   5  459.11    9.33
  -3   7  -5  465.75   18.84
  -3   7  -6    1.52    1.47
  -3   7  -6    3.72    1.01
  -3   7  -7  235.63    8.14
  -3   7  -7  248.56   14.80
  -3   7  -8   13.92    3.53
  -3   7  -9    7.64    2.92
  -3   7 -10   37.92    6.49
   3   7  10   28.40    5.55
   3   7  11   88.48   10.19
  -3   7 -11   99.69   10.97
   3   7  12    3.94    2.52
  -3   7 -12    3.60    2.84
   3   7  13   -1.31    2.38
  -3   7 -13    0.81    1.44
   3   7  14    1.70    1.52
  -3   7 -14    4.15    2.78
   3   7  15    5.31    3.07
  -3   7 -15    4.13    2.75
   3  -7  15    0.75    1.63
   3   7  16    4.28    2.80
   3  -7  16    8.99    3.48
  -3   7 -16    7.79    3.83
   3   7  17   -7.72    3.96
  -3   7 -17   -3.06    2.70
   3   7  18   15.34    5.52
  -3   7 -18    4.82    2.72
   3   8 -18   -4.79    3.44
   3   8 -17   12.19    5.07
   3  -8 -17   10.49    3.47
   3   8 -16    6.95    3.48
   3   8 -15   44.07    8.87
   3   8 -14   37.13    7.94
   3   8 -13   15.35    5.00
   3   8 -12    0.42    1.19
   3   8 -11    0.85    2.03
   3   8 -10  180.97   15.39
   3   8  -9    6.15    2.92
   3   8  -8    0.13    1.21
   3   8  -7   -1.71    1.72
  -3  -8   6   36.66    4.06
   3   8  -6   37.84    6.38
  -3  -8   5  197.60    9.57
   3   8  -5  216.38   14.89
   3   8  -4    0.79    1.25
  -3  -8   4    1.12    1.03
  -3  -8   3   80.92    6.37
   3   8  -3   80.57    8.73
   3   8  -3   81.82    3.79
  -3  -8   2    5.00    1.73
   3   8  -2    5.71    1.25
   3  -8  -2    6.28    2.45
   3   8  -2    1.97    1.20
   3   8  -1  810.76   26.77
   3   8  -1  806.43   16.31
  -3  -8   1  854.86   22.18
  -3   8   1  829.88   22.91
   3  -8  -1  858.81   26.84
  -3   8   0   13.77    2.97
   3   8   0   15.18    3.74
  -3  -8   0   20.89    3.63
   3  -8   0   15.72    3.84
  -3   8  -1   82.39    7.54
  -3  -8  -1   72.30    6.81
   3   8   1   79.68    8.32
  -3   8  -2  404.97   17.19
  -3   8  -3  159.45   11.05
  -3   8  -4    3.28    1.97
  -3   8  -5   63.32    7.42
   3   8   5   57.67    3.14
   3   8   6  124.86    5.72
  -3   8  -6  137.82    6.00
  -3   8  -6  153.08   11.78
  -3   8  -7   -0.39    1.16
  -3   8  -7    0.23    0.39
  -3   8  -8    4.62    1.67
  -3   8  -9   68.77    8.77
  -3   8 -10   92.11   10.50
  -3   8 -11    8.96    3.39
  -3   8 -12   29.64    6.41
   3   8  12   19.79    5.14
  -3   8 -13   11.99    4.38
   3   8  13    7.77    2.67
  -3   8 -14   13.32    4.74
   3   8  14   16.28    5.21
   3   8  15    2.80    3.47
  -3   8 -15    4.69    2.48
   3   8  16    4.69    3.42
  -3   8 -16    0.65    1.28
   3   8  17   -1.72    3.07
  -3   8 -17   -2.49    2.55
   3   8  18   54.03   10.17
  -3   8 -18   46.48    9.95
   3   9 -18   48.05   10.46
   3   9 -17   15.36    6.11
   3   9 -16   -0.19    1.17
   3   9 -15   21.90    6.76
   3   9 -14    5.82    3.09
   3   9 -13    5.29    3.28
   3   9 -12    3.11    2.60
   3   9 -11   19.24    5.42
   3   9 -10   30.09    6.56
  -3  -9   9   22.33    3.08
   3   9  -9   16.93    5.06
  -3  -9   8    0.84    0.69
   3   9  -8    6.30    2.83
   3   9  -7   23.06    5.16
  -3  -9   7   32.51    3.80
  -3  -9   6   71.87    5.70
   3   9  -6   86.58   10.21
   3   9  -5   13.03    4.03
  -3  -9   5   10.54    2.18
   3   9  -4  201.76   14.96
  -3  -9   4  184.69    9.59
  -3  -9   3  231.41   11.12
   3   9  -3  240.04    7.00
   3   9  -3  253.67   16.50
   3  -9  -2   80.94    8.42
  -3  -9   2   73.58    6.54
  -3   9   2   77.26    7.47
   3   9  -2   76.60    8.84
   3   9  -2   73.82    4.66
  -3  -9   1  109.64    8.12
  -3   9   1  136.55    9.93
   3   9  -1  125.37   11.24
   3  -9  -1  125.13   10.62
   3  -9   0  116.18   10.40
   3   9   0  111.72   10.40
  -3   9   0  114.79    9.28
   3   9   1  138.49   11.51
  -3   9  -1  144.34   10.70
  -3  -9  -1  141.11    4.91
  -3   9  -2   79.53    8.14
  -3   9  -3   51.82    6.74
  -3   9  -4   11.93    3.08
  -3   9  -5   23.89    4.85
  -3   9  -6   38.04    2.98
  -3   9  -6   37.20    6.27
   3   9   6   36.65    3.10
   3   9   7   13.46    2.13
  -3   9  -7   11.83    3.61
  -3   9  -8    1.38    1.33
  -3   9  -9  275.92   18.19
  -3   9 -10    4.86    3.32
  -3   9 -11   94.97   11.45
  -3   9 -12   29.19    6.83
  -3   9 -13    5.65    3.57
   3   9  13    3.64    2.65
   3   9  14   45.27    8.63
  -3   9 -14   42.17    8.36
  -3   9 -15   16.91    5.57
   3   9  15   14.46    5.09
  -3   9 -16    6.62    3.61
   3   9  16    5.08    3.30
  -3   9 -17   46.41    9.85
   3   9  17   53.20    9.96
  -3   9 -18   -2.55    3.20
   3  10 -17    3.59    2.77
   3  10 -16   15.83    5.79
   3  10 -15    8.19    4.25
   3  10 -14    7.46    3.85
   3  10 -13   -2.25    2.73
   3  10 -12   -2.03    2.90
   3  10 -11    0.85    2.19
   3  10 -10    3.60    2.73
  -3 -10   9  129.90    7.02
   3  10  -9  114.28   12.96
  -3 -10   8    2.19    1.01
   3  10  -8   -0.86    2.26
  -3 -10   7  344.35   12.02
   3  10  -7  344.23   21.60
  -3 -10   6    7.17    1.86
   3  10  -6    6.76    3.13
  -3 -10   5   10.93    2.39
   3  10  -5    9.66    3.23
  -3 -10   4   23.64    3.52
   3  10  -4   28.43    5.87
   3  10  -4   24.18    1.84
   3  10  -3  131.71    5.62
  -3 -10   3  122.14    8.26
   3 -10  -3  130.31   11.15
   3  10  -3  121.49   11.96
  -3  10   2  602.48   22.26
   3 -10  -2  541.08   22.52
   3  10  -2  589.24   25.81
  -3  10   1    4.69    1.88
   3  10  -1    7.14    3.01
   3 -10  -1    1.45    1.28
   3  10   0   18.59    4.53
  -3  10   0   14.01    3.49
   3 -10   0   10.12    3.10
  -3 -10  -1   32.80    2.72
   3  10   1   29.46    5.64
  -3  10  -1   35.32    5.61
  -3  10  -2   48.04    6.69
  -3  10  -3  322.67   17.64
  -3  10  -4   10.74    3.16
  -3  10  -5   76.96    8.99
  -3  10  -6   14.56    1.71
  -3  10  -6   17.19    4.47
  -3  10  -7    1.52    1.68
  -3  10  -8    0.61    1.18
  -3  10  -9    2.81    1.98
  -3  10 -10   63.61    9.56
  -3  10 -11   29.00    6.64
  -3  10 -12   51.19    8.95
  -3  10 -13    0.40    1.85
   3  10  13    0.73    1.72
  -3  10 -14   41.71    8.66
   3  10  14   38.43    7.80
  -3  10 -15   31.38    7.74
   3  10  15   54.19    9.89
  -3  10 -16   -2.55    2.83
   3  10  16   -2.70    2.28
  -3  10 -17    0.81    1.85
   3  10  17    2.76    2.63
   3  11 -17   52.38   11.29
   3  11 -16   -0.57    1.51
   3  11 -15   11.92    5.40
   3  11 -14    2.47    2.68
   3  11 -13   75.63   11.94
   3  11 -12    3.82    2.79
   3  11 -11   -9.37    4.19
   3  11 -10   29.85    7.01
   3  11  -9   -1.00    2.67
   3  11  -8   61.06    9.56
  -3 -11   8   65.36    4.91
  -3 -11   7   10.06    2.05
   3  11  -7    9.40    4.15
   3  11  -6   72.04   10.02
  -3 -11   6   66.09    5.49
  -3 -11   5  118.97    7.75
   3  11  -5  119.81   12.72
   3  11  -4  198.47   16.12
   3  11  -4  182.84    5.75
   3  11  -3    0.86    1.58
   3  11  -3    1.46    0.61
   3 -11  -3    0.46    1.47
  -3  11   2   78.14    8.48
   3  11  -2   66.26    9.04
   3 -11  -2   80.35    9.03
  -3  11   1   22.03    4.56
   3  11  -1   23.54    5.23
   3 -11  -1   25.78    5.36
   3 -11   0   21.69    5.05
  -3  11   0   23.59    4.65
   3  11   0   25.41    5.53
   3 -11   1    1.67    2.13
  -3 -11  -1    0.66    0.56
  -3  11  -1    1.52    2.01
   3  11   1    1.28    1.41
  -3  11  -2   36.63    6.14
  -3  11  -3   -1.77    2.10
  -3  11  -4    5.85    2.90
  -3  11  -5    5.75    2.52
  -3  11  -6    0.30    0.21
  -3  11  -6   -0.81    1.65
  -3  11  -7   -3.60    2.33
  -3  11  -8   67.03    9.67
  -3  11  -9   53.88    8.77
  -3  11 -10    3.98    2.24
  -3  11 -11   35.50    7.71
  -3  11 -12    9.98    4.59
  -3  11 -13   80.27   11.99
  -3  11 -14   10.81    4.64
   3  11  14    8.60    3.76
  -3  11 -15    9.16    4.90
   3  11  15    9.17    3.86
  -3  11 -16   24.02    7.27
   3  11  16   11.10    4.42
  -3  11 -17   27.96    8.08
   3  12 -16    3.95    3.65
   3  12 -15   90.17   14.29
   3  12 -14    1.85    2.09
   3  12 -13   13.95    5.49
   3  12 -12    5.81    3.79
   3  12 -11   63.53   10.88
   3  12 -10   52.20    9.49
   3  12  -9   18.48    5.41
   3  12  -8    5.73    3.48
   3  12  -7   77.87   11.06
   3  12  -6    4.42    2.22
   3  12  -5    5.29    2.48
   3  12  -4   16.21    1.89
   3  12  -4   19.83    4.97
   3 -12  -3    3.55    2.19
   3  12  -3    0.14    2.24
   3 -12  -2   11.93    3.55
  -3  12   2   13.73    3.79
   3  12  -2   12.70    4.39
   3  12  -1  228.58   17.22
  -3  12   1  210.74   14.89
   3 -12  -1  241.42   16.36
   3 -12   0   48.26    7.59
  -3  12   0   45.55    7.09
   3  12   0   42.74    7.66
  -3 -12   0   39.25    4.16
  -3 -12  -1   -0.18    0.48
   3  12   1   -0.43    2.06
  -3  12  -1   -3.60    2.12
   3 -12   1   -1.45    1.74
  -3  12  -2   11.22    3.65
  -3  12  -3    1.58    2.28
  -3  12  -4   18.90    4.84
  -3  12  -5    0.35    1.32
  -3  12  -6   26.42    6.01
  -3  12  -7   84.05   10.81
  -3  12  -8    0.62    1.36
  -3  12  -9   40.86    8.02
  -3  12 -10    0.23    2.03
  -3  12 -11   36.30    7.99
  -3  12 -12    4.38    3.09
  -3  12 -13   19.25    6.10
  -3  12 -14   27.42    7.55
   3  12  14   33.10    7.60
  -3  12 -15    7.30    3.96
   3  12  15    6.95    3.80
  -3  12 -16   -1.44    2.08
   3  12  16    4.94    2.70
   3  13 -15    0.88    2.75
   3  13 -14   11.86    5.60
   3  13 -13   11.98    5.13
   3  13 -12    1.26    2.44
   3  13 -11   20.49    6.48
   3  13 -10   33.51    8.11
   3  13  -9   24.49    6.82
   3  13  -8   21.13    6.14
   3  13  -7   23.26    6.14
   3  13  -6   32.10    7.24
   3  13  -5   92.29   12.11
   3  13  -4   16.90    5.46
   3  13  -3   44.01    7.96
   3 -13  -2   13.29    3.83
   3  13  -2   11.36    3.95
  -3  13   1   56.49    8.05
   3  13  -1   45.25    8.19
   3 -13  -1   42.51    7.30
   3  13   0  209.68   17.15
  -3  13   0  190.23   15.05
   3 -13   0  171.21   14.46
  -3 -13   0  181.48    9.52
  -3 -13  -1   -0.04    0.41
   3 -13   1   -0.74    2.05
   3  13   1   -1.99    3.15
  -3  13  -1   -0.13    1.96
  -3  13  -2   12.62    3.82
  -3  13  -3   19.68    5.22
  -3  13  -4    1.59    1.33
  -3  13  -5    5.02    2.38
  -3  13  -6    6.71    3.66
  -3  13  -7   31.13    6.98
  -3  13  -8   13.56    4.92
  -3  13  -9   42.13    8.35
  -3  13 -10    0.85    1.51
  -3  13 -11    0.05    1.40
  -3  13 -12   -2.27    2.44
  -3  13 -13    0.62    1.71
  -3  13 -14   -1.37    2.25
  -3  13 -15    6.28    4.00
   3  13  15   -1.33    1.91
   3  14 -15    7.66    5.11
   3  14 -14    3.32    2.86
   3  14 -13   -0.91    1.54
   3  14 -12   20.42    6.75
   3  14 -11   34.47    8.56
   3  14 -10   10.90    4.28
   3  14  -9    3.65    3.39
   3  14  -8    2.39    2.31
   3  14  -7   14.51    5.03
   3  14  -6  101.30   13.24
   3  14  -5   12.81    4.37
   3  14  -4   -0.49    1.94
   3  14  -3   30.81    7.01
   3  14  -2  158.58   15.66
   3 -14  -2  153.78   13.88
  -3  14   1  160.91   14.22
   3 -14  -1  151.03   13.94
   3  14  -1  145.39   14.98
   3 -14   0   59.95    8.79
  -3 -14   0   63.05    5.80
   3  14   0   78.07   10.99
  -3  14   0   67.68    9.38
   3  14   1   36.71    7.51
  -3  14  -1   25.56    5.83
   3 -14   1   28.80    6.35
  -3  14  -2  277.44   19.40
   3 -14   2  267.93   19.09
  -3  14  -3   -4.68    2.77
  -3  14  -4    3.79    3.00
  -3  14  -5   20.72    5.53
  -3  14  -6   66.07   10.28
  -3  14  -7  130.56   14.65
  -3  14  -8   -6.73    3.55
  -3  14  -9   23.88    6.50
  -3  14 -10   66.81   11.24
  -3  14 -11   11.08    4.74
  -3  14 -12    0.03    1.96
  -3  14 -13   19.32    6.76
  -3  14 -14    8.94    5.22
  -3  14 -15   33.66    9.02
   3  15 -14    1.93    3.09
   3  15 -13   12.38    5.50
   3  15 -12    1.69    2.98
   3  15 -11    6.09    4.34
   3  15 -10   38.78    9.10
   3  15  -9    4.10    3.55
   3  15  -8   -8.05    4.19
   3  15  -7   -2.04    3.27
   3  15  -6   49.92   10.03
   3  15  -5    3.12    2.39
   3  15  -4   47.15    9.33
   3  15  -3   16.72    5.46
   3  15  -2  118.03   14.01
   3 -15  -2  134.94   13.32
   3  15  -1   11.51    4.46
   3 -15  -1   14.96    4.62
  -3  15   1   14.96    4.61
   3 -15   0   76.93   10.44
  -3  15   0   70.18    9.97
   3  15   0   80.43   11.36
   3  15   1    3.40    2.67
  -3  15  -1   -4.75    2.84
   3 -15   1   -0.10    2.01
  -3  15  -2  107.13   12.62
   3 -15   2  102.62   12.50
  -3  15  -3   -0.40    1.46
  -3  15  -4    8.47    3.69
  -3  15  -5   29.73    7.16
  -3  15  -6   63.52   10.39
  -3  15  -7   12.62    5.11
  -3  15  -8    0.65    1.37
  -3  15  -9   18.73    6.27
  -3  15 -10    2.22    2.25
  -3  15 -11   -1.04    2.04
  -3  15 -12   53.58   10.85
  -3  15 -13   10.08    5.07
  -3  15 -14   47.60   10.80
   3  16 -13   10.38    5.33
   3  16 -12   -4.11    3.58
   3  16 -11   -7.07    4.28
   3  16 -10    0.25    1.32
   3  16  -9    1.06    1.67
   3  16  -8   23.43    7.25
   3  16  -7   12.28    4.97
   3  16  -6   26.70    7.37
   3  16  -5   11.19    4.56
   3  16  -4  122.11   15.01
   3  16  -3  228.58   20.42
   3 -16  -2   35.10    7.26
   3  16  -2   27.47    7.34
   3 -16  -1   10.37    3.76
  -3  16   1   13.12    4.60
   3  16  -1    7.34    3.06
   3  16   0    8.57    3.83
  -3  16   0   15.10    4.73
   3 -16   0   22.71    6.06
   3  16   1    0.75    2.18
   3 -16   1    6.51    3.33
  -3  16  -1    2.21    1.40
   3 -16   2    1.31    1.85
  -3  16  -2   -1.02    1.68
   3 -16   3   22.16    6.24
  -3  16  -3   12.69    4.39
  -3  16  -4   21.24    6.00
  -3  16  -5   32.82    7.68
  -3  16  -6    5.74    3.59
  -3  16  -7   11.47    4.77
  -3  16  -8   -0.30    1.54
  -3  16  -9   -0.94    2.11
  -3  16 -10   22.34    6.95
  -3  16 -11    7.55    3.75
  -3  16 -12    8.83    4.70
  -3  16 -13    0.99    2.15
   3  17 -11    0.81    1.58
   3  17 -10    2.70    2.98
   3  17  -9   63.96   12.27
   3  17  -8    0.07    1.44
   3  17  -7    3.73    2.92
   3  17  -6   35.78    8.76
   3  17  -5   59.34   10.94
   3  17  -4   23.85    7.05
   3  17  -3   19.26    6.29
   3  17  -2   43.09    9.16
   3 -17  -2   62.33    9.68
   3 -17  -1   74.31   10.58
  -3  17   1   70.33   10.63
   3  17  -1   79.22   12.33
   3 -17   0    5.53    2.71
   3  17   0   -0.69    3.07
  -3  17   0    7.62    3.20
   3  17   1    8.68    3.95
   3 -17   1    7.03    3.53
  -3  17  -1    6.07    2.94
  -3  17  -2    9.62    3.93
   3 -17   2    9.76    4.24
  -3  17  -3   53.02    9.61
   3 -17   3   78.66   11.61
  -3  17  -4   26.13    7.11
  -3  17  -5   39.61    8.54
  -3  17  -6   24.12    6.96
  -3  17  -7   43.08    9.32
  -3  17  -8    5.07    3.14
  -3  17  -9   26.29    7.64
  -3  17 -10    3.32    3.07
  -3  17 -11   -1.16    1.68
  -3  17 -12   -7.10    4.30
   3  18 -10   20.21    7.19
   3  18  -9    9.86    5.15
   3  18  -8   -7.26    4.40
   3  18  -7   27.00    8.15
   3  18  -6    1.95    2.81
   3  18  -5   -0.61    2.56
   3  18  -4    0.35    2.20
   3  18  -3    7.05    4.57
   3 -18  -2    0.89    1.26
   3  18  -2    3.63    2.61
   3 -18  -1    3.37    1.57
   3  18  -1   14.18    5.25
  -3  18   0    3.42    2.55
   3 -18   0    8.60    3.82
   3  18   0    5.86    3.97
  -3  18  -1   44.95    8.94
   3 -18   1   47.01    8.90
   3 -18   2    6.36    3.63
  -3  18  -2   -1.43    1.91
   3 -18   3   11.19    5.15
  -3  18  -3    2.54    2.81
   3 -18   4   -0.64    2.38
  -3  18  -4   -3.86    2.94
  -3  18  -5   74.22   12.14
  -3  18  -6    0.67    1.94
  -3  18  -7   37.44    8.89
  -3  18  -8    1.61    2.98
  -3  18  -9   76.92   13.31
  -3  18 -10   21.77    7.12
  -3  18 -11   -3.86    3.50
   3  19  -8    1.37    2.29
   3  19  -7   20.87    7.18
   3  19  -6   56.33   11.56
   3  19  -5   -0.78    3.28
   3  19  -4    7.64    4.47
   3  19  -3    3.60    2.57
   3  19  -2    0.90    1.61
   3 -19  -1   14.72    5.14
   3  19  -1    5.30    3.99
   3  19   0    1.19    2.72
   3 -19   0    3.31    2.72
  -3  19   0    2.29    2.30
   3 -19   1    5.55    3.38
  -3  19  -1    2.78    1.55
   3 -19   2   37.82    8.44
  -3  19  -2   56.26   10.53
  -3  19  -3    1.83    1.85
   3 -19   3    7.52    3.91
   3 -19   4   11.27    4.38
  -3  19  -4    1.53    2.97
  -3  19  -5   -6.00    3.83
  -3  19  -6    8.96    4.50
  -3  19  -7   45.66   10.42
  -3  19  -8   32.85    8.86
  -3  19  -9   10.79    5.55
   3  20  -5    0.57    3.15
   3  20  -4   15.95    5.91
   3  20  -3    1.72    2.39
   3  20  -2    8.30    3.85
   3  20  -1   23.78    7.41
   3 -20  -1   14.29    5.08
   3  20   0    0.46    1.80
  -3  20   0    3.28    2.41
  -3  20  -1   60.53   10.99
   3 -20   1   63.48   10.80
  -3  20  -2   10.88    4.96
   3 -20   2    7.31    3.43
   3 -20   3   36.03    8.39
  -3  20  -3   53.10   10.65
   3 -20   4   -2.17    2.34
  -3  20  -4    2.97    2.78
  -3  20  -5    3.83    3.66
   3 -20   5    5.57    3.38
  -3  20  -6   20.91    6.95
  -3  20  -7    6.48    4.54
  -3  20  -8   59.67   12.26
   3 -21   0   -3.39    2.72
   3 -21   1   -1.53    2.07
  -3  21  -1   -3.21    2.89
  -3  21  -2    5.74    3.25
   3 -21   2    6.75    3.79
   3 -21   3    5.41    3.45
  -3  21  -3    4.34    3.39
  -3  21  -4   48.18   10.66
   3 -21   4   56.06   10.86
   3 -21   5    1.34    2.49
  -3  21  -5   -0.47    2.35
  -3  21  -6    6.84    4.62
   3 -21   6    7.28    4.46
  -3  22  -1    2.51    2.43
  -3  22  -2   24.12    7.51
   3 -22   3    2.25    2.28
   4   0 -20   -3.67    2.72
   4   0 -19   -3.08    2.42
   4   0 -18   -0.46    1.01
   4   0 -17    0.87    1.54
   4   0 -17   -0.77    1.38
   4   0 -16   11.52    3.50
   4   0 -16    8.15    3.53
   4   0 -15    2.17    2.09
   4   0 -15    0.89    1.53
   4   0 -14  102.37   10.48
   4   0 -14  103.19    9.57
   4   0 -13    1.13    1.49
   4   0 -13   -0.08    1.21
   4   0 -12  112.14    9.89
   4   0 -12  111.91    9.36
   4   0 -11   -0.94    1.63
   4   0 -11   -0.76    1.22
   4   0 -10  498.13   18.38
   4   0 -10  497.97   18.52
   4   0  -9    0.33    1.08
   4   0  -9    2.01    1.47
   4   0  -8   16.18    3.03
   4   0  -8   15.69    3.01
   4   0  -7   -0.35    1.23
   4   0  -7    1.58    1.10
   4   0  -6  416.29   14.61
   4   0  -6  379.46   12.28
   4   0  -5    0.07    0.51
   4   0  -5    0.44    1.22
   4   0  -4  406.47   13.40
   4   0  -4  401.56   10.74
   4   0  -3    0.21    0.33
   4   0  -3    0.34    0.95
   4   0  -2  208.09    6.06
  -4   0   2  242.63   11.20
   4   0  -2  234.95    9.54
  -4   0   1    0.34    0.30
  -4   0   1   -0.07    0.72
   4   0  -1    0.10    0.70
   4   0   0  874.90   16.81
   4   0   0  844.09   19.21
  -4   0   0  857.15   11.93
  -4   0   0  871.72   20.21
   4   0   1    0.81    0.66
   4   0   1   -0.23    0.73
   4   0   2   54.13    5.37
   4   0   2   49.95    3.74
   4   0   3    0.42    0.50
   4   0   3    0.82    0.80
  -4   0  -4  534.94   17.95
   4   0   4  541.94   18.39
   4   0   4  562.54   11.46
   4   0   5    2.17    1.63
  -4   0  -5    0.08    1.07
   4   0   6 1681.40   34.83
   4   0   7   -0.05    1.48
   4   0   8   98.96    9.24
   4   0   9    1.97    2.40
   4   0  10  246.07   15.53
   4   0  11    0.16    1.95
   4   0  12    1.36    2.17
   4   0  13    1.03    1.86
   4   0  14  275.57   19.18
   4   0  15    0.39    1.53
   4   0  16    3.60    2.50
   4   0  17    0.44    1.64
   4   0  18   40.43    8.45
   4   0  19    1.28    1.89
   4   0  20    1.15    1.84
   4  -1 -20   -3.05    2.57
   4   1 -20   -3.57    2.82
   4  -1 -19    4.12    3.04
   4   1 -19    4.06    2.78
   4   1 -18   12.93    4.59
   4  -1 -18   12.54    4.53
   4   1 -17   11.16    3.46
   4  -1 -17   18.14    4.37
   4  -1 -17   26.15    5.87
   4   1 -17   16.57    5.05
   4  -1 -16    5.48    2.50
   4  -1 -16    7.33    3.36
   4   1 -16    9.28    3.40
   4   1 -16    1.19    1.51
   4   1 -15   47.04    6.77
   4  -1 -15   41.32    6.20
   4   1 -15   48.79    7.82
   4   1 -14    3.95    2.21
   4   1 -14    3.70    1.99
   4  -1 -14    2.99    1.68
   4  -1 -13   17.99    3.88
   4   1 -13   19.94    4.35
   4   1 -13   24.48    5.13
   4  -1 -12  218.18   12.89
   4   1 -12  205.48   12.82
   4   1 -12  205.80   13.69
   4  -1 -11   36.63    5.08
   4   1 -11   37.61    5.59
   4   1 -11   39.11    5.53
   4  -1 -10    0.56    0.83
   4   1 -10    2.91    1.55
   4   1 -10    0.56    1.36
   4   1  -9    8.99    2.56
   4   1  -9   11.75    2.81
   4  -1  -9    7.35    2.21
   4  -1  -8  310.84   13.57
   4   1  -8  333.91   14.22
   4   1  -8  304.86   13.37
   4   1  -7  262.17   12.26
   4  -1  -7  269.74   12.10
   4   1  -7  275.15   12.01
   4   1  -6    2.27    1.21
   4   1  -6   -0.87    1.49
   4  -1  -6    0.16    0.86
   4  -1  -5  189.84    7.40
   4  -1  -5  197.15    9.70
   4   1  -5  182.20    9.61
   4   1  -5  185.32    8.75
   4   1  -4   65.83    5.61
   4  -1  -4   63.69    5.31
   4   1  -4   67.35    4.97
   4  -1  -4   70.20    3.96
   4  -1  -3    1.45    0.52
   4  -1  -3    3.53    1.47
  -4  -1   3    1.62    0.64
   4   1  -3    1.86    0.84
   4   1  -3    1.60    1.06
   4  -1  -2   15.59    2.55
   4   1  -2   15.45    2.48
   4   1  -2   13.89    1.92
  -4  -1   2   17.52    2.01
   4   1  -1  314.99    8.52
   4   1  -1  330.69   11.22
   4  -1  -1  326.70   10.63
  -4  -1   1  340.68   11.98
  -4  -1   1  333.56    8.87
  -4  -1   1  332.09   12.11
  -4  -1   0   52.75    3.72
   4   1   0   49.69    4.24
   4  -1   0   45.98    3.82
  -4  -1   0   55.16    4.90
  -4  -1   0   51.71    4.06
   4  -1   0   46.47    4.83
  -4  -1   0   49.77    4.55
  -4  -1  -1  205.87    7.69
   4   1   1  194.92    9.66
   4   1   1  207.43    8.25
   4   1   1  198.67    8.61
  -4  -1  -1  211.35    7.96
   4  -1   1  194.03    7.53
   4  -1   1  185.41    9.70
  -4  -1  -2    1.51    0.64
   4   1   2    1.66    1.07
   4  -1   2    0.36    0.45
   4   1   2    2.40    1.28
   4   1   2    0.36    0.66
   4  -1   3  268.92    7.89
   4  -1   3  260.08   12.49
   4   1   3  295.67   12.86
  -4  -1  -3  262.06    8.09
   4  -1   4    0.83    0.36
  -4  -1  -4    0.92    0.53
   4  -1   4    2.29    1.80
   4   1   4    0.82    1.42
  -4   1  -4   -0.38    0.74
  -4  -1  -5    1.10    1.04
   4  -1   5    1.17    0.53
   4  -1   5    0.23    1.09
  -4  -1  -5    0.72    0.34
   4   1   5    0.80    1.46
  -4   1  -5    2.98    1.34
   4   1   6  296.68   14.65
   4  -1   6  281.45   14.40
  -4  -1  -6  269.76    6.52
  -4   1  -6  287.12   13.30
   4   1   7  331.15   16.17
   4  -1   7  325.08   15.86
   4  -1   8  152.75   11.44
   4   1   8  150.98   11.35
   4   1   9   95.14    9.37
   4  -1   9  113.84   10.13
   4   1  10    6.17    2.46
   4  -1  10    8.56    3.28
   4  -1  11    2.07    2.12
   4   1  11    1.41    1.66
   4  -1  12   60.44    8.32
   4   1  12   48.14    7.35
   4  -1  13    0.48    1.25
   4   1  13    1.07    2.11
   4  -1  14    1.54    1.85
   4   1  14    4.49    2.88
   4  -1  15   18.22    5.34
   4   1  15    7.81    3.48
   4  -1  16   67.25   10.14
   4   1  16   53.82    9.18
   4  -1  17    1.71    2.07
   4   1  17    2.61    2.30
   4   1  18    8.54    4.20
   4  -1  18   -0.67    1.39
   4  -1  19    3.83    2.58
   4   1  19    4.37    2.93
   4  -1  20    1.04    1.94
   4   1  20    5.15    3.37
   4   2 -20    0.50    1.60
   4  -2 -20    0.03    1.31
   4  -2 -19   67.65   10.39
   4   2 -19   60.95   10.44
   4  -2 -18    3.68    2.96
   4   2 -18    6.55    3.59
   4  -2 -17   29.19    5.37
   4   2 -17   11.78    4.54
   4   2 -16   26.50    5.21
   4  -2 -16   26.48    5.23
   4   2 -16   35.17    7.17
   4  -2 -15    3.86    2.17
   4   2 -15    0.85    0.99
   4   2 -15    2.44    2.44
   4  -2 -14   28.26    4.84
   4   2 -14   27.54    5.81
   4   2 -14   27.20    5.17
   4  -2 -13   83.57    8.23
   4   2 -13   72.69    8.08
   4   2 -13   84.58    9.51
   4   2 -12   -0.84    1.90
   4  -2 -12    3.42    1.70
   4   2 -12    1.43    1.33
   4   2 -11   11.01    3.22
   4  -2 -11    9.51    2.77
   4   2 -11    9.99    2.86
   4  -2 -10   81.74    7.49
   4   2 -10   73.10    7.32
   4   2 -10   73.93    7.70
   4  -2  -9   14.44    3.10
   4   2  -9   12.02    2.91
   4   2  -9   18.02    3.69
   4   2  -8   78.88    7.13
   4  -2  -8   74.72    6.64
   4   2  -8   62.21    6.38
   4   2  -7   -0.37    0.98
   4   2  -7    0.13    1.01
   4  -2  -7   -0.29    1.32
   4   2  -6    4.49    1.69
   4   2  -6    5.91    1.83
   4  -2  -6    2.70    1.34
   4   2  -5  396.49   14.51
   4   2  -5  376.75   13.64
  -4  -2   4  131.94    6.76
   4   2  -4  135.21    8.31
   4   2  -4  133.86    7.73
  -4  -2   3  461.86   12.29
   4   2  -3  447.09   13.49
   4   2  -3  454.56   14.71
  -4  -2   2   75.92    5.04
  -4  -2   2   69.11    5.01
   4   2  -2   75.81    5.77
   4   2  -2   75.48    5.21
   4  -2  -1  162.81    9.58
  -4  -2   1  176.65    7.76
   4   2  -1  164.09    8.38
  -4  -2   1  171.01    8.19
   4   2  -1  152.26    7.02
  -4  -2   1  167.45    7.96
   4   2   0    0.57    0.95
  -4  -2   0    0.08    0.54
   4   2   0   -0.12    0.63
  -4  -2   0    0.21    0.67
   4  -2   0    1.38    1.31
  -4  -2   0   -0.28    0.82
  -4  -2  -1 1189.68   20.04
  -4  -2  -1 1211.71   22.91
  -4  -2  -1 1185.44   21.23
   4   2   1 1114.88   18.80
   4  -2   1 1088.00   25.10
  -4   2  -1 1179.46   12.75
   4   2   1 1256.22   23.99
  -4  -2  -2  115.58    5.99
   4   2   2  117.42    7.70
   4   2   2  111.33    6.05
   4   2   3    2.71    1.33
   4  -2   3    3.44    0.92
  -4  -2  -3    4.41    1.14
   4  -2   4   49.15    3.19
   4  -2   4   55.40    6.10
   4   2   4   56.43    5.83
  -4  -2  -4   51.89    3.70
  -4   2  -4   51.50    5.24
   4  -2   5   -0.77    1.76
   4   2   5    0.70    1.35
   4  -2   5    1.42    0.61
  -4   2  -5    0.61    0.69
  -4  -2  -5    1.63    0.60
   4  -2   6  239.83   13.34
  -4  -2  -6  239.01    7.20
   4  -2   6  249.86    5.76
   4   2   6  249.49   13.37
  -4   2  -6  234.97   11.67
  -4   2  -7    2.90    1.60
  -4  -2  -7    1.45    0.55
   4  -2   7    2.63    1.96
   4   2   7    0.77    1.44
  -4  -2  -8    5.94    0.98
   4  -2   8    5.55    2.42
   4   2   8    4.54    1.90
   4   2   9   71.43    8.15
   4  -2   9   65.04    7.85
  -4  -2  -9   60.21    2.50
   4   2  10   57.82    7.60
   4  -2  10   43.96    6.63
   4   2  11   31.54    6.04
   4  -2  11   26.94    5.28
   4  -2  12   13.40    3.88
   4   2  12   16.89    4.67
   4  -2  13    5.64    2.61
   4   2  13    9.79    3.58
   4  -2  14   10.47    3.80
   4   2  14   14.72    4.75
   4   2  15  116.47   13.10
   4  -2  15  130.08   13.48
   4  -2  16    5.20    3.29
   4   2  16    9.19    3.42
   4  -2  17    9.95    4.16
   4   2  17    3.49    3.17
   4   2  18   -0.34    3.07
   4  -2  18    4.90    3.18
  -4   2 -19   27.36    7.51
   4  -2  19   15.71    5.43
   4   2  19   10.91    4.75
   4  -2  20    6.56    3.88
   4   2  20    3.78    2.80
   4  -3 -20   15.78    5.29
   4   3 -20    1.75    1.81
   4   3 -19    8.22    3.94
   4   3 -18   -4.41    2.96
   4   3 -17   32.13    7.25
   4  -3 -17   33.83    5.93
   4   3 -16    1.71    1.40
   4  -3 -16   -1.46    1.44
   4  -3 -15    3.79    1.77
   4   3 -15    2.09    1.11
   4   3 -14   12.73    4.19
   4  -3 -14   14.56    3.56
   4  -3 -13    9.48    2.82
   4   3 -13    4.32    2.39
   4   3 -13    8.66    3.10
   4   3 -12    5.81    2.78
   4   3 -12    8.50    3.05
   4  -3 -12    9.72    2.76
   4  -3 -11  144.43   10.29
   4   3 -11  134.57   10.51
   4   3 -11  143.70   11.68
   4  -3 -10   70.94    7.00
   4   3 -10   79.83    7.95
   4   3 -10   61.90    7.39
   4   3  -9    7.88    2.59
   4  -3  -9    6.41    1.88
   4   3  -9    5.75    1.94
   4   3  -8    6.28    1.92
   4   3  -8    4.92    1.83
   4   3  -7  174.73   10.68
   4   3  -7  178.20   10.95
   4   3  -6  595.55   19.18
   4   3  -6  534.77   18.18
   4   3  -5   87.35    7.15
   4   3  -5   73.90    6.55
  -4  -3   4  375.47   12.77
   4   3  -4  353.94   14.16
   4   3  -4  350.18   13.60
  -4  -3   3   23.54    3.19
  -4  -3   3   28.72    2.95
   4   3  -3   29.23    3.80
   4   3  -3   27.45    3.82
   4   3  -2  416.47   13.81
  -4  -3   2  440.87   11.88
   4  -3  -2  409.10    7.40
  -4  -3   2  419.99   13.55
   4  -3  -1  247.24   12.42
   4   3  -1  237.16   10.01
  -4  -3   1  253.29    9.38
  -4  -3   1  246.92   10.43
  -4  -3   0 1373.29   22.98
  -4   3   0 1306.80   13.47
   4   3   0 1288.00   22.93
  -4  -3   0 1370.25   25.08
  -4  -3   0 1383.22   20.51
   4  -3   0 1308.04   28.60
   4   3   0 1352.97   23.54
   4   3   1  312.34   11.81
  -4  -3  -1  324.95   11.63
  -4  -3  -1  325.74   12.35
  -4   3  -1  330.63    8.22
   4  -3   1  318.19   14.25
   4   3   2  465.70   15.32
  -4  -3  -2  486.23   15.55
   4   3   2  494.02   10.99
  -4  -3  -2  532.20   13.84
  -4   3  -2  478.48   11.14
  -4  -3  -3  733.52   15.89
   4   3   3  730.60   20.08
  -4   3  -3  731.21   15.20
  -4   3  -4   75.68    5.29
  -4  -3  -4   79.83    5.17
   4   3   4   63.77    6.14
   4   3   5  172.83   10.78
  -4   3  -5  159.90    9.22
   4  -3   5  151.59   10.28
  -4  -3  -5  150.92    6.88
  -4   3  -5  154.40    8.22
   4  -3   6  216.02   12.67
   4   3   6  230.75   13.09
  -4  -3  -6  229.05    8.15
  -4   3  -6  216.66   10.91
   4  -3   7    5.13    0.77
  -4   3  -7    6.13    1.97
  -4  -3  -7    6.06    1.31
   4  -3   7    6.38    2.42
   4   3   7    5.08    2.45
   4   3   8   19.04    4.31
  -4   3  -8   25.46    3.92
  -4  -3  -8   22.37    2.34
   4  -3   8   21.96    4.27
   4  -3   9  264.92   15.54
  -4  -3  -9  262.61    7.61
   4   3   9  276.17   16.14
   4   3  10    1.63    1.67
  -4  -3 -10    2.83    0.70
   4   3  11    4.92    2.65
   4  -3  11    5.92    2.11
   4   3  12   -1.11    1.95
   4  -3  12   -1.16    2.21
   4   3  13   30.82    6.36
   4  -3  13   34.76    6.73
   4  -3  14    1.05    1.18
   4   3  14   -0.88    1.58
  -4   3 -15   13.97    4.87
   4  -3  15   11.86    4.12
   4   3  15   10.09    3.44
  -4   3 -16    0.49    2.39
   4  -3  16    2.13    2.42
   4   3  16   -3.88    2.99
  -4   3 -17   73.57   10.95
   4  -3  17   70.24   10.50
   4   3  17   68.95   11.00
  -4   3 -18    3.12    3.04
   4  -3  18    1.89    1.85
   4   3  18    1.76    2.55
   4   3  19    4.24    2.74
  -4   3 -19   10.83    4.35
   4  -3  19   10.80    4.79
   4  -3  20   -0.54    1.74
   4   4 -20    6.33    3.69
   4   4 -19   10.01    4.42
   4   4 -18   -4.45    3.06
   4   4 -17   -2.25    2.75
   4  -4 -17    0.95    1.33
   4   4 -16    6.60    2.99
   4  -4 -16    8.42    3.11
   4   4 -15    0.30    2.04
   4  -4 -15    1.64    1.37
   4  -4 -14   65.27    7.59
   4   4 -14   92.29   11.01
   4   4 -13    2.46    1.99
   4  -4 -13    3.63    2.15
   4   4 -12   12.87    3.95
   4  -4 -12    9.82    3.00
   4   4 -11    4.89    2.51
   4  -4 -11    6.78    2.18
   4   4 -10   74.16    8.54
   4   4  -9   -0.51    1.28
   4   4  -8    4.76    2.09
   4   4  -7  133.77   10.13
   4   4  -6   -0.27    0.91
  -4  -4   5  285.75    8.13
   4   4  -5  281.93   13.78
  -4  -4   4    7.99    1.41
   4   4  -4   16.61    3.39
   4  -4  -3   98.77    5.15
  -4  -4   3  104.28    5.12
   4   4  -3   94.83    7.57
  -4  -4   3  101.11    7.33
  -4  -4   2   25.99    2.73
   4  -4  -2   26.80    2.46
  -4  -4   2   30.33    4.03
   4   4  -2   24.88    3.73
  -4  -4   1  345.05   10.62
  -4  -4   1  369.41   14.14
   4  -4  -1  330.68   15.21
   4  -4  -1  334.81    7.98
   4   4  -1  342.29   11.15
   4   4  -1  360.83   13.70
  -4  -4   0  192.27   10.36
   4   4   0  185.79    9.75
  -4   4   0  191.07    6.63
   4  -4   0  179.61   11.14
  -4  -4   0  189.50    8.34
   4   4   0  187.18    8.73
   4  -4   0  192.83    5.81
  -4  -4   0  192.53    7.12
   4   4   1  489.59   14.84
  -4  -4  -1  496.45   16.83
  -4  -4  -1  473.31   14.04
  -4   4  -1  469.96   11.72
   4  -4   1  488.59   18.55
  -4   4  -2  118.95    6.37
   4   4   2  129.59    8.06
   4   4   3  153.56    9.26
   4   4   3  155.10    5.57
  -4   4  -3  154.49    7.68
   4   4   4    4.49    1.87
  -4   4  -4    5.27    1.63
  -4   4  -5   72.99    6.04
   4   4   5   77.76    7.26
  -4   4  -5   79.49    6.23
  -4   4  -6  108.47    7.48
   4   4   6  109.80    9.20
  -4   4  -6  106.35    7.77
  -4   4  -7   57.10    6.06
  -4   4  -7   56.89    5.57
   4  -4   7   68.41    7.57
   4   4   7   70.03    7.51
  -4   4  -8   19.40    3.28
   4   4   8   21.42    4.44
  -4   4  -8   19.49    3.79
   4  -4   8   14.77    3.70
  -4   4  -9   28.50    4.72
   4   4   9   34.80    5.77
   4  -4   9   33.73    5.81
   4  -4  10  120.76   10.83
  -4   4 -10  127.76   10.64
   4   4  10  135.99   11.95
   4   4  11    1.68    1.65
  -4   4 -11    0.66    0.99
   4  -4  11   -0.14    1.79
   4   4  12   -0.43    1.55
   4  -4  12    3.42    2.60
  -4   4 -12    0.09    0.97
   4   4  13   15.86    4.98
  -4   4 -13   27.47    5.80
   4  -4  13   27.73    6.12
   4   4  14    3.80    2.58
  -4   4 -14    3.58    2.78
   4  -4  14    2.12    2.39
   4   4  15   59.15    9.62
   4  -4  15   52.97    8.66
  -4   4 -15   76.32   10.38
  -4   4 -16    1.76    1.89
   4   4  16   -1.21    2.48
  -4   4 -17    1.41    1.55
   4  -4  17    2.08    2.28
   4   4  17    0.01    2.76
  -4   4 -18    8.84    4.08
   4  -4  18   12.85    4.88
   4   4  18   17.55    5.68
   4  -4  19   52.29    9.61
  -4   4 -19   58.04   10.61
   4   4  19   52.60   10.15
   4  -4  20   15.92    5.69
   4   5 -19    7.34    3.59
   4   5 -18    1.56    1.75
   4   5 -17   25.38    6.63
   4  -5 -17   21.04    4.73
   4   5 -16   11.29    4.34
   4  -5 -16   16.78    4.18
   4  -5 -15    3.76    2.16
   4   5 -15    1.16    1.30
   4   5 -14   19.80    5.30
   4  -5 -14   24.81    4.82
   4   5 -13   26.11    6.01
   4  -5 -13   28.30    5.09
   4   5 -12  280.83   18.28
  -4  -5  11    1.73    0.60
   4   5 -11    1.91    1.06
   4   5 -10  107.09   10.62
   4   5  -9   30.31    5.39
   4   5  -8    1.84    1.42
   4   5  -7   31.19    5.41
  -4  -5   7   26.37    2.07
  -4  -5   6  130.80    4.35
   4   5  -6  147.06   10.92
  -4  -5   5   93.55    3.82
   4   5  -5  100.21    8.72
   4   5  -4  115.65    9.19
  -4  -5   4  102.57    4.33
   4  -5  -4  114.73    6.78
   4  -5  -3   31.93    3.36
  -4  -5   3   30.76    2.62
   4   5  -3   34.11    4.90
  -4  -5   2    8.89    1.57
   4   5  -2    8.98    1.67
   4   5  -2    8.19    2.39
   4  -5  -2    9.74    1.75
   4  -5  -2    6.87    2.44
  -4  -5   1  114.41    8.45
  -4  -5   1  112.71    6.00
   4  -5  -1  121.77    5.94
   4  -5  -1  145.00   10.40
   4   5  -1  127.63    6.72
   4   5  -1  126.71    8.82
  -4   5   1  129.85    6.10
   4  -5   0   41.09    5.73
  -4   5   0   33.29    3.27
   4   5   0   30.64    4.33
  -4  -5   0   36.18    2.80
  -4  -5   0   35.11    4.70
   4   5   0   34.39    3.76
   4  -5   0   34.25    3.06
   4   5   1   75.47    5.85
  -4   5  -1   69.84    5.13
   4  -5   1   63.52    7.06
   4  -5   1   79.04    4.67
   4  -5   2  482.80   12.15
   4   5   2  463.89   15.31
  -4   5  -2  480.45   14.32
   4   5   3    1.17    1.37
  -4   5  -3    0.17    0.70
  -4   5  -4  101.89    7.28
   4   5   4  109.43    8.29
   4   5   5    9.73    2.78
  -4   5  -5   10.02    2.35
  -4   5  -5    8.18    2.05
  -4   5  -6   64.15    5.64
   4   5   6   64.91    7.04
  -4   5  -6   63.67    6.37
   4   5   7  105.27    9.40
  -4   5  -7   90.52    6.75
  -4   5  -7  110.23    8.74
   4   5   8   -0.59    1.29
  -4   5  -8    0.45    0.72
  -4   5  -8    0.60    1.30
   4   5   9  454.91   21.16
   4  -5   9  429.33   20.19
  -4   5  -9  453.86   19.62
   4   5  10   48.35    7.22
  -4   5 -10   37.57    5.95
   4  -5  10   60.12    7.71
   4   5  11   35.61    6.51
  -4   5 -11   30.35    5.59
   4  -5  11   25.78    5.31
  -4   5 -12    1.76    2.09
   4  -5  12    3.36    2.34
   4   5  13    1.48    1.90
   4  -5  13   -0.53    2.10
  -4   5 -13   -1.15    1.54
   4  -5  14   18.92    4.89
  -4   5 -14   19.60    5.40
   4   5  14   16.19    4.96
   4   5  15   -0.03    2.06
  -4   5 -15    1.49    1.70
   4  -5  15   -0.74    2.05
   4   5  16    3.46    2.55
  -4   5 -16    8.27    3.84
   4  -5  16   -1.66    2.55
   4   5  17    4.96    3.43
  -4   5 -17    8.40    3.67
   4  -5  17    0.56    1.37
  -4   5 -18   31.70    7.59
   4  -5  18   28.59    6.72
   4   5  18   25.98    7.11
  -4   5 -19   18.53    6.55
   4  -5  19   19.58    5.95
   4   5  19   15.25    6.07
   4   6 -19   -4.21    3.23
   4   6 -18    0.93    2.45
   4  -6 -18    3.76    2.27
   4  -6 -17   12.70    3.76
   4   6 -17   13.63    5.04
   4  -6 -16    1.73    1.43
   4   6 -16    1.94    1.78
   4   6 -15    7.25    3.20
   4  -6 -15    9.72    3.52
   4   6 -14   12.85    4.39
   4  -6 -14   13.97    3.69
   4   6 -13    0.57    1.51
   4   6 -12   24.80    5.63
   4   6 -11   49.43    7.88
  -4  -6  10  130.73    4.07
   4   6 -10  144.86   13.00
   4   6  -9   17.65    4.49
   4   6  -8   81.07    9.16
   4   6  -7    3.89    1.97
   4   6  -6    1.50    1.01
   4  -6  -5  272.11   12.07
   4   6  -5  269.75   15.44
   4   6  -4   91.85    8.71
   4  -6  -4   92.85    6.72
   4  -6  -3  730.11   18.00
   4   6  -3  735.34   23.88
   4  -6  -2    3.35    2.03
  -4  -6   2    9.05    2.38
   4   6  -2    8.25    1.62
   4   6  -2    6.23    2.11
   4  -6  -2    7.21    1.66
  -4   6   1    2.19    0.95
   4   6  -1    1.73    0.84
   4  -6  -1    2.15    2.15
  -4  -6   1    1.52    0.82
   4   6  -1    2.84    1.01
   4  -6  -1    3.58    1.22
   4  -6   0   19.60    2.70
   4  -6   0   21.78    4.37
   4   6   0   16.89    3.50
  -4   6   0   22.02    3.08
  -4  -6   0   19.93    3.54
   4   6   0   22.82    3.12
   4   6   1  168.03   10.82
  -4  -6  -1  172.72   10.92
   4   6   1  180.10    9.21
  -4   6  -1  168.51    8.93
   4  -6   1  181.55    8.26
   4  -6   1  169.86   12.10
  -4   6  -2   90.27    6.87
   4   6   2  105.89    7.44
   4  -6   2  107.99    6.46
   4  -6   3  530.21   14.77
   4   6   3  522.71   17.47
  -4   6  -3  533.71   17.56
   4   6   4  168.81   10.52
  -4   6  -4  181.08   10.51
   4   6   5    4.48    2.04
  -4   6  -5    0.03    0.98
   4   6   6    9.32    2.98
  -4   6  -6   10.80    2.62
  -4   6  -6   13.35    2.59
   4   6   7    3.47    2.18
  -4   6  -7    4.27    2.01
  -4   6  -7    6.61    1.85
  -4   6  -8    1.72    1.00
   4   6   8    0.81    1.19
  -4   6  -8    0.91    1.09
   4   6   9   14.91    3.87
  -4   6  -9    8.97    3.19
   4   6  10  288.20   17.88
  -4   6 -10  314.74   17.86
   4   6  11   40.08    7.07
  -4   6 -11   40.90    6.65
   4   6  12    9.91    3.36
  -4   6 -12    7.67    3.07
   4  -6  12    9.58    3.32
   4   6  13   29.98    6.59
   4  -6  13   20.17    5.12
  -4   6 -13   28.56    6.24
   4   6  14   29.21    6.63
  -4   6 -14   31.54    6.72
   4  -6  14   28.17    5.99
   4   6  15    2.39    2.22
  -4   6 -15    2.61    2.42
   4  -6  15    2.22    2.31
   4   6  16    1.89    1.88
  -4   6 -16    1.30    1.52
   4  -6  16    2.88    2.02
  -4   6 -17   11.81    4.44
   4   6  17   20.77    6.46
   4  -6  17   11.80    4.48
  -4   6 -18    2.15    2.12
   4   6  18   -1.91    2.80
   4   7 -19    4.27    3.63
   4   7 -18   -2.43    2.60
   4  -7 -18   -2.76    1.99
   4   7 -17    8.10    3.94
   4  -7 -17   12.26    3.68
   4   7 -16    3.55    2.79
   4  -7 -16    1.30    1.75
   4   7 -15    2.37    1.86
   4  -7 -15    1.37    1.47
   4   7 -14    4.54    3.37
   4   7 -13    2.96    3.69
   4   7 -12    1.44    2.13
   4   7 -11   69.93    9.57
   4   7 -10    2.93    2.28
   4   7  -9   11.14    3.89
   4   7  -8  254.54   16.79
   4   7  -7  124.11   11.41
   4   7  -6  808.62   28.46
   4   7  -5   -0.40    1.87
  -4  -7   4  191.44   10.72
   4  -7  -4  161.88    9.69
   4   7  -4  175.17   12.80
   4   7  -3    0.06    0.53
  -4  -7   3    0.50    0.70
   4  -7  -3    0.72    0.37
   4   7  -3   -0.51    1.24
   4  -7  -2    5.36    1.82
   4   7  -2    7.57    1.55
   4   7  -2    6.77    2.28
  -4  -7   2    5.19    1.83
   4  -7  -2    5.70    1.75
   4   7  -1   84.46    5.55
  -4  -7   1   94.78    7.92
  -4   7   1   97.92    6.86
   4   7  -1   91.45    8.66
   4  -7  -1   95.03    6.91
   4  -7  -1  110.59    9.89
   4  -7   0   -0.13    0.59
   4  -7   0    0.00    1.43
   4   7   0   -0.16    1.23
  -4   7   0   -1.79    1.05
   4   7   0    0.54    0.61
  -4  -7   0   -0.39    1.08
  -4  -7  -1   19.43    3.75
   4  -7   1   15.28    2.70
   4   7   1   18.83    3.03
   4   7   1   18.27    3.88
   4  -7   1   17.33    4.31
  -4   7  -1   20.72    3.50
  -4  -7  -2   79.21    7.74
  -4   7  -2   79.02    7.02
   4   7   2   74.20    6.38
   4   7   3   -0.62    0.82
  -4   7  -3   -1.11    1.03
   4   7   4   60.17    6.42
  -4   7  -4   63.70    6.74
   4   7   5  237.79   13.30
  -4   7  -5  222.99   12.96
  -4   7  -6    3.32    1.22
  -4   7  -6    0.95    1.26
   4   7   6    1.20    1.04
  -4   7  -7   -0.63    1.54
   4   7   7    2.31    2.18
  -4   7  -7    0.40    0.57
  -4   7  -8  177.43    8.73
  -4   7  -8  169.58   12.67
   4   7   8  169.08   12.83
   4   7   9   21.82    4.97
  -4   7  -9   10.48    3.25
   4   7  10  204.50   15.21
  -4   7 -10  193.97   14.64
   4   7  11  115.53   11.90
  -4   7 -11  126.64   12.27
   4   7  12  430.97   23.88
  -4   7 -12  391.62   22.53
   4   7  13   12.83    4.36
  -4   7 -13   12.00    3.94
   4   7  14   12.67    4.24
  -4   7 -14   12.70    4.64
   4   7  15   -1.67    2.11
  -4   7 -15    2.75    2.90
  -4   7 -16    2.96    3.08
   4   7  16   -0.19    2.65
   4   7  17    4.68    3.47
  -4   7 -17   10.99    5.48
   4   7  18   13.26    5.37
  -4   7 -18   11.00    4.59
   4   8 -18   -2.45    2.59
   4  -8 -18    1.40    1.41
   4   8 -17   16.38    5.80
   4  -8 -17   12.97    3.96
   4   8 -16    1.63    2.37
   4  -8 -16    1.52    1.62
   4   8 -15   19.70    6.03
   4   8 -14   50.79    9.29
   4   8 -13    9.48    4.26
   4   8 -12   20.12    5.39
   4   8 -11    1.70    1.49
   4   8 -10   76.35   10.36
   4   8  -9    3.95    2.62
   4   8  -8   68.96    9.23
   4   8  -7    0.72    1.36
   4   8  -6   19.63    4.56
   4   8  -5   46.27    7.12
  -4  -8   5   48.94    5.46
  -4  -8   4  107.42    8.22
   4   8  -4  127.49   11.50
  -4  -8   3   45.89    5.42
   4   8  -3   36.98    5.94
   4   8  -3   33.40    2.84
   4  -8  -2   50.81    6.94
   4   8  -2   51.88    4.05
  -4  -8   2   44.70    5.41
   4   8  -2   35.98    5.96
  -4  -8   1   19.57    3.64
   4   8  -1   12.99    3.54
  -4   8   1   14.42    2.86
   4  -8  -1   13.16    3.60
   4   8  -1   14.95    2.42
   4   8   0    0.25    0.64
  -4  -8   0    0.93    1.16
   4  -8   0    0.76    1.47
   4   8   0    1.80    1.81
  -4   8   0    2.14    1.17
  -4  -8  -1   33.00    5.07
   4   8   1   33.95    4.15
   4   8   1   35.18    5.55
  -4   8  -1   35.42    4.88
   4  -8   1   25.23    5.03
   4   8   2   16.11    3.09
  -4  -8  -2   15.66    3.57
  -4   8  -2   17.22    3.56
   4   8   3   13.12    3.17
  -4  -8  -3   22.69    4.43
  -4   8  -3   15.79    3.41
   4   8   4    7.13    2.51
  -4   8  -4    4.02    2.04
  -4   8  -5   -0.33    1.50
   4   8   5   -0.73    1.54
  -4   8  -6  443.32   13.70
   4   8   6  457.78   19.81
  -4   8  -6  452.64   20.21
   4   8   7   68.64    8.00
  -4   8  -7   59.77    4.86
  -4   8  -7   61.11    7.69
  -4   8  -8    3.45    1.73
   4   8   8    3.61    1.75
  -4   8  -8    3.58    1.19
  -4   8  -9    7.02    3.13
   4   8   9    9.23    3.33
   4   8  10  392.44   21.49
  -4   8 -10  348.85   20.34
  -4   8 -11   31.45    6.27
   4   8  11   40.41    7.37
   4   8  12   43.88    7.86
  -4   8 -12   27.65    6.13
   4   8  13   11.16    4.27
  -4   8 -13   17.29    4.95
   4   8  14   24.85    6.54
  -4   8 -14   18.74    5.25
   4   8  15   42.19    8.35
  -4   8 -15   37.36    8.13
   4   8  16    9.40    4.30
  -4   8 -16    6.73    3.92
   4   8  17    7.40    4.46
  -4   8 -17    0.87    1.82
  -4   8 -18    5.89    3.67
   4   9 -18    4.22    3.33
   4  -9 -18    5.21    2.90
   4   9 -17   65.74   12.02
   4  -9 -17   55.58    8.22
   4   9 -16   10.64    5.37
   4   9 -15    3.79    3.37
   4   9 -14    3.79    2.45
   4   9 -13   11.92    4.38
   4   9 -12   57.77    9.55
   4   9 -11   16.50    4.98
   4   9 -10   82.01   10.97
   4   9  -9   90.12   11.05
   4   9  -8   86.43   10.79
  -4  -9   8   82.62    7.05
  -4  -9   7   14.82    2.96
   4   9  -7   15.96    4.92
  -4  -9   6   14.95    3.00
   4   9  -6   16.77    4.72
  -4  -9   5    6.34    1.93
   4   9  -5   13.61    4.05
  -4  -9   4   65.65    6.48
   4   9  -4   69.76    8.95
   4   9  -3    2.11    0.75
   4   9  -3    4.68    2.72
  -4  -9   3    2.17    1.25
  -4  -9   2    4.21    1.73
   4  -9  -2    4.64    2.24
   4   9  -2    5.24    1.35
   4   9  -2    3.44    2.04
   4  -9  -1  206.09   14.50
   4   9  -1  194.57    8.89
  -4   9   1  218.53   12.25
  -4  -9   1  178.65   11.39
   4   9  -1  195.31   14.19
  -4   9   0  165.84   10.85
   4   9   0  158.82   12.53
  -4  -9   0  188.89   12.12
   4   9   0  166.65    8.85
   4  -9   0  174.18   13.45
  -4  -9  -1    1.97    1.21
   4   9   1    4.56    1.54
   4   9   1    4.96    2.48
  -4   9  -1    3.25    1.68
   4  -9   1   -0.27    1.90
   4   9   2  112.89    8.26
  -4   9  -2  111.62    9.49
   4   9   3  334.08   14.99
  -4   9  -3  343.65   17.18
   4   9   4    1.01    1.08
  -4   9  -4    1.57    1.19
   4   9   5    4.85    2.21
  -4   9  -5    2.51    1.35
  -4   9  -6    4.39    1.86
   4   9   6    6.93    2.56
  -4   9  -6    4.24    1.34
   4   9   7   73.99    8.56
  -4   9  -7   64.70    8.31
  -4   9  -7   77.34    5.28
  -4   9  -8    5.34    2.77
   4   9   8    5.19    2.65
  -4   9  -8    3.40    1.01
  -4   9  -9   19.97    5.15
   4   9   9   34.60    6.19
  -4   9 -10   50.40    8.07
   4   9  10   51.16    7.96
  -4   9 -11   24.18    5.69
   4   9  11   22.20    5.28
  -4   9 -12   27.29    6.48
   4   9  12   33.26    7.04
  -4   9 -13    4.99    2.94
   4   9  13    3.37    2.38
  -4   9 -14    4.42    3.06
   4   9  14    0.84    1.88
   4   9  15    0.15    1.52
  -4   9 -15    2.86    3.27
   4   9  16   29.10    7.51
  -4   9 -16   27.43    7.17
   4   9  17   19.04    6.02
  -4   9 -17   25.91    7.49
   4 -10 -18    2.55    1.67
   4  10 -17    0.32    1.62
   4  10 -16    1.43    2.22
   4  10 -15   10.93    5.01
   4  10 -14   75.78   12.13
   4  10 -13   -3.43    2.69
   4  10 -12   29.02    7.45
   4  10 -11    9.04    3.32
   4  10 -10   -0.12    1.82
  -4 -10   9   93.49    7.29
   4  10  -9   73.44   10.50
  -4 -10   8    7.66    2.27
   4  10  -8    5.87    2.77
  -4 -10   7   34.06    4.58
   4  10  -7   29.02    6.47
  -4 -10   6   10.48    2.53
   4  10  -6    3.46    2.49
   4  10  -5   13.55    4.37
  -4 -10   5   11.21    2.73
  -4 -10   4   11.27    2.77
   4  10  -4   11.35    1.28
   4  10  -4   12.62    4.03
  -4 -10   3   12.48    2.98
   4  10  -3   10.79    3.43
   4  10  -3   12.69    1.90
  -4 -10   2   32.68    4.84
   4 -10  -2   33.87    6.11
   4  10  -2   34.91    6.30
   4  10  -2   43.86    4.01
  -4 -10   1   57.33    6.63
  -4  10   1   55.73    6.66
   4  10  -1   52.54    4.78
   4  10  -1   50.53    7.64
   4 -10  -1   66.71    8.51
   4  10   0   24.09    3.57
  -4 -10   0   26.50    4.58
   4  10   0   17.79    4.55
  -4  10   0   23.17    4.43
   4 -10   0   23.16    5.12
   4  10   1  460.90   22.34
  -4  10  -1  463.22   19.94
   4  10   1  433.72   15.88
   4 -10   1  416.64   22.01
  -4  10  -2   97.34    9.46
   4  10   2   90.80    7.56
  -4  10  -3    3.36    1.62
   4  10   3    4.86    1.77
   4  10   4   38.64    5.54
  -4  10  -4   38.65    6.27
  -4  10  -5  293.98   17.64
   4  10   5  282.11   15.54
   4  10   6  143.75   11.61
  -4  10  -6  140.96   12.54
   4  10   7   50.23    7.09
  -4  10  -7   52.63    4.10
  -4  10  -7   40.39    7.01
  -4  10  -8   30.48    6.16
   4  10   8   32.19    5.99
   4  10   9   67.92    9.04
  -4  10  -9   77.59   10.17
  -4  10 -10   47.83    8.19
   4  10  10   53.18    8.17
  -4  10 -11    0.87    1.39
   4  10  11    0.95    1.50
  -4  10 -12   11.10    4.34
   4  10  12   10.92    3.91
  -4  10 -13   -0.38    2.11
   4  10  13   -4.98    3.04
  -4  10 -14    7.83    4.40
   4  10  14    1.97    1.90
  -4  10 -15   46.73    9.53
   4  10  15   40.64    8.59
  -4  10 -16   30.72    8.04
   4  10  16   13.99    5.31
  -4  10 -17   -4.27    3.38
   4  11 -17   53.40   11.47
   4  11 -16    2.45    2.73
   4  11 -15   23.09    7.11
   4  11 -14   51.77   10.18
   4  11 -13   -0.27    2.19
   4  11 -12   18.65    5.75
   4  11 -11  116.55   14.42
   4  11 -10   36.25    7.73
   4  11  -9  233.30   19.29
  -4 -11   8   71.75    6.34
   4  11  -8   71.63   10.70
  -4 -11   7   38.17    4.74
   4  11  -7   21.05    5.79
  -4 -11   6   48.51    5.52
   4  11  -6   44.12    8.02
  -4 -11   5   10.90    2.73
   4  11  -5   17.71    5.11
   4  11  -4  112.76    4.36
  -4 -11   4  131.37    9.49
   4  11  -4  121.06   12.79
   4  11  -3  122.28    6.00
  -4 -11   3  117.81    9.22
   4  11  -3  116.56   12.31
   4  11  -2   18.45    2.93
   4 -11  -2   13.00    3.87
   4  11  -2   11.38    4.12
  -4 -11   2   12.11    3.12
   4  11  -1   66.54    9.08
  -4  11   1   67.65    7.81
   4  11  -1   86.10    6.35
   4 -11  -1   78.63    9.59
  -4  11   0   92.83    9.24
   4  11   0   90.76   10.35
   4  11   0   85.62    6.83
   4 -11   0   84.56   10.01
   4 -11   1    5.54    2.47
   4  11   1    6.49    1.93
  -4  11  -1    9.70    3.21
   4  11   1    2.49    2.01
   4  11   2    3.82    1.02
  -4  11  -2    5.32    2.04
   4  11   3   57.31    6.62
  -4  11  -3   67.91    8.47
  -4  11  -4  368.98   20.37
   4  11   4  377.69   17.65
  -4  11  -5   75.12    9.38
  -4  11  -6   56.47    8.41
   4  11   7   22.35    5.08
  -4  11  -7   18.29    4.70
   4  11   8  125.68   12.07
  -4  11  -8   99.63   11.58
  -4  11  -9    4.99    3.59
   4  11   9    9.69    4.19
  -4  11 -10   32.59    6.86
   4  11  10   26.58    5.97
  -4  11 -11   -1.24    1.60
   4  11  11   -0.39    1.96
  -4  11 -12   18.19    5.92
   4  11  12   18.01    5.25
  -4  11 -13    4.58    2.75
   4  11  13    2.14    1.74
  -4  11 -14    2.09    2.12
   4  11  14    0.91    1.79
  -4  11 -15   -1.44    2.14
   4  11  15    7.24    4.67
  -4  11 -16   47.61   10.43
   4  11  16   39.42    8.92
   4  12 -16   49.33   10.84
   4  12 -15   12.46    5.51
   4  12 -14    1.08    1.76
   4  12 -13   17.31    5.88
   4  12 -12   19.55    6.46
   4  12 -11   88.15   12.96
   4  12 -10    5.37    2.68
   4  12  -9   30.71    7.50
   4  12  -8   72.64   11.11
  -4 -12   7   16.50    3.10
   4  12  -7   13.62    4.65
  -4 -12   6   24.65    3.94
   4  12  -6   24.49    6.33
  -4 -12   5   10.52    2.69
   4  12  -5    7.40    3.04
  -4 -12   4   18.05    3.58
   4  12  -4   12.81    4.76
   4  12  -3  169.25    7.40
   4  12  -3  153.98   14.71
   4  12  -2  188.16    8.90
   4 -12  -2  179.76   14.78
   4  12  -2  196.77   16.38
  -4  12   1  433.67   20.75
   4  12  -1  412.05   23.59
   4  12  -1  430.73   14.62
   4 -12  -1  451.86   23.69
   4  12   0   23.03    5.36
   4 -12   0   28.13    5.94
  -4 -12   0   32.77    3.07
   4  12   0   33.64    4.53
  -4  12   0   22.59    4.88
   4 -12   1    3.84    2.07
   4  12   1    8.48    2.29
   4  12   1   11.41    3.97
  -4  12  -1    8.94    3.19
   4 -12   2   45.90    7.79
   4  12   2   46.37    5.83
  -4  12  -2   54.13    7.71
  -4  12  -3   47.70    7.42
  -4  12  -4   67.39    9.04
  -4  12  -5   -0.44    1.36
  -4  12  -6    6.03    2.92
  -4  12  -7   19.79    5.15
  -4  12  -8  102.03   12.42
   4  12   9   -1.50    1.78
  -4  12  -9    0.20    1.50
   4  12  10   15.11    4.19
  -4  12 -10   12.36    4.69
  -4  12 -11    1.25    1.30
   4  12  11    1.97    1.89
  -4  12 -12   48.82    9.39
   4  12  12   48.66    8.80
  -4  12 -13    4.63    2.77
   4  12  13    4.93    3.28
  -4  12 -14    6.47    3.57
   4  12  14    5.01    3.13
  -4  12 -15  -12.19    5.32
   4  12  15    0.11    1.50
  -4  12 -16    6.39    4.05
   4  13 -15   19.34    6.70
   4  13 -14   11.97    5.14
   4  13 -13    8.83    4.35
   4  13 -12    7.80    3.81
   4  13 -11   -5.52    3.55
   4  13 -10    0.92    1.83
   4  13  -9   48.53    9.43
   4  13  -8   16.49    5.20
   4  13  -7   11.52    4.68
   4  13  -6   38.99    8.13
   4  13  -5   30.17    7.00
   4  13  -4   27.14    6.70
   4  13  -3   17.11    5.03
   4 -13  -2   64.74    9.10
   4  13  -2   53.66    9.07
   4  13  -2   66.42    5.51
  -4  13   1  160.46   13.41
   4  13  -1  155.52   15.07
   4  13  -1  143.98    8.82
   4 -13  -1  129.69   13.10
   4 -13   0   45.32    7.85
   4  13   0   43.37    7.82
  -4  13   0   39.24    6.71
   4  13   0   37.09    4.78
   4  13   1    2.07    1.51
   4  13   1    0.61    1.30
  -4  13  -1    1.07    1.28
   4 -13   1   -0.23    1.22
  -4  13  -2    4.87    2.32
   4 -13   2    3.67    2.72
  -4  13  -3   53.60    8.20
  -4  13  -4  154.66   14.31
  -4  13  -5   55.29    8.75
  -4  13  -6   98.02   11.87
  -4  13  -7   56.78    9.28
  -4  13  -8   57.38    9.55
   4  13   9   -1.67    2.59
  -4  13  -9   -2.16    2.15
   4  13  10    0.94    2.31
  -4  13 -10   -0.38    2.07
   4  13  11    9.19    3.80
  -4  13 -11   14.96    5.34
   4  13  12   66.91   10.52
  -4  13 -12   59.82   10.83
   4  13  13   38.84    8.34
  -4  13 -13   38.91    8.99
  -4  13 -14   10.34    4.52
   4  13  14    5.34    2.79
  -4  13 -15    8.06    4.40
   4  14 -14   15.46    5.93
   4  14 -13   -2.37    1.73
   4  14 -12    6.01    3.64
   4  14 -11   -5.41    3.53
   4  14 -10   34.07    8.35
   4  14  -9    1.56    2.69
   4  14  -8   23.03    6.91
   4  14  -7   38.90    8.39
   4  14  -6    1.63    1.57
   4  14  -5    8.81    4.24
   4  14  -4  121.14   14.26
   4  14  -3   54.18    9.32
   4 -14  -2   21.48    5.41
   4  14  -2   14.06    4.58
   4  14  -1    2.75    1.35
   4  14  -1    2.99    1.95
   4 -14  -1    2.96    2.62
  -4  14   1    3.40    2.10
   4  14   0   -0.48    0.69
   4  14   0   -1.58    2.34
  -4  14   0   -0.36    1.09
   4 -14   0   -1.04    2.61
   4  14   1   16.10    3.48
   4  14   1   17.13    5.18
  -4  14  -1   17.31    4.47
   4 -14   1   18.94    5.46
  -4  14  -2   20.48    5.06
   4 -14   2   17.62    5.17
  -4  14  -3    2.46    1.28
  -4  14  -4  201.40   17.09
  -4  14  -5    0.47    2.22
  -4  14  -6   28.56    6.94
  -4  14  -7   36.31    7.78
  -4  14  -8   24.04    6.48
  -4  14  -9   16.24    5.41
   4  14  10    5.51    2.89
  -4  14 -10    2.10    2.46
   4  14  11   72.70   10.82
  -4  14 -11   63.51   11.17
   4  14  12    0.26    1.66
  -4  14 -12   -0.86    1.59
   4  14  13    0.05    1.35
  -4  14 -13   -2.67    2.73
   4  14  14   -0.71    1.95
  -4  14 -14    2.07    2.49
  -4  14 -15   19.34    6.67
   4  15 -13   34.09    9.19
   4  15 -12    7.15    3.90
   4  15 -11   10.59    5.05
   4  15 -10    8.58    4.71
   4  15  -9   10.83    5.24
   4  15  -8    0.79    1.51
   4  15  -7    4.56    3.97
   4  15  -6   12.33    4.84
   4  15  -5   78.47   12.04
   4  15  -4    3.11    2.63
   4  15  -3   42.08    8.70
   4 -15  -2    1.31    1.87
   4  15  -2    2.10    2.02
   4 -15  -1   32.13    6.76
  -4  15   1   24.28    5.92
   4  15  -1   15.28    4.95
   4  15   0   17.54    6.06
  -4  15   0   21.75    5.39
   4 -15   0   24.98    6.36
   4  15   0   22.04    3.93
   4 -15   1   10.35    4.28
   4  15   1   13.17    4.65
  -4  15  -1   11.01    3.91
  -4  15  -2   60.91    9.27
   4 -15   2   63.63    9.90
   4 -15   3    6.17    3.26
  -4  15  -3   10.04    4.34
  -4  15  -4    4.13    2.64
  -4  15  -5   -0.26    1.32
  -4  15  -6   12.94    4.82
  -4  15  -7    2.26    2.41
  -4  15  -8    0.01    1.56
  -4  15  -9   55.27   10.38
   4  15  10    2.31    2.31
  -4  15 -10   -6.80    3.88
   4  15  11    1.09    1.93
  -4  15 -11    1.23    1.90
   4  15  12   -0.50    2.20
  -4  15 -12   -6.52    3.99
   4  15  13   39.40    8.73
  -4  15 -13   34.82    9.16
  -4  15 -14    5.53    3.83
   4  16 -12    5.58    3.98
   4  16 -11    2.97    2.98
   4  16 -10   14.93    5.85
   4  16  -9   -2.17    2.48
   4  16  -8    7.87    4.35
   4  16  -7    3.59    3.88
   4  16  -6    5.82    4.19
   4  16  -5   26.32    7.26
   4  16  -4   24.05    6.95
   4  16  -3    2.10    3.41
   4 -16  -2    4.90    2.69
   4  16  -2    2.99    2.69
  -4  16   1   12.82    4.51
   4 -16  -1   19.29    5.58
   4  16  -1    7.45    3.41
   4  16   0   13.02    4.82
  -4  16   0   12.39    4.49
   4 -16   0   16.10    5.30
   4 -16   1    0.50    2.13
  -4  16  -1    2.04    1.97
  -4  16  -2    4.98    2.59
   4 -16   2    4.50    2.90
   4 -16   3   -0.86    2.40
  -4  16  -3   -0.58    1.20
  -4  16  -4   17.47    5.54
  -4  16  -5   21.30    6.09
  -4  16  -6   13.49    5.19
  -4  16  -7   -0.14    2.04
  -4  16  -8    1.58    1.61
  -4  16  -9    8.47    4.04
   4  16  10   -0.37    1.72
  -4  16 -10    8.17    3.81
   4  16  11    0.88    1.96
  -4  16 -11   -2.93    2.74
   4  16  12   24.08    6.69
  -4  16 -12   21.37    7.22
  -4  16 -13   23.36    7.55
   4  17 -11   13.53    6.07
   4  17 -10    5.86    4.07
   4  17  -9    4.39    3.34
   4  17  -8   -1.10    2.03
   4  17  -7    1.71    1.74
   4  17  -6   -1.44    2.72
   4  17  -5   -8.16    4.29
   4  17  -4   84.11   13.18
   4  17  -3   41.60    9.06
   4 -17  -2   23.47    6.48
   4  17  -2   14.84    5.29
   4 -17  -1   -1.06    2.40
   4  17  -1    1.11    1.83
   4 -17   0  134.43   15.00
   4  17   0  144.98   16.60
  -4  17   0  138.82   14.85
  -4  17  -1    1.30    2.53
   4 -17   1    2.09    2.40
   4 -17   2    2.62    2.20
  -4  17  -2    1.81    1.49
   4 -17   3   11.63    5.21
  -4  17  -3   26.44    6.75
   4 -17   4   30.64    7.83
  -4  17  -4   44.57    8.76
  -4  17  -5   -1.21    1.91
  -4  17  -6    8.76    4.47
  -4  17  -7   20.26    6.70
  -4  17  -8    8.87    4.94
  -4  17  -9   10.83    4.96
   4  17  10    1.12    1.86
  -4  17 -10    6.26    4.22
   4  17  11    0.55    1.19
  -4  17 -11    0.40    3.00
  -4  17 -12   -1.14    2.32
   4  18  -9    5.74    4.13
   4  18  -8   -4.03    3.46
   4  18  -7   10.74    5.56
   4  18  -6   27.73    7.89
   4  18  -5   12.67    5.65
   4  18  -4   -2.68    2.61
   4  18  -3   11.21    4.94
   4 -18  -2  159.77   16.56
   4  18  -2  133.44   16.66
   4 -18  -1    4.89    3.08
   4  18  -1    7.76    3.75
   4 -18   0    2.18    2.30
   4  18   0   -0.98    3.04
  -4  18   0    2.21    2.50
  -4  18  -1   20.68    6.11
   4 -18   1   24.49    6.66
   4 -18   2   32.81    7.93
  -4  18  -2   35.21    7.75
  -4  18  -3    5.63    3.03
   4 -18   3   15.82    5.65
  -4  18  -4    1.64    2.03
   4 -18   4    2.32    1.51
   4 -18   5   15.31    5.80
  -4  18  -5    4.25    2.37
  -4  18  -6   38.83    9.02
  -4  18  -7   -0.33    1.58
  -4  18  -8   -1.26    2.03
   4  18   9    0.10    1.80
  -4  18  -9    0.81    1.51
   4  18  10    1.00    1.85
  -4  18 -10   -2.54    2.92
   4  18  11   -2.87    2.65
  -4  18 -11   -0.82    1.97
   4  19  -7    0.07    1.69
   4  19  -6   54.19   11.59
   4  19  -5    0.74    2.53
   4  19  -4   87.69   14.25
   4  19  -3    0.51    2.20
   4  19  -2   13.48    5.96
   4 -19  -1    0.83    1.42
   4  19  -1    6.43    3.76
   4 -19   0   11.69    4.56
   4  19   0    6.09    3.82
  -4  19   0    8.30    3.82
  -4  19  -1   18.43    5.75
   4 -19   1   17.86    5.79
   4 -19   2   21.16    6.31
  -4  19  -2   22.88    6.54
   4 -19   3    6.80    4.14
  -4  19  -3    2.75    1.69
   4 -19   4   73.67   12.35
  -4  19  -4   59.28   10.92
   4 -19   5    5.64    3.49
  -4  19  -5   15.81    5.59
  -4  19  -6    4.21    3.06
  -4  19  -7    1.37    2.15
   4  19   8   11.57    4.41
  -4  19  -8    9.05    4.48
   4  19   9   40.55    8.38
  -4  19  -9   50.89   11.29
   4  19  10   37.82    8.42
   4  20  -4   11.80    5.13
   4  20  -3    1.32    1.84
   4  20  -2    6.43    3.87
   4  20  -1    2.61    2.28
   4 -20  -1    0.35    2.33
   4 -20   0   25.84    7.13
   4 -20   1   -2.61    2.54
  -4  20  -1   -0.67    1.73
  -4  20  -2   10.30    4.89
   4 -20   2    4.85    3.61
   4 -20   3   24.64    7.28
  -4  20  -3   23.40    7.05
   4 -20   4    5.17    3.31
  -4  20  -4   10.21    4.69
   4 -20   5    3.82    3.10
  -4  20  -5   -3.81    3.15
   4 -20   6    8.38    4.62
  -4  20  -6   -3.42    3.06
  -4  20  -7   40.65    9.90
   4  20   8    9.75    4.10
  -4  20  -8    5.31    3.66
   4 -21   0   -0.01    1.98
  -4  21  -1    8.85    4.71
   4 -21   1    4.88    3.60
  -4  21  -2    5.91    4.16
   4 -21   2    2.88    2.66
  -4  21  -3   15.43    5.71
   4 -21   3   17.43    6.33
   4 -21   4   -2.14    2.74
  -4  21  -4   -1.30    2.29
   4 -21   5   22.75    7.39
  -4  21  -5   26.85    7.86
  -4  21  -6   -0.67    2.46
   4 -22   2    3.81    3.33
  -4  22  -2    5.78    4.17
  -4  22  -3    1.34    2.52
   4 -22   3    5.17    3.80
   5   0 -20    0.85    2.86
   5   0 -19    1.93    1.74
   5   0 -18   -2.02    2.08
   5   0 -18    1.94    2.66
   5   0 -17    3.90    2.78
   5   0 -17    0.90    1.53
   5   0 -16    1.19    1.64
   5   0 -16   -0.37    1.45
   5   0 -15   44.90    6.89
   5   0 -15   42.39    7.06
   5   0 -14    0.18    1.31
   5   0 -14   -1.35    1.83
   5   0 -13  112.76   10.44
   5   0 -13   89.02    9.27
   5   0 -12    1.29    1.28
   5   0 -12   -1.11    1.34
   5   0 -11    7.20    2.44
   5   0 -11    4.14    2.33
   5   0 -10   -0.10    1.33
   5   0 -10    3.70    1.81
   5   0  -9   16.48    3.65
   5   0  -9   16.77    3.29
   5   0  -8   -0.74    0.82
   5   0  -8    0.03    1.24
   5   0  -7   83.17    6.38
   5   0  -7   83.96    7.49
   5   0  -6   -0.19    0.60
   5   0  -6    0.35    0.99
   5   0  -5   91.90    7.34
   5   0  -5   94.83    5.93
   5   0  -4    0.35    0.65
   5   0  -4    0.54    1.01
   5   0  -3 1683.05   29.31
   5   0  -3 1658.38   20.02
   5   0  -2   -0.73    0.93
   5   0  -2    0.00    0.30
   5   0  -1   48.36    4.54
  -5   0   1   46.08    2.49
   5   0   0   -0.33    0.92
   5   0   0   -0.69    1.09
  -5   0   0    0.33    0.36
   5   0   1  417.89   12.73
  -5   0  -1  431.65   10.44
   5   0   1  426.33   15.26
   5   0   2   -0.27    0.62
   5   0   2   -0.59    0.85
   5   0   3    1.27    0.65
   5   0   3    2.23    1.65
   5   0   4   -0.48    0.71
   5   0   4    1.28    1.35
   5   0   5    7.75    2.34
   5   0   6    0.18    1.54
   5   0   7  264.52   15.53
  -5   0  -8    0.61    1.12
   5   0   8    0.25    1.39
   5   0   9   65.68    8.26
   5   0  10   -0.57    1.24
   5   0  11  208.48   15.64
   5   0  12    0.07    1.98
   5   0  13    1.16    2.11
   5   0  14    0.48    2.24
   5   0  15  277.63   20.68
   5   0  16   -0.53    1.60
   5   0  17    5.97    3.64
   5   0  18    0.76    1.57
   5   0  19   -0.82    1.80
   5  -1 -20   -2.82    2.51
   5   1 -20    1.67    1.43
   5   1 -19    0.57    1.88
   5  -1 -19    7.25    3.81
   5   1 -18   34.43    7.53
   5  -1 -18   26.94    5.74
   5  -1 -18   25.17    6.18
   5   1 -18   31.37    6.34
   5  -1 -17   -0.30    1.27
   5   1 -17    0.25    1.55
   5  -1 -17   -0.91    1.38
   5   1 -17    4.16    2.67
   5   1 -16    7.66    3.24
   5   1 -16    6.39    2.87
   5  -1 -16    8.94    3.33
   5  -1 -16    4.23    2.10
   5   1 -15   24.65    5.72
   5   1 -15   19.39    4.52
   5  -1 -15   32.35    6.16
   5  -1 -15   29.37    5.51
   5   1 -14    5.53    2.59
   5   1 -14    3.68    2.13
   5  -1 -14    0.99    1.20
   5  -1 -14    6.49    2.97
   5  -1 -13    0.94    1.54
   5   1 -13    0.16    1.55
   5  -1 -13    1.33    0.84
   5   1 -13   -1.29    1.61
   5  -1 -12   55.57    6.89
   5   1 -12   50.94    6.90
   5  -1 -12   40.74    5.98
   5   1 -12   55.88    7.30
   5  -1 -11   39.48    5.49
   5  -1 -11   42.28    5.83
   5   1 -11   38.49    5.77
   5   1 -11   40.77    5.92
   5   1 -10   40.32    5.59
   5   1 -10   37.14    5.48
   5  -1 -10   31.28    4.60
   5  -1 -10   38.53    5.55
   5  -1  -9   99.09    7.64
   5  -1  -9   92.29    8.16
   5   1  -9  116.36    9.37
   5   1  -9  103.06    8.41
   5   1  -8   24.89    3.97
   5  -1  -8   25.65    3.70
   5  -1  -8   23.61    4.15
   5   1  -8   31.05    4.68
   5  -1  -7   77.64    5.82
   5   1  -7   81.75    7.38
   5   1  -7   63.17    5.91
   5  -1  -7   74.78    7.10
   5   1  -6   -0.74    1.01
   5   1  -6    0.39    1.02
   5  -1  -6    1.21    0.58
   5  -1  -6    1.37    1.12
   5  -1  -5  320.45   13.48
   5   1  -5  293.60   13.42
   5   1  -5  308.27   11.73
   5  -1  -5  282.35    9.27
   5  -1  -4   10.16    1.58
   5   1  -4   14.18    3.01
   5  -1  -4   10.58    2.55
   5   1  -4   10.21    1.99
  -5  -1   3    1.21    0.63
   5  -1  -3    0.97    0.88
   5   1  -3    1.02    1.27
   5   1  -3    0.77    0.90
   5  -1  -3    0.47    0.21
  -5  -1   2    1.83    0.69
   5  -1  -2    2.66    1.38
   5   1  -2    1.63    0.67
   5   1  -2    1.23    0.92
   5  -1  -1 1601.15   26.17
  -5  -1   1 1530.29   20.02
   5   1  -1 1587.94   27.26
   5  -1   0    0.80    1.17
  -5  -1   0    0.25    0.59
   5  -1   0    0.72    1.06
   5   1   0    3.43    1.37
  -5  -1   0    0.84    0.62
   5   1   1    1.50    1.22
   5  -1   1   -0.33    0.59
  -5  -1  -1   -0.16    0.39
   5   1   1   -0.11    0.88
   5  -1   1    0.29    0.93
   5   1   2   52.27    4.53
   5  -1   2   51.62    4.21
   5   1   2   48.85    5.73
   5   1   2   51.44    5.12
   5  -1   2   47.17    5.62
   5  -1   3    0.05    0.72
  -5  -1  -3    1.27    0.78
   5   1   3   -0.85    1.37
   5   1   3    1.69    1.02
   5  -1   4  245.85    8.48
  -5  -1  -4  227.11    8.21
   5  -1   4  238.70   13.61
   5   1   4  234.13   13.17
   5  -1   5    0.64    1.18
   5  -1   5    1.41    0.77
  -5  -1  -5    0.44    0.46
   5   1   5    2.61    1.61
   5  -1   6   10.71    2.89
   5   1   6   18.92    4.36
   5  -1   7   34.96    5.53
  -5  -1  -7   24.05    4.63
   5   1   7   21.74    4.49
  -5  -1  -8    4.97    2.13
   5   1   8    5.61    2.47
   5  -1   8    6.19    2.94
   5   1   9  174.79   13.39
  -5   1  -9  159.82   11.69
   5  -1   9  174.27   13.45
   5  -1  10    8.68    3.25
   5   1  10    8.29    2.88
   5  -1  11   25.21    5.50
   5   1  11   22.17    5.22
   5  -1  12    0.41    1.46
   5   1  12   -2.25    2.59
   5  -1  13  126.95   13.17
   5   1  13  158.53   14.63
   5  -1  14   12.07    5.04
   5   1  14    7.29    3.46
   5  -1  15   37.40    7.73
   5   1  15   27.94    6.64
   5  -1  16   18.05    5.59
   5   1  16   17.33    5.57
   5  -1  17   36.91    8.11
   5   1  17   44.22    9.08
   5  -1  18    0.07    1.85
   5   1  18    3.68    3.36
   5  -1  19   19.83    6.42
   5   1  19   14.49    5.59
   5  -1  20   -0.49    1.51
   5  -2 -20    6.90    3.60
   5   2 -20   10.56    4.52
   5   2 -19   -1.04    1.86
   5  -2 -19    4.47    3.25
   5   2 -18   35.90    7.82
   5  -2 -18   27.07    5.71
   5  -2 -18   47.29    8.41
   5  -2 -17   -0.05    1.53
   5  -2 -17   11.97    4.04
   5   2 -17    8.60    3.80
   5   2 -16   -0.62    1.62
   5   2 -16   -0.40    1.39
   5  -2 -16   -0.09    1.02
   5  -2 -16   -1.61    1.98
   5   2 -15   32.09    6.11
   5   2 -15   26.09    6.01
   5  -2 -15   42.95    7.01
   5  -2 -15   33.12    5.87
   5  -2 -14   81.96    8.86
   5   2 -14   85.06    9.53
   5   2 -14   80.42    9.83
   5   2 -13    2.54    1.95
   5  -2 -13    0.60    1.26
   5   2 -13    1.04    1.07
   5   2 -12   86.25    9.02
   5  -2 -12   84.17    8.56
   5   2 -12   88.67    9.46
   5   2 -11   96.05    9.30
   5  -2 -11   93.98    8.70
   5   2 -11   87.86    9.00
   5   2 -10   65.88    7.43
   5  -2 -10   72.12    7.50
   5   2 -10   71.87    7.75
   5   2  -9   18.38    3.86
   5   2  -9   21.51    4.27
   5  -2  -9   15.97    3.60
   5   2  -8    0.42    1.23
   5   2  -8   -0.23    1.26
   5  -2  -8    0.61    1.05
   5  -2  -7   52.33    5.94
   5   2  -7   42.41    5.55
   5   2  -7   42.27    5.18
   5   2  -6    0.40    0.65
   5   2  -6    1.59    1.61
   5  -2  -6    3.22    2.03
   5  -2  -5    2.26    0.82
   5  -2  -5    1.43    1.37
   5   2  -5   -0.14    1.04
   5   2  -5    3.76    1.44
  -5  -2   4   74.15    5.14
   5   2  -4   66.26    6.32
   5  -2  -4   71.76    6.26
   5   2  -4   67.46    5.68
   5  -2  -4   71.38    3.62
   5   2  -3  701.81   20.02
   5  -2  -3  746.46   19.34
  -5  -2   3  690.97   18.11
   5   2  -3  644.91   16.73
  -5  -2   3  718.46   15.70
   5   2  -2  147.03    8.89
   5  -2  -2  150.71    8.35
  -5  -2   2  168.01    9.02
   5   2  -2  157.38    7.70
  -5  -2   2  161.70    7.58
   5   2  -1   13.62    2.20
   5   2  -1   13.56    2.72
   5  -2  -1   16.12    2.58
   5  -2  -1   14.15    3.31
  -5  -2   1   14.48    2.74
  -5  -2   1   13.89    2.25
   5   2   0  206.09   10.11
   5  -2   0  194.88    8.90
  -5  -2   0  185.84    8.69
   5  -2   0  197.73   11.45
  -5  -2   0  192.36    9.66
   5   2   1 1220.90   23.78
   5  -2   1 1166.80   20.86
   5   2   1 1195.98   26.57
  -5  -2  -1 1185.01   22.40
   5  -2   1 1205.23   28.83
  -5   2  -1 1129.79   12.41
   5   2   2  477.00   17.18
  -5  -2  -2  467.85   14.74
   5   2   2  479.00   14.38
   5  -2   2  493.73   12.93
   5  -2   2  475.11   18.35
  -5  -2  -3   89.77    5.61
   5  -2   3   89.07    5.29
   5   2   3  102.26    8.30
   5   2   3   98.55    6.69
  -5  -2  -4    2.99    1.00
   5  -2   4    1.27    0.59
   5   2   4    1.65    0.93
  -5  -2  -5   49.26    3.86
   5   2   5   45.81    6.18
   5  -2   5   48.67    6.47
   5  -2   5   46.56    3.42
   5  -2   6  320.59    8.35
   5  -2   6  329.99   16.94
  -5  -2  -6  320.36    9.29
  -5  -2  -6  334.79   16.93
   5   2   6  341.33   17.04
  -5  -2  -7   41.81    6.05
  -5  -2  -7   48.06    3.35
   5  -2   7   41.46    6.33
   5   2   7   44.34    6.45
   5  -2   7   44.56    2.82
  -5  -2  -8    0.16    1.45
  -5  -2  -8    1.79    0.63
   5  -2   8    2.15    1.62
   5   2   8    0.82    1.20
   5  -2   9   57.74    7.91
   5   2   9   50.57    7.38
   5  -2  10   60.46    8.15
   5   2  10   49.52    7.46
   5  -2  11   14.25    4.18
   5   2  11   13.43    4.07
   5  -2  12  101.04   11.30
   5   2  12  109.08   11.89
   5  -2  13   33.62    6.77
   5   2  13   39.29    7.60
   5  -2  14   11.71    4.80
   5   2  14    4.52    3.10
   5  -2  15   50.38    8.84
   5   2  15   69.78   10.62
   5  -2  16   11.06    4.37
   5   2  16   10.78    4.35
   5  -2  17   19.52    5.93
   5   2  17    9.01    4.15
  -5   2 -18    6.70    3.45
   5  -2  18    2.34    2.16
   5   2  18    3.11    3.29
  -5   2 -19    2.83    2.53
   5   2  19    1.69    1.56
   5  -2  19   -3.99    3.01
   5  -2  20   23.24    7.04
   5   3 -20   22.71    6.91
   5  -3 -20   20.03    5.99
   5  -3 -19   12.38    4.58
   5   3 -19   13.98    5.25
   5   3 -18   32.58    7.33
   5  -3 -18   33.54    6.43
   5  -3 -18   27.98    6.61
   5   3 -17   -0.20    1.58
   5  -3 -17    1.97    1.83
   5   3 -16   31.56    6.87
   5  -3 -16   37.56    6.48
   5   3 -15   43.01    7.64
   5  -3 -15   65.16    8.33
   5   3 -14   26.53    5.64
   5   3 -14   27.73    5.66
   5  -3 -14   24.12    4.88
   5   3 -13   29.66    5.95
   5   3 -13   38.13    6.44
   5  -3 -13   38.91    6.01
   5   3 -12   -1.32    1.53
   5   3 -12   -2.32    2.54
   5  -3 -12   -1.01    1.62
   5   3 -11   23.72    4.93
   5   3 -11   30.78    5.34
   5  -3 -11   34.83    5.37
   5   3 -10   82.27    8.49
   5  -3 -10   96.30    8.67
   5   3 -10   68.08    8.03
   5   3  -9   26.68    4.88
   5  -3  -9   32.78    5.13
   5   3  -9   20.45    3.99
   5   3  -8    3.14    1.58
   5   3  -8    5.47    2.03
   5  -3  -8    5.68    2.20
   5   3  -7   74.33    7.55
   5  -3  -7   69.28    6.75
   5   3  -7   70.01    7.14
   5   3  -6    0.77    0.64
   5   3  -6    0.80    1.88
   5   3  -5  130.38    9.49
   5   3  -5  134.45    9.12
  -5  -3   4  567.35   15.31
   5   3  -4  562.22   17.89
   5   3  -4  570.16   19.37
  -5  -3   4  581.57   16.11
  -5  -3   3  235.71   10.04
   5   3  -3  245.83   11.35
   5  -3  -3  233.34    5.49
   5   3  -3  257.27   12.74
  -5  -3   3  243.60   10.50
   5   3  -2 1312.08   27.61
   5   3  -2 1213.04   24.15
  -5  -3   2 1246.85   23.27
  -5  -3   2 1269.12   24.25
  -5  -3   1  584.63   16.78
   5  -3  -1  582.18   20.69
  -5  -3   1  587.69   16.54
   5   3  -1  559.69   15.84
   5   3   0   37.20    4.49
  -5  -3   0   41.53    4.56
   5  -3   0   38.69    5.35
  -5  -3   0   35.91    3.93
  -5  -3  -1 1067.14   23.67
  -5   3  -1 1072.64   14.23
   5   3   1 1114.60   25.13
   5  -3   1 1155.92   29.55
  -5  -3  -2   95.34    7.27
   5   3   2  101.92    5.95
   5   3   2   98.23    7.81
  -5   3  -2   95.54    4.92
   5  -3   2  107.51    9.17
   5   3   3    4.26    1.27
  -5   3  -3    3.82    1.08
   5   3   3    1.65    1.12
  -5   3  -4  467.81   13.35
   5  -3   4  470.76   11.90
   5   3   4  518.92   19.31
  -5   3  -5   64.56    5.48
  -5  -3  -5   54.72    4.37
   5  -3   5   56.06    3.84
   5   3   5   54.08    6.46
  -5   3  -5   62.31    6.43
   5  -3   6   15.98    3.81
   5  -3   6   11.23    1.62
  -5  -3  -6   12.66    2.01
  -5  -3  -6   12.83    3.35
   5   3   6   15.46    3.56
  -5  -3  -7    0.41    0.28
   5  -3   7    4.57    1.83
   5  -3   7    1.06    0.46
  -5  -3  -7    0.26    1.15
   5   3   7    3.96    2.26
   5  -3   8  154.30    4.28
  -5  -3  -8  158.83    6.50
   5   3   8  181.55   13.33
   5  -3   8  161.37   12.70
   5  -3   9   13.47    3.74
  -5  -3  -9   16.43    1.94
   5   3   9   14.11    3.88
   5  -3  10   36.23    6.33
   5   3  10   34.20    6.02
   5  -3  11    2.54    2.73
   5   3  11    1.05    2.00
   5  -3  12   56.30    8.57
   5   3  12   50.68    8.24
   5   3  13  102.34   11.87
   5  -3  13   89.86   10.98
  -5   3 -14    3.99    2.46
   5  -3  14    3.68    2.81
   5   3  14    4.54    3.19
   5  -3  15    0.99    1.59
   5   3  15    5.95    2.40
  -5   3 -15    2.67    2.27
  -5   3 -16   42.76    8.15
   5  -3  16   40.97    8.21
   5   3  16   38.52    8.35
  -5   3 -17    3.16    2.58
   5  -3  17    4.49    3.39
   5   3  17   -0.43    2.30
   5  -3  18   10.97    4.40
  -5   3 -18   12.88    5.14
   5   3  18   10.98    4.88
   5   3  19   10.67    4.90
   5  -3  19   11.25    4.79
   5  -3  20    2.74    3.18
   5   4 -20    2.90    2.89
   5  -4 -20   -1.17    1.68
   5   4 -19    4.81    3.38
   5   4 -18   18.47    5.81
   5  -4 -18   23.06    5.33
   5  -4 -17    2.07    1.81
   5   4 -17   -0.61    1.78
   5   4 -16   13.92    5.08
   5  -4 -16   13.20    3.89
   5  -4 -15  129.82   11.64
   5   4 -15  130.07   13.78
   5  -4 -14  182.25   13.39
   5   4 -14  172.28   15.37
   5   4 -13   64.05    9.08
   5  -4 -13   82.77    8.86
   5   4 -12   17.35    4.56
   5  -4 -12   16.16    3.86
   5   4 -11   11.15    3.64
   5  -4 -11   12.15    3.44
   5   4 -10   -0.30    1.55
   5  -4 -10    0.50    1.48
   5   4  -9   20.77    4.36
   5   4  -8   11.74    3.34
   5   4  -7   60.47    7.00
  -5  -4   6   78.64    5.34
   5   4  -6   89.84    8.29
  -5  -4   5   14.98    2.28
   5   4  -5   14.56    3.19
  -5  -4   4  379.96   11.64
   5  -4  -4  413.56   10.66
   5   4  -4  394.94   16.22
  -5  -4   3  608.41   15.02
   5  -4  -3  604.63   11.06
   5   4  -3  619.81   19.61
   5   4  -2   16.46    3.18
  -5  -4   2   18.23    2.75
  -5  -4   2   19.88    3.37
   5   4  -1  216.26   10.91
  -5  -4   1  205.92    9.49
  -5  -4   1  203.47   10.96
  -5  -4   1  212.01    9.54
   5  -4  -1  204.12   12.83
  -5  -4   0   14.52    2.98
  -5  -4   0   12.48    2.15
  -5   4   0   11.30    1.36
   5   4   0   13.62    2.77
   5  -4   0    8.22    2.58
   5   4   1    0.58    1.11
   5  -4   1    0.33    1.11
  -5   4  -1   -0.15    0.43
   5   4   2  158.77    9.88
  -5   4  -2  148.69    6.97
   5   4   3   97.41    8.12
   5   4   3   91.91    5.15
  -5   4  -3   88.15    5.83
  -5   4  -4   14.13    2.43
   5   4   4   16.62    2.39
   5   4   4   14.97    3.50
  -5   4  -5   -0.05    0.58
  -5   4  -5    0.79    1.23
   5   4   5    0.74    0.86
   5   4   6  441.35   19.25
  -5   4  -6  504.39   18.25
  -5   4  -6  469.63   16.46
  -5  -4  -7   26.41    3.12
  -5   4  -7   31.02    4.48
  -5  -4  -7   27.14    4.99
   5  -4   7   31.87    2.66
   5   4   7   28.89    5.25
  -5   4  -8   92.28    8.18
  -5  -4  -8   76.42    5.17
   5  -4   8   76.97    8.76
   5   4   8   82.25    9.03
   5  -4   8   75.80    3.53
  -5   4  -9    1.04    1.62
   5  -4   9   -0.15    1.72
   5   4   9    0.80    2.03
  -5   4 -10    3.06    1.94
   5  -4  10    4.81    2.78
   5   4  10    7.18    3.54
  -5   4 -11   -0.48    1.58
   5  -4  11    2.38    2.45
   5   4  11   -1.02    2.17
  -5   4 -12   -1.80    2.14
   5  -4  12   -1.57    2.47
   5   4  12    0.19    1.40
  -5   4 -13   13.22    4.17
   5  -4  13   10.90    3.78
   5   4  13   14.16    4.48
  -5   4 -14   21.33    5.47
   5  -4  14   24.24    5.82
   5   4  14   17.56    5.03
  -5   4 -15   36.99    7.39
   5  -4  15   33.72    7.20
   5   4  15   37.32    7.70
  -5   4 -16   63.56   10.07
   5  -4  16   44.97    8.38
   5   4  16   48.28    9.17
   5  -4  17   -2.50    2.36
   5   4  17   -8.92    4.23
  -5   4 -18   -1.21    1.89
   5  -4  18   -2.70    2.49
   5   4  18   -0.32    1.83
   5  -4  19    8.07    4.54
   5   5 -19    2.84    2.62
   5  -5 -18   10.05    3.59
   5   5 -18    7.00    3.84
   5   5 -17   -0.74    3.20
   5  -5 -17    0.35    1.15
   5   5 -16    1.15    1.82
   5  -5 -16    9.00    3.34
   5   5 -15   49.10    8.73
   5  -5 -15   50.40    7.37
   5   5 -14   48.63    8.45
   5  -5 -14   51.53    7.14
   5   5 -13   70.83    9.88
   5  -5 -13   72.99    8.46
   5   5 -12    5.91    2.70
   5  -5 -12    9.53    3.19
   5   5 -11   39.81    6.95
   5   5 -10    0.79    0.93
   5   5  -9   50.91    7.23
   5   5  -8    5.62    2.37
  -5  -5   8    9.59    1.65
  -5  -5   7   10.40    1.63
   5   5  -7   15.10    3.68
  -5  -5   6   98.65    5.04
   5   5  -6   98.73    9.29
  -5  -5   5  143.93    6.24
   5  -5  -5  142.14    7.80
   5   5  -5  149.59   10.96
   5  -5  -4   65.42    4.78
   5   5  -4   80.16    7.83
  -5  -5   4   67.49    4.48
   5  -5  -3  168.77    6.94
  -5  -5   3  163.68    7.45
   5   5  -3  183.53   11.47
   5   5  -2   51.07    5.87
  -5  -5   2   50.84    4.32
   5  -5  -2   50.19    3.40
   5   5  -1  183.71    9.35
  -5  -5   1  188.07    8.89
   5   5  -1  189.62   11.07
   5  -5  -1  198.00   13.10
   5  -5  -1  187.78    6.06
  -5  -5   1  187.15   11.85
   5  -5   0  319.72    7.76
  -5  -5   0  328.03   15.85
   5   5   0  307.65   13.95
   5   5   0  308.51   12.55
   5  -5   0  327.19   17.08
  -5  -5   0  306.89    9.87
  -5   5   0  306.92    9.04
   5   5   1   67.02    6.13
  -5   5  -1   57.14    4.47
   5  -5   1   70.93    7.94
   5   5   2  541.61   18.26
  -5   5  -2  519.90   14.53
   5   5   3  458.73   17.51
  -5   5  -3  455.03   14.48
   5   5   4   65.29    6.89
   5   5   4   60.40    3.76
  -5   5  -4   57.44    5.45
  -5   5  -5   23.27    3.68
   5   5   5   22.03    4.39
  -5   5  -6   35.33    4.80
  -5   5  -6   31.84    4.53
   5   5   6   33.76    5.48
  -5   5  -7   10.17    2.69
  -5   5  -7    9.66    2.44
   5   5   7   16.67    4.06
   5   5   8  115.17   10.81
  -5   5  -8  120.18    9.73
   5  -5   9  314.77    7.02
   5   5   9  329.27   18.99
  -5   5  -9  300.69   16.28
   5   5  10   22.00    5.26
  -5   5 -10   26.86    5.09
   5  -5  11    0.54    1.56
  -5   5 -11    5.30    2.25
   5   5  11    2.78    2.28
  -5   5 -12    5.82    2.86
   5  -5  12    3.64    2.21
   5   5  12    5.81    2.50
   5  -5  13  125.04   13.09
   5   5  13  135.10   14.25
  -5   5 -13  143.48   13.46
   5  -5  14    1.24    1.60
   5   5  14    1.53    2.26
  -5   5 -15   16.74    5.31
   5  -5  15   16.66    4.99
   5   5  15   13.53    4.78
  -5   5 -16   20.71    6.18
   5  -5  16   25.65    6.42
   5   5  16   12.74    4.51
   5  -5  17  119.29   14.30
   5   5  17  140.22   16.24
  -5   5 -17  127.80   15.13
  -5   5 -18   70.51   11.62
   5  -5  18   61.64   10.63
   5   5  18   68.84   11.86
   5  -5  19    0.76    1.77
   5   6 -19    6.33    4.15
   5   6 -18    2.45    2.21
   5  -6 -18    2.09    1.64
   5   6 -17   -0.15    1.58
   5  -6 -17   -2.08    1.64
   5   6 -16    1.23    1.59
   5  -6 -16    5.12    2.38
   5   6 -15    0.49    1.87
   5  -6 -15   -0.58    1.50
   5   6 -14   69.00   10.49
   5  -6 -14   73.37    8.77
   5   6 -13    8.85    3.72
   5  -6 -13   12.91    3.81
   5   6 -12    1.18    1.44
   5   6 -11  101.19   11.40
   5   6 -10   -0.99    1.90
   5   6  -9  165.23   13.54
  -5  -6   8   60.65    2.62
   5   6  -8   71.13    8.67
   5   6  -7  284.98   17.07
  -5  -6   7  277.47    6.08
   5   6  -6  137.83   11.45
  -5  -6   6  135.83    4.78
  -5  -6   5   10.79    1.50
   5  -6  -5    9.73    2.20
   5   6  -5    7.52    3.11
   5  -6  -4   30.42    3.63
  -5  -6   4   29.00    2.69
   5   6  -4   26.69    4.75
   5   6  -3  177.26   12.08
   5  -6  -3  163.37    7.89
  -5  -6   3  147.74    6.84
  -5  -6   2   23.68    2.91
  -5  -6   2   28.57    4.70
   5  -6  -2   28.14    3.09
   5   6  -2   28.15    4.64
   5  -6  -2   23.18    4.74
  -5  -6   1   63.14    7.01
   5   6  -1   76.56    7.51
   5   6  -1   75.42    5.90
   5  -6  -1   80.66    4.96
   5  -6  -1   74.60    8.29
   5   6   0  255.05   13.59
  -5   6   0  253.83    9.63
   5   6   0  264.64   11.68
  -5  -6   0  253.99   14.38
  -5  -6   0  262.62    8.38
   5  -6   0  262.68   15.95
   5  -6   0  268.51    8.80
   5  -6   1   34.72    3.25
   5  -6   1   27.26    5.34
  -5   6  -1   30.64    3.70
   5   6   1   32.37    4.30
  -5  -6  -1   43.17    6.04
   5   6   2   29.87    4.23
  -5   6  -2   30.29    3.82
   5   6   3   66.92    6.75
  -5   6  -3   64.81    6.00
  -5   6  -4    0.58    0.72
   5   6   4    2.04    1.63
   5   6   5   51.04    6.55
  -5   6  -5   47.11    5.70
   5   6   5   45.25    2.93
   5   6   6    5.04    2.32
  -5   6  -6    4.77    1.79
  -5  -6  -6    1.66    1.06
  -5   6  -6    5.09    1.96
   5   6   7   12.66    3.59
  -5   6  -7   15.06    3.68
  -5   6  -7   15.46    3.17
  -5   6  -8   83.84    7.28
   5   6   8   83.90    9.37
  -5   6  -8   77.66    8.30
   5   6   9    9.08    3.14
  -5   6  -9    7.54    2.29
  -5   6  -9   12.00    3.56
   5   6  10   -1.42    2.06
  -5   6 -10    2.18    1.40
   5   6  11  121.92   12.44
  -5   6 -11  118.62   11.61
   5   6  12    6.72    2.96
  -5   6 -12    4.78    2.52
   5   6  13    5.28    3.40
  -5   6 -13    0.01    1.35
   5   6  14    3.18    2.53
  -5   6 -14   -0.22    2.14
  -5   6 -15    3.52    2.73
   5  -6  15    5.56    2.73
   5   6  15   12.40    4.99
  -5   6 -16   -3.88    2.80
   5  -6  16   -0.88    2.44
   5  -6  17    2.59    1.84
  -5   6 -17    3.39    3.16
   5   6  17   -0.22    2.12
  -5   6 -18   15.29    5.58
   5  -6  18   16.56    5.64
   5   6  18   10.14    4.41
   5   7 -19   12.76    5.85
   5   7 -18   -0.32    2.00
   5  -7 -18   -1.24    2.11
   5   7 -17    2.90    3.30
   5  -7 -17   -0.09    1.16
   5   7 -16   -0.46    1.59
   5  -7 -16    0.98    1.74
   5   7 -15    2.10    2.52
   5  -7 -15   -0.85    2.05
   5   7 -14    7.76    3.73
   5  -7 -14    7.00    3.23
   5   7 -13    2.33    2.67
   5   7 -12    1.68    2.23
   5   7 -11    1.03    1.29
   5   7 -10   -0.70    1.42
   5   7  -9    3.12    2.70
   5   7  -8   78.95    9.57
   5   7  -7    2.38    1.58
   5   7  -6   68.40    8.51
   5  -7  -5   13.30    2.78
   5   7  -5    9.49    3.04
   5  -7  -4   38.88    4.55
   5   7  -4   38.11    6.09
   5   7  -3    9.72    3.40
  -5  -7   3   12.60    3.16
   5  -7  -3   10.83    2.27
   5  -7  -2    2.55    2.26
   5   7  -2    2.05    1.11
   5   7  -2    1.42    1.23
  -5  -7   2   -0.19    0.80
   5  -7  -2    1.05    0.73
  -5  -7   1   47.89    6.25
   5   7  -1   48.18    4.73
  -5   7   1   51.40    4.72
   5  -7  -1   51.62    7.34
   5   7  -1   51.63    6.70
   5  -7  -1   52.57    4.67
   5  -7   0    5.87    2.48
   5  -7   0    6.28    1.55
   5   7   0    7.32    2.35
  -5  -7   0    8.18    1.35
  -5   7   0    7.80    1.97
   5   7   0    3.88    1.28
  -5  -7   0    5.73    2.17
   5  -7   1   23.07    5.17
   5  -7   1   20.75    2.84
  -5   7  -1   18.94    3.18
   5   7   1   17.67    3.30
  -5  -7  -1   20.03    4.07
  -5  -7  -2   12.71    3.57
   5  -7   2   10.59    2.10
  -5   7  -2   11.82    2.73
   5   7   2   10.08    2.57
  -5  -7  -3   25.51    4.90
  -5   7  -3   28.95    4.37
   5   7   3   27.09    4.47
   5   7   4  331.67   15.99
  -5  -7  -4  338.78   18.15
  -5   7  -4  333.65   15.22
   5   7   5  275.33   15.17
  -5  -7  -5  269.16   16.44
  -5   7  -5  270.03   14.24
  -5   7  -6  147.01    9.42
   5   7   6  150.62   11.66
  -5   7  -6  141.81   10.71
   5   7   7   12.32    3.57
  -5   7  -7   17.26    4.00
  -5   7  -7   12.78    2.77
  -5   7  -8   76.58    6.70
   5   7   8   87.26    9.61
  -5   7  -8   75.39    8.45
  -5   7  -9  399.23   15.39
   5   7   9  416.50   21.80
   5   7  10   47.44    7.58
  -5   7 -10   57.24    8.08
   5   7  11  126.96   12.97
  -5   7 -11  141.54   13.11
   5   7  12   10.93    3.98
  -5   7 -12    2.98    1.70
   5   7  13   57.78    9.39
  -5   7 -13   48.74    8.36
   5   7  14   -1.41    2.41
  -5   7 -14    3.12    2.97
   5   7  15    6.71    2.98
  -5   7 -15    0.04    1.68
   5   7  16   -4.78    3.26
  -5   7 -16    6.25    3.55
  -5   7 -17   31.18    7.85
   5   7  17   42.19    9.34
  -5   7 -18   16.03    5.55
   5   8 -18    5.34    4.27
   5  -8 -18    4.85    2.86
   5   8 -17    1.66    2.41
   5  -8 -17    8.56    3.41
   5   8 -16    9.60    4.39
   5  -8 -16   10.47    3.54
   5   8 -15   -0.70    1.67
   5   8 -14   17.65    5.34
   5   8 -13   -0.09    1.83
   5   8 -12    3.68    3.13
   5   8 -11   69.71   10.23
   5   8 -10   78.99   10.59
   5   8  -9   87.07   10.86
   5   8  -8   93.58   10.96
   5   8  -7    2.81    1.40
   5   8  -6  115.11   11.62
  -5  -8   5   19.69    3.95
   5   8  -5   15.60    4.35
  -5  -8   4   13.76    3.27
   5   8  -4   13.71    3.91
   5   8  -3  186.72   13.89
   5  -8  -3  161.25    9.70
  -5  -8   3  165.30   11.48
   5  -8  -2   -0.89    1.26
   5   8  -2   -0.10    1.62
   5   8  -2    0.16    0.58
  -5  -8   2    0.06    0.74
   5  -8  -2   -0.13    0.60
   5  -8  -1    2.51    1.22
   5   8  -1    0.95    1.03
  -5   8   1    1.99    1.11
   5  -8  -1    1.55    1.70
   5   8  -1    4.01    1.62
  -5  -8   1    0.22    0.80
   5  -8   0   18.46    4.47
   5  -8   0   21.11    3.25
   5   8   0   33.20    4.19
   5   8   0   28.76    5.43
  -5   8   0   25.83    3.84
  -5  -8   0   24.47    2.06
  -5  -8   0   21.49    4.29
   5  -8   1   20.63    4.89
  -5  -8  -1   19.31    4.02
  -5   8  -1   18.11    3.44
   5   8   1   23.83    3.78
  -5  -8  -2   56.62    7.28
   5   8   2   50.31    5.73
  -5   8  -2   55.06    6.15
   5  -8   2   47.35    7.57
   5   8   3   18.95    3.71
  -5  -8  -3   24.00    4.88
  -5   8  -3   20.01    3.86
  -5  -8  -4   41.30    6.43
   5   8   4   51.97    6.35
  -5   8  -4   46.46    6.05
   5   8   5   85.45    8.55
  -5   8  -5   83.61    8.49
  -5   8  -6  274.24   12.58
   5   8   6  259.28   15.51
  -5   8  -6  246.95   14.95
  -5   8  -7   -1.08    1.53
   5   8   7    2.55    2.25
  -5   8  -7   -0.17    0.81
   5   8   8   -1.54    1.93
  -5   8  -8   -0.32    1.65
  -5   8  -8    0.39    0.66
   5   8   9   62.00    8.61
  -5   8  -9   59.37    8.24
  -5   8  -9   53.65    5.35
   5   8  10   35.43    6.80
  -5   8 -10   20.37    4.95
   5   8  11   92.82   11.20
  -5   8 -11  106.14   11.71
   5   8  12    1.99    2.84
  -5   8 -12   -1.70    2.76
   5   8  13   -0.86    1.82
  -5   8 -13    2.40    2.12
   5   8  14   -0.26    1.76
  -5   8 -14   -2.59    2.40
   5   8  15    9.97    4.30
  -5   8 -15    1.13    1.54
   5   8  16   12.75    5.02
  -5   8 -16    7.19    3.42
   5   8  17    8.63    4.42
  -5   8 -17   24.10    7.01
   5   9 -18   11.45    5.36
   5  -9 -18    3.82    2.46
   5   9 -17    0.55    1.44
   5  -9 -17    4.83    2.73
   5   9 -16   49.24   10.09
   5  -9 -16   65.15    9.08
   5   9 -15    6.30    3.90
   5   9 -14   31.70    7.73
   5   9 -13   -0.43    1.65
   5   9 -12    1.42    2.11
   5   9 -11   13.92    4.82
   5   9 -10    4.11    2.84
   5   9  -9   33.71    7.02
   5   9  -8    3.59    2.12
  -5  -9   7    5.45    2.23
   5   9  -7    0.19    1.53
  -5  -9   6    0.97    1.20
   5   9  -6    0.47    1.57
   5   9  -5  124.37   12.34
  -5  -9   5  107.40    9.15
   5   9  -4    6.99    2.89
  -5  -9   4    6.19    2.30
   5   9  -3    0.47    0.48
   5   9  -3    1.45    1.18
  -5  -9   3   -0.77    0.87
   5  -9  -2   55.53    7.95
  -5  -9   2   56.49    6.78
   5   9  -2   55.54    7.80
   5   9  -2   56.47    4.83
   5   9  -1   61.85    8.06
  -5  -9   1   75.27    8.11
   5   9  -1   75.92    6.09
  -5   9   1   74.09    6.86
   5  -9  -1   80.43    9.47
   5  -9   0   17.74    4.60
  -5  -9   0   11.50    3.12
   5   9   0   13.97    3.81
  -5   9   0   14.46    3.09
   5   9   0   15.14    3.05
  -5   9  -1   25.59    4.27
  -5  -9  -1   26.34    5.11
   5  -9   1   23.83    5.46
   5   9   1   29.06    4.33
  -5  -9  -2  145.74   11.84
   5   9   2  152.77   10.24
  -5   9  -2  128.23   10.02
   5  -9   2  140.60   13.25
   5   9   3   93.09    8.47
  -5  -9  -3   88.54    9.45
  -5   9  -3   88.44    8.57
   5   9   4   11.45    3.23
  -5   9  -4    6.64    2.60
   5   9   5  280.24   15.74
  -5   9  -5  258.13   15.69
   5   9   6    1.46    1.30
  -5   9  -6    3.96    2.15
   5   9   7   53.72    7.51
  -5   9  -7   69.77    6.14
  -5   9  -7   60.83    8.19
  -5   9  -8    7.80    2.99
   5   9   8    7.45    3.13
  -5   9  -8   10.19    2.25
   5   9   9  103.38   11.26
  -5   9  -9  104.70   11.25
  -5   9 -10    6.71    3.04
   5   9  10    6.75    3.16
   5   9  11    5.82    3.09
  -5   9 -11    3.26    2.55
   5   9  12   26.56    6.19
  -5   9 -12   23.27    5.91
   5   9  13   23.67    6.31
  -5   9 -13   27.09    6.61
   5   9  14   22.89    6.25
  -5   9 -14   32.42    7.50
   5   9  15    5.74    3.21
  -5   9 -15   10.51    4.26
   5   9  16   -5.69    3.55
  -5   9 -16   -3.57    3.16
  -5   9 -17    3.32    2.70
   5 -10 -18   39.13    7.49
   5 -10 -17    1.45    1.65
   5  10 -17    4.87    3.91
   5  10 -16   -3.87    3.08
   5  10 -15   16.68    6.23
   5  10 -14   96.66   13.89
   5  10 -13   43.12    9.16
   5  10 -12   11.13    4.59
   5  10 -11   16.27    5.37
   5  10 -10   36.23    7.64
  -5 -10   9  128.82    9.74
   5  10  -9  122.04   13.76
  -5 -10   8    8.45    2.54
   5  10  -8   12.12    4.36
   5  10  -7    3.73    2.66
  -5 -10   7    4.29    2.20
  -5 -10   6   40.58    5.62
   5  10  -6   34.25    6.86
   5  10  -5   -1.93    2.18
  -5 -10   5   -3.02    1.66
   5  10  -4    0.57    1.33
  -5 -10   4    6.54    2.26
   5  10  -3   15.75    2.33
   5  10  -3   15.23    4.45
  -5 -10   3   13.31    3.23
  -5 -10   2   32.65    5.39
   5 -10  -2   33.27    6.56
   5  10  -2   40.12    4.16
   5  10  -2   28.84    5.78
   5  10  -1   74.89    6.11
  -5 -10   1   71.56    8.04
  -5  10   1   56.52    6.53
   5 -10  -1   71.29    9.21
   5  10  -1   62.01    8.53
   5 -10   0   68.89    9.22
   5  10   0   70.34    6.33
   5  10   0   59.64    8.33
  -5  10   0   57.84    6.67
  -5 -10   0   66.49    7.88
  -5  10  -1  123.97   10.12
   5  10   1  122.62    8.92
  -5 -10  -1  117.56   10.75
   5 -10   1  123.69   12.62
   5  10   2   11.33    3.07
  -5 -10  -2   10.56    3.40
  -5  10  -2   11.67    3.22
   5 -10   2    8.81    3.44
   5  10   3    7.76    2.50
  -5  10  -3    9.64    3.08
   5  10   4   -0.20    1.30
  -5  10  -4    2.45    1.94
   5  10   5    1.39    1.04
  -5  10  -5   -0.63    1.99
   5  10   6    2.15    1.80
  -5  10  -6   -0.41    1.67
   5  10   7    5.45    2.02
  -5  10  -7    9.61    2.20
  -5  10  -7    4.92    2.95
   5  10   8  125.57   12.05
  -5  10  -8  127.68   12.71
  -5  10  -9   46.87    7.98
   5  10   9   61.76    8.81
  -5  10 -10    2.13    1.96
   5  10  10    1.42    1.31
  -5  10 -11    2.41    2.78
   5  10  11    5.87    3.02
  -5  10 -12   -0.08    1.61
   5  10  12    4.86    3.37
   5  10  13    4.78    2.39
  -5  10 -13    0.01    1.86
   5  10  14   -1.47    2.49
  -5  10 -14   -1.64    3.23
   5  10  15    1.29    1.55
  -5  10 -15    2.24    2.13
   5  10  16    6.01    3.26
  -5  10 -16    6.25    3.96
  -5  10 -17    5.61    3.95
   5  11 -16   31.44    8.45
   5  11 -15   -1.14    2.25
   5  11 -14   -1.73    3.37
   5  11 -13    0.70    1.89
   5  11 -12   -3.41    3.21
   5  11 -11   84.31   12.33
   5  11 -10   11.65    4.24
   5  11  -9    0.53    1.44
  -5 -11   8   69.47    7.25
   5  11  -8   85.46   11.64
  -5 -11   7   56.46    6.55
   5  11  -7   57.09    9.46
   5  11  -6    0.99    1.45
  -5 -11   6    1.21    0.94
   5  11  -5   31.76    6.80
  -5 -11   5   29.57    4.87
  -5 -11   4   67.85    7.56
   5  11  -4   65.78    9.41
  -5 -11   3  184.25   12.67
   5  11  -3  191.81    8.13
   5  11  -3  193.54   16.03
   5  11  -2  362.12   12.61
  -5 -11   2  331.10   17.36
   5  11  -2  340.02   20.95
   5 -11  -2  329.78   20.53
  -5 -11   1   45.41    6.56
   5  11  -1   37.26    4.46
   5 -11  -1   55.80    8.39
  -5  11   1   37.24    5.62
   5  11  -1   38.77    7.04
  -5  11   0   60.73    7.31
   5  11   0   77.28    6.88
  -5 -11   0   65.49    7.91
   5  11   0   57.14    8.26
   5 -11   0   73.20    9.76
  -5 -11  -1   35.79    6.02
   5  11   1   39.51    5.15
  -5  11  -1   38.06    5.98
   5 -11   1   36.04    6.90
   5  11   2    7.52    2.25
   5 -11   2   11.06    3.97
  -5  11  -2    9.53    3.34
   5  11   3   41.09    5.71
  -5  11  -3   37.97    6.41
   5  11   4  117.35   10.27
  -5  11  -4  120.54   11.59
   5  11   5   73.41    8.44
  -5  11  -5   78.24    9.51
   5  11   6    8.66    3.22
  -5  11  -6   12.59    4.01
   5  11   7   10.67    3.52
  -5  11  -7    3.47    1.62
   5  11   8   21.67    5.16
  -5  11  -8   15.90    4.78
  -5  11  -9   75.39   10.46
   5  11   9   79.12   10.08
  -5  11 -10    9.56    4.04
   5  11  10   14.00    4.42
  -5  11 -11    1.30    1.89
   5  11  11    1.44    1.74
  -5  11 -12   21.38    6.43
   5  11  12   27.82    6.46
  -5  11 -13    7.95    3.95
   5  11  13    5.88    3.47
  -5  11 -14   -1.17    2.46
   5  11  14   -2.41    3.15
  -5  11 -15   -3.51    3.01
   5  11  15   -0.54    1.58
  -5  11 -16    0.47    1.56
   5  12 -16    3.51    3.98
   5  12 -15    0.55    1.71
   5  12 -14   -0.81    1.68
   5  12 -13   52.06   10.35
   5  12 -12   24.85    7.18
   5  12 -11  104.41   14.08
   5  12 -10   -2.57    2.78
   5  12  -9    1.07    2.53
   5  12  -8   10.86    4.53
  -5 -12   7   18.92    3.75
   5  12  -7   19.95    5.61
  -5 -12   6    6.38    2.27
   5  12  -6   10.13    4.16
  -5 -12   5    5.04    2.18
   5  12  -5    8.63    3.56
  -5 -12   4    0.15    0.88
   5  12  -4   -4.91    2.93
  -5 -12   3   99.43    9.43
   5  12  -3  110.32   12.67
   5 -12  -2    1.53    2.29
  -5 -12   2    1.90    1.61
   5  12  -2   -0.05    1.86
   5  12  -2    1.61    1.24
  -5 -12   1   28.82    5.54
   5 -12  -1   34.22    7.11
  -5  12   1   38.72    6.14
   5  12  -1   19.54    5.22
   5  12  -1   27.94    3.99
   5  12   0    7.06    2.16
   5  12   0    6.78    3.02
  -5  12   0    4.76    2.42
   5 -12   0    3.71    3.13
  -5  12  -1   68.69    8.39
   5  12   1   60.94    6.53
   5 -12   1   63.55    9.63
   5  12   2   16.46    3.77
   5 -12   2   22.09    5.47
  -5  12  -2   15.45    4.04
   5  12   3    1.99    1.76
  -5  12  -3    1.11    1.28
   5  12   4   39.96    6.03
  -5  12  -4   40.54    7.10
   5  12   5   31.71    5.70
  -5  12  -5   32.15    6.42
   5  12   6  328.15   18.84
  -5  12  -6  338.58   21.29
   5  12   7   39.26    6.80
  -5  12  -7   39.76    7.45
   5  12   8   12.45    4.17
  -5  12  -8   23.49    5.96
   5  12   9   14.33    4.34
  -5  12  -9   11.88    4.79
   5  12  10   50.30    8.64
  -5  12 -10   49.64    9.07
  -5  12 -11    9.03    3.66
   5  12  11   15.59    5.10
  -5  12 -12   37.04    8.22
   5  12  12   40.88    8.19
  -5  12 -13   10.28    4.33
   5  12  13   16.87    5.56
  -5  12 -14   27.92    7.65
   5  12  14   19.71    6.52
  -5  12 -15   51.90   10.51
   5  12  15   51.50   10.08
  -5  12 -16    9.49    5.53
   5  13 -15   -1.10    2.38
   5  13 -14   -2.45    1.83
   5  13 -13   -3.62    3.04
   5  13 -12    5.10    4.08
   5  13 -11   12.30    5.08
   5  13 -10   30.70    8.15
   5  13  -9  105.69   14.12
   5  13  -8   27.27    7.04
   5  13  -7   -1.86    1.67
  -5 -13   6    1.73    1.53
   5  13  -6    0.81    1.65
  -5 -13   5   70.28    7.63
   5  13  -5   71.69   10.93
  -5 -13   4   72.86    7.95
   5  13  -4   55.25    9.28
  -5 -13   3   15.06    3.78
   5  13  -3   21.56    5.76
   5 -13  -2    2.24    2.51
   5  13  -2    9.12    4.22
   5  13  -1   62.24    6.04
   5 -13  -1   73.23   10.31
   5  13  -1   60.08    9.48
  -5  13   1   66.28    8.44
   5  13   0    3.92    1.84
   5  13   0    0.35    2.59
  -5  13   0    0.97    1.49
   5 -13   0   -0.59    1.52
   5  13   1    8.48    2.78
   5 -13   1    7.55    3.67
  -5  13  -1    8.43    2.91
   5  13   2   24.84    4.51
   5 -13   2   22.64    6.07
  -5  13  -2   20.73    4.91
   5  13   3   10.57    3.53
   5 -13   3   15.95    5.16
  -5  13  -3   15.00    4.58
   5  13   4   53.64    7.30
  -5  13  -4   49.64    8.13
   5  13   5   15.11    4.19
  -5  13  -5   12.26    4.32
   5  13   6   54.32    7.77
  -5  13  -6   46.00    8.27
   5  13   7   -0.74    2.02
  -5  13  -7    2.74    1.74
   5  13   8   19.03    5.16
  -5  13  -8   16.94    5.17
   5  13   9  132.47   13.67
  -5  13  -9  131.81   14.71
   5  13  10    4.47    2.78
  -5  13 -10    6.12    3.47
   5  13  11    2.63    2.38
  -5  13 -11    0.29    1.30
   5  13  12    2.61    2.72
  -5  13 -12    1.55    1.89
   5  13  13   92.59   13.08
  -5  13 -13   64.59   11.63
  -5  13 -14    6.09    4.12
   5  13  14   16.40    5.63
  -5  13 -15   -0.48    1.57
   5  14 -14    9.62    5.12
   5  14 -13    4.76    3.61
   5  14 -12    4.00    3.29
   5  14 -11    2.16    2.36
   5  14 -10   21.22    6.67
   5  14  -9    0.43    3.52
   5  14  -8    1.61    2.13
   5  14  -7  112.25   14.60
   5  14  -6   39.37    8.45
   5  14  -5    4.56    2.33
   5  14  -4    0.78    1.56
   5  14  -3  321.31   23.19
   5  14  -2   78.27   11.30
   5 -14  -2   88.78   11.61
   5 -14  -1  125.79   13.88
  -5  14   1  144.82   13.03
   5  14  -1  103.98   12.90
   5  14   0   -2.50    1.43
   5  14   0   -0.31    1.94
  -5  14   0    1.44    2.27
   5 -14   0    1.36    2.15
   5  14   1    0.39    0.99
  -5  14  -1    0.74    1.65
   5 -14   1   -0.81    2.27
   5  14   2   41.48    5.99
  -5  14  -2   41.34    7.34
   5 -14   2   44.61    8.47
   5 -14   3   18.21    6.06
   5  14   3   25.28    5.01
  -5  14  -3   28.46    6.12
   5  14   4   -1.25    1.64
  -5  14  -4    3.16    2.62
   5  14   5   17.83    4.49
  -5  14  -5   28.41    6.64
   5  14   6   -1.56    1.58
  -5  14  -6    3.58    3.24
   5  14   7   -7.28    3.15
  -5  14  -7   -2.26    2.33
   5  14   8   37.75    7.30
  -5  14  -8   24.91    6.54
   5  14   9   10.80    4.10
  -5  14  -9   -0.43    2.30
   5  14  10    0.27    1.56
  -5  14 -10    0.01    1.71
   5  14  11   75.39   11.23
  -5  14 -11   74.55   12.09
   5  14  12   29.03    7.36
  -5  14 -12   14.59    5.67
   5  14  13    2.23    2.82
  -5  14 -13    6.50    3.56
  -5  14 -14    7.72    4.29
   5  15 -13   -2.52    2.74
   5  15 -12   37.02    9.32
   5  15 -11    9.13    4.72
   5  15 -10    4.02    2.93
   5  15  -9    5.87    3.76
   5  15  -8   33.10    8.65
   5  15  -7    2.43    1.54
   5  15  -6    4.09    2.60
   5  15  -5   41.25    8.64
   5  15  -4  101.75   13.81
   5  15  -3   12.99    5.14
   5 -15  -2   40.90    8.10
   5  15  -2   35.06    7.74
   5 -15  -1   60.85    9.88
   5  15  -1   80.67   11.77
  -5  15   0  119.16   12.53
   5  15   0  108.26   13.63
   5 -15   0  125.86   14.46
   5 -15   1   42.27    8.38
   5  15   1   54.54    6.70
  -5  15  -1   41.06    7.35
   5  15   2    0.09    0.78
  -5  15  -2    0.61    1.19
   5 -15   2   -0.17    1.91
   5  15   3    0.74    1.38
   5 -15   3    5.29    3.38
  -5  15  -3    1.58    1.54
   5  15   4   99.53   10.21
  -5  15  -4   95.83   12.19
   5 -15   4   85.20   12.58
   5  15   5   -0.93    0.90
  -5  15  -5   -0.53    1.38
   5  15   6   54.78    8.17
  -5  15  -6   53.63    9.51
   5  15   7    1.74    1.13
  -5  15  -7    0.01    1.22
   5  15   8   12.86    4.21
  -5  15  -8   21.83    6.42
   5  15   9    2.86    1.63
  -5  15  -9    6.04    3.69
   5  15  10   59.86    9.83
  -5  15 -10   47.51    9.63
   5  15  11   -0.95    2.27
  -5  15 -11    5.35    4.37
   5  15  12    9.34    4.06
  -5  15 -12    4.97    3.01
   5  15  13   21.57    6.65
  -5  15 -13    9.23    4.64
  -5  15 -14   13.97    5.97
   5  16 -12    7.14    4.61
   5  16 -11    6.53    3.93
   5  16 -10    8.69    4.47
   5  16  -9    3.56    3.51
   5  16  -8   21.52    6.62
   5  16  -7   -0.28    1.59
   5  16  -6    8.89    4.93
   5  16  -5   40.23    8.88
   5  16  -4    3.76    3.44
   5  16  -3    1.08    2.03
   5 -16  -2   86.86   12.10
   5  16  -2   84.91   12.74
   5 -16  -1    4.11    2.49
   5  16  -1    5.81    3.32
   5  16   0   13.09    5.06
  -5  16   0   10.72    4.01
   5 -16   0    8.96    3.64
  -5  16  -1    5.08    3.00
   5 -16   1    6.82    3.71
  -5  16  -2   87.68   11.52
   5 -16   2   69.20   11.25
   5 -16   3    6.00    3.43
   5  16   3    9.56    3.19
  -5  16  -3    7.53    3.68
   5  16   4    9.77    3.31
   5 -16   4    8.89    4.04
  -5  16  -4    8.27    3.98
  -5  16  -5    7.61    3.68
   5  16   5    0.88    1.30
   5  16   6   16.36    4.53
  -5  16  -6   23.10    6.59
   5  16   7   32.91    6.88
  -5  16  -7   19.84    6.09
   5  16   8    3.57    2.02
  -5  16  -8    4.36    2.81
   5  16   9    3.36    2.46
  -5  16  -9    3.76    3.30
   5  16  10   23.00    6.24
  -5  16 -10   11.98    4.96
   5  16  11   10.89    4.36
  -5  16 -11    4.28    3.81
   5  16  12    2.04    2.51
  -5  16 -12   -2.38    2.65
  -5  16 -13   -1.48    2.44
   5  17 -10    7.27    3.51
   5  17  -9    6.58    3.31
   5  17  -8    8.28    4.49
   5  17  -7   -3.48    3.14
   5  17  -6   11.22    5.02
   5  17  -5   25.13    7.47
   5  17  -4   -0.01    3.73
   5  17  -3   12.12    5.11
   5 -17  -2    6.21    4.20
   5  17  -2   13.90    5.47
   5 -17  -1   30.64    7.32
   5  17  -1   49.36   10.09
   5 -17   0   11.97    4.97
   5  17   0   20.06    6.23
  -5  17   0   18.38    5.54
  -5  17  -1  142.00   14.94
   5 -17   1  129.75   15.55
   5 -17   2   -1.31    2.38
  -5  17  -2   -0.11    1.11
  -5  17  -3    2.49    2.31
   5 -17   3    1.07    2.52
   5  17   4    1.25    1.12
  -5  17  -4    1.20    2.53
   5  17   5   18.40    4.80
   5 -17   5   11.29    4.73
  -5  17  -5   12.28    4.93
   5  17   6    2.45    2.01
  -5  17  -6   -0.12    1.81
   5  17   7   24.29    5.81
  -5  17  -7   23.54    6.89
   5  17   8   17.29    5.17
  -5  17  -8   27.69    7.74
   5  17   9   57.62    9.81
  -5  17  -9   40.99    9.37
   5  17  10   15.72    5.32
  -5  17 -10   19.98    6.92
   5  17  11    3.81    2.65
  -5  17 -11    0.29    1.61
  -5  17 -12    4.92    2.97
   5  18  -8   11.63    5.15
   5  18  -7   43.41   10.40
   5  18  -6   27.26    8.45
   5  18  -5    2.26    2.27
   5  18  -4    2.22    1.72
   5  18  -3   26.60    7.67
   5  18  -2    0.02    2.35
   5 -18  -1   82.72   12.40
   5  18  -1   76.72   12.76
   5 -18   0    3.83    3.22
  -5  18   0    5.15    2.90
  -5  18  -1    2.19    1.94
   5 -18   1   -4.13    3.04
  -5  18  -2    1.01    1.70
   5 -18   2   -0.28    1.27
   5 -18   3    8.17    4.10
  -5  18  -3   15.84    5.14
   5 -18   4    0.85    1.99
  -5  18  -4   -0.26    1.23
   5 -18   5    2.67    3.09
  -5  18  -5    7.41    3.81
   5  18   6    1.03    1.96
   5 -18   6   -2.09    2.65
  -5  18  -6   -0.03    1.32
   5  18   7   14.41    4.58
  -5  18  -7   16.95    6.22
   5  18   8   23.58    6.11
  -5  18  -8   36.70    9.02
   5  18   9   -1.58    2.05
  -5  18  -9    9.25    4.91
   5  18  10   16.48    5.46
  -5  18 -10   15.75    6.45
  -5  18 -11   49.72   11.24
   5  19  -6   -1.13    2.37
   5  19  -5   66.73   12.75
   5  19  -4   40.62    9.71
   5  19  -3    0.65    1.43
   5  19  -2    3.04    2.12
   5  19  -1    1.20    2.14
   5 -19  -1    2.10    2.96
   5 -19   0   -1.36    1.85
   5 -19   1   14.15    5.72
  -5  19  -1   19.36    6.01
  -5  19  -2    6.01    3.12
   5 -19   2   12.92    5.42
   5 -19   3   -0.64    1.83
  -5  19  -3    6.02    3.32
  -5  19  -4    2.69    2.89
   5 -19   4    3.19    3.34
   5 -19   5   33.12    8.96
  -5  19  -5   45.73    9.93
  -5  19  -6    1.64    2.36
   5 -19   6   12.58    5.54
   5  19   7   -0.74    1.61
  -5  19  -7    3.41    3.14
   5  19   8   21.30    5.94
  -5  19  -8   23.63    7.40
   5  19   9   38.89    8.37
  -5  19  -9   35.41    9.23
   5 -20  -1    6.02    3.57
   5 -20   0    0.65    1.47
   5 -20   1    0.40    1.35
  -5  20  -1    3.44    2.39
  -5  20  -2    2.59    2.39
   5 -20   2   -1.16    1.87
  -5  20  -3    1.46    1.36
   5 -20   3    3.25    3.27
   5 -20   4    0.42    1.80
  -5  20  -4   19.23    6.42
  -5  20  -5   -6.52    3.95
   5 -20   5    3.05    2.92
  -5  20  -6    7.56    3.69
  -5  20  -7    2.47    2.66
   5 -21   0    1.17    2.14
   5 -21   1    6.90    4.32
   5 -21   2   15.45    5.96
   6   0 -20    4.29    3.14
   6   0 -19    0.52    1.43
   6   0 -18    2.14    2.27
   6   0 -18    6.28    3.09
   6   0 -17   -0.86    1.64
   6   0 -17   -0.52    1.39
   6   0 -16   48.92    8.06
   6   0 -16   59.67    8.61
   6   0 -15   -1.02    1.54
   6   0 -15   -0.01    1.61
   6   0 -14    1.85    1.94
   6   0 -14   -5.43    2.62
   6   0 -13   -1.54    2.38
   6   0 -13    1.03    1.71
   6   0 -12    1.97    1.57
   6   0 -12    4.79    2.78
   6   0 -11   -1.36    1.91
   6   0 -11   -0.34    1.29
   6   0 -10   36.70    5.82
   6   0 -10   23.30    4.16
   6   0  -9   -0.19    0.98
   6   0  -9    0.91    1.18
   6   0  -8    1.72    1.01
   6   0  -8    3.08    1.70
   6   0  -7    0.34    0.63
   6   0  -7   -0.88    1.85
   6   0  -6  163.12   10.93
   6   0  -6  166.67    8.71
   6   0  -5   -0.75    1.02
   6   0  -5    0.32    0.89
   6   0  -4  453.18   17.12
   6   0  -4  432.41   11.62
   6   0  -3    1.31    0.98
   6   0  -3   -0.41    0.46
   6   0  -2  376.71   14.66
  -6   0   1   -0.83    0.35
   6   0  -1   -0.24    1.01
   6   0   0  173.10    9.36
  -6   0   0  175.92    6.19
   6   0   1   -0.99    1.15
   6   0   1   -0.23    0.90
  -6   0  -1   -0.20    0.51
   6   0   2  312.82   11.92
   6   0   2  285.85   14.04
   6   0   3    0.21    0.93
   6   0   3    0.84    0.84
   6   0   4  571.44   15.39
   6   0   4  607.81   23.26
   6   0   5    1.80    1.98
  -6   0  -5   -0.94    1.17
   6   0   6    3.80    2.23
  -6   0  -6    7.47    2.82
  -6   0  -7    0.27    1.03
   6   0   7    0.06    1.46
  -6   0  -8  233.04   15.17
   6   0   8  217.92   15.54
  -6   0  -9   -0.09    1.51
   6   0   9   -1.16    1.12
   6   0  10   19.19    5.04
   6   0  11    0.80    2.85
   6   0  12  244.48   18.45
   6   0  13   -1.73    2.29
   6   0  14   55.51    9.44
   6   0  15    0.96    1.81
   6   0  16   27.63    7.08
   6   0  17   -5.74    3.46
   6   0  18   17.65    6.08
   6   1 -20   15.01    5.42
   6  -1 -20   15.90    5.42
   6  -1 -19   -0.48    1.30
   6   1 -19   -2.53    2.32
   6   1 -18   -1.23    2.30
   6  -1 -18    3.46    2.98
   6  -1 -18    0.32    1.25
   6   1 -18   -1.87    2.50
   6   1 -17    5.03    2.68
   6   1 -17    2.47    2.56
   6  -1 -17    5.08    2.66
   6  -1 -17    9.16    3.77
   6   1 -16   -0.98    1.83
   6  -1 -16    0.21    1.03
   6   1 -16   -1.38    2.27
   6  -1 -16    3.92    2.56
   6   1 -15    1.45    1.83
   6  -1 -15    3.34    2.48
   6  -1 -15   -0.09    1.55
   6   1 -15    2.01    2.21
   6   1 -14   17.23    4.44
   6   1 -14   16.73    4.54
   6  -1 -14   16.52    4.31
   6  -1 -14   24.27    5.19
   6  -1 -13   30.30    5.40
   6   1 -13   23.86    5.16
   6   1 -13   16.56    4.14
   6  -1 -13   19.39    4.66
   6   1 -12    0.66    1.53
   6  -1 -12   -0.32    1.33
   6   1 -12   -1.10    1.98
   6  -1 -12    0.42    1.50
   6   1 -11    0.18    0.92
   6  -1 -11    1.70    1.66
   6   1 -11    1.40    1.61
   6  -1 -11   -0.86    1.75
   6   1 -10   -0.38    0.91
   6   1 -10    0.50    1.50
   6  -1 -10    0.65    1.09
   6  -1 -10    0.99    1.12
   6  -1  -9   46.44    6.17
   6   1  -9   36.49    5.66
   6   1  -9   50.19    6.12
   6  -1  -9   43.10    5.14
   6   1  -8  226.52   13.68
   6  -1  -8  230.98   13.37
   6   1  -8  208.00   11.85
   6  -1  -8  226.40   10.97
   6   1  -7   64.90    7.08
   6   1  -7   60.58    6.15
   6  -1  -7   58.42    6.60
   6  -1  -7   68.56    5.64
   6   1  -6  123.26    9.62
   6  -1  -6  116.66    9.16
   6   1  -6  118.06    8.02
   6  -1  -6  111.79    6.60
   6   1  -5   49.76    6.07
   6   1  -5   45.66    4.59
   6  -1  -5   40.69    5.32
   6  -1  -5   44.76    3.75
   6   1  -4  713.36   21.70
   6  -1  -4  692.70   20.80
   6  -1  -4  672.96   12.34
   6   1  -4  683.31   16.81
  -6  -1   3   97.35    4.78
   6   1  -3   99.02    8.01
   6  -1  -3   81.78    7.01
   6   1  -3   89.58    5.40
   6  -1  -2  141.41    8.94
   6   1  -2  137.00    9.10
   6   1  -2  140.66    6.23
  -6  -1   2  145.56    5.94
   6   1  -1  366.36   14.40
   6  -1  -1  370.96   13.85
  -6  -1   1  345.34    9.77
   6  -1   0  111.69    7.36
  -6  -1   0  103.36    5.84
   6  -1   0  116.67    9.15
   6   1   0  119.12    8.02
  -6   1  -1   25.18    2.31
   6  -1   1   24.75    3.45
   6   1   1   30.38    3.92
  -6  -1  -1   22.64    2.93
   6  -1   1   28.70    4.50
   6   1   1   27.01    4.02
   6   1   2  127.01    7.84
   6  -1   2  127.98    7.56
  -6  -1  -2  135.84    7.64
   6   1   2  118.72    8.50
   6  -1   2  122.75    9.61
   6   1   3   41.66    4.48
   6  -1   3   36.36    3.87
   6  -1   3   37.05    5.36
   6   1   3   48.25    6.34
   6   1   3   38.89    5.04
  -6  -1  -4  110.44   10.01
   6  -1   4  105.42    6.37
   6   1   4  111.57    9.82
  -6   1  -5  180.88   12.54
   6  -1   5  165.13   12.62
  -6  -1  -5  190.11   13.24
   6  -1   5  179.73    7.99
   6   1   5  210.07   13.84
   6  -1   6   22.09    4.76
   6  -1   6   29.63    3.09
   6   1   6   20.43    4.55
  -6   1  -6   22.18    4.45
  -6  -1  -6   25.17    5.03
  -6  -1  -7   16.72    4.09
   6  -1   7   21.07    4.59
   6   1   7   22.83    4.98
  -6   1  -7   23.45    4.62
  -6   1  -8   17.36    4.23
  -6  -1  -8   21.81    4.75
   6  -1   8   16.04    4.46
   6   1   8   14.74    3.88
  -6   1  -9    8.97    3.02
  -6  -1  -9    6.64    2.75
   6  -1   9    7.28    3.57
   6   1  10  106.75   11.59
   6  -1  10  124.81   12.52
  -6   1 -10  119.12   11.03
   6  -1  11   69.41    9.79
   6   1  11   53.65    8.38
   6  -1  12    0.72    2.22
   6   1  12   -0.80    1.34
   6  -1  13   -1.70    2.59
   6   1  13    1.29    1.81
   6  -1  14   72.95   10.82
   6   1  14   70.44   10.72
   6  -1  15    0.63    1.19
   6   1  15   -0.76    2.25
   6  -1  16    6.59    4.04
   6   1  16    4.59    2.14
   6  -1  17    6.61    3.53
   6   1  17    8.93    4.76
   6  -1  18   32.86    8.17
   6   1  18   22.83    6.80
   6   2 -20    3.54    2.89
   6   2 -19    1.98    2.07
   6  -2 -19   -2.01    2.10
   6   2 -18    3.17    2.67
   6  -2 -18    0.50    1.35
   6  -2 -18   -1.52    1.63
   6   2 -17    3.79    2.77
   6   2 -17    0.64    1.60
   6  -2 -17    8.33    3.25
   6  -2 -17    6.27    3.18
   6   2 -16    1.52    1.41
   6   2 -16    7.17    3.29
   6  -2 -16    3.35    2.48
   6  -2 -16    7.96    3.14
   6   2 -15   32.14    6.69
   6   2 -15   39.25    7.07
   6  -2 -15   23.75    5.29
   6  -2 -15   29.80    5.89
   6   2 -14   -0.45    1.42
   6   2 -14   -0.19    1.05
   6  -2 -14    1.50    1.44
   6  -2 -14    1.46    1.58
   6  -2 -13   12.13    3.25
   6   2 -13    9.77    3.33
   6   2 -13   10.91    3.78
   6  -2 -13    8.13    2.76
   6   2 -12   12.75    3.73
   6   2 -12   14.85    3.94
   6  -2 -12   13.66    3.31
   6  -2 -12   10.38    3.09
   6  -2 -11  205.35   12.32
   6   2 -11  206.84   14.35
   6  -2 -11  227.48   14.47
   6   2 -11  201.44   14.05
   6  -2 -10   56.71    6.09
   6   2 -10   43.38    6.56
   6  -2 -10   53.05    6.83
   6   2 -10   54.93    7.08
   6   2  -9    2.28    1.51
   6  -2  -9    1.39    1.21
   6   2  -9    0.66    1.17
   6  -2  -9    0.10    1.31
   6   2  -8   32.36    4.93
   6   2  -8   25.56    4.65
   6  -2  -8   22.81    4.24
   6  -2  -8   29.53    3.85
   6   2  -7    6.25    1.93
   6  -2  -7    6.13    2.07
   6   2  -7   10.96    2.90
   6  -2  -7   10.30    2.01
   6   2  -6    3.11    1.62
   6  -2  -6    6.26    1.46
   6  -2  -6    5.99    2.08
   6   2  -6    8.86    2.37
   6  -2  -5    0.79    0.34
   6   2  -5    0.44    1.09
   6  -2  -5    0.83    1.08
   6   2  -5    2.07    0.94
   6  -2  -4  272.34   13.52
  -6  -2   4  293.79   10.17
   6   2  -4  288.57   14.22
   6   2  -4  282.85   11.96
   6  -2  -4  274.20    6.59
  -6  -2   3  282.22    9.82
   6   2  -3  279.75   13.75
   6  -2  -3  286.41   13.02
   6   2  -3  277.64   11.10
  -6  -2   2    0.59    0.63
   6   2  -2   -0.15    0.98
   6  -2  -2    0.79    0.99
   6   2  -2    0.66    0.76
   6   2  -1   29.98    4.29
   6  -2  -1   31.36    4.12
  -6  -2   1   31.38    3.55
   6   2   0   65.04    6.19
   6  -2   0   71.00    5.87
  -6  -2   0   67.64    5.47
   6  -2   0   70.91    7.52
   6   2   1   72.20    6.38
   6  -2   1   64.58    5.52
  -6  -2  -1   69.57    5.76
   6  -2   1   76.96    7.91
  -6   2  -1   73.30    3.11
  -6   2  -2   83.17    4.23
   6  -2   2   71.30    5.56
   6   2   2   86.73    8.23
  -6  -2  -2   75.89    6.25
   6   2   2   80.15    6.54
   6  -2   2   75.49    7.91
   6  -2   3  186.26    8.67
   6   2   3  187.03   12.31
   6   2   3  180.83   10.03
   6  -2   3  208.73   13.37
   6  -2   4   15.27    2.39
   6   2   4   14.25    3.41
   6   2   4   10.19    2.35
   6  -2   5   18.45    2.55
   6   2   5   21.15    4.61
  -6  -2  -5   22.52    4.77
  -6  -2  -6   15.95    4.06
  -6  -2  -6   11.58    1.98
   6  -2   6   10.43    1.84
   6  -2   6   14.49    3.99
   6   2   6   14.44    3.97
  -6   2  -6   11.45    3.11
  -6  -2  -7   24.20    5.03
   6  -2   7   27.79    2.75
  -6  -2  -7   28.98    2.94
   6  -2   7   36.87    6.45
   6   2   7   32.80    5.94
  -6   2  -7   29.22    5.15
   6  -2   8  264.62   17.27
   6   2   8  264.02   17.05
  -6  -2  -8  261.79   16.67
  -6   2  -8  240.44   14.83
  -6  -2  -9   49.24    7.39
  -6   2  -9   57.83    7.38
   6  -2   9   45.49    7.40
   6   2   9   43.40    6.97
   6  -2  10   19.98    4.80
  -6   2 -10   25.21    5.19
   6   2  10   25.49    5.55
   6  -2  11    0.06    2.15
   6   2  11   -1.95    2.57
   6  -2  12   31.80    6.59
   6   2  12   26.76    5.98
   6  -2  13    6.42    3.32
   6   2  13    8.31    4.31
   6  -2  14   24.55    6.26
   6   2  14   23.95    6.47
   6  -2  15   44.94    8.62
   6   2  15   60.72   10.34
   6  -2  16   42.45    8.69
   6   2  16   54.69   10.13
  -6   2 -17    3.83    2.76
   6  -2  17    2.78    3.77
   6   2  17   -0.40    1.77
   6  -2  18    1.16    2.08
   6   2  18    2.30    1.98
   6  -2  19    4.34    3.25
   6   3 -20    9.36    4.42
   6   3 -19   11.40    4.89
   6  -3 -19   -0.84    1.62
   6   3 -18    1.07    1.86
   6  -3 -18    0.09    1.17
   6  -3 -18    1.06    1.59
   6   3 -17    8.32    3.80
   6  -3 -17    7.10    3.19
   6  -3 -17    7.18    3.09
   6   3 -16   27.37    6.47
   6  -3 -16   34.88    6.47
   6  -3 -16   30.35    6.25
   6   3 -15   39.63    7.51
   6  -3 -15   46.46    7.14
   6  -3 -15   48.65    7.54
   6   3 -14   -1.52    2.28
   6   3 -14    1.36    1.98
   6  -3 -14    0.16    1.39
   6  -3 -14   -0.51    0.99
   6   3 -13   47.86    7.65
   6   3 -13   61.11    8.53
   6  -3 -13   49.93    7.10
   6   3 -12   28.86    5.72
   6   3 -12   31.38    6.02
   6  -3 -12   25.50    5.23
   6   3 -11   78.71    9.08
   6  -3 -11   73.53    8.28
   6   3 -11   86.58    9.72
   6   3 -10    2.08    1.44
   6   3 -10   -1.61    2.28
   6  -3 -10    0.32    1.42
   6  -3  -9  119.78   10.07
   6   3  -9  116.49   10.54
   6   3  -9  101.33    9.59
   6   3  -8    4.87    1.99
   6   3  -8    3.27    2.07
   6  -3  -8    4.43    2.10
   6   3  -7    6.77    2.63
   6  -3  -7    8.39    1.90
   6  -3  -7    3.34    1.77
   6   3  -7    9.58    2.83
   6   3  -6    3.06    2.42
   6  -3  -6    5.31    1.42
   6  -3  -6    2.88    1.75
   6   3  -6    9.76    2.85
   6  -3  -5    4.07    1.02
   6   3  -5    3.23    1.89
   6  -3  -5    3.74    1.81
   6   3  -5    3.22    1.33
   6   3  -4  357.35   16.39
   6  -3  -4  348.12   14.96
   6   3  -4  333.94   14.17
   6  -3  -4  322.03    6.68
   6  -3  -4  325.31    6.45
  -6  -3   4  325.49   12.17
   6   3  -3  661.51   22.00
   6  -3  -3  626.31   19.35
   6   3  -3  613.41   18.29
  -6  -3   3  594.28   16.56
   6   3  -2  582.22   20.07
   6   3  -2  505.27   15.80
   6  -3  -2  529.59   17.33
  -6  -3   2  541.80   16.17
   6   3  -1   12.42    2.84
   6  -3  -1   16.31    3.02
   6  -3  -1   12.96    3.23
  -6  -3   1   17.94    3.04
   6  -3   0  261.07   11.42
  -6  -3   0  257.35   11.88
   6  -3   0  271.47   15.16
  -6  -3   0  252.71   11.67
   6  -3   1   60.81    5.31
   6   3   1   58.60    6.42
  -6  -3  -1   70.06    6.39
  -6   3  -1   57.39    3.04
   6  -3   1   64.37    7.48
  -6   3  -2    0.31    0.38
   6  -3   2    0.44    0.60
   6   3   2    1.29    1.00
   6  -3   2    0.04    1.02
  -6   3  -3    0.80    0.78
   6   3   3    2.07    1.27
   6  -3   3    1.08    0.53
   6   3   3    2.61    2.22
  -6   3  -4   -0.23    0.38
   6   3   4    0.21    0.64
   6  -3   4    0.26    0.55
  -6   3  -5  689.86   18.02
   6  -3   5  699.99   15.50
  -6  -3  -5  684.26   25.87
   6   3   5  728.03   25.57
   6  -3   6   71.28    4.72
  -6   3  -6   77.20    6.58
   6   3   6   81.64    8.98
  -6  -3  -6   88.18    9.62
  -6  -3  -7   13.50    3.76
   6  -3   7   12.36    1.85
   6   3   7   10.74    3.38
  -6   3  -7   11.07    3.08
   6  -3   8   61.30    3.62
   6  -3   8   59.95    8.14
  -6   3  -8   62.89    7.48
  -6  -3  -8   64.25    8.37
   6   3   8   55.31    7.88
  -6   3  -9   52.63    6.94
   6  -3   9   62.71    8.82
   6   3   9   57.27    8.32
  -6   3 -10   76.64    8.42
   6  -3  10   71.86    9.52
   6   3  10   68.16    9.33
   6  -3  11   19.48    5.08
   6   3  11   18.06    5.12
   6  -3  12   10.81    3.40
   6   3  12   11.99    4.14
  -6   3 -13   24.23    5.52
   6  -3  13   21.67    5.61
   6   3  13   18.67    5.68
  -6   3 -14    3.49    2.50
   6  -3  14   -0.59    1.88
   6   3  14    0.07    1.59
  -6   3 -15    8.77    3.87
   6  -3  15    7.63    4.09
   6   3  15    5.94    3.27
  -6   3 -16    5.92    3.13
   6  -3  16    5.64    3.48
   6   3  16    4.64    3.12
  -6   3 -17   20.62    5.95
   6  -3  17   19.87    6.19
   6   3  17   27.86    7.52
  -6   3 -18    6.33    3.64
   6  -3  18    1.08    1.45
   6  -3  19   26.14    7.78
   6   4 -20   -5.33    3.65
   6   4 -19   10.15    4.84
   6  -4 -19    2.85    1.98
   6   4 -18   28.12    7.21
   6  -4 -18   29.15    6.39
   6  -4 -18   30.09    6.35
   6   4 -17    2.47    2.07
   6  -4 -17    3.42    2.27
   6  -4 -17    1.74    1.20
   6   4 -16   28.89    6.89
   6  -4 -16   27.47    5.92
   6  -4 -15   90.77   10.29
   6   4 -15   79.33   10.90
   6   4 -14   42.07    7.68
   6  -4 -14   41.77    6.81
   6   4 -13    2.73    1.87
   6  -4 -13    0.83    1.82
   6   4 -12   61.37    8.68
   6  -4 -12   65.30    8.04
   6   4 -11   -0.31    0.91
   6  -4 -11    0.97    1.29
   6   4 -10   -1.27    1.73
   6   4 -10   -1.01    2.06
   6  -4 -10    1.39    1.26
   6   4  -9   19.99    4.44
   6   4  -9   16.31    3.99
   6  -4  -9   17.77    3.85
   6   4  -8    4.07    2.22
   6  -4  -8    6.74    2.72
   6   4  -8    1.10    1.05
   6   4  -7  335.86   17.17
   6  -4  -7  331.05   15.88
   6   4  -7  323.61   16.80
  -6  -4   7  304.91   11.95
   6   4  -6   75.30    8.13
  -6  -4   6   62.39    5.33
   6   4  -6   73.38    7.70
   6  -4  -5    9.77    1.71
  -6  -4   5    8.13    1.98
   6   4  -5   10.09    2.74
   6  -4  -4  317.58    7.64
   6   4  -4  311.74   14.74
   6   4  -3   67.52    6.55
   6   4  -2   13.57    2.90
   6  -4  -1   31.31    5.40
   6   4  -1   30.40    4.17
  -6  -4   1   32.16    4.23
   6   4   0    8.18    2.45
   6  -4   0    8.62    3.16
  -6  -4   0    8.05    1.99
   6   4   1  209.21   11.95
  -6   4  -1  191.85    6.47
   6  -4   1  204.10   14.00
   6   4   2  160.60   10.83
  -6   4  -2  160.11    7.09
   6  -4   2  163.67   12.58
   6   4   3  427.16   18.34
   6   4   3  451.30   13.08
  -6   4  -3  432.01   12.82
  -6   4  -4   -0.92    0.84
   6   4   4    1.12    0.79
   6   4   4    0.97    1.91
  -6  -4  -5    3.04    1.50
  -6   4  -5    2.89    1.32
   6   4   5    0.92    1.21
   6   4   5    0.69    0.60
   6  -4   5    2.87    1.04
   6  -4   6   50.11    4.04
  -6  -4  -6   54.70    7.75
   6   4   6   48.34    6.72
  -6   4  -6   46.77    5.26
  -6   4  -7  153.47   10.08
   6  -4   7  150.74    6.58
   6   4   7  160.92   12.90
  -6  -4  -7  158.12   13.21
  -6   4  -8  285.24   14.69
   6  -4   8  274.84    7.98
   6   4   8  290.69   17.93
  -6   4  -8  289.14   15.68
  -6  -4  -8  273.17   17.63
  -6   4  -9   22.85    4.46
  -6   4  -9   24.31    4.63
   6   4   9   19.57    4.76
  -6   4 -10  109.37   10.13
   6  -4  10  100.25   11.46
   6   4  10   84.55   10.48
  -6   4 -10  109.64    9.90
  -6   4 -11   18.78    4.48
   6  -4  11   27.67    6.01
   6   4  11   23.41    5.46
  -6   4 -12    6.03    2.96
   6  -4  12    7.51    3.65
   6   4  12   10.31    3.91
  -6   4 -13   -0.41    1.56
   6  -4  13    3.77    2.89
   6   4  13   -0.79    1.56
  -6   4 -14   -2.94    2.24
   6  -4  14   -0.03    1.09
   6   4  14    0.31    1.88
   6  -4  15    6.92    3.56
  -6   4 -15    0.77    1.31
   6   4  15    8.93    4.70
  -6   4 -16    1.80    2.01
   6  -4  16    2.10    2.78
   6   4  16    4.87    2.35
   6  -4  17   27.91    7.41
   6   4  17   35.37    8.36
  -6   4 -17   34.15    7.96
  -6   4 -18    8.04    4.17
   6  -4  18    5.02    3.18
   6  -4  19    3.29    3.02
   6   5 -19    1.72    2.38
   6  -5 -19   -1.04    1.68
   6   5 -18    7.47    3.86
   6  -5 -18    2.23    1.69
   6   5 -17    1.33    2.22
   6  -5 -17    0.52    1.61
   6   5 -16    4.36    2.90
   6  -5 -16   -0.64    2.22
   6  -5 -15   -0.29    1.16
   6   5 -15   -0.14    1.37
   6   5 -14    4.49    3.17
   6  -5 -14    3.37    2.53
   6   5 -13   14.03    4.52
   6  -5 -13   16.75    4.43
   6   5 -12    3.27    2.18
   6  -5 -12    8.23    3.07
   6   5 -11   18.68    4.86
   6  -5 -11   21.02    4.48
   6   5 -10   10.25    3.64
   6  -5 -10    5.21    2.48
   6   5  -9   13.83    4.06
   6   5  -8   -0.42    1.03
  -6  -5   7    0.31    0.54
   6   5  -7    0.77    1.38
  -6  -5   6    4.13    1.26
   6   5  -6    4.44    2.33
  -6  -5   5   44.95    4.25
   6  -5  -5   48.18    4.09
   6   5  -5   48.44    6.36
  -6  -5   4  130.31    7.36
   6  -5  -4  141.96    6.09
   6   5  -4  138.37   10.38
   6   5  -3   80.42    7.71
   6  -5  -3   84.39    3.52
   6   5  -2   12.17    2.90
  -6  -5   1   71.34    8.03
   6   5  -1   72.68    6.99
   6  -5  -1   76.68    8.70
  -6  -5   1   75.09    6.14
  -6   5   0  181.83    5.57
  -6  -5   0  196.90   13.44
   6   5   0  194.26   11.11
   6  -5   0  203.80   14.31
  -6  -5   0  178.82    8.73
   6   5   1  140.37    9.83
  -6   5  -1  126.60    6.11
   6  -5   1  156.05   12.66
   6  -5   2    0.00    1.27
   6   5   2    0.87    0.86
  -6   5  -2    0.43    0.73
  -6   5  -3   26.48    3.51
   6   5   3   24.58    4.34
   6   5   4   75.85    8.06
   6   5   4   81.03    4.99
  -6   5  -4   81.87    6.56
  -6  -5  -5  105.13   10.59
   6   5   5   93.47    9.24
   6   5   5   94.62    5.93
  -6   5  -5   92.45    7.33
  -6   5  -6    9.16    2.55
  -6  -5  -6    9.53    3.38
   6   5   6    8.27    2.74
  -6   5  -7   33.42    5.01
   6  -5   7   30.19    3.12
  -6  -5  -7   26.29    5.45
   6   5   7   28.34    5.71
  -6   5  -8   44.00    6.04
   6  -5   8   41.14    3.33
   6   5   8   44.79    7.16
   6   5   9  583.17   26.31
  -6   5  -9  593.93   23.00
  -6   5 -10   42.15    6.51
  -6   5 -10   47.73    6.34
   6   5  10   54.25    8.39
  -6   5 -11    6.41    2.66
   6   5  11    5.87    2.80
  -6   5 -12    3.10    2.36
   6   5  12    2.98    2.55
  -6   5 -13   31.44    6.53
   6  -5  13   29.87    6.77
   6   5  13   30.62    7.05
   6  -5  14   36.81    7.72
  -6   5 -14   32.80    6.87
   6   5  14   41.83    8.39
  -6   5 -15    1.51    1.54
   6   5  15   -0.51    1.67
  -6   5 -16    9.51    3.76
   6  -5  16    9.10    4.08
   6   5  16   11.29    5.17
  -6   5 -17   -4.50    3.07
   6  -5  17   -0.71    1.61
  -6   5 -18   16.83    5.87
   6  -5  18   10.54    5.00
   6  -5  19    4.07    3.15
   6   6 -19    8.37    4.63
   6  -6 -19    3.59    2.38
   6   6 -18    6.64    4.13
   6  -6 -18    7.69    3.35
   6   6 -17    5.40    3.22
   6  -6 -17    4.47    2.33
   6   6 -16   13.72    4.96
   6  -6 -16   10.85    3.77
   6   6 -15   -0.01    1.87
   6  -6 -15    0.21    1.39
   6   6 -14    0.78    2.33
   6  -6 -14    1.94    2.38
   6   6 -13   31.98    7.00
   6  -6 -13   22.10    4.97
   6   6 -12   13.37    4.37
   6  -6 -12   16.31    4.22
   6   6 -11    0.68    1.15
   6   6 -10    2.43    2.01
   6   6  -9    8.28    3.42
   6   6  -8   46.19    7.23
   6   6  -7  287.65   17.38
   6  -6  -6   74.70    6.08
  -6  -6   6   67.28    4.45
   6   6  -6   89.89    9.71
   6  -6  -5  101.65    6.50
  -6  -6   5   96.80    5.64
   6   6  -5  102.30    9.85
  -6  -6   4    2.55    0.92
   6   6  -4    3.50    1.79
   6  -6  -4    1.84    0.84
   6   6  -3  155.86   11.55
  -6  -6   3  154.42    7.97
   6  -6  -3  165.28    6.67
  -6  -6   2  254.03   15.21
   6   6  -2  284.69   15.10
   6  -6  -2  275.09    7.56
   6   6  -1  138.37    8.99
  -6  -6   1  142.85   11.53
   6   6  -1  140.16   10.39
   6  -6  -1  142.10   12.37
  -6  -6   1  147.66    8.14
   6  -6  -1  142.27    5.05
  -6   6   0   10.91    1.83
  -6  -6   0    8.93    1.89
   6   6   0   11.97    3.06
   6  -6   0   18.39    4.84
  -6  -6   0   11.95    3.58
   6  -6   1   12.25    3.61
  -6   6  -1    9.50    1.90
   6   6   1   10.22    2.75
  -6  -6  -1   13.03    3.75
   6  -6   2   28.18    5.71
  -6   6  -2   31.47    3.89
   6   6   2   29.84    4.70
  -6  -6  -2   30.61    5.49
  -6  -6  -3   35.09    6.33
   6   6   3   27.70    4.90
  -6   6  -3   26.86    3.92
  -6  -6  -4   92.58    9.94
   6   6   4   97.94    9.12
  -6   6  -4   82.16    7.02
  -6   6  -5    7.91    2.36
  -6  -6  -5    6.78    2.28
   6   6   5    6.25    1.24
   6   6   5    2.59    1.62
  -6   6  -6   18.30    3.84
  -6  -6  -6   20.96    5.09
   6   6   6   16.69    2.28
   6   6   6   20.24    4.60
  -6   6  -7   15.54    3.65
  -6  -6  -7   10.01    3.42
   6   6   7   13.47    3.88
   6   6   8   74.19    9.16
  -6   6  -8   73.84    8.08
  -6   6  -9    8.20    2.73
   6   6   9   10.13    3.59
  -6   6 -10   62.91    8.23
   6   6  10   64.60    9.22
  -6   6 -11   39.68    6.83
   6   6  11   41.32    7.73
  -6   6 -12   30.98    6.28
   6   6  12   39.33    7.84
  -6   6 -13    7.26    3.23
   6   6  13   14.76    4.60
  -6   6 -14   16.09    5.01
   6   6  14    6.01    3.51
  -6   6 -15    1.29    1.86
   6   6  15    0.82    2.02
  -6   6 -16   34.35    7.97
   6   6  16   31.95    7.93
  -6   6 -17    2.88    3.04
   6   6  17    4.92    4.02
  -6   6 -18    6.31    3.48
   6   7 -19   -0.06    1.32
   6   7 -18   42.72    9.65
   6  -7 -18   37.16    7.23
   6   7 -17   -3.10    2.81
   6  -7 -17    1.87    1.75
   6   7 -16    1.66    1.78
   6  -7 -16   -0.55    2.16
   6   7 -15    1.41    1.91
   6  -7 -15   -0.87    1.32
   6   7 -14    4.78    2.59
   6  -7 -14    4.89    2.39
   6   7 -13   -0.34    1.41
   6  -7 -13    3.71    2.21
   6   7 -12    2.24    1.47
   6   7 -11   47.29    8.22
   6   7 -10    9.05    3.73
   6   7  -9   24.64    5.82
   6   7  -8  157.86   13.86
   6   7  -7   28.51    5.76
   6   7  -6    5.13    2.05
   6  -7  -5   25.34    3.59
   6   7  -5   44.37    6.88
   6   7  -4   81.46    8.99
   6  -7  -4   70.12    5.53
  -6  -7   3    5.99    2.46
   6   7  -3    4.88    1.95
   6  -7  -3    4.37    1.31
  -6  -7   2   57.49    7.28
   6   7  -2   49.35    6.80
   6  -7  -2   58.02    8.28
   6  -7  -2   58.94    4.38
  -6  -7   1    0.40    0.48
   6  -7  -1    0.83    0.43
   6  -7  -1   -1.01    2.46
   6   7  -1    0.43    0.99
   6   7  -1    1.77    1.14
  -6  -7   1    0.90    1.21
  -6  -7   0  332.58   17.96
   6   7   0  379.69   18.16
  -6   7   0  328.80   11.39
   6   7   0  361.51   15.12
   6  -7   0  390.65   21.20
  -6  -7   0  357.52   10.45
   6  -7   0  340.37    9.98
   6  -7   1    5.40    2.45
   6   7   1   11.88    2.93
  -6   7  -1   12.39    2.43
  -6  -7  -1    4.88    2.10
  -6  -7  -2   56.48    7.72
   6   7   2   66.94    7.10
  -6   7  -2   62.40    5.88
   6  -7   2   55.67    8.35
  -6  -7  -3  106.22   10.59
   6   7   3   98.67    8.96
  -6   7  -3  104.46    8.04
  -6  -7  -4   51.69    7.49
  -6   7  -4   54.25    6.18
   6   7   4   52.13    6.73
  -6   7  -5   33.94    5.13
  -6  -7  -5   37.64    6.63
   6   7   5   32.35    5.59
   6   7   6   64.41    8.11
  -6  -7  -6   79.71    9.62
  -6   7  -6   65.32    7.29
  -6   7  -7   20.22    4.41
   6   7   7   23.66    5.32
   6   7   8  177.93   14.50
  -6   7  -8  173.02   12.91
  -6   7  -9   26.97    5.27
   6   7   9   23.32    5.40
  -6   7 -10    5.82    2.75
   6   7  10    4.02    2.69
  -6   7 -11    2.69    2.29
   6   7  11    0.67    1.41
  -6   7 -12    9.60    3.62
   6   7  12    7.07    3.78
  -6   7 -13    2.80    2.43
   6   7  13    8.02    3.50
  -6   7 -14   65.08   10.18
   6   7  14   59.24   10.24
  -6   7 -15    1.33    1.49
   6   7  15   -5.19    3.33
  -6   7 -16   37.87    8.30
   6   7  16   43.49    9.12
  -6   7 -17   -1.39    2.32
   6   8 -18    7.28    4.39
   6  -8 -18    3.26    2.40
   6   8 -17    5.54    3.90
   6  -8 -17   -1.32    1.56
   6   8 -16   20.22    6.34
   6  -8 -16   34.97    6.78
   6   8 -15   35.08    8.17
   6  -8 -15   24.06    5.57
   6  -8 -14    3.23    2.48
   6   8 -14   -1.07    2.65
   6   8 -13    3.76    4.72
   6   8 -12   35.00    7.65
   6   8 -11   -1.24    2.22
   6   8 -10   16.31    4.94
   6   8  -9  120.63   12.91
   6   8  -8    3.87    2.63
   6   8  -7   59.21    8.64
   6   8  -6    1.38    1.27
  -6  -8   5   24.06    4.73
   6   8  -5   20.26    4.84
  -6  -8   4   26.40    4.85
   6   8  -4   23.31    5.08
  -6  -8   3   11.54    3.30
   6   8  -3    8.23    3.21
   6  -8  -3    7.58    1.91
  -6  -8   2  266.79   16.03
   6   8  -2  268.73   11.92
   6   8  -2  283.83   16.80
   6  -8  -2  279.84   18.35
   6  -8  -2  265.75   10.73
  -6  -8   1    1.21    0.79
   6  -8  -1   -0.88    0.68
   6   8  -1   -0.93    1.25
   6   8  -1    0.96    0.95
  -6  -8   1    2.15    1.78
   6  -8   0   -0.19    0.66
   6   8   0   -0.03    1.41
  -6   8   0    1.36    1.22
   6   8   0    2.20    1.51
   6  -8   0    0.42    1.45
  -6  -8   0   -0.27    1.33
  -6  -8  -1    0.17    0.92
   6  -8   1    0.60    0.55
   6  -8   1    2.84    2.20
  -6   8  -1   -0.45    0.80
   6   8   1    1.97    1.64
  -6  -8  -2  107.11   10.67
   6   8   2  106.51    9.02
  -6   8  -2  107.72    8.29
   6  -8   2  101.13   11.47
   6   8   3  176.48   12.08
  -6  -8  -3  184.90   14.35
  -6   8  -3  178.25   11.33
  -6  -8  -4   35.09    6.37
  -6   8  -4   34.87    5.23
   6   8   4   44.13    6.22
  -6  -8  -5   60.09    8.46
   6   8   5   71.23    8.28
  -6   8  -5   66.60    7.53
  -6   8  -6   35.65    5.67
   6   8   6   53.65    7.45
   6   8   7  346.06   19.51
  -6   8  -7  310.38   17.44
  -6   8  -8   44.60    6.89
   6   8   8   48.71    7.69
  -6   8  -9   12.39    3.89
   6   8   9   10.73    3.81
  -6   8 -10   54.43    8.16
   6   8  10   74.58   10.11
  -6   8 -11   25.05    5.87
   6   8  11   35.26    7.43
  -6   8 -12   41.33    7.82
   6   8  12   23.07    6.24
  -6   8 -13   12.26    4.30
   6   8  13    8.50    4.05
  -6   8 -14   12.20    4.44
   6   8  14    8.61    4.15
  -6   8 -15   18.00    5.40
   6   8  15   30.95    7.69
  -6   8 -16   43.43    8.95
   6   8  16   53.60   10.42
  -6   8 -17   12.85    5.02
   6  -9 -18   15.26    4.79
   6  -9 -17    9.16    3.65
   6   9 -17    2.64    2.57
   6  -9 -16   -0.68    1.85
   6   9 -16    1.18    2.06
   6  -9 -15    9.78    3.68
   6   9 -15    3.70    1.76
   6   9 -14   31.86    7.85
   6   9 -13   60.82   10.41
   6   9 -12    2.24    1.88
   6   9 -11   25.25    6.62
   6   9 -10   16.09    5.20
   6   9  -9  288.38   20.80
   6   9  -8   77.44   10.54
  -6  -9   7   52.29    6.95
   6   9  -7   49.46    8.20
  -6  -9   6   16.68    4.09
   6   9  -6   23.37    5.95
  -6  -9   5    2.02    1.56
   6   9  -5    0.94    1.85
  -6  -9   4   20.96    4.45
   6   9  -4   19.87    4.89
   6   9  -3  150.28   13.22
  -6  -9   3  133.78   11.39
   6  -9  -2    4.42    2.75
   6   9  -2    7.99    2.16
   6   9  -2   11.29    3.85
  -6  -9   2    7.66    2.90
   6   9  -1   46.33    5.28
   6  -9  -1   43.72    7.56
  -6  -9   1   48.82    3.95
   6   9  -1   55.02    7.64
  -6  -9   1   54.96    7.43
   6   9   0   78.07    7.18
  -6  -9   0   83.69    9.39
   6   9   0   75.44    9.01
  -6   9   0   73.11    6.71
   6  -9   0   82.87   10.44
   6   9   1  202.86   12.03
  -6  -9  -1  187.62   14.15
  -6   9  -1  192.36   11.37
   6  -9   1  213.59   16.71
   6  -9   2   31.09    6.59
  -6  -9  -2   18.92    4.57
  -6   9  -2   22.57    4.11
   6   9   2   25.08    4.52
   6   9   3  164.01   11.76
  -6   9  -3  167.88   11.71
  -6  -9  -3  166.03   13.74
   6  -9   3  177.35   15.64
   6   9   4  142.04   11.39
  -6  -9  -4  143.36   13.11
  -6   9  -4  130.14   10.75
   6   9   5  128.14   11.34
  -6   9  -5  143.62   11.70
   6   9   6  103.05   10.56
  -6   9  -6  114.67   10.87
   6   9   7   47.93    7.54
  -6   9  -7   63.56    8.24
   6   9   8   84.05   10.26
  -6   9  -8  101.95   10.85
   6   9   9  217.18   16.86
  -6   9  -9  219.87   16.52
   6   9  10   43.29    7.87
  -6   9 -10   34.95    6.95
   6   9  11   -1.15    2.47
  -6   9 -11    1.12    1.48
   6   9  12   10.15    4.17
  -6   9 -12    5.20    3.02
   6   9  13    4.75    2.56
  -6   9 -13    3.84    2.72
  -6   9 -14   18.84    5.80
   6   9  14   15.28    5.57
  -6   9 -15    8.00    3.90
   6   9  15    8.22    3.96
  -6   9 -16   40.71    9.16
  -6   9 -17   -1.31    2.03
   6 -10 -17    9.01    3.51
   6  10 -17   17.15    6.93
   6 -10 -16   39.36    7.53
   6  10 -16   21.34    6.97
   6  10 -15  119.81   16.00
   6  10 -14   17.21    6.20
   6  10 -13    0.21    1.43
   6  10 -12    0.15    1.42
   6  10 -11   76.22   11.53
   6  10 -10   28.35    6.84
   6  10  -9   40.79    8.13
  -6 -10   9   27.21    5.02
  -6 -10   8   50.82    6.85
   6  10  -8   74.20   10.70
  -6 -10   7  163.87   12.38
   6  10  -7  167.74   15.67
  -6 -10   6  178.83   13.05
   6  10  -6  198.43   16.75
  -6 -10   5   59.55    7.60
   6  10  -5   70.87    9.81
   6  10  -4   21.37    5.13
  -6 -10   4   17.39    4.35
   6  10  -3    0.21    1.76
  -6 -10   3    0.67    1.33
   6 -10  -2   30.80    6.54
   6  10  -2   29.12    5.87
   6  10  -2   28.28    3.89
  -6 -10   2   24.41    5.16
  -6 -10   1  134.78   11.90
   6  10  -1  146.47   13.16
   6  10  -1  148.12    9.46
   6 -10  -1  143.27   13.79
  -6 -10   0    0.69    1.14
   6  10   0   -0.50    1.88
  -6  10   0    0.54    0.78
   6 -10   0    2.43    2.12
   6  10   0    1.27    1.34
  -6 -10  -1   35.42    6.25
   6 -10   1   26.88    6.23
  -6  10  -1   26.84    4.53
   6  10   1   32.59    5.03
   6 -10   2    4.71    2.71
  -6 -10  -2    8.86    3.39
  -6  10  -2    3.88    1.91
   6  10   2    2.16    1.45
   6 -10   3   47.75    8.63
  -6  10  -3   51.13    6.80
  -6 -10  -3   37.47    6.72
   6  10   3   49.73    6.53
   6  10   4  298.85   16.70
  -6  10  -4  284.02   16.60
   6  10   5  136.83   11.80
  -6  10  -5  128.63   11.55
   6  10   6  233.23   16.00
  -6  10  -6  200.44   14.95
   6  10   7  215.40   15.97
  -6  10  -7  193.18   15.12
  -6  10  -8   18.76    5.13
   6  10   8   19.52    5.12
   6  10   9   -0.27    2.06
  -6  10  -9    1.27    1.28
   6  10  10   20.84    5.25
  -6  10 -10   16.44    4.84
   6  10  11  120.07   13.63
  -6  10 -11  101.83   12.39
   6  10  12   12.63    4.57
  -6  10 -12    5.84    3.53
   6  10  13    1.35    1.44
  -6  10 -13    4.53    3.04
   6  10  14    1.89    1.99
  -6  10 -14    0.09    1.70
   6  10  15    6.41    4.31
  -6  10 -15   -1.55    2.11
  -6  10 -16    2.14    2.44
   6 -11 -17   11.93    4.31
   6  11 -16   -2.77    2.99
   6  11 -15   22.53    7.29
   6  11 -14    4.15    2.79
   6  11 -13    3.71    2.80
   6  11 -12   19.00    6.06
   6  11 -11    3.11    2.67
   6  11 -10   12.83    4.98
   6  11  -9    9.23    3.72
  -6 -11   8   10.43    3.12
   6  11  -8   15.09    5.12
   6  11  -7    1.41    1.77
  -6 -11   7   -0.91    1.38
   6  11  -6   35.76    7.42
  -6 -11   6   46.04    6.64
   6  11  -5    5.98    3.40
  -6 -11   5    9.10    2.98
  -6 -11   4  177.90   13.32
   6  11  -4  169.56   15.67
  -6 -11   3  139.12   12.02
   6  11  -3  165.13   14.98
   6  11  -2  113.31    7.71
  -6 -11   2  121.27   11.36
   6  11  -2  140.61   13.58
   6 -11  -2  121.96   13.29
  -6 -11   1    5.43    2.53
   6 -11  -1    8.40    3.97
   6  11  -1    6.86    2.96
   6  11  -1    7.96    2.32
   6  11   0  255.66   13.28
   6  11   0  229.78   17.20
  -6  11   0  252.64   14.37
  -6 -11   0  266.25   17.19
   6 -11   0  249.08   18.96
   6 -11   1   23.39    6.10
  -6 -11  -1   27.30    5.68
  -6  11  -1   31.63    5.26
   6  11   1   25.52    4.39
  -6 -11  -2    1.67    1.80
  -6  11  -2    8.98    2.92
   6 -11   2   13.23    4.83
   6  11   2    6.48    2.32
   6 -11   3   18.12    5.25
  -6  11  -3   14.31    3.75
   6  11   3   15.01    3.86
   6  11   4  105.44   10.12
  -6  11  -4   78.66    9.32
   6  11   5   78.50    9.11
  -6  11  -5   83.56    9.78
   6  11   6    0.07    1.71
  -6  11  -6   -1.36    2.07
   6  11   7    8.09    3.46
  -6  11  -7    5.38    2.83
   6  11   8   23.30    5.73
  -6  11  -8   29.78    6.39
   6  11   9   86.73   10.91
  -6  11  -9   71.36   10.09
  -6  11 -10   43.36    8.28
   6  11  10   56.92    9.28
  -6  11 -11    3.41    3.28
   6  11  11   -0.06    1.78
   6  11  12    2.82    2.42
  -6  11 -12    3.43    2.24
   6  11  13   16.62    5.35
  -6  11 -13   11.92    4.52
   6  11  14   47.92    9.65
  -6  11 -14   54.79   10.33
  -6  11 -15    4.87    3.90
  -6  11 -16    3.03    3.34
   6  12 -15    7.01    4.30
   6  12 -14    2.05    2.21
   6  12 -13   -5.44    3.67
   6  12 -12   13.43    5.37
   6  12 -11    1.57    1.68
   6  12 -10   47.01    9.40
   6  12  -9    4.93    3.61
   6  12  -8    1.36    1.63
   6  12  -7   22.24    6.33
  -6 -12   7   11.74    3.36
  -6 -12   6   78.45    8.66
   6  12  -6   70.43   10.74
  -6 -12   5   16.28    3.99
   6  12  -5   11.73    4.25
  -6 -12   4   33.92    5.92
   6  12  -4   39.16    7.74
   6  12  -3  127.45   13.71
  -6 -12   3  118.88   11.19
  -6 -12   2  131.93   11.94
   6  12  -2  157.57   15.07
   6 -12  -2  136.97   14.28
  -6 -12   1    2.85    2.22
   6 -12  -1    0.21    2.05
   6  12  -1    1.68    1.34
   6  12  -1    1.74    0.87
  -6 -12   0   49.33    7.59
   6  12   0   55.14    6.20
  -6  12   0   52.61    6.99
   6  12   0   62.77    9.32
   6 -12   0   57.47    9.51
   6 -12   1    3.91    2.06
  -6 -12  -1   10.14    3.82
  -6  12  -1    8.44    2.89
   6  12   1   10.47    3.06
   6  12   2  236.08   14.22
  -6  12  -2  239.68   15.80
   6 -12   2  231.13   19.30
  -6  12  -3    0.20    1.02
   6 -12   3    2.65    2.49
   6  12   3    0.32    1.42
   6  12   4   17.70    4.17
  -6  12  -4    5.65    2.66
   6  12   5   57.82    8.00
  -6  12  -5   55.55    8.35
   6  12   6    7.86    3.20
  -6  12  -6    6.63    3.15
   6  12   7    2.75    2.26
  -6  12  -7    1.99    1.64
   6  12   8   -5.48    2.96
  -6  12  -8   -0.64    2.28
   6  12   9   13.33    4.32
  -6  12  -9    6.46    3.03
   6  12  10    7.12    3.31
  -6  12 -10    7.67    3.79
   6  12  11   -0.36    1.34
  -6  12 -11    0.60    1.39
   6  12  12  143.74   15.87
  -6  12 -12  127.47   15.28
  -6  12 -13    1.01    1.54
   6  12  13   -1.33    2.99
   6  12  14   61.04   11.12
  -6  12 -14   45.39    9.61
  -6  12 -15    5.66    3.79
   6  13 -15   -2.07    2.66
   6  13 -14    2.36    2.89
   6  13 -13    0.37    1.49
   6  13 -12    1.34    2.49
   6  13 -11    0.67    2.26
   6  13 -10   -0.55    1.65
   6  13  -9    5.18    3.27
   6  13  -8    4.20    2.11
   6  13  -7   65.16   10.99
  -6 -13   6    2.47    1.76
   6  13  -6    6.70    3.69
  -6 -13   5   46.84    6.83
   6  13  -5   38.06    7.92
  -6 -13   4  260.04   16.39
   6  13  -4  242.85   20.08
  -6 -13   3   78.84    9.19
   6  13  -3   62.58   10.03
   6 -13  -2   81.12   11.38
  -6 -13   2   63.40    8.44
   6  13  -2   63.02   10.04
   6 -13  -1    4.59    1.71
  -6 -13   1   -0.64    1.16
   6  13  -1    2.15    2.20
   6  13   0   37.89    7.77
   6  13   0   40.83    5.45
  -6  13   0   46.33    6.96
   6 -13   0   36.60    7.83
   6 -13   1    7.02    3.01
  -6  13  -1   13.46    3.95
   6 -13   2   11.42    3.91
  -6  13  -2   11.03    3.66
   6  13   2   15.14    3.78
   6  13   3    6.60    2.51
   6 -13   3    8.43    3.45
  -6  13  -3    5.27    2.42
   6  13   4    2.13    1.12
   6 -13   4    5.22    3.06
  -6  13  -4    0.83    1.54
   6  13   5    0.45    1.00
  -6  13  -5    1.27    1.97
   6  13   6    6.95    3.11
  -6  13  -6    6.63    3.55
   6  13   7    8.14    3.37
  -6  13  -7   10.33    4.03
   6  13   8    5.30    2.83
  -6  13  -8    6.24    3.24
   6  13   9   16.95    5.18
  -6  13  -9   14.70    4.92
   6  13  10   20.41    5.75
  -6  13 -10   17.13    5.50
   6  13  11   36.15    7.71
  -6  13 -11   44.25    9.06
   6  13  12    2.56    3.26
  -6  13 -12   -3.57    2.84
   6  13  13    1.47    2.04
  -6  13 -13   14.02    5.58
  -6  13 -14   24.06    7.19
  -6  13 -15    2.27    2.62
   6  14 -14    3.55    2.98
   6  14 -13   34.91    9.30
   6  14 -12   -6.03    3.87
   6  14 -11    9.75    5.17
   6  14 -10   -0.44    2.02
   6  14  -9   10.22    4.82
   6  14  -8    2.16    2.46
   6  14  -7   10.08    5.03
   6  14  -6   64.74   10.92
  -6 -14   5   20.81    4.64
   6  14  -5   10.57    4.53
   6  14  -4    4.00    3.02
  -6 -14   4    4.84    2.40
  -6 -14   3    4.22    2.28
   6  14  -3    7.91    3.99
   6 -14  -2    2.20    2.28
   6  14  -2   -0.04    3.01
   6  14  -1  184.13   17.50
   6 -14  -1  147.70   15.67
   6  14   0    2.38    2.46
  -6  14   0    3.67    2.05
   6 -14   0   -0.24    2.76
  -6  14  -1   10.58    3.68
   6 -14   1   10.90    4.04
   6  14   1    7.65    2.49
   6 -14   2    1.11    1.48
  -6  14  -2    0.85    0.96
   6  14   2    1.71    1.70
   6  14   3   27.11    5.41
   6 -14   3   35.14    7.98
  -6  14  -3   27.94    6.07
   6  14   4   30.15    5.78
   6 -14   4   30.23    7.57
  -6  14  -4   44.64    7.93
   6  14   5   -1.17    1.84
  -6  14  -5   -0.04    1.47
   6  14   6   10.47    3.76
  -6  14  -6   11.69    4.49
   6  14   7   13.67    4.40
  -6  14  -7   17.34    5.30
   6  14   8   14.96    4.73
  -6  14  -8   15.68    5.14
   6  14   9    2.39    2.69
  -6  14  -9    2.03    1.22
   6  14  10    0.87    1.90
  -6  14 -10   -4.31    2.98
   6  14  11   78.50   11.62
  -6  14 -11   74.64   12.08
   6  14  12   11.93    4.36
  -6  14 -12   26.51    7.50
   6  14  13    0.70    1.88
  -6  14 -13   -1.27    1.97
  -6  14 -14    5.85    3.63
   6  15 -12    4.82    3.64
   6  15 -11    5.27    3.65
   6  15 -10   -1.74    2.43
   6  15  -9   -6.23    3.94
   6  15  -8    1.12    2.06
   6  15  -7    2.73    2.53
   6  15  -6    0.81    1.32
   6  15  -5    7.84    4.12
   6  15  -4    8.40    4.46
   6  15  -3    1.70    1.85
   6 -15  -2    0.26    1.31
   6  15  -2   -1.49    1.92
   6 -15  -1   -1.23    2.75
   6  15  -1   -0.11    2.33
   6 -15   0    7.62    3.97
  -6  15   0    8.03    3.49
  -6  15  -1   65.53    9.19
   6 -15   1   68.35   11.06
   6 -15   2    7.55    4.40
  -6  15  -2    5.40    2.90
   6  15   3    4.71    2.37
  -6  15  -3   10.13    3.88
   6 -15   3   15.52    5.64
   6  15   4   -1.02    2.18
  -6  15  -4    1.83    1.97
   6 -15   4    0.46    1.56
   6  15   5   13.06    4.09
  -6  15  -5    5.08    2.51
   6 -15   5   15.73    5.54
   6  15   6    1.20    1.57
  -6  15  -6    2.32    2.18
   6  15   7    2.43    2.11
  -6  15  -7   -3.61    2.64
   6  15   8    5.40    3.01
  -6  15  -8    1.80    2.05
   6  15   9    0.93    1.69
  -6  15  -9    3.12    2.71
   6  15  10    2.89    2.07
  -6  15 -10   -4.71    3.24
   6  15  11    2.26    1.78
  -6  15 -11   -0.68    2.16
   6  15  12    3.94    3.25
  -6  15 -12    4.38    3.21
  -6  15 -13   -1.59    2.38
   6  16 -11   23.84    8.00
   6  16 -10    5.78    4.46
   6  16  -9    0.16    2.33
   6  16  -8    6.05    3.64
   6  16  -7   34.51    8.77
   6  16  -6    0.37    1.66
   6  16  -5    8.40    4.54
   6  16  -4   21.50    6.44
   6  16  -3    3.04    2.92
   6 -16  -2    0.13    1.78
   6  16  -2    0.46    2.45
   6 -16  -1    7.37    3.73
   6  16  -1    7.01    4.38
   6 -16   0   18.46    5.93
  -6  16   0   29.14    6.43
  -6  16  -1   22.77    5.69
   6 -16   1   33.14    8.05
   6 -16   2    1.57    2.07
  -6  16  -2   -1.58    1.75
   6 -16   3   38.37    8.91
  -6  16  -3   31.90    6.95
   6  16   4    6.19    2.70
   6 -16   4   10.80    4.58
  -6  16  -4   10.56    4.17
   6  16   5   11.60    3.72
  -6  16  -5   12.97    4.89
   6 -16   5   12.68    5.32
   6  16   6    1.14    1.84
  -6  16  -6    4.04    2.87
   6  16   7   -1.91    2.28
  -6  16  -7   -2.15    1.64
   6  16   8   21.60    5.85
  -6  16  -8   16.04    5.29
   6  16   9   -4.90    3.01
  -6  16  -9    3.67    2.96
   6  16  10   25.39    6.75
  -6  16 -10   15.74    6.06
   6  16  11    5.75    3.89
  -6  16 -11   -0.76    1.86
  -6  16 -12    1.52    2.26
   6  17 -10   12.89    5.76
   6  17  -9    5.98    3.54
   6  17  -8    3.82    3.29
   6  17  -7    1.74    2.23
   6  17  -6    1.66    1.60
   6  17  -5    8.32    4.76
   6  17  -4   10.57    4.75
   6  17  -3   36.56    8.86
   6  17  -2   31.47    8.11
   6 -17  -1    3.86    3.57
   6  17  -1   -0.52    3.28
   6 -17   0   -0.21    1.36
   6 -17   1    3.18    3.38
  -6  17  -2   38.35    7.71
   6 -17   2   47.13    9.70
   6 -17   3   10.33    4.33
  -6  17  -3   14.42    5.04
  -6  17  -4   10.09    4.08
   6 -17   4    6.23    3.98
   6  17   5   32.03    6.45
  -6  17  -5   21.50    6.29
   6 -17   5   21.86    7.56
   6  17   6   19.37    5.18
  -6  17  -6   20.84    6.25
   6 -17   6   13.54    5.37
   6  17   7    4.17    2.54
  -6  17  -7    4.67    2.89
   6  17   8   -9.07    3.91
  -6  17  -8    5.39    3.72
   6  17   9    8.11    3.84
  -6  17  -9    7.59    4.41
   6  17  10    3.50    2.59
  -6  17 -10    0.06    1.93
  -6  17 -11    3.59    3.78
   6  18  -8    3.14    2.59
   6  18  -7   62.63   12.37
   6  18  -6    4.68    3.76
   6  18  -5    8.49    4.86
   6  18  -4   10.73    5.20
   6  18  -3    3.84    3.50
   6  18  -2    8.66    4.95
   6  18  -1   17.08    6.23
   6 -18  -1    9.38    4.22
   6 -18   0   18.83    6.25
   6 -18   1    4.18    3.32
   6 -18   2   23.26    7.12
   6 -18   3   15.59    5.83
   6 -18   4   28.43    8.31
   6 -18   5   -1.17    3.05
   6 -18   6   -1.90    2.66
   6 -18   7    2.03    2.78
   6  18   7   -0.45    1.05
   6  18   8   12.37    4.97
   6  18   9   -3.64    2.73
   6  18  10    4.57    3.13
   6  19  -4    3.49    3.47
   6  19  -3   15.41    6.00
   6  19  -2    0.99    2.01
   6 -19  -1   -0.34    1.90
   6 -19   0   14.58    5.84
   6 -19   1   13.49    5.50
   6 -19   2    4.37    3.59
   6 -19   3   -4.16    3.39
   6 -19   4   -4.56    3.46
   6 -19   5   -1.35    2.33
   6 -20   0    3.24    3.40
   6 -20   1   -0.40    1.64
   6 -20   2   -3.93    3.38
   7   0 -19    8.55    4.18
   7   0 -18   -1.37    1.93
   7   0 -17    6.49    3.38
   7   0 -16    0.60    1.30
   7   0 -16    0.02    1.36
   7   0 -15    0.41    1.51
   7   0 -15    2.54    1.93
   7   0 -14   -5.26    2.56
   7   0 -14    0.02    1.47
   7   0 -13   15.87    4.20
   7   0 -13   39.42    6.71
   7   0 -12    0.84    1.22
   7   0 -12   -3.05    2.73
   7   0 -11   54.73    7.54
   7   0 -11   57.40    7.09
   7   0 -10    0.01    1.05
   7   0 -10   -2.99    2.70
   7   0  -9  468.25   21.14
   7   0  -9  433.92   17.47
   7   0  -8    0.27    0.89
   7   0  -8   -2.01    2.18
   7   0  -7   25.90    3.81
   7   0  -7   29.24    5.00
   7   0  -6   -1.33    1.40
   7   0  -6    0.09    0.52
   7   0  -5   52.20    6.41
   7   0  -5   53.31    4.43
   7   0  -4    1.54    1.51
   7   0  -4   -0.03    0.33
   7   0  -3   -2.12    2.20
   7   0  -2   -0.30    1.21
   7   0  -1   12.90    3.00
  -7   0   1    9.67    1.02
   7   0   0    0.50    1.06
  -7   0   0    0.63    0.48
   7   0   1   50.13    5.29
  -7   0  -1   48.82    3.95
   7   0   1   39.67    5.56
   7   0   2   -0.47    1.21
   7   0   2    0.30    1.31
  -7   0  -2   -0.33    0.39
   7   0   3  683.62   19.12
  -7   0  -3  686.14   26.38
   7   0   3  662.60   23.26
   7   0   4    0.23    1.38
   7   0   4    0.55    0.87
  -7   0  -4    2.24    1.51
  -7   0  -5   79.39    9.05
   7   0   5   84.88    9.57
   7   0   6    1.53    1.84
  -7   0  -6    0.79    1.28
   7   0   7  186.19   15.03
  -7   0  -7  173.88   13.93
  -7   0  -8    0.54    1.51
   7   0   8    0.70    1.55
  -7   0  -9  124.78   12.08
   7   0   9  141.61   13.79
  -7   0 -10   -1.37    2.72
   7   0  10   -0.75    1.51
   7   0  11    6.27    3.04
   7   0  12    2.10    2.77
   7   0  13   57.18    9.67
   7   0  14   -1.13    1.65
   7   0  15   26.16    6.98
   7   0  16   -0.51    2.00
   7   0  17   59.74   11.23
   7   1 -19    0.81    1.76
   7  -1 -19   13.06    4.56
   7  -1 -18    5.70    2.79
   7   1 -18   10.44    4.24
   7   1 -17   24.05    6.09
   7   1 -17   15.35    4.75
   7  -1 -17   25.21    6.18
   7   1 -16   68.53    9.96
   7  -1 -16   75.95   10.17
   7   1 -16   74.09   10.18
   7   1 -15   44.04    7.60
   7  -1 -15   39.09    6.85
   7   1 -15   46.37    7.98
   7  -1 -15   45.98    7.84
   7   1 -14    8.80    3.47
   7  -1 -14   18.18    4.49
   7   1 -14   18.15    4.94
   7  -1 -14   18.00    4.77
   7   1 -13   12.83    4.05
   7  -1 -13   18.57    4.30
   7  -1 -13   15.83    4.47
   7   1 -13   14.80    4.17
   7   1 -12   49.79    7.12
   7  -1 -12   69.33    8.74
   7   1 -12   63.72    8.76
   7  -1 -12   52.01    6.80
   7   1 -11    4.16    1.51
   7  -1 -11    2.99    1.68
   7   1 -11    3.65    2.28
   7  -1 -11    5.18    2.50
   7   1 -10    0.44    1.10
   7  -1 -10    0.37    0.66
   7  -1 -10    2.75    1.93
   7   1 -10    4.48    2.58
   7  -1  -9    0.51    0.86
   7   1  -9    1.24    1.31
   7  -1  -9    0.90    1.29
   7   1  -8   11.79    2.94
   7  -1  -8   13.01    2.64
   7   1  -8   15.71    4.16
   7  -1  -8    8.84    3.10
   7   1  -7   77.34    8.40
   7  -1  -7  100.77    9.25
   7   1  -7  102.45    7.99
   7  -1  -7   86.99    6.43
   7   1  -6   26.76    4.88
   7  -1  -6   27.84    4.81
   7   1  -6   32.03    4.23
   7  -1  -6   30.71    3.52
   7   1  -5  139.21   10.65
   7  -1  -5  133.38   10.11
   7   1  -5  125.49    7.60
   7  -1  -5  139.21    6.24
   7   1  -4  168.62   11.38
   7  -1  -4  162.14   10.94
   7   1  -4  167.41    7.95
   7   1  -3  305.56   15.04
   7  -1  -3  312.92   14.63
   7   1  -3  309.41    9.62
   7  -1  -2   48.79    5.77
   7   1  -2   34.33    4.90
  -7  -1   2   32.59    2.71
   7   1  -1  342.43   15.09
   7  -1  -1  338.31   14.46
  -7  -1   1  335.60    9.55
   7   1   0   -0.26    0.89
   7  -1   0    1.03    1.20
  -7  -1   0   -0.26    0.50
   7   1   1  130.17    8.84
   7  -1   1  124.10    8.35
  -7   1  -1  110.62    4.91
  -7  -1  -1  120.71    7.05
   7  -1   1  114.12    9.78
   7   1   2  242.16   12.10
   7  -1   2  241.33   11.37
  -7   1  -2  243.29    8.79
  -7  -1  -2  246.14   10.89
   7   1   2  262.14   13.60
   7  -1   2  269.91   15.19
   7   1   3  158.16    9.43
   7  -1   3  152.08    8.81
  -7  -1  -3  167.49   13.15
  -7  -1  -3  150.68    9.00
   7   1   3  145.16   10.36
   7  -1   3  145.94   11.38
   7  -1   4   -0.24    1.58
   7  -1   4   -0.38    1.26
  -7   1  -4    2.93    2.25
   7   1   4    0.12    1.54
   7   1   4   -0.60    1.17
  -7  -1  -4    0.81    1.50
   7   1   5   38.10    5.59
   7  -1   5   36.59    4.12
   7   1   5   37.47    6.34
  -7   1  -5   38.58    6.19
  -7  -1  -5   47.73    7.09
   7  -1   6   -0.12    0.52
   7  -1   6   -4.93    2.64
   7   1   6    0.17    1.76
  -7   1  -6   -0.96    1.82
  -7  -1  -6   -2.16    1.49
   7  -1   7  268.93   17.92
   7   1   7  245.07   17.07
  -7  -1  -7  258.05   17.15
  -7   1  -7  260.93   16.76
  -7   1  -8    7.11    2.88
  -7  -1  -8    3.57    2.53
   7  -1   8    5.09    2.78
   7   1   8    5.92    3.08
  -7   1  -9    7.96    3.37
  -7  -1  -9   11.31    3.95
   7  -1   9   10.11    3.78
   7   1   9    8.99    3.46
  -7   1 -10    1.73    1.53
  -7  -1 -10    2.82    2.39
   7  -1  10    1.60    2.31
   7   1  10    1.05    1.76
   7  -1  11  146.09   14.55
   7   1  11  162.94   15.48
   7  -1  12   51.22    9.00
   7   1  12   53.50    9.02
   7  -1  13   21.95    6.12
   7   1  13   33.34    7.48
   7  -1  14   11.19    4.99
   7   1  14    5.64    3.46
   7  -1  15   38.33    8.32
   7   1  15   42.86    9.14
   7  -1  16    4.73    3.67
   7   1  16   16.72    5.98
   7  -1  17   21.74    6.66
   7   1  17   17.12    6.01
   7  -2 -19   36.19    7.66
   7  -2 -18   29.50    6.78
   7   2 -17    4.11    2.62
   7  -2 -17   14.08    4.55
   7   2 -17   16.21    5.00
   7   2 -16   30.22    6.73
   7   2 -16   18.86    5.28
   7  -2 -16   31.40    6.62
   7   2 -15   32.25    6.72
   7   2 -15   24.80    6.00
   7  -2 -15   26.57    5.96
   7   2 -14   44.17    7.61
   7   2 -14   53.29    8.36
   7  -2 -14   56.85    8.35
   7  -2 -14   58.35    7.81
   7   2 -13    1.43    0.88
   7   2 -13    0.67    1.37
   7  -2 -13    0.89    1.44
   7  -2 -13    2.26    2.20
   7   2 -12    4.78    2.00
   7  -2 -12    7.30    2.73
   7   2 -12    4.74    2.14
   7  -2 -12    1.86    1.46
   7   2 -11    1.85    1.72
   7  -2 -11    2.48    1.71
   7   2 -11    1.38    1.38
   7  -2 -11    0.32    1.50
   7   2 -10  209.72   14.86
   7  -2 -10  203.73   14.07
   7   2 -10  233.68   14.86
   7  -2 -10  232.25   12.37
   7   2  -9   45.25    6.87
   7  -2  -9   48.60    6.83
   7   2  -9   47.22    6.44
   7  -2  -9   49.97    5.39
   7   2  -8   95.09    9.67
   7  -2  -8  100.61    9.39
   7   2  -8   94.04    8.63
   7  -2  -8   91.01    6.73
   7  -2  -7   45.42    6.09
   7   2  -7   46.09    5.78
   7   2  -7   46.55    6.48
   7  -2  -7   40.06    4.08
   7   2  -6   68.86    7.72
   7  -2  -6   61.81    6.96
   7   2  -6   61.05    6.27
   7  -2  -6   64.35    4.54
   7   2  -5  191.17   12.70
   7  -2  -5  203.11   12.43
   7   2  -5  185.95   10.33
   7  -2  -5  186.76    6.08
  -7  -2   4   60.08    4.57
   7  -2  -4   58.33    6.47
   7   2  -4   49.26    6.34
   7   2  -4   60.75    5.45
   7   2  -3  254.65   13.98
   7  -2  -3  268.33   13.47
   7   2  -3  250.75   10.31
  -7  -2   3  258.48    9.31
  -7  -2   2   -1.34    0.78
   7  -2  -2    0.68    1.10
   7   2  -2   -0.41    1.20
   7  -2  -1   20.03    3.73
  -7  -2   1   26.86    3.32
   7   2  -1   26.46    4.37
   7   2   0  462.13   17.97
   7  -2   0  410.47   15.52
   7  -2   0  422.90   19.57
  -7  -2   0  445.90   14.31
   7  -2   1   45.80    5.10
   7   2   1   40.76    5.15
   7  -2   1   38.14    5.90
  -7  -2  -1   47.06    4.94
  -7   2  -2    2.91    0.77
   7  -2   2    4.03    1.38
   7   2   2    0.94    0.75
  -7  -2  -2    4.50    1.57
   7  -2   2    5.92    2.35
   7  -2   3   12.60    2.50
   7   2   3   14.67    3.10
   7   2   3    8.60    2.99
  -7  -2  -3    9.39    3.24
   7  -2   3   13.81    3.68
   7  -2   4   26.16    5.14
   7   2   4   17.66    3.51
   7  -2   4   21.52    3.19
   7   2   4   26.25    5.16
  -7  -2  -4   22.62    4.99
   7  -2   5   29.51    3.65
  -7   2  -5   35.27    6.13
   7   2   5   24.47    5.24
   7   2   5   29.94    4.65
  -7  -2  -5   34.29    6.28
   7  -2   6    0.65    0.66
   7   2   6   -0.67    1.24
  -7   2  -6    0.33    1.44
  -7  -2  -6   -1.41    1.85
  -7  -2  -7    3.63    2.25
   7  -2   7    3.05    1.18
   7   2   7    3.81    2.23
  -7   2  -7    1.82    1.45
  -7  -2  -8   61.47    8.67
   7  -2   8   58.25    8.74
  -7   2  -8   63.91    8.26
   7   2   8   67.12    9.28
  -7   2  -9   -1.11    1.88
  -7  -2  -9    1.61    1.04
   7  -2   9   -0.88    1.77
   7   2   9    0.68    1.97
  -7   2 -10   -0.73    1.67
  -7  -2 -10   -0.38    1.72
   7  -2  10    4.09    2.57
   7   2  10   -1.36    1.69
  -7   2 -11    1.31    1.79
   7  -2  11    3.56    2.48
   7   2  11    6.61    3.12
   7  -2  12   75.67   11.10
   7   2  12   79.05   11.35
   7  -2  13   13.84    4.23
   7   2  13   10.33    4.30
   7  -2  14    1.09    1.64
   7   2  14    1.02    1.65
   7  -2  15    6.93    3.81
   7   2  15   -0.55    2.55
   7  -2  16   58.38   10.80
   7   2  16   52.72   10.23
  -7   2 -17   12.64    4.75
   7  -2  17   13.77    5.24
   7   2  17   14.26    5.40
  -7   2 -18    7.61    4.11
   7  -3 -19   -4.31    2.57
   7   3 -18   10.06    4.29
   7  -3 -18   22.03    5.75
   7   3 -17    4.34    2.98
   7  -3 -17    2.97    2.10
   7   3 -16    9.31    3.81
   7  -3 -16   11.84    4.17
   7   3 -15   52.39    8.72
   7  -3 -15   42.90    7.43
   7   3 -14    7.40    3.61
   7   3 -14   -0.46    2.59
   7  -3 -14    7.29    3.19
   7   3 -13    1.81    1.88
   7   3 -13   -0.39    1.20
   7  -3 -13   -0.34    1.05
   7  -3 -13   -0.30    1.28
   7  -3 -12  139.26   10.53
   7  -3 -12  142.31   12.44
   7   3 -12  136.87   13.08
   7   3 -12  117.15   11.82
   7   3 -11   21.19    4.92
   7   3 -11   22.55    5.18
   7  -3 -11   32.71    5.86
   7  -3 -11   29.49    4.59
   7   3 -10    8.06    3.05
   7  -3 -10    4.09    1.58
   7   3 -10    5.01    2.50
   7  -3 -10    8.80    3.26
   7  -3  -9   17.20    3.05
   7   3  -9   13.88    3.86
   7  -3  -9   15.29    3.85
   7   3  -9   15.06    3.78
   7  -3  -8  159.62   11.92
   7   3  -8  138.92   11.90
   7   3  -8  150.17   11.45
   7  -3  -8  146.52    8.09
   7  -3  -7   16.54    2.43
   7   3  -7   11.09    3.33
   7  -3  -7   18.86    4.09
   7   3  -7   23.86    4.46
   7  -3  -6   50.35    6.43
   7   3  -6   34.02    5.64
   7   3  -6   43.99    5.70
   7  -3  -6   43.28    3.44
   7   3  -5  342.62   17.36
   7  -3  -5  349.18   16.27
   7  -3  -5  325.57    6.77
   7   3  -5  329.98   14.98
   7  -3  -5  306.20    6.54
   7  -3  -4  415.42   17.47
   7   3  -4  393.50   15.38
   7   3  -4  414.70   19.00
   7   3  -3   62.74    7.58
   7  -3  -3   61.98    6.51
   7   3  -3   54.50    5.43
  -7  -3   3   57.20    5.25
   7   3  -2  159.38   11.23
   7  -3  -2  146.48    9.79
   7   3  -2  161.36    9.00
  -7  -3   2  158.85    8.85
   7   3  -1   36.00    5.29
   7  -3  -1   30.95    4.37
  -7  -3   1   28.48    3.89
   7  -3   0  110.25    8.04
  -7  -3   0   88.34    7.15
   7  -3   0   90.40    9.32
   7  -3   1   44.75    4.97
   7  -3   1   47.49    7.01
   7  -3   2   89.33    6.85
   7   3   2  100.35    9.50
  -7   3  -2   92.55    4.71
   7  -3   2  102.72   10.27
   7  -3   3   44.02    6.89
   7  -3   3   45.99    4.81
  -7  -3  -3   58.03    8.01
   7   3   3   44.64    5.03
   7   3   3   48.20    6.75
  -7   3  -3   43.77    3.75
   7  -3   4  171.36    8.93
  -7  -3  -4  192.00   14.67
   7   3   4  171.61   13.00
   7   3   4  169.38   10.22
   7  -3   4  167.24   13.51
  -7   3  -4  169.77    8.23
  -7   3  -5  299.53   12.04
   7  -3   5  296.90   11.36
  -7   3  -5  306.57   17.34
  -7  -3  -5  284.33   18.03
   7   3   5  317.58   18.09
   7   3   5  296.07   13.80
  -7   3  -6  194.11   10.46
   7  -3   6  201.49    9.01
  -7   3  -6  183.22   13.59
  -7  -3  -6  213.50   15.77
   7   3   6  179.47   14.19
  -7  -3  -7   -0.72    1.24
   7  -3   7   -0.09    0.64
  -7   3  -7    0.42    0.88
   7   3   7    0.82    2.36
  -7   3  -7   -1.62    1.78
  -7   3  -8   81.72    7.79
  -7   3  -8   77.22    8.96
   7   3   8   91.20   10.70
  -7  -3  -8   76.34    9.76
  -7   3  -9   -0.83    1.15
  -7  -3  -9    0.68    2.26
   7   3   9   -0.20    1.60
   7  -3  10  247.79   18.83
   7   3  10  244.74   18.38
  -7   3 -10  252.99   16.55
  -7   3 -11   54.87    7.55
  -7   3 -11   41.70    6.86
   7  -3  11   49.78    8.71
   7   3  11   43.86    8.14
  -7   3 -12    3.19    2.37
   7  -3  12   -1.22    2.62
   7   3  12   -0.14    2.47
  -7   3 -13   51.58    8.01
   7  -3  13   42.29    8.37
   7   3  13   70.18   10.70
  -7   3 -14   65.49    9.44
   7  -3  14   63.50   10.57
   7   3  14   51.41    9.58
  -7   3 -15   22.33    5.77
   7  -3  15   37.26    8.25
   7   3  15   43.45    9.05
  -7   3 -16   12.11    4.63
   7  -3  16    4.28    3.79
   7   3  16    3.74    2.95
  -7   3 -17    3.38    3.08
   7  -3  17    6.92    4.20
   7   3  17   -2.07    3.08
  -7   3 -18   27.94    7.33
   7  -3  18   27.71    7.72
   7  -4 -19   10.52    4.17
   7   4 -18    2.93    2.13
   7  -4 -18   -4.80    2.91
   7   4 -17    0.38    1.84
   7  -4 -17    0.59    1.83
   7   4 -16    3.72    2.71
   7  -4 -16    1.77    2.48
   7   4 -15   15.03    5.02
   7  -4 -15    3.01    2.55
   7   4 -14   14.76    4.78
   7  -4 -14    9.67    3.59
   7   4 -13    6.64    3.19
   7  -4 -13    7.51    2.98
   7   4 -12   18.31    4.95
   7  -4 -12   22.77    4.23
   7  -4 -12   19.31    4.73
   7   4 -11    2.94    1.71
   7  -4 -11    1.13    1.05
   7  -4 -10  153.31    9.51
   7   4 -10  161.86   13.56
   7  -4 -10  160.56   12.59
   7   4 -10  142.47   12.55
   7  -4  -9    1.09    0.85
   7  -4  -9    2.69    1.57
   7   4  -9   -1.57    2.89
   7   4  -9    0.14    1.07
   7   4  -8    4.92    2.23
   7  -4  -8   12.77    2.36
   7  -4  -8   14.57    4.03
   7   4  -8   10.02    3.20
   7   4  -7  221.97   15.00
   7  -4  -7  222.26   13.92
   7   4  -7  220.82   14.09
   7  -4  -7  220.35    8.55
   7   4  -6  134.30   11.44
   7  -4  -6  141.51   10.86
   7   4  -6  131.24   10.50
   7  -4  -6  141.02    5.89
   7  -4  -5  119.55    9.59
   7  -4  -5   97.63    3.83
   7   4  -5   98.49    8.66
   7  -4  -5  101.23    3.60
   7  -4  -4    0.30    1.03
   7   4  -4   -0.41    1.06
   7  -4  -3  104.18    8.48
   7   4  -3  100.73    8.10
   7  -4  -2    3.31    1.98
   7   4  -2    1.67    0.76
   7  -4  -1   89.46    7.60
   7  -4   0   43.86    6.84
   7  -4   0   39.77    4.93
  -7  -4   0   34.07    6.01
   7  -4   1  289.67   12.94
  -7  -4  -1  262.28   16.83
   7   4   1  243.53   14.21
   7  -4   1  264.22   16.87
   7  -4   2    1.24    1.07
   7  -4   2    0.97    1.54
   7   4   2    2.40    1.45
  -7  -4  -2    1.10    1.32
  -7   4  -2   -0.22    0.39
   7  -4   3  276.25   11.84
  -7  -4  -3  292.11   18.11
   7   4   3  273.96   15.84
  -7   4  -3  282.75   10.42
   7  -4   3  282.02   17.67
   7  -4   4  160.06    8.75
  -7  -4  -4  165.98   13.79
   7   4   4  163.02   12.66
   7   4   4  160.07    8.98
  -7   4  -4  173.05    8.82
  -7   4  -5   27.73    3.82
  -7   4  -5   23.15    4.78
   7  -4   5   19.08    2.92
   7   4   5   25.44    5.17
   7   4   5   22.51    3.58
  -7  -4  -5   20.33    5.14
  -7  -4  -6   37.32    6.71
   7  -4   6   44.11    4.25
  -7   4  -6   42.81    6.46
   7   4   6   45.49    6.96
   7   4   6   44.37    5.13
  -7   4  -6   42.99    5.08
  -7  -4  -7   10.15    3.68
  -7   4  -7    4.36    1.71
   7  -4   7    8.36    1.86
   7   4   7    8.06    3.28
  -7   4  -7    6.49    2.73
  -7   4  -8  525.23   20.22
  -7   4  -8  536.19   23.24
   7   4   8  531.61   25.74
  -7  -4  -8  545.20   26.53
  -7   4  -9    3.58    2.25
  -7   4  -9    8.31    2.80
  -7  -4  -9    4.36    2.97
   7   4   9   12.53    4.15
  -7   4 -10   28.87    5.52
  -7   4 -10   24.89    4.92
   7   4  10   32.22    6.65
  -7   4 -11   -1.01    1.56
   7   4  11   -0.55    2.09
  -7   4 -12   93.46   10.47
   7   4  12   76.03   10.83
  -7   4 -13    1.43    1.04
   7   4  13   -1.89    2.33
  -7   4 -14   -0.98    2.12
   7  -4  14    5.15    4.28
   7   4  14    0.90    1.72
  -7   4 -15   56.85    9.37
   7  -4  15   58.03   10.32
   7   4  15   52.45   10.02
  -7   4 -16   27.60    6.80
   7  -4  16   25.61    7.28
   7   4  16   31.38    8.13
  -7   4 -17    7.83    4.16
   7  -4  17    7.15    4.37
  -7   4 -18    2.98    3.03
   7  -4  18   -1.78    2.04
   7   5 -18    2.21    2.41
   7  -5 -18    0.55    1.28
   7   5 -17   34.03    8.06
   7  -5 -17   39.28    7.54
   7   5 -16   -2.72    2.41
   7  -5 -16    2.42    2.30
   7   5 -15    1.73    1.96
   7  -5 -15    8.18    3.32
   7   5 -14    8.75    3.62
   7  -5 -14    5.19    2.43
   7   5 -13   28.33    6.54
   7  -5 -13   34.81    6.60
   7  -5 -12   83.97    9.76
   7   5 -12   78.14   10.31
   7  -5 -11   14.83    4.40
   7   5 -11   16.58    4.70
   7  -5 -10   19.79    4.56
   7   5 -10   21.93    5.04
   7  -5  -9    0.66    1.04
   7   5  -9    0.17    1.21
   7  -5  -8   29.28    5.42
   7   5  -8   29.02    5.73
   7  -5  -7  345.60   17.44
   7   5  -7  343.35   18.49
   7   5  -6    2.88    1.85
   7  -5  -5   35.04    2.28
   7   5  -5   27.40    4.88
   7   5  -4   97.44    8.95
   7   5  -3   56.92    6.55
   7   5  -2    0.31    0.64
  -7  -5   1    4.47    2.48
   7  -5  -1    1.25    1.49
   7  -5   0    1.36    2.07
  -7  -5   0   -0.18    1.58
  -7  -5  -1  115.97   11.29
   7   5   1  132.19   10.46
  -7   5  -1  126.60    4.76
   7  -5   1  127.77   12.17
  -7  -5  -2  119.36   11.54
   7   5   2  120.85   10.28
  -7   5  -2  106.32    5.97
   7  -5   2  116.63   11.64
  -7   5  -3    8.94    2.02
   7  -5   3   16.84    4.68
   7   5   3   12.40    3.48
  -7  -5  -3   13.89    4.05
  -7   5  -4   21.43    3.38
   7  -5   4   16.39    2.95
   7   5   4   18.57    4.39
  -7  -5  -4   15.34    4.33
   7  -5   5  217.19   10.14
   7   5   5  197.96   14.52
  -7  -5  -5  207.37   15.85
   7   5   5  200.34    9.18
  -7   5  -5  217.30   11.41
   7  -5   6  198.71    9.29
  -7   5  -6  180.82   13.20
   7   5   6  199.35   14.84
  -7  -5  -6  197.05   15.66
   7   5   6  202.33    9.94
  -7   5  -6  178.59   10.91
  -7   5  -7   -1.40    1.69
  -7  -5  -7    2.09    2.53
   7  -5   7   -0.15    0.48
   7   5   7    0.44    0.52
  -7   5  -7   -1.68    1.77
   7   5   7   -0.65    1.98
  -7   5  -8  175.70   13.07
   7   5   8  149.24   13.64
  -7  -5  -8  157.17   14.49
  -7   5  -8  167.74   11.79
  -7   5  -9    0.10    0.90
  -7   5  -9    0.31    1.16
   7   5   9   -1.89    2.78
  -7   5 -10    6.31    2.45
  -7   5 -10    6.50    2.60
   7   5  10   13.12    4.42
  -7   5 -11    6.29    2.26
  -7   5 -11   10.53    3.24
   7   5  11   12.75    4.72
  -7   5 -12    4.18    2.48
   7   5  12   -0.62    2.75
  -7   5 -13    1.27    1.61
   7   5  13    2.11    2.88
  -7   5 -14    5.55    3.11
   7   5  14   -0.15    1.53
  -7   5 -15    0.21    1.13
   7   5  15   -0.56    1.88
  -7   5 -16    0.20    1.29
   7   5  16   -1.52    2.05
  -7   5 -17   -2.65    2.50
   7   6 -18   -3.00    2.84
   7  -6 -18    1.60    1.54
   7   6 -17    5.08    3.60
   7  -6 -17   11.24    4.03
   7   6 -16   -0.44    2.17
   7  -6 -16    4.04    2.63
   7   6 -15   25.33    6.77
   7  -6 -15   34.68    6.78
   7   6 -14    3.51    2.53
   7  -6 -14    1.68    2.27
   7  -6 -13   14.65    4.50
   7   6 -13    7.59    3.54
   7  -6 -12   21.91    5.11
   7   6 -12   13.82    4.48
   7  -6 -11   19.88    4.75
   7   6 -11   14.48    4.92
   7  -6 -10   21.09    4.53
   7   6 -10   15.55    4.40
   7   6  -9   -2.44    1.91
   7   6  -8   23.47    5.43
   7   6  -7   14.10    4.16
   7   6  -6   91.29    9.78
   7   6  -5   48.90    6.97
   7   6  -4    2.19    1.15
   7   6  -3   64.16    7.55
  -7  -6   2    2.57    2.48
   7   6  -2   -1.17    1.74
  -7  -6   1  303.75   18.19
   7   6  -1  329.56   16.25
   7  -6  -1  306.30   18.91
   7  -6   0    0.69    1.42
   7   6   0    0.24    1.00
  -7  -6   0    2.47    2.29
  -7  -6  -1  117.36   11.53
   7   6   1  115.74    9.67
  -7   6  -1  113.83    5.62
   7  -6   1  139.45   13.09
   7  -6   2   -0.22    1.50
  -7   6  -2   -0.03    0.35
  -7  -6  -2   -1.31    1.89
  -7  -6  -3   65.98    8.86
   7   6   3   56.17    7.31
   7  -6   3   57.18    8.53
  -7   6  -3   63.64    5.73
  -7   6  -4   33.72    4.45
  -7  -6  -4   40.90    7.09
   7   6   4   28.89    5.31
  -7   6  -5   31.84    4.67
  -7  -6  -5   36.77    7.05
   7   6   5   32.26    5.83
  -7   6  -6    2.33    1.48
  -7  -6  -6    1.66    1.92
  -7   6  -6    2.54    1.43
   7   6   6    2.76    2.01
   7  -6   7  173.83    8.56
  -7   6  -7  158.40   12.28
   7   6   7  175.16   14.37
  -7  -6  -7  160.26   14.60
  -7   6  -7  171.54   11.82
  -7   6  -8   69.81    8.14
   7   6   8   77.50    9.92
  -7  -6  -8   55.63    8.62
  -7   6  -8   77.29    8.28
  -7   6  -9    1.69    1.55
  -7   6  -9    1.29    0.90
  -7   6 -10   19.63    4.74
  -7   6 -10   13.36    3.61
   7   6  10   21.95    5.60
  -7   6 -11   35.00    6.41
   7   6  11   42.65    8.30
  -7   6 -12   50.11    8.08
   7   6  12   58.87    9.79
  -7   6 -13   15.44    4.64
   7   6  13   17.58    5.68
  -7   6 -14    3.08    2.19
   7   6  14    2.70    1.74
  -7   6 -15   11.93    4.64
   7   6  15   27.42    7.39
  -7   6 -16   -2.58    2.47
   7   6  16   -1.68    2.02
  -7   6 -17   33.12    8.13
   7   7 -18    2.40    3.29
   7  -7 -18    1.52    2.38
   7   7 -17   16.93    6.07
   7  -7 -17   16.68    5.07
   7   7 -16    3.40    2.59
   7  -7 -16   -1.59    2.76
   7  -7 -15    4.64    2.62
   7   7 -15    7.75    4.03
   7  -7 -14    5.36    2.98
   7   7 -14   -1.49    1.94
   7  -7 -13   15.52    4.45
   7   7 -13   21.64    6.03
   7  -7 -12    6.18    2.65
   7   7 -12    5.76    2.74
   7  -7 -11   -1.39    1.32
   7   7 -11    2.07    1.57
   7   7 -10    7.81    3.50
   7   7  -9   -1.44    2.44
   7   7  -8   40.67    7.04
   7   7  -7  123.55   12.35
   7   7  -6   12.03    3.86
   7   7  -5    1.95    1.42
   7   7  -4   26.89    5.22
  -7  -7   3    8.28    2.91
   7   7  -3   14.28    3.66
   7   7  -2   23.14    4.62
  -7  -7   2   21.06    4.56
  -7  -7   1  149.68   13.01
   7   7  -1  123.05   10.59
   7  -7  -1  151.82   13.83
   7  -7   0   20.17    5.48
   7   7   0   16.15    3.94
  -7  -7   0   15.76    4.52
  -7  -7  -1  149.78   13.11
   7   7   1  157.50   11.29
  -7   7  -1  147.47    7.47
   7  -7   1  162.11   14.40
   7   7   2   59.87    7.38
   7  -7   2   40.36    7.43
  -7   7  -2   54.75    5.14
  -7  -7  -2   48.50    7.51
  -7  -7  -3   36.44    6.68
  -7   7  -3   42.85    5.00
   7  -7   3   46.27    8.13
   7   7   3   41.87    6.25
  -7  -7  -4   70.10    9.38
   7   7   4   84.42    9.20
  -7   7  -4   76.21    7.19
   7   7   5  241.05   15.95
  -7  -7  -5  235.28   17.39
  -7   7  -5  237.58   13.38
  -7   7  -6   47.81    6.62
  -7  -7  -6   60.23    9.05
  -7   7  -6   49.24    6.36
   7   7   6   51.95    7.90
  -7   7  -7  148.66   11.71
   7   7   7  141.55   13.05
  -7  -7  -7  133.47   13.47
  -7   7  -7  130.14   10.85
  -7   7  -8   52.72    7.16
  -7   7  -8   56.75    7.17
   7   7   8   67.46    9.16
  -7   7  -9   29.57    5.19
  -7   7  -9   27.01    5.39
   7   7   9   27.11    6.07
  -7   7 -10   21.99    5.03
   7   7  10   25.80    6.22
  -7   7 -11   66.43    9.05
   7   7  11   73.63   10.72
  -7   7 -12    0.88    0.93
   7   7  12    2.56    3.45
  -7   7 -13   11.17    4.12
   7   7  13    6.17    3.08
  -7   7 -14   -2.90    2.48
   7   7  14    0.11    1.30
  -7   7 -15   15.25    5.20
   7   7  15   19.64    6.35
  -7   7 -16    2.58    2.45
  -7   7 -17   10.14    5.16
   7   8 -18    4.43    4.13
   7  -8 -17    0.16    1.98
   7   8 -17    0.58    1.55
   7  -8 -16   -1.21    2.14
   7   8 -16   -3.26    2.89
   7  -8 -15   21.38    5.61
   7   8 -15   13.73    5.35
   7  -8 -14   16.54    4.89
   7   8 -14   17.41    5.86
   7  -8 -13   16.56    4.64
   7   8 -13   18.65    5.81
   7   8 -12   -0.89    2.74
   7   8 -11   28.32    6.70
   7   8 -10   24.84    6.41
   7   8  -9   35.72    7.39
   7   8  -8    7.31    3.42
   7   8  -7   31.11    6.41
   7   8  -6    1.60    2.03
  -7  -8   5   25.66    5.13
   7   8  -5   23.81    5.28
  -7  -8   4   10.05    3.52
   7   8  -4   14.55    3.92
   7   8  -3   -0.91    1.77
  -7  -8   3    0.51    1.12
   7   8  -2   29.33    5.73
  -7  -8   2   29.86    5.89
   7   8  -1  297.46   14.55
  -7  -8   1  291.71   18.27
   7   8  -1  277.86   16.80
   7  -8  -1  273.24   19.05
   7  -8   0   -0.95    2.54
   7   8   0   -0.26    1.11
  -7  -8   0    3.22    2.28
  -7   8  -1    2.47    1.34
   7   8   1    4.41    2.25
   7  -8   1    2.59    2.37
  -7  -8  -1    1.94    1.30
  -7  -8  -2   25.42    5.63
   7  -8   2   18.49    5.21
  -7   8  -2   15.09    3.01
   7   8   2   18.74    4.08
  -7  -8  -3    1.45    1.31
   7  -8   3   -0.96    2.09
   7   8   3    0.03    1.48
  -7   8  -3    0.57    1.32
   7   8   4  113.84   10.68
  -7  -8  -4  126.85   12.82
  -7   8  -4  117.13    9.38
   7  -8   4  124.57   13.69
   7   8   5   14.23    3.92
  -7  -8  -5   12.57    4.13
  -7   8  -5   15.12    3.56
  -7   8  -6    3.53    2.16
  -7  -8  -6    6.96    3.62
   7   8   6    7.69    3.44
  -7   8  -7   -0.73    1.39
  -7   8  -7    0.62    1.29
   7   8   7    1.31    1.92
  -7   8  -8   59.42    7.23
  -7   8  -8   65.86    8.41
   7   8   8   73.18    9.70
  -7   8  -9    5.86    2.86
   7   8   9   -2.39    2.39
  -7   8 -10   34.65    6.50
   7   8  10   38.41    7.49
   7   8  11  108.48   13.14
  -7   8 -11   89.00   10.90
  -7   8 -12    6.10    3.20
   7   8  12   16.38    5.21
  -7   8 -13    2.43    1.97
   7   8  13    2.54    2.30
  -7   8 -14   -4.37    2.84
   7   8  14   -1.79    3.43
  -7   8 -15   13.98    5.16
   7   8  15   11.78    4.77
  -7   8 -16    4.52    3.35
  -7   8 -17    1.27    2.23
   7  -9 -17   17.93    5.40
   7   9 -17   20.21    6.99
   7  -9 -16    0.55    1.35
   7   9 -16   -2.35    2.41
   7  -9 -15    1.86    2.13
   7   9 -15    3.45    3.40
   7  -9 -14    2.23    1.95
   7   9 -14   -0.34    1.44
   7   9 -13   30.06    7.49
   7   9 -12   82.89   12.05
   7   9 -11   -1.88    2.20
   7   9 -10   64.72   10.21
   7   9  -9   92.18   12.00
   7   9  -8  104.13   12.29
   7   9  -7    8.28    3.76
  -7  -9   6    5.07    2.39
   7   9  -6    7.04    3.25
  -7  -9   5    0.19    1.13
   7   9  -5   -0.80    1.83
   7   9  -4   70.32    9.31
  -7  -9   4   58.36    8.09
   7   9  -3   43.25    7.15
  -7  -9   3   47.09    7.27
   7  -9  -2    4.10    2.69
   7   9  -2    6.82    2.62
  -7  -9   2    8.73    3.14
   7   9  -1   -1.38    2.07
   7   9  -1    1.35    0.85
  -7  -9   1   -1.42    1.57
   7  -9   0    3.79    1.80
   7   9   0    9.45    2.93
  -7  -9   0   12.10    3.92
  -7  -9  -1   26.51    5.66
  -7   9  -1   25.84    3.89
   7   9   1   24.91    4.59
   7  -9   1   24.43    5.89
   7   9   2   97.59    9.36
  -7  -9  -2   95.85   10.92
  -7   9  -2  103.24    8.32
   7  -9   2  109.36   12.72
  -7  -9  -3   16.96    4.76
   7  -9   3   18.14    5.25
  -7   9  -3   22.05    4.14
   7   9   3   23.77    4.66
   7  -9   4   53.28    9.07
  -7  -9  -4   52.86    8.37
  -7   9  -4   52.18    6.64
   7   9   4   50.18    7.20
   7   9   5   81.04    9.45
  -7  -9  -5   76.02   10.40
  -7   9  -5   69.32    8.09
   7   9   6   90.73   10.31
  -7   9  -6   94.14    9.67
  -7   9  -7   13.24    3.44
   7   9   7   13.09    4.32
  -7   9  -7   17.81    4.42
  -7   9  -8   65.31    8.62
   7   9   8   60.75    9.09
  -7   9  -9   -0.38    1.82
   7   9   9   -2.33    2.74
  -7   9 -10    2.03    1.84
   7   9  10    1.66    2.65
  -7   9 -11   -1.97    1.92
   7   9  11    1.15    1.81
  -7   9 -12   -1.41    2.46
   7   9  12    0.89    2.08
  -7   9 -13   -2.05    2.56
   7   9  13    1.99    2.00
  -7   9 -14    1.50    2.29
   7   9  14   -1.48    2.35
  -7   9 -15    4.57    2.97
  -7   9 -16    1.84    2.27
   7  10 -17   12.18    5.38
   7 -10 -16   14.12    4.75
   7  10 -16    3.91    3.52
   7 -10 -15    0.87    1.26
   7  10 -15    0.23    2.30
   7  10 -14   25.96    7.23
   7  10 -13    8.41    4.01
   7  10 -12    4.84    2.33
   7  10 -11    0.53    1.65
   7  10 -10   52.57    9.65
  -7 -10   9   53.88    7.71
   7  10  -9   57.03    9.85
  -7 -10   8   -0.73    1.65
   7  10  -8    0.37    1.70
  -7 -10   7   13.08    3.87
   7  10  -7   17.87    5.35
  -7 -10   6    0.66    0.95
   7  10  -6    2.97    1.91
   7  10  -5   -0.24    2.06
  -7 -10   5    1.53    1.86
   7  10  -4    2.09    1.96
  -7 -10   4    0.13    0.91
   7  10  -3    1.50    1.97
  -7 -10   3   -0.58    1.65
   7 -10  -2   15.66    5.26
   7  10  -2   16.70    4.46
  -7 -10   2   15.26    4.10
   7 -10  -1   38.36    7.54
   7  10  -1   52.69    6.09
   7  10  -1   41.28    7.13
  -7 -10   1   36.73    6.71
   7  10   0   76.21    7.82
  -7 -10   0   71.11    9.47
  -7  10   0   88.64    7.38
   7 -10   0   68.15   10.04
  -7 -10  -1   31.12    6.20
  -7  10  -1   37.17    5.07
   7  10   1   34.62    5.53
   7 -10   1   38.46    7.52
  -7 -10  -2   42.70    7.57
   7 -10   2   50.87    9.06
  -7  10  -2   52.58    6.36
   7  10   2   44.61    6.39
   7 -10   3   68.50   10.32
  -7 -10  -3   61.52    9.11
   7  10   3   67.72    8.15
  -7  10  -3   71.49    7.86
   7 -10   4   11.30    4.56
  -7 -10  -4    7.52    3.42
  -7  10  -4    4.20    1.95
   7  10   4   10.00    3.20
   7  10   5   99.09   10.55
  -7  10  -5   89.88    9.60
  -7  10  -6    1.68    1.31
   7  10   6    5.24    2.65
   7  10   7    1.10    1.14
  -7  10  -7    4.25    2.37
   7  10   8  327.54   21.17
  -7  10  -8  310.29   19.69
  -7  10  -9   41.90    7.61
   7  10   9   44.74    8.28
  -7  10 -10   -0.55    1.26
   7  10  10   -6.51    3.35
  -7  10 -11   -0.08    1.16
   7  10  11    2.83    2.03
  -7  10 -12   42.46    8.38
   7  10  12   38.64    8.38
  -7  10 -13   -0.12    1.45
   7  10  13   -2.07    2.28
  -7  10 -14    4.32    3.08
   7  10  14    9.22    4.22
  -7  10 -15    1.65    1.54
  -7  10 -16    6.27    3.92
   7  11 -16   24.54    7.94
   7  11 -15   80.18   13.54
   7  11 -14    5.96    3.87
   7  11 -13   -2.05    2.43
   7  11 -12   21.32    6.49
   7  11 -11    4.04    3.08
   7  11 -10    5.04    2.89
   7  11  -9    6.48    3.86
  -7 -11   8   25.31    5.20
   7  11  -8   25.47    6.56
  -7 -11   7   32.78    6.15
   7  11  -7   42.85    8.54
   7  11  -6    7.55    3.45
  -7 -11   6    2.18    1.57
   7  11  -5    8.46    3.41
  -7 -11   5    0.11    1.50
  -7 -11   4   69.33    9.00
   7  11  -4   59.14    9.34
   7  11  -3   -0.39    1.04
  -7 -11   3    3.99    2.46
  -7 -11   2    1.48    1.10
   7 -11  -2    1.12    1.68
   7  11  -2    4.04    2.30
  -7 -11   1    0.68    1.40
   7 -11  -1   -3.45    3.76
   7  11  -1   -1.47    2.09
   7  11  -1    0.52    0.77
  -7 -11   0    7.04    3.40
  -7  11   0    5.88    2.10
   7 -11   0    2.21    2.08
   7  11   0    6.26    2.31
  -7 -11  -1   14.73    4.48
  -7  11  -1   20.34    4.03
   7  11   1   17.64    4.00
   7 -11   1   23.90    6.18
   7  11   2   94.88    9.53
  -7  11  -2   91.93    8.89
  -7 -11  -2   99.72   11.64
   7 -11   2   98.67   12.74
   7 -11   3    3.58    1.78
  -7 -11  -3    3.48    2.90
  -7  11  -3    1.26    1.32
   7  11   3   -0.79    1.74
   7 -11   4   21.19    6.20
  -7  11  -4   19.09    4.48
   7  11   4   25.04    5.29
   7  11   5   86.39   10.08
  -7  11  -5   81.81    9.53
   7  11   6   68.57    9.22
  -7  11  -6   56.23    8.10
  -7  11  -7   15.08    4.31
   7  11   7   13.30    4.34
  -7  11  -8   20.55    5.41
   7  11   8   23.18    5.90
   7  11   9    8.61    3.90
  -7  11  -9    4.84    2.82
   7  11  10   27.34    6.85
  -7  11 -10   31.59    7.00
  -7  11 -11    1.67    1.92
   7  11  11   -4.03    2.89
  -7  11 -12    3.58    2.45
   7  11  12    0.54    1.60
  -7  11 -13   50.58    9.75
   7  11  13   64.36   11.04
  -7  11 -14    5.61    3.49
  -7  11 -15   19.31    6.60
   7  12 -15   12.27    5.47
   7  12 -14    2.43    2.67
   7  12 -13   33.53    8.63
   7  12 -12   -3.56    3.09
   7  12 -11   -1.21    1.47
   7  12 -10    8.84    4.46
   7  12  -9    5.45    3.08
   7  12  -8   62.67   10.70
   7  12  -7    1.35    1.61
  -7 -12   7   -2.07    1.65
   7  12  -6    1.17    1.61
  -7 -12   6   -0.47    0.99
   7  12  -5   36.84    7.67
  -7 -12   5   37.81    6.63
  -7 -12   4    3.25    1.79
   7  12  -4    7.66    3.71
  -7 -12   3   17.65    4.55
   7  12  -3   17.23    5.32
  -7 -12   2   12.83    4.05
   7 -12  -2   11.94    4.91
   7  12  -2   14.34    4.81
   7 -12  -1   18.98    5.41
  -7 -12   1   10.46    3.64
   7  12  -1   18.72    5.34
   7  12   0  162.87   11.40
  -7 -12   0  171.81   15.02
   7 -12   0  152.94   15.87
  -7 -12  -1   27.72    6.13
  -7  12  -1   28.80    5.00
   7 -12   1   32.53    7.55
   7  12   1   31.19    5.23
   7 -12   2    4.29    3.38
  -7 -12  -2    5.33    2.87
  -7  12  -2    3.86    1.78
   7  12   2    7.10    2.76
  -7  12  -3   10.50    3.33
   7 -12   3    9.17    4.13
   7  12   3   18.26    4.38
  -7  12  -4   10.96    3.59
   7 -12   4    7.49    3.34
   7  12   4   13.01    3.73
   7 -12   5    0.45    2.41
  -7  12  -5   -0.61    1.12
   7  12   5    3.14    2.55
  -7  12  -6    2.63    1.78
   7  12   6    2.71    2.39
   7  12   7  100.31   11.73
  -7  12  -7  111.49   12.25
  -7  12  -8    3.81    2.75
   7  12   8   18.28    5.29
  -7  12  -9    4.56    2.54
   7  12   9    0.29    1.87
  -7  12 -10    6.60    3.35
   7  12  10    3.88    2.79
  -7  12 -11    2.12    2.20
   7  12  11    3.65    2.61
   7  12  12   43.49    9.30
  -7  12 -12   39.72    8.66
  -7  12 -13   64.36   11.28
   7  12  13   77.77   12.39
  -7  12 -14    3.74    3.17
  -7  12 -15    4.33    2.67
   7  13 -14    1.75    2.56
   7  13 -13   15.54    6.25
   7  13 -12    1.60    2.19
   7  13 -11   20.62    6.72
   7  13 -10    4.69    3.36
   7  13  -9   11.21    4.85
   7  13  -8   23.05    6.58
   7  13  -7    2.37    2.13
  -7 -13   6   25.53    5.40
   7  13  -6   21.20    6.08
  -7 -13   5    3.29    2.09
   7  13  -5    3.31    2.70
  -7 -13   4    3.08    1.27
   7  13  -4    0.93    1.69
  -7 -13   3  167.51   14.44
   7  13  -3  182.50   17.32
  -7 -13   2   34.28    6.66
   7 -13  -2   27.46    7.01
   7  13  -2   24.17    6.40
   7 -13  -1   20.42    6.16
  -7 -13   1   16.99    4.86
   7  13  -1   18.22    5.50
  -7 -13   0   66.95    9.43
   7 -13   0   88.87   12.25
  -7 -13  -1   22.26    5.64
   7 -13   1   21.89    6.49
   7  13   1   17.84    3.99
   7 -13   2   50.96    9.72
   7  13   2   41.31    6.41
   7  13   3   59.83    7.98
   7 -13   3   57.65   10.27
  -7  13  -3   58.64    8.15
   7 -13   4    2.23    2.33
  -7  13  -4   -0.50    1.21
   7  13   4   -0.77    1.72
   7 -13   5    0.57    2.23
  -7  13  -5    0.90    1.47
   7  13   5    1.97    1.35
  -7  13  -6   22.23    5.59
   7  13   6   13.39    4.34
  -7  13  -7    3.93    2.98
   7  13   7    2.86    2.98
  -7  13  -8    2.46    1.95
   7  13   8    3.40    2.96
  -7  13  -9    9.61    3.85
   7  13   9   11.92    4.56
  -7  13 -10    1.14    1.89
   7  13  10    2.12    2.77
  -7  13 -11   32.04    7.73
   7  13  11   40.97    8.67
  -7  13 -12   -1.25    2.25
   7  13  12    5.05    3.52
  -7  13 -13    4.10    2.63
  -7  13 -14   -1.15    2.00
   7  14 -13   -0.50    1.84
   7  14 -12   36.62    9.37
   7  14 -11    6.71    4.31
   7  14 -10   15.68    6.15
   7  14  -9   40.13    9.35
   7  14  -8    1.37    2.09
   7  14  -7    4.80    2.86
   7  14  -6    1.07    1.85
  -7 -14   5   78.27    9.59
   7  14  -5   75.29   11.88
  -7 -14   4   -1.23    1.02
   7  14  -4   -2.03    3.11
  -7 -14   3    8.45    3.32
   7  14  -3    9.61    4.19
   7  14  -2    9.45    4.60
  -7 -14   2   16.21    4.66
   7 -14  -1   23.72    6.49
  -7 -14   1   20.50    5.23
   7  14  -1    9.14    3.93
   7 -14   0    7.29    3.81
   7 -14   1    1.84    2.26
   7 -14   2   10.46    4.43
   7  14   2   13.98    3.76
   7 -14   3   16.69    5.85
   7  14   3    9.43    3.13
   7 -14   4   83.00   12.86
   7  14   4   99.63   10.79
   7 -14   5    4.78    3.79
   7  14   5    0.56    1.12
   7  14   6   17.01    4.76
   7  14   7   66.88    9.81
  -7  14  -8   20.99    5.99
   7  14   8   18.38    5.33
  -7  14  -9    5.59    3.41
   7  14   9    4.95    3.04
  -7  14 -10   12.65    4.98
   7  14  10    2.91    2.55
  -7  14 -11    5.34    3.57
   7  14  11   10.01    4.42
  -7  14 -12    9.20    4.47
   7  14  12   11.20    4.94
   7  15 -12   49.67   11.15
   7  15 -11    3.67    3.20
   7  15 -10    7.74    4.58
   7  15  -9    9.23    4.22
   7  15  -8    3.10    2.84
   7  15  -7    7.28    3.94
   7  15  -6   -1.93    2.19
   7  15  -5    3.72    3.45
   7  15  -4   69.96   11.62
   7  15  -3    2.78    2.89
   7  15  -2   -3.47    2.68
   7 -15  -1   29.26    7.55
   7  15  -1   35.23    8.09
   7 -15   0    9.22    4.25
   7 -15   1   10.68    4.64
   7 -15   2   39.35    8.90
   7 -15   3   11.64    4.92
   7 -15   4    2.26    2.37
   7  15   4    0.31    1.40
   7 -15   5   -9.51    4.81
   7  15   5   -1.34    1.74
   7 -15   6   15.58    5.95
   7  15   6   12.99    4.39
   7  15   7    2.36    1.90
   7  15   8   -0.02    1.17
   7  15   9    6.76    3.74
   7  15  10  100.23   13.42
   7  15  11   15.17    5.27
   7  16 -10   38.39    9.80
   7  16  -9    2.73    2.50
   7  16  -8    2.32    2.50
   7  16  -7    2.76    2.59
   7  16  -6   82.63   13.36
   7  16  -5    4.76    3.00
   7  16  -4   13.20    5.26
   7  16  -3   -1.91    3.35
   7  16  -2    7.80    3.64
   7 -16  -1   -0.38    1.32
   7 -16   0   38.84    8.75
   7 -16   1    5.58    3.41
   7 -16   2    1.35    1.78
   7 -16   3   14.33    5.78
   7 -16   4   13.38    5.16
   7 -16   5    3.67    2.28
   7  16   5    5.49    3.08
   7 -16   6    1.20    2.00
   7  16   6    0.19    1.42
   7 -16   7    8.53    5.19
   7  16   7    2.90    2.62
   7  16   8  117.71   13.84
   7  16   9   -2.17    2.74
   7  16  10   19.72    6.25
   7  17  -9   -1.84    2.51
   7  17  -8   26.19    8.16
   7  17  -7   10.16    5.41
   7  17  -6    0.70    1.67
   7  17  -5   10.54    4.92
   7  17  -4  121.60   16.21
   7  17  -3   99.64   14.56
   7  17  -2    6.83    4.15
   7 -17  -1    3.49    3.50
   7 -17   0   11.28    4.78
   7 -17   1   37.73    8.89
   7 -17   2    2.43    3.07
   7 -17   3    0.85    1.74
   7 -17   4   -7.11    4.31
   7 -17   5   41.36    9.93
   7 -17   6   19.26    6.88
   7  17   7    2.29    2.29
   7  17   8   19.67    5.74
   7  17   9   37.21    8.22
   7  17  10   23.83    6.79
   7  18  -6    6.89    4.34
   7  18  -5    2.59    2.77
   7  18  -4    6.81    4.22
   7  18  -3   24.23    7.42
   7  18  -2    0.38    1.36
   7 -18  -1   87.28   13.74
   7 -18   0    3.82    3.34
   7 -18   1    0.36    2.14
   7 -18   2    8.12    4.32
   7 -18   3   37.23    9.39
   7 -18   4   49.53   10.86
   7 -19   0    4.02    3.31
   8   0 -18   91.95   12.41
   8   0 -17   -0.41    2.03
   8   0 -16   -1.78    2.44
   8   0 -15    2.16    2.07
   8   0 -14   21.76    5.49
   8   0 -13   -0.92    1.38
   8   0 -12   11.67    4.03
   8   0 -11   -0.58    2.20
   8   0 -10   35.13    6.53
   8   0  -9   -0.29    1.05
   8   0  -9    0.02    1.99
   8   0  -8  151.16   12.45
   8   0  -8  155.49    9.83
   8   0  -7   -0.38    1.70
   8   0  -7    1.21    0.98
   8   0  -6   41.09    6.33
   8   0  -6   38.49    4.01
   8   0  -5    0.21    1.52
   8   0  -5    0.04    0.30
   8   0  -4  131.38   10.58
   8   0  -3    1.04    1.42
   8   0  -2   35.74    5.24
   8   0  -1    1.82    1.09
   8   0   0  132.98    9.74
  -8   0   0  118.97    4.35
   8   0   1   -0.10    1.21
  -8   0  -1    0.14    0.42
   8   0   2   28.82    5.19
   8   0   2   37.59    5.02
  -8   0  -2   30.08    3.51
  -8   0  -3   -2.54    2.13
   8   0   3   -2.13    1.59
   8   0   3    1.02    1.31
   8   0   4  221.55   11.79
  -8   0  -4  228.45   16.45
   8   0   4  189.51   13.49
  -8   0  -5   -0.02    1.13
   8   0   5   -2.47    1.70
  -8   0  -6    2.27    2.26
   8   0   6    0.37    1.07
   8   0   7    1.52    2.37
  -8   0  -7    0.43    1.98
  -8   0  -8    6.24    3.02
   8   0   8    6.45    3.89
  -8   0  -9   -5.93    2.92
   8   0   9    0.41    1.65
  -8   0 -10    5.35    2.75
   8   0  10    3.27    1.53
  -8   0 -11    0.66    1.42
   8   0  11   -4.55    3.04
   8   0  12   -0.42    2.61
   8   0  13   -0.55    2.79
   8   0  14   25.89    7.20
   8   0  15   -0.23    1.86
   8   0  16   69.10   12.04
   8   1 -18   43.84    8.69
   8  -1 -18   32.83    7.35
   8   1 -17    3.06    2.49
   8  -1 -17    3.40    2.80
   8   1 -16  107.68   13.01
   8  -1 -16  100.45   12.26
   8   1 -15    1.33    2.11
   8  -1 -15    0.92    1.32
   8   1 -14   10.31    3.65
   8  -1 -14   11.96    4.61
   8   1 -13    6.29    3.84
   8  -1 -13    0.48    1.30
   8   1 -12   63.71    9.10
   8  -1 -12   65.66    9.09
   8   1 -11    7.58    3.01
   8  -1 -11   11.89    4.06
   8   1 -10    0.49    1.06
   8   1 -10    3.47    2.47
   8  -1 -10    1.12    1.81
   8   1  -9   99.98   10.59
   8  -1  -9   99.51   10.38
   8   1  -9  110.61    9.36
   8   1  -8   18.84    4.62
   8  -1  -8   20.97    4.72
   8   1  -8   25.77    4.26
   8   1  -7   29.92    5.41
   8  -1  -7   39.30    6.07
   8   1  -7   35.22    4.68
   8   1  -6   -0.67    1.80
   8  -1  -6   -0.35    1.53
   8   1  -6    1.07    0.76
   8   1  -5   16.68    4.00
   8  -1  -5   19.60    4.39
   8   1  -5   15.98    2.61
   8   1  -4   94.09    9.14
   8  -1  -4   88.05    8.61
   8   1  -4   90.77    5.41
   8   1  -3   19.50    4.25
   8  -1  -3    9.48    2.71
  -8  -1   2  314.59    7.75
   8   1  -2  302.77   15.74
   8  -1  -2  315.73   15.54
  -8  -1   1   10.11    1.56
   8   1  -1    9.47    2.76
   8  -1  -1    9.83    2.77
   8   1   0    1.70    1.15
   8  -1   0    0.13    1.19
  -8  -1   0    1.67    0.82
   8   1   1    2.63    1.33
  -8   1  -1    4.33    0.70
   8  -1   1    4.66    1.88
   8  -1   1    3.70    1.94
  -8  -1  -1    2.68    0.99
  -8   1  -1    2.91    0.71
   8   1   2   81.02    7.60
   8  -1   2   77.02    7.03
  -8   1  -2   77.56    5.01
  -8  -1  -2   75.33    6.23
   8   1   2   79.81    8.17
   8  -1   2   87.71    9.35
   8   1   3   97.59    8.15
   8  -1   3  102.32    7.91
  -8  -1  -3  111.97   11.65
  -8   1  -3   98.35    6.48
   8   1   3  116.43    9.91
   8  -1   3  106.63   10.35
   8  -1   4   22.96    3.64
   8  -1   4   21.88    4.83
  -8   1  -4   28.75    5.87
  -8  -1  -4   16.27    4.55
   8   1   4   19.79    4.19
   8  -1   5    1.61    1.23
   8   1   5   -1.07    2.24
   8   1   5    5.97    2.40
   8  -1   5    5.81    2.74
  -8   1  -5    0.92    1.32
  -8  -1  -5    3.93    2.07
   8  -1   6   11.15    2.39
   8   1   6   14.78    4.78
  -8   1  -6   15.14    4.25
  -8  -1  -6   10.60    3.71
   8   1   6   11.06    3.28
   8   1   7   62.95    9.25
  -8   1  -7   56.51    8.32
  -8  -1  -7   51.47    8.17
   8  -1   8  178.37   15.98
   8   1   8  212.92   17.28
  -8   1  -8  187.10   15.34
  -8  -1  -8  203.99   16.48
  -8   1  -9   79.20   10.15
  -8  -1  -9   89.79   11.07
   8  -1   9   69.57   10.36
   8   1   9   66.30    9.78
  -8   1 -10   12.74    4.01
  -8  -1 -10   15.89    4.92
   8  -1  10   19.95    6.08
   8   1  10   13.41    4.94
  -8   1 -11   43.12    7.78
   8  -1  11   44.28    8.69
   8   1  11   43.36    8.37
   8  -1  12   12.69    4.53
   8   1  12   18.43    5.80
   8  -1  13   -0.84    1.52
   8   1  13   -1.37    1.95
   8  -1  14   80.48   12.36
   8   1  14   67.96   11.43
   8  -1  15    6.98    3.41
   8   1  15    7.20    3.68
   8  -1  16    5.54    3.83
   8   1  16    8.58    4.74
   8  -2 -18  102.21   12.97
   8   2 -17    2.24    2.13
   8  -2 -17    2.99    2.42
   8   2 -16   22.08    6.15
   8  -2 -16   19.02    5.27
   8   2 -15   -1.44    2.24
   8  -2 -15    4.95    2.87
   8   2 -14   31.77    6.95
   8  -2 -14   47.06    7.90
   8   2 -13    5.84    2.44
   8  -2 -13   18.09    5.00
   8   2 -12   22.71    5.13
   8   2 -12    7.96    3.37
   8  -2 -12   20.42    5.10
   8   2 -11    5.86    2.16
   8   2 -11    5.21    2.66
   8  -2 -11    8.08    3.07
   8   2 -10   31.59    6.42
   8  -2 -10   27.54    5.59
   8   2 -10   19.89    4.34
   8  -2  -9   61.88    8.10
   8   2  -9   67.96    8.83
   8   2  -9   61.88    7.40
   8  -2  -8    1.67    2.18
   8   2  -8   -0.46    1.78
   8   2  -8   -0.15    0.87
   8   2  -7    1.30    1.61
   8  -2  -7    3.81    2.41
   8   2  -7    1.55    1.11
   8   2  -6  112.87   10.50
   8  -2  -6  130.15   10.96
   8   2  -6  125.03    8.91
   8   2  -5  285.81   16.63
   8  -2  -5  270.65   15.48
   8   2  -5  258.72   11.86
   8   2  -4  124.01   10.56
   8  -2  -4  111.98    9.53
   8   2  -4  124.54    7.51
  -8  -2   3    2.06    0.84
   8   2  -3    0.70    1.31
   8  -2  -3    1.82    1.10
  -8  -2   2    1.16    0.63
   8  -2  -2    3.13    1.83
   8   2  -2   -0.41    1.98
  -8  -2   1    7.96    1.80
   8   2  -1   12.24    3.37
   8  -2  -1   10.27    2.68
   8  -2   0  138.99    9.75
  -8  -2   0  133.54    7.92
   8  -2   1   11.96    3.74
   8   2   1   17.69    3.72
   8  -2   1   14.00    3.15
  -8   2  -2    6.38    1.13
   8  -2   2    7.03    2.20
   8  -2   2    8.53    3.31
  -8  -2  -2    3.64    2.28
  -8   2  -2    6.97    1.33
   8   2   3    2.61    1.37
  -8   2  -3    1.72    0.79
   8  -2   3    3.53    1.48
  -8  -2  -3    1.05    1.67
   8  -2   3    2.92    1.99
  -8   2  -4   60.77    4.81
   8  -2   4   53.39    5.55
  -8   2  -4   59.57    8.46
   8   2   4   57.30    8.07
   8  -2   4   57.26    8.11
   8   2   4   54.65    6.59
  -8  -2  -4   67.18    9.29
   8  -2   5   53.08    7.84
   8  -2   5   52.08    5.30
   8   2   5   57.18    8.67
  -8   2  -5   59.81    8.43
   8   2   5   48.91    6.43
  -8  -2  -5   56.06    8.50
   8   2   6   32.11    5.40
   8  -2   6   36.05    4.30
   8   2   6   35.46    6.82
  -8   2  -6   47.28    7.58
  -8  -2  -6   37.07    6.89
   8  -2   7  406.62   13.78
  -8   2  -7  407.77   22.21
   8   2   7  419.93   23.57
  -8  -2  -7  431.55   24.02
  -8  -2  -8   35.91    7.05
   8   2   8   35.19    7.15
  -8   2  -8   32.24    6.29
   8   2   9  156.36   15.00
  -8   2  -9  143.09   13.39
  -8  -2  -9  165.99   15.29
  -8   2 -10    7.20    3.03
   8  -2  10    9.18    4.23
  -8  -2 -10   17.02    5.03
   8   2  10   11.48    4.33
  -8   2 -11   84.09   10.52
   8  -2  11   86.07   12.01
   8   2  11   94.55   12.35
   8  -2  12   -0.01    1.78
   8   2  12    4.59    3.88
   8  -2  13   -0.29    2.06
   8   2  13   -0.43    2.87
   8  -2  14    9.89    4.21
   8   2  14   17.64    5.53
  -8   2 -15    5.09    3.48
   8  -2  15    7.74    4.64
   8   2  15    7.60    4.43
  -8   2 -16    7.71    4.32
   8  -2  16    1.57    1.79
   8   2  16    9.56    5.07
  -8   2 -17    1.86    1.27
   8  -3 -18    4.86    3.11
   8  -3 -17   11.52    4.50
   8  -3 -16   26.16    6.42
   8  -3 -15    7.66    3.37
   8   3 -14   -0.15    2.28
   8  -3 -14    3.63    3.12
   8   3 -13    0.08    1.16
   8   3 -13    2.45    1.74
   8   3 -12    3.82    2.30
   8   3 -12   -1.92    3.04
   8  -3 -12    1.75    2.02
   8   3 -11  126.17   12.93
   8  -3 -11  123.09   11.96
   8   3 -11   99.68   10.62
   8   3 -10   -1.39    1.78
   8  -3 -10    0.55    1.82
   8   3 -10   -0.14    0.86
   8   3  -9   31.81    6.16
   8  -3  -9   43.03    6.74
   8   3  -9   29.41    5.38
   8   3  -8    3.85    2.61
   8  -3  -8    0.15    2.09
   8   3  -8    3.77    2.04
   8  -3  -7   56.07    7.59
   8   3  -7   62.92    8.25
   8   3  -7   46.96    6.10
   8   3  -6    2.14    1.91
   8  -3  -6    2.31    2.26
   8   3  -6    2.62    1.67
   8   3  -5   15.72    3.90
   8  -3  -5   10.81    3.35
   8   3  -5   18.17    3.48
   8   3  -4  104.13   10.14
   8  -3  -4   90.63    8.70
   8   3  -4   98.74    7.51
   8   3  -3  232.69   14.74
   8  -3  -3  223.37   13.32
   8   3  -3  226.11   10.95
   8   3  -2   70.31    7.91
   8  -3  -2   83.85    7.98
   8  -3  -1   12.58    3.18
   8  -3   0    9.70    2.63
   8  -3   0   12.69    3.97
   8  -3   1    1.21    1.63
  -8  -3  -1   -0.81    1.41
   8  -3   1    1.77    1.30
   8  -3   2   15.36    3.13
  -8  -3  -2   10.96    3.65
   8  -3   2   14.52    4.02
  -8   3  -2   11.88    1.51
   8  -3   3   12.84    4.08
  -8   3  -3    9.27    1.71
   8   3   3   10.33    3.36
   8  -3   3    7.54    2.15
  -8  -3  -3    5.87    2.58
   8  -3   4   57.71    5.76
   8   3   4   50.34    7.50
   8   3   4   57.90    6.40
  -8  -3  -4   61.55    8.99
   8  -3   4   58.19    8.37
  -8   3  -4   57.48    4.77
  -8   3  -5   11.32    2.37
   8  -3   5   12.68    2.58
  -8   3  -5    7.14    2.80
   8   3   5   12.88    3.75
   8   3   5    8.25    2.59
   8  -3   5    5.76    2.53
  -8  -3  -5   12.68    4.03
  -8   3  -6    0.70    1.05
   8  -3   6    1.11    1.05
   8   3   6    2.00    1.37
   8   3   6    4.38    2.87
  -8   3  -6   -2.04    2.22
  -8  -3  -6    1.33    1.74
  -8   3  -7  119.66    8.95
   8  -3   7  126.04    7.56
  -8   3  -7  118.50   11.92
   8   3   7  122.33   12.60
  -8  -3  -7  106.33   12.08
   8   3   7  119.06    9.94
  -8  -3  -8   12.85    4.14
  -8   3  -8   11.37    2.93
   8   3   8    9.33    3.50
  -8   3  -8   19.76    4.83
  -8   3  -9    3.91    2.56
  -8   3  -9    6.71    2.70
  -8  -3  -9    5.47    2.85
   8   3   9    1.96    2.00
  -8   3 -10    1.16    1.23
  -8   3 -10    0.65    1.49
  -8  -3 -10    0.75    1.37
   8   3  10    1.00    1.96
  -8   3 -11  248.14   16.09
   8   3  11  223.63   18.99
  -8   3 -11  218.54   16.59
  -8   3 -12   12.82    4.00
   8   3  12    8.59    4.00
  -8   3 -13   43.36    7.46
   8   3  13   24.11    6.54
   8  -3  13   36.77    8.26
  -8   3 -14    0.48    1.31
   8  -3  14    3.88    4.19
   8   3  14    0.80    1.76
  -8   3 -15    3.80    2.97
   8  -3  15    3.99    2.60
   8   3  15    4.87    4.70
  -8   3 -16    2.73    2.59
   8  -3  16   -4.14    3.20
  -8   3 -17    3.68    3.03
   8  -4 -18   -2.41    2.26
   8  -4 -17    1.18    1.38
   8  -4 -16   25.07    6.38
   8  -4 -15   33.78    6.85
   8  -4 -14    8.60    3.46
   8   4 -13   19.20    5.34
   8  -4 -13   17.63    4.81
   8  -4 -12    7.47    3.20
   8   4 -12    4.74    2.90
   8  -4 -11    4.15    2.72
   8   4 -11    4.64    2.61
   8   4 -10   11.36    3.92
   8  -4 -10    8.62    3.47
   8   4 -10   11.07    3.56
   8   4  -9  208.00   15.99
   8  -4  -9  202.75   14.61
   8   4  -9  171.92   13.46
   8   4  -8    7.84    3.19
   8  -4  -8    6.96    3.25
   8   4  -8    7.59    3.32
   8   4  -7   73.04    9.20
   8  -4  -7   67.60    8.11
   8   4  -7   62.57    7.57
   8   4  -6   45.48    7.26
   8  -4  -6   31.85    5.63
   8   4  -6   36.77    5.65
   8  -4  -5    9.64    3.25
   8   4  -5    7.98    2.56
   8  -4  -4  268.49   15.07
   8   4  -4  289.77   14.15
   8  -4  -3    9.75    2.79
   8   4  -3   10.96    2.67
   8  -4  -2  138.44   10.33
   8  -4  -1   82.21    7.78
   8  -4   0   -1.10    1.40
  -8  -4   0    2.61    1.81
   8  -4   0    0.63    0.95
   8  -4   1    2.91    2.25
   8  -4   1   -0.60    1.33
  -8  -4  -1   -0.52    1.01
   8  -4   2    5.37    1.85
  -8  -4  -2   12.10    4.14
   8  -4   2   10.34    3.82
  -8   4  -2    9.53    1.37
  -8   4  -3   18.97    2.62
   8  -4   3   13.52    4.60
   8  -4   3   17.58    3.25
   8   4   3   16.94    4.46
  -8  -4  -3   18.31    4.97
   8  -4   4   35.14    6.70
  -8   4  -4   25.74    3.40
   8  -4   4   28.06    3.97
   8   4   4   23.95    5.28
  -8  -4  -4   27.61    5.99
   8  -4   5  358.95   13.91
  -8   4  -5  376.99   20.81
   8   4   5  373.62   20.93
  -8  -4  -5  390.19   22.96
   8   4   5  346.66   14.61
  -8   4  -5  334.70   13.47
   8  -4   5  300.54   20.00
   8  -4   6   87.80    6.65
  -8   4  -6   84.34    9.87
   8   4   6   88.57   10.46
  -8  -4  -6   86.83   11.00
   8   4   6   90.18    7.87
  -8   4  -6   85.93    7.25
   8  -4   7  109.29    7.10
  -8   4  -7  114.54   11.68
   8   4   7  110.00   12.07
  -8  -4  -7   96.73   11.78
   8   4   7   85.38    7.89
  -8   4  -7  100.98    8.42
  -8   4  -8  118.48   11.85
   8   4   8  109.75   12.45
  -8  -4  -8  105.59   12.38
  -8   4  -8  113.83    9.52
  -8   4  -9   47.54    6.57
  -8  -4  -9   45.05    8.50
  -8   4  -9   61.78    8.63
   8   4   9   33.75    6.99
  -8   4 -10   -1.58    1.07
  -8   4 -10   -2.25    1.64
   8   4  10   -1.06    1.21
  -8   4 -11   53.90    7.62
  -8   4 -11   51.32    7.91
   8   4  11   54.13    9.59
  -8   4 -12    3.24    2.30
   8   4  12    3.78    3.05
  -8   4 -13   31.56    6.37
   8   4  13   38.75    8.51
  -8   4 -14   -1.36    1.58
   8   4  14   -2.06    2.87
  -8   4 -15   13.68    4.73
   8   4  15   20.88    6.76
  -8   4 -16   -2.93    2.47
  -8   4 -17   11.58    4.63
   8  -5 -17   -0.85    1.37
   8  -5 -16   57.21    9.27
   8  -5 -15   32.93    6.89
   8  -5 -14    0.39    1.86
   8   5 -14   -0.05    1.75
   8  -5 -13   -2.10    2.07
   8   5 -13    3.07    2.33
   8  -5 -12   -2.24    2.40
   8   5 -12    0.07    1.23
   8  -5 -11   15.03    4.58
   8   5 -11    9.56    3.53
   8  -5 -10   -1.82    2.03
   8   5 -10    1.63    1.53
   8  -5  -9   53.03    7.63
   8   5  -9   47.21    7.44
   8  -5  -8    4.32    2.95
   8   5  -8    7.41    2.81
   8  -5  -7   80.49    8.80
   8   5  -7   93.24    9.75
   8  -5  -6  342.57   17.88
   8   5  -6  345.70   18.12
   8  -5  -5  440.33   19.84
   8   5  -5  458.86   19.99
   8  -5  -4  208.13   13.40
   8   5  -4  203.30   12.84
   8  -5  -3    6.03    2.44
   8   5  -3    6.61    2.11
   8  -5  -2  102.55    8.94
  -8  -5   1    7.94    3.12
   8  -5  -1    1.76    0.95
   8  -5   0   -0.96    1.67
   8  -5   0   -0.25    0.99
  -8  -5   0   -1.13    2.76
   8  -5   1   30.19    6.10
   8  -5   1   26.59    4.31
  -8  -5  -1   23.73    5.63
   8  -5   2  181.83   10.91
  -8  -5  -2  159.61   14.38
   8   5   2  180.65   13.50
  -8   5  -2  176.82    6.37
   8  -5   2  164.33   14.58
   8  -5   3   91.27    7.51
  -8  -5  -3   93.20   11.11
   8   5   3   89.84    9.77
  -8   5  -3   92.42    6.05
   8  -5   3   93.16   11.07
  -8   5  -4   15.15    2.77
   8  -5   4   10.35    3.90
   8  -5   4   11.11    2.59
   8   5   4   15.60    4.11
  -8  -5  -4   19.93    5.30
  -8  -5  -5   12.22    4.40
  -8   5  -5   10.86    2.58
   8  -5   5   11.04    2.48
   8   5   5   12.10    4.03
   8  -5   5   15.43    4.81
  -8  -5  -6   55.75    9.03
   8  -5   6   53.64    5.23
  -8   5  -6   56.19    8.02
   8   5   6   41.30    7.18
  -8   5  -6   45.95    5.53
   8  -5   7   85.83    6.34
  -8   5  -7  100.10   10.76
   8   5   7   87.28   10.86
  -8  -5  -7   92.69   11.57
  -8   5  -7   96.53    8.55
  -8   5  -8    5.20    2.31
  -8  -5  -8    2.72    2.28
   8   5   8    4.87    3.04
  -8   5  -8    9.55    3.34
  -8   5  -9   -0.75    1.17
  -8  -5  -9    5.97    3.29
   8   5   9    4.12    2.48
  -8   5  -9    2.38    1.54
  -8   5 -10   14.90    4.24
  -8   5 -10   14.37    3.87
   8   5  10   12.18    4.34
  -8   5 -11   20.24    4.82
  -8   5 -11   26.67    5.61
   8   5  11   20.55    6.00
  -8   5 -12   11.31    4.02
   8   5  12   13.97    4.70
  -8   5 -13    8.26    3.24
   8   5  13    8.41    4.20
  -8   5 -14    0.93    1.07
   8   5  14   -0.33    1.50
  -8   5 -15    7.48    3.50
   8   5  15    5.98    2.33
  -8   5 -16   46.64    9.13
  -8   5 -17   12.68    5.15
   8  -6 -17    1.96    1.93
   8  -6 -16   -0.16    1.13
   8  -6 -15    2.27    2.62
   8   6 -15    5.04    2.57
   8  -6 -14   18.78    5.18
   8   6 -14   23.49    6.08
   8  -6 -13  101.30   11.54
   8   6 -13   87.22   11.75
   8  -6 -12   34.29    6.44
   8   6 -12   43.03    8.07
   8  -6 -11   15.23    4.44
   8   6 -11    4.18    2.26
   8  -6 -10   17.43    4.45
   8   6 -10   12.39    4.34
   8  -6  -9    9.29    3.57
   8   6  -9    7.39    2.98
   8  -6  -8   48.33    7.24
   8   6  -8   41.31    7.02
   8  -6  -7   87.48    9.49
   8   6  -7  105.29   10.88
   8  -6  -6   18.14    4.27
   8   6  -6   12.70    3.85
   8   6  -5  138.36   11.65
   8   6  -4  314.09   17.05
   8   6  -3  182.20   12.68
  -8  -6   2   36.30    6.79
   8   6  -2   35.95    5.59
   8  -6  -1   18.79    5.20
  -8  -6   1   17.28    4.79
  -8  -6   0  407.68   22.96
   8  -6   0  396.73   22.86
   8   6   1   80.50    8.76
   8  -6   1   66.19    9.40
  -8  -6  -1   68.50    9.60
   8   6   2  176.51   13.45
  -8  -6  -2  179.42   15.33
   8  -6   2  181.57   15.70
   8  -6   3    0.51    1.35
   8  -6   3    1.26    2.47
   8   6   3   -0.70    1.45
  -8   6  -3   -0.17    0.59
  -8  -6  -3   -2.56    2.80
   8  -6   4  130.64    9.02
   8   6   4  120.58   11.67
  -8  -6  -4  128.56   13.36
  -8   6  -4  147.99    9.11
   8  -6   4  123.96   13.39
   8  -6   5   65.76    9.92
  -8  -6  -5   62.33    9.41
   8  -6   5   64.75    6.15
   8   6   5   51.09    7.90
  -8   6  -5   67.61    6.66
   8  -6   6   75.76    6.39
  -8   6  -6   97.01   10.46
   8   6   6   81.04   10.17
  -8  -6  -6   89.33   11.34
  -8   6  -6   83.13    7.84
  -8   6  -7   40.93    5.85
  -8  -6  -7   52.66    8.93
  -8   6  -7   41.25    6.81
   8   6   7   44.94    7.97
  -8   6  -8    1.34    1.31
  -8  -6  -8    1.75    1.91
   8   6   8    2.92    2.40
  -8   6  -8    1.74    1.17
  -8   6  -9   -1.94    1.76
   8   6   9   -0.12    2.31
  -8   6  -9   -0.03    0.79
  -8   6 -10    9.70    3.50
  -8   6 -10   14.39    3.91
   8   6  10   20.75    5.79
  -8   6 -11   48.33    7.63
   8   6  11   50.26    9.16
  -8   6 -12   -2.11    1.96
   8   6  12   -0.46    1.78
  -8   6 -13   16.27    4.88
   8   6  13   18.80    6.25
  -8   6 -14    5.87    3.28
   8   6  14    6.46    3.69
  -8   6 -15   -0.73    1.26
   8   6  15   -0.81    2.51
  -8   6 -16    1.87    1.91
  -8   6 -17   -1.58    2.32
   8  -7 -16    2.96    2.19
   8  -7 -15    1.11    1.13
   8   7 -15   -0.20    1.71
   8  -7 -14    9.52    3.81
   8   7 -14    3.73    2.86
   8  -7 -13   12.23    4.33
   8   7 -13    4.55    2.88
   8  -7 -12    6.08    2.75
   8   7 -12    9.46    4.18
   8  -7 -11    2.60    1.98
   8   7 -11   -2.35    2.06
   8  -7 -10    3.58    2.02
   8   7 -10    2.59    2.23
   8  -7  -9   43.94    6.89
   8   7  -9   31.13    6.46
   8   7  -8    0.70    1.16
   8   7  -7   48.90    7.70
   8   7  -6  333.70   19.67
   8   7  -5   17.94    4.59
   8   7  -4   15.34    4.21
  -8  -7   3    3.58    2.55
   8   7  -3    0.93    0.85
  -8  -7   2  125.73   12.71
   8   7  -2  137.48   11.53
   8  -7  -1    0.21    1.52
  -8  -7   1   -0.95    2.03
   8  -7   0    2.72    2.33
  -8  -7   0   10.56    4.19
   8  -7   1   32.26    6.80
   8   7   1   19.08    4.31
  -8  -7  -1   21.68    5.37
   8   7   2  143.48   12.03
  -8  -7  -2  119.33   12.68
   8  -7   2  138.18   14.33
   8  -7   3   45.95    8.14
   8   7   3   38.48    6.39
  -8  -7  -3   40.79    7.45
  -8  -7  -4   19.05    5.33
   8  -7   4   10.80    4.29
   8   7   4   15.85    4.49
  -8   7  -4   15.07    3.05
  -8  -7  -5    9.22    4.26
   8  -7   5   10.37    4.34
   8   7   5   12.42    3.94
  -8   7  -5   10.62    2.80
   8  -7   6  379.98   14.80
  -8   7  -6  411.45   21.34
   8   7   6  407.61   22.74
  -8  -7  -6  384.54   23.98
  -8   7  -6  377.11   17.56
  -8   7  -7   96.26   10.31
  -8  -7  -7   83.47   11.35
   8   7   7   74.37   10.12
  -8   7  -7   72.73    8.15
  -8   7  -8    7.09    2.48
  -8  -7  -8    3.32    1.56
  -8   7  -8   13.30    3.88
   8   7   8   10.00    4.27
  -8   7  -9    6.18    2.62
   8   7   9    2.79    2.05
  -8   7 -10   15.57    4.41
   8   7  10   25.44    6.51
  -8   7 -11    0.53    0.98
   8   7  11    0.37    2.20
  -8   7 -12   12.11    3.94
   8   7  12   21.25    6.23
  -8   7 -13   -2.12    2.04
   8   7  13    2.61    1.82
  -8   7 -14    7.42    3.45
   8   7  14    6.61    3.43
  -8   7 -15   -1.73    2.15
  -8   7 -16   91.71   13.12
   8  -8 -16   -1.74    2.07
   8   8 -16   -7.95    4.25
   8  -8 -15   25.69    6.40
   8   8 -15   13.20    5.09
   8  -8 -14   16.83    4.98
   8   8 -14    6.17    2.90
   8  -8 -13   43.86    7.97
   8   8 -13   54.07    9.83
   8  -8 -12    9.32    4.05
   8   8 -12    9.85    4.20
   8  -8 -11   -1.74    2.24
   8   8 -11    3.91    2.88
   8   8 -10    2.65    2.51
   8   8  -9   47.10    8.28
   8   8  -8   13.11    4.48
   8   8  -7    3.70    2.43
   8   8  -6   56.87    8.54
  -8  -8   5   59.24    8.73
   8   8  -5   48.62    7.67
  -8  -8   4  492.86   25.08
   8   8  -4  498.56   24.06
   8   8  -3    2.85    2.60
  -8  -8   3   -0.76    1.45
   8   8  -2   -0.55    1.28
  -8  -8   2   -0.04    1.53
  -8  -8   1   30.19    6.38
   8  -8  -1   43.10    8.11
   8   8   0  280.89   15.86
  -8  -8   0  271.08   18.89
   8  -8   0  284.32   20.44
   8  -8   1   56.24    9.19
   8   8   1   54.48    7.24
  -8  -8  -1   55.75    8.67
   8   8   2   40.77    6.60
  -8  -8  -2   52.19    8.43
   8  -8   2   55.04    9.22
  -8  -8  -3   29.28    6.63
   8  -8   3   34.70    7.18
   8   8   3   27.91    5.78
  -8  -8  -4   57.56    9.19
   8  -8   4   59.45    9.91
   8   8   4   53.91    7.92
   8  -8   5   23.46    6.66
  -8  -8  -5   22.79    5.91
   8   8   5   37.03    6.74
  -8   8  -5   22.43    4.30
  -8   8  -6  158.29   13.11
   8   8   6  149.41   13.86
  -8  -8  -6  143.88   14.95
  -8   8  -6  164.65   12.09
  -8   8  -7   12.69    3.54
  -8  -8  -7   21.84    5.83
  -8   8  -7   19.02    4.53
   8   8   7   18.32    5.02
  -8   8  -8    4.82    2.51
  -8   8  -8    3.60    2.30
   8   8   8   10.18    4.39
  -8   8  -9   -0.89    2.18
   8   8   9   -5.36    3.01
  -8   8 -10   17.83    4.70
   8   8  10   23.62    6.32
  -8   8 -11   -0.77    1.54
   8   8  11   -0.55    1.39
  -8   8 -12    6.14    2.87
   8   8  12    5.18    3.09
  -8   8 -13   12.31    4.43
   8   8  13    8.47    4.39
  -8   8 -14    6.94    3.56
   8   8  14   20.09    6.53
  -8   8 -15   10.07    4.35
  -8   8 -16   -1.69    2.21
   8   9 -16   11.46    5.24
   8  -9 -15   27.99    6.66
   8   9 -15   19.86    6.65
   8  -9 -14   -0.33    2.06
   8   9 -14    7.35    3.30
   8  -9 -13   17.85    5.20
   8   9 -13    7.69    3.74
   8  -9 -12    1.61    1.69
   8   9 -12   10.44    4.83
   8   9 -11   29.26    7.03
   8   9 -10   13.97    4.97
   8   9  -9    1.02    1.40
   8   9  -8   40.84    8.08
  -8  -9   7  149.72   13.77
   8   9  -7  147.78   14.76
  -8  -9   6   91.53   10.86
   8   9  -6   77.28   10.37
  -8  -9   5  113.55   12.12
   8   9  -5  111.28   12.06
  -8  -9   4   66.12    9.41
   8   9  -4   93.34   10.85
  -8  -9   3  132.16   13.16
   8   9  -3  114.90   11.87
  -8  -9   2  246.85   18.13
   8   9  -2  239.01   16.95
   8  -9  -1   13.23    4.85
  -8  -9   1    3.66    2.11
   8  -9   0   -0.70    2.79
   8   9   0   -0.56    1.55
  -8  -9   0    0.91    1.96
   8  -9   1   35.54    7.54
   8   9   1   32.68    5.63
  -8  -9  -1   36.19    6.99
  -8  -9  -2   49.37    8.30
   8   9   2   53.51    7.49
   8  -9   2   54.02    9.43
  -8  -9  -3   45.94    8.18
   8  -9   3   48.09    8.91
   8   9   3   50.61    7.45
   8  -9   4   44.11    8.42
  -8  -9  -4   53.53    8.92
   8   9   4   52.38    7.81
  -8  -9  -5   24.57    6.30
   8   9   5   17.92    4.68
   8  -9   5   20.36    6.10
  -8  -9  -6   25.02    6.44
   8   9   6   19.74    5.06
  -8   9  -7    8.51    3.07
   8   9   7   10.42    3.53
  -8   9  -7   12.39    3.63
  -8   9  -8    0.80    1.08
   8   9   8    3.75    2.73
  -8   9  -9   12.64    3.92
   8   9   9   10.96    4.51
  -8   9 -10   -0.46    1.45
   8   9  10    2.13    1.46
  -8   9 -11   42.20    7.74
   8   9  11   46.27    9.62
  -8   9 -12   13.47    4.46
   8   9  12   13.07    4.98
  -8   9 -13    1.87    1.49
   8   9  13   10.29    4.65
  -8   9 -14    3.63    2.87
  -8   9 -15   24.18    6.85
   8  10 -15    0.02    2.63
   8 -10 -14    5.40    3.16
   8  10 -14   -4.72    3.41
   8 -10 -13   38.73    7.71
   8  10 -13   29.15    7.66
   8  10 -12    4.17    3.12
   8  10 -11    2.50    2.31
   8  10 -10    5.74    3.58
  -8 -10   9   18.74    4.92
   8  10  -9   27.98    6.86
  -8 -10   8    3.21    1.82
   8  10  -8    2.93    2.14
  -8 -10   7   11.83    3.87
   8  10  -7   11.85    4.25
  -8 -10   6   44.64    7.56
   8  10  -6   34.42    7.36
   8  10  -5   34.00    6.99
  -8 -10   5   26.68    5.91
   8  10  -4    2.66    1.75
  -8 -10   4    9.93    3.71
   8  10  -3    6.86    3.09
  -8 -10   3   13.21    4.62
   8  10  -2   47.21    7.96
  -8 -10   2   39.86    7.35
  -8 -10   1  194.79   16.39
   8 -10  -1  238.54   19.70
  -8 -10   0   -0.21    2.19
   8 -10   0    1.46    2.32
   8  10   0   -0.13    0.90
  -8 -10  -1   -3.08    2.24
   8 -10   1    0.95    2.16
   8  10   1   -0.91    0.84
  -8 -10  -2   -1.26    1.32
   8  10   2    0.88    2.10
   8 -10   2    0.60    2.66
  -8 -10  -3   29.94    6.66
   8 -10   3   23.18    6.23
   8  10   3   31.01    5.83
   8 -10   4    5.24    3.31
  -8 -10  -4    9.27    3.85
   8  10   4    3.04    1.35
   8 -10   5   14.73    5.43
  -8 -10  -5   16.33    5.11
   8  10   5   17.16    4.89
   8  10   6   19.12    5.22
   8  10   7   24.97    5.86
   8  10   8  149.12   14.98
   8  10   9    9.70    4.52
   8  10  10    0.23    1.63
   8  10  11   54.52    9.99
   8  10  12    5.71    2.54
   8  10  13   65.22   11.56
   8  11 -15    6.79    3.91
   8  11 -14    8.50    4.69
   8  11 -13    1.43    2.26
   8  11 -12    0.98    1.33
   8  11 -11   14.64    5.67
   8  11 -10    2.95    2.63
   8  11  -9    2.08    2.76
  -8 -11   8   63.70    9.01
   8  11  -8   46.38    8.97
   8  11  -7   12.25    4.71
  -8 -11   7   12.26    3.96
   8  11  -6    9.89    4.00
  -8 -11   6    5.09    2.62
   8  11  -5   27.80    6.42
  -8 -11   5   37.86    7.11
   8  11  -4    1.01    1.44
  -8 -11   4    5.77    3.07
   8  11  -3   -0.79    2.10
  -8 -11   3    0.79    1.98
  -8 -11   2  137.03   13.76
   8  11  -2  129.16   13.71
   8 -11  -1   41.23    8.71
  -8 -11   1   23.85    5.91
  -8 -11   0    6.06    3.08
   8 -11   0    8.99    4.35
   8  11   0    4.05    2.02
  -8 -11  -1    0.23    1.33
   8 -11   1   -1.57    2.34
   8  11   1   -0.62    1.51
  -8 -11  -2   -2.82    2.02
   8  11   2    2.21    1.45
   8 -11   2   -1.07    1.46
   8 -11   3   74.86   11.61
   8  11   3   80.86    9.54
  -8 -11  -3   84.76   11.43
  -8 -11  -4    0.63    0.90
   8  11   4   -0.54    1.25
   8 -11   4    1.65    2.50
   8  11   5    6.70    3.47
   8 -11   5    2.10    1.88
   8  11   6   75.78   10.11
   8 -11   6   80.85   12.94
   8  11   7   17.49    5.13
   8  11   8   16.81    5.26
   8  11   9   26.11    6.64
   8  11  10  161.72   16.71
   8  11  11   32.33    7.96
   8  11  12    6.61    4.29
   8  12 -14    4.08    3.24
   8  12 -13   14.54    5.91
   8  12 -12   18.60    6.44
   8  12 -11   14.16    5.91
   8  12 -10   47.09    9.59
   8  12  -9    7.08    3.98
   8  12  -8    8.63    4.11
   8  12  -7    1.52    1.29
  -8 -12   7   -0.07    0.90
   8  12  -6   32.94    7.48
  -8 -12   6   41.54    7.37
   8  12  -5    6.12    3.19
  -8 -12   5    0.40    1.14
   8  12  -4   58.44    9.69
  -8 -12   4   58.00    8.90
  -8 -12   3    2.62    2.27
   8  12  -3    1.74    1.45
  -8 -12   2    0.23    1.52
   8  12  -2   -1.32    2.23
   8 -12  -1    0.55    1.31
  -8 -12   1   -0.05    1.43
  -8 -12   0   47.13    8.43
   8 -12   0   64.89   10.88
  -8 -12  -1   12.95    4.41
   8 -12   1    3.19    2.24
   8  12   1   15.95    4.02
  -8 -12  -2    0.58    1.96
   8  12   2    1.03    1.22
   8 -12   2    0.01    1.92
   8 -12   3   41.50    9.09
  -8 -12  -3   38.14    7.88
   8  12   3   28.54    5.80
   8 -12   4   77.62   12.40
   8  12   4   57.65    8.41
   8 -12   5   68.35   11.78
   8  12   5   50.52    8.16
   8 -12   6    1.72    2.59
   8  12   6    0.08    1.80
   8  12   7   22.55    5.64
   8  12   8  143.84   14.97
   8  12   9   11.01    4.87
   8  12  10    0.36    1.62
   8  12  11   35.65    8.21
   8  12  12   13.86    5.28
   8  13 -14    3.09    3.15
   8  13 -13    1.06    2.12
   8  13 -12   51.79   10.89
   8  13 -11    6.50    3.85
   8  13 -10   10.45    5.07
   8  13  -9    0.15    1.36
   8  13  -8   14.54    5.30
   8  13  -7   -5.07    3.22
   8  13  -6    4.71    3.51
  -8 -13   6   -0.17    0.80
  -8 -13   5    5.62    2.74
   8  13  -5    7.95    3.67
  -8 -13   4   -0.46    1.72
   8  13  -4    1.29    1.90
  -8 -13   3   11.44    4.00
   8  13  -3   16.27    5.28
  -8 -13   2   12.88    4.25
   8  13  -2   14.75    5.14
   8 -13  -1   12.69    4.77
  -8 -13   1   10.71    4.17
   8 -13   0    4.27    2.96
  -8 -13   0    3.02    2.81
  -8 -13  -1   17.47    5.40
   8 -13   1   25.29    7.18
  -8 -13  -2   51.47    8.96
   8  13   2   58.21    7.91
   8 -13   2   49.35    9.68
   8 -13   3    6.67    3.50
   8  13   3    5.75    2.55
   8 -13   4   32.38    8.07
   8  13   4   25.27    5.64
   8 -13   5    2.21    2.27
   8  13   5    4.13    2.54
   8 -13   6    1.09    1.77
   8  13   6    1.53    1.34
   8  13   7    4.33    2.74
   8  13   8   37.59    7.74
   8  13   9    1.45    2.26
   8  13  10   16.71    5.57
   8  13  11   20.57    6.38
   8  14 -13    4.77    3.67
   8  14 -12    4.63    3.57
   8  14 -11   10.94    5.04
   8  14 -10    1.33    2.25
   8  14  -9    3.20    2.84
   8  14  -8   15.08    5.64
   8  14  -7    3.08    2.85
   8  14  -6    2.95    2.17
  -8 -14   5   27.64    6.06
   8  14  -5   29.01    7.45
  -8 -14   4    5.10    2.81
   8  14  -4    2.61    2.59
  -8 -14   3   11.07    4.13
   8  14  -3    3.07    2.15
  -8 -14   2   10.11    4.05
   8  14  -2   12.75    4.88
  -8 -14   1   25.03    6.15
   8 -14  -1   48.11    9.91
   8 -14   0    6.28    3.35
  -8 -14   0    4.18    2.89
   8 -14   1   27.60    7.51
   8 -14   2    5.32    3.91
   8 -14   3    4.84    3.62
   8 -14   4   29.74    8.04
   8  14   4   27.98    6.03
   8  14   5   -0.93    1.70
   8 -14   5    0.16    2.97
   8 -14   6   -0.78    1.74
   8  14   6    4.26    2.86
   8 -14   7    3.16    3.52
   8  14   7    0.52    1.81
   8  14   8    4.93    3.28
   8  14   9    0.86    1.71
   8  14  10   -5.55    3.35
   8  14  11   23.97    6.97
   8  15 -11   25.42    7.83
   8  15 -10    0.01    1.37
   8  15  -9    2.93    2.92
   8  15  -8   -2.82    2.81
   8  15  -7    3.77    3.08
   8  15  -6   13.62    5.55
   8  15  -5   -0.04    1.77
   8  15  -4    5.73    4.17
  -8 -15   3   14.94    4.72
   8  15  -3    9.68    4.19
  -8 -15   2    6.81    3.22
   8  15  -2   16.92    5.76
   8 -15  -1   48.94   10.00
   8 -15   0   -1.07    2.30
   8 -15   1   77.16   12.66
   8 -15   2    4.18    2.54
   8 -15   3    1.23    2.18
   8 -15   4   -2.48    2.53
   8 -15   5   12.97    5.73
   8  15   5    5.07    2.78
   8 -15   6   -1.67    2.53
   8  15   6    5.57    3.13
   8 -15   7    6.71    4.21
   8  15   7    1.32    1.47
   8  15   8   -0.73    2.30
   8  15   9    8.03    4.01
   8  15  10   -7.73    4.07
   8  16 -10   -2.82    3.44
   8  16  -9   14.84    6.07
   8  16  -8   28.02    8.04
   8  16  -7    2.31    1.65
   8  16  -6    4.80    3.45
   8  16  -5    5.40    3.44
   8  16  -4    5.98    3.41
   8  16  -3    1.10    1.53
   8  16  -2    4.49    2.78
   8 -16  -1   -1.36    2.01
   8 -16   0   13.13    5.68
   8 -16   1    3.20    3.43
   8 -16   2   14.67    5.75
   8 -16   3    0.03    1.51
   8 -16   4    1.08    1.90
   8 -16   5   22.97    7.54
   8 -16   6    6.99    4.34
   8  16   7   11.56    4.48
   8  16   8    3.06    2.65
   8  16   9    3.18    2.96
   8  17  -7   30.03    8.70
   8  17  -6   -3.16    2.89
   8  17  -5    3.78    2.65
   8  17  -4   -3.37    2.94
   8  17  -3    3.77    3.25
   8 -17   0    2.02    2.49
   8 -17   1   -7.92    4.50
   8 -17   2   19.29    6.80
   8 -17   3   13.11    5.99
   8  18  -4   48.05   10.70
   8  18  -3   19.15    7.04
   9   0 -17   60.63   10.39
   9   0 -16    0.61    1.69
   9   0 -15   -0.66    1.54
   9   0 -14    3.90    2.59
   9   0 -13   88.79   11.42
   9   0 -12    2.59    2.51
   9   0 -11   68.91    9.51
   9   0 -10   -0.72    2.50
   9   0  -9    5.99    2.06
   9   0  -8   -0.72    1.76
   9   0  -7   -0.97    2.33
   9   0  -6   -2.14    2.54
   9   0  -5  160.37   12.63
   9   0  -4   -0.76    1.55
   9   0  -3  538.41   22.55
   9   0  -2    1.64    1.88
   9   0  -1   22.60    4.55
   9   0   0   -1.21    1.92
   9   0   1  289.26   15.29
   9   0   2   -0.92    1.45
   9   0   3   19.25    4.69
  -9   0  -3   18.35    5.07
   9   0   3   17.42    3.83
   9   0   4    0.59    0.98
   9   0   4    0.19    1.26
  -9   0  -4   -2.28    2.56
  -9   0  -5  299.17   20.63
   9   0   5  276.38   17.56
   9   0   6    1.06    1.16
  -9   0  -6   -0.55    2.13
   9   0   7    3.87    2.40
  -9   0  -7    5.01    2.56
  -9   0  -8    0.52    1.88
   9   0   9  210.96   18.61
  -9   0  -9  230.38   18.63
  -9   0 -10    0.35    1.32
   9   0  10   -2.07    1.90
  -9   0 -11    2.79    2.93
   9   0  11   -0.88    1.46
   9   0  12    0.23    2.06
   9   0  13   25.78    7.19
   9   0  14   -5.02    3.61
   9   0  15   13.56    5.79
   9   1 -17    5.34    3.93
   9   1 -16    1.55    2.18
   9  -1 -16    1.28    1.63
   9   1 -15   57.09    9.72
   9  -1 -15   61.17    9.90
   9   1 -14   -3.17    2.57
   9  -1 -14    2.40    2.59
   9   1 -13    0.48    2.23
   9  -1 -13   -0.63    1.39
   9   1 -12    8.44    3.79
   9  -1 -12    9.40    3.46
   9   1 -11  108.03   12.07
   9  -1 -11   98.94   11.46
   9   1 -10   30.69    6.30
   9  -1 -10   27.33    5.87
   9   1  -9   71.40    9.42
   9  -1  -9   56.64    8.06
   9   1  -8   -2.03    3.07
   9  -1  -8   -0.92    1.41
   9   1  -7   19.90    4.80
   9  -1  -7   24.15    5.36
   9   1  -6   25.71    5.34
   9  -1  -6   27.50    5.33
   9   1  -5   -0.26    1.75
   9  -1  -5   -0.97    2.23
   9   1  -4   -2.52    2.27
   9  -1  -4   -0.22    1.66
   9   1  -3   38.27    6.08
   9  -1  -3   30.16    5.29
   9   1  -2   11.74    3.48
   9  -1  -2    8.10    2.68
   9   1  -1  224.72   14.30
   9  -1  -1  243.04   14.23
   9   1   0   10.63    3.19
   9  -1   0   15.00    3.63
   9   1   1   19.16    4.06
   9  -1   1   24.94    4.65
   9  -1   2   37.62    6.50
   9   1   2   35.84    5.48
   9  -1   2   40.88    5.59
   9  -1   3  213.56   12.50
  -9  -1  -3  225.69   17.83
   9   1   3  210.80   14.19
   9  -1   3  217.00   15.54
   9  -1   4   -1.02    0.90
   9   1   4   -0.22    0.86
  -9   1  -4   -0.02    1.66
  -9  -1  -4    0.22    1.47
   9  -1   4   -1.37    1.97
   9  -1   5  177.15   11.01
  -9   1  -5  173.18   15.51
  -9  -1  -5  166.77   15.52
   9   1   5  158.98   12.79
   9  -1   5  150.20   13.50
   9   1   6    9.39    3.14
  -9   1  -6    7.71    3.51
  -9  -1  -6    9.03    3.93
   9  -1   6   12.96    3.95
   9   1   7   33.79    6.14
   9   1   7   33.53    7.21
   9  -1   7   26.20    5.82
  -9   1  -7   29.36    6.70
  -9  -1  -7   39.87    7.72
  -9  -1  -8    0.12    1.37
   9   1   8   -0.51    1.80
   9   1   8    0.48    1.83
  -9   1  -8    0.45    1.13
  -9   1  -9    0.49    1.57
  -9  -1  -9    3.61    2.98
   9   1   9   -3.20    2.59
  -9   1 -10   -0.91    2.13
  -9  -1 -10    1.81    2.11
   9   1  10    2.49    3.24
  -9   1 -11   16.27    5.15
   9  -1  11    7.81    4.08
  -9  -1 -11   13.33    4.90
   9   1  11   13.51    5.33
   9  -1  12   14.64    5.59
   9   1  12   13.01    4.53
   9  -1  13    5.17    3.25
   9   1  13    6.08    3.76
   9  -1  14    1.93    2.07
   9   1  14   -1.60    2.38
   9  -1  15   21.28    6.91
   9   2 -16    8.72    4.51
   9  -2 -16   13.30    4.79
   9   2 -15    5.03    3.50
   9  -2 -15   -0.56    2.09
   9   2 -14   -2.80    3.35
   9  -2 -14   -2.38    2.62
   9   2 -13    8.59    3.77
   9  -2 -13   -0.40    1.73
   9   2 -12   25.35    6.16
   9  -2 -12   34.07    6.88
   9   2 -11    3.93    2.02
   9  -2 -11    9.49    3.76
   9   2 -10   -2.79    2.79
   9  -2 -10    1.50    2.09
   9   2  -9   24.31    5.60
   9  -2  -9   19.99    5.18
   9   2  -8  100.42   11.02
   9  -2  -8  105.79   11.17
   9   2  -7    3.51    2.29
   9  -2  -7    8.22    3.30
   9  -2  -6   57.79    7.77
   9   2  -6   60.53    8.43
   9   2  -5  176.94   13.88
   9  -2  -5  147.74   11.99
   9   2  -4  301.25   17.77
   9  -2  -4  317.28   17.31
   9   2  -3    9.82    2.85
   9  -2  -3   17.53    4.19
   9   2  -2   69.36    8.23
   9  -2  -2   76.41    8.09
   9   2  -1   -6.76    2.73
   9  -2  -1    0.99    1.34
   9   2   0    4.62    2.16
   9  -2   0    5.85    2.05
   9  -2   1    3.34    1.84
   9  -2   2   18.81    4.63
   9  -2   2   21.35    4.03
  -9  -2  -2   27.16    6.29
   9  -2   3   11.20    2.91
   9  -2   3   13.32    4.23
  -9  -2  -3   15.25    4.55
   9  -2   4   52.52    5.92
  -9   2  -4   52.14    8.39
   9   2   4   49.56    6.61
  -9  -2  -4   52.05    8.69
   9  -2   4   50.45    7.98
   9  -2   5   96.20    7.95
  -9   2  -5  105.89   12.09
  -9  -2  -5  108.64   12.61
   9   2   5   90.29    9.08
   9  -2   5   80.99   10.28
   9  -2   6   23.00    3.76
  -9   2  -6   27.12    3.91
   9  -2   6   19.83    5.25
   9   2   6   21.69    5.50
  -9   2  -6   20.40    5.46
   9   2   6   21.70    4.53
  -9  -2  -6   26.14    6.42
   9   2   7  156.65   15.29
  -9   2  -7  128.33   13.43
  -9  -2  -7  138.33   14.49
   9   2   7  150.46   12.29
   9  -2   7  159.84   14.84
  -9  -2  -8    7.28    3.80
   9   2   8   11.49    4.35
   9   2   8   12.34    3.76
  -9   2  -8   11.35    4.09
  -9  -2  -9   83.29   11.49
   9   2   9   94.20   12.45
  -9   2  -9  108.63   12.53
   9   2  10  104.64   13.30
  -9   2 -10   81.37   10.89
  -9  -2 -10   99.02   12.66
  -9   2 -11   12.72    4.33
  -9  -2 -11   27.39    6.86
   9   2  11   21.17    6.51
  -9   2 -12    4.45    2.79
   9   2  12    8.41    4.03
  -9   2 -13   30.83    6.33
   9   2  13   18.86    6.05
  -9   2 -14   -1.14    1.59
   9  -2  14   -0.13    1.54
   9   2  14   -1.68    3.07
  -9   2 -15    8.83    4.00
   9  -2  15    1.96    1.86
  -9   2 -16   18.47    5.57
   9  -3 -16    3.85    3.12
   9  -3 -15    1.08    1.83
   9   3 -14    0.53    1.77
   9  -3 -14    3.39    2.22
   9   3 -13   -0.76    2.05
   9  -3 -13   -2.20    2.70
   9   3 -12    2.32    1.85
   9  -3 -12    1.21    1.65
   9   3 -11   45.73    8.07
   9  -3 -11   55.87    8.68
   9   3 -10  126.06   13.36
   9  -3 -10  143.56   13.39
   9   3  -9   44.27    7.81
   9  -3  -9   40.98    7.12
   9   3  -8   -2.10    1.74
   9  -3  -8   -1.06    1.85
   9   3  -7   12.17    4.14
   9  -3  -7   12.09    3.61
   9   3  -6  213.42   16.00
   9  -3  -6  209.12   14.62
   9   3  -5   30.91    6.08
   9  -3  -5   38.26    6.00
   9   3  -4    8.33    3.19
   9  -3  -4    4.89    2.50
   9   3  -3    3.29    2.00
   9  -3  -3   -0.19    1.70
   9   3  -2   30.75    5.60
   9  -3  -2   30.30    5.04
   9  -3  -1   -1.32    1.52
   9  -3   0   69.09    7.37
   9  -3   1    1.88    1.48
  -9  -3  -1    2.27    1.93
   9  -3   1   -0.79    2.46
   9  -3   2    0.71    2.24
   9  -3   2    2.45    1.68
  -9  -3  -2    0.65    1.25
   9  -3   3   24.02    4.19
   9  -3   3   20.55    5.45
  -9  -3  -3   22.72    5.78
   9  -3   4  113.07    8.79
  -9  -3  -4  122.04   13.35
   9  -3   4  102.52   11.77
   9   3   5   27.87    4.81
   9  -3   5   32.13    4.55
   9   3   5   26.92    6.08
  -9   3  -5   20.94    5.41
   9  -3   5   27.53    6.12
  -9  -3  -5   28.04    6.57
   9  -3   6   -1.00    0.94
   9   3   6    0.61    1.17
   9   3   6    0.42    2.03
  -9   3  -6   -5.59    3.00
   9  -3   6   -0.09    2.10
  -9  -3  -6    1.09    2.67
  -9  -3  -7    4.37    2.13
  -9   3  -7    4.09    1.77
   9  -3   7    1.51    1.87
   9   3   7    3.29    2.39
  -9   3  -7    0.09    1.35
  -9   3  -8  176.59   11.63
   9   3   8  165.45   15.94
  -9   3  -8  170.67   15.30
  -9  -3  -8  161.98   16.06
  -9   3  -9   78.67    8.24
  -9  -3  -9   63.83   10.27
  -9   3  -9   91.64   11.35
   9   3   9   89.18   12.06
  -9   3 -10   13.48    4.37
  -9   3 -10   14.41    3.83
  -9  -3 -10    7.33    3.62
   9   3  10   10.78    4.37
  -9   3 -11   15.35    4.72
  -9   3 -11   13.45    3.83
   9   3  11    5.51    3.27
  -9   3 -12   20.22    4.82
  -9   3 -12   18.32    5.31
   9   3  12   21.36    6.53
  -9   3 -13    1.36    1.98
   9   3  13    2.40    1.60
  -9   3 -14   20.18    5.39
   9   3  14   37.84    8.89
  -9   3 -15    0.61    1.64
  -9   3 -16   -0.10    1.23
   9  -4 -16   15.28    5.09
   9  -4 -15    2.89    2.40
   9  -4 -14   -1.21    1.60
   9  -4 -13    2.97    2.67
   9  -4 -12    3.91    2.77
   9  -4 -11    5.27    3.69
   9  -4 -10   29.04    5.98
   9  -4  -9   19.30    5.22
   9  -4  -8  350.20   19.73
   9  -4  -7    0.10    1.40
   9  -4  -6   46.68    6.92
   9  -4  -5   40.79    6.42
   9  -4  -4   21.81    4.61
   9   4  -4   23.81    3.97
   9  -4  -3   76.84    8.32
   9  -4  -2   18.11    4.05
   9  -4  -1    6.24    2.34
  -9  -4   0    7.75    3.25
   9  -4   0    1.28    1.52
   9  -4   1   48.18    8.00
   9  -4   1   37.92    5.44
  -9  -4  -1   48.72    8.38
   9  -4   2   42.46    7.57
   9  -4   2   38.44    5.35
  -9  -4  -2   36.21    7.45
   9  -4   3   16.05    3.45
   9  -4   3   12.60    3.93
  -9  -4  -3   22.01    5.98
   9  -4   4    3.92    2.79
   9  -4   4    2.43    1.34
   9   4   4    2.27    1.71
  -9  -4  -4    4.84    2.38
   9  -4   5   62.54    6.35
  -9   4  -5   56.99    8.65
   9   4   5   78.59   10.32
   9  -4   5   61.34    9.53
  -9  -4  -5   58.85    9.45
  -9  -4  -6   46.03    8.48
   9  -4   6   54.45    5.71
   9   4   6   55.37    8.79
  -9   4  -6   39.06    7.34
   9  -4   6   55.58    9.15
  -9  -4  -7   23.19    6.08
   9   4   7   27.77    6.40
  -9   4  -7   23.07    5.70
  -9  -4  -8   -0.29    1.65
   9   4   8    0.06    2.35
  -9   4  -8    0.33    1.28
   9   4   9  164.76   16.32
  -9   4  -9  146.79   14.10
  -9  -4  -9  176.98   17.13
  -9   4 -10   32.77    6.70
  -9   4 -10   33.59    5.83
  -9  -4 -10   38.54    8.24
   9   4  10   39.76    8.28
  -9   4 -11   -1.56    1.49
  -9   4 -11   -0.20    0.79
  -9   4 -12   58.69    8.46
   9   4  12   36.72    8.37
  -9   4 -13   -0.97    1.43
   9   4  13   -5.01    3.34
   9   4  14   11.37    4.93
   9  -5 -15    9.62    4.03
   9  -5 -14    5.69    3.35
   9  -5 -13    1.63    1.54
   9  -5 -12    1.63    2.11
   9  -5 -11    8.00    3.80
   9  -5 -10    2.34    2.13
   9  -5  -9    3.92    1.94
   9  -5  -8   28.98    5.87
   9  -5  -7  171.38   13.72
   9  -5  -6   -1.13    1.74
   9   5  -6   -4.60    2.13
   9  -5  -5    1.97    1.56
   9   5  -5    8.76    2.80
   9  -5  -4    9.84    3.27
   9   5  -4    2.65    1.54
   9  -5  -3  123.38   10.71
   9  -5  -2   81.59    8.50
   9  -5  -1   82.53    8.30
  -9  -5   1   86.15   11.30
   9  -5   0    1.83    1.50
   9  -5   0    0.99    1.52
  -9  -5   0   -2.60    2.24
   9  -5   1   60.19    6.89
   9  -5   1   76.48   10.36
  -9  -5  -1   73.94   10.57
   9  -5   2   26.70    4.52
   9  -5   2   29.35    6.44
  -9  -5  -2   30.76    7.02
   9   5   3   21.76    5.16
   9  -5   3   26.67    4.33
  -9  -5  -3   20.19    5.29
   9  -5   3   20.29    5.48
   9  -5   4    9.66    3.53
   9  -5   4   12.25    2.96
   9   5   4   12.45    4.01
  -9  -5  -4   12.56    4.51
   9  -5   5   52.78    5.83
  -9   5  -5   51.25    8.33
   9   5   5   43.71    7.59
   9  -5   5   47.50    8.53
  -9  -5  -5   48.80    8.77
  -9  -5  -6   27.93    6.69
   9  -5   6   26.84    6.65
   9  -5   6   31.43    4.39
  -9   5  -6   23.41    5.50
   9   5   6   19.39    5.32
  -9   5  -7  110.97   12.23
   9   5   7  100.89   12.22
  -9  -5  -7  101.14   12.86
  -9  -5  -8   33.42    7.61
   9   5   8   39.27    7.79
  -9   5  -8   40.54    7.29
   9   5   9  131.25   14.62
  -9   5  -9  135.19   13.35
  -9  -5  -9  132.79   15.04
  -9   5 -10   33.26    6.64
   9   5  10   20.21    6.14
   9   5  11    7.18    3.52
   9   5  12   11.22    4.87
   9   5  13   17.98    6.00
   9   5  14    7.02    4.00
   9  -6 -15   -1.79    2.45
   9  -6 -14   -2.53    1.88
   9  -6 -13   70.70   10.06
   9  -6 -12    2.90    1.78
   9  -6 -11   -0.62    1.40
   9  -6 -10    1.18    1.62
   9  -6  -9   49.61    7.86
   9  -6  -8   12.36    4.25
   9   6  -8    6.31    2.77
   9  -6  -7    3.22    2.36
   9   6  -7   -0.15    1.35
   9  -6  -6   38.53    6.48
   9   6  -6   40.55    6.45
   9  -6  -5   29.51    5.33
   9   6  -5   33.88    5.71
   9  -6  -4   15.89    4.06
   9   6  -4   16.70    3.92
   9  -6  -3  102.39    9.81
   9   6  -3  105.38    9.59
   9  -6  -2   48.37    6.64
  -9  -6   2   39.95    7.61
   9  -6  -1    0.53    1.67
  -9  -6   1   -0.51    1.71
   9  -6   0    4.27    2.37
   9  -6   0    1.51    2.57
  -9  -6   0   -1.42    1.91
   9  -6   1  186.30   12.27
  -9  -6  -1  206.08   17.60
   9  -6   1  208.49   17.36
   9  -6   2    0.31    0.83
   9  -6   2   -1.29    2.74
  -9  -6  -2    1.19    1.62
   9  -6   3  251.99   13.66
   9   6   3  256.02   17.72
  -9  -6  -3  277.53   20.59
   9  -6   3  257.84   19.79
   9  -6   4   60.81    6.57
   9  -6   4   52.86    9.21
   9   6   4   62.14    8.98
  -9  -6  -4   58.50    9.61
   9  -6   5   28.96    6.78
  -9  -6  -5   23.15    6.34
   9  -6   5   31.02    4.61
   9   6   5   22.83    5.70
  -9  -6  -6    7.11    3.72
   9  -6   6    2.81    1.42
   9  -6   6    4.30    1.71
  -9   6  -6    8.76    3.45
   9   6   6    7.01    3.38
  -9   6  -7   99.56   11.38
   9   6   7  110.88   13.09
  -9  -6  -7   93.78   12.50
  -9  -6  -8   20.83    6.08
   9   6   8   18.24    5.85
  -9   6  -8   14.98    4.55
  -9  -6  -9    1.28    2.25
   9   6   9    0.46    1.47
  -9   6  -9    2.28    2.01
   9   6  10    4.39    2.22
   9   6  11   29.66    7.52
   9   6  12   -2.96    2.68
   9   6  13    4.07    3.00
   9  -7 -14    3.54    2.85
   9  -7 -13    4.36    3.43
   9  -7 -12    0.55    1.62
   9  -7 -11   36.90    7.11
   9  -7 -10   -1.15    1.33
   9  -7  -9   31.98    6.53
   9   7  -9   29.93    6.42
   9  -7  -8   -1.84    2.25
   9   7  -8    1.21    1.73
   9  -7  -7    1.94    1.99
   9   7  -7    4.41    2.29
   9  -7  -6    7.40    3.22
   9   7  -6    5.98    2.31
   9  -7  -5   14.54    3.97
   9   7  -5   20.07    4.82
   9  -7  -4   -2.07    2.66
   9   7  -4    4.65    2.58
   9   7  -3    0.60    0.74
  -9  -7   3    3.03    2.85
  -9  -7   2   22.14    5.70
  -9  -7   1   22.73    5.68
   9  -7   0    5.49    3.00
  -9  -7   0    8.13    3.37
   9  -7   1  158.97   11.53
  -9  -7  -1  162.62   15.74
   9  -7   1  158.87   15.66
   9  -7   2    3.77    2.22
   9   7   2    1.37    1.76
   9  -7   2    2.44    2.18
  -9  -7  -2    0.76    1.82
   9  -7   3   53.61    6.52
   9   7   3   56.95    8.49
   9  -7   3   75.98   11.00
  -9  -7  -3   52.53    9.09
  -9  -7  -4   -0.56    2.13
   9  -7   4    0.91    1.85
   9  -7   4    0.88    0.96
   9   7   4    2.98    2.41
   9  -7   5   55.45    9.81
  -9  -7  -5   54.93    9.43
   9  -7   5   61.81    6.55
   9   7   5   56.98    8.80
   9  -7   6   55.17    9.93
  -9  -7  -6   40.03    8.20
  -9   7  -6   41.62    7.38
   9   7   6   35.73    7.21
  -9  -7  -7   11.71    4.65
  -9   7  -7    5.43    2.48
   9   7   7    9.50    3.81
  -9  -7  -8    2.66    2.09
   9   7   8    3.08    2.22
  -9   7  -8    5.10    2.54
   9   7   9    7.97    3.72
   9   7  10   10.37    4.21
   9   7  11    3.12    2.06
   9   7  12    0.78    2.04
   9   7  13    6.69    4.20
   9  -8 -14   14.47    4.94
   9  -8 -13   67.55    9.93
   9  -8 -12    2.68    2.16
   9  -8 -11    6.99    3.58
   9  -8 -10    3.53    2.88
   9   8 -10    1.05    1.53
   9  -8  -9   -1.24    2.18
   9   8  -9    1.05    1.50
   9  -8  -8   14.57    4.31
   9   8  -8   17.68    5.27
   9   8  -7   33.85    6.67
   9   8  -6   21.24    5.26
  -9  -8   5   18.99    5.25
   9   8  -5   19.75    4.89
   9   8  -4   -3.99    2.28
  -9  -8   4    0.79    1.55
   9   8  -3   41.73    6.86
  -9  -8   3   29.32    6.38
  -9  -8   2   -0.53    1.80
  -9  -8   1    0.68    1.81
   9  -8   0   20.13    5.79
  -9  -8   0   25.85    6.28
  -9  -8  -1  132.44   14.29
   9  -8   1  153.10   15.74
   9   8   2    0.46    1.07
   9  -8   2   -2.57    2.84
  -9  -8  -2    3.69    2.11
  -9  -8  -3   18.85    5.62
   9   8   3   11.62    3.94
   9  -8   3   15.27    4.65
  -9  -8  -4    9.22    3.99
   9  -8   4   12.90    4.43
   9   8   4   13.09    4.03
   9  -8   5   43.89    8.80
  -9  -8  -5   37.62    8.00
   9  -8   5   30.27    4.71
   9   8   5   32.23    6.72
   9  -8   6   33.52    7.69
  -9  -8  -6   31.45    7.43
  -9   8  -6   25.43    5.71
   9   8   6   27.21    6.38
  -9  -8  -7    3.29    2.29
  -9   8  -7    0.07    1.23
   9   8   7    3.40    2.19
   9  -8   7    3.31    3.37
  -9  -8  -8    9.16    4.03
   9   8   8   17.69    5.39
   9   8   9    3.71    2.58
   9   8  10    0.69    1.73
   9   8  11    5.56    3.35
   9   8  12   12.31    4.81
   9   8  13   10.19    4.61
   9  -9 -13    1.67    1.79
   9  -9 -12    0.37    1.32
   9  -9 -11    2.26    2.63
   9  -9 -10   16.15    4.65
   9   9 -10   19.91    5.89
   9   9  -9    1.49    1.70
   9   9  -8   14.98    5.05
  -9  -9   7    3.93    2.68
   9   9  -7   -0.11    1.40
  -9  -9   6   13.98    4.67
   9   9  -6   11.47    4.07
   9   9  -5   23.57    5.79
  -9  -9   5   22.85    5.73
   9   9  -4   -0.19    1.68
  -9  -9   4    3.61    2.59
   9   9  -3    0.42    1.02
  -9  -9   3   -0.05    1.44
  -9  -9   2   20.91    5.59
  -9  -9   1   -0.94    2.45
   9  -9   0   14.99    5.17
  -9  -9   0    7.85    3.53
   9  -9   1    0.36    2.28
   9   9   1   -1.59    1.90
  -9  -9  -1   -0.35    1.96
  -9  -9  -2   -1.10    2.51
   9   9   2    1.60    1.30
   9  -9   2    3.10    2.91
  -9  -9  -3    1.98    2.12
   9   9   3    0.10    1.07
   9  -9   3    4.01    2.69
  -9  -9  -4    1.13    2.97
   9  -9   4    4.24    3.54
   9   9   4   -2.16    2.03
  -9  -9  -5    8.06    4.11
   9   9   5    4.44    2.33
   9  -9   5    4.02    3.23
  -9   9  -6    2.13    1.92
  -9  -9  -6    6.89    3.78
   9   9   6   -1.00    1.25
   9  -9   6    9.19    4.44
  -9  -9  -7    3.97    3.07
   9  -9   7    7.17    4.43
   9   9   7    4.92    2.89
   9   9   8   20.69    5.75
   9   9   9   27.60    6.82
   9   9  10   74.42   11.53
   9   9  11    3.00    2.10
   9   9  12    3.79    3.19
   9 -10 -12   17.68    5.35
   9 -10 -11    6.84    3.61
   9  10 -11    0.97    2.24
   9  10 -10    3.84    2.20
  -9 -10   9    5.92    3.29
   9  10  -9    0.47    1.39
  -9 -10   8  100.59   12.06
   9  10  -8  140.51   15.01
  -9 -10   7   14.76    4.77
   9  10  -7   12.24    4.55
   9  10  -6    1.79    2.28
  -9 -10   6   -0.68    1.67
   9  10  -5   37.81    7.55
  -9 -10   5   37.15    7.44
   9  10  -4   10.92    3.88
  -9 -10   4   20.10    5.50
   9  10  -3    3.43    2.72
  -9 -10   3    0.90    1.36
  -9 -10   2    1.05    1.99
  -9 -10   1   -0.28    1.18
   9 -10   0    4.64    3.72
  -9 -10   0    2.96    2.31
  -9 -10  -1    9.84    3.97
   9 -10   1   20.30    6.17
   9  10   1   19.76    4.80
  -9 -10  -2    1.49    1.55
   9  10   2    3.38    2.38
   9 -10   2    6.60    3.85
  -9 -10  -3   19.06    5.64
   9  10   3   14.70    4.13
   9 -10   3    6.89    3.27
  -9 -10  -4    2.91    3.22
   9 -10   4    2.87    2.84
   9  10   4   -0.39    1.80
   9  10   5  163.51   15.15
  -9 -10  -5  173.69   17.36
   9 -10   5  150.79   17.17
  -9 -10  -6   23.20    6.76
   9 -10   6   13.20    5.68
   9  10   6   15.53    4.70
   9 -10   7   53.22   10.46
   9  10   7   50.35    8.90
   9  10   8    8.20    3.65
   9  10   9    4.51    2.98
   9  10  10   16.37    5.49
   9  10  11    1.29    2.37
   9  10  12   14.43    5.56
   9  11 -11   17.23    5.71
   9  11 -10    7.05    3.49
   9  11  -9    4.81    3.56
  -9 -11   8   25.33    6.12
   9  11  -8   30.43    7.40
   9  11  -7    0.56    1.51
  -9 -11   7    0.29    0.87
   9  11  -6   25.12    6.35
  -9 -11   6   19.09    5.40
   9  11  -5   12.67    4.36
  -9 -11   5   16.44    5.09
   9  11  -4   18.32    5.28
  -9 -11   4   10.54    4.04
   9  11  -3   29.93    6.74
  -9 -11   3   26.63    6.56
  -9 -11   2   59.25    9.61
  -9 -11   1   13.76    4.64
  -9 -11   0   43.63    8.48
   9 -11   0   29.67    7.27
  -9 -11  -1   -1.56    3.25
   9 -11   1   -0.74    1.76
   9  11   1    0.68    1.32
  -9 -11  -2   27.74    6.74
   9 -11   2   28.06    7.50
   9  11   2   22.56    5.10
  -9 -11  -3   27.41    6.92
   9  11   3   26.52    5.75
   9 -11   3   19.27    6.16
   9 -11   4   47.94    9.86
  -9 -11  -4   66.34   10.77
   9  11   4   59.58    8.93
  -9 -11  -5    5.01    3.52
   9  11   5   -1.22    1.89
   9 -11   5    3.05    2.32
   9 -11   6   12.84    5.31
   9  11   6   11.84    4.28
   9 -11   7   71.75   12.54
   9  11   7   57.32    9.54
   9  11   8   45.38    8.75
   9  11   9    3.65    3.03
   9  11  10   30.09    7.53
   9  11  11    3.05    2.24
   9  12 -11   -1.82    2.27
   9  12 -10   -2.54    2.80
   9  12  -9    1.20    1.83
   9  12  -8   -1.81    2.17
   9  12  -7   66.46   10.93
  -9 -12   7    0.33    1.15
   9  12  -6   -3.12    2.56
  -9 -12   6    0.04    1.17
   9  12  -5    8.98    3.87
  -9 -12   5   11.17    4.06
   9  12  -4   60.28    9.98
  -9 -12   4   57.66    9.42
   9  12  -3   -3.49    2.56
  -9 -12   3    2.55    1.88
  -9 -12   2    6.08    2.98
  -9 -12   1   45.28    8.46
   9 -12   0   11.20    4.79
  -9 -12   0    3.89    2.58
  -9 -12  -1   27.20    6.79
   9 -12   1   29.48    7.63
  -9 -12  -2    6.69    3.52
   9 -12   2    1.05    1.74
  -9 -12  -3    9.89    4.29
   9  12   3   15.20    4.48
   9 -12   3   16.98    5.96
   9 -12   4    2.49    2.90
  -9 -12  -4   -0.05    0.98
   9  12   4   -0.01    0.87
   9 -12   5   20.47    6.76
   9  12   5   30.42    6.61
   9 -12   6   29.74    8.16
   9  12   6   34.92    7.45
   9 -12   7   11.38    5.48
   9  12   7    9.62    3.99
   9  12   8   28.35    6.87
   9 -12   8   34.88    9.36
   9  12   9   29.02    7.29
   9  12  10   20.70    6.26
   9  12  11    1.35    2.26
   9  13 -12   -1.14    1.96
   9  13 -11   -0.01   11.66
   9  13 -10   -5.09    3.42
   9  13  -9   27.25    7.62
   9  13  -8    0.50    1.31
   9  13  -7    5.79    3.72
   9  13  -6   -0.07    1.20
  -9 -13   6   -1.13    1.65
   9  13  -5    1.19    1.73
  -9 -13   5   -0.50    1.54
  -9 -13   4    1.02    1.81
   9  13  -4   -2.05    2.03
  -9 -13   3   12.71    4.53
   9  13  -3    8.77    3.78
  -9 -13   2    5.92    3.31
  -9 -13   1   71.07   10.81
   9 -13   0    4.75    3.31
  -9 -13   0    8.63    4.38
   9 -13   1    2.32    2.65
  -9 -13  -1    4.79    3.30
  -9 -13  -2   -0.96    2.37
   9 -13   2   -1.88    2.77
  -9 -13  -3  120.31   14.68
   9 -13   3  148.59   17.87
   9 -13   4    1.67    1.44
   9  13   4    3.95    2.66
   9 -13   5   27.03    8.05
   9  13   5   31.49    6.84
   9  13   6   -2.73    2.23
   9 -13   6    0.45    1.79
   9 -13   7    8.84    5.22
   9  13   7    6.54    2.80
   9 -13   8    1.95    2.62
   9  13   8   -0.41    1.72
   9  13   9   -1.70    2.05
   9  13  10   -1.51    2.13
   9  14 -11   13.11    5.72
   9  14 -10    3.53    3.41
   9  14  -9    1.68    2.45
   9  14  -8   18.31    6.60
   9  14  -7    1.40    2.40
   9  14  -6   -2.32    2.40
   9  14  -5   -1.75    2.49
  -9 -14   4    1.71    1.76
   9  14  -4    4.34    2.82
  -9 -14   3    2.67    2.28
   9  14  -3   11.99    4.83
  -9 -14   2    4.69    3.00
  -9 -14   1   11.15    4.41
   9 -14   0    3.99    3.26
  -9 -14   0    2.97    2.61
   9 -14   1   70.80   12.40
  -9 -14  -1   63.08   10.48
   9 -14   2   -5.15    3.56
   9 -14   3    5.40    4.41
   9 -14   4   10.69    5.06
   9 -14   5   45.83   10.45
   9  14   5   33.34    7.00
   9  14   6    4.06    2.14
   9 -14   6    3.49    2.84
   9 -14   7    2.74    3.94
   9  14   7   -4.15    2.85
   9  14   8   16.73    5.38
   9  14   9    3.19    2.39
   9  14  10   -2.01    2.33
   9  15 -10   13.35    5.94
   9  15  -9    7.52    5.07
   9  15  -8   11.57    5.24
   9  15  -7   -1.92    2.33
   9  15  -6    2.57    2.18
   9  15  -5   -1.44    2.08
   9  15  -4    2.00    2.09
  -9 -15   3    4.77    3.22
   9  15  -3   11.65    4.87
  -9 -15   2   -1.03    1.69
  -9 -15   1   42.19    8.46
   9 -15   0   18.25    6.36
   9 -15   1   15.48    5.79
   9 -15   2   38.95    9.45
   9 -15   3   57.44   11.70
   9 -15   4    1.41    3.26
   9 -15   5   28.17    8.44
   9  15   7    5.88    3.01
   9  15   8    1.30    1.39
   9  15   9    9.05    4.84
   9  16  -8   42.36   10.00
   9  16  -7    6.66    4.13
   9  16  -6   -2.69    2.45
   9  16  -5    1.18    1.41
   9  16  -4   15.37    5.80
   9 -16   0    7.78    4.48
   9 -16   1   -4.98    3.60
   9  17  -6    8.76    4.52
   9  17  -5    3.68    3.15
   9  17  -4    3.66    3.09
  10   0 -14    1.30    2.00
  10   0 -13    0.02    1.64
  10   0 -12   27.34    6.43
  10   0 -11    0.29    1.60
  10   0 -10    3.30    2.22
  10   0  -9    1.61    1.78
  10   0  -8   -0.31    1.53
  10   0  -7   -0.61    1.28
  10   0  -6   40.58    7.04
  10   0  -5   -8.40    3.34
  10   0  -4    2.57    1.23
  10   0  -3    2.66    2.25
  10   0  -2    1.42    1.71
  10   0  -1    0.52    1.28
  10   0   0    2.40    1.70
  10   0   1    1.58    1.62
  10   0   2   26.72    4.91
  10   0   3   -0.66    1.59
 -10   0  -3   -0.44    2.34
  10   0   4   19.75    4.84
 -10   0  -4   24.76    6.47
  10   0   5   -2.80    1.96
 -10   0  -5   -0.98    2.20
  10   0   6   25.14    5.67
 -10   0  -6   24.45    6.33
  10   0   7    1.01    0.98
 -10   0  -7   -1.85    2.49
 -10   0  -8   77.22   11.36
  10   0   8   65.37    9.47
 -10   0  -9    3.85    2.96
  10   0   9    2.43    2.21
 -10   0 -10   74.30   11.26
 -10   0 -11    1.00    1.60
  10   0  12   37.65    8.85
 -10   0 -12   31.17    7.35
  10   0  13    1.89    2.34
  10   1 -14   -0.02    2.70
  10  -1 -14    7.77    3.82
  10   1 -13   -0.13    1.77
  10  -1 -13    4.05    2.90
  10   1 -12   13.74    4.60
  10  -1 -12   24.36    6.16
  10   1 -11    3.75    3.04
  10  -1 -11   -2.02    3.09
  10   1 -10   -3.15    2.44
  10  -1 -10    0.99    1.67
  10   1  -9    1.63    1.51
  10  -1  -9    2.06    2.25
  10   1  -8   19.11    5.03
  10  -1  -8   18.16    4.71
  10   1  -7    1.98    1.92
  10  -1  -7   -1.61    2.87
  10   1  -6   -1.89    2.35
  10  -1  -6    1.61    2.46
  10   1  -5   83.10    9.91
  10  -1  -5   67.47    8.78
  10   1  -4   32.05    6.16
  10  -1  -4   27.01    5.41
  10   1  -3   88.02    9.79
  10  -1  -3   82.20    9.28
  10   1  -2   53.65    7.70
  10  -1  -2   43.12    6.54
  10   1  -1    1.03    1.84
  10  -1  -1    4.00    2.37
  10   1   0   17.28    4.19
  10  -1   0   14.37    3.80
  10   1   1    4.65    2.16
  10  -1   1   11.76    3.25
  10   1   2    9.30    2.88
  10  -1   2    4.21    2.18
 -10  -1  -2    4.50    3.08
  10  -1   3    5.93    2.95
 -10   1  -3    2.65    1.99
  10  -1   3    6.00    2.28
 -10  -1  -3    0.75    2.28
  10  -1   4   79.67    8.11
  10  -1   4   63.21    8.94
 -10   1  -4   89.53   11.83
  10   1   4   84.18    9.55
 -10  -1  -4   72.41   10.95
  10  -1   5   -0.76    1.62
  10   1   5    0.69    1.19
  10  -1   5    1.48    1.94
 -10   1  -5   -0.84    2.04
 -10  -1  -5   -0.14    1.87
 -10   1  -6  175.93   16.80
 -10  -1  -6  173.20   16.90
  10   1   6  186.61   14.70
  10  -1   6  162.10   14.83
  10  -1   7   -0.30    1.53
 -10   1  -7   -4.74    2.87
 -10  -1  -7   -0.66    1.39
  10   1   7   -1.31    1.44
 -10  -1  -8   33.09    7.55
  10  -1   8   36.26    7.31
 -10   1  -8   26.78    6.67
 -10   1  -9   13.45    4.80
 -10  -1  -9   13.86    4.98
  10  -1   9   14.74    4.61
 -10   1 -10   48.67    9.04
 -10  -1 -10   37.92    8.07
  10   1  10   50.38    9.74
 -10   1 -11   13.73    4.81
 -10  -1 -11   12.71    5.01
  10   1  11    7.23    3.43
 -10   1 -12    2.11    2.30
  10   1  12    3.03    3.47
  10   1  13    5.05    4.89
  10   2 -14    2.32    2.45
  10  -2 -14   -0.51    1.64
  10   2 -13   -3.27    3.40
  10  -2 -13   -1.20    2.05
  10   2 -12    1.80    1.50
  10  -2 -12    0.41    1.59
  10   2 -11    4.84    3.24
  10  -2 -11    7.75    3.85
  10   2 -10   11.11    4.29
  10  -2 -10   14.41    4.45
  10   2  -9   30.83    6.82
  10  -2  -9   37.73    7.17
  10   2  -8   -0.71    1.99
  10  -2  -8   -2.49    2.62
  10   2  -7    0.36    1.46
  10  -2  -7   -0.75    2.06
  10   2  -6   45.37    7.56
  10  -2  -6   33.27    6.20
  10   2  -5   21.54    5.40
  10  -2  -5   24.71    5.49
  10   2  -4    5.86    2.64
  10  -2  -4    6.67    2.81
  10   2  -3    7.68    2.80
  10  -2  -3   14.80    4.06
  10   2  -2    5.16    2.03
  10  -2  -2    8.78    2.82
  10   2  -1    0.50    1.09
  10  -2  -1   -1.71    1.44
  10   2   0    8.35    3.05
  10  -2   0    5.88    2.07
 -10  -2  -1    5.21    2.94
  10  -2   1    1.90    1.55
  10  -2   2    2.26    1.79
  10  -2   2    2.24    2.06
 -10  -2  -2    6.56    4.07
  10  -2   3   73.73    7.84
  10  -2   3   71.73    9.90
 -10  -2  -3   79.91   11.40
  10  -2   4    0.70    1.09
  10  -2   4   -0.32    1.28
  10  -2   5   69.11    7.28
 -10  -2  -5   79.67   11.53
  10   2   5   73.76    8.56
 -10   2  -5   79.80   11.20
  10  -2   5   81.57   10.69
  10  -2   6   23.85    5.84
 -10   2  -6   11.02    4.37
 -10  -2  -6   10.91    4.29
  10  -2   7   29.74    6.54
 -10   2  -7   20.06    5.80
 -10  -2  -7   26.23    6.91
 -10  -2  -8    3.75    2.76
  10   2   8    3.73    2.54
  10  -2   8    2.80    1.54
 -10   2  -8    5.53    3.19
 -10   2  -9   -0.55    2.61
 -10  -2  -9    1.82    2.95
  10  -2   9   -3.46    2.52
  10   2   9   -6.34    3.64
 -10   2 -10    0.69    1.17
 -10  -2 -10    3.84    2.76
  10   2  10   -0.95    2.99
 -10   2 -11   11.20    4.40
 -10  -2 -11    9.74    4.50
  10   2  11    5.80    2.97
 -10   2 -12    6.70    3.51
  10   2  12   17.27    6.17
  10   2  13   18.77    6.52
  10  -3 -14    1.15    2.11
  10   3 -13    5.44    3.04
  10  -3 -13    2.64    2.09
  10   3 -12   -1.25    1.60
  10  -3 -12   -1.92    2.56
  10   3 -11    1.00    2.11
  10  -3 -11   -1.25    1.88
  10   3 -10   31.80    7.14
  10  -3 -10   38.38    7.29
  10   3  -9   22.04    5.63
  10  -3  -9   20.14    5.24
  10   3  -8    0.44    2.02
  10  -3  -8    0.18    1.87
  10   3  -7    1.09    1.71
  10  -3  -7   -0.14    1.41
  10   3  -6   10.97    4.13
  10  -3  -6    4.85    2.28
  10   3  -5  207.64   16.21
  10  -3  -5  206.83   15.05
  10   3  -4   66.04    9.12
  10  -3  -4   60.41    7.97
  10   3  -3   13.64    3.61
  10  -3  -3   14.03    3.99
  10  -3  -2   34.74    5.88
  10  -3  -1   71.46    8.33
  10  -3   0   35.76    5.76
  10  -3   1    3.78    2.38
 -10  -3  -1    4.42    2.85
  10  -3   2   13.48    4.37
  10  -3   2   10.57    3.20
 -10  -3  -2    7.48    3.60
  10  -3   3   56.60    6.99
  10  -3   3   59.17    9.16
 -10  -3  -3   68.27   10.59
 -10   3  -4   24.55    6.42
  10  -3   4   29.58    4.87
  10  -3   4   26.08    6.20
 -10  -3  -4   23.88    6.35
  10  -3   5   47.53    5.98
 -10   3  -5   36.61    7.59
 -10  -3  -5   45.46    8.84
  10  -3   5   49.97    8.66
  10  -3   6    1.86    1.83
 -10   3  -6   -0.14    1.59
 -10  -3  -6    2.60    3.39
 -10  -3  -7    6.54    3.32
  10   3   7    5.91    2.58
 -10   3  -7    6.90    3.51
  10  -3   7    8.61    4.24
 -10  -3  -8    1.18    2.94
  10   3   8   -1.12    3.01
 -10   3  -8   -2.49    2.19
  10  -3   8   -1.22    1.68
 -10   3  -9    1.58    1.25
  10  -3   9    7.20    3.54
 -10  -3  -9    5.29    3.27
  10   3   9    7.37    3.60
 -10   3 -10    4.50    2.97
 -10  -3 -10    7.87    3.82
  10   3  10    8.57    4.11
 -10   3 -11    8.24    3.80
 -10  -3 -11   10.05    4.50
  10   3  11   14.83    5.59
 -10   3 -12    8.11    3.86
  10   3  12    2.47    2.69
  10   3  13    3.14    2.02
  10  -4 -14    2.50    2.83
  10  -4 -13    5.64    3.08
  10  -4 -12   -1.20    2.07
  10  -4 -11   20.63    5.62
  10  -4 -10    9.69    3.60
  10  -4  -9    0.69    1.42
  10  -4  -8   31.43    6.29
  10  -4  -7   21.74    5.16
  10  -4  -6   -0.52    1.90
  10  -4  -5   15.07    3.90
  10  -4  -4   -1.64    1.91
  10  -4  -3   71.24    8.57
  10  -4  -2    3.30    2.13
  10  -4  -1   -0.27    1.03
  10  -4   0    4.19    2.42
 -10  -4   0   11.53    4.50
  10  -4   1    2.77    1.50
 -10  -4  -1    4.10    2.66
  10  -4   2    0.86    1.92
  10  -4   2    0.53    1.55
 -10  -4  -2   -0.75    1.40
  10  -4   3    7.14    2.41
  10  -4   3   16.39    5.03
 -10  -4  -3   12.18    4.49
  10  -4   4   20.90    4.13
  10  -4   4   18.36    4.98
 -10  -4  -4   22.66    6.23
  10  -4   5   -0.24    1.70
  10  -4   5    1.16    1.19
 -10   4  -5    0.59    1.13
 -10  -4  -5    3.75    2.83
 -10  -4  -6   -0.75    2.78
  10   4   6    3.80    2.25
 -10   4  -6    2.44    1.57
 -10  -4  -7   81.96   12.13
 -10   4  -7   93.35   12.01
  10   4   7   73.66   11.17
  10  -4   7   90.32   12.36
 -10  -4  -8   11.16    4.26
  10  -4   8   10.64    4.12
  10   4   8   11.73    4.84
 -10   4  -8    5.30    2.99
 -10  -4  -9   16.45    5.75
  10   4   9   12.39    5.06
 -10   4  -9    6.21    3.05
 -10   4 -10    5.72    3.21
 -10  -4 -10    3.86    2.80
  10   4  10    0.18    1.71
 -10   4 -11   33.68    7.25
  10   4  11   39.59    8.82
  10   4  12    1.89    1.85
  10  -5 -13   12.82    4.63
  10  -5 -12   -0.89    2.19
  10  -5 -11    3.69    2.65
  10  -5 -10   38.96    7.39
  10  -5  -9   55.07    8.55
  10  -5  -8    5.51    3.19
  10  -5  -7    0.91    1.12
  10  -5  -6   18.45    4.76
  10  -5  -5  130.80   12.12
  10  -5  -4    8.74    2.97
  10  -5  -3   13.99    3.80
  10  -5  -2   -0.53    1.53
  10  -5  -1    6.01    2.47
 -10  -5   1    1.58    2.20
  10  -5   0    1.13    1.36
 -10  -5   0    1.54    2.21
  10  -5   1    4.14    1.98
  10  -5   1    3.14    2.41
 -10  -5  -1    4.58    3.31
  10  -5   2    0.44    1.57
  10  -5   2   -0.84    0.91
 -10  -5  -2    2.86    3.22
  10  -5   3   26.01    4.65
  10  -5   3   34.98    7.55
 -10  -5  -3   28.07    6.92
  10  -5   4    0.92    1.20
  10  -5   4   -1.46    1.75
 -10  -5  -4   -1.24    2.20
  10  -5   5    1.53    1.46
 -10   5  -5   -4.41    2.79
  10  -5   5    2.61    1.70
  10   5   5    1.62    2.40
 -10  -5  -5    3.43    2.88
 -10  -5  -6   10.38    4.44
  10   5   6   12.91    4.78
  10  -5   6   11.91    4.57
 -10   5  -6   13.09    4.57
 -10  -5  -7   46.04    9.05
  10  -5   7   48.45    9.23
  10   5   7   62.28   10.33
 -10   5  -7   65.34   10.06
 -10  -5  -8    0.40    1.98
  10  -5   8    1.46    1.68
  10   5   8    4.57    2.25
 -10   5  -8    6.97    3.35
 -10  -5  -9   16.79    5.63
  10   5   9   18.08    5.77
 -10   5  -9   19.57    5.40
 -10   5 -10   19.25    5.48
 -10  -5 -10    8.50    4.18
  10   5  10    7.91    3.86
  10   5  11   15.79    5.60
  10   5  12   -2.43    2.50
  10  -6 -13    3.69    2.99
  10  -6 -12   62.86    9.78
  10  -6 -11    1.98    1.84
  10  -6 -10   -4.38    2.67
  10  -6  -9   12.79    4.30
  10  -6  -8   93.90   11.06
  10  -6  -7    7.02    3.22
  10  -6  -6  116.60   11.79
  10  -6  -5   91.99   10.31
  10  -6  -4    1.84    1.88
 -10  -6   3    0.87    1.48
  10  -6  -3   -1.94    1.55
  10  -6  -2    2.99    1.98
 -10  -6   2   -1.85    2.17
  10  -6  -1    0.48    1.16
 -10  -6   1   -0.36    1.18
  10  -6   0    6.12    2.71
 -10  -6   0    7.89    3.57
  10  -6   1   -0.04    1.06
 -10  -6  -1    1.98    1.25
  10  -6   2   12.03    4.35
  10  -6   2   14.16    3.81
 -10  -6  -2   10.90    4.27
  10  -6   3   -1.30    1.73
  10  -6   3   -2.35    2.31
 -10  -6  -3    0.65    1.59
  10   6   4   14.30    4.46
  10  -6   4    9.51    2.83
  10  -6   4    4.35    3.21
 -10  -6  -4   14.72    4.85
 -10  -6  -5   33.67    7.65
  10  -6   5   31.98    7.59
 -10   6  -5   24.61    6.15
  10  -6   5   27.09    4.58
  10   6   5   19.79    5.56
 -10  -6  -6   58.97   10.39
 -10   6  -6   54.68    9.16
  10   6   6   61.24    9.95
  10  -6   6   52.55    9.81
 -10  -6  -7    2.47    2.05
  10  -6   7   -2.00    2.51
  10   6   7    4.04    3.27
 -10   6  -7    5.92    3.35
 -10  -6  -8   19.24    6.26
  10   6   8   25.04    6.50
  10  -6   8   19.98    6.23
 -10   6  -8   25.78    6.24
 -10  -6  -9    6.33    3.85
  10   6   9   -1.76    2.26
 -10   6  -9    3.98    2.22
  10   6  10   -1.12    2.25
  10   6  11    2.33    2.81
  10   6  12   11.73    5.09
  10  -7 -12   -2.11    2.15
  10  -7 -11   10.00    3.75
  10  -7 -10    7.29    3.90
  10  -7  -9    1.18    1.43
  10  -7  -8    0.59    1.34
  10  -7  -7    9.96    3.55
  10  -7  -6    0.16    1.41
  10  -7  -5   23.94    5.35
 -10  -7   4   45.88    8.78
  10  -7  -4   33.34    6.15
  10  -7  -3    2.96    2.09
 -10  -7   3   13.61    4.82
  10  -7  -2    3.35    1.88
 -10  -7   2    8.12    3.93
  10  -7  -1   -1.23    1.71
 -10  -7   1    5.38    3.25
  10  -7   0   84.26    9.02
 -10  -7   0   72.93   11.10
  10  -7   1    6.85    3.98
  10  -7   1    2.52    1.92
 -10  -7  -1    7.43    4.09
  10  -7   2   25.57    6.62
  10  -7   2   27.62    5.03
 -10  -7  -2   21.09    6.03
  10  -7   3    5.71    2.36
  10  -7   3    8.21    4.02
 -10  -7  -3    4.83    3.02
 -10  -7  -4   16.13    5.55
  10  -7   4   28.10    4.92
  10   7   4   21.92    5.87
  10  -7   4   13.85    5.25
 -10  -7  -5    0.05    2.09
  10  -7   5   -1.34    2.06
  10   7   5    3.34    2.14
 -10  -7  -6   14.31    5.40
 -10   7  -6   10.76    4.00
  10   7   6    5.00    2.63
  10  -7   6   11.53    5.06
 -10  -7  -7   14.27    5.22
  10  -7   7    7.34    4.19
  10   7   7    8.33    3.95
 -10   7  -7   13.34    4.48
 -10  -7  -8    6.16    3.98
  10  -7   8    3.04    2.69
  10   7   8   -1.89    3.04
 -10   7  -8    2.09    1.75
 -10  -7  -9    8.35    4.22
  10   7   9    5.27    2.91
  10   7  10    1.50    2.09
  10   7  11    3.11    2.53
  10   7  12   21.67    6.95
  10  -8 -12    0.22    1.86
  10  -8 -11    1.26    2.05
  10  -8 -10    1.68    1.64
  10  -8  -9    9.45    3.81
  10  -8  -8   13.73    4.36
  10  -8  -7  118.26   12.43
  10  -8  -6   77.99    9.89
 -10  -8   6   81.94   11.64
  10  -8  -5   28.33    5.92
 -10  -8   5   24.25    6.38
  10  -8  -4    1.46    1.67
 -10  -8   4   -4.75    2.93
  10  -8  -3    7.09    2.87
 -10  -8   3    9.98    4.52
  10  -8  -2    1.13    1.37
 -10  -8   2   -1.00    2.11
  10  -8  -1    1.18    1.57
 -10  -8   1    3.20    2.64
  10  -8   0    8.90    3.02
 -10  -8   0    8.88    4.19
  10  -8   1    8.36    3.85
  10  -8   1   16.42    4.02
 -10  -8  -1   16.91    5.51
  10  -8   2   46.09    9.10
  10  -8   2   46.97    6.61
 -10  -8  -2   41.71    8.50
 -10  -8  -3   -0.58    2.50
  10   8   3   -1.85    1.70
  10  -8   3   -1.08    1.72
  10  -8   3    1.80    1.89
 -10  -8  -4    2.66    2.62
  10  -8   4   -0.44    0.84
  10   8   4    3.95    2.97
  10  -8   4    5.13    3.38
 -10  -8  -5    9.62    4.05
  10  -8   5    7.66    3.98
  10   8   5   11.62    4.17
 -10  -8  -6   10.42    4.87
 -10   8  -6   11.09    4.04
  10   8   6   14.58    4.96
  10  -8   6    7.48    3.58
  10  -8   7   -2.21    2.48
 -10  -8  -7    0.41    1.14
 -10   8  -7    3.30    2.51
  10   8   7   -0.25    2.36
  10  -8   8   -0.53    2.12
 -10  -8  -8    0.73    1.96
  10   8   8   -1.19    2.17
  10  -8   9   15.74    5.91
  10   8   9   15.42    5.27
  10   8  10   13.33    5.15
  10   8  11    2.94    1.96
  10  -9 -11    3.05    2.68
  10  -9 -10   -1.78    1.59
  10  -9  -9   25.18    6.11
 -10  -9   8    8.36    3.65
  10  -9  -8    5.41    2.90
  10  -9  -7    7.03    3.56
 -10  -9   7    0.52    1.28
  10  -9  -6    0.43    1.96
 -10  -9   6    0.63    1.84
  10  -9  -5  131.23   12.80
 -10  -9   5  129.79   14.70
 -10  -9   4   -0.73    1.76
 -10  -9   3    2.63    2.43
 -10  -9   2    3.95    2.48
 -10  -9   1   56.35    9.89
  10  -9   0   26.10    7.23
 -10  -9   0   33.74    7.68
  10  -9   1   27.26    7.28
 -10  -9  -1   32.14    7.59
 -10  -9  -2   11.53    4.37
  10  -9   2   15.98    5.45
  10  -9   2   17.78    4.14
 -10  -9  -3   23.96    6.68
  10  -9   3   20.73    4.47
  10   9   3   23.42    5.82
  10  -9   3   29.94    7.74
 -10  -9  -4    0.68    1.64
  10  -9   4    0.15    1.17
  10   9   4    1.65    1.89
  10  -9   4    3.35    2.62
  10  -9   5    0.87    2.65
 -10  -9  -5    3.21    2.75
  10   9   5    1.02    1.57
 -10   9  -6   23.86    5.98
 -10  -9  -6   24.59    7.09
  10  -9   6   27.15    7.49
  10   9   6   28.63    6.88
  10  -9   7   10.43    5.23
 -10  -9  -7   16.76    5.79
  10   9   7   16.78    4.99
  10  -9   8   -2.87    2.90
  10   9   8    5.80    3.78
  10  -9   9   -1.92    2.54
  10   9   9    3.88    3.24
  10   9  10   11.90    4.98
  10   9  11   13.15    5.21
  10 -10 -10    4.68    2.87
  10 -10  -9    4.31    2.87
 -10 -10   9   11.03    4.40
  10 -10  -8    0.76    1.93
 -10 -10   8    0.80    0.98
 -10 -10   7   12.09    4.54
 -10 -10   6   -0.66    1.20
 -10 -10   5   14.56    4.97
 -10 -10   4   15.95    5.17
 -10 -10   3   52.30    9.53
 -10 -10   2    2.41    2.33
 -10 -10   1   28.64    7.01
  10 -10   0    8.55    4.60
 -10 -10   0    3.09    2.78
 -10 -10  -1    0.27    1.83
  10 -10   1    3.72    3.29
 -10 -10  -2   -0.84    1.79
  10 -10   2    2.51    2.82
  10  10   2    3.77    1.98
 -10 -10  -3    5.00    2.61
  10  10   3    7.88    3.28
  10 -10   3    6.58    3.37
 -10 -10  -4    2.06    2.74
  10  10   4    2.83    2.27
  10 -10   4   -1.99    2.78
  10 -10   5    8.02    4.18
 -10 -10  -5   12.33    4.88
  10  10   5    0.25    1.59
 -10 -10  -6    3.44    2.53
  10 -10   6    9.08    4.68
  10  10   6    4.22    2.67
  10 -10   7   25.45    7.52
 -10 -10  -7   26.16    7.22
  10  10   7   30.04    7.27
  10  10   8   -0.17    1.40
  10 -10   8   -1.96    2.35
  10 -10   9   -6.45    4.04
  10  10   9   -0.34    1.84
  10  10  10   13.80    5.54
 -10 -11   8   -3.82    2.70
 -10 -11   7   27.32    6.88
 -10 -11   6    0.16    1.74
 -10 -11   5   88.30   12.26
 -10 -11   4   -0.79    1.43
 -10 -11   3   41.42    8.52
 -10 -11   2    9.71    4.42
 -10 -11   1    5.81    3.15
 -10 -11   0   39.23    8.30
  10 -11   0   38.13    8.56
 -10 -11  -1    8.89    4.11
  10 -11   1    2.99    2.59
 -10 -11  -2   24.43    6.79
  10 -11   2   29.72    7.87
 -10 -11  -3   35.79    8.32
  10 -11   3   14.56    5.39
  10  11   3   26.17    6.11
 -10 -11  -4    5.30    3.10
  10 -11   4   -1.09    2.32
  10 -11   5   -2.27    2.75
  10  11   5   -1.96    2.29
 -10 -11  -6   33.94    8.41
  10 -11   6   22.82    6.98
  10  11   6   26.29    6.69
  10  11   7    5.01    2.94
  10 -11   7   13.33    5.72
  10 -11   8   -3.27    2.68
  10  11   8    2.64    2.37
  10  11   9   17.95    6.05
  10 -11   9   17.50    6.72
  10  11  10   14.14    5.58
 -10 -12   7    6.51    3.34
 -10 -12   6   -3.00    2.50
 -10 -12   5   -0.29    1.26
  10  12  -4    2.04    2.13
 -10 -12   4    5.35    3.14
 -10 -12   3    7.66    3.95
 -10 -12   2   -0.40    1.44
 -10 -12   1   12.87    4.81
 -10 -12   0   13.77    4.98
  10 -12   0   24.69    7.09
  10 -12   1   11.02    4.95
 -10 -12  -1   11.30    4.48
 -10 -12  -2   27.27    7.17
  10 -12   2   25.60    7.52
 -10 -12  -3    1.14    1.90
  10 -12   3    1.91    2.34
 -10 -12  -4   19.14    6.02
  10  12   4   21.84    5.61
  10 -12   4   21.82    7.14
  10 -12   5   34.44    9.09
 -10 -12  -5   31.01    7.88
  10  12   5   24.36    6.18
  10 -12   6    9.46    4.92
  10  12   6    2.60    2.15
  10  12   7   46.21    8.98
  10 -12   7   29.16    8.55
  10  12   8   14.47    4.88
  10  12   9   22.61    6.84
 -10 -13   5   -2.22    2.21
 -10 -13   4    1.06    1.82
  10  13  -4    2.43    2.96
 -10 -13   3   -3.80    2.79
 -10 -13   2   13.74    5.14
 -10 -13   1    5.44    3.23
 -10 -13   0   14.53    5.18
  10 -13   0    7.14    4.40
  10 -13   1    1.61    1.66
 -10 -13  -1    0.58    1.91
  10 -13   2   27.90    8.05
 -10 -13  -2   19.53    6.34
 -10 -13  -3   14.15    5.97
  10 -13   3    9.09    4.67
  10 -13   4    6.70    3.61
  10 -13   5    1.88    2.42
  10 -13   6   34.40    9.36
  10  13   6   34.41    7.64
  10  13   7   68.37   11.02
  10  13   8    1.04    1.58
  10  13   9    1.89    2.07
  10  14  -5    2.79    2.56
 -10 -14   4   -4.48    2.95
  10  14  -4    3.38    2.73
 -10 -14   3   11.86    4.59
 -10 -14   2    1.55    2.41
 -10 -14   1    6.70    3.84
 -10 -14   0    2.49    2.80
  10 -14   0    1.72    2.41
  10 -14   1    3.36    3.21
 -10 -14  -1    6.34    3.73
  10 -14   2   12.06    5.46
 -10 -14  -2    9.37    4.30
  10 -14   3    0.17    2.66
  10  14   7   16.72    5.69
  10  14   8   39.31    8.81
  10  15  -5    9.85    4.96
 -10 -15   3    4.49    3.07
 -10 -15   2    3.22    2.41
 -10 -15   1    0.76    1.62
 -10 -15   0    1.62    2.54
  11   0 -12    0.95    2.12
  11   0 -11   18.72    5.55
  11   0 -10    0.95    1.68
  11   0  -9    0.79    1.18
  11   0  -8   -5.46    3.05
  11   0  -7    2.11    1.75
  11   0  -6   -2.33    2.66
  11   0  -5   30.12    6.11
  11   0  -4    2.47    2.42
  11   0  -3    9.65    3.42
  11   0  -2   -1.81    2.00
  11   0  -1    2.91    1.69
  11   0   0    0.01    1.61
  11   0   1    1.40    1.53
  11   0   2   -1.59    1.56
 -11   0  -2    0.54    1.86
  11   0   3    0.55    1.36
 -11   0  -3   -5.25    3.29
 -11   0  -4    8.60    4.44
  11   0   5   -0.92    1.71
 -11   0  -5   -0.99    1.85
  11   0   6   -1.00    1.56
 -11   0  -6   -0.37    1.11
 -11   0  -7   24.99    6.82
 -11   0  -8    0.21    1.13
 -11   0  -9    1.04    2.11
 -11   0 -10    2.30    2.30
 -11   0 -11   16.51    5.84
 -11   0 -12   -3.35    3.39
  11   1 -12    1.58    1.95
  11  -1 -12    3.52    2.70
  11   1 -11   -2.74    2.03
  11  -1 -11    4.41    3.13
  11   1 -10    1.53    1.63
  11  -1 -10   -2.57    2.98
  11   1  -9   41.67    8.06
  11  -1  -9   33.44    7.17
  11   1  -8    1.55    2.12
  11  -1  -8    5.29    3.63
  11   1  -7    0.55    1.76
  11  -1  -7   -1.68    2.70
  11   1  -6   -0.91    2.05
  11  -1  -6    6.41    3.35
  11   1  -5    2.05    1.88
  11  -1  -5    4.93    3.38
  11   1  -4  119.16   12.37
  11  -1  -4  108.77   11.52
  11   1  -3    2.15    1.70
  11  -1  -3    1.11    1.40
  11   1  -2   17.02    4.53
  11  -1  -2   22.38    5.08
  11   1  -1   -2.11    2.04
  11  -1  -1   -1.10    1.89
  11   1   0   16.38    4.53
  11  -1   0   18.44    4.52
  11   1   1   16.50    4.35
  11  -1   1   17.30    4.22
  11  -1   2   18.12    4.39
 -11  -1  -2   21.46    6.38
  11  -1   3   19.63    4.44
 -11   1  -3   13.19    5.13
 -11  -1  -3   12.25    4.95
  11  -1   4   12.65    3.52
 -11   1  -4    7.57    3.52
 -11  -1  -4   19.13    6.01
  11  -1   4   14.33    4.55
  11  -1   5    3.78    2.47
 -11   1  -5    3.62    3.30
 -11  -1  -5   11.53    4.94
  11  -1   6    5.80    3.32
 -11   1  -6   10.06    4.35
 -11  -1  -6    1.93    2.37
  11  -1   7    1.99    1.96
 -11   1  -7    0.38    1.14
 -11  -1  -7   -0.58    1.71
 -11  -1  -8    6.01    3.76
  11  -1   8    3.34    2.17
 -11   1  -8    7.31    3.76
 -11   1  -9    5.80    3.33
 -11  -1  -9   12.22    4.54
 -11   1 -10   22.07    6.53
 -11  -1 -10   27.90    7.34
 -11   1 -11   51.10    9.85
 -11  -1 -11   35.07    8.28
 -11   1 -12   16.34    5.62
 -11  -1 -12    8.31    4.80
  11   2 -12    5.09    3.99
  11  -2 -12   -1.33    1.60
  11   2 -11    7.42    3.96
  11  -2 -11    8.14    3.79
  11   2 -10    5.44    3.42
  11  -2 -10    7.99    3.74
  11   2  -9   19.83    5.77
  11  -2  -9   18.01    4.99
  11   2  -8    6.78    3.08
  11  -2  -8   14.04    4.79
  11   2  -7   20.40    5.48
  11  -2  -7   18.68    5.11
  11   2  -6   44.38    8.07
  11  -2  -6   31.95    6.45
  11   2  -5   47.56    8.29
  11  -2  -5   53.19    8.21
  11   2  -4   38.40    7.31
  11  -2  -4   39.71    7.03
  11   2  -3   38.41    7.15
  11  -2  -3   41.72    7.08
  11  -2  -2   75.88    9.26
  11   2  -2   70.24    9.42
  11   2  -1   37.19    6.59
  11  -2  -1   42.59    6.79
  11  -2   0    4.02    2.49
  11  -2   1    5.60    2.42
 -11  -2  -1   14.31    5.40
  11  -2   2   -1.55    1.89
 -11  -2  -2   -1.85    2.53
  11  -2   3    2.02    1.33
  11  -2   3    3.36    2.15
 -11  -2  -3    5.23    3.30
  11  -2   4   -1.03    1.60
  11  -2   4    0.55    1.16
 -11   2  -4    5.30    3.46
 -11  -2  -4    2.95    3.03
  11  -2   5   12.21    4.48
 -11   2  -5    5.10    2.74
 -11  -2  -5    8.97    4.14
  11  -2   6   65.74   10.00
 -11   2  -6   83.09   12.26
 -11  -2  -6   82.44   12.43
 -11   2  -7    3.62    2.78
  11  -2   7    3.49    2.32
 -11  -2  -7    4.39    3.20
 -11  -2  -8    2.26    2.15
  11  -2   8   -3.66    2.66
 -11   2  -8    5.00    3.06
 -11   2  -9   16.43    5.55
 -11  -2  -9   12.14    4.88
  11  -2   9   23.61    6.36
 -11   2 -10   14.87    5.32
 -11  -2 -10   15.94    5.80
  11  -2  10   12.62    4.96
 -11   2 -11   46.77    9.34
 -11  -2 -11   58.18   10.92
 -11   2 -12    0.92    1.57
  11  -3 -12    1.37    2.03
  11   3 -11    1.81    1.55
  11  -3 -11    2.13    1.97
  11   3 -10    1.90    1.88
  11  -3 -10   12.90    4.62
  11   3  -9    2.98    2.59
  11  -3  -9    1.73    2.26
  11   3  -8    4.03    2.63
  11  -3  -8    1.32    1.63
  11   3  -7    4.23    2.96
  11  -3  -7    0.63    1.46
  11   3  -6   31.51    6.89
  11  -3  -6   36.90    6.96
  11   3  -5    6.84    2.82
  11  -3  -5    1.53    1.60
  11  -3  -4    4.80    2.39
  11  -3  -3    7.99    3.12
  11  -3  -2    1.75    1.42
  11  -3  -1    2.81    2.04
 -11  -3   0   32.08    7.68
  11  -3   0   19.34    4.59
  11  -3   1    2.80    1.95
 -11  -3  -1    6.99    4.20
  11  -3   2   11.36    3.52
 -11  -3  -2    7.55    3.88
  11  -3   3   -0.46    1.34
 -11  -3  -3    0.15    1.59
  11  -3   3   -0.32    1.30
  11  -3   4    2.98    2.25
  11  -3   4   -0.18    0.91
 -11   3  -4   -0.84    1.43
 -11  -3  -4   -1.50    2.86
  11  -3   5    4.11    2.55
 -11   3  -5   -2.31    2.32
 -11  -3  -5    0.68    1.89
 -11   3  -6    8.72    3.86
  11  -3   6    5.73    2.97
 -11  -3  -6    7.90    3.42
 -11  -3  -7   12.30    4.76
  11  -3   7   20.99    6.08
 -11   3  -7   18.23    5.87
 -11  -3  -8   47.70    9.68
  11  -3   8   55.37    9.85
 -11   3  -8   51.58    9.60
 -11  -3  -9   49.45    9.93
  11  -3   9   51.33    9.59
 -11   3  -9   41.67    8.69
 -11   3 -10   -0.96    1.59
 -11  -3 -10    0.62    2.19
  11   3  10   -2.81    2.75
  11  -3  10   -5.82    3.49
 -11   3 -11   -2.86    2.42
 -11  -3 -11   -0.38    1.63
  11  -3  11   -5.47    3.44
  11  -4 -11    6.66    3.45
  11  -4 -10   16.40    5.99
  11  -4  -9   -0.56    1.91
  11  -4  -8   -0.33    1.88
  11  -4  -7   26.06    5.92
  11  -4  -6   -1.47    2.70
  11  -4  -5   -0.75    2.17
  11  -4  -4   17.27    4.64
  11  -4  -3   21.00    5.00
  11  -4  -2   13.41    4.05
 -11  -4   1   17.60    5.72
  11  -4  -1   19.14    4.56
  11  -4   0   33.70    6.00
 -11  -4   0   45.25    9.07
  11  -4   1    7.14    2.67
 -11  -4  -1   10.79    4.53
  11  -4   2    3.77    2.14
 -11  -4  -2    3.98    2.96
  11  -4   3   26.07    6.45
  11  -4   3   33.76    5.61
 -11  -4  -3   32.76    7.92
 -11   4  -4   22.16    6.22
  11  -4   4   27.74    6.80
  11  -4   4   17.97    4.06
 -11  -4  -4   17.90    5.62
  11  -4   5   45.13    8.75
 -11   4  -5   45.07    9.02
 -11  -4  -5   55.29   10.49
 -11  -4  -6   20.81    6.43
 -11   4  -6   21.05    6.17
  11  -4   6   17.13    5.41
 -11  -4  -7   -0.26    1.66
  11  -4   7   -4.58    3.06
 -11   4  -7    2.82    2.77
 -11  -4  -8   22.24    6.76
  11  -4   8   20.05    5.97
 -11   4  -8   25.29    6.67
  11  -4   9   14.02    5.19
 -11  -4  -9   19.27    6.45
  11   4   9   20.91    6.67
 -11   4  -9   26.64    6.76
 -11   4 -10    4.39    2.84
 -11  -4 -10   13.10    5.29
  11   4  10    8.63    4.51
  11  -4  10    9.16    4.20
  11  -4  11   -2.16    2.30
 -11  -4 -11   -0.02    1.18
  11   4  11    2.28    3.08
  11  -5 -11   12.61    4.76
  11  -5 -10    9.05    4.04
  11  -5  -9    3.23    2.95
  11  -5  -8   23.59    5.87
  11  -5  -7   -0.65    2.13
  11  -5  -6   68.48    9.46
  11  -5  -5   39.09    7.07
  11  -5  -4    3.14    1.90
  11  -5  -3   14.73    4.21
 -11  -5   2   17.77    5.81
  11  -5  -2    6.30    2.51
  11  -5  -1    1.74    1.49
 -11  -5   1    9.61    4.39
  11  -5   0   -0.27    1.57
 -11  -5   0    2.03    1.84
  11  -5   1    6.61    2.52
 -11  -5  -1    7.78    4.31
  11  -5   2   46.37    6.77
  11  -5   2   49.18    9.16
 -11  -5  -2   49.65    9.68
  11  -5   3    8.17    3.91
  11  -5   3    2.78    1.99
 -11  -5  -3    7.80    3.90
  11  -5   4    1.47    1.54
  11  -5   4    6.43    3.55
 -11  -5  -4    7.36    3.88
 -11   5  -5   15.20    5.29
  11  -5   5   11.27    4.91
 -11  -5  -5   12.67    5.02
 -11  -5  -6    2.13    2.41
 -11   5  -6    8.67    4.42
  11  -5   6    4.37    2.77
 -11  -5  -7    6.19    2.94
  11  -5   7   12.11    4.87
  11   5   7   12.31    4.88
 -11   5  -7   17.25    5.58
 -11  -5  -8    2.14    1.99
  11   5   8   -1.25    2.36
  11  -5   8   -3.02    2.66
 -11   5  -8    6.14    3.62
  11  -5   9    7.78    4.15
 -11  -5  -9   11.88    4.97
  11   5   9    9.05    3.88
 -11   5  -9    5.31    2.98
  11  -5  10    3.97    3.08
 -11  -5 -10    3.28    2.89
  11   5  10    7.70    3.94
  11  -5  11   -2.90    2.69
  11  -6 -11   27.60    6.77
  11  -6 -10    7.70    3.50
  11  -6  -9   53.02    8.85
  11  -6  -8   -0.23    1.98
  11  -6  -7   18.30    5.09
  11  -6  -6    2.20    1.74
  11  -6  -5   -0.93    1.89
  11  -6  -4   -3.68    2.28
 -11  -6   3   -0.56    2.04
  11  -6  -3    1.32    1.36
  11  -6  -2    3.49    2.30
 -11  -6   2    4.07    2.73
  11  -6  -1   -1.02    2.00
 -11  -6   1    0.11    1.71
  11  -6   0    7.99    2.53
 -11  -6   0    4.20    2.78
  11  -6   1   16.39    4.25
 -11  -6  -1   11.36    4.92
  11  -6   2    2.66    1.62
  11  -6   2    3.54    2.15
 -11  -6  -2    4.52    3.03
  11  -6   3    1.48    2.22
  11  -6   3    0.39    1.20
 -11  -6  -3    0.06    2.03
  11  -6   4    4.40    2.18
  11  -6   4    0.31    1.65
 -11  -6  -4    3.15    3.18
 -11  -6  -5   12.13    5.03
 -11   6  -5   18.52    5.57
  11  -6   5   19.62    6.18
 -11  -6  -6    5.45    3.81
  11   6   6   -0.98    2.39
 -11   6  -6   -0.98    1.61
  11  -6   6    0.66    1.31
 -11  -6  -7   12.64    5.13
  11  -6   7   22.05    6.49
  11   6   7   15.53    5.51
 -11   6  -7   31.68    7.42
 -11  -6  -8    2.89    2.93
  11   6   8    5.48    3.35
  11  -6   8    3.32    2.48
 -11   6  -8    3.08    2.49
  11  -6   9   10.71    5.04
 -11  -6  -9   23.79    7.16
  11   6   9   20.98    6.34
  11  -6  10    8.73    4.34
  11   6  10    0.39    1.95
  11  -6  11   -2.08    2.37
  11  -7 -10    2.18    2.52
  11  -7  -9    5.02    2.96
  11  -7  -8    0.02    1.39
  11  -7  -7   12.24    4.36
  11  -7  -6   10.33    3.76
 -11  -7   5    2.59    2.42
  11  -7  -5    3.21    2.46
  11  -7  -4   11.61    4.02
 -11  -7   4   21.61    6.29
  11  -7  -3   -1.22    1.75
 -11  -7   3   -0.38    1.35
  11  -7  -2   -0.43    1.63
 -11  -7   2    3.16    2.43
  11  -7  -1   -1.06    1.75
 -11  -7   1   -2.29    2.20
  11  -7   0    6.08    2.84
 -11  -7   0    0.53    1.53
  11  -7   1   10.29    3.39
 -11  -7  -1   14.22    5.45
  11  -7   2    0.31    1.95
  11  -7   2    0.53    1.24
 -11  -7  -2    1.72    2.51
  11  -7   3   12.93    5.11
  11  -7   3    7.60    2.71
 -11  -7  -3    4.54    2.91
 -11  -7  -4   -3.43    2.90
  11  -7   4   -2.48    2.38
 -11  -7  -5   11.31    4.86
 -11   7  -5    9.55    4.16
  11  -7   5   13.94    5.16
  11  -7   6    1.96    2.24
 -11  -7  -6    1.86    2.62
  11   7   6   -1.15    2.71
 -11  -7  -7   21.18    6.92
  11  -7   7   15.53    5.52
  11   7   7   23.77    6.81
 -11   7  -7   29.44    7.11
 -11  -7  -8    0.28    1.50
  11   7   8    2.89    3.30
  11  -7   9    5.46    3.62
  11   7   9    1.16    1.95
  11  -7  10    5.66    3.95
  11   7  10   -1.71    2.40
  11  -7  11    5.40    3.50
  11  -8  -9   14.90    4.79
  11  -8  -8    9.07    3.57
  11  -8  -7   16.21    4.80
 -11  -8   6   38.33    8.55
  11  -8  -6   31.10    6.55
  11  -8  -5   29.64    6.36
 -11  -8   5   22.62    6.50
  11  -8  -4   50.47    8.11
 -11  -8   4   55.95   10.23
  11  -8  -3    2.20    2.15
 -11  -8   3   -2.81    2.45
  11  -8  -2   19.12    4.64
 -11  -8   2   22.59    6.61
  11  -8  -1   -0.26    2.08
 -11  -8   1    3.62    2.47
  11  -8   0   32.33    6.03
 -11  -8   0   43.47    9.18
  11  -8   1   28.72    5.59
  11  -8   1   26.74    7.21
 -11  -8  -1   27.86    7.29
  11  -8   2    1.60    1.96
  11  -8   2    2.57    2.00
 -11  -8  -2    4.40    3.07
 -11  -8  -3   17.69    5.93
  11  -8   3   10.48    4.60
  11  -8   3   11.91    3.58
 -11  -8  -4   37.69    8.66
  11  -8   4   31.46    7.95
 -11  -8  -5    0.97    2.67
  11   8   5    4.41    2.74
  11  -8   5    3.88    2.59
  11  -8   6    8.46    4.07
 -11  -8  -6   12.70    5.38
 -11   8  -6    5.87    3.02
  11   8   6    9.65    4.29
 -11  -8  -7    3.57    2.74
  11  -8   7    1.40    2.23
  11   8   7    1.05    1.82
  11   8   8    4.55    2.47
  11  -8   8    5.13    3.58
  11  -8   9    3.44    3.34
  11   8   9    1.18    1.51
  11   8  10    2.34    2.07
  11  -8  10    2.98    2.91
 -11  -9   9   -1.29    1.91
  11  -9  -9   -0.32    1.22
  11  -9  -8   12.87    4.25
 -11  -9   8   10.62    4.60
  11  -9  -7   10.70    4.13
 -11  -9   7   14.62    5.36
  11  -9  -6   86.52   10.91
 -11  -9   6   72.14   11.58
  11  -9  -5   19.95    5.51
 -11  -9   5   20.39    6.25
  11  -9  -4    2.41    1.88
 -11  -9   4    2.68    2.45
  11  -9  -3   16.49    4.63
 -11  -9   3   11.42    4.63
  11  -9  -2   21.32    5.48
 -11  -9   2   16.79    5.91
  11  -9  -1    5.53    2.87
 -11  -9   1    8.08    4.27
  11  -9   0   11.10    3.75
 -11  -9   0    3.92    2.77
  11  -9   1   -0.45    1.45
  11  -9   1    2.49    2.57
 -11  -9  -1    1.83    2.81
 -11  -9  -2   72.90   12.03
  11  -9   2   99.13   14.08
  11  -9   2   87.99    9.69
 -11  -9  -3    0.26    1.46
  11  -9   3    2.40    2.66
  11  -9   3    2.27    1.77
 -11  -9  -4    0.02    0.97
  11  -9   4   -1.03    1.83
 -11  -9  -5   27.54    7.92
  11   9   5    7.93    3.62
  11  -9   5   21.23    6.83
  11  -9   6   11.38    5.17
 -11  -9  -6   18.59    6.32
  11   9   6    8.49    4.09
  11  -9   7   -0.35    1.76
  11   9   7    5.59    3.39
  11   9   8    1.48    2.01
  11  -9   8    2.22    2.60
  11  -9   9    0.22    1.46
  11   9   9   -4.84    3.38
 -11 -10   9   -0.90    1.75
  11 -10  -8    0.09    2.38
 -11 -10   8   -3.23    2.62
  11 -10  -7    8.72    3.85
 -11 -10   7    9.62    4.06
  11 -10  -6   23.73    5.96
 -11 -10   6   21.15    6.28
  11 -10  -5   12.84    4.14
 -11 -10   5   -0.76    1.88
  11 -10  -4   37.72    7.46
 -11 -10   4   25.99    7.05
  11 -10  -3   11.51    4.17
 -11 -10   3    5.07    3.31
  11 -10  -2    4.04    3.02
 -11 -10   2    4.95    3.22
  11 -10  -1    7.83    3.27
 -11 -10   1    3.96    2.54
  11 -10   0   39.67    6.96
 -11 -10   0   41.93    9.09
 -11 -10  -1   28.41    7.60
  11 -10   1   15.99    4.19
  11 -10   1   26.06    7.18
 -11 -10  -2    3.31    2.53
  11 -10   2    0.05    2.23
  11 -10   2   -2.68    1.91
 -11 -10  -3    0.12    2.33
  11 -10   3   -4.05    2.19
 -11 -10  -4    5.02    3.50
  11  10   4    1.72    2.31
  11 -10   4    4.84    3.92
 -11 -10  -5   -1.49    2.31
  11  10   5   -0.50    1.59
  11 -10   6   14.95    6.07
  11  10   6   12.51    4.64
  11 -10   7    9.36    4.92
  11  10   7   20.04    6.35
  11  10   8    8.48    4.17
  11 -10   8   13.31    5.84
  11  10   9   17.21    6.03
 -11 -11   8    1.91    2.24
 -11 -11   7   27.68    7.27
  11 -11  -6    7.37    3.52
 -11 -11   6   -0.84    1.68
  11 -11  -5   -5.12    2.93
 -11 -11   5    0.16    2.52
  11 -11  -4    5.02    2.47
 -11 -11   4    2.65    2.38
  11 -11  -3    0.61    0.99
 -11 -11   3    1.75    2.03
 -11 -11   2   25.03    6.94
 -11 -11   1   -7.18    3.94
 -11 -11   0    2.82    2.74
  11 -11   0    3.51    2.69
 -11 -11  -1   -0.42    2.13
  11 -11   1   -0.48    1.47
  11 -11   1    2.03    1.45
  11 -11   2    1.94    3.07
 -11 -11  -2    0.82    2.13
  11 -11   2    5.97    2.65
 -11 -11  -3    9.13    4.65
  11 -11   3   10.71    4.96
  11 -11   3   10.26    3.40
 -11 -11  -4   17.90    6.25
  11 -11   4    5.15    3.22
  11  11   4   11.02    4.42
  11  11   5   17.76    5.56
  11 -11   5   25.41    7.77
  11  11   6    3.53    2.31
  11 -11   6    7.79    5.21
  11  11   7   21.89    6.59
  11  11   8    1.09    1.81
 -11 -12   6    0.79    1.61
 -11 -12   5    0.17    2.31
 -11 -12   4    1.13    1.88
 -11 -12   3   -1.08    1.61
 -11 -12   2    1.20    1.90
 -11 -12   1    3.66    2.95
 -11 -12   0   -0.67    2.68
 -11 -12  -1   26.69    7.44
  11 -12   1   25.10    7.65
  11 -12   2   -2.76    2.84
 -11 -12  -2    6.64    3.83
  11 -12   3   10.82    5.43
  11 -12   4   23.27    7.61
  11  12   6   -0.88    2.34
  11  12   7   11.89    4.91
  11  12   8   -1.40    2.15
 -11 -13   5    3.51    3.04
 -11 -13   4    0.07    1.30
 -11 -13   3    2.15    1.43
 -11 -13   2   -1.61    2.07
 -11 -13   1    2.06    2.43
 -11 -13   0    4.12    2.71
 -11 -13  -1   11.60    4.98
 -11 -14   3    2.24    1.94
 -11 -14   2   25.21    7.35
 -11 -14   1   19.49    6.38
  12   0 -10   -4.43    2.94
  12   0  -9   -0.98    2.37
  12   0  -8   32.97    7.24
  12   0  -7    3.27    2.61
  12   0  -6   24.90    6.26
  12   0  -5    0.30    1.38
  12   0  -4    7.17    3.24
  12   0  -3   -6.26    3.14
  12   0  -2   -0.25    1.72
  12   0  -1   -5.69    2.85
  12   0   0    8.17    3.68
  12   0   1   -4.65    2.57
  12   0   2    7.10    3.18
 -12   0  -2    7.02    3.64
 -12   0  -3    0.39    1.51
 -12   0  -4   26.09    7.45
 -12   0  -5    6.04    3.45
 -12   0  -6   84.70   13.29
 -12   0  -7    0.19    1.38
 -12   0  -8    2.47    2.56
 -12   0  -9    2.79    2.78
 -12   0 -10   68.17   12.00
  12   1 -10   20.02    6.08
  12  -1 -10   25.56    6.64
  12   1  -9    7.29    3.49
  12  -1  -9    5.41    3.03
  12   1  -8   -0.33    2.00
  12  -1  -8    0.08    1.83
  12   1  -7    3.44    2.79
  12  -1  -7   -0.79    1.59
  12   1  -6   23.60    6.19
  12  -1  -6   23.36    5.86
  12   1  -5   29.86    7.19
  12  -1  -5   19.50    5.20
  12   1  -4   11.61    4.50
  12  -1  -4    6.53    3.04
  12   1  -3    0.99    1.89
  12  -1  -3    5.20    3.14
  12   1  -2    4.35    3.06
  12  -1  -2    2.78    2.64
  12   1  -1   25.46    5.73
  12  -1  -1   29.08    6.16
  12   1   0   14.09    4.31
  12  -1   0   17.19    4.55
  12  -1   1   -1.10    1.79
 -12  -1  -1    0.99    1.25
  12  -1   2   -0.99    2.13
 -12   1  -2    4.07    3.07
  12  -1   3    0.33    0.94
 -12   1  -3    3.22    2.93
 -12  -1  -3    4.43    3.80
 -12   1  -4    2.99    2.74
 -12  -1  -4    6.24    4.32
  12  -1   5   13.14    4.44
 -12   1  -5    9.78    4.55
 -12  -1  -5    4.89    4.04
 -12   1  -6   10.47    4.96
 -12  -1  -6   13.57    5.66
 -12   1  -7   55.24   10.56
 -12  -1  -7   49.23   10.21
 -12  -1  -8   16.03    5.98
 -12   1  -8   21.15    6.59
 -12   1  -9    1.64    2.03
 -12  -1  -9   -1.07    2.29
 -12   1 -10    7.35    4.10
 -12  -1 -10   -1.77    2.28
 -12   1 -11    8.39    4.37
  12   2 -10    3.62    2.54
  12  -2 -10    2.27    1.56
  12   2  -9   -3.36    2.77
  12  -2  -9   -2.99    2.49
  12   2  -8    5.81    3.43
  12  -2  -8    5.93    2.80
  12   2  -7    5.46    3.34
  12  -2  -7    0.65    1.90
  12   2  -6    1.74    1.67
  12  -2  -6    7.10    3.78
  12   2  -5    7.54    3.75
  12  -2  -5    4.92    2.62
  12   2  -4   35.51    7.13
  12  -2  -4   55.04    8.74
  12   2  -3   95.62   11.71
  12  -2  -3  117.31   12.45
  12  -2  -2   -2.86    2.73
  12  -2  -1   -0.83    1.96
 -12  -2   0   -1.61    1.54
  12  -2   0   -1.53    2.24
  12  -2   1   64.62    8.79
 -12  -2  -1   46.05    9.71
  12  -2   2   -1.09    1.74
 -12  -2  -2    2.01    2.61
  12  -2   3   10.14    3.51
 -12   2  -3    3.86    2.74
 -12  -2  -3    3.09    2.81
 -12   2  -4   -6.95    3.92
 -12  -2  -4    9.03    4.31
  12  -2   5   56.07    9.59
 -12   2  -5   53.90   10.44
 -12  -2  -5   57.92   11.03
  12  -2   6   69.39   10.56
 -12   2  -6   59.77   11.00
 -12  -2  -6   74.64   12.56
 -12   2  -7   27.06    7.57
 -12  -2  -7   22.01    7.02
 -12  -2  -8    8.19    3.91
 -12   2  -8   13.88    5.34
 -12   2  -9   25.79    7.19
 -12  -2  -9   21.03    6.81
 -12   2 -10   14.28    5.51
  12  -3  -9    0.53    1.45
  12  -3  -8    7.32    3.53
  12  -3  -7   -2.56    2.67
  12  -3  -6   -0.25    1.88
  12  -3  -5    0.17    1.87
  12  -3  -4   -3.99    2.58
  12  -3  -3   21.23    5.52
  12  -3  -2    9.48    3.62
 -12  -3   1   52.79   10.51
  12  -3  -1   50.95    7.89
  12  -3   0    1.26    1.38
 -12  -3   0   -0.20    1.58
  12  -3   1    3.28    2.20
 -12  -3  -1    6.23    3.90
  12  -3   2    3.11    1.70
 -12  -3  -2    4.23    3.53
 -12   3  -3    2.82    2.46
  12  -3   3    2.73    1.75
 -12  -3  -3    4.39    3.39
  12  -3   4   -3.38    2.47
 -12   3  -4   -1.48    2.10
 -12  -3  -4   -0.57    1.51
  12  -3   5    5.81    3.15
 -12   3  -5    3.61    2.84
 -12  -3  -5    3.15    2.71
  12  -3   6   -0.10    1.26
 -12   3  -6   -0.15    1.83
 -12  -3  -6    0.29    1.59
 -12  -3  -7   -1.14    2.13
  12  -3   7   -3.22    2.61
 -12   3  -7    4.50    3.81
 -12  -3  -8   22.64    7.21
  12  -3   8   11.29    4.87
 -12   3  -8   17.55    5.98
 -12   3  -9    0.72    2.02
 -12   3 -10    5.67    3.43
  12  -4  -9    1.91    2.69
  12  -4  -8    2.41    2.61
  12  -4  -7    6.92    3.41
  12  -4  -6    6.23    3.40
  12  -4  -5    0.42    1.92
  12  -4  -4    7.26    2.82
  12  -4  -3    2.85    1.74
 -12  -4   2   12.41    4.94
  12  -4  -2   17.41    4.76
  12  -4  -1   16.45    4.34
 -12  -4   1   16.03    5.82
  12  -4   0    6.65    2.96
 -12  -4   0   11.34    4.82
  12  -4   1    5.22    2.32
 -12  -4  -1   14.80    5.61
  12  -4   2    2.29    1.80
 -12  -4  -2   -0.79    2.08
  12  -4   3   23.95    5.09
 -12  -4  -3   16.36    5.73
  12  -4   4    8.34    3.83
 -12   4  -4    9.35    4.29
 -12  -4  -4    3.06    2.33
  12  -4   5   71.17   11.36
 -12   4  -5   75.52   12.28
 -12  -4  -5   81.74   13.33
 -12  -4  -6   11.30    5.20
  12  -4   6    9.75    4.46
 -12   4  -6    6.26    3.77
 -12  -4  -7   19.16    6.65
  12  -4   7   28.61    7.44
 -12   4  -7   14.10    5.07
  12  -4   8   10.44    4.55
 -12   4  -8   13.16    4.94
  12  -4   9    3.06    2.77
 -12   4  -9   -3.57    2.93
  12  -4  10   23.76    7.00
  12  -5  -9   30.27    7.12
  12  -5  -8    6.43    3.21
  12  -5  -7    2.02    2.26
  12  -5  -6   92.49   11.64
  12  -5  -5   -1.03    2.55
  12  -5  -4    2.70    2.50
 -12  -5   3   -0.64    2.44
  12  -5  -3   -1.48    1.87
  12  -5  -2   -0.45    1.08
 -12  -5   2    0.94    1.77
  12  -5  -1    4.03    1.97
 -12  -5   1    3.41    3.04
  12  -5   0   14.35    4.13
 -12  -5   0   13.55    5.43
  12  -5   1    6.91    3.29
 -12  -5  -1   10.66    5.07
  12  -5   2    7.31    2.96
 -12  -5  -2   16.00    5.82
  12  -5   3    6.70    2.75
  12  -5   3    0.42    1.40
 -12  -5  -3    6.78    3.81
  12  -5   4   -0.78    1.49
 -12   5  -4    2.31    1.39
  12  -5   5   -0.50    1.52
 -12   5  -5   -6.37    3.67
 -12  -5  -5   -0.21    2.47
 -12  -5  -6    3.16    2.83
  12  -5   6    1.50    1.91
 -12   5  -6    2.95    2.95
 -12  -5  -7    3.62    3.88
  12  -5   7    3.03    2.83
 -12   5  -7    5.92    3.97
 -12   5  -8   17.52    5.88
  12  -5   8   26.56    7.65
  12  -5   9   -4.98    3.47
  12  -5  10   -8.07    4.41
  12  -6  -8   12.11    4.22
  12  -6  -7   13.77    5.25
  12  -6  -6   58.93    9.28
  12  -6  -5   35.19    7.04
 -12  -6   4    2.58    2.80
  12  -6  -4    3.73    2.37
  12  -6  -3    0.00    1.06
 -12  -6   3   -0.94    1.75
  12  -6  -2    1.07    1.39
 -12  -6   2   -0.46    2.21
  12  -6  -1    0.23    1.17
 -12  -6   1   -1.34    2.29
  12  -6   0   13.89    4.20
 -12  -6   0   19.09    6.38
  12  -6   1   25.57    5.35
 -12  -6  -1   17.43    5.90
  12  -6   2   38.98    6.62
 -12  -6  -2   49.41   10.22
  12  -6   3   17.97    5.95
 -12  -6  -3   11.01    5.12
  12  -6   4   -0.04    2.13
 -12  -6  -4    3.70    3.45
 -12  -6  -5   -0.60    1.68
 -12   6  -5   -0.58    1.58
 -12  -6  -6   17.31    6.43
  12  -6   6   21.98    6.86
 -12   6  -6   28.09    7.34
 -12   6  -7   11.95    5.08
  12  -6   7    8.06    4.17
  12  -6   8   -1.15    1.87
  12  -6   9    0.43    1.38
  12  -6  10    9.56    4.86
  12  -7  -7    3.85    2.75
 -12  -7   6   13.01    5.46
  12  -7  -6    7.16    3.06
  12  -7  -5   15.34    4.80
 -12  -7   5   14.48    5.72
  12  -7  -4    3.21    2.93
 -12  -7   4   -2.43    2.61
  12  -7  -3   -5.14    2.82
 -12  -7   3    6.61    3.89
  12  -7  -2   -2.09    1.43
 -12  -7   2   -2.33    2.56
  12  -7  -1    4.39    2.05
 -12  -7   1    1.91    2.69
  12  -7   0    8.57    3.39
 -12  -7   0    2.76    2.72
  12  -7   1    2.15    1.89
 -12  -7  -1    7.09    3.98
  12  -7   2    2.59    2.07
 -12  -7  -2    4.16    3.02
  12  -7   3    2.12    2.52
 -12  -7  -3    2.56    2.99
 -12  -7  -4    0.37    1.59
  12  -7   4    2.69    2.80
  12  -7   5    0.41    2.18
 -12   7  -5   -3.14    2.75
  12  -7   6    3.79    2.95
 -12   7  -6    4.28    2.85
  12  -7   7   11.38    4.96
  12  -7   8    0.32    1.63
  12   7   8    6.93    3.96
  12  -7   9    1.06    1.96
 -12  -8   8    7.54    4.11
 -12  -8   7   -0.66    1.76
  12  -8  -7    1.46    1.88
  12  -8  -6    7.28    3.72
 -12  -8   6    6.06    3.42
  12  -8  -5   57.97    9.31
 -12  -8   5   47.78   10.00
  12  -8  -4    0.01    1.75
 -12  -8   4   -0.22    1.41
  12  -8  -3    6.00    2.89
 -12  -8   3    4.22    2.91
  12  -8  -2   10.26    3.94
 -12  -8   2    3.61    2.77
  12  -8  -1   16.39    4.49
 -12  -8   1   22.10    6.95
  12  -8   0    1.08    1.30
 -12  -8   0    3.04    3.05
  12  -8   1   15.27    4.37
 -12  -8  -1   22.70    7.07
  12  -8   2    2.41    2.00
 -12  -8  -2    0.91    2.60
 -12  -8  -3    1.58    1.67
  12  -8   3    9.41    4.72
  12  -8   4    3.50    2.78
 -12   8  -5    6.01    3.16
  12  -8   5    5.54    3.93
  12  -8   6    9.10    4.92
  12  -8   7    6.34    4.02
  12  -8   8   -6.83    4.24
  12   8   8    3.19    3.19
 -12  -9   8    2.50    2.41
 -12  -9   7   31.75    8.29
  12  -9  -6    7.80    3.66
 -12  -9   6    8.42    4.39
  12  -9  -5   -2.81    2.88
 -12  -9   5    7.89    4.51
  12  -9  -4   14.33    4.59
 -12  -9   4    9.37    4.63
  12  -9  -3    5.83    2.94
 -12  -9   3    1.60    2.18
  12  -9  -2    3.26    2.27
 -12  -9   2    2.34    2.19
  12  -9  -1   51.97    8.20
 -12  -9   1   44.25   10.00
  12  -9   0    3.97    2.37
 -12  -9   0    0.82    1.70
  12  -9   1    5.16    2.63
 -12  -9  -1    5.18    4.14
  12  -9   2    1.41    1.92
  12  -9   2   -1.71    2.21
  12  -9   3   13.37    5.22
  12  -9   4    1.20    2.14
  12  -9   5    4.80    3.43
  12  -9   6   -1.74    2.53
  12   9   7   -1.70    2.10
 -12 -10   7    4.01    3.62
 -12 -10   6   10.59    4.89
  12 -10  -5    7.70    3.25
 -12 -10   5    6.57    4.16
  12 -10  -4    4.05    2.77
 -12 -10   4    7.87    4.18
  12 -10  -3    9.11    3.82
 -12 -10   3    9.69    4.84
  12 -10  -2    1.95    1.03
 -12 -10   2   -2.53    2.63
  12 -10  -1    9.83    3.80
 -12 -10   1    4.55    3.40
  12 -10   0    5.93    2.87
 -12 -10   0    5.45    3.51
  12 -10   1   49.32    7.95
  12 -10   2    4.83    2.74
  12 -10   2    0.15    1.43
  12 -10   3    0.56    1.72
  12 -10   4   21.43    7.16
  12  10   6   18.74    5.98
  12  10   7    6.01    3.45
 -12 -11   6   -2.61    2.58
 -12 -11   5    1.70    2.27
 -12 -11   4   18.55    6.41
  12 -11  -3    0.20    1.95
 -12 -11   3    5.73    3.27
  12 -11  -2    3.89    2.29
  12 -11  -1    9.79    3.74
  12 -11   0    5.36    2.84
  12 -11   1    3.42    1.77
  12 -12  -2   11.78    4.33
  12 -12  -1    2.14    2.01
  12 -12   0    3.47    2.20
  12 -12   1    5.12    3.08
  12 -13   0    1.68    1.87
  13   0  -7   42.52    8.68
  13   0  -6    2.45    2.13
  13   0  -5    6.66    3.61
  13   0  -4    4.16    2.81
  13   0  -3   91.06   11.84
  13   0  -2    0.69    1.62
  13   0  -1   -2.43    2.58
  13   0   0    2.70    1.84
 -13   0  -1    0.36    1.40
 -13   0  -2    0.63    2.86
 -13   0  -3   29.42    8.42
 -13   0  -4    4.65    3.87
 -13   0  -5   -2.92    2.84
  13   1  -7   10.70    4.53
  13  -1  -7    6.17    3.18
  13   1  -6    2.85    2.60
  13  -1  -6    6.81    3.90
  13   1  -5    8.12    3.51
  13  -1  -5   -1.75    2.30
  13   1  -4   24.80    6.41
  13  -1  -4   25.69    6.51
  13   1  -3   41.64    8.22
  13  -1  -3   39.31    7.51
  13   1  -2    5.09    3.21
  13  -1  -2    6.50    3.28
  13  -1  -1   37.01    7.19
  13  -1   0   -0.84    1.70
 -13  -1   0   -0.59    1.62
  13  -1   1   -0.24    1.42
 -13  -1  -1   -5.59    3.76
  13  -1   2    1.53    1.37
 -13   1  -2    1.15    2.43
 -13  -1  -2   -0.38    1.68
 -13   1  -3    6.94    4.28
 -13  -1  -3   15.51    6.05
 -13   1  -4    4.47    3.30
 -13  -1  -4    7.72    4.59
 -13   1  -5   50.73   10.77
 -13  -1  -5   55.91   11.41
 -13   1  -6   16.82    6.03
  13   2  -7    0.56    1.53
  13  -2  -7   12.97    4.61
  13   2  -6   -0.58    2.09
  13  -2  -6   -2.08    2.12
  13  -2  -5    4.94    2.33
  13  -2  -4   -0.19    1.72
  13  -2  -3    7.50    3.47
  13  -2  -2    2.97    2.05
 -13  -2   1   -0.45    1.42
  13  -2  -1   -2.63    2.47
  13  -2   0   -2.53    2.17
 -13  -2   0   -4.62    3.42
  13  -2   1   10.75    3.93
 -13  -2  -1   10.18    4.93
  13  -2   2   18.60    4.95
 -13   2  -2   13.44    5.31
 -13  -2  -2   21.71    7.24
 -13   2  -3    0.73    1.91
 -13  -2  -3   -1.51    2.30
 -13   2  -4   64.74   12.02
 -13  -2  -4   53.59   11.31
 -13   2  -5    6.69    4.38
 -13   2  -6   -0.16    3.44
  13  -3  -6    3.37    3.53
  13  -3  -5    1.34    1.86
  13  -3  -4   -1.98    2.78
  13  -3  -3    7.19    3.78
  13  -3  -2    8.79    3.38
  13  -3  -1    3.37    2.54
 -13  -3   1   10.43    5.11
  13  -3   0   25.23    5.86
 -13  -3   0   27.37    7.83
  13  -3   1   -0.44    1.17
 -13  -3  -1   -1.80    2.47
  13  -3   2   -0.73    1.88
 -13  -3  -2    4.83    3.07
 -13   3  -3    0.01    2.00
 -13  -3  -3    8.58    4.97
 -13   3  -4  116.54   16.17
 -13   3  -5    4.92    3.55
 -13   3  -6   18.08    6.61
 -13   3  -7   -2.13    2.60
  13  -4  -6   19.40    5.66
  13  -4  -5   -0.13    1.33
  13  -4  -4    0.17    1.77
 -13  -4   3    2.16    2.22
  13  -4  -3   -2.34    2.37
  13  -4  -2    0.99    2.07
 -13  -4   2    1.00    1.21
  13  -4  -1   17.45    5.01
 -13  -4   1   17.46    6.39
  13  -4   0   -0.88    1.55
 -13  -4   0   -1.59    1.51
  13  -4   1    3.05    2.08
 -13  -4  -1   -3.05    3.07
  13  -4   2   26.77    5.73
 -13   4  -3    1.69    2.57
 -13   4  -4    5.94    3.31
  13  -4   5   10.27    5.41
 -13   4  -5   -5.69    3.70
  13  -4   6    6.63    3.76
 -13   4  -6   26.15    7.70
 -13   4  -7    1.22    1.90
  13  -5  -6    5.69    3.51
  13  -5  -5   82.58   11.37
  13  -5  -4    7.15    3.70
  13  -5  -3   14.03    4.58
  13  -5  -2    4.64    3.29
  13  -5  -1    7.30    3.50
  13  -5   0   15.59    4.68
  13  -5   1    1.94    1.89
 -13   5  -4   15.97    6.15
 -13   5  -5   -3.12    3.20
  13  -5   5    4.07    3.07
  13  -5   6    8.72    4.34
 -13   5  -6   17.53    6.55
  13  -5   7    9.33    4.68
 -13   5  -7    7.39    4.54
  13  -6  -5    2.48    2.86
  13  -6  -4    1.42    2.05
  13  -6  -3   32.66    6.88
  13  -6  -2    2.82    2.60
  13  -6  -1    4.31    2.83
  13  -6   0   -1.92    2.24
  13  -6   1   47.33    7.82
  13  -6   4   -0.61    1.46
 -13   6  -4    1.04    1.46
  13  -6   5   11.47    4.98
 -13   6  -5    1.74    2.29
  13  -6   6    5.80    3.42
 -13   6  -6    8.30    4.49
  13  -6   7    4.38    3.26
  13  -7  -4    5.58    3.41
  13  -7  -3    2.95    2.31
  13  -7  -2    0.54    1.28
  13  -7  -1   20.92    5.57
  13  -7   0    0.04    1.19
  13  -7   1    4.41    2.42
 -13   7  -4   -4.30    3.23
  13  -7   4   -0.92    1.73
  13  -7   5    3.62    3.30
 -13   7  -5   -4.94    3.53
  13  -7   6    2.33    2.26
  13  -8  -3   25.63    6.32
  13  -8  -2    9.32    3.94
  13  -8  -1    1.07    1.90
  13  -8   0    6.64    3.34
  13  -8   1   10.61    3.91
 -13   8  -4   -3.68    3.12
  13  -9  -2   -4.23    2.76
  13  -9  -1    3.93    2.72
  13  -9   0   15.84    4.98
  13  -9   1   20.71    5.36
  13 -10  -1   10.16    4.18
  13 -10   0    8.96    4.07
  14   0  -3   -3.83    2.76
  14   0  -2   70.44   10.84
  14   0  -1    1.60    1.88
  14  -1  -3    1.31    1.77
  14  -1  -2   -0.53    2.37
  14  -1  -1    0.13    1.24
  14  -1   0   14.26    4.85
  14  -1   1    1.50    1.74
  14  -2  -3    0.55    1.44
  14  -2  -2    6.85    3.65
  14  -2  -1    0.91    1.50
  14  -2   0   -5.42    3.17
  14  -2   1    0.59    1.80
  14  -3  -3    0.51    1.46
  14  -3  -2    2.13    2.41
  14  -3  -1    8.01    3.53
  14  -3   0    1.81    2.04
  14  -4  -3    2.46    2.51
  14  -4  -2   31.75    7.25
  14  -4  -1    0.83    1.52
  14  -4   0    5.92    3.18
  14  -5  -2   -2.97    2.31
  14  -5  -1    4.34    2.70
  14  -5   0    7.40    3.63
  14  -6  -1    1.45    2.12
  14  -6   0    1.94    2.42
  14  -7  -1    6.37    3.28
   0   0   0    0.00    0.00

TITL wujc_0426_1 in P2(1)/n
REM P2(1)/n (#14 in standard setting)
CELL 0.71073  10.731812  16.845987  16.124392  90.0000  91.9237  90.0000
ZERR   13.00   0.000810   0.001483   0.001287   0.0000   0.0068   0.0000
LATT  1
SYMM -x+1/2, y+1/2,-z+1/2
SFAC C H N O
UNIT 143.00 130.00 13.00 13.00
TREF
HKLF 4
END
_computing_structure_solution     'SHELXT 2014/5 (Sheldrick, 2014)'
;
_shelx_hkl_checksum              94664
_shelx_shelxl_version_number     2014/7
_olex2_submission_special_instructions 'No special instructions were received'
loop_
_space_group_symop_operation_xyz
'x, y, z'
'-x+1/2, y+1/2, -z+1/2'
'-x, -y, -z'
'x-1/2, -y-1/2, z-1/2'
loop_
_atom_site_label
_atom_site_type_symbol
_atom_site_fract_x
_atom_site_fract_y
_atom_site_fract_z
_atom_site_U_iso_or_equiv
_atom_site_adp_type
_atom_site_occupancy
_atom_site_site_symmetry_order
_atom_site_calc_flag
_atom_site_refinement_flags_posn
S1 S 0.69470(6) 0.33254(4) 0.36711(4) 0.0259(2) Uani 1 1 d .
Na1 Na 0.56638(9) 0.17924(6) 0.42071(6) 0.0272(3) Uani 1 1 d .
O2 O 0.75228(17) 0.36379(12) 0.29359(11) 0.0346(5) Uani 1 1 d .
O1 O 0.56155(16) 0.31604(11) 0.36008(12) 0.0306(5) Uani 1 1 d .
O7 O 0.49411(17) 0.23416(12) 0.55466(12) 0.0338(5) Uani 1 1 d .
O10 O 1.02210(17) 0.11016(12) 0.47674(12) 0.0355(5) Uani 1 1 d .
O6 O 0.62586(17) 0.09848(13) 0.54660(12) 0.0378(5) Uani 1 1 d .
O4 O 0.45202(19) 0.11208(12) 0.30495(12) 0.0393(5) Uani 1 1 d .
O3 O 0.33411(17) 0.19390(13) 0.42352(12) 0.0373(5) Uani 1 1 d .
O5 O 0.66454(19) 0.05569(12) 0.38341(14) 0.0419(5) Uani 1 1 d .
O12 O 0.8740(2) 0.61288(14) 0.63527(14) 0.0516(7) Uani 1 1 d .
O11 O 0.7172(2) 0.56611(15) 0.70044(14) 0.0527(6) Uani 1 1 d .
N1 N 0.75744(18) 0.25831(13) 0.40682(13) 0.0233(5) Uani 1 1 d .
N2 N 0.7827(2) 0.56925(15) 0.63944(16) 0.0369(6) Uani 1 1 d .
C7 C 0.8947(2) 0.24911(16) 0.40150(15) 0.0239(6) Uani 1 1 d .
H7 H 0.9281 0.2942 0.3709 0.029 Uiso 1 1 calc R
C19 C 0.9231(2) 0.17305(16) 0.35602(16) 0.0253(6) Uani 1 1 d .
C8 C 0.9546(2) 0.24732(17) 0.48822(16) 0.0269(6) Uani 1 1 d .
C1 C 0.7072(2) 0.41130(16) 0.44161(16) 0.0267(6) Uani 1 1 d .
C13 C 1.0104(2) 0.17938(17) 0.52081(17) 0.0284(6) Uani 1 1 d .
C6 C 0.6426(2) 0.40503(18) 0.51491(18) 0.0324(7) Uani 1 1 d .
H6 H 0.5846 0.3645 0.5207 0.039 Uiso 1 1 calc R
C14 C 0.9799(2) 0.10908(17) 0.39444(17) 0.0292(7) Uani 1 1 d .
C4 C 0.7517(2) 0.51702(17) 0.56864(18) 0.0302(7) Uani 1 1 d .
C9 C 0.9526(2) 0.31415(19) 0.53895(17) 0.0326(7) Uani 1 1 d .
H9 H 0.9172 0.3608 0.5181 0.039 Uiso 1 1 calc R
C15 C 0.9978(2) 0.03765(18) 0.3532(2) 0.0358(7) Uani 1 1 d .
H15 H 1.0349 -0.0050 0.3811 0.043 Uiso 1 1 calc R
C2 C 0.7900(3) 0.47332(17) 0.43189(18) 0.0347(7) Uani 1 1 d .
H2 H 0.8297 0.4794 0.3819 0.042 Uiso 1 1 calc R
C18 C 0.8858(3) 0.16441(19) 0.27235(18) 0.0340(7) Uani 1 1 d .
H18 H 0.8469 0.2066 0.2447 0.041 Uiso 1 1 calc R
C10 C 1.0017(3) 0.3133(2) 0.61964(18) 0.0397(8) Uani 1 1 d .
H10 H 0.9998 0.3588 0.6522 0.048 Uiso 1 1 calc R
C5 C 0.6637(3) 0.45813(18) 0.57883(18) 0.0339(7) Uani 1 1 d .
H5 H 0.6199 0.4545 0.6275 0.041 Uiso 1 1 calc R
C12 C 1.0583(2) 0.1767(2) 0.60259(18) 0.0366(8) Uani 1 1 d .
H12 H 1.0930 0.1300 0.6238 0.044 Uiso 1 1 calc R
C17 C 0.9060(3) 0.0939(2) 0.23002(19) 0.0395(8) Uani 1 1 d .
H17 H 0.8827 0.0896 0.1741 0.047 Uiso 1 1 calc R
C11 C 1.0537(3) 0.2435(2) 0.65129(18) 0.0411(8) Uani 1 1 d .
H11 H 1.0855 0.2420 0.7056 0.049 Uiso 1 1 calc R
C28 C 0.3631(3) 0.2464(2) 0.55833(19) 0.0388(7) Uani 1 1 d .
H28A H 0.3459 0.2909 0.5944 0.047 Uiso 1 1 calc R
H28B H 0.3232 0.1996 0.5801 0.047 Uiso 1 1 calc R
C16 C 0.9608(3) 0.02997(19) 0.2711(2) 0.0379(8) Uani 1 1 d .
H16 H 0.9725 -0.0177 0.2434 0.045 Uiso 1 1 calc R
C3 C 0.8142(3) 0.52639(18) 0.49590(19) 0.0373(7) Uani 1 1 d .
H3 H 0.8712 0.5674 0.4900 0.045 Uiso 1 1 calc R
C29 C 0.3146(3) 0.26301(19) 0.4723(2) 0.0382(7) Uani 1 1 d .
H29A H 0.2264 0.2756 0.4728 0.046 Uiso 1 1 calc R
H29B H 0.3582 0.3079 0.4493 0.046 Uiso 1 1 calc R
C21 C 0.3206(3) 0.1279(2) 0.2970(2) 0.0448(9) Uani 1 1 d .
H21A H 0.2742 0.0853 0.3222 0.054 Uiso 1 1 calc R
H21B H 0.2950 0.1312 0.2389 0.054 Uiso 1 1 calc R
C20 C 0.2947(3) 0.2036(2) 0.33888(19) 0.0412(8) Uani 1 1 d .
H20A H 0.3403 0.2465 0.3137 0.049 Uiso 1 1 calc R
H20B H 0.2064 0.2157 0.3347 0.049 Uiso 1 1 calc R
C27 C 0.5496(3) 0.2013(2) 0.62867(18) 0.0432(8) Uani 1 1 d .
H27A H 0.4919 0.1651 0.6543 0.052 Uiso 1 1 calc R
H27B H 0.5707 0.2431 0.6680 0.052 Uiso 1 1 calc R
C24 C 0.6812(3) 0.00125(19) 0.4479(2) 0.0452(8) Uani 1 1 d .
H24 H 0.6684 -0.0532 0.4442 0.054 Uiso 1 1 calc R
C26 C 0.6645(3) 0.1579(2) 0.60505(19) 0.0415(8) Uani 1 1 d .
H26A H 0.7230 0.1941 0.5804 0.050 Uiso 1 1 calc R
H26B H 0.7046 0.1337 0.6535 0.050 Uiso 1 1 calc R
C25 C 0.7229(3) 0.0453(2) 0.5238(2) 0.0480(9) Uani 1 1 d .
H25A H 0.7411 0.0083 0.5687 0.058 Uiso 1 1 calc R
H25B H 0.7982 0.0749 0.5131 0.058 Uiso 1 1 calc R
C22 C 0.4837(3) 0.0308(2) 0.2930(2) 0.0463(8) Uani 1 1 d .
H22A H 0.4571 0.0135 0.2378 0.056 Uiso 1 1 calc R
H22B H 0.4435 -0.0023 0.3334 0.056 Uiso 1 1 calc R
C23 C 0.6198(3) 0.0252(2) 0.3036(2) 0.0486(9) Uani 1 1 d .
H23A H 0.6447 -0.0299 0.2986 0.058 Uiso 1 1 calc R
H23B H 0.6583 0.0548 0.2597 0.058 Uiso 1 1 calc R
loop_
_atom_site_aniso_label
_atom_site_aniso_U_11
_atom_site_aniso_U_22
_atom_site_aniso_U_33
_atom_site_aniso_U_23
_atom_site_aniso_U_13
_atom_site_aniso_U_12
S1 0.0298(4) 0.0240(4) 0.0235(4) 0.0029(3) -0.0041(3) -0.0027(3)
Na1 0.0271(6) 0.0248(6) 0.0296(6) 0.0003(5) 0.0007(4) -0.0025(4)
O2 0.0461(12) 0.0318(12) 0.0257(10) 0.0093(10) -0.0003(9) -0.0027(9)
O1 0.0289(10) 0.0289(11) 0.0333(11) 0.0013(10) -0.0077(8) -0.0005(8)
O7 0.0302(10) 0.0383(13) 0.0330(11) 0.0056(10) 0.0032(8) -0.0026(9)
O10 0.0358(11) 0.0319(12) 0.0383(12) 0.0044(10) -0.0085(9) 0.0014(9)
O6 0.0287(10) 0.0414(13) 0.0435(12) 0.0081(11) 0.0015(9) 0.0029(9)
O4 0.0509(13) 0.0322(13) 0.0345(12) 0.0001(10) -0.0036(9) -0.0052(10)
O3 0.0353(11) 0.0401(13) 0.0359(11) 0.0035(11) -0.0057(9) -0.0011(9)
O5 0.0444(12) 0.0298(12) 0.0514(13) -0.0041(11) 0.0000(10) 0.0006(9)
O12 0.0609(15) 0.0431(14) 0.0500(15) 0.0000(12) -0.0118(12) -0.0228(12)
O11 0.0612(15) 0.0528(16) 0.0444(14) -0.0177(13) 0.0039(11) -0.0079(12)
N1 0.0252(11) 0.0207(12) 0.0238(11) 0.0023(10) 0.0000(9) -0.0019(9)
N2 0.0431(15) 0.0276(15) 0.0391(15) 0.0000(12) -0.0112(12) -0.0016(12)
C7 0.0228(13) 0.0268(16) 0.0223(13) 0.0039(12) 0.0021(10) -0.0079(11)
C19 0.0222(13) 0.0287(16) 0.0256(14) 0.0006(13) 0.0086(10) -0.0059(11)
C8 0.0205(13) 0.0335(17) 0.0266(14) 0.0047(13) -0.0006(10) -0.0064(11)
C1 0.0302(14) 0.0210(15) 0.0285(14) 0.0046(13) -0.0051(11) 0.0000(11)
C13 0.0225(14) 0.0293(16) 0.0334(15) 0.0032(14) 0.0013(11) -0.0037(12)
C6 0.0269(14) 0.0306(17) 0.0396(16) -0.0042(15) 0.0012(12) -0.0067(12)
C14 0.0224(13) 0.0310(17) 0.0342(15) 0.0033(14) 0.0025(11) -0.0036(12)
C4 0.0323(15) 0.0229(15) 0.0347(16) -0.0033(14) -0.0064(12) 0.0002(12)
C9 0.0287(15) 0.0378(18) 0.0311(15) -0.0025(15) -0.0024(11) 0.0010(13)
C15 0.0301(15) 0.0268(17) 0.0508(19) 0.0036(16) 0.0026(13) 0.0002(12)
C2 0.0447(17) 0.0286(17) 0.0307(16) 0.0058(14) -0.0012(13) -0.0085(14)
C18 0.0340(15) 0.0396(19) 0.0288(15) 0.0047(15) 0.0088(12) 0.0007(13)
C10 0.0373(17) 0.053(2) 0.0282(16) -0.0051(16) -0.0040(13) 0.0014(15)
C5 0.0342(15) 0.0312(17) 0.0368(16) -0.0035(15) 0.0064(12) -0.0019(13)
C12 0.0309(15) 0.044(2) 0.0342(16) 0.0146(16) -0.0058(12) -0.0029(13)
C17 0.0480(18) 0.042(2) 0.0290(16) -0.0082(16) 0.0091(13) -0.0035(15)
C11 0.0372(17) 0.060(2) 0.0251(15) 0.0048(17) -0.0074(12) -0.0005(15)
C28 0.0409(17) 0.0355(19) 0.0406(17) -0.0061(16) 0.0098(13) 0.0012(14)
C16 0.0353(16) 0.0324(18) 0.0468(19) -0.0062(16) 0.0129(13) 0.0006(13)
C3 0.0423(17) 0.0283(17) 0.0409(18) 0.0061(15) -0.0054(13) -0.0105(13)
C29 0.0284(15) 0.0328(18) 0.0539(19) -0.0006(16) 0.0071(13) 0.0036(13)
C21 0.0360(17) 0.058(2) 0.0394(18) 0.0048(17) -0.0115(14) -0.0138(15)
C20 0.0313(16) 0.051(2) 0.0406(18) 0.0056(17) -0.0101(13) -0.0024(14)
C27 0.054(2) 0.049(2) 0.0266(15) -0.0018(16) 0.0010(14) -0.0089(16)
C24 0.0471(19) 0.0224(17) 0.067(2) 0.0042(17) 0.0145(17) 0.0021(14)
C26 0.0385(17) 0.054(2) 0.0318(16) 0.0124(17) -0.0070(13) -0.0070(15)
C25 0.0308(16) 0.056(2) 0.058(2) 0.030(2) 0.0095(14) 0.0158(15)
C22 0.057(2) 0.038(2) 0.0433(19) -0.0063(17) 0.0018(15) -0.0057(15)
C23 0.054(2) 0.040(2) 0.053(2) -0.0235(18) 0.0154(16) -0.0039(16)
loop_
_atom_type_symbol
_atom_type_description
_atom_type_scat_dispersion_real
_atom_type_scat_dispersion_imag
_atom_type_scat_source
C C 0.0033 0.0016 'International Tables Vol C Tables 4.2.6.8 and 6.1.1.4'
H H 0.0000 0.0000 'International Tables Vol C Tables 4.2.6.8 and 6.1.1.4'
N N 0.0061 0.0033 'International Tables Vol C Tables 4.2.6.8 and 6.1.1.4'
Na Na 0.0362 0.0249 'International Tables Vol C Tables 4.2.6.8 and 6.1.1.4'
O O 0.0106 0.0060 'International Tables Vol C Tables 4.2.6.8 and 6.1.1.4'
S S 0.1246 0.1234 'International Tables Vol C Tables 4.2.6.8 and 6.1.1.4'
loop_
_geom_angle_atom_site_label_1
_geom_angle_atom_site_label_2
_geom_angle_atom_site_label_3
_geom_angle
O2 S1 Na1 137.94(9)
O2 S1 O1 116.65(11)
O2 S1 N1 116.03(12)
O2 S1 C1 104.73(12)
O1 S1 Na1 53.99(8)
O1 S1 N1 106.85(11)
O1 S1 C1 104.17(12)
N1 S1 Na1 52.86(8)
N1 S1 C1 107.39(12)
C1 S1 Na1 117.33(9)
O1 Na1 S1 28.08(4)
O1 Na1 O6 144.76(8)
O1 Na1 O3 84.77(7)
O7 Na1 S1 95.01(6)
O7 Na1 O1 89.64(7)
O7 Na1 O6 65.10(7)
O7 Na1 O3 67.04(7)
O6 Na1 S1 125.50(6)
O4 Na1 S1 112.89(6)
O4 Na1 O1 97.08(7)
O4 Na1 O7 131.43(8)
O4 Na1 O6 117.97(8)
O4 Na1 O3 65.81(7)
O3 Na1 S1 112.25(6)
O3 Na1 O6 105.37(7)
O5 Na1 S1 116.84(6)
O5 Na1 O1 134.33(8)
O5 Na1 O7 133.21(8)
O5 Na1 O6 68.48(8)
O5 Na1 O4 68.15(7)
O5 Na1 O3 122.08(8)
O5 Na1 N1 94.13(8)
N1 Na1 S1 30.10(5)
N1 Na1 O1 58.17(7)
N1 Na1 O7 99.33(7)
N1 Na1 O6 100.19(7)
N1 Na1 O4 124.93(8)
N1 Na1 O3 141.27(8)
S1 O1 Na1 97.93(9)
C28 O7 Na1 115.18(16)
C28 O7 C27 114.0(2)
C27 O7 Na1 116.50(17)
C13 O10 C14 118.2(2)
C26 O6 Na1 102.39(16)
C26 O6 C25 114.3(2)
C25 O6 Na1 107.41(17)
C21 O4 Na1 116.30(18)
C22 O4 Na1 115.27(17)
C22 O4 C21 113.8(2)
C29 O3 Na1 104.79(15)
C20 O3 Na1 104.90(17)
C20 O3 C29 113.0(2)
C24 O5 Na1 115.27(18)
C24 O5 C23 117.3(3)
C23 O5 Na1 113.03(18)
S1 N1 Na1 97.04(10)
C7 N1 S1 118.57(17)
C7 N1 Na1 141.16(17)
O12 N2 O11 123.3(3)
O12 N2 C4 118.4(3)
O11 N2 C4 118.4(2)
N1 C7 H7 109.2
N1 C7 C19 109.45(19)
N1 C7 C8 109.8(2)
C19 C7 H7 109.2
C19 C7 C8 110.1(2)
C8 C7 H7 109.2
C14 C19 C7 122.6(2)
C14 C19 C18 117.4(3)
C18 C19 C7 119.9(2)
C13 C8 C7 121.9(3)
C13 C8 C9 117.4(2)
C9 C8 C7 120.7(3)
C6 C1 S1 118.9(2)
C2 C1 S1 121.1(2)
C2 C1 C6 119.5(3)
O10 C13 C8 123.4(2)
O10 C13 C12 115.0(3)
C8 C13 C12 121.6(3)
C1 C6 H6 119.6
C5 C6 C1 120.7(3)
C5 C6 H6 119.6
O10 C14 C15 115.0(3)
C19 C14 O10 123.1(3)
C19 C14 C15 121.9(3)
C5 C4 N2 118.3(3)
C3 C4 N2 119.2(3)
C3 C4 C5 122.4(3)
C8 C9 H9 119.0
C10 C9 C8 122.0(3)
C10 C9 H9 119.0
C14 C15 H15 120.0
C16 C15 C14 120.1(3)
C16 C15 H15 120.0
C1 C2 H2 119.7
C3 C2 C1 120.6(3)
C3 C2 H2 119.7
C19 C18 H18 119.4
C17 C18 C19 121.1(3)
C17 C18 H18 119.4
C9 C10 H10 120.4
C9 C10 C11 119.2(3)
C11 C10 H10 120.4
C6 C5 C4 118.2(3)
C6 C5 H5 120.9
C4 C5 H5 120.9
C13 C12 H12 120.2
C11 C12 C13 119.5(3)
C11 C12 H12 120.2
C18 C17 H17 120.0
C16 C17 C18 120.0(3)
C16 C17 H17 120.0
C10 C11 H11 119.9
C12 C11 C10 120.3(3)
C12 C11 H11 119.9
O7 C28 H28A 110.2
O7 C28 H28B 110.2
O7 C28 C29 107.6(2)
H28A C28 H28B 108.5
C29 C28 H28A 110.2
C29 C28 H28B 110.2
C15 C16 C17 119.5(3)
C15 C16 H16 120.3
C17 C16 H16 120.3
C4 C3 C2 118.4(3)
C4 C3 H3 120.8
C2 C3 H3 120.8
O3 C29 C28 107.9(2)
O3 C29 H29A 110.1
O3 C29 H29B 110.1
C28 C29 H29A 110.1
C28 C29 H29B 110.1
H29A C29 H29B 108.4
O4 C21 H21A 110.0
O4 C21 H21B 110.0
O4 C21 C20 108.6(2)
H21A C21 H21B 108.4
C20 C21 H21A 110.0
C20 C21 H21B 110.0
O3 C20 C21 106.6(3)
O3 C20 H20A 110.4
O3 C20 H20B 110.4
C21 C20 H20A 110.4
C21 C20 H20B 110.4
H20A C20 H20B 108.6
O7 C27 H27A 110.2
O7 C27 H27B 110.2
O7 C27 C26 107.5(2)
H27A C27 H27B 108.5
C26 C27 H27A 110.2
C26 C27 H27B 110.2
O5 C24 H24 125.9
O5 C24 C25 108.3(3)
C25 C24 H24 125.9
O6 C26 C27 106.7(2)
O6 C26 H26A 110.4
O6 C26 H26B 110.4
C27 C26 H26A 110.4
C27 C26 H26B 110.4
H26A C26 H26B 108.6
O6 C25 C24 108.8(2)
O6 C25 H25A 109.9
O6 C25 H25B 109.9
C24 C25 H25A 109.9
C24 C25 H25B 109.9
H25A C25 H25B 108.3
O4 C22 H22A 110.4
O4 C22 H22B 110.4
O4 C22 C23 106.7(3)
H22A C22 H22B 108.6
C23 C22 H22A 110.4
C23 C22 H22B 110.4
O5 C23 C22 112.2(3)
O5 C23 H23A 109.2
O5 C23 H23B 109.2
C22 C23 H23A 109.2
C22 C23 H23B 109.2
H23A C23 H23B 107.9
loop_
_geom_bond_atom_site_label_1
_geom_bond_atom_site_label_2
_geom_bond_distance
S1 Na1 3.0647(13)
S1 O2 1.4538(19)
S1 O1 1.4564(19)
S1 N1 1.549(2)
S1 C1 1.792(3)
Na1 O1 2.503(2)
Na1 O7 2.497(2)
Na1 O6 2.508(2)
Na1 O4 2.473(2)
Na1 O3 2.507(2)
Na1 O5 2.418(2)
Na1 N1 2.462(2)
O7 C28 1.424(3)
O7 C27 1.427(3)
O10 C13 1.373(3)
O10 C14 1.388(3)
O6 C26 1.427(4)
O6 C25 1.431(4)
O4 C21 1.437(4)
O4 C22 1.425(4)
O3 C29 1.425(4)
O3 C20 1.424(3)
O5 C24 1.394(4)
O5 C23 1.452(4)
O12 N2 1.228(3)
O11 N2 1.229(3)
N1 C7 1.486(3)
N2 C4 1.470(4)
C7 H7 0.9800
C7 C19 1.513(4)
C7 C8 1.520(4)
C19 C14 1.375(4)
C19 C18 1.402(4)
C8 C13 1.387(4)
C8 C9 1.392(4)
C1 C6 1.394(4)
C1 C2 1.384(4)
C13 C12 1.400(4)
C6 H6 0.9300
C6 C5 1.378(4)
C14 C15 1.392(4)
C4 C5 1.384(4)
C4 C3 1.379(4)
C9 H9 0.9300
C9 C10 1.387(4)
C15 H15 0.9300
C15 C16 1.375(4)
C2 H2 0.9300
C2 C3 1.383(4)
C18 H18 0.9300
C18 C17 1.391(4)
C10 H10 0.9300
C10 C11 1.392(4)
C5 H5 0.9300
C12 H12 0.9300
C12 C11 1.374(5)
C17 H17 0.9300
C17 C16 1.385(4)
C11 H11 0.9300
C28 H28A 0.9700
C28 H28B 0.9700
C28 C29 1.491(4)
C16 H16 0.9300
C3 H3 0.9300
C29 H29A 0.9700
C29 H29B 0.9700
C21 H21A 0.9700
C21 H21B 0.9700
C21 C20 1.473(5)
C20 H20A 0.9700
C20 H20B 0.9700
C27 H27A 0.9700
C27 H27B 0.9700
C27 C26 1.494(4)
C24 H24 0.9300
C24 C25 1.486(5)
C26 H26A 0.9700
C26 H26B 0.9700
C25 H25A 0.9700
C25 H25B 0.9700
C22 H22A 0.9700
C22 H22B 0.9700
C22 C23 1.468(5)
C23 H23A 0.9700
C23 H23B 0.9700
loop_
_geom_torsion_atom_site_label_1
_geom_torsion_atom_site_label_2
_geom_torsion_atom_site_label_3
_geom_torsion_atom_site_label_4
_geom_torsion
S1 N1 C7 C19 -120.2(2)
S1 N1 C7 C8 118.9(2)
S1 C1 C6 C5 170.4(2)
S1 C1 C2 C3 -169.1(2)
Na1 S1 N1 C7 163.9(2)
Na1 S1 C1 C6 -9.8(2)
Na1 S1 C1 C2 162.98(19)
Na1 O7 C28 C29 -28.9(3)
Na1 O7 C27 C26 16.2(3)
Na1 O6 C26 C27 70.6(2)
Na1 O6 C25 C24 -52.2(3)
Na1 O4 C21 C20 22.2(3)
Na1 O4 C22 C23 -41.6(3)
Na1 O3 C29 C28 -64.5(2)
Na1 O3 C20 C21 66.5(2)
Na1 O5 C24 C25 -41.2(3)
Na1 O5 C23 C22 -43.8(3)
Na1 N1 C7 C19 33.8(3)
Na1 N1 C7 C8 -87.1(3)
O2 S1 O1 Na1 131.47(11)
O2 S1 N1 Na1 -131.81(11)
O2 S1 N1 C7 32.1(2)
O2 S1 C1 C6 169.7(2)
O2 S1 C1 C2 -17.5(2)
O1 S1 N1 Na1 0.22(12)
O1 S1 N1 C7 164.14(18)
O1 S1 C1 C6 46.7(2)
O1 S1 C1 C2 -140.5(2)
O7 C28 C29 O3 63.9(3)
O7 C27 C26 O6 -59.0(3)
O10 C13 C12 C11 178.5(2)
O10 C14 C15 C16 -179.3(2)
O4 C21 C20 O3 -59.9(3)
O4 C22 C23 O5 56.0(4)
O5 C24 C25 O6 63.8(3)
O12 N2 C4 C5 168.6(3)
O12 N2 C4 C3 -9.1(4)
O11 N2 C4 C5 -10.2(4)
O11 N2 C4 C3 172.1(3)
N1 S1 O1 Na1 -0.21(12)
N1 S1 C1 C6 -66.4(2)
N1 S1 C1 C2 106.4(2)
N1 C7 C19 C14 -112.3(3)
N1 C7 C19 C18 64.6(3)
N1 C7 C8 C13 112.1(3)
N1 C7 C8 C9 -66.2(3)
N2 C4 C5 C6 -174.5(2)
N2 C4 C3 C2 175.7(2)
C7 C19 C14 O10 -3.6(4)
C7 C19 C14 C15 175.6(2)
C7 C19 C18 C17 -177.2(2)
C7 C8 C13 O10 3.6(4)
C7 C8 C13 C12 -175.8(2)
C7 C8 C9 C10 177.1(3)
C19 C7 C8 C13 -8.4(3)
C19 C7 C8 C9 173.2(2)
C19 C14 C15 C16 1.4(4)
C19 C18 C17 C16 1.7(4)
C8 C7 C19 C14 8.5(3)
C8 C7 C19 C18 -174.7(2)
C8 C13 C12 C11 -2.0(4)
C8 C9 C10 C11 -0.5(4)
C1 S1 O1 Na1 -113.70(11)
C1 S1 N1 Na1 111.49(11)
C1 S1 N1 C7 -84.6(2)
C1 C6 C5 C4 -0.8(4)
C1 C2 C3 C4 -1.5(4)
C13 O10 C14 C19 -2.4(4)
C13 O10 C14 C15 178.4(2)
C13 C8 C9 C10 -1.3(4)
C13 C12 C11 C10 0.1(4)
C6 C1 C2 C3 3.6(4)
C14 O10 C13 C8 2.4(4)
C14 O10 C13 C12 -178.2(2)
C14 C19 C18 C17 -0.2(4)
C14 C15 C16 C17 0.2(4)
C9 C8 C13 O10 -178.0(2)
C9 C8 C13 C12 2.6(4)
C9 C10 C11 C12 1.2(4)
C2 C1 C6 C5 -2.4(4)
C18 C19 C14 O10 179.4(2)
C18 C19 C14 C15 -1.3(4)
C18 C17 C16 C15 -1.7(4)
C5 C4 C3 C2 -1.9(5)
C28 O7 C27 C26 154.1(3)
C3 C4 C5 C6 3.0(4)
C29 O3 C20 C21 -179.9(2)
C21 O4 C22 C23 -179.7(3)
C20 O3 C29 C28 -178.1(2)
C27 O7 C28 C29 -167.4(3)
C24 O5 C23 C22 94.1(3)
C26 O6 C25 C24 -165.1(2)
C25 O6 C26 C27 -173.6(2)
C22 O4 C21 C20 159.8(3)
C23 O5 C24 C25 -178.1(2)
