#------------------------------------------------------------------------------
#$Date: 2016-12-15 04:16:16 +0200 (Thu, 15 Dec 2016) $
#$Revision: 189133 $
#$URL: file:///home/coder/svn-repositories/cod/cif/1/54/47/1544783.cif $
#------------------------------------------------------------------------------
#
# This file is available in the Crystallography Open Database (COD),
# http://www.crystallography.net/. The original data for this entry
# were provided by IUCr Journals, http://journals.iucr.org/.
#
# The file may be used within the scientific community so long as
# proper attribution is given to the journal article from which the
# data were obtained.
#
data_1544783
loop_
_publ_author_name
'Mulijanto, Caroline Evania'
'Quah, Hong Sheng'
'Tan, Geok Kheng'
'Donnadieu, Bruno'
'Vittal, Jagadese J.'
_publ_section_title
;
 Curved crystal morphology, photoreactivity and photosalient behaviour of
 mononuclear Zn(II) complexes
;
_journal_issue                   1
_journal_name_full               IUCrJ
_journal_page_first
;
;
_journal_paper_doi               10.1107/S2052252516019072
_journal_volume                  4
_journal_year                    2017
_chemical_formula_sum            'C28 H26 F2 N4 O6 S2 Zn'
_chemical_formula_weight         682.02
_space_group_crystal_system      monoclinic
_space_group_IT_number           13
_space_group_name_Hall           '-P 2yac'
_space_group_name_H-M_alt        'P 1 2/n 1'
_symmetry_space_group_name_Hall  '-P 2yac'
_symmetry_space_group_name_H-M   'P 1 2/n 1'
_atom_sites_solution_hydrogens   geom
_audit_creation_method           SHELXL-2014/7
_cell_angle_alpha                90
_cell_angle_beta                 93.183(4)
_cell_angle_gamma                90
_cell_formula_units_Z            2
_cell_length_a                   14.871(2)
_cell_length_b                   4.9627(9)
_cell_length_c                   20.315(3)
_cell_measurement_temperature    100(2)
_cell_volume                     1496.9(4)
_computing_structure_refinement  'SHELXL-2014/7 (Sheldrick, 2014)'
_diffrn_ambient_temperature      100(2)
_diffrn_measured_fraction_theta_full 0.999
_diffrn_measured_fraction_theta_max 0.952
_diffrn_radiation_type           MoK\a
_diffrn_radiation_wavelength     0.71073
_diffrn_reflns_av_R_equivalents  0.0973
_diffrn_reflns_av_unetI/netI     0.1197
_diffrn_reflns_Laue_measured_fraction_full 0.999
_diffrn_reflns_Laue_measured_fraction_max 0.952
_diffrn_reflns_limit_h_max       19
_diffrn_reflns_limit_h_min       -17
_diffrn_reflns_limit_k_max       5
_diffrn_reflns_limit_k_min       -6
_diffrn_reflns_limit_l_max       27
_diffrn_reflns_limit_l_min       -26
_diffrn_reflns_number            10941
_diffrn_reflns_point_group_measured_fraction_full 0.999
_diffrn_reflns_point_group_measured_fraction_max 0.952
_diffrn_reflns_theta_full        25.242
_diffrn_reflns_theta_max         28.294
_diffrn_reflns_theta_min         2.744
_exptl_absorpt_coefficient_mu    1.021
_exptl_crystal_density_diffrn    1.513
_exptl_crystal_F_000             700
_exptl_crystal_size_max          0.130
_exptl_crystal_size_mid          0.091
_exptl_crystal_size_min          0.054
_refine_diff_density_max         0.722
_refine_diff_density_min         -0.543
_refine_diff_density_rms         0.099
_refine_ls_extinction_method     none
_refine_ls_goodness_of_fit_ref   0.937
_refine_ls_hydrogen_treatment    constr
_refine_ls_matrix_type           full
_refine_ls_number_parameters     197
_refine_ls_number_reflns         3550
_refine_ls_number_restraints     0
_refine_ls_restrained_S_all      0.937
_refine_ls_R_factor_all          0.1452
_refine_ls_R_factor_gt           0.0645
_refine_ls_shift/su_max          0.607
_refine_ls_shift/su_mean         0.029
_refine_ls_structure_factor_coef Fsqd
_refine_ls_weighting_details
'w=1/[\s^2^(Fo^2^)+(0.0911P)^2^+2.3072P] where P=(Fo^2^+2Fc^2^)/3'
_refine_ls_weighting_scheme      calc
_refine_ls_wR_factor_gt          0.1408
_refine_ls_wR_factor_ref         0.1804
_reflns_Friedel_coverage         0.000
_reflns_number_gt                2059
_reflns_number_total             3550
_reflns_threshold_expression     'I > 2\s(I)'
_cod_data_source_file            lq5002.cif
_cod_data_source_block           f076
_cod_database_code               1544783
_shelx_shelxl_version_number     2014/7
_shelx_space_group_comment
;
The symmetry employed for this shelxl refinement is uniquely defined
by the following loop, which should always be used as a source of
symmetry information in preference to the above space-group names.
They are only intended as comments.
;
_shelx_estimated_absorpt_t_min   0.879
_shelx_estimated_absorpt_t_max   0.947
_shelx_res_file
;

    f076.res created by SHELXL-2014/7


TITL f076 in P2/n modeling THF
CELL  0.71073  14.8710   4.9627  20.3150   90.000   93.183   90.000
ZERR     2.00   0.0020   0.0009   0.0030    0.000    0.004    0.000
LATT   1
SYMM  1/2 - X,   Y, 1/2 - Z
SFAC  C  H  F  N  S  ZN O
UNIT  56 52 4 8 4 2  12
TEMP  -173.00
SIZE 0.054   0.091   0.130
ACTA
L.S.  6
WGHT    0.091100    2.307200
FVAR       0.14081
ZN1   6    0.250000    0.826791    0.250000    10.50000    0.03198    0.02526 =
         0.01682    0.00000    0.00655    0.00000
S1    5    0.535497    1.228682    0.271997    11.00000    0.03041    0.08626 =
         0.05959   -0.01638   -0.00666   -0.01289
F1    3    0.472780   -0.788817   -0.103548    11.00000    0.02911    0.04708 =
         0.05560   -0.01403   -0.00253    0.01042
N1    4    0.272737    0.587799    0.171324    11.00000    0.03090    0.02610 =
         0.01486    0.00149    0.00723   -0.00253
C1    1    0.206544    0.481000    0.132655    11.00000    0.02415    0.03221 =
         0.02709    0.00089    0.00478   -0.00240
AFIX  43
H1    2    0.146712    0.540554    0.138145    11.00000   -1.20000
AFIX   0
C2    1    0.220161    0.289511    0.085303    11.00000    0.02654    0.03526 =
         0.02652   -0.00420   -0.00140   -0.00627
AFIX  43
H2    2    0.170461    0.220694    0.059104    11.00000   -1.20000
AFIX   0
C3    1    0.306400    0.196959    0.075814    11.00000    0.03446    0.02048 =
         0.01670    0.00287    0.00469   -0.00042
C4    1    0.375570    0.312539    0.115064    11.00000    0.03247    0.03078 =
         0.02228    0.00036    0.00411    0.00423
AFIX  43
H4    2    0.436139    0.259216    0.109952    11.00000   -1.20000
AFIX   0
C5    1    0.356617    0.503908    0.161293    11.00000    0.03140    0.02889 =
         0.02463    0.00072    0.00299   -0.00109
AFIX  43
H5    2    0.405203    0.580187    0.187321    11.00000   -1.20000
AFIX   0
C6    1    0.328354   -0.012449    0.028396    11.00000    0.02356    0.02805 =
         0.02395    0.00184    0.00031    0.00272
AFIX  43
H6    2    0.388960   -0.073644    0.029753    11.00000   -1.20000
AFIX   0
C7    1    0.271748   -0.124082   -0.016060    11.00000    0.02737    0.03296 =
         0.02704    0.00055    0.00028    0.00291
AFIX  43
H7    2    0.211183   -0.062467   -0.017677    11.00000   -1.20000
AFIX   0
C8    1    0.294142   -0.335092   -0.063229    11.00000    0.03100    0.02818 =
         0.01922   -0.00438    0.00164   -0.00083
C9    1    0.230171   -0.415132   -0.110985    11.00000    0.03439    0.06317 =
         0.04079   -0.02241   -0.00346    0.01621
AFIX  43
H9    2    0.172805   -0.330376   -0.112928    11.00000   -1.20000
AFIX   0
C10   1    0.247055   -0.616332   -0.156446    11.00000    0.04304    0.07492 =
         0.03674   -0.02717   -0.01720    0.01753
AFIX  43
H10   2    0.201306   -0.666511   -0.188612    11.00000   -1.20000
AFIX   0
C11   1    0.328970   -0.742435   -0.155201    11.00000    0.03510    0.04071 =
         0.02010   -0.00987   -0.00075    0.00521
AFIX  43
H11   2    0.341329   -0.880845   -0.185715    11.00000   -1.20000
AFIX   0
C12   1    0.392504   -0.659735   -0.107817    11.00000    0.02174    0.02950 =
         0.02475    0.00030    0.00368    0.00234
C13   1    0.377376   -0.461760   -0.062139    11.00000    0.02370    0.03283 =
         0.02090    0.00183   -0.00430   -0.00503
AFIX  43
H13   2    0.423534   -0.412499   -0.030199    11.00000   -1.20000
AFIX   0
N2    4    0.364094    1.004931    0.269981    11.00000    0.04394    0.03130 =
         0.02364   -0.00386    0.00429   -0.00164
C14   1    0.436599    1.093352    0.271367    11.00000    0.03643    0.04049 =
         0.02395   -0.00676   -0.00447    0.00740
C1S   1    0.000000    0.000000    0.000000    10.25000    0.06683
C2S   1    0.002045    0.411412   -0.014817    10.50000    0.06837
C3S   1   -0.021606   -0.157117    0.082074    10.50000    0.12443
C4S   1    0.001489    0.194366   -0.015980    10.50000    0.07555
C5S   1    0.013829   -0.012438   -0.053465    10.50000    0.08958
C7S   1    0.011904   -0.433424   -0.049728    10.50000    0.08446
C8S   1    0.017043   -0.628391   -0.070516    10.50000    0.08902
C9S   1    0.010462   -0.212244   -0.050386    10.50000    0.10043

HKLF    4

REM  f076 in P2/n modeling THF
REM R1 =  0.0645 for    2059 Fo > 4sig(Fo)  and  0.1452 for all    3550 data
REM    197 parameters refined using      0 restraints

END

WGHT      0.0733      0.8196

REM Highest difference peak  0.722,  deepest hole -0.543,  1-sigma level  0.099
Q1    1  -0.0157 -0.1800  0.0594  11.00000  0.05    0.72
Q2    1   0.0050  0.0668 -0.0235  11.00000  0.05    0.53
Q3    1   0.0060 -0.4503 -0.0185  11.00000  0.05    0.45
Q4    1   0.0011  0.3013 -0.0099  11.00000  0.05    0.43
Q5    1   0.2545  0.6836  0.1908  11.00000  0.05    0.42
Q6    1   0.5336  1.0750  0.2930  11.00000  0.05    0.40
Q7    1   0.0315 -0.6441 -0.1238  11.00000  0.05    0.39
Q8    1   0.2755  0.3105  0.0602  11.00000  0.05    0.38
Q9    1   0.3001  0.6091  0.2269  11.00000  0.05    0.37
Q10   1   0.5028  1.3349  0.2911  11.00000  0.05    0.36
Q11   1   0.3225  0.2841  0.1085  11.00000  0.05    0.36
Q12   1   0.1145  0.3280  0.0490  11.00000  0.05    0.36
Q13   1   0.0282 -0.0103 -0.0890  11.00000  0.05    0.35
Q14   1   0.0059 -0.3217 -0.0791  11.00000  0.05    0.34
Q15   1   0.2745  1.1020  0.2683  11.00000  0.05    0.34
Q16   1   0.1623  0.3141  0.0919  11.00000  0.05    0.34
Q17   1   0.3234 -0.1673  0.0030  11.00000  0.05    0.33
Q18   1   0.2348 -0.0168 -0.0408  11.00000  0.05    0.32
Q19   1   0.1701  0.5412  0.1219  11.00000  0.05    0.31
Q20   1   0.2948  0.6829  0.2879  11.00000  0.05    0.31
;
_shelx_res_checksum              27752
_shelx_hkl_file
;
   2   0   0  126.96    1.38
  -2   0   0  127.55    1.38
   3   0   0   -0.05    0.15
  -3   0   0   -0.11    0.14
   4   0   0  462.79    4.39
   5   0   0    0.06    0.25
   5   0   0   -0.01    0.16
   6   0   0    0.44    0.35
   6   0   0    0.48    0.22
   6   0   0    0.95    0.36
   7   0   0   -0.11    0.40
   7   0   0    0.27    0.22
   7   0   0    0.18    0.35
   8   0   0  125.44    1.67
   8   0   0  129.09    2.44
   8   0   0  127.38    2.26
   9   0   0   -0.04    0.29
   9   0   0    0.53    0.53
   9   0   0    0.68    0.57
  10   0   0   18.84    1.23
  10   0   0   19.74    1.32
  10   0   0   18.60    0.75
  11   0   0    0.72    0.38
  11   0   0    0.53    0.73
  11   0   0    1.04    0.78
  12   0   0   -0.59    1.51
  12   0   0    2.51    0.49
  12   0   0    0.40    0.86
  13   0   0    1.51    0.98
  13   0   0   -0.46    1.08
  14   0   0   17.30    1.60
  14   0   0   13.24    1.67
  15   0   0    1.03    1.41
  15   0   0    2.21    1.35
  16   0   0    0.54    1.89
  16   0   0   -2.98    1.45
  17   0   0   -5.87    2.02
  17   0   0   -1.00    2.24
  18   0   0    3.57    2.24
  18   0   0   -1.23    2.57
  19   0   0   -1.36    2.57
   0  -1   0   12.15    0.56
  -1  -1   0    3.14    0.36
   1   1   0    4.44    0.42
  -2  -1   0   36.31    0.93
   2   1   0   34.37    0.90
  -3  -1   0   79.23    1.46
  -3   1   0   80.43    1.36
   3   1   0   80.27    1.48
  -4  -1   0    1.87    0.37
  -4   1   0    1.74    0.34
   4   1   0    2.78    0.44
   5  -1   0  117.81    1.87
  -5  -1   0  117.84    2.03
  -5  -1   0  116.81    1.64
   5   1   0  117.56    2.07
  -5   1   0  116.51    1.84
  -6  -1   0    2.66    0.51
   6  -1   0    1.77    0.44
  -6  -1   0    2.66    0.36
  -6   1   0    3.00    0.43
   6   1   0    2.40    0.51
   7  -1   0   18.27    0.93
  -7  -1   0   15.51    1.03
  -7  -1   0   17.04    0.66
   7   1   0   16.55    1.00
  -7   1   0   16.52    0.87
  -8  -1   0    6.18    0.53
   8  -1   0    5.43    0.71
  -8   1   0    5.23    0.65
   8   1   0    6.87    0.86
   9  -1   0   30.87    1.32
   9   1   0   30.56    1.49
   9   1   0   30.44    1.45
  -9   1   0   28.92    1.27
  10  -1   0   15.08    1.22
 -10   1   0   13.51    1.13
  10   1   0   13.26    1.31
  10   1   0   16.48    1.42
  11  -1   0    7.83    1.03
  11   1   0    7.59    1.20
  11   1   0    7.70    1.08
 -11   1   0    8.67    0.93
  12  -1   0    8.48    1.12
  12   1   0    7.66    1.22
  12   1   0    7.04    1.24
  13  -1   0    3.37    1.11
  13   1   0    3.89    1.18
  13   1   0    3.71    1.25
  14  -1   0    3.52    0.77
  14  -1   0    4.89    1.43
  14  -1   0    5.73    1.30
  14   1   0    5.95    1.57
  14   1   0    5.29    1.33
  15  -1   0    0.77    0.76
  15  -1   0    3.03    1.40
  15  -1   0    2.36    1.47
  15   1   0    4.90    1.72
  15   1   0    0.36    1.31
  16  -1   0    0.75    1.49
  16  -1   0    0.90    1.66
  16  -1   0    1.21    0.84
  16   1   0    2.27    1.91
  16   1   0    0.91    1.60
  17  -1   0   -1.90    1.70
  17  -1   0    0.11    0.89
  17  -1   0    0.18    2.02
  17   1   0   -4.49    2.28
  17   1   0    0.52    1.94
  18  -1   0   -4.72    2.47
  18   1   0   -1.72    2.26
  18   1   0    1.65    2.84
  19  -1   0    6.19    2.67
  19   1   0    5.04    2.91
   0  -2   0   37.60    1.27
  -1  -2   0   17.93    0.95
   1  -2   0   19.04    0.96
   1   2   0   16.61    0.87
  -2  -2   0    9.72    0.79
   2   2   0    9.05    0.85
  -3  -2   0   19.97    1.00
   3   2   0   18.76    1.05
  -4  -2   0   97.00    2.12
   4   2   0   98.25    2.19
  -5  -2   0   10.63    0.96
   5   2   0   10.84    1.00
  -5   2   0   11.09    0.92
  -6  -2   0    2.03    0.63
   6   2   0    0.89    0.59
  -6   2   0    1.19    0.51
  -7  -2   0   44.18    1.70
   7   2   0   41.02    1.67
  -7   2   0   41.38    1.44
  -8  -2   0    0.40    0.48
  -8  -2   0   -0.01    0.68
   8   2   0   -0.17    0.71
  -8   2   0    0.79    0.56
  -9  -2   0   19.21    1.10
  -9  -2   0   20.82    1.48
  -9   2   0   18.56    1.25
   9   2   0   18.36    1.53
 -10  -2   0    4.26    1.02
 -10  -2   0    2.95    0.62
 -10   2   0    2.94    0.79
  10   2   0    3.00    1.10
 -11  -2   0    6.12    1.17
 -11  -2   0    5.53    0.70
  11   2   0    7.13    1.35
 -11   2   0    5.76    1.04
 -12  -2   0    0.90    0.58
  12   2   0    1.65    1.37
 -12   2   0   -0.92    0.89
  13   2   0    4.88    2.58
 -13   2   0    9.89    1.38
  13   2   0    8.51    1.65
  14   2   0   19.92    2.08
 -14   2   0   21.40    2.09
  14   2   0   22.34    2.34
  15   2   0    8.17    2.22
  15   2   0    6.63    1.95
  16   2   0    2.65    2.01
  16   2   0   -1.48    2.33
  17   2   0   -4.68    3.10
  17   2   0    4.13    2.24
  18   2   0    3.84    2.58
   0  -3   0   20.85    1.36
   1  -3   0   22.41    1.43
  -1  -3   0   21.39    1.39
  -2  -3   0    4.74    0.87
   2  -3   0    4.04    0.81
   2   3   0    4.84    0.90
   3  -3   0    9.05    1.06
  -3  -3   0   10.49    1.12
   3   3   0    7.48    1.02
  -4  -3   0   49.71    1.93
   4   3   0   51.20    1.98
  -5  -3   0    4.16    0.95
   5   3   0    3.78    0.97
  -6  -3   0    9.36    1.10
   6   3   0    8.01    2.16
  -6   3   0    7.64    1.04
  -7  -3   0    2.29    0.90
  -7   3   0    1.34    0.76
   7   3   0    1.94    0.98
  -8  -3   0    3.03    0.98
  -8   3   0    3.89    0.94
   8   3   0    1.83    1.07
  -9  -3   0    1.59    1.15
   9   3   0    1.75    1.16
  -9   3   0    0.12    0.85
 -10  -3   0   13.26    1.66
 -10  -3   0   16.17    1.36
  10   3   0   13.93    1.70
 -10   3   0   15.60    1.68
 -11  -3   0    0.83    0.95
 -11  -3   0    2.68    1.22
 -11   3   0   -1.02    1.04
  11   3   0    0.68    1.55
 -12  -3   0    1.29    1.00
 -12  -3   0    2.79    1.54
 -12   3   0    3.59    2.28
  12   3   0    1.10    1.64
 -13  -3   0   -2.30    1.70
 -13  -3   0   -0.65    0.96
 -13   3   0   -0.36    1.29
  13   3   0   -1.48    1.91
 -14  -3   0    3.86    1.11
 -14  -3   0    3.08    1.86
  14   3   0    3.57    2.23
 -14   3   0    0.92    1.56
  15   3   0   -1.66    2.11
  15   3   0    0.35    2.65
 -15   3   0    0.92    1.81
  16   3   0   -4.38    2.33
 -16   3   0    2.70    2.06
  17   3   0   -3.56    2.86
   0  -4   0    4.22    1.20
   1  -4   0   23.94    1.93
  -1  -4   0   21.00    1.79
   2  -4   0    5.99    1.30
  -3  -4   0    2.51    1.04
   3  -4   0    1.45    1.22
   4  -4   0   11.58    2.57
  -4  -4   0    9.67    1.44
   4   4   0    7.50    1.46
   5  -4   0   10.93    1.55
  -5  -4   0   11.16    1.56
  -6  -4   0   23.95    2.14
  -6   4   0   25.84    2.14
  -7  -4   0   29.87    2.35
   7   4   0   27.58    2.38
  -7   4   0   27.91    2.29
  -8  -4   0    3.68    1.39
  -8   4   0    1.40    1.23
   8   4   0    1.36    1.55
  -9  -4   0   13.82    1.88
  -9   4   0   13.27    1.74
   9   4   0   13.50    1.98
 -10  -4   0    2.51    1.69
 -10   4   0    1.04    1.40
  10   4   0    0.65    1.67
 -11  -4   0    5.37    1.86
 -11  -4   0    3.56    1.57
 -11   4   0    3.44    1.71
  11   4   0    6.89    2.25
 -12  -4   0    4.24    1.69
 -12  -4   0    4.34    2.10
 -12   4   0    2.41    1.70
  12   4   0    2.01    2.36
 -13  -4   0   -1.53    2.20
 -13  -4   0   -1.15    1.67
 -13   4   0    0.33    1.92
 -14  -4   0   -1.76    1.92
 -14  -4   0    0.72    2.41
 -14   4   0    1.37    2.19
   0  -5   0    3.62    1.83
   1  -5   0    6.75    1.83
  -1  -5   0    1.61    1.62
  -2  -5   0    1.49    1.62
   2  -5   0   -0.22    1.63
   3  -5   0    9.30    1.97
  -3  -5   0   14.68    2.14
   4  -5   0    9.31    2.18
  -4  -5   0    9.86    1.89
   5  -5   0    6.19    1.94
  -5  -5   0    4.08    1.78
   6  -5   0   -0.56    2.14
  -6  -5   0   -0.29    1.96
   7  -5   0    3.80    2.01
  -7  -5   0   -2.98    1.82
   7   5   0   -0.59    2.10
  -7   5   0    1.58    1.90
  -8  -5   0    1.48    2.04
   8  -5   0    4.12    2.15
  -8   5   0    2.44    2.11
   8   5   0    0.40    3.95
   9  -5   0    2.68    2.46
  -9  -5   0    0.35    2.27
  -9   5   0   -2.39    2.09
  10  -5   0    5.14    2.75
 -10  -5   0    5.80    2.36
 -10   5   0    2.58    2.41
 -11  -5   0    2.94    2.58
 -11  -5   0   12.14    3.19
 -11   5   0    2.74    2.45
 -12  -5   0    2.43    2.78
 -12   5   0    1.75    2.82
   0  -6   0    7.80    2.89
   1  -6   0   -0.53    2.54
  -1  -6   0   -5.76    2.30
   2  -6   0    6.86    3.11
  -2  -6   0    2.05    2.78
   3  -6   0    1.86    3.02
  -3  -6   0   -2.34    2.76
   4  -6   0   -3.34    3.07
  -4  -6   0    1.38    2.75
   5  -6   0    2.64    3.31
   6  -6   0   -5.25    3.11
  19   0  -1    2.89    4.75
  19   0  -1   -2.89    2.37
  18   0  -1   -1.00    2.40
  17   0  -1    8.97    2.42
  17   0  -1    7.64    1.97
  16   0  -1   -2.69    1.63
  16   0  -1   -0.07    1.45
  15   0  -1   -0.05    1.50
  15   0  -1   -0.49    1.29
  14   0  -1   -0.35    1.07
  14   0  -1    0.17    0.58
  14   0  -1   -0.28    1.20
  13   0  -1   -0.09    1.10
  13   0  -1    0.74    0.55
  13   0  -1    1.41    0.90
  12   0  -1    0.01    0.76
  12   0  -1    0.82    0.51
  12   0  -1   -0.25    0.83
  11   0  -1   32.44    1.53
  11   0  -1   32.22    1.07
  11   0  -1   29.08    1.63
  10   0  -1    0.50    0.61
  10   0  -1   -0.27    0.60
  10   0  -1   -0.09    0.38
   9   0  -1    1.64    0.59
   9   0  -1    2.23    0.56
   9   0  -1    1.96    0.40
   8   0  -1    0.68    0.33
   8   0  -1   -0.34    0.40
   8   0  -1   -0.06    0.42
   7   0  -1  121.11    1.73
   7   0  -1  126.99    2.21
   7   0  -1  123.59    1.99
   6   0  -1   -0.16    0.22
   6   0  -1    0.08    0.32
   6   0  -1    0.16    0.32
   5   0  -1    9.31    0.52
   5   0  -1   10.51    0.59
   5   0  -1    9.02    0.45
   4   0  -1    0.07    0.16
   4   0  -1   -0.12    0.18
   3   0  -1   48.90    0.76
  -2   0  -1    0.01    0.13
   2   0   1    0.14    0.14
   3   0   1  757.54    6.61
  -3   0  -1  756.00    6.60
  -4   0  -1    0.11    0.24
   4   0   1    0.27    0.24
  -5   0  -1   96.62    1.65
   5   0   1   95.28    1.66
   6   0   1   -0.21    0.16
   6   0   1    0.13    0.30
   7   0   1  188.11    1.94
   7   0   1  188.53    2.82
   7   0   1  195.47    2.97
   8   0   1   -0.30    0.50
   8   0   1   -0.09    0.21
   8   0   1    0.01    0.46
   9   0   1    4.99    0.73
   9   0   1    4.84    0.78
   9   0   1    6.10    0.44
  10   0   1    0.46    0.65
  10   0   1    0.38    0.60
  10   0   1   -0.36    0.26
  11   0   1   65.61    2.20
  11   0   1   64.53    1.08
  11   0   1   68.72    2.14
  12   0   1   -1.42    0.78
  12   0   1    0.55    0.94
  13   0   1   28.15    1.91
  13   0   1   22.91    1.97
  14   0   1    1.33    1.27
  14   0   1    1.17    1.15
  15   0   1    8.50    1.64
  15   0   1    3.99    1.72
  16   0   1    0.02    1.68
  16   0   1   -0.05    1.64
  17   0   1   10.85    2.52
  17   0   1   10.03    2.30
  18   0   1   -2.30    2.66
  18   0   1    0.16    2.35
  19   0   1    0.01    2.68
  19   1  -1    5.33    2.74
  18  -1  -1    2.21    2.06
  18  -1  -1   -0.60    2.37
  18   1  -1   -2.95    2.23
  18   1  -1   -1.81    2.63
  17  -1  -1    2.85    1.03
  17  -1  -1    2.66    2.03
  17  -1  -1    1.18    1.76
  17   1  -1    1.38    1.73
  17   1  -1    2.34    2.29
  16  -1  -1    4.95    1.57
  16  -1  -1    5.40    1.84
  16  -1  -1    5.56    1.09
  16   1  -1    6.32    1.99
  16   1  -1    7.95    1.98
  15  -1  -1    2.78    1.43
  15  -1  -1   -1.89    1.20
  15  -1  -1    0.82    0.81
  15   1  -1   -0.52    1.57
  15   1  -1    1.90    1.35
  14  -1  -1    2.21    1.10
  14  -1  -1    0.00    1.20
  14  -1  -1    0.75    0.76
  14   1  -1    1.75    1.47
  14   1  -1    3.74    1.21
  13  -1  -1    0.22    0.91
  13   1  -1    0.05    1.03
  13   1  -1    1.42    1.21
  12  -1  -1   13.81    1.39
  12   1  -1   13.89    1.48
  12   1  -1   13.35    1.33
  11  -1  -1   13.52    1.24
  11   1  -1   15.32    1.53
  11   1  -1   13.61    1.31
 -11   1   1   13.02    1.13
  10  -1  -1    5.26    0.80
  10   1  -1    4.12    0.85
  10   1  -1    4.97    0.90
 -10   1   1    4.87    0.71
   9  -1  -1    9.57    0.91
   9   1  -1   10.82    1.10
  -9   1   1    9.50    0.87
   8  -1  -1    4.30    0.62
  -8  -1   1    4.61    0.47
  -8  -1   1    3.53    0.64
  -8   1   1    3.72    0.56
   8   1  -1    3.30    0.65
  -7  -1   1    3.99    0.44
   7  -1  -1    3.91    0.57
  -7  -1   1    4.13    0.67
   7   1  -1    3.60    0.58
  -7   1   1    4.28    0.54
  -6  -1   1   11.89    0.61
   6  -1  -1   11.82    0.70
  -6  -1   1   12.32    0.80
   6   1  -1   11.32    0.81
  -6   1   1   10.98    0.64
  -5  -1   1   18.21    0.69
  -5  -1   1   17.41    0.84
  -5   1   1   19.07    0.71
   5   1  -1   19.04    0.87
  -4  -1   1    0.01    0.30
  -4   1   1   -0.27    0.22
   4   1  -1   -0.33    0.30
  -3  -1   1   -0.09    0.28
   3   1  -1    0.29    0.28
  -2  -1   1  220.78    2.59
   2   1  -1  217.57    2.60
  -1  -1   1   44.70    0.98
   1   1  -1   42.98    0.96
   0  -1  -1    1.23    0.27
   0  -1   1    2.03    0.33
   0   1   1    1.34    0.27
  -1  -1  -1    7.58    0.48
   1   1   1    6.65    0.46
  -2  -1  -1   51.80    1.11
   2   1   1   53.13    1.14
  -3  -1  -1    1.64    0.36
  -3   1  -1    1.72    0.34
   3   1   1    1.64    0.36
  -4  -1  -1   56.72    1.33
   4  -1   1   58.44    1.29
   4   1   1   53.86    1.30
  -4   1  -1   58.12    1.25
  -5  -1  -1   75.30    1.65
   5  -1   1   74.70    1.54
  -5   1  -1   77.31    1.53
   5   1   1   76.08    1.67
  -6  -1  -1   40.80    0.85
  -6  -1  -1   39.66    1.30
   6  -1   1   39.91    1.22
  -6   1  -1   41.30    1.19
   6   1   1   40.86    1.31
  -7  -1  -1   51.81    1.53
   7  -1   1   51.51    1.45
  -7  -1  -1   50.04    0.95
   7   1   1   49.49    1.56
  -7   1  -1   50.52    1.41
  -8  -1  -1  121.53    1.60
   8  -1   1  124.74    2.37
  -8   1  -1  125.17    2.33
   8   1   1  128.79    2.63
   8   1   1  127.96    2.58
   9  -1   1    1.64    0.65
   9   1   1    1.70    0.67
   9   1   1    1.35    0.67
  -9   1  -1    0.93    0.55
  10  -1   1    6.35    0.90
  10   1   1    3.94    0.89
  10   1   1    4.20    0.90
 -10   1  -1    4.72    0.82
  11  -1   1    4.82    0.97
 -11   1  -1    5.78    0.93
  11   1   1    4.69    1.05
  12  -1   1   88.34    2.51
  12   1   1   86.85    2.71
  12   1   1   90.43    2.84
 -12   1  -1   85.72    2.41
  13  -1   1    8.66    1.33
  13   1   1    9.38    1.38
  13   1   1    7.61    1.52
  14  -1   1    3.41    0.68
  14  -1   1    3.55    1.23
  14   1   1    6.34    1.47
  14   1   1    5.04    1.63
  15  -1   1   13.53    1.80
  15  -1   1    9.77    1.78
  15  -1   1   10.00    0.91
  15   1   1    7.28    1.97
  15   1   1   10.87    1.95
  16  -1   1    4.92    1.70
  16  -1   1    4.08    1.82
  16  -1   1    3.89    0.76
  16   1   1    6.70    2.16
  16   1   1    7.23    1.86
  17  -1   1    2.26    2.16
  17  -1   1    2.01    2.39
  17   1   1    1.81    1.88
  17   1   1   -1.04    2.28
  18  -1   1   -2.13    2.15
  18  -1   1   -4.60    2.43
  18   1   1   -2.84    2.34
  19  -1   1   -1.14    2.74
  19   1   1    2.69    2.88
  18  -2  -1   -3.11    2.62
  18   2  -1    5.88    2.66
  17   2  -1    5.94    2.32
  17   2  -1    5.31    2.93
  16   2  -1   -2.71    1.81
  16   2  -1   -0.80    2.24
  15   2  -1    5.42    1.71
  15   2  -1    3.94    2.13
  14   2  -1   -0.66    1.61
  14   2  -1   -1.94    1.24
 -14   2   1    2.61    1.17
  13   2  -1    3.25    1.35
  13   2  -1    4.72    1.62
 -13   2   1    4.15    1.10
 -12  -2   1    1.60    0.69
  12   2  -1    0.83    1.20
 -12   2   1    1.81    0.94
 -11  -2   1   17.52    1.69
 -11  -2   1   14.09    1.09
 -11   2   1   14.72    1.34
  11   2  -1   14.13    1.57
 -10  -2   1    3.20    0.95
 -10  -2   1    2.15    0.66
  10   2  -1    3.22    1.13
 -10   2   1    4.64    0.82
  -9  -2   1    7.24    1.10
  -9  -2   1    6.13    0.78
   9   2  -1    6.64    1.05
  -9   2   1    5.58    0.83
  -8  -2   1   13.30    1.25
  -8  -2   1   12.35    0.97
  -8   2   1   13.77    1.04
   8   2  -1   15.23    1.35
  -7  -2   1   50.01    1.47
  -7  -2   1   53.32    1.80
  -7   2   1   50.88    1.51
   7   2  -1   50.03    1.79
  -6  -2   1   26.88    1.31
  -6   2   1   24.93    1.13
   6   2  -1   24.91    1.30
  -5  -2   1    0.79    0.50
   5   2  -1    0.93    0.53
  -5   2   1    1.07    0.49
  -4  -2   1   21.48    1.07
   4   2  -1   21.48    1.12
  -3  -2   1   87.89    1.96
   3   2  -1   92.01    2.03
   2  -2  -1   27.04    1.11
  -2  -2   1   26.41    1.10
   2   2  -1   26.50    1.16
   1  -2  -1   20.90    1.00
  -1  -2   1   18.66    0.96
   0  -2   1    1.30    0.44
   0  -2  -1    1.13    0.48
  -1  -2  -1    0.25    0.45
   1  -2   1    0.40    0.41
   1   2   1    0.15    0.37
  -2  -2  -1   21.23    1.00
   2   2   1   21.60    1.07
  -3  -2  -1   38.37    1.36
   3   2   1   39.28    1.38
  -4  -2  -1    5.38    0.71
   4   2   1    5.27    0.74
  -4   2  -1    5.23    0.70
  -5  -2  -1   19.06    1.14
  -5   2  -1   19.26    1.03
   5   2   1   17.20    1.12
  -6  -2  -1    4.03    0.72
   6   2   1    5.74    0.87
  -6   2  -1    3.48    0.64
  -7  -2  -1   76.50    2.16
  -7   2  -1   78.14    1.98
   7   2   1   79.81    2.22
  -8  -2  -1   22.67    1.43
   8   2   1   21.44    1.48
  -8   2  -1   21.86    1.26
  -9  -2  -1    1.40    0.82
  -9  -2  -1    0.89    0.53
  -9   2  -1    0.98    0.66
   9   2   1    0.79    0.89
 -10  -2  -1    1.11    0.51
 -10  -2  -1    2.60    0.95
 -10   2  -1    3.14    0.87
  10   2   1    2.61    1.01
 -11  -2  -1    8.36    1.55
 -11  -2  -1    7.13    0.71
  11   2   1    6.72    1.37
 -11   2  -1    5.95    1.04
 -12  -2  -1    5.77    0.67
  12   2   1    6.75    1.52
  12   2   1    6.03    1.38
 -12   2  -1    5.86    1.14
  13   2   1   -0.23    1.18
 -13   2  -1    1.25    1.13
  13   2   1    2.40    1.47
  14   2   1    4.80    1.75
  14   2   1    3.77    1.59
 -14   2  -1    3.38    2.62
 -15   2  -1    3.37    1.43
  15   2   1    3.43    2.12
  15   2   1    0.62    1.76
  16   2   1    6.59    2.37
  16   2   1    5.65    2.07
  17   2   1    4.14    2.34
  18   2   1    5.81    2.62
  17   3  -1    1.77    2.83
 -16   3   1    2.06    1.95
  16   3  -1    0.95    2.31
  15   3  -1   -1.59    1.97
  15   3  -1    3.35    2.72
 -15   3   1    3.69    1.70
 -14  -3   1    2.10    1.80
 -14  -3   1    3.59    1.19
 -14   3   1    1.59    1.62
  14   3  -1   -2.96    1.99
 -13  -3   1    2.96    1.10
 -13  -3   1    3.83    1.77
  13   3  -1    4.09    2.03
 -13   3   1    1.45    1.40
 -12  -3   1    1.11    1.55
 -12  -3   1    1.74    1.04
  12   3  -1   -0.90    1.58
 -12   3   1    0.37    1.12
 -11  -3   1    4.28    1.39
 -11  -3   1    1.06    0.98
 -11   3   1    2.24    1.08
  11   3  -1    2.35    1.41
 -10  -3   1    0.54    1.18
 -10  -3   1    0.30    0.87
 -10   3   1    1.39    0.95
  10   3  -1   -0.10    1.30
  -9  -3   1    1.66    1.27
  -9  -3   1    0.50    0.87
   9   3  -1    0.08    1.12
  -9   3   1    0.97    0.86
  -8  -3   1    2.56    1.02
  -8   3   1    0.73    0.81
   8   3  -1    2.87    1.17
  -7  -3   1   22.65    1.71
  -7   3   1   22.58    1.56
   7   3  -1   19.85    1.72
  -6  -3   1    1.41    0.85
  -6   3   1    0.39    0.72
   6   3  -1    2.17    1.68
  -5  -3   1   10.84    1.20
   5   3  -1   10.07    1.14
  -4  -3   1    2.24    0.82
   4   3  -1    3.64    0.85
  -3  -3   1   69.51    2.18
   3  -3  -1   68.58    2.09
   3   3  -1   70.94    2.19
  -2  -3   1    9.92    1.06
   2  -3  -1    9.61    1.13
   1  -3  -1   29.65    1.54
  -1  -3   1   26.06    1.51
   0  -3  -1    0.84    0.71
   0  -3   1    1.11    0.66
  -1  -3  -1   29.96    1.53
   2  -3   1    7.98    0.98
  -2  -3  -1    6.94    0.96
   2   3   1    5.41    0.89
  -3  -3  -1   25.98    1.43
   3   3   1   32.07    1.54
  -4  -3  -1    2.91    0.78
   4   3   1    3.35    0.92
  -5  -3  -1   19.38    1.49
  -5   3  -1   17.88    1.43
   5   3   1   16.29    1.46
  -6  -3  -1    1.36    0.83
  -6   3  -1    1.08    0.78
   6   3   1    2.19    0.96
  -7  -3  -1   17.14    1.64
   7   3   1   15.12    1.49
  -7   3  -1   13.80    1.45
  -8  -3  -1    1.08    0.94
  -8   3  -1    0.37    0.86
   8   3   1    0.21    1.00
  -9  -3  -1    1.63    1.20
   9   3   1    1.58    1.17
  -9   3  -1    1.73    0.93
 -10  -3  -1    1.59    0.91
 -10  -3  -1    2.41    1.16
  10   3   1    0.56    1.21
 -10   3  -1    2.98    1.06
 -11  -3  -1   19.40    1.98
 -11  -3  -1   18.80    1.62
  11   3   1   17.66    2.07
 -11   3  -1   18.85    2.04
 -12  -3  -1    4.42    1.11
 -12  -3  -1    3.39    1.62
  12   3   1    7.14    1.76
 -12   3  -1    5.94    1.42
 -13  -3  -1   10.73    2.00
 -13  -3  -1    7.93    1.13
  13   3   1   10.89    2.19
 -13   3  -1    8.13    1.69
 -14  -3  -1    2.06    1.00
 -14   3  -1   -1.27    1.60
  14   3   1    3.34    2.07
 -15   3  -1    0.63    1.90
  15   3   1    0.34    2.23
  15   3   1    7.19    4.16
  16   3   1   -0.52    2.43
 -16   3  -1    2.16    2.28
  17   3   1    2.61    2.93
 -15  -4   1   -2.00    3.09
 -14  -4   1    0.67    2.62
 -14  -4   1   -1.09    1.88
 -14   4   1    0.90    2.10
 -13  -4   1   -0.41    1.72
 -13  -4   1    2.68    2.38
 -13   4   1    4.01    1.95
 -12  -4   1    1.98    1.98
 -12  -4   1    3.65    1.76
 -12   4   1   -1.26    1.63
  12   4  -1    6.22    2.47
 -11  -4   1   -1.58    1.67
 -11  -4   1   -0.96    1.45
  11   4  -1    3.75    2.25
 -11   4   1   -1.52    1.42
 -10  -4   1    5.97    1.56
 -10  -4   1    5.64    1.78
 -10   4   1    4.63    1.45
  10   4  -1    3.01    1.92
  -9  -4   1    3.45    1.52
   9   4  -1   -1.91    1.56
  -9   4   1    1.48    1.40
  -8  -4   1    6.01    1.50
  -8   4   1    7.61    1.40
   8   4  -1    5.34    1.70
  -7  -4   1   10.17    1.54
   7   4  -1   10.15    1.69
  -7   4   1   10.41    1.54
  -6  -4   1   38.23    2.37
   6  -4  -1   37.94    2.36
   6   4  -1   36.06    2.21
  -5  -4   1    7.91    1.30
   5  -4  -1    8.66    2.18
   5   4  -1    8.33    1.39
   4  -4  -1   22.01    2.25
  -4  -4   1   19.31    1.96
   4   4  -1   22.74    2.02
  -3  -4   1    0.02    1.09
   3  -4  -1   -0.12    1.00
   2  -4  -1    9.21    1.38
  -2  -4   1    9.14    2.35
   1  -4  -1    0.23    1.03
  -1  -4   1   -0.46    1.17
   0  -4  -1   20.45    1.90
   0  -4   1   13.61    1.56
  -1  -4  -1   -0.40    0.95
   1  -4   1    0.47    1.08
   2  -4   1   14.89    1.99
  -3  -4  -1    0.01    1.05
   3   4   1    0.42    1.09
   4  -4   1    5.82    1.22
  -4  -4  -1    9.23    1.42
   5  -4   1   14.61    1.73
  -5  -4  -1   14.71    1.84
  -6  -4  -1    1.83    1.21
  -6   4  -1    0.48    1.20
  -7  -4  -1    1.77    1.28
  -7   4  -1    1.73    1.29
  -8  -4  -1   10.51    1.65
  -8   4  -1    9.35    1.55
   8   4   1    8.49    1.80
  -9  -4  -1    8.98    1.72
   9   4   1   10.16    1.75
  -9   4  -1    6.79    1.58
 -10  -4  -1    5.84    2.02
 -10   4  -1    7.76    1.69
  10   4   1    5.97    2.01
 -11  -4  -1    3.63    1.84
 -11  -4  -1    0.72    1.49
  11   4   1    3.18    2.17
 -11   4  -1    2.59    1.75
 -12  -4  -1   10.36    2.16
 -12  -4  -1    5.28    1.71
  12   4   1    4.48    2.46
 -12   4  -1    2.94    1.83
 -13  -4  -1    4.05    2.41
 -13  -4  -1    1.59    1.61
 -14  -4  -1   -3.57    2.60
 -15   4  -1    3.27    2.79
 -12  -5   1    1.55    2.69
 -12   5   1    0.58    2.77
 -11  -5   1    6.35    2.75
 -11  -5   1    1.48    2.48
  11  -5  -1    5.33    2.98
 -11   5   1    5.76    2.47
  10  -5  -1    3.43    2.56
 -10  -5   1    4.26    2.63
 -10   5   1    2.29    2.31
  -9  -5   1    5.67    2.20
   9  -5  -1    2.73    2.40
  -9   5   1   -2.53    2.02
  -8  -5   1    2.60    2.11
   8  -5  -1    6.11    2.22
   8   5  -1    2.02    2.59
  -8   5   1    4.93    2.66
  -7  -5   1    0.99    1.81
   7  -5  -1    0.18    1.98
   7   5  -1   -0.94    2.16
   6  -5  -1   -0.65    1.83
  -6  -5   1   -0.83    1.86
   5  -5  -1   -0.69    1.93
  -5  -5   1    2.66    1.85
  -4  -5   1    0.68    1.66
   4  -5  -1    1.78    1.90
  -3  -5   1    4.67    1.91
   3  -5  -1    7.19    2.08
  -2  -5   1    2.18    1.65
   2  -5  -1    3.23    1.93
   1  -5  -1   -0.90    1.72
  -1  -5   1    0.23    1.72
   0  -5  -1    6.97    1.81
   0  -5   1    5.31    1.90
  -1  -5  -1    2.52    1.65
   1  -5   1    0.36    1.62
   2  -5   1   -1.49    1.66
  -2  -5  -1   -1.17    1.74
  -3  -5  -1    5.63    1.77
   3  -5   1    5.55    1.92
   4  -5   1    7.71    2.05
  -4  -5  -1    4.24    1.81
  -5  -5  -1    0.71    1.73
   5  -5   1    0.24    1.93
   6  -5   1   14.02    2.33
  -6  -5  -1   11.39    2.13
   6   5   1    7.54    2.17
  -6   5  -1   11.79    2.35
   7  -5   1   12.47    2.33
  -7  -5  -1   11.47    2.18
  -7   5  -1    6.90    2.09
   7   5   1    6.46    2.27
   8  -5   1    2.26    2.04
  -8  -5  -1    1.97    1.91
  -8   5  -1    2.13    2.01
   9  -5   1   -2.41    2.35
  -9  -5  -1   -0.48    2.26
  -9   5  -1   -0.40    2.12
 -10  -5  -1    3.77    2.52
 -10   5  -1    4.42    2.26
 -11  -5  -1   -2.81    2.71
 -11   5  -1   -0.20    2.53
 -12  -5  -1    2.45    2.70
 -12   5  -1    2.17    2.80
   7  -6  -1   -5.17    3.90
   6  -6  -1   -1.82    3.34
   5  -6  -1   -1.32    3.26
   4  -6  -1   -1.35    2.90
  -4  -6   1   -3.17    2.64
  -3  -6   1    2.81    2.81
   3  -6  -1   -0.01    2.92
  -2  -6   1   -1.26    2.66
   2  -6  -1    0.73    2.85
   1  -6  -1    4.51    2.64
  -1  -6   1    2.37    2.54
   0  -6   1    2.39    2.80
   0  -6  -1   -0.79    2.66
   1  -6   1    6.96    2.84
  -1  -6  -1    6.95    2.60
  -2  -6  -1   -2.32    2.60
   2  -6   1   -0.41    2.87
  -3  -6  -1    5.60    2.89
   3  -6   1    5.69    3.05
   4  -6   1   -2.61    3.09
  -4  -6  -1   -5.10    2.51
   5  -6   1   -5.38    3.00
   6  -6   1    1.02    4.53
  19   0  -2    0.39    3.67
  19   0  -2   -3.43    2.92
  18   0  -2    0.97    1.98
  18   0  -2    5.38    2.48
  17   0  -2    2.36    1.75
  17   0  -2    0.16    2.01
  16   0  -2   -0.64    1.70
  16   0  -2   -1.81    1.41
  15   0  -2    1.62    1.20
  15   0  -2   -0.16    1.49
  15   0  -2   -0.69    0.74
  14   0  -2   12.66    1.40
  14   0  -2   16.05    1.68
  14   0  -2   12.28    1.24
  13   0  -2    0.38    0.61
  13   0  -2    0.15    0.86
  13   0  -2   -0.54    1.17
  12   0  -2    1.49    0.62
  12   0  -2    1.42    0.86
  12   0  -2    1.43    0.77
  11   0  -2    0.06    0.62
  11   0  -2    0.32    0.79
  11   0  -2    0.42    0.44
  10   0  -2  120.07    2.25
  10   0  -2  115.52    2.01
  10   0  -2  119.53    2.51
   9   0  -2   -0.40    0.72
   9   0  -2    0.15    0.45
   9   0  -2    0.14    0.35
   8   0  -2   14.75    0.96
   8   0  -2   14.65    0.83
   8   0  -2   14.19    0.75
   7   0  -2   -0.14    0.29
   7   0  -2    0.11    0.33
   7   0  -2   -0.05    0.39
   6   0  -2  106.93    1.60
   6   0  -2  107.74    1.80
   6   0  -2  106.18    1.64
   5   0  -2   -0.10    0.22
   5   0  -2   -0.10    0.24
   5   0  -2   -0.30    0.21
   4   0  -2    6.65    0.42
   4   0  -2    5.73    0.34
   4   0  -2    6.21    0.41
   3   0  -2    0.09    0.15
   3   0  -2    0.10    0.16
   2   0  -2   32.08    0.48
   2   0  -2   31.97    0.65
   1   0  -2   -0.08    0.07
   1   0  -2   -0.15    0.08
  -1   0  -2   -0.20    0.12
   1   0   2    0.07    0.11
   1   0   2    0.00    0.08
  -1   0  -2    0.06    0.08
   2   0   2    1.41    0.13
  -2   0  -2    1.19    0.22
   2   0   2    1.76    0.26
   3   0   2   -0.03    0.21
  -3   0  -2    0.12    0.25
  -4   0  -2    2.18    0.36
   4   0   2    1.89    0.38
   5   0   2   -0.45    0.29
  -5   0  -2   -0.04    0.31
  -6   0  -2  105.73    1.97
   6   0   2  106.41    2.00
   7   0   2    0.77    0.43
   8   0   2    0.68    0.54
   8   0   2    1.20    0.52
   9   0   2   -0.89    0.54
   9   0   2    0.14    0.58
  10   0   2  147.15    2.98
  10   0   2  150.43    3.08
  11   0   2   -0.29    0.77
  11   0   2   -0.78    0.77
  12   0   2    3.65    1.10
  12   0   2    2.67    1.03
  13   0   2   -1.74    1.07
  13   0   2    0.53    1.04
  14   0   2   30.47    2.26
  14   0   2   23.08    2.28
  15   0   2    0.49    1.46
  15   0   2   -1.18    1.61
  16   0   2    0.44    1.73
  16   0   2    0.49    1.81
  17   0   2    1.23    2.11
  17   0   2    0.67    2.25
  18   0   2   27.58    3.07
  19   0   2   -1.98    2.86
  19  -1  -2    5.17    2.94
  19   1  -2    9.46    2.77
  18  -1  -2    3.17    2.51
  18  -1  -2    3.89    1.54
  18  -1  -2    4.55    2.01
  18   1  -2    2.16    2.70
  18   1  -2    0.60    2.18
  17  -1  -2    1.79    1.13
  17  -1  -2    2.30    1.63
  17  -1  -2   -2.17    1.91
  17   1  -2   -1.34    2.18
  17   1  -2    0.16    2.02
  16  -1  -2    2.84    1.03
  16  -1  -2    4.68    1.69
  16  -1  -2    1.58    1.45
  16   1  -2    7.35    1.65
  16   1  -2    3.23    1.92
  15  -1  -2    0.33    0.91
  15  -1  -2   -1.19    1.22
  15  -1  -2    0.64    1.37
  15   1  -2    3.26    1.28
  15   1  -2    0.47    1.56
  14  -1  -2    3.56    1.12
  14  -1  -2    3.48    1.26
  14  -1  -2    3.57    0.93
  14   1  -2    5.79    1.26
  14   1  -2    4.43    1.47
  13  -1  -2    9.79    1.17
  13   1  -2   10.88    1.36
  13   1  -2   11.40    1.54
  12  -1  -2    5.31    0.91
  12   1  -2    3.81    0.96
  12   1  -2    1.60    1.78
  11  -1  -2    1.41    0.70
  11   1  -2    0.74    0.84
  11   1  -2   -0.28    0.72
  10  -1  -2   13.90    1.06
  10   1  -2   14.48    1.31
  10   1  -2   13.55    1.22
 -10   1   2   13.08    0.96
   9  -1  -2   53.37    1.44
   9   1  -2   55.52    1.78
  -9   1   2   57.69    1.44
  -8  -1   2    2.47    0.45
   8  -1  -2    2.66    0.54
  -8  -1   2    2.37    0.57
  -8   1   2    2.93    0.49
   8   1  -2    1.96    0.57
  -7  -1   2    0.08    0.48
   7  -1  -2   -0.20    0.34
  -7  -1   2   -0.02    0.33
   7   1  -2   -0.41    0.43
  -7   1   2    0.12    0.31
  -6  -1   2   10.63    0.76
  -6  -1   2    9.31    0.61
   6   1  -2   10.23    0.80
  -6   1   2    9.82    0.59
  -5  -1   2   41.26    1.15
  -5  -1   2   43.21    1.07
  -5   1   2   42.48    0.92
   5   1  -2   42.89    1.20
  -4  -1   2    8.44    0.55
  -4  -1   2    8.75    0.61
  -4   1   2    7.84    0.46
   4   1  -2    7.89    0.62
  -3  -1   2   24.75    0.81
   3   1  -2   24.32    0.82
  -2  -1   2   13.92    0.63
   2   1  -2   13.50    0.63
  -1  -1   2   -0.08    0.21
   1  -1  -2   -0.02    0.22
   0  -1  -2   16.79    0.60
   0   1   2   16.21    0.60
  -1  -1  -2  149.01    1.96
   1   1   2  145.38    1.96
  -2  -1  -2    7.66    0.52
   2   1   2    6.87    0.55
  -2   1  -2    7.47    0.55
   3  -1   2    1.86    0.43
  -3  -1  -2    1.11    0.33
  -3   1  -2    1.15    0.33
   3   1   2    1.57    0.40
  -4  -1  -2    0.76    0.34
   4  -1   2    0.75    0.36
  -4   1  -2    0.42    0.35
   4   1   2    0.15    0.37
   5  -1   2  174.04    2.60
  -5  -1  -2  173.24    2.66
  -5   1  -2  170.84    2.54
   5   1   2  169.34    2.68
   6  -1   2   13.99    0.91
  -6  -1  -2   12.96    0.94
  -6   1  -2   15.17    0.86
   6   1   2   13.41    0.92
  -7  -1  -2   -0.06    0.48
  -7  -1  -2    0.00    0.21
   7  -1   2    0.03    0.47
  -7   1  -2   -0.06    0.42
   7   1   2    0.39    0.45
   8  -1   2   14.13    1.12
  -8  -1  -2   13.97    0.47
   8   1   2   14.64    1.11
  -8   1  -2   12.47    0.95
   8   1   2   14.51    1.15
   9  -1   2   51.50    1.80
   9   1   2   52.60    1.88
   9   1   2   55.40    1.92
  -9   1  -2   54.55    1.78
  10  -1   2    1.27    0.78
 -10   1  -2    0.20    0.64
  10   1   2    0.62    0.84
  10   1   2    0.55    0.72
  11  -1   2    1.35    0.91
  11   1   2    0.77    0.79
 -11   1  -2    1.52    0.84
  11   1   2    1.38    0.97
  12  -1   2   15.41    1.54
 -12   1  -2   10.67    1.21
  12   1   2   11.37    1.42
  12   1   2   13.45    1.52
  13  -1   2   15.31    1.62
  13   1   2   15.83    1.73
  13   1   2   13.22    1.60
  14  -1   2    1.65    0.60
  14  -1   2    2.31    1.28
  14   1   2    2.64    1.33
  14   1   2    1.14    1.38
  15  -1   2   22.71    2.12
  15  -1   2   24.49    1.07
  15  -1   2   26.22    2.56
  15   1   2   24.01    2.54
  15   1   2   23.37    2.22
  16  -1   2    4.92    1.95
  16  -1   2    3.78    3.00
  16   1   2    5.11    1.81
  16   1   2   -0.87    2.06
  17  -1   2   -0.55    1.84
  17  -1   2    1.39    2.20
  17   1   2    0.47    2.47
  17   1   2    0.81    1.99
  18  -1   2   -0.92    2.21
  18   1   2   -2.97    2.40
  19  -1   2   -1.15    2.82
  19   1   2   10.40    3.11
  18  -2  -2    2.98    2.58
  18   2  -2    5.95    2.58
  17  -2  -2    2.51    1.48
  17   2  -2    3.81    2.26
  17   2  -2    4.47    2.89
  16   2  -2   -2.65    1.89
  16   2  -2   -0.90    2.33
  15   2  -2    9.66    2.18
  15   2  -2    9.98    1.91
  14   2  -2   33.25    3.94
 -14   2   2   46.09    2.13
  14   2  -2   50.17    3.11
  13   2  -2   13.03    1.74
 -13   2   2   14.48    1.34
 -12  -2   2    6.31    2.08
 -12  -2   2    3.76    0.78
  12   2  -2    4.10    1.38
 -12   2   2    3.64    0.95
 -11  -2   2    1.56    0.68
 -11  -2   2    1.36    0.98
  11   2  -2    2.30    1.13
 -11   2   2    1.25    0.74
 -10  -2   2   14.99    1.50
 -10  -2   2   11.67    1.12
 -10   2   2   10.75    1.11
  10   2  -2   12.13    1.81
  -9  -2   2   28.67    1.64
  -9  -2   2   32.08    1.37
  -9   2   2   29.24    1.30
   9   2  -2   33.41    1.76
  -8  -2   2    0.84    0.64
  -8  -2   2    0.06    0.52
  -8   2   2    0.16    0.50
   8   2  -2   -0.12    0.66
  -7  -2   2   19.10    1.24
  -7  -2   2   19.39    1.09
  -7   2   2   19.19    1.04
   7   2  -2   21.07    1.30
  -6  -2   2    8.93    0.89
  -6   2   2   10.48    0.84
   6   2  -2    8.82    0.94
  -5  -2   2   23.29    1.18
   5   2  -2   21.88    1.18
  -4  -2   2   43.69    1.44
   4   2  -2   40.62    1.43
  -3  -2   2   47.48    1.43
   3   2  -2   46.01    1.42
   2  -2  -2    0.39    0.37
  -2  -2   2    0.43    0.45
   2   2  -2    0.28    0.38
   1  -2  -2    3.78    0.56
  -1  -2   2    4.98    0.65
   0  -2   2   18.65    0.98
   0  -2  -2   20.76    0.97
   0   2   2   18.43    0.93
  -1  -2  -2   29.66    1.14
   1   2   2   30.46    1.18
  -2  -2  -2    3.96    0.63
   2   2   2    3.36    0.57
  -3  -2  -2    1.95    0.59
   3   2   2    2.19    0.55
  -4  -2  -2   16.59    1.06
  -4   2  -2   16.40    1.03
   4   2   2   16.89    1.07
  -5  -2  -2    5.35    0.73
  -5   2  -2    6.43    0.77
   5   2   2    7.94    0.90
  -6  -2  -2    0.80    0.57
   6   2   2    0.39    0.63
  -6   2  -2    0.17    0.50
  -7  -2  -2    1.85    0.65
   7   2   2    1.28    0.63
  -7   2  -2    0.72    0.57
  -8  -2  -2    7.17    0.99
  -8   2  -2    4.59    0.80
   8   2   2    5.91    1.05
  -9  -2  -2    0.99    0.86
  -9  -2  -2    2.01    0.55
   9   2   2    0.73    1.02
  -9   2  -2    4.21    0.84
 -10  -2  -2    5.31    1.16
 -10  -2  -2    7.06    0.71
 -10   2  -2    5.97    1.01
  10   2   2    6.12    1.26
 -11  -2  -2    3.03    0.54
  11   2   2    3.80    1.30
 -11   2  -2    2.87    0.98
 -12  -2  -2    0.53    0.46
 -12   2  -2    0.21    1.00
  12   2   2    1.01    1.42
 -13   2  -2    0.16    1.37
  13   2   2    0.97    1.53
  13   2   2    0.70    1.41
  14   2   2    1.62    1.58
 -14   2  -2    2.75    1.40
  14   2   2    3.59    1.86
  15   2   2    2.25    2.12
 -15   2  -2    3.05    1.49
  15   2   2    1.80    1.80
  16   2   2    1.76    2.08
 -16   2  -2    1.94    1.78
  16   2   2    1.13    2.65
  17   2   2    6.16    2.43
  18   2   2    0.84    2.75
  17   3  -2   -2.83    2.58
 -16   3   2    2.77    2.33
  16   3  -2   -0.58    2.20
 -15  -3   2    2.27    1.27
 -15   3   2    1.91    1.71
  15   3  -2    4.01    2.51
 -14  -3   2    7.41    2.06
 -14  -3   2    7.47    1.43
  14   3  -2    5.46    2.22
 -14   3   2    4.88    1.57
 -13  -3   2    0.13    1.10
 -13  -3   2    0.47    1.59
  13   3  -2    1.56    1.92
 -13   3   2    0.95    1.28
 -12  -3   2    4.00    1.12
 -12  -3   2    5.30    1.52
  12   3  -2    5.02    1.82
 -12   3   2    4.63    1.20
 -11  -3   2    0.04    1.00
 -11  -3   2    0.92    1.23
  11   3  -2    1.51    1.50
 -11   3   2   -0.05    1.00
 -10  -3   2   14.77    1.37
 -10  -3   2   16.60    1.80
  10   3  -2   14.76    1.88
 -10   3   2   13.32    1.36
  -9  -3   2   12.45    2.60
  -9  -3   2    9.31    1.20
  -9   3   2   10.65    1.17
   9   3  -2   11.81    1.56
  -8  -3   2    0.11    0.96
   8   3  -2    1.72    1.07
  -8   3   2   -0.22    0.72
  -7  -3   2    0.01    0.90
  -7   3   2    0.66    0.80
   7   3  -2    0.80    0.86
  -6  -3   2   15.10    1.44
   6   3  -2   12.77    1.56
  -5  -3   2    7.78    1.04
   5   3  -2   10.84    1.26
  -4  -3   2   15.59    1.34
   4  -3  -2   15.92    1.32
   4   3  -2   15.91    1.41
   3  -3  -2    0.57    0.64
  -3  -3   2   -0.60    0.59
   3   3  -2    0.05    0.67
  -2  -3   2   11.76    1.19
   2  -3  -2   13.19    1.28
   1  -3  -2    4.00    0.86
  -1  -3   2    4.36    0.93
   0  -3  -2   28.03    1.52
   0  -3   2   27.41    1.46
  -1  -3  -2   24.78    1.39
   1  -3   2   22.65    1.33
   1   3   2   24.11    1.38
  -2  -3  -2   21.97    1.40
   2  -3   2   22.07    1.45
   2   3   2   21.15    1.33
  -3  -3  -2   10.97    1.24
   3   3   2    9.35    1.10
  -4  -3  -2   33.53    1.70
   4   3   2   36.60    1.77
  -5  -3  -2   15.49    1.42
   5   3   2   17.19    1.50
  -5   3  -2   16.53    1.49
  -6  -3  -2   11.14    1.31
   6   3   2    7.72    1.17
  -6   3  -2    8.64    1.10
  -7  -3  -2   12.44    1.33
  -7   3  -2   10.70    1.22
   7   3   2   12.11    1.41
  -8  -3  -2    5.53    2.21
  -8   3  -2    5.64    1.14
   8   3   2    4.95    1.16
  -9  -3  -2    1.72    0.99
  -9   3  -2    1.84    1.05
   9   3   2    0.51    1.17
 -10  -3  -2    4.67    1.25
  10   3   2    6.99    1.57
 -10   3  -2    5.71    1.24
 -11  -3  -2    1.70    1.42
 -11  -3  -2    2.19    0.92
  11   3   2    1.10    1.51
 -11   3  -2    0.07    1.16
 -12  -3  -2    4.05    1.49
 -12  -3  -2    6.79    1.08
 -12   3  -2    6.57    1.54
  12   3   2    8.86    1.89
 -13  -3  -2   -0.32    1.64
 -13  -3  -2    0.36    0.92
  13   3   2    1.66    1.92
 -13   3  -2   -1.98    1.40
 -14  -3  -2    4.26    0.97
  14   3   2    6.62    2.41
  14   3   2    1.45    1.97
 -14   3  -2    2.16    1.64
  15   3   2   -2.66    2.18
 -15   3  -2    0.27    2.02
  16   3   2   -1.86    2.59
  17   3   2   -2.40    3.11
 -15  -4   2   -4.12    2.91
 -14  -4   2   -2.10    1.85
 -14  -4   2   -0.02    2.59
 -14   4   2    0.81    2.02
 -13  -4   2    6.15    2.36
 -13  -4   2    0.98    1.75
 -13   4   2    3.11    1.85
 -12  -4   2    2.31    2.13
 -12  -4   2    0.47    1.58
 -12   4   2    2.17    1.65
  12   4  -2    4.64    2.41
 -11  -4   2    1.69    1.60
 -11  -4   2   -0.49    1.93
  11   4  -2   -1.86    2.14
 -11   4   2   -1.92    1.42
 -10  -4   2    1.17    1.58
 -10  -4   2    1.30    1.45
  10   4  -2   -1.29    1.85
 -10   4   2    0.42    1.41
  -9  -4   2    3.44    1.58
  -9   4   2    3.12    1.40
   9   4  -2    0.40    1.64
  -8  -4   2    2.00    1.35
  -8   4   2    0.62    1.24
   8   4  -2    2.21    1.61
   7  -4  -2    1.92    1.29
  -7  -4   2    1.80    1.33
  -7   4   2    0.48    1.13
   7   4  -2   -0.20    1.36
  -6  -4   2    0.08    1.16
   6  -4  -2   -0.92    1.18
   6   4  -2   -1.06    1.24
  -5  -4   2    8.22    1.42
   5  -4  -2    9.36    1.72
   5   4  -2    8.90    1.54
  -4  -4   2   -0.10    1.00
   4  -4  -2   -1.10    1.12
   3  -4  -2   16.10    1.63
  -3  -4   2   14.39    1.56
   2  -4  -2    2.88    1.15
  -2  -4   2    0.80    1.86
   1  -4  -2   15.61    1.63
  -1  -4   2    9.19    2.32
   0  -4   2   -0.35    1.61
   0  -4  -2    0.21    1.06
   1  -4   2   17.46    2.72
  -1  -4  -2   26.94    1.92
   2  -4   2    4.42    2.34
  -3  -4  -2    6.33    1.38
   3  -4   2    5.00    1.24
   3   4   2    5.85    1.25
   4  -4   2    1.71    1.14
  -4  -4  -2    2.67    1.12
  -5  -4  -2   25.37    2.07
  -6  -4  -2    6.80    1.50
  -6   4  -2    5.92    1.39
  -7  -4  -2    1.19    1.29
  -7   4  -2    1.33    1.24
  -8  -4  -2    0.61    1.29
  -8   4  -2   -0.06    1.31
  -9  -4  -2    6.37    1.69
  -9   4  -2    4.45    1.48
   9   4   2    5.84    1.72
 -10  -4  -2   -0.76    1.79
 -10   4  -2   -0.26    1.55
  10   4   2    2.84    1.91
 -11  -4  -2    7.58    2.00
  11   4   2   14.00    2.66
 -11   4  -2   10.70    1.98
 -12  -4  -2    5.16    2.15
 -12  -4  -2    5.01    1.60
  12   4   2    4.62    3.19
 -13  -4  -2    1.07    2.39
 -13  -4  -2    1.35    2.09
 -14  -4  -2   -4.38    2.58
 -14   4  -2    0.25    2.40
 -15   4  -2    0.90    2.77
  12  -5  -2    2.47    3.12
 -12  -5   2   -2.94    2.67
 -12   5   2    2.52    2.72
 -11  -5   2    2.88    2.55
  11  -5  -2    5.96    2.74
 -11  -5   2    5.18    2.77
 -11   5   2    5.19    2.44
  10  -5  -2    5.27    2.58
 -10  -5   2   -2.01    2.33
 -10  -5   2    1.28    2.30
 -10   5   2   -1.81    2.67
  -9  -5   2    0.66    2.36
   9  -5  -2    6.52    2.27
  -8  -5   2    2.03    2.07
   8  -5  -2    0.02    2.22
   8   5  -2   -4.13    2.18
  -7  -5   2    8.46    2.27
   7  -5  -2    7.49    2.38
   6  -5  -2    1.44    2.04
  -6  -5   2    0.65    1.87
  -5  -5   2    7.11    1.79
   5  -5  -2    6.98    2.14
  -4  -5   2   -0.53    1.66
   4  -5  -2   -1.00    1.76
   3  -5  -2    1.25    1.79
  -3  -5   2    0.21    1.69
  -2  -5   2    1.60    1.59
   2  -5  -2    2.21    1.68
   1  -5  -2    4.99    1.74
  -1  -5   2    5.48    1.81
   0  -5  -2    4.16    1.71
   0  -5   2    6.82    1.93
  -1  -5  -2    0.48    1.73
   1  -5   2    1.29    1.70
  -2  -5  -2    6.10    1.88
   2  -5   2    5.37    1.90
   3  -5   2    0.84    1.61
  -3  -5  -2    2.00    1.67
  -4  -5  -2   14.78    2.23
   4  -5   2   11.16    2.23
   5  -5   2    2.00    1.78
  -5  -5  -2    4.30    1.70
   5   5   2    3.35    2.10
   6  -5   2   22.31    2.56
  -6  -5  -2   17.78    2.43
   6   5   2   20.32    2.81
  -6   5  -2   14.89    2.27
  -7  -5  -2    2.02    2.10
   7  -5   2    1.50    1.99
   7   5   2   -2.53    2.09
  -7   5  -2    3.83    2.04
  -8  -5  -2   17.71    2.34
   8  -5   2   19.16    2.63
  -8   5  -2   16.91    2.61
  -9  -5  -2    1.69    2.21
  -9   5  -2    0.91    2.18
 -10  -5  -2    5.79    2.73
 -10   5  -2    1.18    2.42
 -11  -5  -2    3.98    4.40
 -11   5  -2    2.16    2.77
 -12   5  -2    2.46    2.94
   7  -6  -2   -3.58    3.53
   6  -6  -2    6.22    3.30
   5  -6  -2    7.91    3.31
   4  -6  -2   -3.66    3.15
  -4  -6   2    0.34    2.62
  -3  -6   2    4.95    2.64
   3  -6  -2   -6.29    2.89
  -2  -6   2   -4.57    2.56
   2  -6  -2    4.26    2.77
  -1  -6   2   -1.03    2.71
   1  -6  -2   -3.61    2.42
   0  -6   2    0.55    2.65
   0  -6  -2   -7.13    2.62
   1  -6   2   -1.70    2.86
  -1  -6  -2    1.63    2.69
   2  -6   2    1.77    2.67
  -2  -6  -2    6.29    2.71
  -3  -6  -2    1.79    2.77
   3  -6   2   -0.49    2.98
   4  -6   2    2.40    3.10
  -4  -6  -2   -3.24    2.69
   5  -6   2   -5.66    3.14
  19   0  -3   -0.67    2.87
  18   0  -3   -3.85    2.39
  18   0  -3   -5.33    1.81
  17   0  -3    6.03    1.72
  17   0  -3    7.75    2.18
  16   0  -3    0.31    1.69
  16   0  -3   -0.37    0.94
  16   0  -3   -0.26    1.37
  15   0  -3    3.32    0.98
  15   0  -3    2.38    1.20
  15   0  -3    2.53    1.50
  14   0  -3    1.31    0.97
  14   0  -3   -0.47    0.76
  14   0  -3   -0.15    1.18
  13   0  -3    3.34    1.09
  13   0  -3    2.98    0.93
  13   0  -3    2.88    0.78
  12   0  -3   -0.01    0.57
  12   0  -3   -0.94    0.83
  12   0  -3   -0.07    0.70
  11   0  -3   27.85    1.49
  11   0  -3   27.52    1.29
  11   0  -3   28.41    1.23
  10   0  -3    0.35    0.48
  10   0  -3   -0.07    0.58
  10   0  -3    0.89    0.54
   9   0  -3   25.20    1.20
   9   0  -3   26.86    1.06
   9   0  -3   26.71    1.02
   8   0  -3   -0.15    0.44
   8   0  -3    0.33    0.35
   8   0  -3   -0.15    0.35
   7   0  -3  299.99    3.24
   7   0  -3  302.74    3.58
   7   0  -3  300.61    3.53
   6   0  -3   -0.34    0.21
   6   0  -3   -0.31    0.27
   6   0  -3   -0.38    0.22
   5   0  -3   65.11    1.29
   5   0  -3   64.07    1.16
   5   0  -3   64.19    0.98
   4   0  -3   -0.21    0.16
   4   0  -3   -0.02    0.21
   3   0  -3   46.09    0.97
   3   0  -3   46.14    0.70
   2   0  -3   -0.13    0.07
   2   0  -3   -0.21    0.18
   2   0  -3   -0.19    0.09
  -1   0   3   57.85    0.77
   1   0  -3   57.23    0.76
   1   0  -3   58.12    0.96
   0   0   3   -0.33    0.12
   0   0   3   -0.40    0.12
   0   0  -3   -0.41    0.12
   0   0  -3   -0.58    0.12
  -1   0  -3  232.46    2.51
   1   0   3  242.68    2.54
   1   0   3  231.83    2.28
  -1   0  -3  242.05    2.30
  -2   0  -3   -0.22    0.19
   2   0   3    0.17    0.22
   2   0   3    0.09    0.11
  -2   0  -3    0.15    0.12
   3   0   3    1.75    0.35
  -3   0  -3    2.33    0.37
   3   0   3    2.56    0.20
  -4   0  -3    0.16    0.28
   4   0   3   -0.02    0.31
   5   0   3   55.84    1.42
  -5   0  -3   56.32    1.40
  -6   0  -3   -0.17    0.36
   6   0   3   -0.13    0.35
  -7   0  -3    9.06    0.81
   7   0   3    8.83    0.92
   8   0   3   -0.37    0.46
   8   0   3   -0.12    0.50
   9   0   3   80.68    2.21
   9   0   3   77.16    2.16
  10   0   3    1.16    0.80
  10   0   3   -0.07    0.72
  11   0   3    0.30    0.89
  11   0   3    0.57    0.78
  12   0   3   -0.66    0.91
  12   0   3    0.36    1.02
  13   0   3   25.70    2.09
  13   0   3   26.50    2.13
  14   0   3    1.74    1.36
  15   0   3    1.15    1.60
  15   0   3    0.37    1.64
  16   0   3    0.05    1.81
  16   0   3   -1.57    1.86
  17   0   3   17.17    2.67
  17   0   3   12.95    2.54
  18   0   3    4.70    2.58
  19   0   3    2.78    2.99
  19  -1  -3    0.45    3.06
  19   1  -3   -0.73    3.82
  19   1  -3    6.38    2.59
  18  -1  -3   -4.00    2.35
  18  -1  -3   -0.62    1.42
  18   1  -3    3.60    2.90
  18   1  -3   -2.34    2.08
  17  -1  -3    4.00    1.34
  17  -1  -3    3.37    2.01
  17   1  -3    5.05    2.32
  17   1  -3    5.93    1.75
  16  -1  -3   20.53    1.86
  16  -1  -3   20.72    2.19
  16  -1  -3   16.04    2.02
  16   1  -3   22.84    2.51
  16   1  -3   20.72    1.98
  15  -1  -3   -0.81    0.95
  15  -1  -3   -0.53    1.38
  15  -1  -3    1.41    1.14
  15   1  -3    2.34    1.24
  15   1  -3   -1.52    1.44
  14  -1  -3    1.03    1.04
  14  -1  -3    0.85    1.14
  14  -1  -3    0.44    0.87
  14   1  -3    1.33    1.31
  14   1  -3    0.79    1.10
  13  -1  -3    1.51    0.88
  13  -1  -3    3.23    1.04
  13  -1  -3    1.73    0.78
  13   1  -3    1.12    1.14
  13   1  -3    1.80    0.99
  12  -1  -3    5.13    0.87
  12   1  -3    5.17    1.14
  12   1  -3    5.18    1.01
  11  -1  -3   10.88    1.08
  11   1  -3   14.93    1.40
  11   1  -3   13.35    1.30
  10  -1  -3    4.06    0.65
  10   1  -3    3.55    0.80
   9  -1  -3    6.75    0.67
  -9   1   3    6.61    0.61
   9   1  -3    7.92    0.95
  -8  -1   3    1.10    0.44
  -8  -1   3    0.42    0.53
  -8   1   3    0.81    0.35
   8   1  -3    1.29    0.58
  -7  -1   3    0.18    0.34
  -7  -1   3    0.29    0.43
   7   1  -3   -0.39    0.43
  -7   1   3   -0.32    0.27
  -6  -1   3   69.70    1.49
  -6  -1   3   70.72    1.57
  -6   1   3   70.32    1.17
   6   1  -3   71.02    1.61
  -5  -1   3    4.10    0.49
  -5  -1   3    4.16    0.48
  -5   1   3    4.23    0.39
   5   1  -3    3.41    0.49
  -4  -1   3    4.58    0.50
  -4  -1   3    4.52    0.49
   4   1  -3    5.77    0.55
  -4   1   3    4.25    0.37
  -3  -1   3   23.58    0.82
  -3  -1   3   22.62    0.79
   3   1  -3   22.82    0.81
  -2  -1   3  983.66    8.67
   2  -1  -3 1000.00    8.31
  -2  -1   3  974.40    8.53
   2   1  -3  958.10    8.52
   1  -1  -3   33.47    0.79
  -1  -1   3   33.33    0.87
  -1   1   3   32.85    0.78
   0  -1  -3   18.55    0.65
   0   1   3   18.58    0.64
  -1  -1  -3    5.20    0.47
   1   1   3    4.60    0.47
  -1   1  -3    5.09    0.53
  -2  -1  -3  320.15    3.49
   2   1   3  314.63    3.51
  -2   1  -3  310.19    3.59
   3  -1   3    4.74    0.53
  -3  -1  -3    4.88    0.51
   3   1   3    4.51    0.51
  -3   1  -3    4.29    0.47
   4  -1   3    8.26    0.73
  -4  -1  -3    8.92    0.70
  -4   1  -3    8.40    0.67
   4   1   3    9.15    0.73
  -5  -1  -3   13.26    0.82
   5  -1   3   13.13    0.89
  -5   1  -3   13.56    0.82
   5   1   3   13.86    0.86
  -6  -1  -3   35.29    1.33
   6  -1   3   32.51    1.27
  -6   1  -3   32.99    1.23
   6   1   3   32.54    1.24
   7  -1   3    9.22    0.93
  -7  -1  -3    6.63    0.35
   7   1   3    7.13    0.85
  -7   1  -3    6.58    0.76
   7   1   3    8.06    0.90
   8  -1   3   44.03    1.64
  -8   1  -3   42.60    1.54
   8   1   3   44.61    1.71
   8   1   3   46.10    1.67
   9  -1   3   11.53    1.24
   9   1   3    9.39    1.07
   9   1   3   12.32    1.22
  -9   1  -3   10.42    1.13
  10  -1   3    3.23    0.91
  10   1   3    1.31    0.85
  10   1   3    2.56    0.92
 -10   1  -3    1.69    0.79
  11  -1   3    1.62    0.92
 -11   1  -3    0.98    0.80
  11   1   3    0.63    0.95
  11   1   3    0.46    1.01
  12  -1   3   24.60    1.98
  12   1   3   23.00    2.03
 -12   1  -3   27.48    1.79
  12   1   3   23.55    1.94
  13  -1   3    1.32    1.18
  13   1   3    3.22    1.17
  13   1   3    1.64    1.27
  14  -1   3    4.79    0.58
  14  -1   3    5.74    1.58
  14   1   3    4.71    1.63
  14   1   3    6.63    1.64
  15  -1   3    0.77    1.55
  15  -1   3    1.14    2.79
  15   1   3    0.48    1.73
  15   1   3    1.07    1.50
  16  -1   3    9.07    2.12
  16  -1   3    8.27    1.94
  16   1   3   11.84    2.17
  16   1   3    6.16    2.40
  17  -1   3    3.06    2.15
  17  -1   3    0.40    2.16
  17   1   3    1.73    2.15
  17   1   3   -3.39    2.32
  18  -1   3   -1.69    2.32
  18   1   3   -3.82    2.46
  19  -1   3   -3.39    2.83
  19   1   3    5.55    3.25
  18  -2  -3    1.42    1.99
  18  -2  -3    4.28    2.67
  18   2  -3    4.25    2.49
  17  -2  -3   -4.46    2.00
  17  -2  -3   -1.81    1.54
  17   2  -3   -1.46    2.09
  17   2  -3    0.24    2.72
  16   2  -3    6.96    2.32
  16   2  -3    5.85    2.00
  15   2  -3   -0.52    1.52
  15   2  -3   -0.71    1.99
  14   2  -3   14.58    1.75
  14   2  -3   18.32    2.27
 -13   2   3   15.56    1.51
  13   2  -3   13.68    1.81
 -12  -2   3   30.30    1.56
 -12  -2   3   29.11    2.11
  12   2  -3   33.35    2.29
 -12   2   3   32.51    1.56
 -11  -2   3   18.25    1.73
 -11  -2   3   19.28    1.37
  11   2  -3   19.55    1.85
 -11   2   3   17.04    1.23
 -10  -2   3    8.91    1.06
 -10  -2   3    8.81    0.94
 -10   2   3    7.98    0.87
  10   2  -3    8.30    1.18
  -9  -2   3   -0.04    0.56
  -9  -2   3    0.20    0.79
   9   2  -3   -0.73    0.73
  -9   2   3   -0.39    0.50
  -8  -2   3   22.13    1.37
  -8  -2   3   23.24    1.24
  -8   2   3   21.84    1.08
   8   2  -3   23.29    1.43
  -7  -2   3    7.25    0.91
  -7  -2   3    6.59    0.78
  -7   2   3    6.71    0.69
   7   2  -3    6.70    0.88
  -6  -2   3   42.05    1.53
  -6  -2   3   41.63    1.45
  -6   2   3   42.79    1.28
   6   2  -3   41.44    1.57
  -5  -2   3    4.43    0.68
   5   2  -3    5.35    0.77
  -4  -2   3   15.19    1.03
   4   2  -3   16.30    1.04
   3  -2  -3    6.75    0.72
  -3  -2   3    5.01    0.69
   3   2  -3    5.74    0.74
   2  -2  -3   27.76    1.10
  -2  -2   3   29.73    1.15
  -1  -2   3    5.32    0.71
   1  -2  -3    8.23    0.75
   0  -2  -3    2.22    0.49
   0  -2   3    2.27    0.51
   0   2   3    2.62    0.53
  -1  -2  -3    0.88    0.43
   1   2   3    0.29    0.40
  -2  -2  -3   40.30    1.36
   2   2   3   40.28    1.37
  -3  -2  -3   95.85    2.08
   3   2   3   98.03    2.14
  -3   2  -3   96.38    2.16
  -4  -2  -3    1.17    0.54
   4   2   3    1.37    0.53
  -4   2  -3    2.49    0.59
  -5  -2  -3    3.19    0.67
   5   2   3    3.53    0.73
  -5   2  -3    2.48    0.60
  -6  -2  -3   -0.26    0.55
  -6   2  -3   -0.19    0.50
   6   2   3    0.27    0.63
  -7  -2  -3    2.69    0.72
   7   2   3    5.36    0.92
  -7   2  -3    3.77    0.78
  -8  -2  -3   13.75    1.38
  -8   2  -3   13.81    1.24
   8   2   3   11.90    1.22
  -9  -2  -3    2.18    0.85
  -9   2  -3    0.64    0.75
   9   2   3    1.64    0.95
 -10  -2  -3    0.12    0.45
 -10  -2  -3    0.00    1.02
  10   2   3   -0.05    1.05
 -10   2  -3    0.40    0.80
 -11  -2  -3    1.73    0.47
  11   2   3    0.01    1.11
  11   2   3    3.04    1.31
 -11   2  -3   -0.02    0.92
 -12   2  -3    9.80    1.65
  12   2   3    9.95    1.66
  12   2   3   12.83    1.83
  13   2   3    7.51    1.85
  13   2   3    5.86    1.65
 -13   2  -3    7.68    1.57
 -14   2  -3    1.53    1.47
  14   2   3    3.28    1.85
  14   2   3   -0.02    1.69
  15   2   3    3.72    2.28
 -15   2  -3    2.87    1.57
  15   2   3   -1.12    1.88
 -16   2  -3    0.94    1.83
  16   2   3    3.12    2.18
  16   2   3    0.98    2.61
  17   2   3    8.20    2.49
  18   2   3    1.84    2.83
  17   3  -3   -2.91    2.60
  16   3  -3   -2.45    2.26
 -15  -3   3    5.00    1.40
 -15   3   3    1.36    1.57
  15   3  -3    5.12    2.75
 -14  -3   3    2.57    1.35
 -14  -3   3    1.95    1.87
 -14   3   3   -1.13    1.32
  14   3  -3    3.76    2.23
 -13  -3   3    4.05    1.26
 -13  -3   3    3.99    1.67
  13   3  -3    3.37    1.90
 -13   3   3    3.06    1.26
 -12  -3   3    0.80    1.10
 -12  -3   3    3.57    1.49
 -12   3   3    0.78    1.10
  12   3  -3    1.91    1.68
 -11  -3   3   13.13    1.82
 -11  -3   3   11.74    1.37
 -11   3   3   11.39    1.32
  11   3  -3   12.12    1.92
 -10  -3   3    0.91    1.19
 -10  -3   3   -0.46    0.99
 -10   3   3   -0.34    0.84
  10   3  -3    0.73    1.33
  -9  -3   3   36.37    2.13
  -9  -3   3   39.30    1.94
  -9   3   3   36.49    1.74
   9   3  -3   32.24    2.14
  -8  -3   3    3.62    1.13
  -8  -3   3    3.96    0.99
  -8   3   3    3.60    0.84
   8   3  -3    0.45    0.97
  -7  -3   3   33.98    1.86
  -7   3   3   33.08    1.67
   7   3  -3   33.02    1.98
  -6  -3   3   14.51    1.35
   6   3  -3   17.11    1.59
  -5  -3   3   16.24    1.44
   5  -3  -3   20.12    1.47
   5   3  -3   14.41    1.41
  -4  -3   3    3.82    0.81
   4  -3  -3    5.07    0.90
   4   3  -3    5.31    0.97
  -3  -3   3   11.17    1.17
   3  -3  -3   12.15    1.24
  -2  -3   3   19.06    1.37
   2  -3  -3   19.17    1.32
   1  -3  -3    8.10    1.02
  -1  -3   3    8.99    1.12
   0  -3   3    2.62    0.79
   0  -3  -3    3.20    0.75
   1  -3   3    6.42    0.89
  -1  -3  -3    8.94    0.98
   1   3   3    6.20    0.90
  -2  -3  -3    2.75    0.80
   2   3   3    3.43    0.75
  -3  -3  -3   20.29    1.40
   3   3   3   20.30    1.37
  -4  -3  -3    3.01    0.85
   4   3   3    2.25    0.84
  -4   3  -3    3.19    0.92
  -5  -3  -3   24.07    1.61
  -5   3  -3   27.37    1.68
   5   3   3   22.11    2.19
  -6  -3  -3    0.73    0.84
   6   3   3    0.57    0.96
  -6   3  -3    0.52    0.79
  -7  -3  -3    5.84    1.12
  -7   3  -3    5.23    1.04
   7   3   3    4.50    1.13
  -8  -3  -3    1.42    1.04
   8   3   3   -1.06    1.03
  -8   3  -3   -0.55    1.16
  -9  -3  -3    4.78    1.09
   9   3   3    9.13    1.45
  -9   3  -3    7.54    1.23
 -10  -3  -3    1.58    1.18
  10   3   3    0.38    1.17
 -10   3  -3   -0.32    1.08
 -11  -3  -3    5.51    1.52
 -11  -3  -3    7.26    1.08
  11   3   3    4.91    1.64
 -11   3  -3    5.58    1.37
 -12  -3  -3    1.41    1.65
 -12  -3  -3    1.83    0.95
  12   3   3    7.56    1.85
 -12   3  -3    2.95    1.48
 -13  -3  -3   12.39    1.15
 -13  -3  -3   15.07    2.20
 -13   3  -3   11.55    1.85
  13   3   3    9.28    2.18
  13   3   3   10.31    2.15
 -14  -3  -3    1.45    0.84
  14   3   3    2.63    2.03
  14   3   3    7.97    2.45
 -14   3  -3   -1.74    1.67
  15   3   3   -2.32    2.21
  16   3   3    1.84    2.71
 -16   3  -3    2.68    2.53
  17   3   3    0.75    3.16
 -17   3  -3    3.10    3.59
 -15  -4   3   -0.98    3.06
 -14  -4   3    1.47    2.53
 -14  -4   3    1.02    1.85
 -14   4   3    0.63    2.04
 -13  -4   3    2.65    1.80
 -13  -4   3    5.53    2.20
 -13   4   3    3.49    1.75
  13   4  -3    1.53    3.16
 -12  -4   3    7.86    1.90
 -12  -4   3    7.59    2.13
  12   4  -3    4.69    2.55
 -12   4   3    6.59    1.78
 -11  -4   3    3.22    1.65
 -11  -4   3    4.08    1.94
 -11   4   3   -0.42    1.45
  11   4  -3    1.87    2.13
 -10  -4   3    1.93    1.42
 -10  -4   3    1.10    1.62
 -10   4   3    1.14    1.35
  10   4  -3   -0.72    1.86
  -9  -4   3   -0.11    1.50
  -9  -4   3   -1.41    1.30
  -9   4   3   -0.62    1.22
   9   4  -3    3.36    1.79
  -8  -4   3    0.19    1.49
   8  -4  -3    3.75    1.54
  -8   4   3    2.66    1.30
   8   4  -3   -0.09    1.37
   7  -4  -3   -0.54    1.20
  -7  -4   3    0.80    1.24
   7   4  -3   -0.77    1.32
  -6  -4   3   13.46    1.63
   6   4  -3   13.43    1.76
  -5  -4   3   11.56    1.62
   5  -4  -3   11.46    1.60
  -4  -4   3   -0.05    1.07
   4  -4  -3   -1.77    1.17
   3  -4  -3    5.13    1.31
  -3  -4   3    3.92    1.14
  -2  -4   3   12.97    1.85
   2  -4  -3   13.79    1.63
   1  -4  -3    9.49    1.50
  -1  -4   3   10.04    1.98
   0  -4   3    4.71    2.17
   0  -4  -3    8.67    1.34
  -1  -4  -3    8.88    1.31
   1  -4   3    8.06    1.95
   2  -4   3   27.58    2.06
   2   4   3   26.23    2.04
  -3  -4  -3    6.61    1.35
   3  -4   3    3.08    1.09
   3   4   3    2.72    1.21
   4  -4   3   10.07    1.59
  -4  -4  -3    9.17    1.46
   4   4   3    9.64    1.53
  -5  -4  -3   10.63    1.40
  -5   4  -3    9.63    1.44
  -6  -4  -3    8.48    1.50
  -6   4  -3    9.46    1.71
  -7  -4  -3    0.98    1.31
  -7   4  -3   -0.63    1.22
  -8  -4  -3   12.47    1.85
  -8   4  -3   10.91    1.65
  -9  -4  -3    2.00    1.45
  -9   4  -3    0.71    1.48
   9   4   3    0.93    1.56
 -10  -4  -3    3.90    1.77
 -10   4  -3   -1.40    1.53
  10   4   3    2.49    1.93
 -11  -4  -3    1.39    1.77
  11   4   3   -0.68    2.11
 -12  -4  -3    6.76    2.20
 -12  -4  -3    4.25    2.88
 -13  -4  -3   -0.06    1.64
 -13  -4  -3    3.03    2.30
 -13   4  -3    1.54    2.15
 -14  -4  -3    3.51    2.65
 -14   4  -3    4.39    2.49
 -15   4  -3   -1.04    2.81
  12  -5  -3    3.72    3.03
 -12  -5   3    0.74    2.80
 -11  -5   3   -4.65    2.42
 -11  -5   3    2.94    2.79
  11  -5  -3    3.48    2.83
  10  -5  -3    7.48    2.80
 -10  -5   3    7.38    2.54
 -10  -5   3    2.79    2.43
  -9  -5   3    3.68    2.27
  -9  -5   3   -1.10    2.30
   9  -5  -3    3.23    2.41
   8  -5  -3    2.97    2.39
  -8  -5   3    3.28    2.18
  -7  -5   3   -1.74    1.88
   7  -5  -3    1.75    2.08
  -6  -5   3    0.96    1.72
   6  -5  -3    2.28    2.05
  -5  -5   3    1.58    1.76
   5  -5  -3   -1.01    1.91
  -4  -5   3    6.58    2.11
   4  -5  -3    6.20    2.08
  -3  -5   3    6.76    1.98
   3  -5  -3    8.46    1.95
   2  -5  -3    3.65    1.87
  -2  -5   3    1.64    1.64
  -1  -5   3    4.24    1.83
   1  -5  -3    6.73    1.81
   0  -5   3    2.57    1.80
   0  -5  -3    2.61    1.65
  -1  -5  -3    4.76    1.68
   1  -5   3    1.60    1.65
   2  -5   3    2.44    1.72
  -2  -5  -3    2.17    1.71
  -3  -5  -3    1.91    1.75
   3  -5   3    0.12    1.70
   4  -5   3    4.09    1.99
  -4  -5  -3    4.86    1.81
  -5  -5  -3    5.67    1.95
   5  -5   3    6.50    1.81
  -5   5  -3    5.34    1.96
   5   5   3    4.40    1.83
  -6  -5  -3    1.09    1.89
   6  -5   3    1.20    1.82
   6   5   3   -3.18    1.94
  -6   5  -3    0.49    1.94
   7  -5   3   11.03    2.25
  -7  -5  -3   12.15    2.41
   7   5   3    8.18    2.18
  -7   5  -3   13.63    2.22
  -8  -5  -3   -3.06    1.90
  -8   5  -3   -4.02    1.96
  -9  -5  -3   15.58    2.68
  -9   5  -3   12.38    2.65
 -10  -5  -3    1.14    2.51
 -10   5  -3    2.72    2.42
 -11   5  -3   -1.63    2.71
   8  -6  -3   -5.96    4.26
   7  -6  -3    0.57    3.39
   6  -6  -3   -1.35    3.16
   5  -6  -3   10.26    3.23
  -4  -6   3   -1.83    2.81
   4  -6  -3   -1.97    2.84
  -3  -6   3    5.21    2.92
   3  -6  -3    1.95    2.79
  -2  -6   3   -5.36    2.53
   2  -6  -3   -1.67    2.55
  -1  -6   3    5.54    2.65
   1  -6  -3   -1.18    2.68
   0  -6  -3   -4.97    2.55
   0  -6   3   -1.98    2.63
  -1  -6  -3    1.64    2.70
   1  -6   3    0.13    2.84
  -2  -6  -3   -1.20    2.65
   2  -6   3   -0.58    2.93
   3  -6   3    2.02    2.99
  -3  -6  -3   -0.33    2.75
  -4  -6  -3    0.57    2.84
   4  -6   3   -3.15    2.68
  19   0  -4   -0.91    2.89
  18   0  -4    8.47    2.48
  18   0  -4    7.77    1.91
  17   0  -4   -2.71    1.86
  17   0  -4   -2.05    1.47
  16   0  -4    2.58    1.42
  16   0  -4    0.72    1.59
  16   0  -4    1.75    1.09
  15   0  -4    0.33    1.01
  15   0  -4   -0.33    1.13
  15   0  -4    1.66    1.41
  14   0  -4    7.65    1.05
  14   0  -4    8.86    1.18
  14   0  -4    6.36    1.36
  13   0  -4   -0.22    0.75
  13   0  -4    0.11    0.77
  13   0  -4   -0.48    0.96
  12   0  -4    5.36    0.81
  12   0  -4    7.18    0.90
  12   0  -4    5.14    1.09
  11   0  -4    0.42    0.60
  11   0  -4   -0.47    0.53
  11   0  -4   -0.62    0.65
  10   0  -4   -0.26    0.56
  10   0  -4    0.21    0.53
  10   0  -4    0.77    0.48
   9   0  -4   -0.13    0.47
   9   0  -4    0.51    0.38
   9   0  -4    0.96    0.45
   8   0  -4   -0.39    0.38
   8   0  -4    0.49    0.32
   8   0  -4    0.32    0.41
   7   0  -4   -0.32    0.33
   7   0  -4   -0.15    0.31
   7   0  -4   -0.05    0.26
   6   0  -4    0.43    0.36
   6   0  -4    0.15    0.23
   6   0  -4    0.14    0.27
   5   0  -4   -0.26    0.25
   5   0  -4   -0.09    0.22
   4   0  -4  106.98    1.31
   4   0  -4  108.68    1.75
   3   0  -4    0.18    0.11
   3   0  -4   -0.16    0.20
   2   0  -4   67.52    1.23
   2   0  -4   67.15    0.86
   1   0  -4   -0.11    0.14
   1   0  -4   -0.39    0.19
  -1   0   4   -0.10    0.15
   0   0   4    9.84    0.45
   0   0  -4    9.72    0.44
   0   0   4   10.38    0.46
   0   0  -4   10.03    0.46
  -1   0  -4    0.06    0.17
   1   0   4   -0.09    0.21
   1   0   4    0.17    0.16
  -1   0  -4    0.03    0.21
  -2   0  -4    7.73    0.53
   2   0   4    8.97    0.38
  -2   0  -4   10.08    0.41
   2   0   4    8.88    0.58
  -3   0  -4   -0.33    0.27
   3   0   4    0.01    0.14
   3   0   4    0.18    0.29
  -3   0  -4   -0.12    0.14
   4   0   4   47.00    1.29
  -4   0  -4   46.52    1.26
  -5   0  -4   -0.30    0.37
   5   0   4    0.47    0.41
  -6   0  -4   32.67    1.24
   6   0   4   34.79    1.31
   7   0   4   -0.01    0.47
  -7   0  -4   -0.20    0.46
  -8   0  -4   29.54    1.38
   8   0   4   28.07    1.37
   9   0   4   -0.74    0.60
   9   0   4   -0.56    0.66
  10   0   4  130.17    3.02
  10   0   4  131.93    3.00
  11   0   4   -0.36    0.78
  11   0   4    1.30    0.89
  12   0   4   19.47    1.82
  12   0   4   19.48    1.89
  13   0   4    0.50    1.16
  13   0   4    0.92    1.16
  14   0   4    2.16    1.40
  14   0   4    6.31    2.98
  15   0   4   -0.36    1.66
  15   0   4    1.53    1.69
  16   0   4    5.99    2.00
  16   0   4    3.53    1.91
  17   0   4    0.78    2.36
  17   0   4   -0.07    2.25
  18   0   4    2.05    2.67
  19   0   4   -1.68    3.00
  19  -1  -4   -6.41    2.93
  19   1  -4    2.57    3.39
  18  -1  -4   -0.51    2.37
  18  -1  -4    0.65    1.52
  18   1  -4    1.29    2.73
  18   1  -4    0.08    2.04
  17  -1  -4    2.92    1.41
  17  -1  -4   -1.81    1.96
  17   1  -4    4.11    2.32
  17   1  -4    1.00    1.59
  16  -1  -4   -2.11    1.54
  16  -1  -4    0.68    1.15
  16   1  -4    0.07    1.88
  16   1  -4    1.02    1.36
  15  -1  -4    6.86    1.26
  15  -1  -4    7.10    1.49
  15   1  -4    7.22    1.78
  15   1  -4    7.99    1.39
  14  -1  -4   -1.49    0.90
  14  -1  -4    0.07    1.12
  14   1  -4   -0.77    1.06
  14   1  -4    1.18    1.37
  13  -1  -4   32.28    1.91
  13  -1  -4   30.75    1.68
  13   1  -4   30.26    2.16
  13   1  -4   29.91    1.87
  12   1  -4    0.91    0.78
  12   1  -4    1.94    0.96
  11   1  -4    3.24    0.97
  11   1  -4    2.54    0.80
  10   1  -4   17.87    1.35
  -9  -1   4   94.95    2.15
   9   1  -4   94.01    2.20
  -8  -1   4   26.01    1.18
  -8  -1   4   24.64    1.05
  -8   1   4   25.15    0.76
   8   1  -4   24.42    1.21
  -7  -1   4    0.84    0.41
  -7  -1   4    0.67    0.41
  -7   1   4    1.26    0.28
   7   1  -4    0.86    0.47
   7   1  -4    0.53    0.47
  -6  -1   4    5.18    0.56
  -6  -1   4    5.99    0.62
   6   1  -4    6.26    0.68
  -6   1   4    5.76    0.39
   6   1  -4    5.64    0.64
  -5  -1   4   42.26    1.14
  -5  -1   4   41.33    1.20
  -5   1   4   42.11    0.74
   5   1  -4   42.09    1.15
  -4  -1   4   30.56    1.02
  -4  -1   4   30.74    0.92
   4   1  -4   31.70    0.96
  -3  -1   4    1.29    0.32
  -3  -1   4    1.11    0.33
   3   1  -4    1.41    0.35
   2  -1  -4  457.02    4.25
  -2  -1   4  467.57    4.80
  -2  -1   4  446.38    4.50
  -1  -1   4  108.40    1.79
   1  -1  -4  108.17    1.50
  -1   1   4  110.62    1.53
   0  -1  -4  507.47    4.75
   0   1   4  502.24    4.77
  -1  -1  -4  414.07    4.15
  -1   1  -4  408.65    4.42
   1   1   4  410.81    4.18
   2  -1   4    5.32    0.62
  -2  -1  -4    4.23    0.46
   2   1   4    4.00    0.46
  -2   1  -4    4.68    0.52
  -3  -1  -4   12.51    0.72
   3  -1   4   12.34    0.82
   3   1   4   12.23    0.69
  -3   1  -4   12.81    0.76
   4  -1   4    1.98    0.44
  -4  -1  -4    2.45    0.52
   4   1   4    1.95    0.48
  -4   1  -4    1.79    0.42
  -5  -1  -4  164.57    2.70
   5  -1   4  162.94    2.71
  -5   1  -4  166.30    2.70
   5   1   4  162.22    2.78
   5   1   4  164.21    2.73
   6  -1   4   33.42    1.34
   6   1   4   31.52    1.31
   6   1   4   31.98    1.36
  -6   1  -4   32.91    1.27
   7  -1   4    2.86    0.72
  -7   1  -4    2.12    0.62
   7   1   4    2.39    0.71
   7   1   4    1.85    0.68
   8  -1   4    9.49    1.06
   8   1   4    7.66    0.98
   8   1   4    7.80    0.95
  -8   1  -4    8.89    0.96
   9  -1   4   48.18    1.90
   9   1   4   50.29    1.97
   9   1   4   46.86    1.92
  -9   1  -4   47.33    1.81
  10  -1   4    3.70    0.99
  10   1   4    3.47    0.95
  10   1   4    4.81    1.06
 -10   1  -4    5.94    0.97
  11  -1   4    0.57    0.95
  11   1   4    0.64    0.97
 -11   1  -4    1.06    0.82
  11   1   4    0.93    0.96
  12  -1   4   -0.18    1.08
  12   1   4    1.95    1.15
 -12   1  -4    0.68    1.06
  12   1   4    0.28    1.18
  13  -1   4    7.43    1.51
  13   1   4    4.89    1.46
  13   1   4    8.98    2.53
 -13   1  -4    6.52    1.27
  14  -1   4    1.45    1.48
  14   1   4    0.54    1.50
  14   1   4    0.19    1.34
  15  -1   4    2.69    1.60
  15  -1   4    7.75    1.84
  15   1   4    4.14    1.74
  15   1   4    5.99    1.76
  16  -1   4    1.08    1.85
  16  -1   4    1.93    1.78
  16   1   4   -0.82    1.83
  16   1   4   -1.78    2.13
  17  -1   4   -2.84    2.31
  17  -1   4    4.28    2.31
  17   1   4   -2.66    2.07
  18  -1   4    2.77    2.62
  18   1   4   -1.69    2.58
  19  -1   4    3.58    3.17
  19   1   4    8.51    3.33
  18  -2  -4    7.37    2.62
  18  -2  -4    0.35    1.99
  18   2  -4    7.17    3.47
  18   2  -4   10.82    2.57
  17  -2  -4    0.17    2.11
  17   2  -4    3.57    2.71
  17   2  -4   -2.90    2.04
  16   2  -4    5.83    2.38
  16   2  -4    0.27    1.71
  15   2  -4   -1.40    2.84
  15   2  -4    1.95    1.92
  14   2  -4    2.45    1.69
  14   2  -4   -2.39    1.22
  13   2  -4    7.98    1.57
 -13   2   4    7.29    0.95
 -12  -2   4   -0.68    0.79
 -12  -2   4   -0.36    1.14
  12   2  -4    1.42    1.17
 -12   2   4   -0.06    0.71
 -11  -2   4    7.85    0.98
 -11  -2   4    8.65    1.33
  11   2  -4    9.15    1.43
 -11   2   4    7.51    0.87
 -10  -2   4    2.84    0.96
 -10  -2   4    2.50    0.71
  10   2  -4    0.70    0.99
 -10   2   4    1.79    0.60
  -9  -2   4   32.27    1.72
  -9  -2   4   32.19    1.50
   9   2  -4   30.23    1.66
  -9   2   4   31.36    1.18
  -8  -2   4    7.38    0.92
  -8  -2   4    8.67    1.03
   8   2  -4    8.25    1.07
  -8   2   4    6.90    0.70
  -7  -2   4    0.79    0.59
  -7  -2   4    0.91    0.57
  -7   2   4    1.60    0.49
   7   2  -4    1.11    0.68
  -6  -2   4    0.40    0.55
  -6  -2   4    0.65    0.52
   6   2  -4    0.91    0.60
  -6   2   4    0.40    0.44
  -5  -2   4   50.98    1.58
  -5  -2   4   49.21    1.56
   5   2  -4   49.02    1.64
  -4  -2   4   76.87    1.88
   4   2  -4   76.61    1.91
  -3  -2   4   82.79    1.94
   3  -2  -4   83.00    1.78
   3   2  -4   82.62    1.93
   2  -2  -4    6.62    0.66
  -2  -2   4    7.52    0.76
  -1  -2   4   35.99    1.29
   1  -2  -4   36.28    1.22
  -1   2   4   35.67    1.20
   0  -2  -4    0.15    0.40
   0   2   4    0.42    0.39
  -1  -2  -4   32.84    1.20
   1   2   4   31.79    1.20
  -2  -2  -4    8.39    0.84
   2   2   4    9.57    0.81
  -3  -2  -4   52.74    1.58
  -3   2  -4   53.44    1.66
   3   2   4   52.18    1.60
  -4  -2  -4   23.86    1.20
   4   2   4   22.99    1.18
  -4   2  -4   22.11    1.21
  -5  -2  -4   37.05    1.50
   5   2   4   36.36    1.54
  -5   2  -4   33.08    1.44
  -6  -2  -4   74.72    2.11
   6   2   4   77.09    2.18
  -6   2  -4   74.52    2.07
  -7  -2  -4    4.57    0.82
  -7   2  -4    5.82    0.95
   7   2   4    5.36    0.96
  -8  -2  -4   -0.25    0.76
  -8   2  -4    0.23    0.71
   8   2   4    0.57    0.88
  -9  -2  -4    7.76    1.26
   9   2   4    9.53    1.28
  -9   2  -4    9.50    1.17
 -10  -2  -4   18.69    0.88
 -10  -2  -4   25.45    2.94
 -10   2  -4   19.40    1.62
  10   2   4   18.44    1.81
  10   2   4   18.17    1.86
  11  -2   4    5.90    1.31
 -11  -2  -4    5.15    0.51
 -11   2  -4    5.92    1.45
  11   2   4    5.04    2.30
  11   2   4    5.52    1.30
  12  -2   4    1.51    1.25
 -12   2  -4    0.29    1.11
  12   2   4    0.45    1.23
  12   2   4    1.16    1.32
  13  -2   4    3.67    1.57
  13   2   4    3.19    1.63
 -13   2  -4    4.63    1.48
  13   2   4    4.50    1.64
  14   2   4    8.29    2.01
  14   2   4    5.25    2.09
 -14   2  -4    5.32    1.67
  15   2   4    3.03    2.03
 -15   2  -4    0.88    1.70
  15   2   4    1.17    2.16
  16   2   4    2.97    2.20
  17   2   4    5.95    2.55
  18   2   4    1.63    2.98
  17   3  -4   -1.89    2.54
  16   3  -4    5.85    3.18
 -15  -3   4    2.26    1.49
  15   3  -4    1.80    2.48
 -15   3   4    3.24    1.41
 -14  -3   4    3.13    1.95
 -14  -3   4    8.85    1.59
  14   3  -4    7.82    2.35
 -14   3   4    7.65    1.41
 -13  -3   4    3.22    1.65
 -13  -3   4    1.03    1.23
  13   3  -4    0.46    1.90
 -13   3   4    2.48    1.17
 -12  -3   4    2.17    2.07
 -12  -3   4    3.79    1.52
 -12   3   4    4.24    1.11
  12   3  -4    3.58    1.69
 -11  -3   4   -0.60    1.19
 -11  -3   4    0.29    1.19
 -11   3   4    0.00    0.89
  11   3  -4    2.71    1.56
 -10  -3   4    5.74    1.18
 -10  -3   4    4.71    1.40
  10   3  -4    5.91    1.40
 -10   3   4    4.76    0.95
  -9  -3   4   17.66    1.82
  -9  -3   4   18.15    1.72
   9   3  -4   23.18    2.02
  -9   3   4   18.62    1.44
  -8  -3   4   67.19    2.49
  -8  -3   4   62.59    2.27
   8   3  -4   65.70    2.58
  -8   3   4   65.52    2.02
  -7  -3   4    1.83    0.85
  -7  -3   4    3.05    0.91
  -7   3   4    1.31    0.75
   7   3  -4    1.91    0.93
  -6  -3   4   92.49    2.63
   6   3  -4   91.97    2.72
  -5  -3   4    7.38    1.13
   5  -3  -4    9.76    1.10
   5   3  -4    6.34    0.97
  -4  -3   4   48.27    1.90
   4  -3  -4   44.27    1.82
   3  -3  -4    1.82    0.75
  -3  -3   4    2.07    0.87
  -2  -3   4    5.77    0.93
   2  -3  -4    6.56    0.97
  -1  -3   4   11.63    1.26
   1  -3  -4   10.65    1.13
   0  -3   4   19.51    1.42
   0  -3  -4   17.70    1.32
   0   3   4   18.55    1.39
  -1  -3  -4    6.85    1.02
   1  -3   4    5.83    0.97
   1   3   4    3.83    0.81
  -2  -3  -4   35.79    1.61
   2   3   4   32.93    1.66
  -3  -3  -4    3.35    0.89
   3   3   4    5.92    0.99
  -4  -3  -4    8.71    1.11
   4   3   4    8.09    1.11
  -4   3  -4    7.26    1.07
  -5  -3  -4   10.15    1.12
   5   3   4    9.32    1.73
  -5   3  -4   13.29    1.40
  -6  -3  -4   19.70    1.59
   6   3   4   20.05    1.74
  -6   3  -4   18.17    1.59
  -7  -3  -4   14.15    1.45
  -7   3  -4   11.62    2.22
   7   3   4   11.53    1.40
  -8  -3  -4   -0.86    0.94
  -8   3  -4    2.08    1.01
   8   3   4    2.43    1.20
  -9  -3  -4   -1.20    1.11
  -9   3  -4    0.52    1.02
 -10  -3  -4   10.89    1.62
 -10   3  -4   12.00    1.51
 -11  -3  -4    1.61    1.39
 -11  -3  -4    4.03    0.94
 -11   3  -4    2.80    1.32
  11   3   4    6.41    1.62
 -12  -3  -4    7.13    1.85
 -12  -3  -4    5.46    1.00
 -12   3  -4    5.04    1.58
  12   3   4    5.00    1.82
 -13  -3  -4    0.03    0.81
 -13   3  -4   -1.92    1.57
  13   3   4   -2.08    1.84
  13   3   4   -0.45    2.15
 -14  -3  -4    1.48    0.72
  14   3   4    4.32    2.37
  14   3   4    8.12    2.70
  15   3   4   -2.88    2.36
 -15   3  -4   -6.25    2.19
  16   3   4    3.05    2.81
 -16   3  -4    4.74    2.68
  17   3   4   -2.32    3.16
 -17   3  -4    3.29    3.10
 -15  -4   4    2.05    3.04
 -14  -4   4   -0.20    2.45
 -14  -4   4    0.36    2.03
 -13  -4   4    4.89    2.37
 -13  -4   4    0.55    1.82
 -13   4   4    4.81    1.76
  13   4  -4    6.55    2.86
 -12  -4   4    0.67    1.99
 -12  -4   4    0.26    1.72
  12   4  -4   -1.04    2.30
 -12   4   4   -1.27    1.56
 -11  -4   4    4.67    1.89
 -11  -4   4    1.32    1.69
  11   4  -4    1.11    2.15
 -11   4   4    2.90    1.77
 -10  -4   4    1.30    1.72
 -10  -4   4    2.95    1.59
 -10   4   4   -2.96    2.37
  10   4  -4   -0.16    1.79
  -9  -4   4    0.97    1.57
  -9  -4   4    0.72    1.34
   9  -4  -4    2.40    1.56
   9   4  -4    0.64    1.66
  -9   4   4    1.95    2.52
  -8  -4   4    1.67    1.44
   8  -4  -4    3.45    1.41
  -8  -4   4    2.29    1.39
   8   4  -4   -0.99    1.40
  -8   4   4    0.46    2.21
  -7  -4   4   -1.19    1.26
   7  -4  -4   -0.33    2.35
   7   4  -4    0.47    1.36
   6  -4  -4    0.35    1.29
  -6  -4   4   -0.25    1.23
  -5  -4   4   19.28    1.90
   5  -4  -4   17.30    1.82
  -4  -4   4    0.31    1.17
   4  -4  -4   -1.99    1.01
  -3  -4   4   -0.48    1.03
   3  -4  -4    1.30    1.09
   2  -4  -4    1.61    1.10
  -2  -4   4    2.53    1.16
   1  -4  -4    2.99    1.15
  -1  -4   4    2.99    1.20
   0  -4   4    1.87    1.14
   0  -4  -4   -0.64    1.05
   1  -4   4    8.18    1.44
  -1  -4  -4    8.59    1.47
   2  -4   4    8.04    1.44
  -2  -4  -4    3.06    2.13
   2   4   4    5.58    1.27
   3  -4   4   12.78    1.58
  -3  -4  -4   17.11    1.73
   3   4   4   15.72    1.75
  -4  -4  -4   14.44    1.67
  -4   4  -4   13.33    1.68
   4   4   4   14.09    1.69
  -5  -4  -4   20.16    2.08
  -5   4  -4   20.22    1.92
  -6  -4  -4    1.88    1.34
  -6   4  -4    1.43    1.25
  -7  -4  -4    0.94    1.25
  -7   4  -4   -1.95    1.19
  -8  -4  -4    2.17    1.45
  -8   4  -4    1.15    1.48
  -9  -4  -4    7.46    1.74
  -9   4  -4    3.06    1.78
 -10  -4  -4    1.22    1.78
  10   4   4   -2.58    1.99
  11   4   4    5.00    2.39
 -11   4  -4    2.71    2.99
 -12  -4  -4    0.75    1.65
 -12  -4  -4    2.70    2.24
 -12   4  -4   -0.22    2.02
 -13  -4  -4    1.23    1.58
 -13  -4  -4    0.09    2.46
 -13   4  -4    6.05    2.46
 -14   4  -4   -0.64    2.52
 -15   4  -4    1.41    3.01
  12  -5  -4    5.48    3.12
 -12  -5   4   -3.93    2.80
 -11  -5   4    0.86    2.61
 -11  -5   4    0.24    2.70
 -10  -5   4    1.81    2.42
 -10  -5   4    2.05    2.57
  10  -5  -4    3.18    2.60
  -9  -5   4   -1.57    2.25
  -9  -5   4   -0.83    2.14
   9  -5  -4   -1.07    2.43
  -9   5   4    4.54    2.44
  -8  -5   4    2.78    2.21
   8  -5  -4    3.49    2.29
  -8   5   4   -0.59    2.00
  -7  -5   4    6.09    2.31
   7  -5  -4    7.71    2.25
   6  -5  -4   -1.69    1.82
  -6  -5   4   -0.44    1.88
  -5  -5   4    0.48    1.87
   5  -5  -4   -1.44    1.83
   4  -5  -4    2.04    1.75
  -4  -5   4   -0.45    1.71
   3  -5  -4    2.84    1.94
  -3  -5   4    2.64    1.62
  -2  -5   4    9.33    2.17
   2  -5  -4   10.25    2.09
  -1  -5   4    4.65    1.81
   1  -5  -4    7.47    1.92
   0  -5   4    6.07    2.06
   0  -5  -4    7.12    2.00
  -1  -5  -4    0.17    1.73
   1  -5   4    1.32    1.73
  -2  -5  -4    0.75    1.54
   2  -5   4   -0.47    1.64
   3  -5   4    4.27    1.88
  -3  -5  -4    5.71    1.83
   4  -5   4    5.17    2.01
  -4  -5  -4    5.60    1.90
  -4   5  -4    1.89    1.87
   4   5   4    3.33    1.98
  -5  -5  -4    3.15    1.92
   5  -5   4   11.07    2.14
   5   5   4    4.90    2.10
  -5   5  -4    5.77    2.09
   6  -5   4    1.61    1.92
  -6  -5  -4   -0.67    1.75
  -6   5  -4    3.89    2.14
   6   5   4   -2.35    2.07
   7  -5   4   11.52    2.55
  -7  -5  -4   16.31    2.40
   7   5   4   12.48    2.84
  -7   5  -4   13.34    2.40
  -8  -5  -4    2.96    1.99
  -8   5  -4    4.26    2.24
  -9  -5  -4    4.56    2.32
  -9   5  -4   -0.31    2.33
 -10  -5  -4    0.88    2.33
 -10   5  -4    3.23    2.57
   8  -6  -4    0.13    3.63
   7  -6  -4   -3.51    3.22
   6  -6  -4    1.64    3.21
   5  -6  -4   -3.20    3.27
   4  -6  -4    7.04    3.05
  -4  -6   4   -1.96    2.93
  -3  -6   4   -4.03    2.46
   3  -6  -4    0.20    2.83
   2  -6  -4    6.30    3.01
  -2  -6   4    1.19    2.64
  -1  -6   4   -0.50    2.64
   1  -6  -4    2.09    2.86
   0  -6   4    2.51    2.89
   0  -6  -4    1.96    2.73
   1  -6   4   -0.92    2.70
  -1  -6  -4    0.85    2.79
   2  -6   4    6.49    3.07
  -2  -6  -4    2.66    2.63
  -3  -6  -4   -2.92    2.89
   3  -6   4   -2.84    3.06
  -4  -6  -4   -0.02    3.16
   4  -6   4   -1.47    4.20
  19   0  -5   -0.81    2.89
  18   0  -5   -0.50    1.59
  18   0  -5   -2.64    2.29
  17   0  -5    1.61    1.32
  17   0  -5    2.33    1.91
  17   0  -5    0.24    1.36
  16   0  -5    0.99    1.21
  16   0  -5    0.57    1.23
  16   0  -5    0.01    1.58
  15   0  -5    8.17    1.59
  15   0  -5   10.92    1.38
  15   0  -5    9.72    1.27
  14   0  -5   -0.07    0.91
  14   0  -5   -0.39    0.88
  14   0  -5   -0.14    1.22
  13   0  -5    0.41    0.82
  13   0  -5   -1.26    0.90
  13   0  -5    1.67    0.76
  12   0  -5   -0.41    0.80
  12   0  -5    0.83    0.75
  12   0  -5    0.04    0.61
  11   0  -5   79.49    2.12
  11   0  -5   77.84    1.69
  11   0  -5   80.80    2.07
  10   0  -5    0.19    0.50
  10   0  -5    0.12    0.43
  10   0  -5   -1.24    0.54
   9   0  -5   -0.20    0.46
   9   0  -5   -0.38    0.49
   9   0  -5    0.31    0.35
   8   0  -5    0.41    0.31
   8   0  -5    0.23    0.40
   8   0  -5   -0.60    0.36
   7   0  -5    1.90    0.30
   7   0  -5    2.30    0.52
   7   0  -5    1.47    0.39
   6   0  -5    0.32    0.38
   6   0  -5   -0.21    0.24
   5   0  -5    5.14    0.56
   5   0  -5    4.83    0.39
   4   0  -5    0.07    0.15
   4   0  -5   -0.21    0.29
   3   0  -5    1.79    0.34
   3   0  -5    1.63    0.17
   3   0  -5    2.13    0.22
   2   0  -5    0.10    0.26
   2   0  -5   -0.15    0.14
  -2   0   5    0.11    0.18
   1   0  -5  461.54    4.56
  -1   0   5  448.38    4.21
   1   0  -5  458.25    4.22
   0   0  -5   -0.21    0.22
   0   0  -5   -0.04    0.21
   0   0   5   -0.10    0.22
   1   0   5   39.41    0.99
  -1   0  -5   39.21    0.88
  -1   0  -5   37.13    0.96
   1   0   5   40.09    0.87
  -2   0  -5   -0.03    0.19
   2   0   5    0.05    0.17
  -2   0  -5   -0.24    0.27
   2   0   5    0.13    0.30
   3   0   5  359.89    4.21
  -3   0  -5  373.33    3.52
  -3   0  -5  372.52    4.25
   3   0   5  377.17    3.49
  -4   0  -5    0.04    0.37
   4   0   5   -0.06    0.35
  -5   0  -5   17.66    0.95
   5   0   5   17.39    0.97
   6   0   5    0.22    0.46
  -6   0  -5    0.08    0.43
   7   0   5  150.73    2.88
  -7   0  -5  151.23    2.84
   8   0   5    0.08    0.65
  -8   0  -5   -0.47    0.55
   9   0   5    1.36    0.59
   9   0   5    1.83    0.81
  10   0   5    0.83    0.83
  11   0   5   89.16    2.78
  11   0   5   91.97    2.74
  12   0   5    1.32    1.15
  12   0   5    0.48    0.95
  13   0   5   89.45    3.17
  13   0   5   83.19    3.02
  14   0   5    0.36    1.44
  14   0   5   -0.97    1.31
  15   0   5   26.65    2.46
  15   0   5   19.57    2.13
  16   0   5   -1.89    1.93
  16   0   5   -6.41    1.89
  17   0   5    6.23    2.65
  18   0   5    0.43    2.85
  19   0   5   -0.99    3.25
  19  -1  -5   -0.18    2.96
  19   1  -5   -6.43    3.18
  18  -1  -5   -1.50    2.36
  18  -1  -5    0.32    1.67
  18   1  -5   -0.76    1.90
  18   1  -5   -0.31    2.69
  17  -1  -5    1.89    1.50
  17  -1  -5   -3.63    1.90
  17   1  -5    0.48    2.21
  17   1  -5    1.03    1.65
  16  -1  -5    8.99    1.80
  16  -1  -5    6.21    1.44
  16   1  -5    5.70    1.92
  16   1  -5    6.82    1.47
  15  -1  -5   -0.20    1.32
  15  -1  -5   -0.27    1.04
  15   1  -5    0.43    1.18
  15   1  -5   -0.65    1.54
  14  -1  -5   -0.75    0.96
  14  -1  -5    0.73    1.22
  14   1  -5    0.84    1.01
  14   1  -5    1.96    1.35
  13  -1  -5    0.59    0.86
  13  -1  -5   -0.06    0.94
  13   1  -5   -1.00    0.94
  13   1  -5   -1.46    1.22
  12  -1  -5   21.19    1.55
  12   1  -5   23.17    1.80
  12   1  -5   22.25    1.53
  11   1  -5    9.48    1.15
  10   1  -5    2.59    0.83
  10   1  -5    3.05    0.71
  -9  -1   5    4.65    0.76
   9   1  -5    5.22    0.83
   9   1  -5    4.12    0.72
  -8  -1   5   19.30    1.05
  -8  -1   5   20.40    1.11
   8   1  -5   20.51    1.12
   8   1  -5   20.09    1.12
  -7  -1   5   12.61    0.85
  -7  -1   5   12.22    0.89
   7   1  -5   12.45    0.92
   7   1  -5   11.38    0.88
  -6  -1   5   54.10    1.32
  -6  -1   5   53.83    1.45
   6   1  -5   56.42    1.38
   6   1  -5   55.77    1.51
  -5  -1   5    0.20    0.33
  -5  -1   5    0.37    0.33
  -5   1   5   -0.04    0.16
   5   1  -5    0.38    0.35
   5   1  -5    0.17    0.39
  -4  -1   5    0.28    0.30
  -4  -1   5    0.23    0.31
   4   1  -5    0.17    0.31
   4   1  -5   -0.01    0.35
  -3  -1   5    1.07    0.37
  -3  -1   5    0.75    0.30
   3  -1  -5    0.98    0.25
   3   1  -5    1.12    0.34
  -2  -1   5    1.21    0.37
  -2  -1   5    0.43    0.31
   2  -1  -5    0.34    0.23
  -1  -1   5  231.56    3.02
   1  -1  -5  237.38    2.55
  -1   1   5  235.46    2.58
   0  -1  -5   88.44    1.41
   0  -1   5   84.74    1.62
   0   1  -5   88.81    1.68
   0   1   5   88.85    1.43
   1  -1   5   99.81    1.73
  -1  -1  -5  101.58    1.62
  -1   1  -5   96.96    1.82
   1   1   5   97.62    1.62
  -2  -1  -5   64.93    1.37
   2  -1   5   60.84    1.51
  -2   1  -5   66.15    1.52
   2   1   5   62.12    1.36
   3  -1   5   -0.17    0.38
  -3  -1  -5    0.05    0.35
   3   1   5    0.62    0.33
  -3   1  -5    0.11    0.34
   4  -1   5    0.70    0.46
  -4  -1  -5   -0.20    0.39
   4   1   5    0.25    0.41
  -4   1  -5    0.93    0.46
   4   1   5    0.58    0.39
   5  -1   5   28.33    1.27
  -5  -1  -5   26.49    1.19
  -5   1  -5   28.23    1.17
   5   1   5   26.89    1.20
   5   1   5   27.30    1.26
   6  -1   5   13.66    1.09
   6   1   5   11.05    0.92
   6   1   5   11.35    1.03
  -6   1  -5   12.62    1.01
   7  -1   5    0.03    0.56
   7   1   5    0.00    0.54
  -7   1  -5    0.33    0.53
   7   1   5    0.32    0.59
   8  -1   5   58.26    1.96
   8   1   5   56.76    2.02
   8   1   5   58.80    1.94
  -8   1  -5   57.13    1.86
   9  -1   5    3.23    0.93
   9   1   5    3.79    0.95
   9   1   5    1.62    0.72
  -9   1  -5    3.68    0.89
  10  -1   5    7.35    1.21
  10   1   5    5.66    1.16
 -10   1  -5    6.49    1.06
  10   1   5    5.89    1.17
  11  -1   5    3.20    1.15
  11   1   5    4.33    1.18
 -11   1  -5    2.31    1.08
  11   1   5    1.80    1.05
  12  -1   5   15.21    1.67
 -12   1  -5   17.52    1.84
  12   1   5   18.68    1.86
  12   1   5   11.17    1.51
  13  -1   5    2.10    1.38
  13   1   5    3.69    1.37
  13   1   5    3.01    1.50
 -13   1  -5    2.29    1.27
  14  -1   5    1.06    1.58
  14   1   5    3.93    1.59
  14   1   5   -2.45    1.56
  15  -1   5    1.80    1.76
  15  -1   5   -2.22    1.55
  15   1   5    1.81    1.69
  15   1   5    0.25    1.74
  16  -1   5    7.87    2.13
  16  -1   5    8.68    2.19
  16   1   5   10.63    2.61
  16   1   5    9.35    2.27
  17  -1   5    5.76    2.45
  17   1   5    4.07    2.55
  18  -1   5    6.40    2.77
  18   1   5    5.64    3.04
  19  -1   5    2.24    3.31
  19   1   5    2.01    3.47
  18  -2  -5   -2.72    1.95
  18  -2  -5    2.03    2.56
  18   2  -5    7.31    3.25
  18   2  -5    4.58    2.52
  17  -2  -5    2.95    2.14
  17  -2  -5    1.29    1.75
  17   2  -5    1.07    2.72
  17   2  -5   -0.08    2.02
  16   2  -5    5.06    1.82
  16   2  -5    8.22    2.37
  15   2  -5    6.84    2.12
  15   2  -5    2.00    1.48
  14   2  -5    3.95    1.70
  13   2  -5    0.84    1.41
 -12  -2   5    7.44    1.04
 -12  -2   5    6.88    1.36
 -12   2   5    6.60    0.79
  12   2  -5    7.13    1.39
 -11  -2   5    5.39    1.20
 -11  -2   5    6.67    1.04
 -11   2   5    6.92    0.74
 -10  -2   5    9.32    1.09
 -10  -2   5    9.29    1.18
  10   2  -5    9.77    1.27
 -10   2   5    8.49    0.88
  -9  -2   5   -0.01    0.74
  -9  -2   5   -0.74    0.64
   9   2  -5    0.00    0.79
  -9   2   5    0.18    0.46
  -8  -2   5   33.56    1.54
  -8  -2   5   35.33    1.53
  -8   2   5   34.98    1.12
   8   2  -5   35.70    1.66
  -7  -2   5   18.86    1.25
  -7  -2   5   19.58    1.25
   7   2  -5   18.01    1.30
  -7   2   5   18.99    0.90
  -6  -2   5    4.77    0.81
  -6  -2   5    4.47    0.72
   6   2  -5    4.75    0.82
  -5  -2   5   14.46    1.04
  -5  -2   5   13.93    1.04
   5   2  -5   13.75    1.05
  -4  -2   5   19.20    1.06
   4  -2  -5   17.26    0.93
  -4  -2   5   16.79    1.06
   4   2  -5   16.61    1.03
   3  -2  -5   27.62    1.12
  -3  -2   5   30.17    1.26
  -2  -2   5   85.67    1.98
   2  -2  -5   84.95    1.78
   1  -2  -5  152.90    2.47
  -1  -2   5  156.47    2.70
  -1   2   5  154.47    2.51
   0  -2  -5   40.08    1.29
   0   2   5   41.58    1.32
  -1  -2  -5    0.15    0.48
   1   2   5    0.64    0.45
  -2  -2  -5   50.90    1.51
   2   2   5   47.08    1.50
  -2   2  -5   50.14    1.65
  -3  -2  -5   54.15    1.58
   3   2   5   56.68    1.67
  -3   2  -5   57.29    1.75
  -4  -2  -5   35.00    1.42
  -4   2  -5   34.90    1.46
   4   2   5   33.21    1.44
  -5  -2  -5   11.08    1.11
  -5   2  -5   11.18    1.05
   5   2   5    9.83    1.02
  -6  -2  -5   49.87    1.77
   6   2   5   55.75    1.96
  -6   2  -5   51.83    1.91
  -7  -2  -5   13.76    1.35
  -7   2  -5   14.82    1.26
   7   2   5   16.73    1.41
  -8  -2  -5   18.23    1.56
  -8   2  -5   16.75    1.43
   8   2   5   21.04    1.65
  -9  -2  -5   -0.53    0.86
   9  -2   5    0.26    0.95
   9   2   5    0.53    0.92
   9   2   5   -0.43    0.85
  -9   2  -5    1.21    0.85
 -10  -2  -5    2.00    0.48
  10  -2   5    1.99    1.09
 -10   2  -5    2.23    1.19
  10   2   5    1.30    1.12
  10   2   5    1.30    1.03
  11  -2   5    2.49    1.28
  11   2   5   -0.61    1.11
  11   2   5    0.28    1.18
 -11   2  -5    0.95    1.07
  12  -2   5    6.92    1.60
  12   2   5    4.36    1.56
 -12   2  -5    6.13    1.49
  12   2   5    7.51    1.77
  13  -2   5   10.74    1.91
  13   2   5    4.57    1.69
 -13   2  -5    9.43    1.77
  13   2   5    6.13    1.79
  14  -2   5    4.22    1.84
 -14   2  -5    3.24    1.70
  14   2   5    2.89    1.96
  14   2   5    2.77    1.92
  15  -2   5    4.72    2.05
  15   2   5    1.18    1.87
  15   2   5    1.58    2.19
  16   2   5    2.36    2.46
 -16   2  -5    2.20    2.01
  17   2   5    8.03    2.67
  18   2   5    4.55    3.25
  17   3  -5    1.27    2.61
  16   3  -5   10.67    3.29
 -15  -3   5    9.49    1.75
  15   3  -5    8.24    2.67
 -14  -3   5   -2.61    1.79
 -14  -3   5    3.07    1.49
  14   3  -5    0.10    2.31
 -14   3   5    1.41    1.24
 -13  -3   5    1.62    1.70
 -13  -3   5    1.83    1.32
  13   3  -5    7.41    2.06
 -13   3   5    1.80    1.12
 -12  -3   5    9.71    1.67
 -12  -3   5    7.68    1.39
 -12   3   5    7.28    1.19
  12   3  -5    4.37    1.70
 -11  -3   5    2.43    1.36
 -11  -3   5    2.05    1.14
 -11   3   5    2.29    0.93
  11   3  -5    4.35    1.45
 -10  -3   5    2.51    1.29
 -10  -3   5    3.51    1.13
  10   3  -5    1.28    1.31
 -10   3   5    1.97    0.89
  -9  -3   5    2.41    1.14
  -9  -3   5    0.86    1.84
  -9   3   5    0.78    0.82
   9   3  -5    1.51    1.19
  -8  -3   5   12.99    1.43
  -8  -3   5   13.88    1.43
  -8   3   5   16.53    1.39
   8   3  -5   12.41    1.50
  -7  -3   5   12.00    1.36
  -7  -3   5   13.64    1.38
   7   3  -5   12.36    1.44
   6  -3  -5   30.34    1.66
  -6  -3   5   28.66    1.66
  -6  -3   5   27.01    1.66
   6   3  -5   25.18    1.76
   5  -3  -5   62.27    2.10
  -5  -3   5   57.82    2.16
   5   3  -5   58.99    2.19
   4  -3  -5   -0.11    0.74
  -4  -3   5    0.19    0.72
  -3  -3   5    7.10    1.04
   3  -3  -5    7.94    1.03
   2  -3  -5    9.45    1.08
  -2  -3   5   10.03    1.21
  -1  -3   5    2.83    0.82
   1  -3  -5    3.09    0.82
   0  -3   5    0.83    0.65
   0  -3  -5    0.19    0.67
   0   3   5   -0.24    0.60
   1  -3   5    1.52    0.77
  -1  -3  -5    1.84    0.77
   1   3   5    0.20    0.74
  -2  -3  -5    2.04    0.78
   2   3   5    0.73    0.79
  -3  -3  -5   62.91    2.09
  -3   3  -5   59.67    2.19
   3   3   5   60.61    2.10
  -4  -3  -5    0.20    0.74
  -4   3  -5    0.61    0.76
   4   3   5    1.09    0.78
  -5  -3  -5    9.29    1.16
  -5   3  -5    7.49    1.16
   5   3   5    7.66    1.12
  -6  -3  -5    2.60    0.94
  -6   3  -5    2.56    0.93
   6   3   5    1.34    1.01
  -7  -3  -5    4.02    2.32
   7   3   5    4.42    1.15
  -7   3  -5    6.63    1.21
  -8  -3  -5    0.68    1.09
  -8   3  -5    0.46    0.97
  -9  -3  -5   12.14    1.57
  -9   3  -5   10.87    1.57
 -10  -3  -5   -0.32    1.20
 -10   3  -5   -0.68    1.19
 -11  -3  -5    2.17    1.44
 -11   3  -5    5.97    1.47
  11   3   5   -0.45    1.72
 -12  -3  -5    1.65    1.62
 -12  -3  -5    0.52    0.80
  12   3   5   -1.20    1.80
  12   3   5   -0.26    1.90
 -12   3  -5    2.96    1.62
 -13  -3  -5    5.84    0.88
  13   3   5    5.83    1.95
  13   3   5    5.94    2.18
 -14   3  -5    0.32    2.26
  14   3   5    1.71    2.31
  15   3   5   -1.12    2.56
 -15   3  -5   -1.88    2.36
  16   3   5   -0.97    3.04
 -16   3  -5    2.35    2.60
 -17   3  -5    8.12    3.25
 -15  -4   5   -1.00    2.94
 -14  -4   5   -0.52    2.52
 -13  -4   5    0.34    2.20
  13   4  -5    0.00    2.80
 -13   4   5    2.29    1.68
 -12  -4   5   -0.34    2.03
 -12  -4   5   -1.31    2.01
 -12   4   5    0.76    1.50
  12   4  -5    3.46    2.37
 -11  -4   5    3.16    1.95
 -11  -4   5   -0.35    1.63
  11   4  -5    2.48    2.17
 -11   4   5    0.38    1.41
 -10  -4   5    0.21    1.72
 -10  -4   5   -0.12    1.54
  10  -4  -5    2.30    1.68
  10   4  -5    0.36    1.90
 -10   4   5    0.44    1.34
  -9  -4   5    2.26    1.52
  -9  -4   5    1.18    1.46
   9  -4  -5    3.40    1.55
   9   4  -5   -1.71    1.66
  -9   4   5    2.92    1.28
  -8  -4   5    1.66    1.39
   8  -4  -5    5.12    1.54
  -8  -4   5    2.95    1.58
  -8   4   5    2.52    1.33
   8   4  -5    0.27    1.47
  -7  -4   5    4.87    1.47
  -7  -4   5    1.59    1.40
   7  -4  -5    2.30    1.63
  -6  -4   5   -0.03    1.23
   6  -4  -5    0.93    1.24
  -5  -4   5    4.01    1.42
   5  -4  -5    1.80    1.24
  -4  -4   5    3.34    1.21
   4  -4  -5    2.15    1.19
   3  -4  -5    1.06    1.15
  -3  -4   5    1.70    1.13
   2  -4  -5   18.12    1.72
  -2  -4   5   16.48    1.65
  -1  -4   5   -0.83    1.05
   1  -4  -5   -0.83    1.07
   0  -4  -5    2.31    1.17
   0  -4   5    3.75    1.23
   1  -4   5    2.36    1.22
  -1  -4  -5    1.19    1.19
  -2  -4  -5    4.40    1.42
   2  -4   5    6.98    1.27
   2   4   5    5.84    1.30
   3  -4   5    1.90    1.18
  -3  -4  -5    2.31    1.19
   3   4   5    1.30    1.21
  -4  -4  -5   26.23    2.09
  -4   4  -5   25.40    2.23
   4   4   5   29.34    2.28
  -5  -4  -5   12.18    1.66
   5   4   5   11.23    1.74
  -5   4  -5    9.73    1.74
  -6  -4  -5   26.91    2.27
  -6   4  -5   26.93    2.26
  -7  -4  -5    1.09    1.38
  -7   4  -5   -0.52    1.24
  -8  -4  -5    5.24    1.59
  -9  -4  -5    9.32    1.82
 -10  -4  -5    3.81    1.83
 -10   4  -5    3.99    3.13
  10   4   5    3.67    2.12
 -11  -4  -5    0.64    1.96
  11   4   5    0.64    2.27
 -11   4  -5   -0.88    1.96
 -12  -4  -5    4.98    2.28
 -12   4  -5    0.41    2.10
 -13  -4  -5   -1.70    2.53
 -13   4  -5    3.10    2.42
  14   4   5   -2.28    3.38
 -14   4  -5   -0.43    2.67
  12  -5  -5    5.38    3.16
 -12  -5   5    0.18    2.90
 -11  -5   5    0.18    2.65
 -11  -5   5    3.87    2.82
  11  -5  -5    2.02    2.81
 -11   5   5    4.72    2.45
  10  -5  -5    3.71    2.57
 -10  -5   5   -0.58    2.58
 -10  -5   5   -0.03    2.48
 -10   5   5   -0.02    2.20
  -9  -5   5   -1.66    2.29
  -9  -5   5    2.48    2.40
   9  -5  -5    0.84    2.49
  -9   5   5    3.49    2.15
  -8  -5   5    5.82    2.28
  -8  -5   5    5.03    2.24
   8  -5  -5    0.96    2.15
  -8   5   5   -1.94    1.96
  -7  -5   5    0.08    2.05
   7  -5  -5   -1.65    2.03
  -6  -5   5    1.70    1.89
   6  -5  -5    1.41    2.01
   5  -5  -5   -1.88    1.82
  -5  -5   5    0.63    1.78
  -4  -5   5   -1.11    1.76
   4  -5  -5    1.59    1.86
  -3  -5   5    2.90    1.80
   3  -5  -5    3.30    1.77
   2  -5  -5    1.49    1.68
  -2  -5   5   -0.25    1.68
   1  -5  -5   13.08    2.16
  -1  -5   5   17.89    2.37
   0  -5  -5    6.82    2.03
   0  -5   5    7.43    2.01
  -1  -5  -5   10.01    2.02
   1  -5   5    9.04    2.15
  -2  -5  -5    0.78    1.71
   2  -5   5   -1.32    1.79
   3  -5   5    3.97    1.97
  -3  -5  -5    1.80    1.73
  -4  -5  -5    0.29    1.56
   4  -5   5    4.44    1.83
   4   5   5    1.24    1.95
  -4   5  -5   -1.99    1.81
   5  -5   5    2.42    1.70
  -5  -5  -5    6.99    1.89
  -5   5  -5    5.17    2.04
   5   5   5   -0.21    1.92
  -6  -5  -5   -0.03    1.83
   6  -5   5   -1.23    1.76
   6   5   5    0.23    2.15
  -6   5  -5    3.33    2.11
  -7  -5  -5   -0.18    1.89
  -7   5  -5    0.30    2.17
  -8  -5  -5    4.44    2.22
  -8   5  -5    1.15    2.20
  -9  -5  -5    2.04    2.41
  -9   5  -5    2.40    2.38
 -10  -5  -5    3.34    2.57
   7  -6  -5    5.69    3.49
   6  -6  -5   -4.35    3.20
   5  -6  -5    2.89    3.04
  -4  -6   5   -3.22    4.61
   4  -6  -5   -2.84    2.67
   3  -6  -5    4.50    2.81
  -3  -6   5    0.12    2.92
   2  -6  -5    1.63    2.72
  -2  -6   5   -1.19    2.64
   1  -6  -5    0.79    2.90
  -1  -6   5    0.75    2.57
   0  -6  -5    3.63    2.95
   0  -6   5   -1.61    2.93
   1  -6   5    2.68    2.89
  -1  -6  -5    1.51    2.68
  -2  -6  -5    0.87    2.94
   2  -6   5   -0.90    3.03
  -3  -6  -5    4.84    2.65
   3  -6   5   -3.23    4.28
  -4  -6  -5    0.88    4.54
  19   0  -6   -6.37    2.85
  18   0  -6   19.59    2.77
  17   0  -6    0.65    1.25
  17   0  -6    0.56    1.49
  17   0  -6   -1.21    1.92
  16   0  -6    0.62    1.07
  16   0  -6    1.70    1.33
  16   0  -6    1.94    1.64
  15   0  -6    0.04    1.29
  15   0  -6    0.72    1.15
  15   0  -6   -0.05    0.92
  14   0  -6    5.63    1.21
  14   0  -6    5.95    0.96
  14   0  -6    2.83    1.17
  13   0  -6   -1.35    0.93
  13   0  -6   -0.47    0.85
  13   0  -6   -0.31    0.65
  12   0  -6    9.26    1.08
  12   0  -6    9.87    0.98
  12   0  -6   10.23    1.12
  11   0  -6   -0.01    0.46
  11   0  -6    0.70    0.66
  11   0  -6   -0.33    0.67
  10   0  -6    4.12    0.68
  10   0  -6    4.08    0.76
  10   0  -6    4.93    0.53
   9   0  -6   -0.16    0.53
   9   0  -6    0.13    0.33
   9   0  -6    0.04    0.45
   8   0  -6   78.87    1.18
   8   0  -6   80.47    1.91
   8   0  -6   77.25    1.53
   7   0  -6   -0.37    0.28
   7   0  -6   -0.16    0.22
   7   0  -6    0.11    0.42
   6   0  -6    9.90    0.80
   6   0  -6    8.46    0.51
   5   0  -6   -0.63    0.35
   5   0  -6    0.34    0.16
   5   0  -6   -0.09    0.20
   4   0  -6   94.46    1.03
   4   0  -6   92.22    1.11
   4   0  -6   93.16    1.83
   3   0  -6    0.04    0.29
   3   0  -6    0.00    0.16
   2   0  -6   18.01    0.82
  -2   0   6   18.84    0.61
   2   0  -6   19.19    0.58
   1   0  -6   -0.55    0.22
   1   0  -6   -0.37    0.21
  -1   0   6    0.14    0.27
   0   0  -6  258.86    2.97
   0   0   6  255.10    2.97
   0   0  -6  257.27    3.02
  -1   0  -6   -0.24    0.25
  -1   0  -6    0.15    0.26
   1   0   6   -0.09    0.26
   2   0   6   15.82    0.83
  -2   0  -6   16.99    0.81
  -2   0  -6   17.42    0.65
   3   0   6   -0.16    0.38
  -3   0  -6   -0.02    0.22
  -3   0  -6   -0.06    0.35
   4   0   6   13.82    0.91
  -4   0  -6   12.71    0.54
  -4   0  -6   11.98    0.81
  -5   0  -6    0.21    0.43
   5   0   6   -0.13    0.45
  -6   0  -6  138.89    2.71
   6   0   6  139.03    2.73
  -7   0  -6    0.52    0.51
   7   0   6    0.24    0.57
   8   0   6    5.88    0.93
  -8   0  -6    4.05    0.78
   9   0   6    0.03    0.72
  -9   0  -6   -0.12    0.57
   9   0   6   -0.96    0.61
  10   0   6   12.91    1.29
  10   0   6   14.34    1.56
  11   0   6   -0.01    0.97
  11   0   6    1.01    0.97
  12   0   6   62.65    2.56
  12   0   6   63.70    2.70
  13   0   6    0.68    1.20
  13   0   6    0.84    1.30
  14   0   6   26.96    2.46
  14   0   6   35.12    2.89
  15   0   6    1.00    1.89
  15   0   6   -2.14    1.64
  16   0   6   -0.34    1.99
  16   0   6    0.11    2.23
  17   0   6   -1.37    2.65
  18   0   6    2.97    3.03
  19   0   6    1.72    3.50
  19   1  -6    8.43    3.40
  18  -1  -6    1.59    1.83
  18  -1  -6   -0.49    2.38
  18   1  -6    0.25    2.71
  18   1  -6   -0.43    1.87
  17  -1  -6    1.10    2.01
  17  -1  -6    2.30    1.55
  17   1  -6    0.88    1.62
  17   1  -6   -1.19    2.15
  16  -1  -6   -2.78    1.52
  16  -1  -6    0.79    1.36
  16   1  -6   -0.69    1.32
  16   1  -6   -1.44    1.75
  15  -1  -6    6.65    1.54
  15  -1  -6    8.27    1.41
  15   1  -6    8.59    1.83
  15   1  -6    6.55    1.30
  14  -1  -6   -0.57    1.09
  14  -1  -6   -0.89    1.06
  14   1  -6   -0.41    0.97
  14   1  -6   -1.65    1.34
  13  -1  -6   18.21    1.69
  13  -1  -6   19.35    1.68
  13   1  -6   16.10    1.57
  13   1  -6   19.01    1.74
  12  -1  -6    4.26    0.94
  12  -1  -6    5.18    1.00
  12   1  -6    5.03    0.92
  12   1  -6    3.80    1.15
  11  -1  -6    6.54    0.91
  11   1  -6    6.08    1.01
  11   1  -6    7.42    1.06
  10   1  -6   19.47    1.39
  10   1  -6   17.88    1.32
  -9  -1   6   50.46    1.60
   9   1  -6   51.55    1.65
   9   1  -6   48.37    1.68
  -8  -1   6   16.24    1.01
  -8  -1   6   14.77    1.04
   8   1  -6   17.64    1.19
   8   1  -6   16.88    1.03
  -7  -1   6   13.40    0.99
  -7  -1   6   12.71    0.85
   7   1  -6   13.80    1.01
   7   1  -6   12.44    0.89
  -6  -1   6    7.01    0.76
  -6  -1   6    6.28    0.60
   6   1  -6    7.35    0.80
   6   1  -6    6.93    0.71
  -5  -1   6   41.95    1.33
  -5  -1   6   41.54    1.10
   5   1  -6   41.34    1.16
   5   1  -6   41.73    1.36
  -4  -1   6    7.15    0.60
  -4  -1   6    6.80    0.69
   4  -1  -6    7.43    0.44
   4   1  -6    8.26    0.74
   4   1  -6    6.97    0.57
  -3  -1   6   68.57    1.34
   3  -1  -6   71.40    1.08
  -3  -1   6   70.05    1.60
   3   1  -6   67.87    1.62
  -2  -1   6    4.88    0.58
  -2  -1   6    5.12    0.50
   2  -1  -6    5.18    0.40
   2   1  -6    5.01    0.60
  -2   1   6    5.25    0.38
   1  -1  -6    1.72    0.30
  -1  -1   6    1.38    0.37
   1   1  -6    1.64    0.40
  -1   1   6    2.26    0.34
   0  -1  -6   53.81    1.09
   0  -1   6   55.19    1.35
   0   1  -6   56.65    1.39
   0   1   6   54.16    1.12
   1  -1   6   23.41    1.01
   1  -1   6   22.35    0.89
  -1  -1  -6   22.60    0.81
  -1   1  -6   21.05    0.94
   1   1   6   21.84    0.81
  -2  -1  -6   11.13    0.71
   2  -1   6   10.02    0.83
   2  -1   6   11.03    0.67
   2   1   6   10.33    0.68
  -2   1  -6   11.60    0.80
   2   1   6   10.84    0.79
   3  -1   6    2.10    0.53
  -3  -1  -6    1.80    0.50
   3  -1   6    2.61    0.43
  -3   1  -6    2.31    0.53
   3   1   6    3.14    0.51
   3   1   6    1.90    0.52
  -4  -1  -6   15.29    0.89
   4  -1   6   14.24    1.01
   4   1   6   14.61    0.89
  -4   1  -6   13.81    0.93
   4   1   6   13.83    0.97
   5  -1   6    2.41    0.59
   5   1   6    2.74    0.59
   5   1   6    3.45    0.69
  -5   1  -6    2.49    0.59
   6  -1   6    4.93    0.77
   6   1   6    5.62    0.80
  -6   1  -6    5.86    0.81
   6   1   6    6.51    0.89
   7  -1   6    0.59    0.69
   7   1   6    0.63    0.64
   7   1   6    0.68    0.60
  -7   1  -6    0.70    0.57
   8  -1   6   -0.45    0.72
  -8   1  -6    0.20    0.57
   8   1   6   -0.08    0.71
   8   1   6    0.81    0.73
   9  -1   6    4.91    1.01
  -9   1  -6    4.93    0.90
   9   1   6    6.02    1.03
  10  -1   6   19.15    0.84
  10  -1   6   18.18    1.75
 -10   1  -6   20.18    1.59
  10   1   6   17.80    1.71
  10   1   6   16.95    1.62
  11  -1   6   27.56    2.04
  11  -1   6   27.09    0.88
  11   1   6   24.91    1.93
  11   1   6   32.44    2.15
 -11   1  -6   29.58    2.01
  12  -1   6    0.17    1.15
  12  -1   6    0.38    0.35
  12   1   6   -1.03    1.26
  12   1   6    1.57    1.25
 -12   1  -6    0.06    1.01
  13  -1   6    3.04    1.47
  13   1   6    2.45    1.49
  13   1   6    2.40    1.41
 -13   1  -6    4.57    1.43
  14  -1   6   -0.56    1.50
  14   1   6    0.35    1.53
 -14   1  -6    2.52    1.46
  14   1   6    0.68    1.67
  15  -1   6    5.46    1.88
  15  -1   6   10.23    2.07
  15   1   6    7.88    1.94
  15   1   6    6.85    2.15
  16  -1   6    1.74    2.02
  16  -1   6    3.01    2.13
  16   1   6    7.40    2.41
  16   1   6    3.85    2.15
  17  -1   6    4.72    2.55
  17   1   6   -0.50    2.55
  18  -1   6    5.71    2.96
  18   1   6    6.41    3.26
  18  -2  -6   -0.61    2.21
  18  -2  -6    3.90    2.65
  18   2  -6    1.51    3.21
  18   2  -6    7.45    2.47
  17  -2  -6    0.91    2.08
  17  -2  -6    1.62    1.81
  17   2  -6   -3.03    2.54
  17   2  -6   -1.98    2.04
  16  -2  -6    1.00    1.77
  16   2  -6   -1.98    2.14
  15   2  -6    2.30    1.90
  15   2  -6    1.69    1.54
  14   2  -6    2.59    1.74
  13   2  -6    6.20    1.61
 -12  -2   6   -1.83    1.04
 -12  -2   6   -1.18    0.80
  12   2  -6    0.54    1.17
 -11  -2   6    4.18    1.16
 -11  -2   6    6.30    1.08
  11   2  -6    6.11    1.24
 -11   2   6    6.00    0.63
 -10  -2   6   -0.58    0.70
 -10  -2   6    0.39    0.87
  10   2  -6    0.05    0.99
 -10   2   6   -0.69    0.46
  -9  -2   6   12.06    1.17
  -9  -2   6   12.62    1.23
  -9   2   6   11.96    0.79
   9   2  -6   15.67    1.44
  -8  -2   6   19.16    1.37
  -8  -2   6   22.89    1.42
   8   2  -6   23.04    1.47
  -8   2   6   22.25    0.92
  -7  -2   6   13.00    1.15
  -7  -2   6   12.05    1.12
   7   2  -6   12.00    1.19
  -7   2   6   14.42    0.79
  -6  -2   6    0.76    0.54
  -6  -2   6    0.11    0.61
   6   2  -6    0.84    0.66
   5  -2  -6    9.09    0.82
  -5  -2   6    7.92    0.87
  -5  -2   6    8.44    0.90
   5   2  -6    8.28    0.90
   4  -2  -6  151.79    2.44
  -4  -2   6  150.22    2.72
  -4  -2   6  153.88    2.86
  -3  -2   6    5.58    0.73
  -3  -2   6    5.14    0.75
   3  -2  -6    5.67    0.67
  -2  -2   6    0.37    0.49
   2  -2  -6    0.81    0.45
  -1  -2   6   -0.35    0.43
   1  -2  -6   -0.28    0.41
  -1   2   6    0.00    0.41
   0  -2  -6  122.49    2.23
   0   2   6  128.55    2.31
  -1  -2  -6   18.82    1.02
  -1   2  -6   16.68    1.12
   1   2   6   16.87    1.01
  -2  -2  -6   22.87    1.13
   2   2   6   24.27    1.18
  -2   2  -6   23.91    1.28
  -3  -2  -6   12.07    0.95
   3   2   6   12.74    1.02
  -3   2  -6   10.65    1.03
  -4  -2  -6   13.10    1.09
   4   2   6   11.39    1.00
  -4   2  -6   10.01    1.07
  -5  -2  -6    5.19    0.85
   5   2   6    6.16    0.88
  -5   2  -6    7.95    1.00
  -6  -2  -6    7.17    0.96
  -6   2  -6    7.82    1.02
   6   2   6    6.66    0.92
  -7  -2  -6   35.47    1.74
   7   2   6   36.65    1.81
  -7   2  -6   36.65    1.73
   8  -2   6    1.82    0.94
  -8  -2  -6    2.73    0.86
   8   2   6    2.37    0.93
   8   2   6    2.66    0.96
  -8   2  -6    1.72    0.81
  -9  -2  -6    6.66    1.10
   9  -2   6    7.02    1.28
   9   2   6    4.64    1.22
   9   2   6    4.36    1.09
  -9   2  -6    4.62    1.33
  10  -2   6   21.67    1.90
  10   2   6   20.31    1.98
 -10   2  -6   20.43    1.85
  10   2   6   17.36    1.77
  11  -2   6    3.72    1.36
  11   2   6    6.00    1.56
 -11   2  -6    5.86    1.36
  12  -2   6    0.95    1.41
  12   2   6   -0.35    1.35
 -12   2  -6    0.31    1.29
  12   2   6    1.19    1.42
  13  -2   6    1.62    1.59
  13   2   6   -0.26    1.64
  13   2   6   -1.55    1.50
 -13   2  -6    0.97    1.52
  14  -2   6    4.61    1.97
  14   2   6    4.77    2.15
 -14   2  -6   -0.31    1.86
  14   2   6    1.73    1.96
  15  -2   6    2.84    2.18
  15   2   6    0.40    2.19
  15   2   6    3.82    2.17
 -15   2  -6    3.56    3.37
  16  -2   6   -0.17    2.32
 -16   2  -6    2.76    2.11
  16   2   6    4.25    2.37
 -17   2  -6    1.35    2.58
  17   2   6    1.57    2.86
  18   2   6    8.23    3.44
  17   3  -6   -0.12    2.51
  16   3  -6    8.03    3.23
 -15  -3   6    4.33    1.67
  15   3  -6    1.24    2.44
 -14  -3   6   25.81    2.61
 -14  -3   6   20.44    2.43
  14   3  -6   21.53    2.63
 -13  -3   6    1.33    1.48
 -13  -3   6   -0.35    1.67
 -13   3   6   -1.67    0.99
  13   3  -6    2.98    1.88
 -12  -3   6    8.32    1.51
 -12  -3   6    8.18    1.68
  12   3  -6   14.10    2.06
 -12   3   6    6.47    1.05
 -11  -3   6    1.70    1.41
 -11  -3   6   -1.46    1.17
  11   3  -6   -1.87    1.46
 -11   3   6   -0.08    0.82
 -10  -3   6    4.82    1.24
 -10  -3   6    2.76    1.75
  10   3  -6    2.98    1.35
 -10   3   6    2.59    0.86
  -9  -3   6    0.24    1.07
  -9  -3   6   -0.73    0.92
  -9   3   6   -0.33    0.69
   9   3  -6   -0.24    1.16
  -8  -3   6    6.67    1.22
  -8  -3   6    3.98    1.04
   8   3  -6    3.17    1.13
  -8   3   6    6.41    0.93
  -7  -3   6    1.19    1.00
   7  -3  -6    2.02    0.83
  -7  -3   6    0.76    1.04
   7   3  -6    0.26    1.12
  -6  -3   6    2.72    0.93
  -6  -3   6    1.15    1.31
   6  -3  -6    2.97    0.98
   6   3  -6    3.07    1.01
  -5  -3   6    1.83    0.89
   5  -3  -6    3.51    0.89
  -5  -3   6    4.40    1.00
   4  -3  -6   34.78    1.66
  -4  -3   6   36.04    1.81
   3  -3  -6    0.72    0.73
  -3  -3   6   -0.50    0.72
   2  -3  -6    2.41    0.76
  -2  -3   6    2.17    0.86
   1  -3  -6   -0.13    0.65
  -1  -3   6   -0.67    0.77
   0  -3  -6   12.32    1.27
   0  -3   6   12.74    1.29
   0   3   6   13.11    1.27
  -1  -3  -6    2.06    0.80
   1   3   6    2.94    0.82
  -2  -3  -6   13.08    1.27
   2   3   6   11.68    1.21
  -3  -3  -6    1.59    0.78
  -3   3  -6   -0.03    0.78
   3   3   6    2.27    0.77
  -4  -3  -6   35.69    1.78
   4   3   6   30.40    2.13
  -5  -3  -6    2.98    0.91
  -5   3  -6    1.89    0.87
   5   3   6    1.98    0.91
  -6  -3  -6   26.65    1.89
   6   3   6   28.91    1.93
  -6   3  -6   22.12    1.82
  -7  -3  -6    0.87    1.07
   7   3   6    1.81    1.15
  -7   3  -6    1.88    1.02
  -8  -3  -6    0.60    1.00
  -8   3  -6   -0.71    1.05
  -9  -3  -6    4.47    1.34
  -9   3  -6    2.79    1.18
 -10  -3  -6   18.21    1.98
 -10   3  -6   21.29    2.01
 -11  -3  -6    4.39    1.56
 -11   3  -6    6.05    1.49
  11   3   6    5.60    1.86
 -12  -3  -6    6.11    0.99
  12   3   6    8.07    2.03
  12   3   6    5.23    2.07
 -13  -3  -6   -0.74    0.67
  13   3   6   -4.92    1.97
 -13   3  -6   -0.16    2.38
  13   3   6   -0.98    1.94
  14   3   6    3.49    2.40
 -14   3  -6    0.77    2.05
  15   3   6    2.84    2.81
 -15   3  -6   -1.51    2.48
  16   3   6   -0.48    3.18
 -16   3  -6    0.90    2.94
 -15  -4   6   -1.82    3.01
 -14  -4   6    3.06    2.58
 -14  -4   6    0.92    2.28
 -13  -4   6    3.12    2.55
  13   4  -6    3.04    2.85
 -13   4   6    3.31    1.76
 -12  -4   6    2.10    2.20
  12   4  -6    1.30    2.31
 -12   4   6   -1.29    1.47
  11  -4  -6    9.18    1.96
 -11  -4   6    6.15    2.03
 -11   4   6    3.86    1.50
  11   4  -6    2.52    2.21
 -10  -4   6    1.61    2.62
 -10  -4   6    0.27    1.62
  10  -4  -6    2.14    1.64
 -10   4   6    0.56    1.27
  10   4  -6   -2.27    1.82
  -9  -4   6    6.89    1.78
   9  -4  -6    9.70    1.75
  -9  -4   6    9.83    1.90
  -9   4   6    9.45    1.46
   9   4  -6    7.29    1.88
  -8  -4   6    0.09    1.40
  -8  -4   6    1.64    1.46
   8  -4  -6   -0.51    2.57
  -8   4   6   -0.24    1.10
   7  -4  -6   11.29    1.75
  -7  -4   6   10.86    1.68
  -7  -4   6    9.87    1.60
  -6  -4   6    7.07    1.45
   6  -4  -6    9.39    1.59
   5  -4  -6    9.02    1.52
  -5  -4   6    6.01    1.43
  -4  -4   6    0.06    1.07
   4  -4  -6    0.55    1.11
  -3  -4   6    4.06    1.36
   3  -4  -6    6.30    1.34
   2  -4  -6    3.52    1.19
  -2  -4   6    3.78    1.31
  -1  -4   6   15.34    1.82
   1  -4  -6   13.89    1.60
   0  -4   6    1.58    1.19
   0  -4  -6    0.64    1.16
  -1  -4  -6    6.67    1.58
   1  -4   6    4.38    1.16
   1   4   6    3.49    1.21
   2  -4   6    0.55    1.01
  -2  -4  -6   -0.33    1.22
   2   4   6   -1.10    1.09
  -3  -4  -6    1.83    1.16
   3   4   6    4.33    1.35
  -3   4  -6    0.53    1.17
  -4  -4  -6    4.91    1.34
   4   4   6    3.66    1.30
  -4   4  -6    4.17    1.38
  -5  -4  -6    7.23    1.51
  -5   4  -6    6.13    1.52
   5   4   6    5.63    1.52
  -6  -4  -6   12.83    1.73
  -6   4  -6    9.53    1.79
  -7  -4  -6   17.27    1.96
  -8  -4  -6   -1.01    1.52
  -9  -4  -6    3.99    1.78
   9   4   6    2.06    2.11
  -9   4  -6    3.84    2.09
 -10  -4  -6    6.00    2.01
 -10   4  -6    1.91    1.76
  10   4   6    2.91    2.21
 -11  -4  -6    2.67    2.21
 -11   4  -6    2.60    2.05
 -12  -4  -6    2.11    2.36
 -12   4  -6    4.17    2.22
 -13  -4  -6    3.72    2.48
  13   4   6    1.53    2.85
 -13   4  -6    0.84    2.59
 -14   4  -6   -5.47    3.57
  12  -5  -6   -5.15    3.11
 -11  -5   6    3.29    2.83
 -11  -5   6   -1.18    2.84
  11  -5  -6    4.21    2.94
 -10  -5   6    1.43    2.51
  10  -5  -6   -0.91    2.69
 -10  -5   6    2.74    2.85
 -10   5   6   -3.31    2.15
   9  -5  -6   -2.95    2.40
  -9  -5   6    2.58    2.60
  -9  -5   6    1.14    2.37
  -9   5   6    3.86    2.14
  -8  -5   6    2.80    2.29
  -8  -5   6    0.18    2.19
   8  -5  -6    3.36    2.35
  -8   5   6    2.33    2.06
  -7  -5   6    8.24    2.28
  -7  -5   6    2.09    2.24
   7  -5  -6    5.51    2.16
  -6  -5   6    0.54    2.10
   6  -5  -6   -2.37    1.96
  -5  -5   6    2.27    1.97
   5  -5  -6    4.09    2.05
  -4  -5   6    1.28    1.88
   4  -5  -6    3.22    1.87
   3  -5  -6    6.72    1.84
  -3  -5   6    8.28    1.94
  -2  -5   6    0.16    1.83
   2  -5  -6   -0.39    1.63
   1  -5  -6    3.78    1.79
  -1  -5   6    1.57    1.87
   0  -5  -6    3.14    1.80
   0  -5   6    2.48    1.91
  -1  -5  -6   -0.64    1.70
   1  -5   6    1.90    1.80
   2  -5   6    6.29    1.91
  -2  -5  -6    4.24    1.96
   3  -5   6    5.13    2.03
  -3  -5  -6    8.68    2.00
  -3   5  -6    7.95    2.09
  -4  -5  -6   -1.47    1.90
   4  -5   6    2.45    1.79
   4   5   6   -3.74    1.82
  -4   5  -6    0.31    1.99
   5  -5   6    5.76    2.06
  -5  -5  -6    0.86    2.03
   5   5   6   -1.43    2.21
  -5   5  -6    2.75    2.06
   6  -5   6    2.71    2.11
  -6  -5  -6    3.54    2.08
   6   5   6   -1.69    2.24
  -6   5  -6    0.43    1.82
  -7  -5  -6   -1.09    2.07
  -7   5  -6    0.35    2.36
  -8  -5  -6    3.02    2.38
  -8   5  -6   -0.11    2.29
  -9  -5  -6    2.62    2.43
   7  -6  -6    0.99    3.39
   6  -6  -6    2.20    3.17
   5  -6  -6   -0.82    2.89
   4  -6  -6    0.22    3.08
   3  -6  -6   -3.03    2.81
  -3  -6   6   -3.37    3.79
   2  -6  -6    6.96    3.04
  -2  -6   6    8.45    3.45
   1  -6  -6    5.12    2.82
  -1  -6   6    0.49    2.98
   0  -6   6    6.29    2.97
   0  -6  -6    6.58    2.96
  -1  -6  -6    2.20    2.93
   1  -6   6   -4.82    3.25
  -2  -6  -6    5.33    2.83
  -3  -6  -6    0.59    2.99
  18   0  -7   -0.22    2.38
  18   0  -7    1.81    1.84
  17   0  -7   13.76    1.93
  17   0  -7   12.00    1.26
  17   0  -7    9.60    2.12
  16   0  -7    0.85    0.98
  16   0  -7    0.87    1.58
  16   0  -7    1.55    1.43
  15   0  -7   25.67    1.46
  15   0  -7   29.99    2.21
  15   0  -7   26.66    3.18
  14   0  -7    0.01    0.71
  14   0  -7   -0.96    1.03
  14   0  -7   -0.93    1.07
  13   0  -7    1.27    0.94
  13   0  -7    2.07    0.69
  13   0  -7    2.13    0.99
  12   0  -7    0.74    0.87
  12   0  -7    0.18    0.51
  12   0  -7   -0.99    0.77
  11   0  -7   68.29    1.29
  11   0  -7   69.99    1.87
  11   0  -7   71.92    2.22
  10   0  -7    0.11    0.65
  10   0  -7   -0.47    0.35
  10   0  -7    0.36    0.56
   9   0  -7    2.67    0.35
   9   0  -7    2.02    0.70
   9   0  -7    2.53    0.52
   8   0  -7    0.28    0.24
   8   0  -7   -0.01    0.52
   8   0  -7    0.02    0.39
   7   0  -7   34.55    0.90
   7   0  -7   35.13    1.36
   6   0  -7   -0.01    0.36
   6   0  -7    0.26    0.25
   6   0  -7   -0.34    0.16
   5   0  -7    4.73    0.32
   5   0  -7    3.49    0.55
   5   0  -7    4.47    0.31
   4   0  -7   -0.21    0.18
   4   0  -7   -0.01    0.34
   3   0  -7   30.36    0.72
   3   0  -7   30.60    1.11
   2   0  -7    0.11    0.30
  -2   0   7    0.43    0.24
   2   0  -7    0.04    0.24
   1   0  -7  261.38    2.97
   1   0  -7  249.94    3.22
  -1   0   7  260.04    2.98
   0   0   7    0.13    0.31
   0   0  -7    0.00    0.26
   0   0  -7   -0.15    0.27
   1   0   7    0.62    0.35
  -1   0  -7    0.31    0.33
  -1   0  -7    0.32    0.29
  -2   0  -7   -0.21    0.30
  -2   0  -7    0.49    0.27
   2   0   7    0.08    0.37
  -3   0  -7  137.97    2.44
  -3   0  -7  141.73    1.97
   3   0   7  134.41    2.43
  -4   0  -7    0.23    0.41
  -4   0  -7   -0.08    0.24
   4   0   7   -0.42    0.43
   5   0   7    3.86    0.72
  -5   0  -7    2.81    0.59
   6   0   7   -0.13    0.55
  -6   0  -7    0.24    0.47
  -7   0  -7  102.14    2.49
   7   0   7   94.98    2.47
  -8   0  -7    0.43    0.62
   8   0   7   -0.63    0.67
   9   0   7   14.15    1.51
  -9   0  -7   17.75    1.43
   9   0   7   10.79    2.08
  10   0   7   -0.09    0.94
  10   0   7    0.64    0.76
  11   0   7    1.68    1.16
  11   0   7    1.65    0.99
  12   0   7   -1.01    1.09
  12   0   7    1.65    1.38
  13   0   7    1.26    1.42
  13   0   7    0.94    1.26
  14   0   7    0.01    1.39
  14   0   7    2.02    1.73
  15   0   7   -4.09    1.70
  15   0   7    2.29    1.96
  16   0   7   -0.95    2.27
  16   0   7    5.24    2.27
  17   0   7   17.24    3.24
  18   0   7    3.03    3.18
  19   1  -7   -1.67    5.34
  18  -1  -7    0.77    1.89
  18  -1  -7    2.31    2.38
  18   1  -7    0.13    2.68
  17  -1  -7   -0.21    2.98
  17  -1  -7   -0.54    1.92
  17   1  -7    0.99    1.63
  17   1  -7    3.35    2.37
  16  -1  -7    4.24    1.52
  16  -1  -7    2.89    1.67
  16   1  -7    3.51    1.91
  16   1  -7    3.76    1.37
  15  -1  -7   -1.00    1.26
  15  -1  -7    0.01    1.18
  15   1  -7    1.29    1.54
  15   1  -7    0.95    1.12
  14  -1  -7    4.97    1.32
  14  -1  -7    4.57    1.27
  14   1  -7    4.59    2.77
  14   1  -7    4.10    1.09
  13  -1  -7    0.08    0.97
  13  -1  -7   -0.76    0.90
  13   1  -7    0.15    0.87
  13   1  -7    0.26    1.17
  12  -1  -7    4.61    1.02
  12  -1  -7    4.77    0.92
  12   1  -7    3.54    0.97
  12   1  -7    5.93    1.13
  12   1  -7    3.78    0.86
  11  -1  -7   13.70    1.20
  11   1  -7   14.19    1.27
  11   1  -7   10.73    1.19
  10  -1  -7    9.42    0.84
  10   1  -7   11.00    1.16
  10   1  -7   10.25    1.03
  -9  -1   7   13.96    1.07
   9   1  -7   14.12    1.29
   9   1  -7   14.18    1.09
  -8  -1   7    5.98    0.80
  -8  -1   7    5.29    0.67
   8   1  -7    6.08    0.75
   8   1  -7    5.67    0.85
  -7  -1   7   41.79    1.26
  -7  -1   7   42.69    1.50
   7   1  -7   42.29    1.29
   7   1  -7   40.33    1.53
  -6  -1   7   50.90    1.27
  -6  -1   7   49.73    1.57
   6   1  -7   49.56    1.61
   6   1  -7   51.34    1.31
  -5  -1   7   10.87    0.70
  -5  -1   7   12.95    0.90
   5   1  -7   10.78    0.69
   5   1  -7   13.01    0.98
   4  -1  -7    1.95    0.28
  -4  -1   7    1.68    0.38
  -4  -1   7    1.30    0.43
  -4   1   7    1.77    0.26
   4   1  -7    1.10    0.43
  -3  -1   7   39.47    1.31
   3  -1  -7   38.78    0.74
  -3  -1   7   37.40    1.02
  -3   1   7   36.30    0.83
   3   1  -7   38.09    1.31
  -2  -1   7    1.05    0.41
   2  -1  -7    0.52    0.22
  -2  -1   7    0.58    0.34
   2   1  -7    0.77    0.37
  -2   1   7    1.02    0.26
   2   1  -7    1.06    0.40
  -2   1   7    0.70    0.30
   1  -1  -7  102.73    1.48
  -1  -1   7  100.28    1.97
   1   1  -7   97.48    1.98
  -1   1   7   99.90    1.50
  -1   1   7   99.74    1.69
   1   1  -7   99.35    1.89
   0  -1  -7    1.08    0.30
   0  -1   7    0.84    0.33
   0   1   7    0.88    0.36
   0   1  -7    0.67    0.41
   0   1   7    0.93    0.31
   1  -1   7    2.09    0.39
  -1  -1  -7    4.04    0.49
   1  -1   7    3.36    0.61
  -1   1  -7    2.77    0.49
   1   1   7    3.32    0.51
   1   1   7    3.31    0.47
   2  -1   7    8.74    0.86
   2  -1   7    8.69    0.68
  -2  -1  -7   10.27    0.73
  -2   1  -7   10.17    0.83
   2   1   7    8.63    0.72
   2   1   7    8.51    0.82
  -3  -1  -7    2.10    0.50
   3  -1   7    1.31    0.37
   3  -1   7    1.72    0.59
  -3   1  -7    1.48    0.49
   3   1   7    1.34    0.46
   3   1   7    1.39    0.54
   4  -1   7   62.79    1.82
   4  -1   7   60.86    1.42
   4   1   7   59.64    1.76
   4   1   7   58.62    1.63
  -4   1  -7   61.71    1.74
   5  -1   7   12.16    1.10
   5  -1   7   12.33    0.76
  -5   1  -7   10.04    0.93
   5   1   7   12.63    1.00
   5   1   7   13.71    1.13
   6  -1   7    0.00    0.38
   6  -1   7   -0.17    0.62
   6   1   7    0.62    0.59
   6   1   7    0.29    0.60
  -6   1  -7   -0.49    0.47
  -7  -1  -7   12.65    0.52
   7  -1   7   13.62    1.28
   7  -1   7   12.26    0.77
  -7   1  -7   14.13    1.23
   7   1   7   13.56    1.27
   7   1   7   12.09    1.17
   8  -1   7   46.57    1.99
   8  -1   7   49.60    1.23
   8   1   7   46.88    1.86
  -8   1  -7   47.47    1.86
   8   1   7   51.08    2.09
   9  -1   7    4.74    0.54
   9  -1   7    3.24    1.04
  -9   1  -7    3.38    0.97
   9   1   7    4.78    1.06
   9   1   7    5.65    1.09
  10  -1   7    0.65    0.44
  10  -1   7   -0.67    0.91
  10   1   7    1.07    0.94
  10   1   7    0.98    1.00
 -10   1  -7    1.15    0.95
  11  -1   7    0.39    1.12
  11  -1   7    0.03    0.39
 -11   1  -7    0.29    1.06
  11   1   7   -0.73    1.03
  12  -1   7   16.70    1.87
  12   1   7   16.26    1.87
 -12   1  -7   20.71    2.11
  13  -1   7   -0.18    1.37
 -13   1  -7    0.29    1.23
  13   1   7   -1.73    1.37
  13   1   7    0.59    1.36
  14  -1   7    1.83    1.70
 -14   1  -7    2.69    1.92
  14   1   7    3.90    1.91
  14   1   7   -1.39    1.58
  15  -1   7    1.65    1.88
  15  -1   7   -1.42    1.77
  15   1   7    1.22    1.98
  15   1   7   -1.91    2.00
  16  -1   7    0.40    2.19
  16   1   7    0.49    2.28
  17  -1   7    2.00    2.55
  17   1   7   -1.76    2.54
  18  -1   7    6.46    3.15
  18   1   7    2.17    3.35
  18  -2  -7   -3.70    2.22
  18   2  -7    6.40    3.39
  18   2  -7   -0.27    4.06
  17  -2  -7   -1.03    1.97
  17  -2  -7    1.96    2.04
  17   2  -7    6.18    2.82
  17   2  -7   -2.34    2.45
  16  -2  -7   -1.45    1.75
  16  -2  -7    2.28    1.75
  16   2  -7    1.15    2.32
  16   2  -7   -2.60    1.63
  15   2  -7    5.30    1.58
  15   2  -7    8.72    2.10
  14   2  -7    2.16    1.69
  13   2  -7   -0.11    1.37
 -12  -2   7    2.43    1.17
 -12  -2   7    3.27    1.11
  12   2  -7    2.42    1.31
 -11  -2   7   25.54    1.86
 -11  -2   7   26.94    1.78
  11   2  -7   26.48    1.93
 -10  -2   7   28.71    1.72
 -10  -2   7   31.12    1.78
 -10   2   7   28.27    0.81
  10   2  -7   27.81    1.85
  -9  -2   7    0.54    0.75
  -9  -2   7    0.04    0.79
  -9   2   7    0.26    0.37
   9   2  -7    0.18    0.80
  -8  -2   7   31.86    1.55
  -8  -2   7   30.70    1.65
   8   2  -7   32.53    1.69
  -8   2   7   31.77    0.93
  -7  -2   7   23.90    1.47
  -7  -2   7   24.88    1.35
   7   2  -7   22.57    1.40
  -7   2   7   24.28    0.89
   6  -2  -7   42.12    1.32
  -6  -2   7   40.08    1.67
  -6  -2   7   42.25    1.54
   6   2  -7   43.27    1.60
   5  -2  -7    0.56    0.51
  -5  -2   7    0.57    0.60
  -5  -2   7    0.12    0.52
  -4  -2   7  118.50    2.57
  -4  -2   7  119.89    2.43
   4  -2  -7  118.22    2.09
   3  -2  -7   26.41    1.06
  -3  -2   7   25.46    1.26
  -3  -2   7   26.36    1.31
  -2  -2   7  117.98    2.50
  -2  -2   7  116.28    2.38
   2  -2  -7  117.66    2.08
  -1  -2   7   57.88    1.77
   1  -2  -7   57.79    1.49
  -1   2   7   58.17    1.54
   0  -2  -7   62.49    1.59
   0   2   7   62.51    1.64
   0   2  -7   61.92    1.86
  -1  -2  -7    9.22    0.87
  -1   2  -7   10.03    1.01
   1   2   7   11.78    0.93
  -2  -2  -7   35.38    1.33
  -2   2  -7   34.75    1.50
   2   2   7   34.61    1.37
  -3  -2  -7   79.99    2.02
   3   2   7   82.17    2.08
  -3   2  -7   81.42    2.22
  -4  -2  -7   41.68    1.58
   4   2   7   36.83    1.51
  -4   2  -7   42.38    1.67
  -5  -2  -7    4.70    0.82
  -5   2  -7    4.03    0.86
   5   2   7    4.52    0.89
  -6  -2  -7   10.27    1.15
   6   2   7   10.82    1.23
  -6   2  -7    8.87    1.02
  -7  -2  -7   12.87    1.28
   7  -2   7   14.86    1.50
  -7   2  -7   14.11    1.38
   7   2   7   11.81    1.37
  -8  -2  -7   19.37    1.61
   8  -2   7   19.70    1.77
   8   2   7   21.82    1.76
  -8   2  -7   21.66    2.02
   8   2   7   19.90    1.75
   9  -2   7    0.74    1.10
  -9   2  -7    0.54    0.90
   9   2   7    0.21    1.14
   9   2   7   -0.92    1.07
  10  -2   7    3.58    1.32
 -10   2  -7    2.26    1.12
  10   2   7    1.14    1.18
  11  -2   7    8.38    1.58
  11   2   7    8.35    1.73
 -11   2  -7    5.92    1.37
  12  -2   7    9.13    1.76
 -12   2  -7    5.33    1.48
  12   2   7    7.26    1.73
  13  -2   7    5.99    1.86
 -13   2  -7    3.57    1.93
  13   2   7    4.17    1.98
  13   2   7    5.68    1.74
  14  -2   7    1.80    1.86
  14  -2   7    1.92    0.95
  14   2   7   -0.30    2.06
  14   2   7    4.95    2.29
  15  -2   7    1.97    2.36
  15  -2   7    0.64    0.93
  15   2   7    1.86    2.22
 -15   2  -7    2.46    2.11
  16  -2   7    1.24    2.62
 -16   2  -7    3.94    2.28
  16   2   7    0.05    2.51
  17  -2   7   -0.88    2.85
  17   2   7   -4.07    2.78
 -17   2  -7    2.36    2.78
  17   3  -7   -2.41    2.58
  16   3  -7    4.79    2.97
  15   3  -7   13.49    2.89
 -14  -3   7    4.44    1.72
 -14  -3   7    1.01    2.01
  14   3  -7    2.80    2.24
 -13  -3   7   19.94    1.97
 -13  -3   7   17.16    2.13
 -13   3   7   14.01    1.39
  13   3  -7   18.34    2.44
 -12  -3   7   -1.56    1.24
 -12  -3   7   -0.10    1.44
  12   3  -7   -0.62    1.70
 -12   3   7   -0.39    0.80
 -11  -3   7   13.59    1.77
 -11  -3   7   12.04    1.59
 -11   3   7   15.11    1.34
  11   3  -7   13.66    1.91
 -10  -3   7    1.15    1.12
 -10   3   7   -0.08    0.78
  10   3  -7    1.60    1.32
  -9  -3   7   -0.36    1.09
  -9  -3   7   -0.62    1.07
  -9   3   7    0.70    0.70
   9   3  -7   -1.33    1.08
  -8  -3   7    0.53    0.98
  -8  -3   7   -1.44    0.96
   8  -3  -7    2.02    0.94
   8   3  -7   -0.79    1.08
  -8   3   7   -0.81    0.69
   7  -3  -7   25.99    1.71
  -7  -3   7   26.09    1.89
  -7  -3   7   27.17    1.81
   7   3  -7   21.63    2.13
  -6  -3   7    4.54    1.01
   6  -3  -7    4.36    1.00
  -6  -3   7    3.48    0.92
   5  -3  -7   14.54    1.41
  -5  -3   7   15.06    1.50
  -5  -3   7   15.23    1.52
  -4  -3   7    0.72    0.91
  -4  -3   7    1.63    1.58
   4  -3  -7   -0.57    0.68
   3  -3  -7    9.06    1.03
  -3  -3   7   10.78    1.19
   2  -3  -7    7.07    1.03
  -2  -3   7    6.41    1.08
  -1  -3   7   12.30    1.30
   1  -3  -7   12.60    1.18
   0  -3  -7    1.76    0.75
   0  -3   7    2.62    0.80
   0   3   7    1.75    0.78
  -1  -3  -7   22.99    1.44
   1   3   7   24.99    1.60
  -2  -3  -7    0.55    0.76
  -2   3  -7    0.03    1.39
   2   3   7    2.31    0.85
  -3  -3  -7   51.54    2.02
  -3   3  -7   49.55    2.22
   3   3   7   51.29    2.06
  -4  -3  -7   27.95    1.71
  -4   3  -7   27.67    1.76
   4   3   7   28.87    2.86
  -5  -3  -7   11.82    1.30
  -5   3  -7   12.17    1.35
   5   3   7   11.28    1.41
  -6  -3  -7    0.92    0.95
  -6   3  -7    1.50    0.96
   6   3   7    1.86    0.94
  -7  -3  -7   11.09    1.45
   7   3   7   11.01    1.52
  -7   3  -7    9.86    1.45
  -8  -3  -7   10.31    1.57
  -8   3  -7    8.03    1.44
  -9  -3  -7    2.21    1.31
  -9   3  -7    3.37    1.24
 -10  -3  -7   -1.01    1.36
 -10   3  -7   -0.72    1.31
 -11  -3  -7    4.24    1.66
  11   3   7    4.09    1.81
 -12  -3  -7    4.25    0.89
  12   3   7    1.64    1.96
  12   3   7    6.31    2.19
  13   3   7    5.92    2.45
 -13   3  -7    3.74    2.06
  13   3   7    6.62    2.24
 -14   3  -7   -5.16    2.11
  14   3   7   -1.14    2.33
 -15   3  -7    0.72    2.71
  15   3   7    1.53    3.01
  16   3   7   -2.17    4.48
 -15  -4   7   -2.95    3.09
 -14  -4   7    0.74    2.39
 -14  -4   7    6.68    2.68
 -13  -4   7    2.72    2.03
  13  -4  -7    5.61    2.27
 -13  -4   7    2.90    2.43
  13   4  -7   -3.25    2.71
 -12  -4   7    5.43    2.34
 -12  -4   7    2.15    1.96
  12  -4  -7    2.05    2.06
 -12   4   7   -0.45    1.42
  12   4  -7   -3.98    2.30
  11  -4  -7    2.62    1.77
 -11  -4   7    0.23    2.87
 -11  -4   7    1.23    1.94
  11   4  -7   -2.91    1.99
 -11   4   7    1.14    1.33
 -10  -4   7    9.34    2.01
  10  -4  -7    9.47    1.89
 -10   4   7    8.06    1.49
  10   4  -7    7.59    2.07
   9  -4  -7    5.55    2.99
  -9  -4   7    8.23    1.90
  -9   4   7    9.87    1.52
   8  -4  -7    7.61    1.65
  -8  -4   7    9.22    1.82
  -7  -4   7   -0.92    1.40
  -7  -4   7   -2.59    1.35
   7  -4  -7    1.86    1.43
  -6  -4   7   18.10    2.02
   6  -4  -7   15.76    1.80
  -6  -4   7   17.90    1.98
   5  -4  -7    1.30    1.19
  -5  -4   7    3.70    1.41
   4  -4  -7    8.31    1.50
  -4  -4   7    5.68    1.50
   3  -4  -7   -0.57    1.03
  -3  -4   7   -0.20    1.25
  -2  -4   7    8.58    1.50
   2  -4  -7    8.84    1.39
  -1  -4   7    0.65    1.09
   1  -4  -7   -2.03    1.05
   0  -4  -7   10.55    1.56
   0  -4   7   10.52    1.64
   1  -4   7    7.84    1.35
  -1  -4  -7    3.73    2.19
   1   4   7    3.39    1.38
   2  -4   7    1.88    1.12
  -2  -4  -7    0.64    1.11
   2   4   7    0.08    1.11
  -3  -4  -7    1.27    1.26
   3   4   7    3.80    1.38
  -3   4  -7    0.16    1.17
  -4  -4  -7   -0.44    1.20
  -4   4  -7    1.45    1.32
   4   4   7    0.41    1.38
  -5  -4  -7    4.97    1.46
   5   4   7    6.75    1.92
  -5   4  -7    2.58    1.59
  -6  -4  -7    3.94    1.49
  -7  -4  -7    8.63    1.84
   7   4   7    6.20    1.87
  -8  -4  -7    5.23    1.65
   8   4   7    5.60    2.01
  -8   4  -7    4.83    1.91
  -9  -4  -7    0.02    1.62
  -9   4  -7   -3.65    1.68
   9   4   7   -0.68    2.01
 -10  -4  -7    4.16    2.06
  10   4   7    1.31    2.25
 -10   4  -7    5.16    2.06
 -11  -4  -7    4.34    2.14
 -11   4  -7    1.37    2.15
 -12  -4  -7    3.67    2.35
 -12   4  -7    4.57    2.40
 -13  -4  -7   -0.86    4.31
  13   4   7    4.87    3.24
 -13   4  -7   -3.61    2.92
  12  -5  -7    0.44    3.19
 -11  -5   7    6.04    2.99
  11  -5  -7    2.15    3.01
  10  -5  -7    0.86    2.61
 -10  -5   7    0.53    2.84
 -10  -5   7    3.24    3.65
 -10   5   7    0.16    2.13
  -9  -5   7    0.66    2.40
  -9  -5   7   -0.81    2.50
   9  -5  -7    1.57    2.45
  -9   5   7    1.39    2.17
  -8  -5   7   -0.22    2.26
   8  -5  -7   -3.20    2.22
  -8  -5   7   -1.92    2.24
   7  -5  -7    1.84    2.04
  -7  -5   7    0.06    2.19
  -7  -5   7    3.17    2.18
  -6  -5   7    3.17    2.03
  -6  -5   7   -0.14    2.13
   6  -5  -7   -0.74    2.03
  -5  -5   7   -0.57    2.10
   5  -5  -7   -1.15    1.84
  -4  -5   7    6.06    2.06
   4  -5  -7    4.55    1.97
  -3  -5   7   -2.06    1.83
   3  -5  -7    2.67    1.76
  -2  -5   7   10.38    2.09
   2  -5  -7    7.27    1.96
  -1  -5   7   -1.57    1.91
   1  -5  -7    0.77    1.70
   0  -5   7   12.12    2.13
   0  -5  -7   10.34    2.07
   1  -5   7   -2.11    1.72
  -1  -5  -7    1.12    1.86
   2  -5   7    5.43    2.03
  -2  -5  -7    0.59    1.83
  -2   5  -7    7.08    1.96
   3  -5   7    1.41    1.88
  -3  -5  -7    1.38    1.90
   3   5   7    1.71    1.96
  -3   5  -7    1.32    1.82
   4  -5   7    5.31    2.04
  -4  -5  -7    0.21    2.06
   4   5   7    2.89    2.16
  -4   5  -7    3.68    2.11
   5  -5   7   -0.16    2.01
  -5  -5  -7    0.25    1.98
  -5   5  -7   -0.63    1.77
   5   5   7   -4.42    2.08
  -6  -5  -7    5.40    2.06
  -6   5  -7    1.86    2.24
   6   5   7    9.81    2.64
  -7  -5  -7    3.54    2.33
  -7   5  -7    4.83    2.40
  -8  -5  -7    2.69    2.47
  -9  -5  -7    2.45    2.68
   6  -6  -7    1.13    3.18
   5  -6  -7    2.15    3.09
   4  -6  -7   -4.81    2.94
   3  -6  -7    6.68    3.28
   2  -6  -7   -4.19    2.79
  -1  -6   7    0.65    4.79
   1  -6  -7    3.00    2.96
   0  -6  -7    0.90    2.75
  -1  -6  -7    2.00    2.84
  -2  -6  -7    3.98    3.05
  -3  -6  -7    2.21    3.45
  18   0  -8    5.18    2.50
  18   0  -8    6.50    3.16
  17   0  -8    1.57    1.96
  17   0  -8   -0.92    1.71
  16   0  -8    1.21    1.66
  16   0  -8    1.04    1.62
  15   0  -8    0.01    1.31
  15   0  -8    0.63    1.23
  14   0  -8   18.93    1.86
  14   0  -8   19.86    1.78
  13   0  -8   -0.72    1.02
  13   0  -8   -0.52    0.89
  12   0  -8   14.21    1.19
  12   0  -8   18.63    1.71
  11   0  -8    0.25    0.81
  11   0  -8   -0.35    0.62
  10   0  -8   41.54    1.35
  10   0  -8   43.35    1.81
   9   0  -8    0.17    0.45
   9   0  -8   -0.03    0.63
   8   0  -8   48.37    1.72
   8   0  -8   47.32    1.12
   7   0  -8    0.24    0.53
   7   0  -8    0.15    0.28
   6   0  -8    6.80    0.34
   6   0  -8    7.84    0.82
   6   0  -8    8.03    0.42
   5   0  -8   -0.15    0.21
   5   0  -8    0.23    0.44
   4   0  -8   44.02    1.40
   4   0  -8   43.00    0.87
   3   0  -8   -0.36    0.25
  -3   0   8   -0.12    0.27
   3   0  -8   -0.38    0.35
  -2   0   8   32.81    0.93
   2   0  -8   32.42    0.92
   2   0  -8   31.44    1.13
   1   0  -8   -0.03    0.32
  -1   0   8   -0.16    0.33
   1   0  -8   -0.12    0.30
   0   0  -8  110.76    2.00
   0   0   8  113.24    1.98
   0   0  -8  113.91    1.96
   1   0   8    0.10    0.34
  -1   0  -8   -0.24    0.29
  -1   0  -8   -0.43    0.31
  -2   0  -8    1.38    0.43
  -2   0  -8    1.09    0.39
   2   0   8    0.60    0.44
  -3   0  -8   -0.18    0.32
  -3   0  -8   -0.14    0.40
   3   0   8   -0.74    0.40
   4   0   8   26.17    1.23
  -4   0  -8   31.50    1.30
  -4   0  -8   28.86    0.91
   5   0   8    0.49    0.62
  -5   0  -8    0.17    0.57
  -5   0  -8    0.02    0.29
  -6   0  -8   87.77    2.30
   6   0   8   84.01    2.29
   7   0   8   -0.45    0.69
  -7   0  -8   -0.54    0.63
  -8   0  -8   12.76    1.29
   8   0   8   12.23    1.24
   9   0   8   -0.83    0.68
   9   0   8    0.41    0.85
  10   0   8   27.54    1.97
  10   0   8   25.18    1.68
  11   0   8    1.66    1.05
  11   0   8    2.18    1.42
  12   0   8    0.85    1.32
  12   0   8    0.53    1.60
  13   0   8   -0.81    1.31
  13   0   8   -0.57    1.42
  14   0   8    5.28    1.74
  14   0   8    5.95    2.01
  15   0   8   -4.01    1.68
  15   0   8   -0.11    2.07
  16   0   8    1.73    2.55
  17   0   8    1.82    2.84
  18   0   8   -0.04    3.27
  18  -1  -8    0.80    2.07
  18  -1  -8   -3.29    2.87
  18   1  -8    8.97    2.74
  17  -1  -8    3.93    1.93
  17  -1  -8    5.58    1.95
  17   1  -8    3.28    1.66
  17   1  -8    3.85    2.23
  16  -1  -8    0.81    1.58
  16  -1  -8   -1.70    1.77
  16   1  -8    1.81    1.32
  16   1  -8    3.40    1.90
  15  -1  -8   -1.61    1.30
  15  -1  -8    1.00    2.35
  15   1  -8    2.06    1.14
  15   1  -8    1.86    1.53
  14  -1  -8   -0.86    1.06
  14  -1  -8   -1.54    1.20
  14   1  -8   -0.97    0.97
  14   1  -8    1.44    1.26
  13  -1  -8   15.54    1.56
  13  -1  -8   16.13    1.62
  13   1  -8   14.66    1.52
  13   1  -8   16.37    1.61
  13   1  -8   19.90    1.89
  12  -1  -8   -0.29    0.90
  12  -1  -8   -0.87    0.71
  12   1  -8    1.23    0.97
  12   1  -8    0.97    0.94
  11  -1  -8    0.49    0.93
  11  -1  -8    0.24    0.67
  11   1  -8    1.88    0.85
  11   1  -8    0.30    0.84
  10  -1  -8    2.17    0.62
  10   1  -8    2.81    0.72
  10   1  -8    1.75    0.84
  -9  -1   8    8.84    0.85
   9  -1  -8    7.17    0.68
   9   1  -8    9.35    0.90
   9   1  -8    7.52    1.02
  -8  -1   8    4.43    0.75
  -8  -1   8    4.31    0.67
   8   1  -8    5.25    0.71
   8   1  -8    4.60    0.91
  -7  -1   8    0.80    0.61
  -7  -1   8    1.29    0.44
   7   1  -8    1.14    0.50
   7   1  -8    1.00    0.61
  -6  -1   8    7.10    0.83
  -6  -1   8    7.30    0.70
   6   1  -8    7.70    0.87
   6   1  -8    6.82    0.63
  -5  -1   8   21.22    0.85
   5  -1  -8   21.33    0.55
  -5  -1   8   22.23    1.15
   5   1  -8   21.81    1.18
   4  -1  -8    2.88    0.26
  -4  -1   8    2.92    0.56
  -4  -1   8    3.60    0.48
  -4   1   8    4.13    0.43
   4   1  -8    3.09    0.64
   3  -1  -8  225.66    2.26
  -3  -1   8  233.42    2.86
  -3  -1   8  233.10    3.43
  -3   1   8  231.15    2.64
   3   1  -8  225.64    3.11
   3   1  -8  229.55    3.47
   2  -1  -8   29.52    0.71
  -2  -1   8   29.12    1.18
   2   1  -8   28.78    1.21
   2   1  -8   31.45    1.13
  -2   1   8   30.45    0.76
  -2   1   8   29.89    0.94
   1  -1  -8    1.26    0.32
  -1  -1   8    1.30    0.46
   1   1  -8    1.54    0.47
   1   1  -8    0.94    0.43
  -1   1   8    1.42    0.33
  -1   1   8    2.11    0.44
   0  -1   8   47.35    1.36
   0  -1  -8   45.36    1.09
   0   1   8   47.46    1.12
   0   1   8   45.77    1.29
   0   1  -8   45.57    1.37
   1  -1   8  132.54    2.47
  -1  -1  -8  129.04    2.05
   1  -1   8  131.74    2.30
  -1   1  -8  133.94    2.45
   1   1   8  131.62    2.10
   1   1   8  127.60    2.31
   2  -1   8    0.40    0.38
   2  -1   8   -0.17    0.46
   2   1   8    0.80    0.38
  -2   1  -8    0.31    0.41
   2   1   8    0.04    0.43
   3  -1   8    0.94    0.43
   3  -1   8    1.24    0.57
   3   1   8   -0.03    0.47
   3   1   8    1.18    0.48
  -3   1  -8    0.90    0.47
   4  -1   8    2.99    0.71
   4  -1   8    2.95    0.50
   4   1   8    2.75    0.63
   4   1   8    4.16    0.68
  -4   1  -8    2.94    0.65
   5  -1   8   54.35    1.39
   5  -1   8   57.53    1.93
   5   1   8   56.50    1.88
   5   1   8   56.38    1.75
  -5   1  -8   54.36    1.82
   6  -1   8    9.12    1.13
   6  -1   8    7.55    0.72
  -6  -1  -8    8.33    0.59
   6   1   8    9.23    1.08
  -6   1  -8   10.85    1.16
   6   1   8    7.99    0.91
  -7  -1  -8    7.48    0.53
   7  -1   8    7.48    1.11
   7  -1   8    8.17    0.71
   7   1   8    7.91    1.06
  -7   1  -8    5.77    0.94
   7   1   8    7.34    1.08
   8  -1   8   17.07    0.89
   8  -1   8   15.28    1.54
   8   1   8   16.66    1.72
   8   1   8   17.13    1.53
  -8   1  -8   17.80    1.48
   9  -1   8   15.77    1.57
   9  -1   8   15.94    0.84
   9   1   8   18.17    1.62
   9   1   8   19.13    1.70
  -9   1  -8   14.52    1.56
  10  -1   8   16.72    1.83
  10  -1   8   15.02    0.84
  10   1   8   16.98    1.80
 -10   1  -8   16.72    1.73
  10   1   8   18.74    1.81
  11  -1   8   37.51    4.01
  11  -1   8   39.86    0.99
 -11   1  -8   42.87    2.43
  11   1   8   38.33    2.46
  12  -1   8    2.14    1.36
 -12   1  -8    0.84    1.25
  12   1   8    2.28    1.39
  13  -1   8    0.09    1.57
 -13   1  -8    2.92    1.45
  13   1   8    3.90    1.79
  13   1   8   -1.51    1.58
  14  -1   8    1.19    1.79
  14   1   8    1.35    1.77
  14   1   8   -1.40    1.78
  15  -1   8   11.73    2.07
  15  -1   8   15.16    2.59
  15   1   8   15.05    2.39
  15   1   8   15.54    2.57
  16  -1   8    1.52    2.30
  16   1   8    0.74    2.55
  17  -1   8    1.00    2.72
  17   1   8   -0.40    2.84
  18  -1   8    2.61    3.28
  18   1   8    4.25    3.43
  18  -2  -8   -3.00    2.40
  18   2  -8   -0.78    3.35
  17  -2  -8    0.71    2.09
  17  -2  -8   -4.16    2.00
  17   2  -8   -0.79    2.22
  17   2  -8   -2.31    2.65
  16  -2  -8    0.88    1.74
  16  -2  -8   -3.10    1.83
  16   2  -8    2.07    2.36
  16   2  -8   -2.37    1.65
  15   2  -8    3.07    2.01
  15   2  -8    0.31    1.52
  14   2  -8   12.79    1.95
  13   2  -8    2.59    1.50
 -12  -2   8    1.99    1.09
 -12  -2   8    0.63    1.10
  12   2  -8    1.49    2.42
 -11  -2   8    3.07    1.05
 -11  -2   8    0.97    1.06
  11   2  -8    2.47    1.13
 -10  -2   8   21.19    2.05
 -10  -2   8   20.14    1.59
  10   2  -8   19.78    1.72
  -9  -2   8   11.80    1.19
  -9  -2   8   12.79    1.28
   9   2  -8   13.34    1.34
  -8  -2   8   77.49    2.33
  -8  -2   8   78.74    2.17
   8   2  -8   77.60    2.23
  -8   2   8   77.58    1.22
  -7  -2   8   17.13    1.42
   7  -2  -8   17.43    1.03
  -7  -2   8   18.52    1.29
   7   2  -8   16.07    1.27
  -7   2   8   16.17    0.76
  -6  -2   8   11.29    1.07
  -6  -2   8   12.35    1.17
   6  -2  -8   12.79    0.97
  -5  -2   8    5.16    0.78
  -5  -2   8    6.41    0.85
   5  -2  -8    5.59    0.68
   4  -2  -8    1.04    0.48
  -4  -2   8    2.49    0.68
  -4  -2   8    1.35    0.64
  -3  -2   8   53.51    1.65
  -3  -2   8   53.34    1.80
   3  -2  -8   49.81    1.35
  -2  -2   8   51.62    1.76
  -2  -2   8   51.72    1.63
   2  -2  -8   50.69    1.39
  -2   2   8   50.00    1.40
  -1  -2   8   41.54    1.56
   1  -2  -8   41.92    1.32
   1   2  -8   43.58    1.63
  -1   2   8   41.93    1.36
   0  -2  -8   18.27    1.03
   0  -2   8   18.33    1.17
   0   2  -8   18.99    1.22
   0   2   8   19.91    1.05
  -1  -2  -8  109.74    2.19
   1  -2   8  108.99    2.42
  -1   2  -8  111.89    2.55
   1   2   8  111.21    2.29
  -2  -2  -8   11.48    1.01
   2   2   8   13.22    1.05
  -2   2  -8   12.15    1.16
  -3  -2  -8    9.42    0.97
  -3   2  -8    8.14    1.02
   3   2   8    7.88    0.89
  -4  -2  -8   10.88    1.07
   4   2   8    9.38    1.10
  -4   2  -8    8.53    1.05
  -5  -2  -8   12.25    1.23
  -5   2  -8   13.05    1.32
   5   2   8   15.07    1.36
  -6  -2  -8    5.15    0.91
  -6   2  -8    5.96    0.98
   6   2   8    5.42    1.00
   6   2   8    5.49    1.10
   7  -2   8   24.16    1.83
  -7  -2  -8   23.31    1.61
   7   2   8   22.48    1.64
  -7   2  -8   24.14    1.78
   7   2   8   22.48    1.80
   8  -2   8   -0.91    0.98
   8   2   8   -0.70    0.96
   8   2   8   -0.78    0.94
  -8   2  -8   -0.59    0.91
   9  -2   8    1.23    1.15
  -9   2  -8    0.20    0.96
   9   2   8    2.34    1.16
   9   2   8    2.45    1.06
  10  -2   8    8.47    1.55
 -10   2  -8    3.76    1.27
  10   2   8    5.21    1.28
  11  -2   8    7.89    1.75
  11   2   8    3.29    1.55
 -11   2  -8    3.44    1.30
  12  -2   8    1.11    0.84
  12  -2   8    1.00    1.68
 -12   2  -8   -0.61    1.42
  12   2   8   -2.22    1.49
  13  -2   8    0.10    0.91
  13  -2   8    2.78    1.88
  13   2   8    5.38    2.03
  13   2   8    0.17    1.90
  14  -2   8    9.35    2.30
  14  -2   8    6.21    1.05
  14   2   8    9.98    2.51
 -14   2  -8    4.24    2.08
  14   2   8    5.38    2.33
  15  -2   8    3.20    0.88
  15  -2   8    4.77    2.47
  15   2   8    6.27    2.53
 -15   2  -8    8.39    2.36
  16  -2   8   -0.74    2.74
  16   2   8    1.22    2.93
 -16   2  -8    8.51    2.56
  17  -2   8    3.51    3.22
  17   2   8    9.17    3.53
  16   3  -8   -4.21    3.10
 -15  -3   8    3.65    2.27
  15   3  -8   -0.02    2.59
 -14  -3   8   -1.04    1.91
 -14  -3   8   -1.23    1.70
  14   3  -8   -0.58    2.19
 -13  -3   8    1.00    1.65
 -13  -3   8   -1.87    1.65
  13   3  -8   -0.83    1.93
 -12  -3   8    2.68    1.56
 -12  -3   8    5.90    1.74
 -12   3   8    3.07    0.78
  12   3  -8    4.26    1.75
 -11  -3   8    3.69    1.40
 -11  -3   8    3.34    1.42
  11   3  -8    2.81    1.62
 -11   3   8    3.95    0.83
  10  -3  -8    6.76    1.29
 -10  -3   8    4.07    1.97
 -10  -3   8    4.29    1.38
  10   3  -8    3.83    1.42
 -10   3   8    4.46    0.84
   9  -3  -8    1.49    1.00
  -9  -3   8   -0.48    1.09
  -9  -3   8    0.84    1.23
   9   3  -8   -2.44    1.13
  -9   3   8   -0.28    0.72
  -8  -3   8    1.10    1.12
   8  -3  -8   -0.11    0.91
  -8  -3   8   -0.02    1.10
  -8   3   8   -0.27    0.74
   8   3  -8   -0.23    1.13
  -7  -3   8   -1.70    0.84
  -7  -3   8    0.47    1.02
   7  -3  -8   -0.38    0.87
  -6  -3   8    7.64    1.23
  -6  -3   8    6.25    1.15
   6  -3  -8    6.37    1.01
  -5  -3   8    1.63    0.95
  -5  -3   8    0.78    0.91
   5  -3  -8    0.62    0.84
  -4  -3   8   32.98    1.85
   4  -3  -8   34.91    1.69
  -4  -3   8   38.40    1.88
  -3  -3   8    4.23    0.96
  -3  -3   8    5.73    1.05
   3  -3  -8    4.49    0.89
  -2  -3   8   11.94    1.36
   2  -3  -8   11.22    1.18
  -1  -3   8    0.49    0.77
   1  -3  -8   -0.52    0.72
  -1   3   8   -0.81    0.71
   0  -3  -8   13.37    1.26
   0  -3   8   11.17    1.22
   0   3   8   12.69    1.26
  -1  -3  -8    8.53    1.05
  -1   3  -8    6.90    1.10
   1   3   8    8.09    1.11
  -2  -3  -8   46.33    1.92
  -2   3  -8   48.00    2.16
   2   3   8   48.18    2.04
  -3  -3  -8    8.10    1.14
  -3   3  -8    7.49    1.21
   3   3   8    8.77    1.22
  -4  -3  -8   85.23    2.62
  -4   3  -8   80.58    2.70
   4   3   8   84.81    2.72
  -5  -3  -8    8.42    1.27
   5   3   8    7.70    1.20
  -5   3  -8    7.25    1.30
   6   3   8   25.99    1.98
  -6   3  -8   23.27    1.85
  -7  -3  -8    3.08    1.16
   7   3   8   -0.78    1.05
  -7   3  -8   -0.38    1.04
  -8  -3  -8    6.22    1.40
  -8   3  -8    4.58    1.31
   8   3   8    2.29    1.25
  -9  -3  -8    0.20    1.24
  -9   3  -8    1.92    1.37
 -10  -3  -8    5.41    1.62
  10   3   8    6.11    1.81
  11   3   8    2.17    1.63
  12   3   8    4.29    2.12
 -12   3  -8    2.72    1.89
  12   3   8    0.43    1.94
 -13   3  -8    2.18    2.13
  13   3   8    2.51    2.26
  14   3   8    0.28    2.68
 -14   3  -8   -2.29    2.23
  15   3   8    0.35    2.97
 -15   3  -8    3.22    3.09
 -14  -4   8   10.19    2.94
  14  -4  -8    7.45    2.63
 -14  -4   8   -2.47    2.49
  13  -4  -8   10.04    2.35
 -13  -4   8    5.93    2.48
 -13  -4   8    4.55    2.30
  13   4  -8    1.49    2.82
 -12  -4   8   -6.13    1.96
 -12  -4   8    3.87    2.34
  12  -4  -8    4.74    2.01
 -12   4   8   -1.54    1.34
  12   4  -8   -2.51    2.39
 -11  -4   8    1.86    2.01
 -11  -4   8    1.87    1.89
  11  -4  -8    0.71    1.93
  11   4  -8    1.40    2.36
 -11   4   8    3.80    1.38
 -10  -4   8    0.69    1.75
 -10  -4   8    0.10    1.73
  10  -4  -8    0.87    1.98
 -10   4   8   -0.25    1.28
   9  -4  -8    5.37    1.73
  -9  -4   8    4.96    1.76
  -9   4   8    8.70    1.47
  -8  -4   8    4.59    1.70
   8  -4  -8    2.73    1.52
  -7  -4   8   17.28    2.02
   7  -4  -8   13.30    1.74
   6  -4  -8   14.83    1.75
  -6  -4   8   10.57    1.69
   5  -4  -8    6.44    1.48
  -5  -4   8    6.34    1.48
  -5  -4   8    3.70    1.82
  -4  -4   8   -0.61    1.23
   4  -4  -8    2.12    1.17
  -4  -4   8    0.40    1.20
  -3  -4   8   14.76    1.79
   3  -4  -8   16.26    1.69
   2  -4  -8    0.71    1.20
  -2  -4   8    0.60    1.18
   1  -4  -8   10.48    1.50
  -1  -4   8   11.25    1.84
   0  -4  -8    1.08    1.19
   0  -4   8    0.23    1.18
   1  -4   8   21.01    2.12
  -1  -4  -8   16.31    2.66
   1   4   8   15.80    1.75
   2  -4   8    4.77    1.35
  -2  -4  -8    3.82    1.36
   2   4   8    3.71    1.34
  -3  -4  -8    2.69    1.18
   3   4   8    0.23    1.30
  -4  -4  -8    2.28    1.36
   4   4   8    1.41    1.39
  -5  -4  -8    5.15    1.43
  -6  -4  -8    1.53    1.48
  -7  -4  -8    2.43    1.63
   7   4   8    0.59    1.81
  -7   4  -8    1.66    1.54
  -8  -4  -8    1.24    1.74
  -8   4  -8    0.26    1.79
   8   4   8    0.91    1.88
  -9  -4  -8    3.30    1.80
  -9   4  -8    0.01    1.88
   9   4   8    1.82    2.15
 -10  -4  -8    1.19    1.94
  10   4   8   -1.35    2.26
 -10   4  -8    0.57    1.87
 -11  -4  -8    1.98    2.34
 -11   4  -8    3.53    2.31
 -12  -4  -8    2.62    2.38
  12   4   8   -2.21    2.80
 -12   4  -8   10.18    2.95
  11  -5  -8   -3.73    2.92
 -11  -5   8    5.11    3.12
  10  -5  -8    5.49    2.85
 -10  -5   8    4.88    3.01
   9  -5  -8    0.41    2.50
  -9  -5   8    3.90    2.58
  -9   5   8   -0.14    2.15
  -8  -5   8    6.12    2.63
  -8  -5   8    0.42    2.49
   8  -5  -8    1.67    2.33
  -7  -5   8    0.18    2.26
  -7  -5   8    4.47    2.36
   7  -5  -8    4.07    2.25
  -6  -5   8   -2.10    2.13
   6  -5  -8   -0.60    1.98
  -6  -5   8   -0.97    2.22
   5  -5  -8    1.53    1.86
  -5  -5   8   -1.80    2.01
  -5  -5   8    5.88    2.04
  -4  -5   8    6.61    2.20
   4  -5  -8    1.76    1.85
   3  -5  -8   -0.04    1.76
  -3  -5   8   -2.20    2.00
  -2  -5   8    1.98    1.90
   2  -5  -8    2.89    1.85
  -1  -5   8    4.86    2.13
   1  -5  -8    4.07    1.85
   0  -5  -8    2.10    1.73
   0  -5   8   -2.20    1.82
  -1  -5  -8    2.03    1.76
   1  -5   8    2.60    2.01
  -2  -5  -8    0.05    1.77
   2  -5   8   -2.19    1.96
  -2   5  -8    0.73    1.89
  -3  -5  -8   11.18    2.26
   3  -5   8   11.96    2.15
  -3   5  -8   12.53    2.31
   3   5   8    7.18    2.27
  -4  -5  -8    0.30    1.97
   4  -5   8    1.88    1.94
  -4   5  -8    1.73    2.09
   4   5   8    0.59    2.32
  -5  -5  -8    0.83    1.99
   5  -5   8    0.59    2.08
   5   5   8   -1.19    2.27
  -5   5  -8    3.36    2.29
  -6  -5  -8    0.67    2.27
  -6   5  -8    1.96    3.02
  -7  -5  -8    8.50    2.72
  -8  -5  -8    2.59    2.38
  -9  -5  -8    0.34    3.22
   6  -6  -8    2.15    3.25
   5  -6  -8   -2.41    3.04
   4  -6  -8    0.06    3.16
   3  -6  -8    2.14    2.97
   2  -6  -8    8.19    3.18
   1  -6  -8   -1.36    2.96
   0  -6  -8   -1.37    2.89
  -1  -6  -8    2.78    2.87
  -2  -6  -8    6.18    3.09
  18   0  -9   -0.63    2.08
  17   0  -9    3.04    1.99
  17   0  -9    3.52    1.94
  16   0  -9   -0.66    1.57
  16   0  -9    0.65    1.66
  15   0  -9    3.88    1.56
  15   0  -9    2.51    1.38
  14   0  -9   -0.06    1.06
  14   0  -9    0.47    1.24
  13   0  -9    8.17    1.15
  13   0  -9    7.30    1.32
  12   0  -9    0.64    1.01
  12   0  -9   -0.27    0.77
  11   0  -9   45.95    2.11
  11   0  -9   42.10    1.48
  10   0  -9    0.32    0.54
  10   0  -9   -0.42    0.71
   9   0  -9    8.79    0.75
   9   0  -9   10.05    1.14
   8   0  -9   -0.10    0.56
   8   0  -9    0.02    0.34
   7   0  -9   41.27    1.62
   7   0  -9   40.51    0.79
   6   0  -9    0.07    0.23
   6   0  -9    0.44    0.55
   5   0  -9   27.16    0.72
   5   0  -9   28.31    1.29
   4   0  -9   -0.01    0.25
   4   0  -9    0.16    0.45
  -3   0   9   43.09    0.61
  -3   0   9   46.07    1.12
   3   0  -9   44.62    1.06
   3   0  -9   46.59    1.47
   2   0  -9   -0.13    0.32
   2   0  -9    0.48    0.40
  -2   0   9    0.28    0.36
   1   0  -9  124.75    2.29
  -1   0   9  126.89    2.10
   1   0  -9  124.42    2.09
   0   0  -9   -0.83    0.29
   0   0  -9   -0.19    0.36
   0   0   9    0.13    0.39
  -1   0  -9   -0.11    0.38
   1   0   9   -0.45    0.39
  -1   0  -9   -0.19    0.35
  -2   0  -9   -0.27    0.33
  -2   0  -9    0.04    0.45
   2   0   9    0.07    0.46
  -3   0  -9   20.21    1.13
  -3   0  -9   21.32    0.92
   3   0   9   22.84    1.22
  -4   0  -9   -0.20    0.42
  -4   0  -9   -0.46    0.30
   4   0   9    0.18    0.54
   5   0   9   10.75    1.14
  -5   0  -9    7.80    0.91
  -5   0  -9    9.21    0.68
  -6   0  -9   -0.07    0.63
   6   0   9    0.70    0.69
  -7   0  -9    1.96    0.72
   7   0   9    1.58    0.80
   8   0   9    0.16    0.83
  -8   0  -9   -0.04    0.69
  -9   0  -9   27.27    1.77
   9   0   9   24.59    1.70
   9   0   9   25.58    1.83
  10   0   9   -0.60    0.90
 -10   0  -9    0.37    0.86
  10   0   9    1.18    1.01
  11   0   9    1.95    1.20
  12   0   9    1.69    1.45
  13   0   9    5.65    1.76
  14   0   9   -0.70    1.59
  14   0   9   -2.00    1.88
  15   0   9    2.39    2.29
  15   0   9   -1.90    1.70
  16   0   9    2.42    2.66
  17   0   9   10.67    3.30
  18   0   9   -0.40    3.46
  18  -1  -9   -0.18    2.17
  18   1  -9    3.83    3.74
  17  -1  -9    0.03    1.92
  17  -1  -9    0.12    1.76
  17   1  -9   -0.16    1.48
  17   1  -9   -0.10    2.15
  16  -1  -9   10.40    1.75
  16  -1  -9    6.36    1.85
  16   1  -9   10.21    1.38
  16   1  -9    6.80    1.97
  15  -1  -9    1.77    1.38
  15  -1  -9    1.16    1.27
  15   1  -9    0.75    1.11
  15   1  -9    1.44    1.77
  14  -1  -9    2.08    1.12
  14  -1  -9    0.94    1.26
  14   1  -9    0.64    0.96
  14   1  -9    1.28    1.27
  14   1  -9    0.49    1.36
  13  -1  -9    0.80    0.93
  13  -1  -9    0.03    1.15
  13   1  -9    1.50    1.15
  13   1  -9    0.88    0.88
  13   1  -9    3.22    1.32
  12  -1  -9    1.96    0.84
  12  -1  -9    4.37    1.16
  12   1  -9    2.86    1.12
  12   1  -9    4.00    1.06
  11  -1  -9    1.68    1.03
  11  -1  -9    3.51    0.71
  11   1  -9    1.98    1.00
  11   1  -9    5.00    0.95
  10  -1  -9   51.85    1.36
  10   1  -9   53.40    1.73
  10   1  -9   54.38    2.17
  -9  -1   9   -0.76    0.54
   9  -1  -9   -0.11    0.38
   9   1  -9   -0.91    0.71
   9   1  -9    0.48    0.63
  -8  -1   9    2.38    0.69
   8  -1  -9    0.75    0.36
  -8  -1   9    2.00    0.54
   8   1  -9    0.82    0.54
   8   1  -9    1.02    0.71
  -7  -1   9    0.34    0.44
  -7  -1   9   -0.80    0.54
   7  -1  -9   -0.40    0.25
   7   1  -9   -0.07    0.41
   7   1  -9   -0.56    0.59
  -6  -1   9   41.95    1.15
  -6  -1   9   44.18    1.63
   6  -1  -9   42.70    0.68
   6   1  -9   42.57    1.68
  -5  -1   9    2.25    0.56
  -5  -1   9    1.42    0.40
  -5   1   9    1.30    0.26
   5   1  -9    0.55    0.54
  -4  -1   9   -0.34    0.43
  -4  -1   9    0.39    0.38
   4  -1  -9    0.50    0.18
  -4   1   9    0.33    0.31
   4   1  -9    0.46    0.44
   4   1  -9   -0.06    0.46
  -3  -1   9    2.24    0.43
  -3  -1   9    2.57    0.56
   3  -1  -9    3.04    0.29
  -3   1   9    2.79    0.44
   3   1  -9    2.53    0.54
   3   1  -9    2.89    0.65
  -2  -1   9  228.46    3.48
   2  -1  -9  234.49    2.48
  -2   1   9  230.46    2.94
   2   1  -9  232.31    3.56
   2   1  -9  235.35    3.29
  -2   1   9  229.14    2.52
   1  -1  -9    9.36    0.58
  -1  -1   9    9.30    0.81
   1   1  -9    8.64    0.78
  -1   1   9    8.71    0.79
   1   1  -9    9.80    0.86
  -1   1   9   10.51    0.63
   0  -1   9   28.62    1.26
   0  -1   9   28.38    1.18
   0   1  -9   30.28    1.27
   0   1   9   29.83    0.95
   0   1  -9   27.85    1.19
   0   1   9   28.59    1.17
   1  -1   9    2.19    0.66
   1  -1   9    2.53    0.53
   1   1   9    3.08    0.48
  -1   1  -9    3.21    0.62
   1   1   9    2.64    0.59
   2  -1   9   26.28    1.32
   2  -1   9   27.59    1.12
  -2   1  -9   27.30    1.26
   2   1   9   27.96    1.10
   2   1   9   27.91    1.27
   3  -1   9   11.93    1.09
   3  -1   9   12.73    0.87
   3   1   9   11.29    1.08
  -3   1  -9   12.02    1.02
   3   1   9   12.13    0.92
   4  -1   9   55.61    1.90
   4  -1   9   56.99    1.51
   4   1   9   61.26    1.76
  -4   1  -9   59.85    1.88
   4   1   9   57.70    1.92
   5  -1   9   32.53    1.64
   5  -1   9   34.16    1.20
   5   1   9   34.46    1.49
   5   1   9   34.02    1.63
  -5   1  -9   34.93    1.59
   6  -1   9   -0.25    0.63
   6  -1   9    0.33    0.46
  -6  -1  -9   -0.41    0.34
  -6   1  -9   -0.50    0.55
   6   1   9    0.30    0.66
   6   1   9    0.42    0.73
   7  -1   9    7.29    1.12
  -7  -1  -9    5.78    0.60
   7  -1   9    7.22    0.71
   7   1   9    7.17    1.09
  -7   1  -9    7.39    1.02
   7   1   9    6.36    1.01
   8  -1   9   17.49    1.67
  -8  -1  -9   19.68    0.68
   8  -1   9   18.96    0.96
  -8   1  -9   19.89    1.62
   8   1   9   21.07    1.72
   8   1   9   19.67    1.52
   9  -1   9   23.44    1.02
   9  -1   9   22.46    1.92
   9   1   9   26.47    1.94
   9   1   9   23.56    1.79
  -9   1  -9   21.54    1.80
  10  -1   9   17.00    2.54
  10  -1   9   14.63    0.87
  10   1   9   12.22    1.85
 -10   1  -9   17.92    1.89
  10   1   9   14.89    1.65
  11  -1   9   16.32    1.85
  11  -1   9   17.69    0.83
 -11   1  -9   17.39    1.81
  11   1   9   16.72    1.86
  12  -1   9   28.19    2.51
 -12   1  -9   25.05    2.39
  12   1   9   28.05    2.69
  13  -1   9   10.97    2.12
  13   1   9   13.11    2.15
  14  -1   9    1.44    2.00
  14   1   9   -1.05    1.86
 -14   1  -9    1.43    1.74
  14   1   9    0.74    1.94
  15  -1   9    1.82    2.21
  15  -1   9    1.22    2.06
  15   1   9    3.62    2.35
  15   1   9   -1.06    2.85
  16  -1   9    2.59    2.53
  16   1   9   -0.54    2.53
  17  -1   9    3.36    2.98
  17   1   9    0.20    3.10
  18  -1   9    7.62    3.63
  18   1   9    5.58    4.17
  18  -2  -9   -2.75    2.44
  17  -2  -9   -3.51    2.22
  17   2  -9   -4.44    2.08
  17   2  -9    5.47    2.85
  16  -2  -9   -0.54    1.72
  16  -2  -9    2.07    1.96
  16   2  -9   -1.64    1.73
  16   2  -9    0.50    2.30
  15  -2  -9    4.20    1.50
  15   2  -9    5.64    2.11
  14  -2  -9    4.28    1.27
  14   2  -9    5.93    1.76
  13   2  -9    2.46    1.41
 -12  -2   9    3.55    1.20
 -12  -2   9    0.28    1.16
  12   2  -9    1.21    1.34
 -11  -2   9    0.24    0.97
 -11  -2   9   -0.70    1.02
  11   2  -9   -0.38    1.06
 -10  -2   9    0.88    0.84
 -10  -2   9   -0.10    0.89
  10   2  -9   -0.56    0.97
  -9  -2   9   -0.83    0.85
  -9  -2   9    0.60    0.81
   9   2  -9    0.09    0.82
  -8  -2   9    1.38    0.72
  -8  -2   9    1.56    0.95
   8  -2  -9    2.26    0.63
   8   2  -9    1.07    0.76
   7  -2  -9   40.34    1.31
  -7  -2   9   39.09    1.81
  -7  -2   9   37.84    1.59
  -6  -2   9    7.86    0.91
   6  -2  -9    8.10    0.74
  -6  -2   9    6.38    0.97
   5  -2  -9   41.53    1.23
  -5  -2   9   42.04    1.54
  -5  -2   9   41.43    1.73
  -4  -2   9    0.55    0.56
  -4  -2   9   -0.11    0.54
   4  -2  -9   -1.08    0.42
   3  -2  -9    2.56    0.52
  -3  -2   9    1.32    0.64
  -3  -2   9    1.64    0.70
   2  -2  -9    0.51    0.49
  -2  -2   9    0.75    0.62
  -2  -2   9    0.66    0.56
   2   2  -9   -0.09    0.65
  -2   2   9   -0.09    0.42
   1  -2  -9   22.92    1.09
  -1  -2   9   24.53    1.32
   1   2  -9   25.21    1.39
  -1   2   9   24.06    1.12
   0  -2   9    6.31    0.81
   0  -2  -9    6.75    0.72
   0   2  -9    7.09    0.87
   0   2   9    6.64    0.80
   1  -2   9   -0.43    0.51
  -1  -2  -9    1.13    0.54
   1   2   9   -0.27    0.51
  -1   2  -9   -0.64    0.58
   2  -2   9   51.46    1.76
  -2  -2  -9   54.40    1.67
  -2   2  -9   50.43    1.86
   2   2   9   50.21    1.70
  -3  -2  -9   30.16    1.42
   3  -2   9   27.05    1.40
  -3   2  -9   29.72    1.56
   3   2   9   26.77    1.43
  -4  -2  -9   17.96    1.33
   4  -2   9   17.22    1.26
   4   2   9   19.22    1.47
  -4   2  -9   14.69    1.34
   4   2   9   16.73    1.34
  -5  -2  -9    0.10    0.76
   5  -2   9    0.63    0.69
   5   2   9    1.06    0.86
   5   2   9    0.48    0.79
  -5   2  -9    0.96    0.65
   6  -2   9    6.55    0.91
  -6  -2  -9    5.99    1.07
   6  -2   9    6.57    1.19
   6   2   9    4.40    1.05
  -6   2  -9    5.51    1.10
   6   2   9    4.61    1.12
   7  -2   9    4.89    1.23
   7  -2   9    5.90    0.87
   7   2   9    4.75    1.12
   7   2   9    6.20    1.11
  -7   2  -9    4.93    1.14
   8  -2   9   34.35    2.28
   8  -2   9   34.03    1.63
  -8   2  -9   33.90    2.02
   8   2   9   27.15    2.70
   8   2   9   31.58    1.99
   9  -2   9   19.31    1.46
   9  -2   9   16.58    1.76
  -9   2  -9   20.05    1.88
   9   2   9   21.43    1.91
   9   2   9   18.08    1.96
  10  -2   9    7.53    1.00
  10  -2   9    7.46    1.71
  10   2   9    7.20    1.58
 -10   2  -9    6.98    1.46
  11  -2   9    8.30    1.11
  11  -2   9    6.90    1.64
 -11   2  -9    4.94    1.48
  11   2   9    8.65    1.88
  12  -2   9    8.48    1.10
  12  -2   9    6.63    1.96
  12   2   9    8.26    1.89
  13  -2   9    6.73    1.06
  13  -2   9    5.77    2.03
 -13   2  -9    7.62    2.07
  13   2   9    8.33    2.17
  13   2   9   10.78    2.24
  14  -2   9    6.00    2.38
  14  -2   9    2.77    0.93
  14   2   9    7.14    2.45
 -14   2  -9    5.84    2.23
  14   2   9    3.92    2.65
  15  -2   9    1.64    1.16
  15  -2   9   -0.40    2.49
  15   2   9    3.43    2.68
 -15   2  -9    2.66    2.32
  16  -2   9    4.40    3.04
 -16   2  -9    4.28    4.33
  16   2   9    5.46    3.02
  17  -2   9    5.74    3.55
  16   3  -9    0.26    3.11
  15   3  -9    3.36    2.72
 -14  -3   9   -1.12    2.05
  14   3  -9    7.42    2.35
 -13  -3   9    1.00    1.93
 -13  -3   9    0.42    1.80
  13   3  -9    2.22    1.96
 -12  -3   9    2.25    1.58
 -12  -3   9   -1.74    1.49
  12   3  -9   -2.05    1.65
  11  -3  -9    6.37    1.37
 -11  -3   9    9.47    1.67
 -11  -3   9    6.33    1.49
  11   3  -9    4.09    1.70
 -11   3   9    4.74    0.70
 -10  -3   9    2.00    1.24
  10  -3  -9    1.38    1.13
 -10  -3   9    0.33    1.36
  10   3  -9   -1.36    1.32
 -10   3   9    0.15    0.70
  -9  -3   9   19.25    1.94
   9  -3  -9   16.37    1.48
  -9  -3   9   16.72    1.76
  -9   3   9   13.29    1.19
   8  -3  -9    8.68    1.24
  -8  -3   9   10.06    1.57
  -8  -3   9    7.63    1.33
  -7  -3   9   13.14    1.45
  -7  -3   9   11.65    1.54
   7  -3  -9   10.31    1.24
  -6  -3   9    6.77    1.20
   6  -3  -9    8.99    1.11
  -6  -3   9    9.65    1.37
   5  -3  -9   10.16    1.11
  -5  -3   9    9.11    1.22
  -5  -3   9   10.08    1.26
  -4  -3   9    8.45    1.16
  -4  -3   9    7.92    1.24
   4  -3  -9    7.25    1.03
  -3  -3   9   24.04    1.73
   3  -3  -9   23.82    1.51
  -3  -3   9   22.64    1.70
  -2  -3   9   11.51    1.32
  -2  -3   9   12.18    1.35
   2  -3  -9   10.92    1.16
  -1  -3   9   29.28    1.74
   1  -3  -9   25.14    1.53
  -1  -3   9   29.26    1.78
  -1   3   9   26.84    1.56
   0  -3  -9    3.20    0.85
   0   3  -9    2.85    0.98
   0   3   9    5.05    0.99
  -1  -3  -9    4.62    0.94
   1   3   9    3.85    0.99
  -1   3  -9    4.44    0.98
  -2  -3  -9    9.76    1.16
   2   3   9    7.03    1.14
  -2   3  -9    8.85    1.29
  -3  -3  -9   12.89    1.35
  -3   3  -9    7.35    1.15
   3   3   9   10.27    1.53
  -4  -3  -9   19.40    1.70
  -4   3  -9   20.06    1.77
   4   3   9   20.33    1.79
  -5  -3  -9   47.93    2.25
  -5   3  -9   51.15    2.35
   5   3   9   49.08    2.36
  -6  -3  -9    2.39    1.18
   6   3   9    2.44    1.16
  -6   3  -9    1.38    1.12
  -7  -3  -9   18.34    1.82
   7   3   9   19.60    1.93
  -7   3  -9   13.54    1.58
  -8  -3  -9    4.10    1.31
  -8   3  -9    3.86    1.38
   8   3   9    4.45    1.60
  -9  -3  -9    9.16    1.73
   9   3   9    8.19    1.75
  10   3   9    2.40    1.68
  10   3   9    0.09    1.86
  11   3   9   -1.02    1.88
 -11   3  -9    0.83    1.77
  11   3   9   -0.82    1.96
  12   3   9    0.76    2.26
 -12   3  -9   -1.32    1.96
  12   3   9    2.54    2.21
  13   3   9    8.11    2.79
 -13   3  -9    4.77    2.29
  14  -3   9    0.90    2.27
 -14   3  -9   -3.96    2.62
  14   3   9    2.58    2.88
  15   3   9    2.80    3.99
 -14  -4   9    9.57    2.98
  14  -4  -9    8.59    2.74
 -14  -4   9   10.15    2.87
 -13  -4   9   -1.76    2.35
 -13  -4   9    5.91    2.61
  13  -4  -9   -0.06    2.30
  13   4  -9    1.75    3.04
  12  -4  -9    9.02    2.27
 -12  -4   9   12.82    2.49
 -12  -4   9    7.87    2.28
 -11  -4   9    0.86    1.96
 -11  -4   9   -1.29    1.86
  11  -4  -9    0.87    2.00
 -11   4   9    0.97    1.32
 -10  -4   9    5.61    2.11
 -10  -4   9    6.20    2.00
  10  -4  -9    7.18    1.96
 -10   4   9    6.52    1.43
   9  -4  -9    1.12    1.49
  -9  -4   9   -2.46    1.64
  -9  -4   9    0.93    1.72
  -9   4   9    0.25    1.28
   8  -4  -9    1.03    1.51
  -8  -4   9    2.95    1.73
  -8  -4   9    2.78    1.68
   7  -4  -9    1.99    1.48
  -7  -4   9    3.87    1.54
   6  -4  -9   13.29    1.66
  -6  -4   9   11.33    1.70
  -5  -4   9    3.22    1.42
   5  -4  -9    4.86    1.39
   4  -4  -9   -0.93    1.18
  -4  -4   9    0.78    1.39
  -3  -4   9   -0.18    1.30
   3  -4  -9    0.99    1.21
  -2  -4   9    8.18    1.63
   2  -4  -9    7.09    1.43
   1  -4  -9    2.20    1.18
  -1  -4   9    3.19    1.37
   0  -4  -9    5.72    1.39
   0  -4   9    5.02    1.46
   1  -4   9    1.79    1.21
  -1  -4  -9    0.54    1.32
   1   4   9    0.04    1.23
  -2  -4  -9    5.46    1.45
   2  -4   9    5.08    1.47
   2   4   9    6.24    1.58
  -3  -4  -9    2.99    1.42
   3   4   9    2.90    1.42
  -4  -4  -9    7.62    1.55
   4   4   9    5.24    1.61
  -5  -4  -9    0.92    1.54
  -6  -4  -9   -0.03    1.55
   6   4   9    3.63    1.89
  -6   4  -9    1.36    1.45
  -7  -4  -9    1.65    1.71
  -7   4  -9    2.50    1.76
   7   4   9    2.87    2.02
  -8  -4  -9   12.06    1.92
   8   4   9   10.43    2.40
  -8   4  -9    8.64    2.05
  -9  -4  -9    0.00    1.88
   9   4   9    2.77    2.34
  -9   4  -9    0.50    1.87
 -10  -4  -9    3.56    2.29
 -10   4  -9   -1.43    2.01
 -11  -4  -9   -0.60    2.27
  11   4   9    0.20    2.69
 -11   4  -9   -2.63    2.41
  12   4   9   -3.62    2.68
  11  -5  -9    0.25    2.91
 -11  -5   9    7.96    3.22
  10  -5  -9    1.44    2.70
 -10  -5   9    0.56    2.87
  -9  -5   9    8.85    2.75
   9  -5  -9    7.83    2.77
  -9   5   9    5.04    2.34
  -8  -5   9    2.89    2.70
   8  -5  -9    5.38    2.44
  -7  -5   9    5.24    2.55
   7  -5  -9    4.71    2.25
  -6  -5   9   -0.83    2.27
  -6  -5   9   -0.49    2.21
   6  -5  -9    2.88    1.99
   5  -5  -9   -0.87    1.86
  -5  -5   9   -0.53    2.10
  -5  -5   9   -3.40    2.07
  -4  -5   9    7.06    2.24
   4  -5  -9    6.92    2.06
  -4  -5   9    5.55    2.29
  -3  -5   9    2.28    2.24
   3  -5  -9    2.13    1.88
   2  -5  -9    3.78    1.86
  -2  -5   9    3.83    2.15
  -1  -5   9    3.43    2.10
   1  -5  -9    1.36    1.81
   0  -5   9    2.90    2.01
   0  -5  -9    1.98    1.82
  -1  -5  -9    2.49    1.92
   1  -5   9    5.34    2.21
  -1   5  -9    1.36    2.23
  -2  -5  -9    2.38    1.94
   2  -5   9   -0.91    2.09
  -2   5  -9    1.41    1.92
   3  -5   9    6.55    2.08
  -3  -5  -9   -0.47    1.91
   3   5   9    2.40    2.16
  -3   5  -9    3.39    2.17
  -4  -5  -9    2.36    1.99
   4  -5   9    1.66    1.88
  -4   5  -9    4.71    2.08
   4   5   9   -1.32    2.33
  -5  -5  -9    3.23    2.14
   5  -5   9    1.92    2.13
   5   5   9   -0.11    2.45
  -6  -5  -9    7.71    2.58
  -7  -5  -9    2.02    2.40
  -8  -5  -9    3.01    2.74
   5  -6  -9   -2.78    3.18
   4  -6  -9    4.23    3.02
   3  -6  -9    5.21    3.21
   2  -6  -9   -2.22    2.84
   1  -6  -9   -0.74    2.89
   0  -6  -9   -0.06    2.84
  -1  -6  -9    3.40    3.00
  -2  -6  -9    4.08    3.19
  18   0 -10    8.38    2.48
  17   0 -10    0.65    2.10
  16   0 -10    2.49    1.88
  16   0 -10    1.02    1.56
  15   0 -10    1.12    1.48
  15   0 -10   -0.18    1.30
  14   0 -10    3.87    1.63
  14   0 -10    3.80    1.15
  13   0 -10    0.20    0.92
  13   0 -10   -1.05    1.16
  12   0 -10   32.17    2.12
  12   0 -10   31.91    1.50
  11   0 -10   -0.20    0.95
  11   0 -10    0.19    0.63
  10   0 -10   19.59    0.98
  10   0 -10   18.58    1.62
   9   0 -10   -0.62    0.71
   9   0 -10    0.26    0.42
   8   0 -10   45.62    1.86
   8   0 -10   44.28    0.87
   7   0 -10    0.44    0.62
   6   0 -10    4.55    0.39
   6   0 -10    4.06    0.74
   5   0 -10   -0.17    0.54
   5   0 -10   -0.16    0.29
   4   0 -10   28.00    1.32
   4   0 -10   24.45    0.84
   3   0 -10   -0.18    0.32
  -3   0  10   -0.25    0.34
   3   0 -10    0.13    0.49
   2   0 -10   90.44    2.07
   2   0 -10   88.00    1.73
  -2   0  10   89.25    1.75
   1   0 -10   -0.21    0.38
  -1   0  10    0.27    0.40
   1   0 -10   -0.37    0.35
   0   0  10   59.30    1.63
   0   0 -10   54.76    1.52
   0   0 -10   59.08    1.62
  -1   0 -10    0.14    0.43
   1   0  10   -0.29    0.48
  -1   0 -10   -0.76    0.39
  -2   0 -10   74.68    1.93
   2   0  10   73.02    1.95
  -2   0 -10   76.22    1.75
   3   0  10    0.83    0.54
  -3   0 -10    0.22    0.42
  -3   0 -10    0.30    0.44
   4   0  10    2.77    0.70
  -4   0 -10    1.96    0.50
  -4   0 -10    2.45    0.68
   5   0  10   -0.10    0.66
  -5   0 -10    0.13    0.37
  -5   0 -10    0.28    0.61
   6   0  10   13.77    1.36
  -6   0 -10   14.16    1.32
  -7   0 -10    0.88    0.70
   7   0  10    0.00    0.80
   8   0  10    1.81    1.00
  -8   0 -10    0.15    0.78
   9   0  10    0.96    1.03
   9   0  10   -0.57    0.86
  -9   0 -10    0.05    0.90
  10   0  10   31.84    2.23
  10   0  10   31.44    2.63
 -10   0 -10   31.82    2.10
  11   0  10   -1.73    1.25
  12   0  10    2.75    1.62
  13   0  10    1.24    1.78
  14   0  10    2.53    1.66
  14   0  10    2.34    2.06
  15   0  10   -1.99    2.38
  16   0  10   13.66    3.29
  17   0  10   -1.06    3.19
  18  -1 -10    1.39    2.42
  17  -1 -10   10.79    2.29
  17   1 -10    9.49    2.34
  16  -1 -10    0.88    1.82
  16  -1 -10    0.23    1.47
  16   1 -10   -0.60    1.18
  16   1 -10   -0.01    1.84
  15  -1 -10    2.69    1.27
  15  -1 -10    1.75    1.58
  15   1 -10    2.73    1.07
  15   1 -10   -0.85    1.55
  14  -1 -10    0.53    1.42
  14  -1 -10    0.45    1.03
  14   1 -10   -0.51    0.90
  14   1 -10    1.50    1.43
  14   1 -10   -1.17    1.27
  13  -1 -10   24.96    1.50
  13  -1 -10   23.62    2.35
  13   1 -10   27.94    2.35
  13   1 -10   26.11    1.53
  13   1 -10   22.55    1.93
  12  -1 -10    6.12    1.60
  12  -1 -10    8.27    0.87
  12   1 -10    7.44    1.37
  12   1 -10    7.86    1.15
  11  -1 -10    0.10    0.97
  11  -1 -10   -0.02    0.59
  11   1 -10    1.05    1.07
  11   1 -10    0.26    0.79
  10  -1 -10    3.40    1.10
  10  -1 -10    4.13    0.59
  10   1 -10    6.42    1.27
  10   1 -10    3.92    0.80
  -9  -1  10   45.65    1.42
   9  -1 -10   44.45    0.98
   9   1 -10   45.48    2.07
   9   1 -10   47.10    1.49
   8  -1 -10    4.60    0.43
  -8  -1  10    4.28    0.62
   8  -1 -10    3.85    0.34
   8   1 -10    3.82    0.94
   8   1 -10    2.78    0.62
  -7  -1  10    5.75    0.85
  -7  -1  10    6.79    0.66
   7   1 -10    5.42    0.95
  -6  -1  10    0.74    0.61
  -6  -1  10    2.09    0.47
   6   1 -10    0.98    0.62
   6   1 -10    1.09    0.50
  -5  -1  10   14.59    0.81
  -5  -1  10   15.00    1.13
   5   1 -10   15.55    0.99
  -5   1  10   15.55    0.59
   5   1 -10   13.97    1.20
  -4  -1  10    0.09    0.35
  -4  -1  10    0.21    0.51
   4   1 -10   -0.29    0.55
   4   1 -10    0.22    0.45
  -4   1  10    0.34    0.33
  -3  -1  10   22.12    1.19
  -3  -1  10   21.85    0.89
   3   1 -10   20.31    1.07
   3   1 -10   21.11    1.27
  -3   1  10   20.12    0.88
  -2  -1  10    5.19    0.76
  -2   1  10    4.56    0.59
   2   1 -10    4.76    0.76
   2   1 -10    4.44    0.65
  -2   1  10    4.46    0.43
  -1  -1  10    1.47    0.50
   1   1 -10    2.26    0.58
   1   1 -10    1.00    0.49
  -1   1  10    2.05    0.53
  -1   1  10    0.93    0.36
   0  -1  10    0.37    0.58
   0  -1  10    0.24    0.40
   0   1 -10   -0.16    0.51
   0   1  10    0.14    0.36
   0   1  10    0.41    0.48
   0   1 -10    0.44    0.43
   1  -1  10  104.08    2.22
   1  -1  10  101.65    2.36
  -1   1 -10  104.45    2.31
   1   1  10  103.70    2.24
   1   1  10  106.49    1.97
   2  -1  10    0.71    0.48
   2  -1  10    0.00    0.57
  -2   1 -10   -0.39    0.49
   2   1  10    0.89    0.53
   2   1  10    0.38    0.42
   3  -1  10    2.75    0.58
   3  -1  10    3.64    0.76
   3   1  10    3.35    0.67
  -3   1 -10    2.54    0.63
   3   1  10    4.84    0.84
   4  -1  10    6.57    0.97
   4  -1  10    8.25    0.82
   4   1  10    6.78    0.87
  -4   1 -10    7.25    0.97
   4   1  10    7.24    1.00
   5  -1  10   54.47    1.53
   5  -1  10   55.61    2.07
  -5  -1 -10   55.00    1.38
   5   1  10   55.19    2.05
  -5   1 -10   56.50    1.99
   5   1  10   51.69    1.81
   6  -1  10   14.58    1.52
   6  -1  10   12.85    0.96
  -6  -1 -10   12.19    0.81
   6   1  10   13.38    1.30
   6   1  10   16.48    1.50
  -6   1 -10   13.87    1.34
  -7  -1 -10    9.33    0.73
   7  -1  10   10.03    0.84
   7  -1  10    9.82    1.27
  -7   1 -10    7.58    1.31
   7   1  10   11.10    1.26
   7   1  10    9.46    1.15
  -8  -1 -10   -0.34    0.37
   8  -1  10    0.20    0.47
   8  -1  10   -0.69    0.98
  -8   1 -10    0.21    0.82
   8   1  10    0.65    0.79
   8   1  10    1.39    0.89
   9  -1  10    2.25    0.56
   9  -1  10    1.07    1.18
  -9   1 -10    2.33    1.07
   9   1  10    1.40    2.02
   9   1  10    4.78    1.16
  10  -1  10    0.70    0.53
  10  -1  10   -0.61    1.16
  10   1  10    0.54    1.16
 -10   1 -10   -0.04    1.12
  11  -1  10    0.40    1.44
 -11   1 -10    0.65    1.26
  11   1  10    0.88    1.27
  12  -1  10    0.46    1.53
  12   1  10   -0.59    1.41
  13  -1  10    3.28    1.88
  13   1  10    2.92    1.84
 -13   1 -10    2.95    1.69
  14  -1  10    5.43    2.24
 -14   1 -10    4.45    1.86
  14   1  10    4.55    2.20
  14   1  10    5.27    2.11
  15  -1  10    3.40    2.28
  15   1  10    2.27    2.47
  16  -1  10    0.92    2.72
  16   1  10    2.60    2.69
  17  -1  10    0.21    3.13
  17   1  10    5.05    3.31
  17  -2 -10   -2.39    2.39
  17   2 -10    6.50    2.83
  16  -2 -10    0.59    2.06
  16  -2 -10    0.02    1.66
  16   2 -10    4.31    2.33
  16   2 -10   -1.11    1.75
  15  -2 -10   -0.77    1.83
  15  -2 -10   -1.21    1.39
  15   2 -10    4.30    2.02
  14  -2 -10    4.05    1.25
  14   2 -10    1.56    1.68
  13  -2 -10    8.62    1.20
  13   2 -10    7.00    1.71
 -12  -2  10    0.68    1.15
  12   2 -10   -0.51    1.27
 -11  -2  10    9.88    1.30
 -11  -2  10    8.78    1.42
  11   2 -10    9.10    1.34
 -10  -2  10    0.16    0.89
 -10  -2  10    1.89    1.09
  10   2 -10    0.19    0.95
  -9  -2  10   27.83    1.68
   9  -2 -10   28.78    1.30
  -9  -2  10   26.36    1.91
   9   2 -10   27.07    1.66
  -8  -2  10    0.30    0.94
   8  -2 -10    1.16    0.63
  -8  -2  10    0.72    0.77
   7  -2 -10    3.91    0.61
  -7  -2  10    4.86    0.99
  -7  -2  10    3.01    0.82
  -7   2  10    2.57    0.41
   6  -2 -10    0.89    0.47
  -6  -2  10    0.35    0.75
  -6  -2  10    0.61    0.65
  -6   2  10    0.58    0.43
   5  -2 -10   22.35    0.99
  -5  -2  10   24.23    1.33
  -5  -2  10   21.09    1.48
  -4  -2  10   23.88    1.33
   4  -2 -10   22.85    0.98
  -4  -2  10   27.95    1.50
   3  -2 -10   29.64    1.09
  -3  -2  10   27.56    1.52
  -3  -2  10   28.19    1.38
   3   2 -10   28.22    1.52
  -2  -2  10    0.78    0.59
   2  -2 -10    0.77    0.49
  -2  -2  10   -0.28    0.60
   2   2 -10    0.37    0.65
  -2   2  10   -0.16    0.44
   1  -2 -10    1.12    0.52
  -1  -2  10    0.85    0.68
   1   2 -10    1.15    0.71
  -1   2  10    0.83    0.54
   0  -2  10    0.85    0.58
   0  -2 -10    0.89    0.54
   0   2  10    1.45    0.58
   0   2 -10    1.47    0.70
   1  -2  10   21.42    1.33
  -1  -2 -10   20.11    1.21
   1   2  10   19.57    1.21
  -1   2 -10   20.41    1.38
   2  -2  10   39.83    1.64
  -2  -2 -10   39.67    1.55
   2   2  10   39.64    1.72
  -2   2 -10   39.45    1.71
   2   2  10   40.77    1.61
  -3  -2 -10   18.12    1.35
   3  -2  10   18.18    1.34
   3   2  10   19.57    1.46
   3   2  10   17.84    1.33
  -3   2 -10   19.32    1.37
   4  -2  10    5.41    0.84
  -4  -2 -10    4.96    0.90
   4   2  10    5.78    0.97
  -4   2 -10    6.08    1.02
   4   2  10    6.53    1.01
   5  -2  10   18.86    1.35
  -5  -2 -10   18.71    1.52
   5   2  10   17.67    1.58
   5   2  10   20.39    1.58
  -5   2 -10   17.71    1.49
   6  -2  10   20.57    1.40
   6  -2  10   19.35    1.74
  -6   2 -10   20.27    1.64
   6   2  10   18.46    1.73
   6   2  10   21.69    1.74
   7  -2  10    6.03    1.29
   7  -2  10    8.18    1.03
  -7   2 -10    8.22    1.29
   7   2  10    8.53    1.56
   7   2  10   10.25    1.44
   8  -2  10    2.16    1.25
   8  -2  10    2.63    0.81
  -8   2 -10    2.07    1.10
   8   2  10    2.47    1.26
   8   2  10    3.46    1.22
   9  -2  10    3.29    0.86
   9  -2  10    3.01    1.51
   9   2  10    5.92    1.46
   9   2  10    1.62    1.18
  -9   2 -10    1.09    1.10
  10  -2  10   17.88    1.96
  10  -2  10   19.53    1.54
 -10  -2 -10   17.65    0.87
 -10   2 -10   21.95    2.12
  10   2  10   21.74    2.25
  11  -2  10   12.02    1.22
  11  -2  10   13.82    2.14
  11   2  10   11.90    1.96
  12  -2  10   13.16    2.23
  12  -2  10    9.44    1.14
  12   2  10   14.58    2.36
 -12   2 -10    9.01    1.97
  13  -2  10    6.81    2.32
  13  -2  10    2.17    0.95
  13   2  10    5.37    2.20
 -13   2 -10    3.98    2.00
  13   2  10    5.53    2.15
  14  -2  10    1.37    2.35
  14  -2  10    0.33    0.92
  14   2  10    8.24    2.56
 -14   2 -10    2.32    2.25
  15  -2  10    2.92    2.64
  15   2  10   -1.54    2.54
 -15   2 -10    2.68    2.48
  16  -2  10    1.61    3.12
  16   2  10    3.82    3.13
  16   3 -10   -2.98    3.08
  15   3 -10    0.15    2.64
 -14  -3  10    0.28    2.03
 -14  -3  10    3.88    2.00
  14   3 -10   -1.96    2.26
 -13  -3  10   -0.66    1.69
  13  -3 -10    0.44    1.49
  13   3 -10   -1.32    2.02
 -12  -3  10    5.65    1.70
  12  -3 -10    6.45    1.47
  12   3 -10    1.72    1.74
 -11  -3  10   -0.69    1.48
 -11  -3  10    1.67    1.47
  11  -3 -10    1.24    1.23
  11   3 -10    1.76    1.63
  10  -3 -10    2.57    1.16
 -10  -3  10    4.37    1.45
 -10  -3  10    3.12    1.38
 -10   3  10    2.14    0.66
  -9  -3  10    0.06    1.26
   9  -3 -10    1.37    1.07
  -9  -3  10    2.39    1.23
  -9   3  10    0.46    0.70
   8  -3 -10   26.41    1.75
  -8  -3  10   29.80    2.17
  -8  -3  10   25.25    2.04
  -7  -3  10   -1.57    1.11
  -7  -3  10   -1.66    0.96
   7  -3 -10    0.87    0.89
  -6  -3  10   36.45    2.18
  -6  -3  10   35.92    2.01
   6  -3 -10   37.60    1.78
   5  -3 -10    1.16    0.82
  -5  -3  10    1.38    1.09
  -5  -3  10    1.22    1.05
  -4  -3  10   20.67    1.77
  -4  -3  10   20.27    1.77
   4  -3 -10   21.38    1.49
  -3  -3  10    7.58    1.21
  -3  -3  10    5.07    1.12
   3  -3 -10    5.11    0.93
   2  -3 -10   25.14    1.48
  -2  -3  10   28.33    1.78
  -2  -3  10   24.50    1.80
   1  -3 -10    0.63    0.76
  -1  -3  10    1.89    0.90
  -1  -3  10    0.38    0.91
   1   3 -10    0.38    0.91
  -1   3  10   -0.46    0.79
   0  -3  10   15.54    1.46
   0  -3 -10   12.86    1.23
   0   3  10   16.07    1.55
   0   3 -10   17.63    1.74
   1  -3  10    6.09    1.21
  -1  -3 -10    5.27    1.00
  -1   3 -10    6.30    1.09
   1   3  10    3.99    0.99
  -2  -3 -10    8.06    1.19
   2   3  10    6.66    1.21
  -2   3 -10    5.32    1.15
  -3  -3 -10    1.15    0.96
   3   3  10    0.65    1.12
  -3   3 -10   -0.09    0.94
  -4  -3 -10    5.96    1.12
   4   3  10    9.85    1.38
  -4   3 -10    7.31    1.17
  -5  -3 -10   25.18    2.20
  -5   3 -10   28.31    2.06
   5   3  10   23.40    2.02
  -6  -3 -10    2.30    1.28
   6   3  10    2.80    1.31
  -6   3 -10    2.89    1.20
  -7  -3 -10   -2.31    1.24
  -7   3 -10    0.29    1.23
   7   3  10   -3.09    1.24
   7   3  10    1.44    1.32
  -8  -3 -10    4.13    1.52
   8   3  10    4.61    1.67
  -9  -3 -10    5.72    1.59
   9   3  10    1.11    1.40
   9   3  10    4.17    1.78
  10   3  10    5.87    1.94
  10   3  10    2.35    1.86
 -10   3 -10    7.92    1.93
  11   3  10   -0.46    1.90
  11   3  10   -1.36    2.04
 -11   3 -10    1.65    1.65
  12  -3  10    2.15    1.49
  12   3  10    1.85    2.15
 -12   3 -10   -0.90    2.14
  13  -3  10    0.15    1.56
  13   3  10    0.06    2.46
 -13   3 -10    2.87    2.36
  14   3  10   -0.57    3.13
 -14  -4  10   -1.14    3.26
 -14  -4  10   10.10    3.01
  13  -4 -10    4.32    2.43
 -13  -4  10   11.46    2.87
 -13  -4  10    1.17    2.56
 -12  -4  10    0.84    2.34
  12  -4 -10    2.83    2.16
 -12  -4  10    3.75    2.28
  11  -4 -10    0.11    2.23
 -11  -4  10    2.26    2.17
 -11  -4  10    0.82    2.11
 -11   4  10   -0.30    1.29
 -10  -4  10   -0.02    1.92
 -10  -4  10   -1.12    1.84
  10  -4 -10    1.13    1.71
 -10   4  10   -1.65    1.28
  -9  -4  10    8.24    2.01
   9  -4 -10    5.67    1.70
  -9  -4  10    9.87    1.98
  -9   4  10    9.19    1.52
   8  -4 -10   -0.60    1.43
  -8  -4  10    0.92    1.67
  -8  -4  10   -0.69    1.62
  -7  -4  10    2.89    1.60
   7  -4 -10    4.10    1.44
  -7  -4  10    0.86    1.75
  -6  -4  10    9.08    1.88
   6  -4 -10    7.24    1.52
  -6  -4  10    4.47    1.53
  -5  -4  10    5.24    1.55
   5  -4 -10    4.67    1.37
   4  -4 -10    3.29    1.34
  -4  -4  10    2.50    1.62
  -3  -4  10    1.64    1.44
   3  -4 -10    3.96    1.28
   2  -4 -10    0.43    1.18
  -2  -4  10   -0.45    1.27
   1  -4 -10    2.45    1.24
  -1  -4  10    2.70    1.47
   0  -4  10    0.04    1.31
   0  -4 -10    1.30    1.61
   0   4  10    0.55    1.30
   0   4 -10    0.17    1.25
  -1  -4 -10    7.27    1.39
   1  -4  10    5.64    1.42
   1   4  10    6.39    1.56
  -2  -4 -10    0.09    1.17
   2   4  10    0.90    1.40
  -3  -4 -10    3.13    1.40
   3   4  10    6.24    1.57
  -4  -4 -10   12.26    1.80
  -5  -4 -10    7.38    1.79
  -5   4 -10    7.83    1.73
  -6  -4 -10    0.90    1.66
  -6   4 -10    2.30    1.70
   6   4  10    0.82    1.81
  -7  -4 -10    2.31    1.72
  -7   4 -10   -0.12    1.72
   7   4  10    1.14    2.04
  -8  -4 -10    0.48    1.95
   8   4  10    7.24    2.44
  -8   4 -10    1.71    1.88
  -9  -4 -10    5.86    2.13
   9   4  10    6.08    2.42
  -9   4 -10    2.82    1.94
 -10  -4 -10   -0.86    2.24
  10   4  10   -3.40    2.45
 -10   4 -10   -0.43    2.21
 -11  -4 -10    6.62    2.33
  11   4  10    3.77    2.78
 -11  -5  10    3.41    3.16
  11  -5 -10    2.08    3.06
  10  -5 -10    0.67    2.83
 -10  -5  10   10.83    3.16
  -9  -5  10    2.56    2.59
   9  -5 -10    0.32    2.41
   8  -5 -10    6.12    2.34
  -8  -5  10    5.87    2.65
   7  -5 -10    0.41    2.12
  -7  -5  10    3.71    2.25
  -6  -5  10    4.12    2.55
   6  -5 -10    1.54    2.06
  -5  -5  10   -1.57    2.20
   5  -5 -10   -1.17    1.93
  -4  -5  10    6.60    3.17
   4  -5 -10    2.67    2.05
  -4  -5  10    4.87    2.35
  -3  -5  10    1.35    2.03
  -3  -5  10    0.78    2.31
   3  -5 -10    2.11    1.90
  -2  -5  10    5.67    2.17
  -2  -5  10    2.34    2.21
   2  -5 -10    3.10    1.95
   1  -5 -10    4.21    1.95
  -1  -5  10    2.24    2.23
   0  -5 -10    0.64    1.91
   0  -5  10    0.43    2.14
   0   5 -10    0.45    2.01
  -1  -5 -10    4.44    1.97
   1  -5  10    1.47    2.14
  -1   5 -10    0.00    2.14
  -2  -5 -10    0.85    1.93
   2  -5  10    0.72    2.02
  -2   5 -10    4.32    2.50
  -3  -5 -10    6.57    2.24
   3  -5  10    2.90    2.11
   3   5  10    2.25    2.35
   4  -5  10   -0.49    2.02
  -4  -5 -10    1.58    2.04
   4   5  10   -4.40    2.34
  -5  -5 -10    5.31    2.41
   5  -5  10    3.52    2.09
   5   5  10    3.42    2.99
  -6  -5 -10    1.90    2.47
  -7  -5 -10    6.48    2.70
  -8  -5 -10    3.27    2.53
   4  -6 -10   -0.76    3.11
   3  -6 -10   -0.95    2.98
   2  -6 -10    0.66    2.97
   1  -6 -10    3.63    2.98
   0  -6 -10    1.10    2.99
  -1  -6 -10    3.46    3.22
  -2  -6 -10    2.59    5.41
  18   0 -11    2.08    2.68
  17   0 -11    2.52    2.35
  16   0 -11    3.40    1.99
  16   0 -11    3.23    1.50
  15   0 -11    3.74    1.29
  15   0 -11    1.72    1.71
  14   0 -11    0.76    1.05
  14   0 -11    0.12    1.47
  13   0 -11    0.66    0.84
  13   0 -11    1.70    1.38
  12   0 -11   -1.19    1.31
  12   0 -11    0.26    0.70
  11   0 -11   33.36    1.22
  11   0 -11   30.40    2.16
  10   0 -11    0.24    0.46
  10   0 -11    0.99    1.01
   9   0 -11   18.21    1.58
   8   0 -11   -0.54    0.76
   7   0 -11   35.49    1.74
   7   0 -11   34.66    0.72
   6   0 -11   -0.31    0.31
   6   0 -11    0.02    0.61
   5   0 -11  116.25    2.65
   5   0 -11  112.56    1.73
   4   0 -11   -0.57    0.35
   4   0 -11   -0.29    0.50
   3   0 -11   21.12    1.23
   3   0 -11   19.50    0.91
  -3   0  11   20.30    0.99
  -2   0  11    0.03    0.44
   2   0 -11    0.40    0.42
   2   0 -11   -0.07    0.48
   1   0 -11  216.34    3.18
  -1   0  11  221.37    3.21
   1   0 -11  223.10    3.49
   0   0 -11   -0.01    0.46
   0   0  11    0.56    0.51
   0   0 -11    0.91    0.50
  -1   0 -11    1.73    0.56
  -1   0 -11    1.91    0.62
   1   0  11    1.00    0.61
   2   0  11   -0.24    0.53
  -2   0 -11   -0.14    0.47
  -2   0 -11    0.36    0.53
  -3   0 -11   81.35    1.88
  -3   0 -11   83.42    2.20
   3   0  11   84.93    2.30
  -4   0 -11    0.19    0.59
  -4   0 -11   -0.16    0.44
   4   0  11   -0.51    0.69
  -5   0 -11   30.70    1.18
  -5   0 -11   31.25    1.62
   5   0  11   31.46    1.71
  -6   0 -11    0.79    0.72
   6   0  11    0.13    0.77
  -7   0 -11   17.64    1.55
   7   0  11   15.44    1.67
   8   0  11    0.07    0.99
   8   0  11   -1.02    0.81
  -8   0 -11    0.11    0.81
   9   0  11   20.96    1.81
   9   0  11   19.74    2.00
  -9   0 -11   24.46    1.84
 -10   0 -11   -0.20    1.06
  10   0  11    0.37    1.70
  10   0  11   -0.57    1.22
  11   0  11    1.71    1.47
  12   0  11   -0.32    1.55
  13   0  11   11.45    2.42
  13   0  11    1.24    2.82
  14   0  11    0.22    1.82
  14   0  11   -0.63    2.20
  15   0  11    4.67    2.73
  16   0  11    3.51    3.04
  17   0  11    3.87    3.64
  18  -1 -11   -1.11    2.50
  17  -1 -11    4.06    2.39
  16  -1 -11    5.02    1.51
  16  -1 -11    6.76    1.95
  16   1 -11    6.66    1.09
  15  -1 -11    0.48    1.18
  15  -1 -11    2.13    1.67
  15   1 -11    1.51    1.57
  15   1 -11    3.09    1.02
  15   1 -11   -0.63    1.75
  14  -1 -11    8.27    1.10
  14  -1 -11   10.60    1.79
  14   1 -11    8.34    1.43
  14   1 -11    9.68    1.79
  14   1 -11    7.58    1.05
  13  -1 -11   -0.70    1.32
  13  -1 -11   -0.11    0.78
  13   1 -11    0.39    1.06
  13   1 -11    0.09    1.34
  13   1 -11   -1.21    0.77
  12  -1 -11   17.41    1.13
  12  -1 -11   18.98    1.89
  12   1 -11   12.66    2.89
  12   1 -11   18.63    1.60
  11  -1 -11   -0.26    1.72
  11  -1 -11    0.84    0.56
  11   1 -11    1.09    0.84
  11   1 -11    3.19    1.25
  10  -1 -11   62.06    2.43
  10  -1 -11   57.92    1.05
  10   1 -11   62.36    2.57
  10   1 -11   57.67    1.72
  -9  -1  11    1.82    0.58
   9  -1 -11    0.68    0.95
   9   1 -11    1.74    0.94
  -8  -1  11   16.32    0.93
   8  -1 -11   15.31    1.45
   8   1 -11   12.91    1.33
   8   1 -11   14.99    1.08
  -7  -1  11    2.33    0.76
  -7  -1  11    2.28    0.50
   7   1 -11    2.51    0.64
   7   1 -11    2.60    0.88
  -6  -1  11   62.91    2.04
  -6  -1  11   65.06    1.38
   6   1 -11   64.71    1.67
   6   1 -11   68.49    2.24
  -5  -1  11    3.51    0.76
  -5  -1  11    3.34    0.52
  -5   1  11    3.14    0.42
   5   1 -11    3.23    0.63
   5   1 -11    2.71    0.77
  -4  -1  11   12.11    1.16
  -4  -1  11   12.64    0.83
   4   1 -11   13.30    1.24
   4   1 -11   11.25    0.97
  -4   1  11   11.49    0.77
  -3  -1  11    3.20    0.52
  -3  -1  11    2.75    0.64
   3   1 -11    2.99    0.65
  -3   1  11    2.28    0.55
   3   1 -11    2.87    0.63
  -3   1  11    3.12    0.31
  -2  -1  11   64.05    1.90
  -2   1  11   64.32    1.20
   2   1 -11   64.03    1.76
   2   1 -11   62.62    1.97
  -2   1  11   62.34    1.58
  -1  -1  11   22.35    1.23
   1   1 -11   22.59    1.23
  -1   1  11   21.27    0.85
  -1   1  11   22.32    1.16
   1   1 -11   20.12    1.25
   0  -1  11   14.48    1.19
   0  -1  11   13.32    1.01
   0   1  11   16.35    1.10
   0   1 -11   15.80    1.09
   0   1  11   15.27    0.84
   0   1 -11   14.97    1.13
   1  -1  11   -0.59    0.56
   1  -1  11    0.12    0.52
  -1   1 -11    0.11    0.58
   1   1  11    0.05    0.43
   1   1  11    0.84    0.54
  -1   1 -11    0.27    0.59
   2  -1  11   48.39    1.57
   2  -1  11   48.16    1.84
   2   1  11   47.54    1.48
  -2   1 -11   47.71    1.73
   2   1  11   48.89    1.77
  -3  -1 -11    7.41    0.74
   3  -1  11    9.09    1.12
   3  -1  11    9.60    0.93
   3   1  11    7.86    0.91
  -3   1 -11   10.56    1.14
   3   1  11    7.24    0.94
  -4  -1 -11   19.51    1.02
   4  -1  11   18.56    1.10
   4  -1  11   19.22    1.50
  -4   1 -11   20.02    1.38
   4   1  11   18.60    1.28
   4   1  11   20.61    1.46
   5  -1  11   20.78    1.62
  -5  -1 -11   19.65    1.05
   5  -1  11   21.10    1.13
   5   1  11   21.38    1.41
  -5   1 -11   20.00    1.46
   5   1  11   24.69    1.54
   6  -1  11    5.32    0.72
  -6  -1 -11    6.58    0.68
   6  -1  11    5.36    1.06
   6   1  11    6.89    1.12
   6   1  11    6.37    1.00
  -6   1 -11    4.29    1.08
   7  -1  11    7.28    1.31
   7  -1  11    9.59    0.87
  -7  -1 -11    8.39    0.81
   7   1  11    8.28    1.28
  -7   1 -11    9.15    1.30
   7   1  11    8.14    1.14
  -8  -1 -11   30.84    1.03
   8  -1  11   30.54    1.28
   8  -1  11   30.51    2.15
  -8   1 -11   30.77    1.95
   8   1  11   31.68    1.79
   8   1  11   23.84    2.53
   9  -1  11    7.15    0.78
   9  -1  11    6.32    1.42
   9   1  11    8.57    1.43
  -9   1 -11    6.02    1.39
   9   1  11    7.21    1.53
  10  -1  11    4.64    1.46
  10  -1  11    5.17    0.69
  10   1  11    6.96    1.37
 -10   1 -11    4.45    1.35
  10   1  11    6.90    1.55
  11  -1  11    2.16    1.48
  11   1  11    1.94    1.46
  12  -1  11   10.60    2.17
  12   1  11   10.20    1.86
 -12   1 -11   12.28    2.91
  13  -1  11    0.60    1.89
  13   1  11    0.64    1.83
 -13   1 -11    1.97    1.76
  13   1  11   -2.02    1.60
  14  -1  11    2.72    2.20
  14   1  11   -0.68    2.11
  14   1  11    0.06    2.14
 -14   1 -11    1.44    1.87
  15  -1  11   10.02    2.74
  15   1  11    1.78    2.53
  16  -1  11   -1.01    2.85
  16   1  11    3.70    3.21
  17  -1  11    0.64    3.40
  17  -2 -11   -5.48    2.54
  16  -2 -11   -0.29    2.23
  16   2 -11   -0.64    2.37
  16   2 -11   -1.09    1.75
  15  -2 -11   13.26    2.30
  15  -2 -11   11.24    1.54
  15   2 -11   11.00    2.23
  14  -2 -11   -0.31    1.15
  14  -2 -11    0.33    1.79
  14   2 -11    5.39    1.79
  13  -2 -11    0.33    0.97
 -12  -2  11    0.52    1.15
  12  -2 -11    0.33    0.80
  12   2 -11   -2.51    1.18
 -11  -2  11   -0.29    0.97
 -11  -2  11   -2.10    1.15
  11  -2 -11    0.12    0.71
  11   2 -11   -1.89    1.09
 -10  -2  11    3.59    1.22
 -10  -2  11    2.10    0.96
  10  -2 -11    2.35    0.76
   9  -2 -11   -0.67    0.61
  -9  -2  11    1.87    1.07
  -9  -2  11    0.12    0.80
  -8  -2  11    6.77    1.01
  -8  -2  11    4.69    1.05
   8  -2 -11    5.96    0.69
  -7  -2  11   -1.40    0.78
  -7  -2  11   -1.12    0.67
   7  -2 -11   -0.18    0.48
  -7   2  11    0.76    0.38
  -6  -2  11    7.43    1.06
   6  -2 -11    7.52    0.66
  -6  -2  11    6.53    0.87
  -6   2  11    6.35    0.62
  -5  -2  11   14.83    1.23
  -5  -2  11   14.35    1.41
   5  -2 -11   15.26    0.85
  -5   2  11   13.28    0.95
  -4  -2  11    5.65    1.90
  -4  -2  11    7.62    0.94
   4  -2 -11    7.78    0.67
   4   2 -11    6.12    0.99
  -4   2  11    6.37    0.77
  -3  -2  11    3.83    0.84
   3  -2 -11    4.27    0.60
  -3  -2  11    4.17    0.82
  -3   2  11    4.35    0.75
   3   2 -11    3.82    0.83
  -2  -2  11    4.56    0.82
   2  -2 -11    5.89    0.67
  -2  -2  11    5.36    0.82
  -2   2  11    5.85    0.81
  -2   2  11    7.01    0.76
   2   2 -11    6.62    0.98
   1  -2 -11   19.00    1.07
  -1  -2  11   19.61    1.34
  -1   2  11   19.85    1.12
   1   2 -11   16.72    1.35
  -1   2  11   18.26    1.24
   0  -2  11    6.51    0.96
   0  -2 -11    6.85    0.84
   0   2  11    8.18    1.00
   0   2 -11    6.00    0.85
   0   2  11    5.67    0.79
   1  -2  11    0.20    0.63
  -1  -2 -11    0.12    0.58
   1   2  11    0.39    0.66
   1   2  11    0.67    0.59
  -1   2 -11    0.48    0.68
   2  -2  11   13.34    1.22
  -2  -2 -11   11.58    1.09
   2   2  11   11.29    1.24
   2   2  11   10.79    1.07
  -2   2 -11    9.65    1.12
   3  -2  11   40.00    1.75
  -3  -2 -11   35.04    1.64
   3   2  11   37.66    1.75
   3   2  11   35.52    1.81
  -3   2 -11   29.32    2.25
   4  -2  11    6.09    1.01
  -4  -2 -11    4.95    0.92
   4   2  11    5.89    1.01
  -4   2 -11    7.26    1.19
   4   2  11    5.37    1.09
   5  -2  11    5.48    0.94
   5   2  11    5.79    1.10
   5   2  11    5.76    1.08
  -5   2 -11    5.27    1.08
   6  -2  11   13.56    1.23
   6  -2  11   14.81    1.66
   6   2  11   10.34    1.40
   6   2  11   14.68    1.48
  -6   2 -11   12.30    1.40
   7  -2  11    6.03    1.48
   7  -2  11    7.47    1.04
   7   2  11    7.00    1.28
   7   2  11    5.50    1.38
  -7   2 -11    6.26    1.19
   8  -2  11    3.93    0.95
   8  -2  11    4.98    1.49
  -8   2 -11    4.93    1.27
   8   2  11    5.35    1.36
   8   2  11    4.16    1.23
  -9  -2 -11    6.88    0.75
   9  -2  11    7.69    1.68
   9  -2  11    5.41    1.03
   9   2  11    5.31    1.49
  -9   2 -11    6.90    1.48
   9   2  11    4.23    1.42
  10  -2  11    0.27    0.88
  10  -2  11    0.98    1.46
 -10  -2 -11    0.73    0.50
  10   2  11    4.03    1.56
  11  -2  11   -0.39    0.85
  11  -2  11    0.87    1.83
 -11   2 -11   -1.16    1.57
  11   2  11   -1.23    1.59
  11   2  11    2.08    1.80
  12  -2  11    2.09    0.92
  12  -2  11    2.90    2.09
 -12   2 -11    2.73    2.03
  12   2  11    0.27    1.81
  12   2  11    5.18    2.05
  13  -2  11   17.11    2.73
  13  -2  11   16.51    1.35
  13   2  11   19.14    2.55
  13   2  11   16.03    2.53
 -13   2 -11   19.82    2.73
  14  -2  11    4.04    2.52
  14  -2  11    0.44    0.93
 -14   2 -11    2.79    2.49
  14   2  11    1.70    2.70
  15  -2  11    1.81    2.87
  15   2  11    1.51    2.76
  16  -2  11    2.91    3.31
  15   3 -11   -2.39    2.67
 -14  -3  11    5.97    2.16
 -14  -3  11   -0.32    2.10
  14  -3 -11    2.00    1.73
  14   3 -11   -0.85    2.32
 -13  -3  11    3.26    2.07
 -13  -3  11    2.84    1.90
  13  -3 -11    1.51    1.57
  13   3 -11   -0.68    2.08
  12  -3 -11   -0.24    1.34
 -12  -3  11   -0.16    1.57
 -12  -3  11    3.16    1.86
 -11  -3  11    7.39    1.75
  11  -3 -11    8.70    1.43
 -10  -3  11    1.45    1.41
  10  -3 -11   -2.34    1.09
  -9  -3  11    8.89    1.46
  -9  -3  11    4.88    1.61
   9  -3 -11    7.40    1.18
  -9   3  11    8.66    0.84
  -8  -3  11    0.88    1.24
  -8  -3  11    3.19    1.26
   8  -3 -11    2.08    0.98
   7  -3 -11    7.99    1.05
  -7  -3  11   10.80    1.59
  -7  -3  11   10.65    1.44
  -6  -3  11   -0.88    0.92
  -6  -3  11   -0.87    0.97
   6  -3 -11   -0.13    0.79
  -5  -3  11   33.16    2.19
  -5  -3  11   37.49    2.07
   5  -3 -11   35.21    1.73
  -4  -3  11   21.43    1.81
   4  -3 -11   19.60    1.45
  -4  -3  11   20.52    1.89
   3  -3 -11   17.68    1.39
  -3  -3  11   21.94    1.81
  -3  -3  11   18.38    1.80
  -2  -3  11    1.47    0.90
   2  -3 -11    0.09    0.81
  -2  -3  11    0.93    0.91
   2   3 -11    1.57    1.03
  -1  -3  11   55.59    2.25
  -1  -3  11   55.52    2.28
   1  -3 -11   55.88    1.99
   1   3 -11   58.42    2.52
  -1   3  11   56.39    2.08
   0  -3  11    2.33    0.96
   0  -3 -11    2.42    0.91
   0   3  11    2.07    0.96
   0   3 -11    3.20    1.09
   1  -3  11   27.28    1.92
  -1  -3 -11   25.58    1.76
  -1   3 -11   23.75    1.86
   1   3  11   26.72    1.78
   2  -3  11    6.21    1.27
  -2  -3 -11    4.49    1.08
  -2   3 -11    6.03    1.26
   2   3  11    7.12    1.29
  -3  -3 -11   22.38    1.85
   3  -3  11   22.80    1.85
  -3   3 -11   22.94    1.99
   3   3  11   20.29    1.87
   4  -3  11    3.74    1.24
  -4  -3 -11    6.05    1.17
   4   3  11    1.36    1.14
  -5  -3 -11    0.79    1.28
   5  -3  11    1.28    0.99
   5   3  11    1.83    1.16
  -6  -3 -11    4.92    1.38
   6  -3  11    6.84    1.34
   6   3  11    7.80    1.50
   6   3  11    5.14    1.51
  -7  -3 -11    0.33    1.30
   7  -3  11    0.92    1.19
   7   3  11    0.86    1.55
   7   3  11   -0.27    1.33
   8  -3  11    2.44    1.25
  -8  -3 -11    0.95    1.46
   8   3  11   -1.49    1.47
   9  -3  11   10.65    1.56
   9   3  11   11.45    2.04
   9   3  11   10.09    1.96
  -9   3 -11   10.15    1.78
  10  -3  11    0.44    1.34
  10   3  11   -0.96    1.87
  10   3  11    1.18    1.94
 -10   3 -11   -0.27    1.64
  11  -3  11    2.54    1.44
  11   3  11    2.20    2.25
  11   3  11    0.69    2.07
 -11   3 -11    2.90    1.98
  12  -3  11    1.35    1.53
 -12  -3 -11   -0.46    0.71
  12   3  11   -2.30    2.42
 -12   3 -11   -0.37    2.39
  13  -3  11    3.39    1.71
  13   3  11   -2.89    2.59
 -14  -4  11    5.19    2.89
 -13  -4  11    5.69    2.72
  13  -4 -11    2.67    3.84
  12  -4 -11    6.82    2.23
 -12  -4  11    2.96    2.53
 -12  -4  11    6.45    2.55
  11  -4 -11   -0.07    1.87
 -11  -4  11   -1.80    2.02
 -11  -4  11   -1.28    2.25
 -10  -4  11    2.50    2.09
 -10  -4  11   -2.81    2.06
  10  -4 -11    5.70    1.86
 -10   4  11   -0.72    1.28
  -9  -4  11    1.62    1.76
  -9  -4  11    1.36    1.80
   9  -4 -11   -1.79    1.57
  -9   4  11    0.00    1.31
   8  -4 -11    2.92    1.44
  -8  -4  11    4.90    1.93
  -8  -4  11    2.16    1.79
  -7  -4  11    2.22    1.64
   7  -4 -11    0.85    1.39
  -7  -4  11    1.00    1.64
  -6  -4  11    9.41    1.93
  -6  -4  11    9.46    1.81
   6  -4 -11   10.50    1.60
  -5  -4  11    0.05    1.62
  -5  -4  11    0.51    1.54
   5  -4 -11    0.43    1.33
   4  -4 -11    9.45    1.50
  -4  -4  11    8.14    1.75
  -4  -4  11    8.12    2.11
   3  -4 -11    0.73    1.21
  -3  -4  11    1.10    1.49
   2  -4 -11   14.59    1.70
  -2  -4  11   14.27    1.88
  -1  -4  11    1.41    1.54
   1  -4 -11    2.00    1.26
   1   4 -11    2.86    1.40
   0  -4  11    9.72    1.75
   0  -4 -11    8.40    2.54
   0  -4  11   11.01    1.73
   0   4  11    9.94    1.78
   0   4 -11    8.80    1.65
   1  -4  11    8.01    1.69
  -1  -4 -11   10.08    1.47
   1  -4  11    8.21    1.65
   1   4  11    6.91    1.56
  -1   4 -11    2.03    1.56
  -2  -4 -11   10.56    1.63
   2   4  11   12.07    1.81
  -3  -4 -11    1.25    1.39
   3   4  11    0.54    1.49
  -4  -4 -11   20.54    2.24
  -5  -4 -11    1.88    1.60
  -5   4 -11    3.33    1.60
  -6  -4 -11   11.19    1.96
   6   4  11   14.08    2.31
  -6   4 -11    6.99    1.84
  -7  -4 -11    0.88    1.77
  -7   4 -11   -0.16    1.78
   7   4  11    1.30    1.95
  -8  -4 -11    3.80    2.16
   8   4  11    1.62    2.25
  -8   4 -11    5.28    2.08
  -9  -4 -11   -3.45    2.14
  -9   4 -11   -1.65    2.09
   9   4  11   -2.10    2.42
 -10  -4 -11    1.23    2.23
  10   4  11    5.06    2.63
  11   4  11   -4.24    2.93
  12  -4  11   11.87    2.68
  10  -5 -11    2.54    2.64
 -10  -5  11    7.23    3.17
   9  -5 -11    2.53    2.37
  -9  -5  11    2.44    2.92
   8  -5 -11    2.10    2.26
  -8  -5  11    5.15    2.75
  -7  -5  11   -1.02    2.29
   7  -5 -11   -0.51    2.26
  -6  -5  11    2.82    2.33
   6  -5 -11   -1.36    2.14
   5  -5 -11    6.09    2.17
  -5  -5  11    0.53    2.38
  -4  -5  11    2.46    2.30
   4  -5 -11    4.43    1.99
  -3  -5  11    4.27    2.26
   3  -5 -11   -0.09    1.96
   2  -5 -11    0.51    1.92
  -2  -5  11   -0.11    2.19
  -1  -5  11    1.22    2.32
   1  -5 -11    6.33    2.04
   0  -5  11    1.11    2.22
   0  -5 -11    4.27    2.00
  -1  -5 -11    2.48    2.05
   1  -5  11    4.97    2.31
  -2  -5 -11   -1.22    2.15
   2  -5  11    0.69    2.19
   2   5  11    0.46    2.43
  -3  -5 -11    3.21    2.15
   3  -5  11    1.66    2.20
   3   5  11    2.48    2.45
   4  -5  11   -0.26    2.36
  -4  -5 -11    2.14    2.33
   4   5  11   -5.11    2.23
  -5  -5 -11    2.23    2.56
  -6  -5 -11    3.12    2.46
  -7  -5 -11    1.70    2.67
   2  -6 -11    5.38    3.19
   1  -6 -11    1.24    3.04
   0  -6 -11    2.92    3.15
  -1  -6 -11    0.84    3.31
  18   0 -12    4.44    2.79
  17   0 -12    3.22    2.66
  16   0 -12    3.14    2.00
  16   0 -12    0.32    1.44
  15   0 -12   -0.11    1.73
  15   0 -12    0.29    1.17
  14   0 -12   -0.47    0.97
  14   0 -12   -0.61    1.56
  13   0 -12    0.68    0.81
  13   0 -12   -0.62    1.39
  12   0 -12   34.54    1.26
  12   0 -12   36.31    2.48
  11   0 -12    3.34    1.41
  11   0 -12   -0.67    0.48
  10   0 -12    4.32    1.19
   9   0 -12    0.32    0.90
   8   0 -12   53.73    2.19
   7   0 -12   -1.37    0.67
   7   0 -12    0.60    0.33
   6   0 -12    1.84    0.80
   6   0 -12    1.68    0.43
   5   0 -12   -0.90    0.37
   5   0 -12   -0.49    0.61
   4   0 -12  183.46    3.44
   4   0 -12  181.13    2.60
   3   0 -12   -0.95    0.52
  -3   0  12   -0.36    0.51
  -3   0  12    0.00    0.22
   3   0 -12    0.09    0.43
   2   0 -12  163.59    2.71
  -2   0  12  171.18    2.79
   2   0 -12  173.68    3.19
  -1   0  12    0.57    0.55
   1   0 -12    0.28    0.55
   1   0 -12   -0.66    0.50
   0   0  12   74.64    2.00
   0   0 -12   73.83    1.97
   0   0 -12   72.25    1.99
   1   0  12   -0.05    0.59
  -1   0 -12    0.13    0.55
  -1   0 -12    0.34    0.53
  -2   0 -12   29.76    1.31
  -2   0 -12   31.41    1.49
   2   0  12   31.65    1.61
  -3   0 -12    0.68    0.60
   3   0  12    0.67    0.68
  -3   0 -12    0.11    0.54
  -4   0 -12    0.51    0.53
  -4   0 -12    1.79    0.69
   4   0  12    1.48    0.84
  -5   0 -12    0.83    0.55
  -5   0 -12   -0.13    0.68
   5   0  12   -0.41    0.82
  -6   0 -12   68.46    2.40
   6   0  12   67.80    2.47
   7   0  12    1.09    0.99
  -7   0 -12    0.40    0.75
   8   0  12   -0.07    0.90
   8   0  12    0.52    1.58
  -8   0 -12   -0.70    0.97
   9   0  12    0.72    1.01
   9   0  12    0.85    1.23
  -9   0 -12   -0.76    1.64
  10   0  12   36.89    2.30
  10   0  12   45.84    2.71
 -10   0 -12   39.46    2.39
  11   0  12    1.70    1.60
  12   0  12    2.13    1.83
  13   0  12    0.67    1.79
  13   0  12    0.44    2.04
  14   0  12   10.20    2.72
  14   0  12    5.28    3.62
  15   0  12    1.14    2.72
  16   0  12    4.96    3.32
  17  -1 -12    3.75    2.48
  16  -1 -12   -1.14    2.10
  16   1 -12   -0.69    1.71
  15  -1 -12    1.42    1.08
  15  -1 -12    2.44    1.76
  15   1 -12    1.63    1.59
  15   1 -12    2.89    1.95
  14  -1 -12    0.68    1.54
  14  -1 -12   -0.09    0.88
  14   1 -12    1.71    1.65
  14   1 -12    2.29    0.88
  14   1 -12   -0.99    1.24
  14   1 -12    2.99    0.87
  13  -1 -12    2.39    1.51
  13  -1 -12    1.56    0.72
  13   1 -12    1.40    0.82
  13   1 -12    3.29    1.12
  13   1 -12    3.52    0.88
  13   1 -12    2.03    1.49
  12  -1 -12   -1.03    1.28
  12  -1 -12    1.00    0.53
  12   1 -12   -0.08    0.88
  12   1 -12   -0.16    1.34
  12   1 -12    0.55    0.73
  11  -1 -12    1.18    1.26
  11   1 -12    2.10    0.80
  11   1 -12    2.44    1.27
  11   1 -12    3.48    0.81
  10  -1 -12    8.58    1.48
  10   1 -12    8.95    0.91
  10   1 -12    6.83    1.64
   9  -1 -12   38.85    2.08
   9   1 -12   36.01    1.41
   9   1 -12   37.35    2.18
  -8  -1  12    0.68    0.51
   8  -1 -12    0.98    0.92
   8   1 -12    0.65    0.89
   8   1 -12    0.69    0.62
   7  -1 -12   38.25    1.88
  -7  -1  12   41.20    1.15
   7   1 -12   40.49    2.04
   7   1 -12   40.90    1.43
  -6  -1  12    1.87    0.94
  -6  -1  12    0.52    0.42
   6   1 -12   -0.24    0.53
   6   1 -12    0.31    0.81
  -5  -1  12   13.62    0.82
  -5  -1  12   13.13    1.21
   5   1 -12   13.21    1.37
   5   1 -12   14.60    1.07
  -5   1  12   12.81    0.77
  -4  -1  12    0.67    0.63
  -4  -1  12    0.67    0.42
  -4   1  12    0.79    0.48
   4   1 -12    0.90    0.78
   4   1 -12    0.52    0.61
  -3  -1  12   24.67    1.40
  -3  -1  12   26.06    1.03
   3   1 -12   24.06    1.47
  -3   1  12   23.26    0.66
  -3   1  12   24.17    1.11
   3   1 -12   23.86    1.27
  -2  -1  12    5.13    0.82
  -2   1  12    4.61    0.48
   2   1 -12    3.77    0.73
   2   1 -12    3.75    0.83
  -2   1  12    5.38    0.75
  -1  -1  12    1.31    0.60
   1   1 -12    1.38    0.63
   1   1 -12    2.40    0.70
  -1   1  12    1.22    0.60
  -1   1  12    1.42    0.43
   0  -1  12    0.63    0.60
   0  -1  12    1.08    0.67
   0   1 -12    1.43    0.63
   0   1  12    0.91    0.49
   0   1 -12    0.62    0.58
   0   1  12    2.40    0.71
   1  -1  12   17.93    1.44
   1  -1  12   19.44    1.20
  -1   1 -12   19.02    1.31
   1   1  12   18.27    1.05
  -1   1 -12   17.87    1.26
   1   1  12   21.09    1.40
   2  -1  12    0.89    0.57
   2  -1  12    0.66    0.72
  -2  -1 -12    0.28    0.52
  -2   1 -12    1.64    0.67
   2   1  12    0.37    0.50
   2   1  12   -0.11    0.64
   3  -1  12    1.62    0.78
   3  -1  12   -0.12    0.56
  -3  -1 -12    0.01    0.48
  -3   1 -12   -0.23    0.57
   3   1  12   -0.63    0.62
   3   1  12    0.72    0.79
   4  -1  12    9.05    1.19
   4  -1  12    9.45    0.94
  -4  -1 -12   10.49    0.94
   4   1  12   11.85    1.32
  -4   1 -12   12.74    1.28
   4   1  12   11.62    1.18
   5  -1  12    8.41    1.23
  -5  -1 -12   10.34    0.91
   5  -1  12    9.33    0.94
   5   1  12    8.87    1.16
   5   1  12    9.66    1.17
  -5   1 -12    6.20    1.11
   6  -1  12   14.02    1.14
  -6  -1 -12   16.32    1.04
   6  -1  12   16.28    1.71
  -6   1 -12   15.89    1.56
   6   1  12   16.02    1.49
   6   1  12   17.05    1.68
   7  -1  12   16.14    1.15
   7  -1  12   18.89    1.84
  -7  -1 -12   16.15    1.02
   7   1  12   14.88    1.42
   7   1  12   17.66    1.74
  -7   1 -12   15.49    1.54
   8  -1  12    6.84    1.41
  -8  -1 -12    7.95    0.73
   8  -1  12    7.58    0.85
   8   1  12    8.11    1.34
   8   1  12    7.16    1.49
  -8   1 -12    8.03    1.40
   9  -1  12    0.71    0.62
   9  -1  12    0.20    1.23
   9   1  12    1.06    1.22
  -9   1 -12    0.59    1.17
   9   1  12   -0.05    1.15
  10  -1  12    4.79    1.70
  10   1  12    4.27    1.56
 -10   1 -12    2.68    2.04
  11  -1  12   12.95    2.04
  11   1  12    8.93    1.70
  11   1  12    9.29    1.83
  12  -1  12    0.31    1.77
  12   1  12    0.77    1.80
 -12   1 -12    2.41    1.71
  12   1  12   -2.05    1.53
  13  -1  12    2.50    1.98
 -13   1 -12    1.39    1.66
  13   1  12    0.49    2.14
  13   1  12   -1.15    1.83
  14  -1  12    2.74    2.26
  14   1  12   -0.68    2.42
 -14   1 -12    0.06    2.15
  15  -1  12    2.84    2.60
  15   1  12    6.01    2.97
  16  -1  12    1.47    3.19
  16   1  12    0.99    3.07
  17  -2 -12    0.29    2.72
  16  -2 -12   -3.41    2.30
  16   2 -12    2.06    3.44
  15  -2 -12   -2.15    2.00
  15   2 -12   -4.54    1.94
  14  -2 -12    1.16    2.04
  14  -2 -12    0.71    1.06
  14   2 -12   -2.83    1.62
  13  -2 -12    1.75    0.90
  13  -2 -12    4.58    1.03
  13   2 -12    2.99    1.51
  12  -2 -12    4.47    0.92
  12  -2 -12    4.84    0.83
 -12  -2  12    5.30    1.36
  11  -2 -12    4.52    0.72
  11  -2 -12    3.01    0.75
 -11  -2  12    6.27    1.43
 -11  -2  12    3.68    1.11
 -10  -2  12    7.18    1.20
 -10  -2  12    8.14    1.49
  10  -2 -12    6.38    0.73
  -9  -2  12    1.78    0.90
  -9  -2  12    2.79    1.11
   9  -2 -12    1.49    0.53
  -8  -2  12    1.43    0.82
  -8  -2  12    0.32    0.99
   8  -2 -12    1.78    0.50
  -7  -2  12    0.97    0.92
  -7  -2  12    2.45    0.83
   7  -2 -12    1.36    0.45
  -7   2  12    2.17    0.44
  -6  -2  12    1.10    0.76
   6  -2 -12    1.10    0.45
  -6  -2  12    0.90    0.86
  -6   2  12    1.30    0.52
   6   2 -12    0.85    0.88
   5  -2 -12   14.04    0.80
  -5  -2  12   12.65    1.29
  -5  -2  12   14.91    1.52
  -5   2  12   13.32    1.01
   5   2 -12   13.92    1.36
  -4  -2  12   30.53    1.75
  -4  -2  12   29.17    1.49
   4  -2 -12   31.06    1.08
   4   2 -12   30.68    1.74
  -4   2  12   30.26    1.33
  -3  -2  12   12.18    1.12
   3  -2 -12   13.02    0.91
  -3  -2  12   12.09    1.26
  -3   2  12   11.40    1.09
   3   2 -12   13.72    1.34
  -2  -2  12    1.45    1.12
  -2  -2  12    0.29    0.67
   2  -2 -12    0.05    0.50
   2   2 -12   -0.15    0.70
  -2   2  12   -0.50    0.59
  -2   2  12    0.82    0.58
  -1  -2  12    3.51    0.95
   1  -2 -12    2.95    0.64
  -1   2  12    2.10    0.63
   1   2 -12    1.75    0.80
  -1   2  12    2.12    0.76
   0  -2  12   12.90    1.32
   0  -2 -12   12.52    1.09
   0   2 -12   14.17    1.39
   0   2  12   14.17    1.18
   0   2  12   13.83    1.33
  -1  -2 -12   21.29    1.32
   1  -2  12   22.52    1.50
   1   2  12   18.50    1.45
  -1   2 -12   19.26    1.46
   1   2  12   19.18    1.27
  -2  -2 -12   57.98    1.88
   2  -2  12   58.57    2.06
   2   2  12   57.10    2.16
  -2   2 -12   55.50    3.22
   2   2  12   58.07    1.96
  -3  -2 -12   29.15    1.55
   3  -2  12   25.40    1.59
   3   2  12   26.93    1.64
  -3   2 -12   29.54    1.81
   3   2  12   26.70    1.79
   4  -2  12    1.59    0.83
   4   2  12    2.66    0.99
  -4   2 -12    1.61    0.89
   4   2  12    1.87    1.01
   5  -2  12   13.34    1.28
  -5   2 -12   13.37    1.52
   5   2  12   11.69    1.47
   5   2  12   12.09    1.70
   6  -2  12   14.08    1.33
   6  -2  12   12.60    1.53
  -6   2 -12   13.76    1.58
   6   2  12   11.87    1.62
   6   2  12   13.58    1.60
   7  -2  12   27.06    2.30
   7  -2  12   30.27    1.75
   7   2  12   29.26    2.29
   7   2  12   32.29    2.19
   8  -2  12    5.98    1.05
   8  -2  12    7.02    1.50
   8   2  12    5.61    1.56
   8   2  12    6.65    1.56
  -8   2 -12    6.86    1.33
  -9  -2 -12   10.56    1.09
   9  -2  12   15.69    2.12
   9  -2  12   12.27    1.23
   9   2  12   14.31    1.98
 -10  -2 -12    8.52    0.75
  10  -2  12    8.67    1.96
  10  -2  12    8.49    1.14
  10   2  12   10.85    1.95
  10   2  12   13.22    2.08
 -10   2 -12    9.86    1.89
  11  -2  12   22.59    2.64
  11  -2  12   16.41    1.61
 -11   2 -12   17.99    2.35
  11   2  12   20.31    2.40
  11   2  12   14.85    2.20
  12  -2  12    0.72    1.06
  12  -2  12   -0.49    2.05
  12   2  12    2.92    1.89
  12   2  12   -1.32    2.05
 -12   2 -12   -3.43    1.86
  13  -2  12    8.64    2.58
  13  -2  12    5.40    1.14
  13   2  12    7.23    2.52
 -13   2 -12    7.17    2.41
  14  -2  12    4.33    2.71
  14   2  12    3.39    2.92
  15  -2  12    4.77    3.23
  15   2  12    6.58    3.34
  16  -2  12    2.82    5.95
 -14  -3  12   11.20    2.46
  14  -3 -12    6.20    2.05
 -14  -3  12    2.16    2.21
  13  -3 -12    3.49    1.52
 -13  -3  12   -0.11    1.86
 -13  -3  12    3.06    2.11
 -12  -3  12    4.15    1.74
 -12  -3  12    8.66    2.04
  12  -3 -12    3.32    1.36
  11  -3 -12   -0.31    1.15
 -11  -3  12    0.15    1.83
 -11  -3  12    1.50    1.78
 -10  -3  12    8.09    1.58
 -10  -3  12    1.89    2.61
  10  -3 -12    5.24    1.21
  -9  -3  12    1.79    1.30
   9  -3 -12    1.23    0.98
  -9   3  12    0.65    0.64
  -9   3  12    0.36    0.61
  -8  -3  12   23.86    2.11
   8  -3 -12   26.80    1.65
  -7  -3  12    0.90    1.37
   7  -3 -12    0.43    0.89
  -7  -3  12    0.79    1.12
   6  -3 -12    3.05    0.86
  -6  -3  12    2.78    1.16
  -6  -3  12    2.77    1.12
   5  -3 -12   -0.06    0.79
  -5  -3  12   -1.19    1.06
  -5  -3  12   -0.63    1.02
  -4  -3  12    1.73    1.13
   4  -3 -12    0.96    0.83
   4   3 -12    0.78    1.17
   3  -3 -12    3.73    0.90
  -3  -3  12    5.60    1.24
   3   3 -12    4.99    1.32
  -2  -3  12    2.98    1.16
  -2  -3  12    2.18    1.10
   2  -3 -12    4.70    0.93
   2   3 -12    6.48    1.34
  -1  -3  12    4.70    1.15
   1  -3 -12    4.43    0.95
  -1  -3  12    3.30    1.11
   1   3 -12    4.51    1.24
  -1   3  12    2.12    0.95
   0  -3  12   22.80    1.85
   0  -3 -12   25.88    1.71
   0   3  12   22.90    1.73
   0   3 -12   25.01    1.95
   1  -3  12   -0.45    0.98
  -1  -3 -12    0.41    0.93
   1   3  12    0.52    1.01
  -1   3 -12    0.86    0.98
   2  -3  12   24.73    1.97
  -2  -3 -12   24.75    1.82
  -2   3 -12   26.93    2.04
  -3  -3 -12    1.66    1.08
   3  -3  12    1.73    1.06
  -3   3 -12   -0.41    0.99
   3   3  12    1.10    1.10
  -4  -3 -12    8.34    1.44
   4  -3  12    7.74    1.31
   4   3  12    7.70    1.58
   4   3  12    9.12    1.54
  -5  -3 -12    0.68    1.19
   5  -3  12   -0.01    1.11
   5   3  12    2.25    1.24
   5   3  12   -0.64    1.31
  -6  -3 -12   10.67    1.75
   6  -3  12   13.21    1.59
   6   3  12   14.64    1.95
   6   3  12   13.07    1.80
  -7  -3 -12   -0.36    1.38
   7  -3  12   -0.34    1.19
   7   3  12   -2.60    1.39
   8  -3  12    1.82    1.26
   8   3  12    0.24    1.68
   8   3  12    2.52    1.76
  -8   3 -12    0.53    1.48
   9  -3  12    0.64    1.31
   9   3  12    1.50    1.81
   9   3  12    1.49    1.89
  -9   3 -12    1.62    1.70
  10  -3  12    7.85    1.57
  10   3  12    4.89    2.16
  10   3  12    9.80    2.45
 -10   3 -12    6.73    2.11
  11  -3  12    2.06    1.58
 -11   3 -12   -1.14    2.09
  11   3  12    1.55    2.69
  11   3  12   -0.17    2.38
  12  -3  12    3.93    1.69
 -12  -3 -12   -0.10    0.79
  12   3  12   -1.86    2.52
  13  -3  12   -2.36    1.69
  13   3  12    2.78    3.16
 -13  -4  12    0.92    2.74
  12  -4 -12   -0.61    2.07
 -12  -4  12    2.10    2.57
  11  -4 -12    4.70    1.99
 -11  -4  12    9.12    2.48
 -11  -4  12    9.47    2.83
 -10  -4  12    1.10    2.15
 -10  -4  12   -0.81    2.05
  10  -4 -12    2.45    1.68
 -10   4  12   -0.60    1.21
   9  -4 -12    4.21    1.59
  -9  -4  12    6.06    2.09
  -9  -4  12    5.59    2.06
  -9   4  12    1.34    1.37
   8  -4 -12   -1.22    1.44
  -8  -4  12    0.54    1.73
  -8  -4  12   -0.97    1.82
   7  -4 -12    3.50    1.54
  -7  -4  12    4.57    1.75
  -7  -4  12    3.55    1.84
   6  -4 -12   10.11    1.54
  -6  -4  12    6.55    1.82
  -6  -4  12    6.30    1.74
  -5  -4  12    7.47    1.68
   5  -4 -12    8.02    1.49
  -5  -4  12    8.13    1.92
  -4  -4  12   -2.86    1.64
  -4  -4  12    0.73    1.59
   4  -4 -12   -2.04    1.19
   3  -4 -12   13.25    1.66
  -3  -4  12   12.08    1.81
   3   4 -12   13.78    2.12
  -2  -4  12    1.09    1.52
   2  -4 -12    2.17    1.33
   2   4 -12   -0.74    1.64
   1  -4 -12   12.29    1.62
  -1  -4  12   12.91    2.00
   1   4 -12   10.40    1.96
   0  -4  12    1.37    1.40
   0  -4  12    1.78    1.60
   0  -4 -12    1.12    1.44
   0   4  12    1.19    1.49
   0   4 -12    2.34    1.56
   1  -4  12    7.99    1.71
  -1  -4 -12    7.82    1.58
   1  -4  12    2.97    1.64
   1   4  12    2.63    1.47
  -1   4 -12    3.97    1.45
   2  -4  12    5.38    1.73
  -2  -4 -12    4.83    1.53
  -2   4 -12   -0.85    1.90
   2   4  12    5.16    1.63
   3  -4  12   12.67    2.05
  -3  -4 -12   12.37    1.96
   3   4  12    5.95    2.11
   4  -4  12   13.98    2.05
  -4  -4 -12   12.28    1.95
  -5  -4 -12   10.20    2.04
   5  -4  12    9.48    1.97
  -5   4 -12    7.44    1.95
   5   4  12    5.51    2.04
  -6  -4 -12    2.08    1.85
   6  -4  12   -0.78    1.67
   6   4  12   -0.68    1.95
  -6   4 -12    1.19    1.74
   7  -4  12    5.56    1.91
  -7  -4 -12    7.33    2.12
  -7   4 -12    7.12    2.08
   7   4  12    5.59    2.33
   7   4  12    4.63    2.34
   8  -4  12    6.31    2.03
  -8  -4 -12   -0.56    2.04
   8   4  12    1.64    2.52
  -8   4 -12    3.67    2.29
   8   4  12    0.59    2.30
   9  -4  12    3.80    2.17
  -9  -4 -12    1.04    2.27
   9   4  12    1.27    2.40
  10  -4  12   -0.85    2.17
  10   4  12   -5.80    2.58
  11  -4  12    2.64    2.45
  12  -4  12    2.35    2.64
  10  -5 -12   -2.43    3.29
 -10  -5  12    0.11    3.23
   9  -5 -12   -6.36    2.43
  -9  -5  12    4.68    2.98
  -8  -5  12   -1.80    2.72
   8  -5 -12    1.07    2.45
  -7  -5  12    3.88    2.65
   7  -5 -12    2.82    2.26
  -6  -5  12   -0.24    2.42
   6  -5 -12    2.01    2.10
  -5  -5  12    2.12    2.32
   5  -5 -12    3.61    2.09
   4  -5 -12    3.91    2.13
  -4  -5  12    5.34    2.51
  -3  -5  12    2.22    2.37
   3  -5 -12    1.70    2.05
   2  -5 -12    1.08    1.99
  -2  -5  12    3.43    2.52
  -1  -5  12    2.76    2.36
   1  -5 -12    5.19    2.19
   0  -5 -12    1.64    2.08
   0  -5  12    1.00    2.50
  -1  -5 -12    1.35    2.09
   1  -5  12   -2.50    2.46
  -2  -5 -12    3.56    2.15
   2  -5  12    7.88    2.44
   2   5  12    1.68    2.45
   3  -5  12    7.17    2.52
  -3  -5 -12    0.59    2.34
   3   5  12    0.36    2.42
   4  -5  12    6.92    2.40
  -4  -5 -12   -1.30    2.58
   4   5  12   -5.50    2.94
  -5  -5 -12    3.28    2.64
  -6  -5 -12    5.15    2.73
  -7  -5 -12    7.57    2.88
  17   0 -13    3.30    2.72
  16   0 -13    2.28    2.28
  15   0 -13    9.75    2.14
  15   0 -13    7.41    1.17
  14   0 -13   -0.37    0.86
  14   0 -13    1.77    1.77
  13   0 -13   -0.42    1.46
  13   0 -13   -1.22    0.64
  12   0 -13    1.52    1.50
  11   0 -13   28.93    2.37
  10   0 -13    0.95    1.22
   9   0 -13   18.99    2.69
   8   0 -13    1.38    1.00
   7   0 -13    7.02    1.14
   7   0 -13    8.17    0.68
   6   0 -13   -0.27    0.68
   6   0 -13    0.22    0.43
   5   0 -13    0.84    0.74
   5   0 -13    1.05    0.53
   4   0 -13   -0.40    0.47
   4   0 -13   -0.55    0.60
   3   0 -13    0.94    0.53
  -3   0  13    0.42    0.59
   3   0 -13   -0.34    0.59
  -3   0  13    0.80    0.29
   2   0 -13   -0.42    0.52
   2   0 -13   -0.14    0.60
  -2   0  13    0.85    0.61
   1   0 -13  158.03    2.89
   1   0 -13  155.76    3.13
  -1   0  13  163.29    2.97
   0   0  13   -0.56    0.58
   0   0 -13   -0.01    0.59
   0   0 -13    0.91    0.66
  -1   0 -13    0.61    0.60
   1   0  13    0.51    0.67
  -1   0 -13    0.20    0.55
   2   0  13   -0.32    0.71
  -2   0 -13    0.47    0.61
  -2   0 -13    0.25    0.61
  -3   0 -13   79.02    2.06
  -3   0 -13   81.90    2.40
   3   0  13   79.64    2.49
  -4   0 -13    0.04    0.70
   4   0  13   -0.06    0.86
  -4   0 -13    0.19    0.57
  -5   0 -13   21.07    1.27
   5   0  13   22.35    1.78
  -5   0 -13   20.59    1.64
  -6   0 -13    0.19    0.59
   6   0  13    0.36    0.96
  -6   0 -13   -0.02    0.85
  -7   0 -13   21.09    1.81
   7   0  13   16.42    1.60
   8   0  13   -0.12    1.15
   8   0  13    0.34    1.03
   9   0  13   20.69    2.23
   9   0  13   17.85    1.84
  10   0  13    0.70    1.49
  11   0  13    2.36    1.83
  11   0  13   -1.28    1.41
  12   0  13   -2.33    1.88
  12   0  13   -0.80    1.59
  13   0  13    6.21    2.55
  13   0  13   11.34    2.08
  14   0  13   -0.83    2.49
  15   0  13    2.00    3.00
  16   0  13    1.82    3.50
  17  -1 -13    4.21    2.68
  16  -1 -13    5.85    2.41
  15  -1 -13    2.16    2.00
  15  -1 -13    1.41    0.85
  15   1 -13   -0.27    2.02
  15   1 -13   -2.13    1.42
  14  -1 -13    5.81    1.80
  14   1 -13    2.36    1.23
  14   1 -13    4.92    1.96
  13  -1 -13    9.26    1.84
  13   1 -13    9.38    0.92
  13   1 -13    8.73    1.87
  13   1 -13    9.45    0.87
  12  -1 -13   -0.35    1.40
  12   1 -13    0.10    1.42
  12   1 -13   -1.21    0.69
  11  -1 -13   10.22    1.76
  11   1 -13    9.44    0.94
  11   1 -13    9.82    1.77
  10  -1 -13    0.12    1.14
  10   1 -13   -0.93    0.67
  10   1 -13    0.10    1.26
   9  -1 -13   -1.18    1.01
   9   1 -13    1.80    1.28
   9   1 -13   -0.38    0.63
  -8  -1  13    0.74    0.50
   8   1 -13    0.43    0.97
   8   1 -13    0.02    0.63
   7  -1 -13    1.42    0.91
  -7  -1  13    0.84    0.42
   7   1 -13    0.03    0.59
   7   1 -13    0.26    1.05
   6  -1 -13   16.19    1.49
  -6  -1  13   18.55    0.89
  -6  -1  13   20.02    1.49
   6   1 -13   20.23    1.19
   6   1 -13   18.48    1.69
  -5  -1  13    2.40    0.53
   5  -1 -13    3.14    0.89
  -5  -1  13    2.58    0.80
   5   1 -13    1.89    0.79
   5   1 -13    3.50    0.76
  -5   1  13    3.54    0.57
  -4  -1  13   24.52    1.80
  -4  -1  13   25.12    1.05
   4  -1 -13   22.86    1.49
   4   1 -13   26.91    1.39
  -4   1  13   25.68    1.16
   4   1 -13   26.35    1.65
   3  -1 -13   15.58    1.36
  -3  -1  13   14.71    0.92
  -3  -1  13   16.70    1.33
  -3   1  13   14.60    0.60
   3   1 -13   14.35    1.20
  -3   1  13   14.04    1.06
   3   1 -13   15.22    1.43
  -2  -1  13    4.38    0.88
   2  -1 -13    4.24    0.87
   2   1 -13    3.59    0.86
  -2   1  13    3.95    0.49
  -2   1  13    3.58    0.74
   2   1 -13    2.57    0.67
  -1  -1  13   13.74    1.23
   1  -1 -13   11.56    1.16
  -1   1  13   12.42    0.84
   1   1 -13   12.12    1.16
   1   1 -13   10.46    1.09
  -1   1  13   11.93    1.21
   0  -1  13   63.16    2.13
   0  -1 -13   63.11    1.97
   0  -1  13   67.57    2.05
   0   1  13   64.73    2.01
   0   1 -13   65.57    2.12
   0   1 -13   62.95    2.02
   0   1  13   64.49    1.58
  -1  -1 -13    4.58    0.78
   1  -1  13    3.77    0.97
   1  -1  13    4.01    0.78
  -1   1 -13    2.72    0.79
   1   1  13    3.50    0.88
  -1   1 -13    3.93    0.78
   1   1  13    3.23    0.63
  -2  -1 -13    7.51    0.90
   2  -1  13    6.66    0.91
   2  -1  13    8.67    1.22
   2   1  13    8.08    1.14
   2   1  13    7.30    0.86
  -2   1 -13    5.91    0.90
  -3  -1 -13   -0.14    0.61
   3  -1  13   -0.27    0.80
   3  -1  13    0.38    0.62
   3   1  13    1.20    0.84
   3   1  13   -0.70    0.59
  -3   1 -13   -0.33    0.69
  -4  -1 -13   19.87    1.25
   4  -1  13   21.09    1.32
   4  -1  13   24.17    1.79
   4   1  13   21.63    1.72
  -4   1 -13   19.33    1.59
   4   1  13   18.56    1.40
  -5  -1 -13    1.51    0.66
   5  -1  13    1.86    0.71
   5  -1  13    1.17    0.97
  -5   1 -13    1.00    0.87
   5   1  13    0.20    0.86
   5   1  13    1.92    1.00
  -6  -1 -13    0.07    0.61
   6  -1  13    0.12    1.10
   6  -1  13    0.40    0.69
  -6   1 -13   -0.80    0.79
   6   1  13    0.53    1.05
   6   1  13    1.02    0.87
   7  -1  13    0.38    0.66
  -7  -1 -13    1.29    0.58
   7  -1  13    2.97    1.25
  -7   1 -13    0.16    0.99
   7   1  13    0.84    1.02
   7   1  13    4.14    1.25
   8  -1  13   34.75    2.41
   8  -1  13   34.52    1.50
  -8  -1 -13   34.26    1.33
   8   1  13   32.77    2.17
   8   1  13   32.65    2.38
   9  -1  13    1.21    1.39
   9  -1  13    1.84    0.64
   9   1  13    1.98    1.19
   9   1  13    1.35    1.50
  10  -1  13    8.61    1.88
  10   1  13    7.16    1.74
  11  -1  13    1.93    1.89
  11   1  13   -3.79    1.51
  11   1  13    0.59    1.67
 -11   1 -13    2.09    1.57
  12  -1  13   11.24    2.17
  12   1  13    8.70    2.25
  12   1  13    5.24    1.95
 -12   1 -13    4.32    1.76
  13  -1  13    2.24    2.25
 -13   1 -13    4.11    2.04
  13   1  13   -2.63    2.01
  13   1  13   -1.76    2.27
  14  -1  13    7.03    2.71
  14   1  13    4.30    2.68
  15  -1  13    4.45    3.10
  15   1  13    2.79    3.01
  16  -1  13   -5.62    3.66
  16  -2 -13   -1.41    2.55
  15  -2 -13    1.55    2.34
  14  -2 -13    2.92    0.88
  14  -2 -13    2.94    0.93
  14  -2 -13    5.57    2.22
  13  -2 -13   -1.40    1.78
  13  -2 -13   -0.64    0.67
  13  -2 -13   -0.42    0.72
  12  -2 -13    1.97    0.55
 -12  -2  13    2.34    1.22
 -11  -2  13   14.61    1.43
 -10  -2  13   22.50    1.76
 -10  -2  13   23.24    2.21
  -9  -2  13    4.59    0.99
  -9  -2  13    3.70    1.39
  -8  -2  13    8.76    1.07
  -8  -2  13    9.43    1.57
   8   2 -13    8.58    1.33
  -7  -2  13    5.12    1.23
  -7  -2  13    3.93    0.92
   7  -2 -13    5.09    0.44
  -7   2  13    4.36    0.51
   7   2 -13    3.95    1.07
  -6  -2  13    3.83    1.08
   6  -2 -13    3.61    0.47
  -6  -2  13    1.97    0.80
   6   2 -13    3.73    1.02
  -6   2  13    3.72    0.64
   5  -2 -13   12.91    0.79
  -5  -2  13   13.20    1.36
  -5  -2  13   13.43    1.44
  -5   2  13   15.02    1.09
   5   2 -13   11.71    1.26
   4  -2 -13   19.57    0.94
  -4  -2  13   18.25    1.61
  -4  -2  13   18.99    1.44
  -4   2  13   21.93    1.30
   4   2 -13   20.24    1.58
  -3  -2  13    2.39    0.91
   3  -2 -13    1.10    0.56
  -3  -2  13    1.71    0.76
   3   2 -13   -0.10    0.88
  -3   2  13    0.77    0.72
  -2  -2  13    3.52    1.05
   2  -2 -13    3.72    0.69
   2   2 -13    3.56    0.91
  -2   2  13    4.82    0.73
  -2   2  13    3.74    0.83
  -1  -2  13   17.84    1.49
   1  -2 -13   18.58    1.17
  -1   2  13   19.18    1.47
   1   2 -13   19.47    1.55
  -1   2  13   20.70    1.24
   0  -2  13    2.52    0.80
   0  -2 -13    1.90    0.74
   0   2  13    2.18    0.92
   0   2  13    3.38    0.78
   0   2 -13    3.15    1.02
   1  -2  13    0.14    1.00
  -1  -2 -13    0.87    0.70
  -1   2 -13   -0.28    0.78
   1   2  13   -0.09    0.82
   1   2  13    0.50    0.73
   2  -2  13    2.19    1.13
   2   2  13    1.53    0.99
  -2   2 -13    2.39    1.05
   2   2  13    2.92    0.91
   3  -2  13   48.07    2.01
   3   2  13   53.07    2.12
  -3   2 -13   50.03    2.18
   3   2  13   49.24    2.23
   4  -2  13    2.12    0.88
  -4   2 -13    1.19    0.83
   4   2  13    3.98    1.00
   4   2  13    1.87    1.06
   5  -2  13    8.13    1.41
   5  -2  13   12.43    1.30
   5   2  13   12.93    1.48
  -5   2 -13   10.85    1.59
   6  -2  13    1.89    0.91
   6  -2  13    3.36    1.28
   6   2  13   -1.40    1.06
   6   2  13    0.83    1.27
   7  -2  13    3.62    0.95
   7  -2  13    2.27    1.42
   7   2  13    3.73    1.40
   7   2  13    3.81    1.35
   8  -2  13   -0.06    1.36
   8  -2  13   -0.34    0.82
  -8  -2 -13   -1.06    0.69
   8   2  13   -0.18    1.35
   8   2  13   -0.55    1.46
  -9  -2 -13    1.43    0.73
   9  -2  13    4.77    1.81
   9  -2  13    1.04    0.97
  -9   2 -13    3.36    1.68
   9   2  13    3.07    1.70
  10  -2  13    0.90    1.04
 -10  -2 -13    1.93    0.69
  10  -2  13    2.73    1.86
  10   2  13   -0.30    1.70
  10   2  13    1.19    1.68
 -10   2 -13   -0.66    1.47
  11  -2  13    2.07    1.06
  11  -2  13    5.46    2.24
  11   2  13    6.48    2.08
 -11   2 -13   -0.36    1.87
  11   2  13    3.64    1.99
  12  -2  13    4.76    1.19
  12  -2  13    4.65    2.40
 -12   2 -13    5.50    2.42
  12   2  13   -1.15    2.26
  12   2  13    4.53    2.33
  13  -2  13    4.80    1.16
  13  -2  13    1.71    2.45
  13   2  13    0.14    2.56
  14  -2  13    6.18    3.11
  14   2  13    8.67    3.26
  15  -2  13    7.66    3.34
 -14  -3  13   -0.66    2.20
  13  -3 -13    5.60    1.51
 -13  -3  13    3.60    2.37
 -13  -3  13    1.55    1.99
 -12  -3  13    2.77    1.79
  12  -3 -13    1.19    1.20
 -12  -3  13    1.80    2.13
  11  -3 -13    7.41    1.21
 -11  -3  13    8.71    2.07
 -11  -3  13    4.56    3.21
 -10  -3  13    0.57    1.62
  10  -3 -13   -0.22    1.00
 -10  -3  13    1.38    1.43
   9  -3 -13    3.81    1.02
  -9  -3  13    3.93    1.44
  -9  -3  13    5.35    1.72
   8  -3 -13    0.51    0.86
  -8  -3  13    0.21    1.30
  -8   3  13   -0.21    0.77
   7  -3 -13   27.63    1.57
  -7  -3  13   27.00    2.09
  -7   3  13   24.02    1.47
  -6  -3  13    1.26    1.15
   6  -3 -13    2.38    0.87
  -6   3  13    1.71    0.87
  -5  -3  13    4.22    1.28
   5  -3 -13    6.58    0.96
   5   3 -13    7.41    1.52
  -4  -3  13   -0.25    1.08
   4  -3 -13   -0.21    0.78
   4   3 -13   -2.02    1.17
  -3  -3  13    6.41    1.33
   3  -3 -13    6.41    1.01
   3   3 -13    6.14    1.49
   2  -3 -13    2.13    0.84
  -2  -3  13   -0.97    1.49
  -2  -3  13    0.52    1.12
   2   3 -13    1.83    1.21
  -1  -3  13    0.61    1.11
   1  -3 -13    0.60    0.96
  -1  -3  13    0.52    1.02
   1   3 -13   -1.29    1.15
  -1   3  13   -0.30    0.88
   0  -3 -13   -0.06    0.93
   0  -3  13   -0.41    1.00
   0   3 -13   -0.68    1.09
   0   3  13    0.60    1.09
   0   3  13   -0.06    0.98
   1  -3  13   10.13    1.54
  -1  -3 -13   11.66    1.32
   1   3  13   10.88    1.34
  -1   3 -13   10.94    1.57
   1   3  13    9.34    1.52
  -2  -3 -13    8.37    1.32
   2  -3  13    5.12    1.43
   2   3  13    3.25    1.49
  -2   3 -13    5.96    1.27
   2   3  13    4.74    1.27
   3  -3  13   15.54    1.74
  -3  -3 -13   15.49    1.65
   3   3  13   13.85    1.60
   3   3  13   13.89    1.71
   4  -3  13    1.27    1.17
  -4  -3 -13   -0.69    2.04
   4   3  13   -0.12    1.19
   4   3  13    0.45    1.31
   5  -3  13    0.49    1.25
  -5  -3 -13   -0.83    1.29
   5   3  13   -1.65    1.26
   5   3  13    2.28    1.41
   6  -3  13    7.40    1.52
  -6  -3 -13    5.46    1.51
   6   3  13    2.17    1.54
   6   3  13    5.16    1.63
   7  -3  13    2.74    1.32
   7   3  13    6.08    1.85
   8  -3  13    1.77    1.45
  -8   3 -13    1.80    1.53
   8   3  13    1.06    1.95
   8   3  13    2.05    1.74
   9  -3  13   15.82    1.89
  -9   3 -13   20.35    2.61
   9   3  13   17.92    2.65
   9   3  13   17.33    2.60
  10  -3  13   -0.99    1.47
 -10   3 -13    1.88    2.02
  10   3  13   -0.24    2.05
  10   3  13   -2.55    2.17
  11  -3  13    2.08    1.64
 -11  -3 -13   -0.29    0.94
  11   3  13   -1.00    2.43
  12  -3  13   -1.08    1.58
  12   3  13    3.01    2.94
 -13  -4  13    0.80    2.86
 -12  -4  13    3.62    2.69
 -11  -4  13   -0.92    2.36
  11  -4 -13   -1.24    1.79
 -10  -4  13    6.67    2.29
  10  -4 -13    2.81    1.76
   9  -4 -13    2.81    1.67
  -9  -4  13   -2.48    2.06
  -9  -4  13    1.10    2.02
  -9   4  13    0.79    1.42
  -8  -4  13   12.60    2.18
   8  -4 -13   11.53    1.68
  -8  -4  13    7.84    2.16
  -7  -4  13   -0.32    1.67
  -7  -4  13    0.20    1.71
   7  -4 -13    1.39    1.42
   6  -4 -13    9.70    1.59
  -6  -4  13    5.44    1.83
  -6  -4  13    9.06    1.86
  -5  -4  13    1.90    1.82
   5  -4 -13   -0.79    1.26
  -5  -4  13    0.20    1.73
  -4  -4  13   12.72    2.12
  -4  -4  13   10.58    1.97
   4  -4 -13   13.88    1.68
   4   4 -13    7.85    2.02
  -3  -4  13    6.96    1.89
   3  -4 -13    5.18    1.41
   3   4 -13    5.68    2.02
  -2  -4  13   15.49    2.13
   2  -4 -13   15.62    1.73
   2   4 -13   13.17    2.05
   1  -4 -13    1.61    1.64
  -1  -4  13    2.04    1.51
  -1  -4  13   -1.10    1.50
   1   4 -13    2.24    1.54
   0  -4 -13   16.35    1.79
   0  -4  13   12.41    1.91
   0  -4  13   14.69    1.96
   0   4  13    9.84    1.78
   0   4 -13   11.40    1.77
   1  -4  13    2.86    1.67
  -1  -4 -13    2.62    1.49
   1  -4  13    3.28    1.51
   1   4  13   -1.01    1.50
  -1   4 -13   -0.10    1.50
  -2  -4 -13    0.46    1.60
   2  -4  13   -0.08    1.63
   2   4  13   -3.10    1.57
  -2   4 -13    1.53    1.62
  -3  -4 -13    3.66    1.72
   3  -4  13   -0.96    1.70
  -3   4 -13   -0.91    1.44
  -4  -4 -13    9.62    1.94
   4  -4  13    6.69    1.92
  -4   4 -13    7.83    1.98
  -5  -4 -13    8.12    2.06
   5  -4  13    5.74    2.00
   5   4  13   10.66    2.31
  -5   4 -13    4.73    1.75
  -6  -4 -13    1.42    1.87
   6  -4  13   -2.30    1.90
   6   4  13   -0.70    2.16
  -6   4 -13   -0.54    2.07
   6   4  13   -0.42    2.21
   7  -4  13   -2.35    1.85
  -7  -4 -13   -0.38    1.96
   7   4  13    0.53    2.23
   7   4  13   -1.28    2.36
  -8  -4 -13    2.65    2.17
   8  -4  13   -0.91    2.02
   8   4  13    2.64    3.05
   8   4  13   -0.86    2.35
   9  -4  13   -0.52    2.21
  -9  -4 -13    5.09    2.38
   9   4  13   -4.94    2.46
  10  -4  13    1.94    2.36
  10   4  13    4.96    3.79
  11  -4  13   -0.88    2.47
   9  -5 -13    0.23    3.01
  -9  -5  13    1.35    2.99
  -8  -5  13   -1.69    2.88
   8  -5 -13    4.65    2.44
  -7  -5  13   -2.37    2.47
   7  -5 -13   -1.75    2.31
  -6  -5  13    2.57    2.65
   6  -5 -13    0.52    2.16
  -5  -5  13   -0.63    2.52
   5  -5 -13    0.30    2.11
  -4  -5  13    0.05    2.54
   4  -5 -13   -0.05    2.03
   3  -5 -13    4.67    2.20
  -3  -5  13    4.40    2.77
   2  -5 -13   -0.89    2.03
  -2  -5  13   -0.92    2.40
   1  -5 -13    6.88    2.26
  -1  -5  13    1.15    2.50
   0  -5  13    0.67    2.36
   0  -5 -13    4.16    2.17
  -1  -5 -13    3.19    2.22
   1  -5  13   -1.02    2.40
   2  -5  13    8.53    2.62
  -2  -5 -13    4.60    2.37
   2   5  13   -1.66    2.66
   3  -5  13    6.69    2.58
  -3  -5 -13    4.59    2.59
   3   5  13    1.22    2.84
   4  -5  13    7.82    2.72
  -4  -5 -13    4.87    2.64
  -5  -5 -13    2.30    2.72
  -6  -5 -13    2.59    2.83
  -7  -5 -13    2.56    5.70
  17   0 -14    1.78    2.91
  16   0 -14    1.25    2.57
  15   0 -14    2.80    2.25
  14   0 -14   19.49    2.43
  13   0 -14    1.69    1.66
  12   0 -14   27.79    2.47
  11   0 -14    1.83    1.35
  10   0 -14   11.42    1.62
   9   0 -14   -0.22    1.04
   8   0 -14   51.67    2.47
   7   0 -14    0.62    0.93
   7   0 -14    0.30    0.43
   6   0 -14   13.75    1.45
   6   0 -14   13.12    0.93
   5   0 -14    0.74    0.55
   5   0 -14   -0.74    0.74
   4   0 -14   11.23    1.03
   4   0 -14   13.66    1.40
  -3   0  14   -0.17    0.59
  -3   0  14   -0.24    0.27
   3   0 -14   -0.74    0.52
   3   0 -14   -0.27    0.63
   2   0 -14   10.11    1.09
  -2   0  14   10.72    0.72
  -2   0  14   13.61    1.25
   2   0 -14    9.37    1.08
   1   0 -14    0.30    0.68
  -1   0  14    0.57    0.69
   1   0 -14    0.39    0.66
   0   0 -14   22.08    1.45
   0   0  14   21.45    1.46
   0   0 -14   20.43    1.38
  -1   0 -14    0.23    0.65
  -1   0 -14   -0.80    0.59
   1   0  14   -0.91    0.70
   2   0  14   17.13    1.59
  -2   0 -14   16.75    1.43
  -2   0 -14   18.76    1.36
  -3   0 -14   -0.13    0.65
  -3   0 -14   -0.53    0.75
   3   0  14   -1.85    0.86
   4   0  14   12.50    1.56
  -4   0 -14   11.30    1.28
  -4   0 -14   10.61    1.06
  -5   0 -14    0.73    0.85
   5   0  14   -0.66    1.04
  -5   0 -14    0.12    0.69
  -6   0 -14   40.97    2.14
   6   0  14   34.90    1.92
   6   0  14   32.51    3.41
  -6   0 -14   36.19    1.59
   7   0  14   -0.64    0.92
  -7   0 -14    0.64    1.01
   7   0  14   -1.35    1.23
   8   0  14   10.90    1.80
   8   0  14   10.19    1.46
   9   0  14    0.74    1.17
   9   0  14   -0.05    1.32
  10   0  14   13.63    2.12
  11   0  14   -0.92    1.78
  11   0  14    0.68    1.62
  12   0  14    3.28    2.19
  12   0  14    1.94    1.71
  13   0  14    3.84    3.09
  13   0  14    2.72    2.53
  14   0  14    2.66    2.97
  15   0  14    2.86    3.10
  17  -1 -14    9.61    3.01
  16  -1 -14    1.29    2.55
  16   1 -14   -0.80    2.47
  15  -1 -14   -1.40    2.11
  15   1 -14   -0.14    2.17
  14  -1 -14    1.50    1.92
  14   1 -14    3.05    2.06
  13  -1 -14   12.10    1.98
  13   1 -14   12.14    2.11
  12  -1 -14   10.09    1.88
  12   1 -14    7.17    0.88
  12   1 -14    8.63    1.81
  11  -1 -14    5.59    1.64
  11   1 -14    8.17    0.92
  11   1 -14    5.60    1.76
  10  -1 -14    9.08    1.61
  10   1 -14    9.72    0.94
  10   1 -14   13.10    1.90
   9  -1 -14    5.30    1.36
   9   1 -14    6.96    0.92
   9   1 -14    5.62    1.51
  -8  -1  14    1.47    0.51
   8  -1 -14    2.33    1.09
   8   1 -14    2.03    1.15
   8   1 -14    1.84    0.76
  -7  -1  14    9.27    0.78
   7  -1 -14    7.30    1.23
   7   1 -14    8.13    1.87
   7   1 -14    8.44    0.96
  -6  -1  14    0.05    0.44
   6  -1 -14   -0.25    0.84
   6   1 -14    0.22    0.92
   6   1 -14   -0.21    0.67
   5  -1 -14    6.98    1.07
  -5  -1  14    7.02    1.06
  -5  -1  14    6.29    0.65
  -5   1  14    7.71    0.75
   5   1 -14    6.89    1.09
   5   1 -14    7.17    0.94
  -4  -1  14    4.21    0.93
  -4  -1  14    4.37    0.63
   4  -1 -14    5.36    1.02
   4   1 -14    4.57    0.83
   4   1 -14    4.87    1.02
  -4   1  14    3.80    0.72
  -3  -1  14   61.18    2.13
   3  -1 -14   60.06    2.16
   3   1 -14   58.37    1.91
   3   1 -14   61.67    2.27
  -3   1  14   59.44    1.06
  -3   1  14   60.33    1.74
   2  -1 -14   25.15    1.52
  -2   1  14   26.99    1.43
   2   1 -14   28.25    1.51
   2   1 -14   24.62    1.64
  -2   1  14   26.33    0.94
  -1  -1  14    2.36    0.66
   1  -1 -14    1.34    0.74
   1   1 -14    0.24    0.67
  -1   1  14    1.28    0.75
   1   1 -14    0.49    0.73
  -1   1  14    1.92    0.50
   0  -1  14    2.43    0.79
   0  -1 -14    1.39    0.73
   0  -1  14    1.65    0.85
   0   1  14    2.36    0.83
   0   1  14    1.89    0.61
   0   1 -14    2.33    0.75
   0   1 -14    1.47    0.76
   1  -1  14   65.95    2.36
  -1  -1 -14   68.32    2.13
   1  -1  14   69.95    2.19
   1   1  14   66.59    1.81
  -1   1 -14   70.17    2.27
   1   1  14   65.15    2.22
  -1   1 -14   68.85    2.25
   2  -1  14    0.47    0.90
  -2  -1 -14    0.57    0.76
   2  -1  14    1.72    0.77
  -2   1 -14    1.23    0.85
   2   1  14    0.96    0.89
   2   1  14    1.52    0.67
   3  -1  14   43.33    2.20
   3  -1  14   47.04    1.86
  -3  -1 -14   40.28    1.69
   3   1  14   44.12    2.07
  -3   1 -14   43.08    2.01
   3   1  14   45.49    1.79
  -4  -1 -14    0.63    0.62
   4  -1  14    1.04    1.11
   4  -1  14    1.78    0.75
  -4   1 -14   -0.33    0.86
   4   1  14   -0.60    0.79
   4   1  14    1.24    0.91
  -5  -1 -14   15.98    1.27
   5  -1  14   15.10    1.33
   5  -1  14   17.04    1.80
   5   1  14   15.55    1.57
  -5   1 -14   15.21    1.66
   5   1  14   12.76    1.31
  -6  -1 -14    0.24    0.67
   6  -1  14    0.61    0.74
   6  -1  14    0.85    1.16
  -6   1 -14    0.13    0.99
   6   1  14    0.25    1.15
   6   1  14   -1.48    0.95
   7  -1  14   14.53    1.78
  -7  -1 -14   12.63    1.19
   7  -1  14   12.74    1.30
   7   1  14   13.69    1.54
   7   1  14   10.96    1.66
  -8  -1 -14    0.04    0.67
   8  -1  14    0.29    1.39
   8  -1  14    0.74    0.66
   8   1  14    0.76    1.19
   8   1  14    0.48    1.37
   9  -1  14    1.05    1.44
   9   1  14    0.52    1.53
  10  -1  14    3.36    1.65
 -10   1 -14    2.68    1.68
  10   1  14   -0.13    1.62
  10   1  14    0.48    1.52
  11  -1  14   33.39    3.20
  11   1  14   31.70    2.87
 -11   1 -14   27.19    2.92
  11   1  14   28.48    2.68
  12  -1  14    3.31    2.07
  12   1  14   -1.66    1.95
  12   1  14   -1.64    2.07
 -12   1 -14    1.33    1.99
  13  -1  14   -0.76    2.30
  13   1  14    2.24    2.46
 -13   1 -14    3.35    3.67
  14  -1  14    1.91    2.68
  14   1  14    4.00    2.79
  15  -1  14    7.78    3.23
  15   1  14   10.80    5.31
  16  -2 -14   -2.37    2.79
  15  -2 -14    2.92    2.49
  14  -2 -14   -1.90    2.16
  14   2 -14    1.35    1.73
  13  -2 -14    1.53    2.01
  13   2 -14    3.43    1.63
 -12  -2  14   -0.41    1.16
  12  -2 -14   -2.54    1.69
  12   2 -14    1.52    1.43
 -11  -2  14    3.77    1.17
  11   2 -14    3.82    1.35
 -10  -2  14    2.14    1.02
  10   2 -14    0.80    1.22
  -9  -2  14    9.22    1.15
   9   2 -14    9.85    1.45
  -8  -2  14   24.66    2.20
  -8  -2  14   23.63    1.56
   8   2 -14   27.55    2.01
  -7  -2  14   11.22    1.16
  -7  -2  14   10.76    1.57
  -7   2  14   11.50    0.76
   7   2 -14   12.22    1.34
  -6  -2  14    0.78    0.83
  -6  -2  14    1.52    0.98
   6   2 -14    2.71    1.05
  -6   2  14    2.43    0.63
  -5  -2  14    3.20    0.87
  -5  -2  14    3.31    1.10
  -5   2  14    3.25    0.76
   5   2 -14    1.82    1.02
  -4  -2  14   14.87    1.41
  -4  -2  14   12.85    1.32
  -4   2  14   16.17    1.35
   4   2 -14   15.53    1.65
  -3  -2  14   14.56    1.29
  -3  -2  14   15.52    1.56
   3   2 -14   10.66    1.32
  -3   2  14   13.76    1.38
  -2  -2  14    1.60    0.80
  -2   2  14    0.74    0.81
  -2   2  14    0.56    0.62
   2   2 -14    1.24    0.93
  -1  -2  14    8.33    1.12
   1   2 -14    6.86    1.40
  -1   2  14    8.58    0.96
  -1   2  14    9.02    1.18
   0  -2  14    2.25    0.99
   0   2  14    3.41    0.84
   0   2 -14    2.32    0.92
   0   2  14    3.18    0.99
   1  -2  14   14.29    1.50
   1   2  14   15.21    1.37
   1   2  14   13.83    1.45
  -1   2 -14   12.50    1.48
   2  -2  14    0.78    0.85
   2   2  14    2.39    0.88
  -2   2 -14    2.24    1.10
   2   2  14    1.84    0.94
   3  -2  14    0.12    0.75
  -3   2 -14   -0.64    0.90
   3   2  14    1.31    1.08
   3   2  14    1.35    0.94
   4  -2  14    5.99    1.14
   4   2  14    6.95    1.53
  -4   2 -14    6.56    1.42
   5  -2  14   -0.25    1.12
   5  -2  14   -1.46    1.65
  -5   2 -14    1.24    1.00
   5   2  14    2.14    1.23
   5   2  14    1.61    1.12
   6  -2  14   10.98    1.51
   6  -2  14   11.15    1.65
   6   2  14    8.28    1.48
   6   2  14   10.47    1.65
   7  -2  14    3.83    1.65
  -7  -2 -14    6.14    0.98
   7  -2  14    5.12    1.13
   7   2  14    6.35    1.53
   7   2  14    6.94    1.52
   8  -2  14    1.55    1.61
  -8  -2 -14    1.04    0.83
   8  -2  14    1.72    1.05
   8   2  14    6.36    1.84
   9  -2  14    4.94    1.95
  -9  -2 -14    1.61    0.80
   9  -2  14    1.12    1.06
  -9   2 -14    1.66    1.50
   9   2  14    0.09    1.62
   9   2  14    4.32    1.65
  10  -2  14    2.66    1.89
  10  -2  14    2.05    1.10
 -10  -2 -14    1.17    0.74
  10   2  14    3.36    1.90
  10   2  14    4.27    2.01
 -10   2 -14   -0.88    1.75
  11  -2  14   -1.08    1.09
  11  -2  14    0.44    2.09
  11   2  14   -1.26    2.16
 -11   2 -14   -0.03    2.03
  11   2  14    0.96    2.09
  12  -2  14   -2.44    2.26
  12  -2  14    3.23    1.20
  12   2  14    2.08    2.44
  13  -2  14    0.36    2.55
  13   2  14    2.06    2.89
  14  -2  14    3.03    3.27
 -14  -3  14   -2.44    2.28
 -13  -3  14    0.57    2.04
 -13  -3  14    3.49    2.45
 -12  -3  14    1.28    2.19
 -12  -3  14    5.15    1.93
  12  -3 -14    2.15    1.03
  11  -3 -14    1.07    0.99
 -11  -3  14   -0.17    3.05
 -11  -3  14    2.99    2.14
 -10  -3  14    5.23    1.59
  10  -3 -14    2.68    0.97
 -10  -3  14    5.49    1.93
  -9  -3  14    0.61    1.35
   9  -3 -14    0.34    0.86
  -9  -3  14    0.03    1.65
  -8  -3  14   12.69    1.72
   8  -3 -14    9.58    1.01
  -8  -3  14   12.32    2.00
   8   3 -14   10.49    1.86
  -8   3  14   12.33    1.22
  -7  -3  14   -0.48    1.20
   7  -3 -14    1.15    0.81
  -7  -3  14   -1.62    1.35
   7   3 -14   -0.64    1.41
  -7   3  14   -0.97    0.85
  -6  -3  14   18.83    1.77
   6  -3 -14   19.21    1.43
  -6   3  14   18.62    1.61
   6   3 -14   18.36    2.00
   5  -3 -14    6.92    1.02
  -5  -3  14    5.84    1.39
   5   3 -14    8.64    1.59
  -5   3  14    6.67    1.14
  -4  -3  14   15.48    1.65
   4  -3 -14   19.20    1.50
   4   3 -14   18.81    1.92
  -4   3  14   17.14    1.76
   3  -3 -14    1.98    0.97
  -3  -3  14    1.24    1.17
  -3   3  14    0.09    0.99
   3   3 -14    1.05    1.35
   2  -3 -14    1.77    0.98
  -2  -3  14    0.57    1.43
  -2  -3  14    2.98    1.22
  -2   3  14    0.57    1.01
   2   3 -14    1.24    1.32
  -1  -3  14    2.37    1.25
  -1  -3  14    2.55    1.15
   1  -3 -14    1.44    0.95
  -1   3  14    1.27    1.11
  -1   3  14    1.46    1.00
   1   3 -14    0.95    1.27
   0  -3 -14    3.07    1.04
   0  -3  14    1.02    1.24
   0   3  14    2.22    1.24
   0   3 -14    0.50    1.27
   0   3  14    1.94    1.11
  -1  -3 -14    2.63    1.12
   1  -3  14   -1.82    1.11
   1   3  14   -0.79    1.23
   1   3  14    1.34    1.11
  -1   3 -14    0.57    1.14
  -2  -3 -14   25.81    2.08
   2  -3  14   21.16    2.20
  -2   3 -14   21.22    2.21
   2   3  14   22.07    2.06
   2   3  14   24.04    2.38
   3  -3  14    1.85    1.29
  -3  -3 -14   -0.70    1.18
  -3   3 -14   -0.90    1.12
   3   3  14    1.14    1.25
   3   3  14    0.49    1.34
   4  -3  14   22.67    2.32
  -4  -3 -14   25.24    2.22
   4   3  14   24.00    2.29
   4   3  14   26.07    2.47
   5  -3  14   -0.55    1.29
  -5  -3 -14    2.84    1.39
   5   3  14   -2.38    1.44
   5   3  14    0.74    1.48
   6  -3  14    3.22    1.45
   6   3  14    3.08    1.71
   7  -3  14   -1.00    1.37
  -7   3 -14    0.89    1.67
   7   3  14   -0.19    2.08
   7   3  14   -0.08    1.71
   8  -3  14    1.90    1.46
  -8   3 -14    5.91    1.97
   8   3  14    2.18    2.00
   8   3  14    3.62    1.98
   9  -3  14   -2.37    1.37
  -9   3 -14   -3.91    1.79
   9   3  14   -0.32    2.03
   9   3  14    2.72    2.29
  10  -3  14    8.60    1.71
  10   3  14   10.56    2.84
  10   3  14    9.68    2.79
  11  -3  14   -0.93    1.59
 -11  -3 -14   -0.37    1.03
  11   3  14    2.62    2.81
  12  -3  14    3.72    1.76
  12   3  14   11.62    3.69
 -12  -4  14    2.73    2.84
 -11  -4  14    1.07    2.41
  10  -4 -14    2.29    1.69
 -10  -4  14    2.11    2.38
   9  -4 -14    1.21    1.57
  -9  -4  14    1.67    2.13
  -9   4  14   -0.56    1.22
  -8  -4  14    1.31    1.96
   8  -4 -14   -0.28    1.46
   7  -4 -14   12.26    1.66
  -7  -4  14    7.64    2.16
  -7  -4  14    7.46    2.00
  -6  -4  14    6.54    1.94
   6  -4 -14    6.34    1.47
  -6  -4  14    2.74    1.78
   6   4 -14    6.49    2.24
   5  -4 -14    4.07    1.41
  -5  -4  14    2.94    1.81
  -5  -4  14    4.17    1.94
   5   4 -14    5.63    2.27
  -4  -4  14    0.50    1.79
  -4  -4  14   -0.32    1.77
   4  -4 -14    0.03    1.34
   4   4 -14   -1.21    1.83
  -3  -4  14   16.40    2.14
   3  -4 -14   16.52    1.71
  -3  -4  14   16.30    2.14
   3   4 -14   16.38    2.34
  -2  -4  14    6.20    1.95
   2  -4 -14    3.50    1.53
  -2  -4  14    5.23    1.78
   2   4 -14    7.64    1.96
  -1  -4  14   17.77    2.36
  -1  -4  14   16.82    2.19
   1  -4 -14   11.35    3.08
   1   4 -14   10.36    2.18
   0  -4  14    2.22    1.76
   0  -4  14    2.74    1.77
   0  -4 -14   -0.26    1.53
   0   4 -14   -0.13    1.75
   0   4  14    1.55    1.60
   1  -4  14   12.77    1.98
  -1  -4 -14   14.71    1.94
   1  -4  14   11.14    1.95
  -1   4 -14   13.49    2.14
   1   4  14    8.88    1.93
   2  -4  14    4.55    1.78
  -2  -4 -14    1.64    1.69
  -2   4 -14    1.02    1.79
   2   4  14   -1.10    1.64
   3  -4  14    2.75    1.95
  -3  -4 -14    6.57    1.79
   3   4  14    5.31    2.06
  -3   4 -14    5.91    1.88
  -4  -4 -14    0.18    1.82
   4  -4  14   -1.04    1.89
   4   4  14    2.66    2.09
   4   4  14    2.23    2.02
  -4   4 -14    2.68    1.75
  -5  -4 -14   -1.20    1.89
   5  -4  14    0.80    2.05
  -5   4 -14   -1.86    2.02
   5   4  14    1.14    2.09
   5   4  14   -0.25    2.23
  -6  -4 -14   -4.38    2.03
   6  -4  14   -1.91    1.99
   6   4  14    0.52    2.24
   6   4  14   -0.47    2.41
  -7  -4 -14    2.96    2.19
   7  -4  14    3.92    2.16
   7   4  14   -4.01    2.42
   7   4  14    5.50    2.79
   8  -4  14    4.54    2.26
  -8  -4 -14    5.93    2.39
   8   4  14   -0.18    2.56
   9  -4  14    0.15    2.30
   9   4  14   -1.38    2.77
  10  -4  14    1.18    2.55
  11  -4  14    1.60    2.79
   8  -5 -14   -3.72    3.24
  -8  -5  14   -1.29    3.10
   7  -5 -14    2.04    2.39
  -7  -5  14    0.33    2.80
   6  -5 -14    2.21    2.30
  -6  -5  14   -4.76    2.69
   5  -5 -14    3.07    2.29
  -5  -5  14    2.14    2.71
  -4  -5  14    2.59    2.73
   4  -5 -14    4.07    2.26
   3  -5 -14   -0.06    2.16
  -3  -5  14    3.64    2.79
   2  -5 -14    5.95    2.23
  -2  -5  14    0.75    2.71
   1  -5 -14    1.75    2.22
  -1  -5  14   -1.75    2.45
   0  -5 -14    3.79    2.33
   0  -5  14    3.19    2.77
   1  -5  14   -0.80    2.75
  -1  -5 -14    2.40    2.44
   2  -5  14    6.47    2.67
  -2  -5 -14    2.65    2.61
   2   5  14    0.74    2.82
   3  -5  14    1.55    2.58
  -3  -5 -14    2.92    2.60
   3   5  14   -1.55    2.96
   4  -5  14    6.47    2.91
  -4  -5 -14    3.73    2.76
  -5  -5 -14    6.03    2.85
  -6  -5 -14    8.15    3.29
  17   0 -15    1.33    3.32
  16   0 -15   -2.97    2.76
  15   0 -15    5.68    2.50
  14   0 -15    0.60    2.13
  13   0 -15    2.24    1.97
  12   0 -15    3.43    1.75
  11   0 -15   26.82    2.56
  10   0 -15   -1.25    1.20
   9   0 -15   13.61    1.69
   8   0 -15    1.02    1.09
   7   0 -15   24.29    1.04
   7   0 -15   25.11    1.99
   6   0 -15    0.19    0.54
   6   0 -15   -0.80    1.25
   5   0 -15   19.48    1.66
   5   0 -15   19.17    1.19
   4   0 -15    0.64    0.62
   4   0 -15    0.13    0.77
  -3   0  15   14.06    0.65
   3   0 -15   14.90    1.24
   3   0 -15   15.41    1.55
  -3   0  15   12.40    1.26
   2   0 -15    1.11    0.68
   2   0 -15    2.69    0.88
  -2   0  15    0.34    0.41
  -2   0  15    0.26    0.76
  -1   0  15   19.87    1.00
  -1   0  15   21.43    1.54
   1   0 -15   21.27    1.45
   1   0 -15   22.27    1.49
   0   0 -15   -0.05    0.75
   0   0  15   -0.52    0.51
   0   0  15   -0.51    0.78
   0   0 -15    1.28    0.75
  -1   0 -15    5.43    0.94
  -1   0 -15    8.98    1.16
   1   0  15    8.33    1.17
   2   0  15    0.42    0.87
  -2   0 -15   -0.84    0.73
  -2   0 -15   -0.32    0.81
  -3   0 -15   30.55    1.93
  -3   0 -15   31.83    1.68
   3   0  15   31.08    2.06
  -4   0 -15   -0.67    0.76
   4   0  15   -0.21    0.99
  -4   0 -15    0.39    0.86
  -5   0 -15   31.39    2.01
  -5   0 -15   35.04    1.69
   5   0  15   27.04    2.94
  -6   0 -15    0.81    0.82
   6   0  15   -0.21    1.21
  -6   0 -15    3.12    1.01
   6   0  15    1.13    0.98
   7   0  15    4.10    1.07
  -7   0 -15    4.46    1.21
   7   0  15    3.54    1.46
   8   0  15    0.02    1.53
   8   0  15    2.27    1.21
   9   0  15   26.20    2.71
  10   0  15   -1.78    1.72
  10   0  15    2.64    1.64
  11   0  15    0.71    2.12
  11   0  15    3.19    1.73
  12   0  15   -0.30    1.88
  12   0  15    1.29    2.30
  13   0  15   20.86    3.26
  14   0  15    3.30    2.92
  16  -1 -15    3.15    2.79
  16   1 -15   -0.72    2.84
  15  -1 -15   -0.63    2.28
  15   1 -15    0.69    2.37
  14  -1 -15    5.98    2.22
  14   1 -15    6.76    2.33
  13  -1 -15    1.44    1.86
  13   1 -15    1.65    1.94
  12  -1 -15    1.09    1.59
  12   1 -15    0.22    1.75
  12   1 -15    0.46    0.69
  11  -1 -15    4.00    1.59
  11   1 -15    3.62    0.85
  11   1 -15    5.03    1.84
  10  -1 -15   15.57    1.94
  10   1 -15   16.30    1.35
  10   1 -15   17.20    2.11
   9  -1 -15    2.20    1.28
   9   1 -15    5.42    1.52
   9   1 -15    5.69    0.93
   8  -1 -15   -2.08    1.03
   8   1 -15    0.35    1.23
   8   1 -15   -0.29    0.78
  -7  -1  15    8.40    0.76
   7  -1 -15    6.86    1.33
   7   1 -15    5.77    1.35
   7   1 -15    8.33    1.02
  -6  -1  15   33.48    1.05
   6  -1 -15   32.73    2.06
   6   1 -15   34.76    1.62
   6   1 -15   32.52    2.24
  -5  -1  15    4.95    0.63
   5  -1 -15    1.78    1.71
   5   1 -15    2.72    0.88
   5   1 -15    5.40    2.18
  -5   1  15    5.47    0.77
  -4  -1  15   13.09    1.02
   4  -1 -15   15.33    1.55
  -4  -1  15   15.01    1.49
   4   1 -15   11.24    1.33
   4   1 -15   12.88    1.20
  -4   1  15   14.40    1.18
  -3  -1  15   13.52    1.41
   3  -1 -15   13.52    1.39
  -3   1  15   12.56    0.64
   3   1 -15   10.07    1.24
   3   1 -15   11.88    1.18
  -3   1  15   12.17    1.16
  -2  -1  15   26.97    1.66
   2  -1 -15   26.77    1.67
  -2   1  15   28.97    1.02
   2   1 -15   29.76    1.67
  -2   1  15   29.59    1.59
   2   1 -15   30.65    1.87
   1  -1 -15   12.47    1.32
  -1  -1  15   12.64    1.32
  -1   1  15   13.19    1.29
   1   1 -15   13.16    1.35
  -1   1  15   11.81    0.95
   1   1 -15   14.92    1.46
   0  -1  15   25.66    1.92
   0  -1 -15   25.01    1.58
   0  -1  15   24.91    1.81
   0   1  15   23.80    1.23
   0   1  15   26.41    1.71
   0   1 -15   25.54    1.74
   0   1 -15   23.82    1.71
   1  -1  15    0.42    0.86
  -1  -1 -15    1.55    0.78
   1  -1  15    0.33    0.77
   1   1  15    0.36    0.64
  -1   1 -15    1.48    0.91
  -1   1 -15    1.66    0.97
   1   1  15   -0.27    0.83
   2  -1  15    1.24    0.80
   2  -1  15    1.34    1.09
  -2  -1 -15    0.64    0.76
  -2   1 -15    1.45    0.95
   2   1  15    1.09    1.02
   2   1  15    0.69    0.68
  -3  -1 -15    1.38    0.79
   3  -1  15    0.52    0.80
   3  -1  15    1.07    1.00
   3   1  15    0.25    0.99
   3   1  15    0.37    0.81
  -3   1 -15   -0.04    0.90
   4  -1  15   40.72    2.53
   4  -1  15   45.46    1.90
  -4  -1 -15   40.91    1.76
   4   1  15   40.05    1.97
  -4   1 -15   42.50    2.22
   4   1  15   45.21    2.46
  -5  -1 -15    5.81    1.00
   5  -1  15    4.75    1.00
   5  -1  15    6.38    1.44
  -5   1 -15    4.98    1.20
   5   1  15    4.75    1.61
   5   1  15    4.41    1.11
   6  -1  15    2.59    0.81
   6  -1  15    2.98    1.32
  -6  -1 -15    3.71    0.88
   6   1  15    3.02    1.21
   6   1  15    2.99    1.36
  -6   1 -15    1.60    1.14
  -7  -1 -15    1.31    0.76
   7  -1  15    0.58    1.31
   7  -1  15    1.57    0.82
   7   1  15    2.21    1.35
   7   1  15   -0.49    1.24
  -8  -1 -15   13.49    1.37
   8  -1  15   14.84    2.09
   8   1  15   12.69    1.91
   8   1  15   14.22    1.79
   9  -1  15    1.79    1.48
   9   1  15   -0.66    1.64
  10  -1  15    0.33    1.65
  10   1  15   -0.84    1.69
  10   1  15   -1.81    1.71
 -10   1 -15    0.34    1.81
  11  -1  15    0.95    1.97
  11   1  15   -2.51    1.86
  11   1  15   -0.99    1.92
 -11   1 -15    3.54    2.01
  12  -1  15    6.14    2.36
  12   1  15   -0.49    2.24
 -12   1 -15    8.37    2.27
  12   1  15    5.79    2.52
  13  -1  15   -0.67    2.41
  13   1  15    2.39    2.56
  14  -1  15    1.45    2.95
  14   1  15    3.01    3.12
  15  -2 -15   -4.99    2.61
  14  -2 -15    3.78    2.37
  13  -2 -15    0.67    2.09
  13   2 -15    5.03    1.59
  12  -2 -15    4.71    2.02
  12   2 -15    5.33    1.55
 -11  -2  15    6.00    1.25
  11  -2 -15    3.07    1.72
  11   2 -15    6.21    1.40
 -10  -2  15   14.94    1.37
  10   2 -15   13.62    1.56
  -9  -2  15    5.03    1.06
   9   2 -15    4.64    1.35
  -8  -2  15    3.95    0.96
   8   2 -15    2.78    1.25
  -7  -2  15    9.72    1.10
  -7   2  15    9.02    0.82
   7   2 -15    7.29    1.36
  -6  -2  15   12.55    1.23
   6   2 -15   12.82    1.44
  -6   2  15   13.39    1.15
  -5  -2  15   11.98    1.22
  -5   2  15   12.71    1.12
   5   2 -15   14.42    1.53
  -4  -2  15   11.75    1.25
  -4   2  15   12.97    1.17
   4   2 -15   11.66    1.38
  -3  -2  15   -0.77    0.87
  -3  -2  15    1.57    0.89
  -3   2  15    0.80    0.88
   3   2 -15    1.77    1.94
  -2  -2  15    3.81    1.05
  -2   2  15    8.11    1.15
   2   2 -15    6.39    1.22
  -2   2  15    5.40    0.83
  -1  -2  15   12.27    1.42
  -1   2  15   11.47    1.08
  -1   2  15   15.30    1.64
   1   2 -15   13.55    1.57
   0  -2  15   31.55    1.97
   0   2 -15   32.23    2.07
   0   2  15   27.99    1.57
   0   2  15   34.62    2.05
   1  -2  15    6.23    1.20
   1   2  15    7.10    1.33
   1   2  15    6.10    1.02
  -1   2 -15    7.70    1.44
   2  -2  15   28.09    1.92
   2   2  15   31.82    2.19
   2   2  15   27.37    1.81
  -2   2 -15   27.25    2.04
   3  -2  15   -0.63    0.89
  -3   2 -15   -2.03    0.94
   3   2  15    0.67    0.98
   3   2  15    1.25    1.19
   4  -2  15   13.61    1.46
   4   2  15   18.23    1.71
   4   2  15   21.92    2.15
  -4   2 -15   15.02    1.63
   5  -2  15    4.47    1.08
   5   2  15    4.10    1.44
   5   2  15    5.39    1.42
  -5   2 -15    1.90    1.19
   6  -2  15    7.60    1.70
  -6  -2 -15    5.54    1.02
   6  -2  15    7.23    1.25
   6   2  15    7.84    1.60
   6   2  15    6.78    1.60
   7  -2  15   -0.96    1.49
  -7  -2 -15   -1.32    0.89
   7  -2  15    0.76    1.10
   7   2  15    1.20    1.47
   7   2  15   -1.01    1.40
   8  -2  15    9.37    1.62
  -8  -2 -15   10.62    1.19
   8  -2  15    6.33    1.92
   8   2  15   12.26    2.12
   9  -2  15   12.35    2.12
  -9  -2 -15   11.54    1.19
   9  -2  15   10.35    1.50
   9   2  15   11.03    2.13
   9   2  15   12.83    2.38
  -9   2 -15   11.84    2.08
  10  -2  15    5.99    2.23
  10  -2  15    3.42    1.29
 -10  -2 -15    4.28    0.91
  10   2  15    5.07    2.16
  10   2  15    1.23    1.98
 -10   2 -15    2.15    1.98
  11  -2  15    1.93    2.34
  11  -2  15    1.14    1.28
 -11   2 -15   -1.85    2.56
  11   2  15    2.10    2.25
  11   2  15   -0.56    2.31
  12  -2  15    1.60    1.29
  12  -2  15   -0.35    2.44
  12   2  15    0.89    2.55
  13  -2  15    3.05    3.25
  13   2  15    3.91    3.10
 -13  -3  15    0.30    2.07
  13   3 -15   -0.99    2.50
 -12  -3  15    0.26    1.97
  12   3 -15   -0.64    2.22
 -11  -3  15    5.04    2.05
 -11  -3  15    2.75    2.26
  11   3 -15   -0.61    2.04
 -10  -3  15    4.30    2.15
 -10  -3  15    0.43    1.55
  10  -3 -15    1.50    0.75
  10   3 -15   -0.41    1.91
  -9  -3  15    2.28    1.51
   9  -3 -15    2.83    0.80
  -9  -3  15    4.39    1.81
   9   3 -15    3.92    1.90
  -8  -3  15   -3.46    1.54
  -8  -3  15    0.06    1.36
   8  -3 -15    1.01    0.78
  -8   3  15    0.41    0.81
   8   3 -15   -0.89    1.63
   7  -3 -15    6.69    0.96
  -7  -3  15    7.64    1.90
  -7  -3  15    6.75    1.43
  -7   3  15    6.53    1.04
   7   3 -15    8.35    1.90
   6  -3 -15    5.05    0.96
  -6  -3  15    4.52    1.42
  -6  -3  15    2.51    1.29
   6   3 -15    6.84    1.72
  -6   3  15    3.91    1.10
   5  -3 -15   10.02    1.14
  -5  -3  15   11.69    1.70
   5   3 -15   10.63    1.70
  -5   3  15   10.93    1.39
  -4  -3  15   -1.25    1.17
   4  -3 -15    1.03    0.91
  -4   3  15   -0.41    1.11
   4   3 -15   -1.28    1.22
  -3  -3  15   10.58    1.53
   3  -3 -15   10.97    1.25
   3   3 -15    9.09    1.69
  -3   3  15   10.81    1.46
  -2  -3  15    2.05    1.21
   2  -3 -15    2.14    1.00
  -2  -3  15    3.26    1.30
   2   3 -15    1.66    1.37
  -2   3  15   -0.27    1.18
  -1  -3  15   10.45    1.47
   1  -3 -15   13.72    1.42
  -1  -3  15   12.38    1.58
  -1   3  15   13.49    1.63
  -1   3  15   12.53    1.46
   1   3 -15   12.59    1.83
   0  -3 -15   -1.31    0.98
   0  -3  15   -0.32    1.17
   0   3 -15    0.87    1.33
   0   3  15    0.47    1.15
   0   3  15    1.07    1.30
   1  -3  15   10.13    1.59
  -1  -3 -15   11.90    1.54
   1   3  15    6.68    2.35
  -1   3 -15   12.81    1.82
   1   3  15    8.51    1.93
   2  -3  15    0.54    1.23
  -2  -3 -15   -0.13    1.22
   2   3  15    1.61    1.34
  -2   3 -15    0.74    1.47
   2   3  15    0.16    1.33
  -3  -3 -15   14.62    3.10
   3  -3  15    9.98    1.62
  -3   3 -15   11.65    1.80
   3   3  15    8.09    1.73
   3   3  15   11.41    1.79
   4  -3  15    8.59    1.60
  -4   3 -15    3.26    1.36
   4   3  15    5.10    1.65
   4   3  15    7.79    1.60
   5  -3  15   16.16    1.83
   5   3  15   22.17    2.47
   5   3  15   18.95    2.10
   6  -3  15    4.09    1.48
  -6   3 -15   -2.53    2.01
   6   3  15    2.79    1.86
   7  -3  15   -0.04    1.42
   7   3  15   -0.88    1.98
   7   3  15    2.45    1.96
  -7   3 -15    1.72    1.70
   8  -3  15    4.78    1.61
   8   3  15    2.91    2.27
  -8   3 -15    6.44    2.08
   8   3  15    5.63    2.30
   9  -3  15    2.78    1.56
   9   3  15    2.66    2.46
   9   3  15    4.11    2.64
 -10  -3 -15    0.46    1.21
  10  -3  15    1.18    1.56
  10   3  15    1.80    2.56
  11  -3  15    3.66    1.76
  11   3  15    8.16    2.96
 -11  -4  15   -0.74    2.55
 -10  -4  15    3.91    2.41
   9  -4 -15    2.63    1.57
  -9  -4  15    0.75    2.25
   9   4 -15   -0.73    2.72
   8  -4 -15   -0.07    1.48
  -8  -4  15    0.25    2.00
  -8   4  15   -0.43    1.37
   8   4 -15   -2.15    2.43
  -7  -4  15    1.25    1.90
   7  -4 -15    2.40    1.48
  -7   4  15   -1.06    1.43
   7   4 -15    1.91    2.51
  -6  -4  15   -1.30    1.80
   6  -4 -15    3.19    1.45
   6   4 -15    1.94    2.32
  -6   4  15    2.85    1.56
   5  -4 -15    4.48    1.47
  -5  -4  15    1.33    1.85
  -5  -4  15    2.72    1.97
  -5   4  15    3.36    1.69
   5   4 -15    8.56    2.48
  -4  -4  15    2.48    1.97
  -4  -4  15    0.94    1.95
   4  -4 -15    2.99    1.46
   4   4 -15    5.78    2.24
  -4   4  15   -0.52    1.58
  -3  -4  15    5.94    1.99
   3  -4 -15    3.94    1.55
  -3  -4  15    5.36    2.01
   3   4 -15    7.94    2.06
  -2  -4  15    4.53    1.88
  -2  -4  15    7.71    2.02
   2  -4 -15   10.23    1.76
   2   4 -15    6.09    2.01
  -1  -4  15   -1.30    1.71
  -1  -4  15    0.18    1.99
   1  -4 -15    2.05    1.86
   1   4 -15    0.24    1.91
  -1   4  15    0.67    1.74
   0  -4  15    9.52    2.08
   0  -4  15    8.32    2.03
   0  -4 -15   10.22    1.75
   0   4  15    4.58    1.95
   0   4 -15    7.52    2.13
   0   4  15    5.28    1.92
   1  -4  15    6.42    1.93
  -1  -4 -15    6.00    1.83
   1  -4  15    4.31    2.01
   1   4  15    3.03    1.75
  -1   4 -15    2.69    1.95
   1   4  15    3.34    2.03
   2  -4  15    3.71    2.02
  -2  -4 -15    9.09    1.90
  -2   4 -15    6.11    2.11
   2   4  15   -0.18    3.07
   2   4  15    1.52    1.99
  -3  -4 -15   -1.64    1.80
   3  -4  15    1.17    1.99
  -3   4 -15    1.68    1.93
   3   4  15   -0.44    2.09
  -4  -4 -15    9.97    2.17
   4  -4  15    9.64    2.39
   4   4  15    9.78    2.46
   4   4  15    8.67    2.31
  -4   4 -15    6.62    2.19
  -5  -4 -15   -0.90    2.09
   5  -4  15   -0.80    2.12
   5   4  15    0.56    2.32
   5   4  15   -2.75    2.11
  -6  -4 -15    1.77    2.15
   6  -4  15    0.12    2.20
   6   4  15   -0.66    2.51
   6   4  15    1.29    2.42
   7  -4  15    2.54    2.31
   7   4  15    2.49    3.30
   7   4  15   -4.44    2.54
   8  -4  15    7.34    2.55
   8   4  15    3.88    2.73
   9  -4  15    1.82    2.59
  10  -4  15   -1.26    2.64
  -7  -5  15    0.82    2.97
   6  -5 -15    1.54    2.40
  -6  -5  15   -2.40    2.76
   5  -5 -15    4.28    2.33
  -5  -5  15   -0.43    2.68
  -4  -5  15    1.33    2.66
   4  -5 -15    5.43    2.35
   3  -5 -15    1.73    2.28
  -3  -5  15    4.66    2.73
  -2  -5  15    1.25    2.87
   2  -5 -15    5.63    2.47
   1  -5 -15   -0.83    2.33
  -1  -5  15   -5.39    2.57
   0  -5  15    3.29    2.99
   0  -5 -15    2.92    2.64
   1  -5  15   -3.82    2.88
  -1  -5 -15    0.95    2.59
  -2  -5 -15    2.72    2.68
   2  -5  15    6.32    2.69
   2   5  15   -3.39    2.89
   3  -5  15    1.01    2.96
  -3  -5 -15    4.39    2.81
  -4  -5 -15   -0.04    2.93
   4   5  15   -5.71    3.19
  -5  -5 -15    8.11    3.18
  -6  -5 -15    4.77    5.90
  16   0 -16    2.63    3.02
  15   0 -16    2.54    2.64
  14   0 -16    0.50    2.35
  13   0 -16    2.68    2.14
  12   0 -16    1.17    1.86
  11   0 -16   -0.20    1.53
  10   0 -16   11.33    1.90
   9   0 -16    0.95    1.32
   8   0 -16    7.20    1.49
   7   0 -16    0.51    1.06
   7   0 -16   -0.07    0.59
   6   0 -16    4.85    0.76
   6   0 -16    5.13    1.30
   5   0 -16    0.88    0.69
   5   0 -16    1.82    1.07
   4   0 -16    3.04    0.83
   3   0 -16    1.16    0.80
  -3   0  16    0.60    0.84
   3   0 -16    1.01    0.83
  -3   0  16   -0.48    0.37
   2   0 -16   27.12    1.60
   2   0 -16   26.11    1.85
  -2   0  16   26.27    1.66
  -2   0  16   23.88    1.00
   1   0 -16    0.04    0.78
  -1   0  16   -0.38    0.82
  -1   0  16    0.38    0.52
   1   0 -16    0.14    0.86
   0   0  16    0.99    0.94
   0   0 -16    2.41    0.89
   0   0 -16    0.62    0.85
   0   0  16    1.86    0.64
   1   0  16   -0.69    0.88
   1   0  16    0.00    0.68
  -1   0 -16    1.17    0.93
  -1   0 -16   -0.33    0.85
   2   0  16   23.03    1.46
  -2   0 -16   24.72    1.75
  -2   0 -16   26.77    1.89
   2   0  16   21.02    1.94
  -3   0 -16   -0.52    0.93
   3   0  16    0.20    0.80
   3   0  16   -0.68    1.02
  -3   0 -16    0.08    0.83
  -4   0 -16   15.46    1.55
  -4   0 -16   17.40    1.79
   4   0  16   15.18    1.39
   4   0  16   12.30    2.12
  -5   0 -16   -0.30    0.83
   5   0  16    0.50    0.96
   5   0  16    0.75    1.16
  -5   0 -16    1.08    1.05
  -6   0 -16   38.68    1.91
   6   0  16   38.34    2.19
  -6   0 -16   44.12    2.47
   6   0  16   41.62    2.73
  -7   0 -16    1.75    1.24
   7   0  16    1.17    1.44
   7   0  16    1.59    1.22
   8   0  16   18.10    1.96
   8   0  16   12.44    2.00
   9   0  16    1.24    1.89
  10   0  16    5.59    2.19
  10   0  16    4.71    1.86
  11   0  16    2.56    2.13
  11   0  16   -0.23    1.84
  12   0  16    4.81    2.40
  13   0  16    3.44    2.71
  14   0  16    2.48    4.67
  16  -1 -16   11.97    3.11
  16   1 -16   -4.38    2.96
  15  -1 -16   -2.13    2.60
  15   1 -16    2.71    2.75
  14  -1 -16   -0.16    2.13
  14   1 -16    2.04    2.41
  13  -1 -16    6.40    2.22
  13   1 -16    5.72    2.20
  12  -1 -16   13.98    2.19
  12   1 -16   10.86    2.23
  11  -1 -16    4.31    1.67
  11   1 -16    3.14    1.75
  11   1 -16    5.01    0.85
  10  -1 -16    7.65    1.71
  10   1 -16    7.26    0.97
  10   1 -16    8.47    1.78
   9  -1 -16    0.60    1.44
   9   1 -16    2.55    0.88
   9   1 -16    1.68    1.47
   8  -1 -16    6.66    1.61
   8   1 -16    6.02    1.64
   8   1 -16    5.19    0.99
   7  -1 -16    6.04    1.44
  -7  -1  16    6.26    0.54
   7   1 -16    7.82    1.54
   7   1 -16    4.64    1.00
   6  -1 -16    9.42    1.53
  -6  -1  16   10.29    0.83
   6   1 -16    9.23    1.12
   6   1 -16   10.76    1.60
   5  -1 -16   -0.09    0.92
  -5  -1  16    1.68    0.54
   5   1 -16    0.86    1.02
   5   1 -16    1.07    0.90
  -5   1  16    1.70    0.74
   4  -1 -16   15.07    1.50
  -4  -1  16   16.25    1.12
  -4   1  16   16.27    1.36
   4   1 -16   16.92    1.54
   4   1 -16   17.99    1.82
  -3  -1  16   47.33    2.05
   3   1 -16   36.80    2.66
   3   1 -16   47.30    1.99
  -3   1  16   46.58    1.85
  -3   1  16   46.31    1.00
   2  -1 -16   18.03    1.68
  -2  -1  16   20.95    1.64
  -2   1  16   19.16    0.96
   2   1 -16   20.88    1.68
   2   1 -16   19.83    1.80
  -2   1  16   19.05    1.59
  -1  -1  16    4.01    1.00
   1  -1 -16    1.66    0.89
   1   1 -16    2.92    1.01
   1   1 -16    4.02    1.17
  -1   1  16    3.80    0.70
  -1   1  16    4.31    1.05
   0  -1 -16   -1.18    0.83
   0  -1  16    0.85    0.97
   0  -1  16    0.03    0.86
   0   1 -16   -0.56    1.31
   0   1 -16    0.71    0.97
   0   1  16    1.07    0.63
   0   1  16    1.29    0.95
  -1  -1 -16   72.84    2.40
   1  -1  16   72.44    2.43
   1  -1  16   73.65    2.72
  -1   1 -16   75.75    2.64
   1   1  16   74.15    2.64
   1   1  16   74.90    2.04
  -1   1 -16   79.64    2.67
  -2  -1 -16    1.21    0.84
   2  -1  16    0.18    0.81
   2  -1  16   -1.01    1.08
  -2   1 -16    1.06    1.03
   2   1  16    1.11    1.09
   2   1  16    0.20    0.73
   3  -1  16   12.33    2.18
   3  -1  16    5.44    1.84
  -3  -1 -16    9.99    1.19
   3   1  16   12.10    1.62
  -3   1 -16    7.75    1.23
   3   1  16    8.02    1.13
   4  -1  16    1.66    0.82
  -4  -1 -16   -0.65    0.84
   4  -1  16    1.19    1.16
  -4   1 -16   -0.15    1.07
   4   1  16    0.44    0.97
   4   1  16    0.18    2.16
  -5  -1 -16   24.44    1.67
   5  -1  16   23.47    1.62
   5  -1  16   27.19    2.38
   5   1  16   21.91    1.84
   5   1  16   21.38    2.27
  -5   1 -16   20.22    1.92
   6  -1  16    0.57    1.28
  -6  -1 -16    2.60    0.85
   6   1  16    0.49    1.16
  -6   1 -16   -0.38    1.20
   6   1  16    0.25    1.45
  -7  -1 -16   14.82    1.31
   7  -1  16   13.20    1.92
   7   1  16   15.10    1.87
   7   1  16   13.79    1.97
   8  -1  16    4.61    1.86
  -8  -1 -16    4.84    0.98
   8   1  16    1.12    1.71
   9  -1  16    0.64    1.70
   9   1  16   -0.57    1.74
   9   1  16    2.10    1.67
  10  -1  16   -1.12    1.82
  10   1  16   -0.93    1.89
 -10   1 -16   -1.27    1.94
  10   1  16   -5.01    1.76
  11  -1  16    8.43    2.41
  11   1  16   11.88    2.63
 -11   1 -16   11.55    2.18
  11   1  16    3.47    2.02
  12  -1  16   -1.86    2.39
  12   1  16    4.72    2.57
  13  -1  16    0.99    2.80
  13   1  16   -0.27    2.69
  15  -2 -16   -0.74    3.00
  14  -2 -16   -1.54    2.55
  13  -2 -16    1.99    2.31
  13   2 -16    3.17    1.70
  12  -2 -16    1.22    2.07
  12   2 -16    1.01    1.50
 -11  -2  16    2.29    1.18
  11  -2 -16    2.45    1.95
  11   2 -16    4.48    1.48
 -10  -2  16    3.72    1.14
  10  -2 -16   -0.06    1.76
  10   2 -16    2.08    1.34
  -9  -2  16   10.77    1.22
  -9  -2  16   13.42    1.94
   9   2 -16    8.93    1.49
  -8  -2  16   11.67    1.21
  -8  -2  16   10.72    1.78
   8   2 -16    8.46    1.45
  -7  -2  16    4.66    1.04
   7   2 -16    4.14    1.23
  -7   2  16    4.62    0.67
  -6  -2  16    4.86    1.01
   6   2 -16    6.89    1.34
  -6   2  16    4.80    0.89
  -5  -2  16    4.97    1.07
  -5   2  16    4.00    0.93
   5   2 -16    5.19    2.30
  -4  -2  16    3.49    1.02
  -4   2  16    3.28    1.02
   4   2 -16    5.44    1.26
  -3  -2  16    6.10    1.10
   3   2 -16    4.23    1.18
  -3   2  16    4.26    1.09
  -2  -2  16    6.11    1.24
   2   2 -16    5.55    1.31
  -2   2  16    7.18    1.23
  -2   2  16    4.99    0.84
  -1  -2  16    0.76    0.96
  -1   2  16   -0.21    0.79
   1   2 -16    0.98    1.12
  -1   2  16    0.09    1.03
   0  -2  16    2.41    1.12
   0   2 -16    2.13    1.14
   0   2  16    2.85    1.17
   0   2  16    1.79    0.88
   1  -2  16    3.13    1.15
  -1   2 -16    1.99    1.22
   1   2  16    5.59    1.12
   1   2  16    5.12    1.29
   2  -2  16   12.59    1.49
   2   2  16   13.91    1.67
  -2   2 -16   13.15    1.73
   2   2  16   14.59    1.46
   3  -2  16    0.75    1.06
   3   2  16    3.57    1.29
  -3   2 -16   -0.27    1.24
   3   2  16    0.90    1.47
   4  -2  16    0.92    1.04
  -4  -2 -16    0.86    0.91
   4   2  16    4.29    1.36
   4   2  16    1.95    1.24
  -4   2 -16    1.04    1.37
  -5  -2 -16    5.76    1.05
   5  -2  16    5.77    1.28
   5   2  16    6.06    1.64
   5   2  16    6.59    1.55
  -5   2 -16    2.57    1.45
   6  -2  16    2.38    1.60
   6  -2  16    0.46    1.09
  -6  -2 -16   -0.87    0.99
  -6   2 -16   -0.45    1.62
   6   2  16   -0.38    1.43
   6   2  16    0.77    1.60
  -7  -2 -16    2.59    1.05
   7  -2  16    4.91    1.87
   7  -2  16    2.52    1.22
   7   2  16    0.87    1.79
   8  -2  16   -1.56    1.16
  -8  -2 -16    0.92    0.96
   8  -2  16    0.72    1.78
   8   2  16    0.49    1.85
  -8   2 -16    0.43    1.82
   8   2  16    1.58    1.85
   9  -2  16    0.71    1.29
  -9  -2 -16    0.21    0.97
   9  -2  16    1.11    2.11
   9   2  16    1.21    2.09
   9   2  16   -0.35    2.01
  -9   2 -16   -0.86    1.62
  10  -2  16    4.01    2.79
 -10  -2 -16    3.61    1.01
  10  -2  16    6.46    2.36
 -10   2 -16    1.69    2.32
  10   2  16    6.54    2.35
  10   2  16    4.26    2.31
  11  -2  16    5.72    2.69
  11  -2  16    5.28    1.48
  11   2  16    9.76    2.88
  12  -2  16    5.54    3.00
  12  -2  16    5.51    2.17
  12   2  16    4.73    2.83
 -13  -3  16    5.57    3.73
  12   3 -16    7.10    2.62
 -11  -3  16    4.76    1.91
  11   3 -16    6.14    2.41
 -10  -3  16    4.08    1.70
 -10  -3  16    1.21    2.31
  10   3 -16    2.82    2.12
  -9  -3  16   -0.13    1.49
  -9  -3  16    7.31    2.24
   9   3 -16    2.94    1.91
  -8  -3  16    7.75    2.18
   8  -3 -16    6.49    0.77
  -8  -3  16    4.54    1.55
   8   3 -16    9.09    1.99
  -8   3  16    4.33    0.84
   7  -3 -16    0.86    0.79
  -7  -3  16    1.19    1.55
  -7  -3  16   -1.54    1.24
   7   3 -16    1.27    1.60
  -7   3  16    1.34    1.01
   6  -3 -16   14.65    1.42
  -6  -3  16   11.12    1.65
  -6  -3  16   10.71    1.87
   6   3 -16    9.53    1.84
  -6   3  16   13.51    1.35
   5  -3 -16    1.56    0.90
  -5  -3  16    0.81    1.32
   5   3 -16   -0.51    1.49
  -5   3  16    1.60    1.16
  -4  -3  16    3.60    1.38
   4  -3 -16    4.21    1.03
   4   3 -16    3.58    1.60
  -4   3  16    3.74    1.33
  -3  -3  16    7.90    1.54
   3  -3 -16    6.48    1.17
  -3   3  16    5.46    1.38
   3   3 -16    6.88    1.71
  -2  -3  16   10.06    1.69
  -2  -3  16   13.36    1.81
   2  -3 -16    9.92    1.27
   2   3 -16   10.37    1.82
  -2   3  16    8.04    1.52
   1  -3 -16   -0.93    1.09
  -1  -3  16    0.41    1.55
  -1  -3  16    0.33    1.23
   1   3 -16    1.56    1.46
  -1   3  16    0.13    1.28
  -1   3  16   -0.68    1.09
   0  -3  16    8.86    1.46
   0  -3 -16    9.99    1.46
   0   3  16    8.93    1.49
   0   3  16    8.66    3.07
   0   3 -16    8.16    1.71
  -1  -3 -16    1.07    1.18
   1  -3  16   -0.14    1.15
  -1   3 -16    0.45    1.48
   1   3  16    1.67    1.45
   1   3  16    1.18    1.26
   2  -3  16   19.82    1.87
   2   3  16   22.13    2.08
   2   3  16   23.01    2.29
  -2   3 -16   21.18    2.27
   3  -3  16   -0.34    1.34
   3   3  16   -0.02    1.46
   3   3  16    0.09    1.49
  -3   3 -16    0.92    1.58
   4  -3  16    1.76    1.45
  -4   3 -16    0.91    1.67
   4   3  16    4.56    1.70
   4   3  16    2.94    1.84
   5  -3  16    0.97    1.37
   5   3  16   -1.25    1.66
  -5   3 -16   -0.93    1.57
   6  -3  16    3.13    1.47
  -6   3 -16    1.98    1.78
   6   3  16    3.16    2.40
   6   3  16   -1.66    1.92
   7  -3  16    1.40    1.40
  -7   3 -16    5.79    2.07
   7   3  16    3.35    2.12
   7   3  16    2.37    2.30
   8  -3  16    3.25    1.56
   8   3  16    5.69    2.45
   8   3  16    3.37    2.44
   9  -3  16    2.05    1.71
  -9  -3 -16    3.52    1.33
   9   3  16    4.10    2.68
   9   3  16    2.13    2.73
 -10  -3 -16   -0.90    1.34
  10  -3  16   -2.59    1.81
  10   3  16    2.64    2.78
  11  -3  16   -2.84    2.07
 -11  -4  16    4.32    2.73
  11   4 -16   -3.79    3.57
 -10  -4  16    0.66    2.54
  10   4 -16   -1.52    3.24
  -9  -4  16    4.42    2.38
   9   4 -16    6.06    3.00
  -8  -4  16   -0.99    2.13
   8  -4 -16    1.09    1.51
   8   4 -16   -0.28    2.75
   7  -4 -16    3.19    1.58
  -7  -4  16    0.83    2.06
   7   4 -16    3.46    2.64
  -7   4  16    2.82    1.65
  -6  -4  16   -2.37    1.77
   6  -4 -16    0.25    1.50
  -6   4  16   -2.09    1.58
   6   4 -16   -0.02    2.40
   5  -4 -16    2.97    1.60
  -5  -4  16    2.20    2.01
   5   4 -16    3.41    2.25
  -5   4  16   -1.07    1.67
  -4  -4  16    3.15    2.01
   4  -4 -16    2.45    1.63
  -4   4  16   -1.63    1.72
   4   4 -16   -0.45    2.12
   3  -4 -16    2.29    1.57
  -3  -4  16   -1.31    1.97
  -3  -4  16    5.17    2.64
  -3   4  16   -0.37    1.77
   3   4 -16   -2.46    2.17
   2  -4 -16    4.12    1.66
  -2  -4  16   -0.45    2.00
  -2  -4  16    3.87    1.90
   2   4 -16    2.98    2.17
  -2   4  16    3.49    1.90
   1  -4 -16    3.31    1.76
  -1  -4  16    1.13    2.03
  -1  -4  16    1.40    2.11
  -1   4  16    1.83    1.89
   1   4 -16    0.27    2.06
   0  -4  16   10.09    2.18
   0  -4 -16    8.73    1.80
   0  -4  16    3.24    1.93
   0   4 -16    2.02    2.05
   0   4  16    1.95    1.93
   0   4  16    3.81    1.91
   1  -4  16    5.15    1.96
  -1  -4 -16    5.60    1.95
   1  -4  16   -2.34    1.89
  -1   4 -16    7.31    2.29
   1   4  16    3.68    2.12
   1   4  16    3.08    1.94
  -2  -4 -16    2.02    1.87
   2  -4  16    0.09    2.00
   2   4  16   -2.57    2.06
  -2   4 -16    0.99    2.19
   3  -4  16   -0.49    2.11
  -3  -4 -16    2.33    1.97
   3   4  16   -0.88    2.18
   3   4  16    1.12    2.09
  -4  -4 -16    2.12    2.11
   4  -4  16    0.68    2.23
   4   4  16    2.01    2.25
   4   4  16    0.32    2.35
  -5  -4 -16    7.82    2.32
   5  -4  16    2.58    2.36
   5   4  16    3.82    2.58
   5   4  16    7.37    2.63
   6  -4  16   -2.71    2.34
   6   4  16    3.10    2.76
   6   4  16   -1.20    2.71
   7  -4  16    4.27    2.56
   7   4  16    8.88    3.31
   8  -4  16   -4.85    2.35
   8   4  16   -5.91    4.82
   9  -4  16    4.02    2.79
  -6  -5  16   -3.21    2.93
  -5  -5  16    1.54    2.93
   5  -5 -16    4.82    2.51
  -5   5  16   -0.25    2.65
  -4  -5  16    0.53    2.97
   4  -5 -16    1.95    2.49
  -3  -5  16    2.26    3.04
   3  -5 -16    3.72    2.60
   2  -5 -16    8.85    2.80
  -2  -5  16   10.20    3.22
  -1  -5  16    1.75    3.05
   1  -5 -16    0.17    2.62
   0  -5  16   -0.22    3.02
   0  -5 -16    5.93    2.77
   0   5  16   -4.51    2.89
   1  -5  16   -6.03    2.97
  -1  -5 -16   -0.40    2.75
   1   5  16   -0.14    3.03
  -2  -5 -16    6.06    2.85
   2  -5  16    7.69    2.98
   2   5  16   -4.10    3.18
   2   5  16   -2.18    3.28
  -3  -5 -16    6.30    3.04
   3   5  16    6.66    3.30
  -4  -5 -16   -3.63    3.10
  16   0 -17   -1.66    3.24
  15   0 -17   14.16    3.02
  14   0 -17    3.34    2.52
  13   0 -17   17.34    2.60
  12   0 -17   -0.14    2.03
  11   0 -17   -1.59    1.85
  10   0 -17   -1.89    1.60
   9   0 -17    0.76    1.51
   8   0 -17    1.05    1.30
   7   0 -17    1.06    1.13
   6   0 -17    1.47    0.77
   6   0 -17    1.96    1.15
   5   0 -17   41.41    1.69
   5   0 -17   40.31    2.29
   4   0 -17    1.91    0.95
   4   0 -17    0.40    0.83
   3   0 -17    6.32    1.17
  -3   0  17    6.55    1.13
   3   0 -17    5.14    1.03
  -3   0  17    5.71    0.57
  -2   0  17   -1.21    0.47
  -2   0  17   -0.57    0.86
   2   0 -17   -0.62    0.84
  -1   0  17   37.33    1.38
   1   0 -17   36.21    2.12
  -1   0  17   41.05    2.11
   1   0 -17   41.36    2.06
   0   0 -17   -0.74    0.89
   0   0  17    0.27    0.65
   0   0 -17    1.20    0.95
   0   0  17   -0.04    0.98
   1   0  17   10.64    1.07
  -1   0 -17    9.54    1.34
  -1   0 -17    9.25    1.29
   1   0  17    9.37    1.49
   2   0  17    0.46    0.80
   2   0  17   -0.64    1.05
  -2   0 -17    0.19    0.90
  -2   0 -17    1.34    1.07
  -3   0 -17   27.51    1.92
  -3   0 -17   28.53    2.17
   3   0  17   26.29    1.70
   3   0  17   30.26    3.35
   4   0  17    0.41    1.18
  -4   0 -17   -0.02    0.93
  -4   0 -17    1.24    1.20
   4   0  17    0.64    1.80
  -5   0 -17   15.95    1.73
  -5   0 -17   19.60    1.75
   5   0  17   18.26    1.80
   5   0  17   15.43    1.87
   6   0  17    2.05    1.19
  -6   0 -17    0.25    0.93
  -6   0 -17    1.44    1.18
   6   0  17   -0.51    1.44
   7   0  17    3.01    1.30
  -7   0 -17    3.10    1.43
   7   0  17    2.06    1.60
   8   0  17    0.42    1.74
  -8   0 -17   -0.46    1.36
   9   0  17   30.06    3.28
  -9   0 -17   30.40    2.83
   9   0  17   37.17    2.88
  10   0  17    5.13    2.26
  10   0  17   -0.15    1.89
  11   0  17    2.57    2.40
  11   0  17    0.55    2.14
  12   0  17    2.42    2.75
  13   0  17   16.07    3.61
  15  -1 -17    5.96    2.90
  15   1 -17    0.52    2.95
  14  -1 -17   -0.20    2.54
  14   1 -17    0.28    2.48
  13  -1 -17   -1.49    2.16
  13   1 -17    0.41    2.20
  12  -1 -17    1.16    1.93
  12   1 -17    3.53    2.24
  11  -1 -17    5.89    1.97
  11   1 -17    4.06    0.92
  11   1 -17    3.29    2.01
  10  -1 -17   24.86    2.29
  10   1 -17   32.41    2.89
  10   1 -17   27.30    1.65
   9  -1 -17    8.83    1.80
   9   1 -17    9.76    1.15
   9   1 -17    8.77    1.87
   8  -1 -17    5.02    1.54
   8   1 -17    7.03    1.09
   8   1 -17    6.00    1.63
   7  -1 -17   -0.17    1.20
   7   1 -17    2.15    0.98
   7   1 -17    0.18    1.25
   6  -1 -17    5.65    1.30
  -6  -1  17    7.88    0.78
   6   1 -17    6.40    1.48
   6   1 -17    8.79    1.20
   5  -1 -17    0.47    1.24
  -5  -1  17    0.44    0.56
   5   1 -17    1.59    1.01
   5   1 -17    0.32    1.17
  -5   1  17   -0.25    0.78
   4  -1 -17    1.66    1.09
  -4  -1  17    2.32    0.69
   4   1 -17    3.09    1.00
   4   1 -17    2.40    1.18
  -4   1  17    2.83    0.95
   3  -1 -17   10.25    1.53
   3   1 -17   11.50    1.35
   3   1 -17    9.44    1.42
  -3   1  17   11.05    0.70
  -3   1  17   11.43    1.27
   2  -1 -17   -0.53    0.97
  -2   1  17    0.15    1.03
   2   1 -17    0.40    0.96
   2   1 -17    1.26    1.06
  -2   1  17    0.91    0.56
  -1  -1  17   12.08    1.39
   1   1 -17    9.12    1.31
  -1   1  17   10.09    1.35
  -1   1  17   10.85    1.12
   0  -1  17    1.34    1.16
   0  -1  17    2.35    0.92
   0  -1 -17    0.52    0.89
   0   1  17    2.67    1.13
   0   1 -17   -0.77    0.95
   0   1  17    1.52    0.74
   0   1 -17    0.00    1.50
   1  -1  17    3.63    1.03
  -1  -1 -17    4.77    1.08
   1  -1  17    3.81    1.33
   1   1  17    3.37    1.28
  -1   1 -17    3.42    1.15
   1   1  17    2.90    0.87
  -1   1 -17    2.36    1.10
  -2  -1 -17   -0.21    0.90
   2  -1  17    1.72    0.86
   2   1  17    0.53    0.83
  -2   1 -17    0.06    1.02
   2   1  17    1.34    1.24
   3  -1  17    3.05    0.98
  -3  -1 -17    2.37    1.01
   3  -1  17    2.59    1.30
   3   1  17    1.27    2.34
   3   1  17    1.77    0.95
  -3   1 -17    2.11    1.24
  -4  -1 -17   18.85    1.72
   4  -1  17   20.64    2.11
   4   1  17   14.88    1.54
  -4   1 -17   15.72    1.89
   4   1  17   20.62    2.06
  -5  -1 -17    0.54    0.93
   5  -1  17   -0.98    1.30
   5   1  17   -1.60    1.11
   5   1  17    0.86    1.49
  -5   1 -17   -1.11    1.22
   6  -1  17    6.48    1.68
  -6  -1 -17    3.87    1.06
  -6   1 -17    2.35    1.42
   6   1  17    2.98    1.37
   6   1  17    3.40    1.65
  -7  -1 -17    0.86    0.95
   7  -1  17    0.09    1.69
  -7   1 -17   -0.20    1.40
   7   1  17    0.82    1.60
   7   1  17   -1.82    1.40
  -8  -1 -17    7.03    1.19
   8  -1  17    6.25    2.11
  -8   1 -17    1.39    1.65
   8   1  17    6.37    2.02
   9  -1  17    0.40    1.99
  -9   1 -17    0.68    1.73
   9   1  17   -2.97    1.66
   9   1  17    4.99    2.07
  10  -1  17    0.51    2.04
  10   1  17   -3.30    1.93
  10   1  17    4.04    2.16
 -10   1 -17    4.03    2.19
  11  -1  17   -0.80    2.33
  11   1  17    3.13    2.46
  11   1  17   -0.15    2.44
  12  -1  17    3.57    2.68
  12   1  17   -1.22    2.69
  14  -2 -17   -5.50    2.76
  13  -2 -17    2.70    2.75
  12  -2 -17    0.01    2.26
  12   2 -17    5.17    1.62
  11  -2 -17    3.10    2.13
 -11  -2  17   -0.18    1.12
  11   2 -17    0.86    1.49
 -10  -2  17    7.59    1.18
  10  -2 -17    4.93    2.04
  10   2 -17    6.53    1.55
  -9  -2  17    8.13    1.18
   9  -2 -17    5.44    1.87
   9   2 -17    5.14    1.47
  -8  -2  17   10.98    1.79
   8  -2 -17    4.01    1.69
  -8  -2  17    6.94    1.11
   8   2 -17    7.35    1.49
  -7  -2  17    0.31    1.41
  -7  -2  17    0.81    0.90
  -7   2  17   -0.33    0.66
   7   2 -17    0.91    2.30
  -6  -2  17   13.12    1.28
  -6   2  17   13.52    1.39
   6   2 -17   14.44    1.70
  -5  -2  17    4.44    1.13
  -5   2  17    3.07    0.98
   5   2 -17    3.31    1.26
  -4  -2  17   10.47    1.31
   4   2 -17   10.39    1.61
  -4   2  17   12.68    1.34
  -3  -2  17    4.12    1.12
  -3  -2  17    1.59    1.20
   3   2 -17    3.03    1.22
  -3   2  17    3.38    1.14
  -2  -2  17    4.87    1.29
  -2   2  17    3.97    0.85
   2   2 -17    4.14    1.28
  -2   2  17    3.71    1.24
  -1  -2  17   11.35    1.50
   1   2 -17   13.25    1.62
  -1   2  17   11.79    1.17
  -1   2  17   14.46    1.67
   0  -2  17   10.10    1.39
   0   2 -17   12.57    1.63
   0   2  17   13.71    1.35
   0   2  17   15.58    1.76
   1  -2  17    7.57    1.45
   1   2  17   12.40    1.68
   1   2  17   11.89    1.36
  -1   2 -17    6.31    1.49
   2  -2  17    5.73    1.37
   2   2  17   11.93    1.87
  -2   2 -17    7.26    1.57
   2   2  17    8.56    1.36
   3  -2  17    0.33    1.18
  -3  -2 -17    1.27    1.11
   3   2  17    1.91    1.24
   3   2  17    2.87    1.57
  -3   2 -17    2.12    1.35
   4  -2  17    1.21    1.15
  -4  -2 -17    1.41    1.04
  -4   2 -17    0.39    1.25
   4   2  17    2.35    1.36
   4   2  17    1.30    1.56
   5  -2  17   -0.12    1.18
  -5  -2 -17    0.80    1.13
   5   2  17    2.69    1.55
  -5   2 -17    1.67    1.40
   5   2  17    2.15    1.74
  -6  -2 -17    4.59    1.24
   6  -2  17    7.23    1.83
   6  -2  17    4.14    1.40
   6   2  17    4.78    1.80
  -6   2 -17    6.39    1.82
   6   2  17    6.91    1.96
   7  -2  17    2.24    1.34
  -7  -2 -17    0.35    1.07
   7  -2  17    1.86    1.89
   7   2  17    2.73    1.85
  -7   2 -17   -0.64    1.64
   8  -2  17    2.97    2.18
  -8  -2 -17    2.58    1.14
   8  -2  17    3.78    1.39
  -8   2 -17    0.23    1.93
   8   2  17    2.35    2.11
   8   2  17    3.35    1.97
   9  -2  17   13.18    1.73
  -9  -2 -17   11.45    1.37
   9  -2  17    8.47    2.35
  -9   2 -17    6.42    2.62
   9   2  17   12.83    2.56
   9   2  17    6.40    2.29
  10  -2  17    1.41    2.56
 -10  -2 -17    2.01    1.12
  10  -2  17    5.35    1.53
  10   2  17    3.83    2.45
  10   2  17    4.88    2.77
  11  -2  17    1.19    2.62
  11   2  17   -3.13    2.55
 -12  -3  17    1.40    2.59
 -11  -3  17    1.33    1.90
  11   3 -17   -0.57    2.38
 -10  -3  17    4.48    1.81
  10   3 -17    2.80    2.20
  -9  -3  17    7.35    1.76
   9   3 -17    3.91    2.09
  -8  -3  17    3.08    1.57
  -8  -3  17    3.24    2.05
   8   3 -17   -2.04    1.93
  -7  -3  17    2.04    1.45
  -7  -3  17    2.03    2.03
  -7   3  17    5.00    1.14
   7   3 -17    2.60    1.99
  -6  -3  17    3.99    1.50
  -6  -3  17    1.90    1.69
  -6   3  17    6.52    1.30
   6   3 -17    4.93    1.81
  -5  -3  17   13.54    1.86
  -5  -3  17   11.81    1.82
   5   3 -17   12.97    2.03
  -5   3  17   16.25    1.62
  -4  -3  17    0.17    1.44
  -4  -3  17    0.39    1.50
  -4   3  17    3.06    1.43
   4   3 -17    0.76    1.63
  -3  -3  17    5.94    1.69
  -3  -3  17    6.96    1.77
  -3   3  17    8.83    1.57
   3   3 -17    7.76    1.77
  -2  -3  17    3.70    1.81
  -2  -3  17    2.53    1.49
   2   3 -17    3.49    1.61
  -2   3  17    3.60    1.53
  -1  -3  17   10.70    1.73
  -1  -3  17   12.79    1.95
  -1   3  17    9.59    1.80
  -1   3  17    8.72    1.48
   1   3 -17   12.43    2.02
   0  -3  17   -1.81    1.41
   0   3  17   -0.07    1.32
   0   3  17    1.33    1.55
   0   3 -17    0.52    1.53
   1  -3  17    7.44    1.80
  -1   3 -17    6.23    1.90
   1   3  17    8.00    1.63
   1   3  17    7.29    1.79
   2  -3  17   -0.60    1.44
   2   3  17   -1.31    1.70
  -2   3 -17    0.28    1.72
   2   3  17   -0.89    1.52
   3  -3  17    7.15    1.70
   3   3  17    5.82    1.97
  -3   3 -17    5.00    1.86
   3   3  17    9.94    1.94
   4  -3  17    2.78    1.50
   4   3  17    3.60    2.03
  -4   3 -17    2.89    1.80
   4   3  17    4.10    1.80
   5  -3  17    5.33    1.65
  -5   3 -17    3.11    1.92
   5   3  17    7.96    2.33
   6  -3  17    1.88    1.54
   6   3  17    1.51    2.06
   6   3  17    0.54    2.18
  -6   3 -17    3.37    1.94
   7  -3  17   -2.17    1.60
   7   3  17    6.81    2.52
   7   3  17    1.38    2.34
   8  -3  17    0.67    1.86
  -8  -3 -17    3.21    1.41
   8   3  17    1.37    2.39
   8   3  17    4.58    2.72
   9  -3  17   -3.05    1.92
  -9  -3 -17   -2.32    1.44
   9   3  17   -1.73    2.71
  10  -3  17    2.24    2.09
 -10  -4  17   -2.66    2.63
  10   4 -17    5.39    3.54
  -9  -4  17    4.95    2.65
   9   4 -17    8.71    3.30
  -8  -4  17   -1.25    2.25
   8   4 -17    6.74    3.05
   7  -4 -17    4.12    1.67
  -7  -4  17    3.19    2.22
   7   4 -17    8.88    2.87
  -7   4  17    1.85    1.76
  -6  -4  17    4.76    2.21
   6  -4 -17    8.32    1.76
  -6   4  17    2.96    1.84
   6   4 -17    5.78    2.73
  -5  -4  17    1.03    2.09
   5  -4 -17    4.14    1.66
  -5   4  17    0.62    1.79
   5   4 -17   -1.20    2.36
  -4  -4  17    2.09    2.21
   4  -4 -17    2.75    1.67
   4   4 -17    0.70    2.30
   3  -4 -17    4.09    1.68
  -3  -4  17    1.11    2.25
  -3   4  17    1.61    1.87
   3   4 -17    1.53    2.22
   2  -4 -17    2.75    1.74
  -2  -4  17    1.93    2.19
   2   4 -17   -2.52    2.16
  -2   4  17    1.54    2.03
   1  -4 -17    0.46    1.76
  -1  -4  17   -2.10    2.00
   1   4 -17    3.35    2.47
  -1   4  17    0.33    1.95
   0  -4  17    6.76    2.27
   0  -4 -17    3.07    1.91
   0   4  17    0.72    2.07
   0   4 -17    2.65    2.34
   0   4  17    3.63    1.93
  -1  -4 -17   -2.37    1.89
   1  -4  17    4.67    2.13
   1   4  17   -1.56    2.26
   1   4  17   -3.56    1.92
  -2  -4 -17    3.28    2.11
   2  -4  17    9.58    3.59
   2   4  17    8.07    2.48
  -3  -4 -17    1.95    2.10
   3  -4  17   -1.83    2.60
   3   4  17   -0.01    2.25
   3   4  17    0.70    2.30
  -4  -4 -17    7.76    2.30
   4  -4  17    3.42    2.38
   4   4  17    6.77    2.66
   4   4  17    4.32    2.57
   5  -4  17    4.13    2.63
   5   4  17    2.83    2.73
   5   4  17    0.67    2.72
   6  -4  17   -0.29    2.75
   6   4  17    1.66    3.91
   6   4  17   -3.93    2.84
   7  -4  17    3.52    3.80
   7   4  17    0.79    3.30
   4  -5 -17    1.01    4.23
  -4  -5  17    2.66    3.21
  -4   5  17   -3.39    2.84
  -3  -5  17    5.13    3.29
   3  -5 -17    5.86    2.71
  -3   5  17    5.13    3.01
   2  -5 -17    1.65    2.70
  -2  -5  17    1.22    3.22
  -2   5  17   -1.73    2.85
  -1  -5  17    5.53    3.47
   1  -5 -17    7.26    2.84
  -1   5  17    4.13    3.00
   0  -5  17   -0.10    3.34
   0  -5 -17    9.08    2.96
   0   5  17    1.79    3.13
  -1  -5 -17    0.11    2.92
   1  -5  17   -0.84    5.26
   1   5  17   -1.72    3.27
  -2  -5 -17   -0.31    3.04
   2   5  17   -5.18    3.31
  15   0 -18    2.88    3.13
  14   0 -18    8.64    2.85
  13   0 -18   -0.98    2.37
  12   0 -18   32.10    3.13
  11   0 -18   -0.04    1.97
  10   0 -18    3.18    1.77
   9   0 -18    1.26    1.68
   8   0 -18    3.12    1.49
   7   0 -18   -1.49    1.35
   6   0 -18    1.86    1.30
   6   0 -18    0.13    0.79
   5   0 -18    2.34    1.29
   5   0 -18    1.70    0.88
   4   0 -18   25.07    2.16
   4   0 -18   22.95    1.67
   3   0 -18   -0.45    0.89
   3   0 -18   -1.16    1.13
  -3   0  18   -0.07    1.02
  -3   0  18   -0.46    0.45
  -2   0  18   35.62    2.10
  -2   0  18   36.15    1.27
   2   0 -18   37.93    2.06
   2   0 -18   36.85    2.22
  -1   0  18   -0.09    1.08
  -1   0  18   -0.46    0.64
   1   0 -18   -0.37    0.99
   1   0 -18    0.30    1.04
   0   0  18    2.63    0.83
   0   0 -18    4.24    1.73
   0   0  18    3.54    1.25
   0   0 -18    2.51    1.35
   1   0  18    0.92    0.81
  -1   0 -18   -0.54    1.06
   1   0  18   -0.20    1.14
  -1   0 -18    1.09    1.07
   2   0  18   26.03    1.69
   2   0  18   24.22    3.44
  -2   0 -18   30.49    2.19
  -2   0 -18   26.41    2.03
  -3   0 -18    1.20    1.25
   3   0  18   -1.03    0.89
   3   0  18   -0.80    1.27
  -3   0 -18    0.07    1.04
   4   0  18    7.17    1.29
  -4   0 -18    5.94    1.45
  -4   0 -18    4.77    1.24
   4   0  18    2.71    1.44
   5   0  18    0.55    1.15
   5   0  18    0.92    1.54
  -5   0 -18    0.33    0.95
  -5   0 -18    2.65    1.35
   6   0  18    8.75    1.89
  -6   0 -18   10.49    1.43
   6   0  18   12.03    1.66
  -6   0 -18   10.87    1.73
  -7   0 -18   -1.08    1.47
   7   0  18   -0.30    2.30
   7   0  18    0.16    1.69
   8   0  18    6.27    2.28
  -8   0 -18    5.32    1.74
   8   0  18    4.38    2.05
   9   0  18    1.60    1.80
   9   0  18    1.52    2.20
  10   0  18    0.20    2.28
  10   0  18    1.76    2.11
  11   0  18    2.42    2.61
  12   0  18    1.33    2.78
  15  -1 -18   12.19    4.17
  15   1 -18    7.32    3.26
  14  -1 -18    9.37    2.97
  14   1 -18    4.03    2.88
  13  -1 -18   -1.82    2.35
  13   1 -18    6.36    2.73
  12  -1 -18    2.50    2.14
  12   1 -18    4.73    2.26
  11  -1 -18    4.51    2.04
  11   1 -18    1.61    2.09
  11   1 -18    2.65    0.95
  10  -1 -18    0.55    1.70
  10   1 -18    1.20    1.00
  10   1 -18    2.67    1.84
   9  -1 -18   12.97    2.06
   9   1 -18   11.00    1.27
   9   1 -18   13.90    2.21
   8  -1 -18    8.58    1.83
   8   1 -18    7.04    1.69
   8   1 -18    8.13    1.24
   7  -1 -18   14.77    1.82
   7   1 -18   14.89    2.11
   7   1 -18   13.82    1.41
   6  -1 -18    0.83    1.12
  -6  -1  18    2.39    0.49
   6   1 -18    2.44    1.40
   6   1 -18    2.05    1.12
  -5  -1  18    6.74    0.74
   5  -1 -18    5.07    1.45
  -5   1  18    6.58    1.12
   5   1 -18    7.48    1.23
   5   1 -18    8.62    1.50
   4  -1 -18   -1.11    1.04
  -4  -1  18    0.08    0.67
  -4   1  18    0.15    0.90
   4   1 -18   -1.50    1.23
   4   1 -18    1.60    1.01
   3  -1 -18    7.03    1.31
   3   1 -18   10.69    1.36
  -3   1  18    8.64    1.26
  -3   1  18    7.34    0.73
   3   1 -18    9.17    1.56
   2  -1 -18   16.18    1.72
   2   1 -18   13.07    1.60
  -2   1  18   15.71    1.58
   2   1 -18   16.64    1.63
  -2   1  18   16.37    1.06
   1  -1 -18    7.79    1.37
   1   1 -18    6.96    1.31
  -1   1  18    6.22    1.36
  -1   1  18    8.36    0.93
   1   1 -18    6.14    1.38
   0  -1  18   13.64    1.67
   0  -1 -18   14.58    1.70
   0   1 -18   16.21    1.72
   0   1  18   15.21    1.37
   0   1 -18   13.81    1.64
   0   1  18   16.87    1.74
   1  -1  18    2.15    1.42
  -1  -1 -18    1.21    1.97
   1   1  18    0.87    1.28
  -1   1 -18   -0.37    1.17
  -1   1 -18    1.39    1.14
   1   1  18    1.57    0.86
  -2  -1 -18   12.57    1.45
   2  -1  18   11.83    1.80
  -2   1 -18   13.03    1.74
   2   1  18   13.23    1.33
  -3  -1 -18    0.84    1.02
   3  -1  18    0.33    1.46
   3   1  18    2.36    1.07
  -3   1 -18   -0.26    1.31
   3   1  18    1.07    1.37
  -4  -1 -18    1.95    1.13
   4  -1  18    1.72    1.60
   4   1  18    1.98    1.49
  -4   1 -18    2.02    1.54
   4   1  18    2.23    1.18
   5  -1  18   -0.83    1.44
  -5  -1 -18   -0.69    1.02
   5   1  18    1.88    1.52
  -5   1 -18   -0.78    1.44
   5   1  18   -0.01    1.25
   6  -1  18    3.16    1.80
  -6  -1 -18    0.85    1.07
   6   1  18   -0.79    1.33
   6   1  18    4.71    1.82
  -6   1 -18    0.38    1.50
  -7  -1 -18   15.08    1.56
   7  -1  18   16.25    2.44
   7   1  18   17.33    2.38
  -7   1 -18   15.66    2.10
   8  -1  18    7.03    2.11
  -8  -1 -18    4.55    1.24
   8   1  18    5.90    1.99
  -8   1 -18    7.19    2.00
   8   1  18    4.05    1.92
   9  -1  18    3.49    2.32
   9   1  18   -1.11    1.99
   9   1  18    5.50    2.25
  -9   1 -18   -0.78    1.98
  10  -1  18    2.94    2.37
  10   1  18    0.99    2.13
  10   1  18    0.93    2.33
  11  -1  18   12.26    3.00
  11   1  18   12.79    2.88
  12  -1  18    5.45    3.34
  12   1  18    8.28    4.13
  13  -2 -18   -3.17    2.84
  12  -2 -18    2.57    2.71
  11  -2 -18    5.45    2.32
  11   2 -18    4.18    1.78
  10  -2 -18    0.41    1.85
 -10  -2  18    0.51    1.04
  10   2 -18   -0.30    1.56
  -9  -2  18    6.33    1.14
   9  -2 -18    6.55    1.98
   9   2 -18    3.77    2.20
  -8  -2  18   14.11    1.31
   8  -2 -18   19.70    2.31
   8   2 -18   16.40    2.00
  -7  -2  18   13.66    1.87
  -7  -2  18    8.54    1.22
   7  -2 -18    9.42    1.93
   7   2 -18    6.82    1.65
  -7   2  18    8.81    0.92
   6  -2 -18    0.91    1.53
  -6  -2  18    4.39    1.11
   6   2 -18    5.09    1.54
  -6   2  18    4.94    1.00
   5  -2 -18   23.53    2.44
  -5  -2  18   22.06    1.88
  -5   2  18   22.88    1.86
   5   2 -18   25.38    2.41
  -4  -2  18    0.72    1.06
   4  -2 -18   -0.28    1.32
   4   2 -18    2.46    1.37
  -4   2  18    1.08    1.13
  -3  -2  18   19.21    1.88
  -3  -2  18   21.67    2.27
  -3   2  18   17.31    1.66
   3   2 -18   16.95    1.78
  -2  -2  18    2.23    1.23
   2  -2 -18   -0.61    1.23
  -2   2  18    0.03    1.30
   2   2 -18   -1.54    1.19
  -2   2  18    1.25    0.81
  -1  -2  18   11.70    1.53
   1  -2 -18    9.92    1.51
  -1   2  18   11.68    1.25
  -1   2  18   13.97    1.74
   1   2 -18   10.94    1.66
   0  -2  18    1.54    1.27
   0  -2 -18    2.54    1.25
   0   2 -18    0.33    1.36
   0   2  18    3.25    1.46
   0   2  18    2.15    1.02
   1  -2  18   16.79    1.95
  -1  -2 -18   15.79    1.82
  -1   2 -18   15.90    1.86
   1   2  18   12.61    2.18
   1   2  18   19.48    1.87
   2  -2  18   42.67    2.63
  -2  -2 -18   36.72    2.34
  -2   2 -18   36.95    2.69
   2   2  18   36.66    2.28
   2   2  18   40.04    2.94
   3  -2  18   15.86    1.78
  -3  -2 -18   15.62    1.66
   3   2  18   20.33    2.27
  -3   2 -18   15.65    2.00
   3   2  18   14.68    1.74
   4  -2  18    1.94    1.35
  -4   2 -18    1.62    1.55
   4   2  18    3.49    1.90
   4   2  18    2.34    1.46
  -5  -2 -18    0.88    1.21
   5  -2  18    4.76    1.52
  -5   2 -18   -0.88    1.64
   5   2  18    4.47    1.92
   5   2  18    3.67    1.66
   6  -2  18    9.64    2.28
   6  -2  18    9.67    1.68
  -6  -2 -18    7.91    1.41
   6   2  18    9.34    2.25
  -6   2 -18    8.41    1.94
   7  -2  18    3.34    2.09
  -7  -2 -18    0.03    1.24
   7  -2  18    3.60    1.55
  -7   2 -18   -0.58    1.93
   7   2  18    1.57    2.11
   7   2  18    1.68    1.96
   8  -2  18   -1.01    2.20
   8  -2  18    4.03    1.48
  -8  -2 -18    0.67    1.30
   8   2  18    3.99    2.20
   8   2  18    0.78    2.32
  -8   2 -18    0.02    2.69
   9  -2  18    2.17    2.69
  -9  -2 -18   -0.06    1.25
   9  -2  18    1.11    1.55
   9   2  18   -0.10    2.60
   9   2  18    0.64    2.43
  10  -2  18    1.78    2.74
 -10  -2 -18   -0.24    1.23
  10  -2  18    3.28    1.54
  10   2  18    6.09    2.81
  11  -2  18    3.54    4.77
  11   2  18    4.27    4.47
 -11  -3  18   -0.38    2.98
  11   3 -18   -0.43    2.50
 -10  -3  18    3.18    1.81
  10   3 -18   -2.23    2.30
  -9  -3  18    3.44    1.76
   9   3 -18    1.86    2.16
  -8  -3  18    8.22    1.86
   8   3 -18    6.55    2.10
  -7  -3  18    1.02    1.50
   7   3 -18   -2.35    1.88
  -7   3  18    2.89    1.13
  -6  -3  18    3.28    1.58
  -6  -3  18    4.69    1.87
  -6   3  18    4.01    1.41
   6   3 -18    2.57    1.91
  -5  -3  18   -2.45    1.80
  -5  -3  18   -0.98    1.53
  -5   3  18   -0.07    1.37
   5   3 -18    0.24    1.83
  -4  -3  18    4.63    1.70
  -4  -3  18    3.35    1.68
   4   3 -18    4.42    1.92
  -4   3  18    5.38    1.57
  -3  -3  18    5.11    1.79
  -3  -3  18    1.44    1.99
  -3   3  18    5.31    1.61
   3   3 -18    4.08    1.84
  -2  -3  18   12.42    1.90
  -2  -3  18   14.61    1.94
  -2   3  18   13.02    1.88
   2   3 -18   13.41    2.15
  -1  -3  18    2.16    1.55
  -1  -3  18    0.14    1.68
  -1   3  18    2.03    1.60
   1   3 -18   -0.09    1.75
  -1   3  18   -1.64    1.25
   0  -3  18    7.11    1.88
   0   3  18    7.83    1.86
   0   3 -18    5.35    1.99
   1  -3  18    2.48    1.75
   1   3  18    2.54    1.85
   1   3  18    0.23    1.43
  -1   3 -18    1.44    1.80
   2  -3  18    7.04    1.85
   2   3  18    6.84    1.85
   2   3  18    8.40    2.12
  -2   3 -18    6.36    2.02
   3  -3  18    0.87    1.68
   3   3  18    1.78    1.96
   3   3  18   -0.44    1.78
  -3   3 -18   -1.34    1.70
   4  -3  18    1.74    1.83
  -4   3 -18   -2.38    1.85
   4   3  18   -1.19    2.12
   4   3  18    6.54    2.23
   5  -3  18    2.17    1.73
   5   3  18    2.11    2.28
  -5   3 -18    0.27    2.09
   5   3  18    2.96    2.36
   6  -3  18   10.01    2.14
   6   3  18   11.94    2.50
   6   3  18   12.75    2.81
   7  -3  18   -0.84    1.96
  -7  -3 -18   -0.75    1.54
   7   3  18    1.50    2.42
   7   3  18    6.97    2.72
   8  -3  18    0.00    2.07
   8   3  18    5.30    3.35
   8   3  18   10.50    3.15
  -9  -3 -18   -0.57    1.57
   9  -3  18    3.18    2.09
   9   3  18    1.05    3.28
  10  -3  18   -2.17    2.25
  -9  -4  18    2.98    2.61
   9   4 -18    2.45    5.13
  -8  -4  18   -2.03    2.47
   8   4 -18   -2.16    3.42
  -7  -4  18   -1.97    2.22
   7   4 -18   -3.98    2.96
  -6  -4  18    1.82    2.34
  -6   4  18    4.59    1.94
   6   4 -18    0.16    2.91
   5  -4 -18    4.78    1.78
  -5  -4  18    2.80    2.43
  -5   4  18    6.41    2.15
   5   4 -18    2.34    2.75
  -4  -4  18    0.44    2.30
   4  -4 -18    0.73    1.75
  -4   4  18   -0.95    2.06
   4   4 -18   -1.90    2.70
   3  -4 -18    7.19    1.92
  -3  -4  18    4.92    2.38
  -3   4  18    3.19    2.20
   3   4 -18    5.85    3.68
  -2  -4  18    1.75    2.27
   2  -4 -18    0.02    1.91
  -2   4  18   -1.92    2.11
  -1  -4  18   -2.94    2.18
   1  -4 -18   -2.36    1.85
  -1   4  18    0.02    2.19
   0  -4  18    3.77    2.37
   0  -4 -18   -2.08    1.88
   0   4  18   -2.52    2.25
   0   4  18   -3.86    2.00
  -1  -4 -18   -1.46    1.99
   1  -4  18   -2.08    2.08
   1   4  18    0.90    2.40
   2   4  18    0.49    2.59
   2   4  18   -0.20    2.28
   3   4  18    4.43    2.82
   3   4  18    5.33    2.70
   4   4  18   -5.38    2.81
   4   4  18    2.59    2.77
   5   4  18    4.48    3.05
   5   4  18    0.29    3.08
   6   4  18   -1.87    3.31
  14   0 -19    3.23    3.05
  13   0 -19    2.12    2.56
  12   0 -19   -0.07    2.57
  11   0 -19    8.45    2.38
  10   0 -19    3.35    2.00
   9   0 -19   11.73    2.05
   8   0 -19    1.74    1.69
   7   0 -19    1.97    1.52
   6   0 -19   -1.03    1.25
   6   0 -19    1.02    0.94
   5   0 -19   16.72    1.66
   5   0 -19   14.61    1.74
   4   0 -19   -0.82    1.14
   4   0 -19    1.71    1.05
   3   0 -19   15.81    1.72
   3   0 -19   21.14    1.88
  -3   0  19   17.25    0.92
  -3   0  19   19.46    2.02
  -2   0  19   -0.14    1.24
   2   0 -19    2.64    1.17
  -2   0  19   -0.35    0.63
   2   0 -19    0.50    1.21
  -1   0  19   44.26    1.61
  -1   0  19   44.35    2.52
   1   0 -19   47.17    2.40
   1   0 -19   45.02    2.61
   0   0 -19   -0.52    1.12
   0   0  19   -1.56    0.74
   0   0  19   -0.42    1.26
   0   0 -19    1.24    1.14
  -1   0 -19    2.09    1.14
  -1   0 -19    4.19    1.27
   1   0  19    1.56    0.90
   2   0  19   -0.67    0.94
   2   0  19    0.12    1.37
  -2   0 -19   -0.30    1.18
  -2   0 -19    0.17    1.21
   3   0  19    6.46    1.66
  -3   0 -19   12.40    2.89
  -3   0 -19   12.75    1.65
   3   0  19    8.91    1.62
   4   0  19   -0.08    1.18
   4   0  19   -0.71    1.45
  -4   0 -19    0.51    1.23
  -4   0 -19    1.64    1.38
  -5   0 -19   23.19    2.17
   5   0  19   22.58    1.96
  -5   0 -19   26.72    2.58
   5   0  19   19.44    2.32
   6   0  19    0.11    1.48
  -6   0 -19    1.55    1.58
   6   0  19   -1.14    1.73
   7   0  19    1.34    2.00
  -7   0 -19    5.69    1.96
   8   0  19    1.63    1.80
  -8   0 -19    0.83    1.78
   8   0  19   -0.28    2.04
   9   0  19    6.24    2.13
   9   0  19    1.92    2.25
  10   0  19   -0.06    2.35
  10   0  19   -1.23    2.63
  11   0  19   -0.26    2.54
  14   1 -19    5.27    3.30
  13  -1 -19    3.35    2.79
  13   1 -19    3.72    2.82
  12  -1 -19    3.48    2.56
  12   1 -19    0.74    2.58
  11  -1 -19    4.34    2.07
  11   1 -19    3.84    0.98
  11   1 -19    4.97    2.34
  10  -1 -19    7.82    2.20
  10   1 -19    5.77    2.35
   9  -1 -19    3.09    1.93
   9   1 -19    0.24    1.84
   9   1 -19    0.62    1.14
   8  -1 -19    4.60    1.72
   8   1 -19    3.17    1.87
   8   1 -19    2.62    1.17
   7  -1 -19    1.47    1.56
   7   1 -19    2.80    1.82
   7   1 -19    0.59    1.22
   6  -1 -19    9.42    1.69
   6   1 -19    7.34    1.38
   6   1 -19    9.47    1.99
   5  -1 -19    0.65    1.15
  -5  -1  19    1.20    0.63
  -5   1  19    0.49    1.04
   5   1 -19    2.06    1.45
   5   1 -19    0.49    1.19
  -4  -1  19    9.51    0.99
   4  -1 -19    7.64    1.41
  -4   1  19   11.07    1.38
   4   1 -19    8.06    1.77
   4   1 -19    7.65    1.46
  -3  -1  19    1.64    0.83
   3  -1 -19    1.32    1.23
   3   1 -19    1.43    1.53
   3   1 -19   -0.54    1.19
  -3   1  19   -0.22    1.12
  -3   1  19    0.93    0.47
   2  -1 -19    1.91    1.17
   2   1 -19    0.96    1.23
   2   1 -19    1.13    1.31
  -2   1  19    0.24    1.24
  -2   1  19    1.59    0.69
   1  -1 -19    1.25    1.25
   1   1 -19    1.29    1.19
   1   1 -19   -0.78    1.29
  -1   1  19    0.83    0.80
  -1   1  19    0.43    1.22
   0  -1 -19   32.50    2.30
   0   1 -19   33.36    2.40
   0   1  19   29.68    1.70
   0   1  19   31.36    2.54
   0   1 -19   32.87    2.42
  -1  -1 -19    4.70    1.32
   1  -1  19    3.98    1.53
   1   1  19    3.37    1.02
  -1   1 -19    3.07    1.28
  -1   1 -19    3.59    1.39
   1   1  19    3.91    2.72
  -2  -1 -19   11.34    1.56
   2  -1  19   12.33    1.87
   2   1  19    9.71    1.34
   2   1  19   11.96    1.81
  -2   1 -19    9.17    1.70
  -3  -1 -19   18.54    2.28
   3  -1  19   16.20    2.24
   3   1  19   21.72    2.18
   3   1  19   19.58    2.00
  -3   1 -19   15.86    2.14
  -4  -1 -19   10.51    1.52
   4  -1  19    9.17    2.03
  -4   1 -19    5.68    1.82
   4   1  19    8.21    1.78
   4   1  19    7.39    1.53
  -5  -1 -19    7.03    1.42
   5  -1  19    6.14    1.90
   5   1  19    7.57    2.08
   5   1  19    6.42    1.54
  -5   1 -19    4.68    1.86
  -6  -1 -19    2.68    1.34
   6  -1  19    4.42    1.84
   6   1  19    3.52    1.96
  -6   1 -19    3.75    1.85
   6   1  19    2.13    1.64
  -7  -1 -19    0.05    1.21
   7  -1  19    1.39    2.04
  -7   1 -19   -0.69    1.78
   7   1  19    2.66    2.02
   8  -1  19    3.21    2.07
  -8  -1 -19    3.16    1.31
   8   1  19    3.41    2.27
   8   1  19   -0.23    1.98
  -8   1 -19    3.30    2.10
   9  -1  19    7.60    2.53
   9   1  19   -1.40    2.26
   9   1  19    4.89    2.34
  10  -1  19    7.32    2.82
  10   1  19    8.14    3.09
  10   1  19    6.23    2.85
  11  -1  19    7.79    3.14
  11   1  19    6.65    3.08
  12  -2 -19   -4.08    2.84
  11  -2 -19   -1.49    2.32
  11   2 -19    0.98    1.92
  10  -2 -19    2.81    2.33
 -10  -2  19   -0.34    1.03
  10   2 -19    6.86    3.09
  -9  -2  19    0.99    1.01
   9  -2 -19   -1.35    1.90
   9   2 -19    3.48    1.67
  -8  -2  19    4.53    1.06
   8  -2 -19    3.05    1.96
   8   2 -19    5.80    1.74
  -7  -2  19   -0.07    1.03
  -7  -2  19    2.09    1.74
   7  -2 -19    3.80    1.75
   7   2 -19    0.74    1.53
   6  -2 -19    6.26    1.73
  -6  -2  19    4.59    1.17
  -6  -2  19    8.65    1.79
  -6   2  19    7.66    1.16
   6   2 -19    5.90    1.65
   5  -2 -19   14.04    2.02
  -5  -2  19   12.61    1.48
  -5   2  19   15.13    1.49
   5   2 -19   13.87    1.84
   4  -2 -19   13.21    1.89
  -4  -2  19   18.65    1.62
  -4  -2  19   21.60    2.22
  -4   2  19   16.68    1.66
   4   2 -19   15.78    1.96
  -3  -2  19    1.34    1.21
   3  -2 -19   -2.09    1.29
  -3  -2  19    1.34    1.37
   3   2 -19   -0.81    1.39
  -3   2  19    1.13    1.34
   2  -2 -19    7.56    1.60
  -2  -2  19    8.17    1.59
  -2   2  19    6.74    1.57
  -2   2  19    9.08    1.09
   2   2 -19    7.21    1.66
  -1  -2  19    9.53    1.73
   1  -2 -19   11.13    1.61
  -1   2  19   11.30    1.26
  -1   2  19    8.33    1.68
   1   2 -19    8.66    1.76
   0  -2 -19   13.91    1.83
   0  -2  19   13.10    1.71
   0   2 -19   15.00    2.04
   0   2  19   12.69    1.48
   1  -2  19    2.62    1.47
  -1  -2 -19    0.45    1.39
   1   2  19    2.58    1.69
   1   2  19    1.55    1.19
  -1   2 -19    2.79    1.64
   2  -2  19    3.36    1.54
  -2  -2 -19    1.24    1.34
   2   2  19    4.69    1.77
  -2   2 -19    2.28    1.52
   2   2  19    2.90    1.59
  -3  -2 -19    3.86    1.45
   3  -2  19    9.79    1.73
  -3   2 -19    8.07    1.84
   3   2  19    3.90    1.45
   3   2  19    5.52    1.95
  -4  -2 -19    5.93    1.49
   4  -2  19    6.54    1.72
  -4   2 -19    2.77    1.84
   4   2  19    5.93    2.06
   4   2  19    9.42    1.84
  -5  -2 -19    4.42    1.44
   5  -2  19    5.68    1.67
   5   2  19    4.26    1.84
  -5   2 -19    2.31    1.86
   5   2  19    4.04    2.15
   6  -2  19   10.22    1.84
  -6  -2 -19    5.64    1.75
   6   2  19    4.18    2.19
  -6   2 -19    4.97    2.13
   7  -2  19   -0.08    1.98
  -7  -2 -19   -0.04    1.32
   7  -2  19    1.87    1.63
   7   2  19    1.17    2.32
   7   2  19   -2.29    2.08
   8  -2  19    0.93    2.39
  -8  -2 -19    1.40    1.35
   8  -2  19    0.42    1.62
   8   2  19    1.87    2.75
   8   2  19   -3.33    2.23
   9  -2  19    5.85    2.75
  -9  -2 -19    4.40    1.51
   9  -2  19    5.50    1.64
   9   2  19    8.95    2.86
   9   2  19    3.99    2.88
  10  -2  19    1.78    4.61
  10   2  19    1.06    3.26
  10   3 -19   -2.80    2.46
  -9  -3  19    3.98    1.88
   9   3 -19    5.82    2.50
  -8  -3  19   -1.45    1.73
   8   3 -19    1.26    2.21
  -7  -3  19    7.38    1.76
   7   3 -19    9.60    2.38
  -6  -3  19    0.02    1.62
  -6   3  19    1.12    1.37
   6   3 -19    1.71    2.01
  -5  -3  19    6.45    1.91
  -5   3  19    5.82    1.68
   5   3 -19    9.83    2.17
  -4  -3  19    0.49    3.25
  -4  -3  19   -2.40    1.95
   4   3 -19    0.41    1.95
  -4   3  19    0.74    1.62
  -3  -3  19    2.63    1.77
  -3  -3  19    1.35    1.73
   3   3 -19    1.19    2.08
  -3   3  19    5.31    1.85
  -2  -3  19   -1.34    1.74
  -2  -3  19    1.59    1.70
   2   3 -19   -0.15    1.95
  -1  -3  19    7.23    2.02
  -1  -3  19    7.97    1.84
  -1   3  19    4.16    1.88
  -1   3  19    5.75    1.60
   1   3 -19    6.13    2.05
   0  -3  19    0.72    1.84
   0   3  19   -0.49    1.71
   0   3  19    1.68    1.84
   0   3 -19    2.36    2.06
   1  -3  19    5.25    1.80
   1   3  19    9.80    2.19
   1   3  19    6.33    1.73
  -1   3 -19    5.43    2.06
   2  -3  19    1.57    1.92
   2   3  19   -1.71    1.76
  -2   3 -19    0.83    2.16
   2   3  19    3.15    2.11
   3  -3  19    2.74    2.02
  -3   3 -19   -2.90    1.95
   3   3  19    8.46    2.25
   3   3  19    4.75    2.03
   4  -3  19    1.82    1.99
   4   3  19    2.17    2.26
  -5  -3 -19    0.64    1.65
   5  -3  19    2.49    2.05
   5   3  19    5.39    2.33
   5   3  19    5.74    2.51
  -6  -3 -19    3.68    1.74
   6  -3  19    1.59    2.02
   6   3  19    5.83    2.90
   6   3  19    3.97    2.45
  -7  -3 -19    9.92    2.02
   7  -3  19    9.38    2.37
   7   3  19    8.96    3.15
   7   3  19   11.51    3.04
   8  -3  19    3.61    2.22
  -8  -3 -19   -2.84    1.74
   8   3  19    1.76    3.16
   9  -3  19   11.56    2.66
  -8  -4  19    2.14    2.72
  -7  -4  19    1.35    2.49
  -6  -4  19    2.12    2.39
  -5  -4  19    2.36    2.50
  -5   4  19    3.81    2.22
   4  -4 -19    5.29    1.88
  -4  -4  19    7.93    2.63
  -4   4  19   10.43    2.44
  -3  -4  19    1.90    2.38
   3  -4 -19    2.97    1.83
  -3   4  19    3.76    2.35
  -2  -4  19    5.40    2.59
  -2   4  19    5.64    2.52
  -1  -4  19   -4.32    2.37
  -1   4  19   -1.42    2.45
   0  -4  19    2.50    2.51
   0   4  19   -1.95    2.24
   0   4  19    0.34    2.43
   1  -4  19    2.47    2.57
   1   4  19    2.33    2.65
   2   4  19   -3.87    2.59
   2   4  19   -0.65    2.63
   3   4  19    0.76    2.74
   3   4  19   -1.68    2.80
   4   4  19   -1.95    3.01
   4   4  19    6.01    3.01
   5   4  19   -1.85    3.35
  13   0 -20    5.96    2.97
  12   0 -20   28.46    3.40
  11   0 -20    3.23    2.62
  10   0 -20    9.08    2.54
   9   0 -20    0.77    1.99
   8   0 -20   15.53    2.13
   7   0 -20    1.20    1.78
   6   0 -20    8.25    1.78
   5   0 -20    1.48    1.09
   5   0 -20    1.05    1.54
   4   0 -20    9.51    1.40
   4   0 -20    8.00    1.64
  -3   0  20    0.80    0.56
  -3   0  20   -0.72    1.22
   3   0 -20    1.22    1.48
   3   0 -20    1.72    1.17
   2   0 -20    8.32    1.44
  -2   0  20    5.10    0.82
  -2   0  20    3.53    1.45
   2   0 -20    4.95    1.63
  -1   0  20   -0.41    0.77
   1   0 -20    0.42    1.36
   1   0 -20    3.03    1.17
  -1   0  20   -2.36    1.23
   0   0  20   -1.08    0.84
   0   0  20    1.55    2.38
   0   0 -20    3.37    1.33
   0   0 -20    1.40    1.35
   1   0  20   -0.51    0.99
   1   0  20   -0.14    1.45
  -1   0 -20    2.86    1.31
  -1   0 -20   -1.59    1.26
  -2   0 -20    4.13    1.43
   2   0  20    3.58    1.20
  -2   0 -20    8.81    1.72
   2   0  20    5.65    1.82
  -3   0 -20    2.51    1.62
   3   0  20    0.85    1.25
  -3   0 -20    0.64    1.36
   3   0  20    1.49    1.66
   4   0  20    2.24    1.60
   4   0  20    1.85    1.34
  -4   0 -20    2.06    1.33
  -4   0 -20    0.99    1.59
  -5   0 -20    1.20    2.65
   5   0  20    0.20    1.39
   5   0  20   -3.55    1.68
  -5   0 -20   -1.09    1.53
   6   0  20    4.25    2.07
  -6   0 -20   12.56    2.11
   7   0  20   -3.60    1.98
  -7   0 -20    4.22    1.95
   7   0  20    0.88    1.77
   8   0  20    6.83    2.47
   8   0  20    9.63    2.28
   9   0  20   -2.84    2.18
   9   0  20   -3.54    2.30
  10   0  20   -0.56    2.60
  13   1 -20    3.04    4.21
  12  -1 -20   -0.06    2.76
  12   1 -20    0.51    2.70
  11  -1 -20    1.30    2.28
  11   1 -20    4.20    2.50
  10  -1 -20   -1.45    2.08
  10   1 -20    1.68    1.20
  10   1 -20    0.65    2.26
   9  -1 -20    2.64    2.01
   9   1 -20    0.65    2.10
   9   1 -20   -3.28    1.23
   8  -1 -20   -1.09    1.80
   8   1 -20    1.01    1.97
   8   1 -20   -2.76    1.23
   7  -1 -20    5.48    1.62
   7   1 -20    5.99    1.86
   7   1 -20    1.45    1.31
   6  -1 -20   -0.05    1.52
   6   1 -20    1.17    1.64
   6   1 -20    0.10    1.26
  -5  -1  20   -0.01    0.63
   5  -1 -20   -0.12    1.39
  -5   1  20    0.34    1.12
   5   1 -20    2.05    1.52
   5   1 -20    1.14    1.59
   4  -1 -20    1.82    1.38
  -4  -1  20    0.61    0.83
   4   1 -20    3.35    1.38
  -4   1  20    2.06    1.27
   4   1 -20    0.38    1.56
   3  -1 -20   11.67    1.79
  -3  -1  20    9.71    1.11
  -3   1  20    9.65    1.51
   3   1 -20    7.99    1.69
   3   1 -20    8.80    1.53
   2  -1 -20    3.06    1.44
   2   1 -20    1.81    1.40
   2   1 -20    2.51    1.60
  -2   1  20    3.31    0.75
  -2   1  20    0.60    1.30
   1  -1 -20    0.74    1.39
   1   1 -20    1.49    1.47
  -1   1  20   -0.14    0.85
  -1   1  20    1.42    1.38
   1   1 -20   -1.09    1.36
   0  -1 -20    2.20    1.40
   0   1  20   -0.02    1.00
   0   1  20    2.19    2.71
   0   1 -20    0.06    1.36
   0   1 -20   -1.28    1.36
   1  -1  20    6.87    1.82
  -1  -1 -20    6.56    1.46
  -1   1 -20    5.15    1.63
  -1   1 -20    4.64    1.71
   1   1  20    5.83    1.23
   1   1  20    4.58    1.76
  -2  -1 -20    2.89    1.32
   2  -1  20    4.15    1.77
  -2   1 -20    0.29    1.53
   2   1  20    3.48    1.23
   2   1  20   -0.37    1.69
  -3  -1 -20    9.84    1.57
   3  -1  20    6.46    1.90
  -3   1 -20    8.18    1.98
   3   1  20    6.50    1.44
   3   1  20   10.54    2.11
   4  -1  20    8.26    2.16
  -4  -1 -20   12.50    1.68
   4   1  20   15.28    2.36
   4   1  20   12.81    1.70
  -4   1 -20   14.04    2.34
   5  -1  20   -0.49    1.90
  -5  -1 -20    1.75    1.61
   5   1  20    2.80    1.56
   5   1  20    3.21    2.02
  -5   1 -20    5.59    1.98
  -6  -1 -20    5.07    1.49
   6  -1  20    4.38    2.15
  -6   1 -20    5.06    2.12
   6   1  20    6.56    2.37
  -7  -1 -20    9.38    1.64
   7  -1  20    8.73    2.30
   7   1  20    8.86    2.12
  -7   1 -20   13.32    2.59
   7   1  20   14.84    2.82
   8  -1  20    2.04    2.36
  -8  -1 -20    3.38    1.47
   8   1  20    3.34    2.61
   8   1  20   -1.84    2.09
   9  -1  20    3.20    2.46
   9   1  20    4.27    2.59
   9   1  20   -1.96    2.36
  10  -1  20    0.19    2.69
  10   1  20    2.36    2.98
  11  -2 -20   -1.27    4.51
  10  -2 -20    4.06    2.60
   9  -2 -20   -1.43    2.20
  -9  -2  20    0.61    1.01
   9   2 -20    2.91    1.82
   8  -2 -20    1.21    1.96
  -8  -2  20    1.78    1.04
   8   2 -20    3.90    1.82
  -7  -2  20    4.29    1.19
   7  -2 -20    2.15    1.92
   7   2 -20    4.02    1.79
  -6  -2  20   -0.15    1.11
   6  -2 -20    0.35    1.77
  -6   2  20    2.90    1.19
   6   2 -20   -0.99    1.61
  -5  -2  20   10.78    1.99
   5  -2 -20    3.73    1.66
  -5  -2  20    6.20    1.36
   5   2 -20    4.40    1.81
  -5   2  20    5.92    1.37
   4  -2 -20   -0.73    1.59
  -4  -2  20    1.41    1.63
  -4  -2  20   -0.99    1.16
  -4   2  20    1.14    1.42
   4   2 -20   -2.16    1.53
   3  -2 -20    7.57    1.72
  -3  -2  20    8.15    1.80
  -3  -2  20    8.39    1.53
  -3   2  20    7.77    1.70
   3   2 -20    8.15    1.91
   2  -2 -20    4.11    1.55
  -2  -2  20    4.99    1.48
  -2  -2  20    1.13    1.68
   2   2 -20    3.66    1.70
  -2   2  20    2.32    1.62
  -2   2  20    3.74    0.98
  -1  -2  20   10.26    1.90
   1  -2 -20    8.10    1.82
  -1   2  20   12.56    2.29
   1   2 -20    8.92    1.85
  -1   2  20   10.17    1.32
   0  -2 -20    4.22    1.65
   0  -2  20    5.83    1.63
   0   2  20    4.89    1.32
   0   2 -20    6.46    1.88
   0   2  20    5.92    1.77
   1  -2  20    8.68    1.85
  -1  -2 -20    7.20    1.69
   1   2  20    9.50    1.49
  -1   2 -20    9.16    2.13
   1   2  20    9.27    2.12
   2  -2  20   12.33    2.08
  -2  -2 -20   10.58    1.90
   2   2  20    7.80    2.21
   2   2  20    9.92    1.72
  -2   2 -20   11.27    2.06
   3  -2  20    6.61    1.72
  -3  -2 -20    5.04    1.65
   3   2  20    3.65    1.57
   3   2  20    2.32    2.04
  -3   2 -20    4.94    2.00
   4  -2  20   -1.10    1.60
  -4  -2 -20    0.11    1.51
  -4   2 -20   -0.56    1.91
   4   2  20   -0.30    2.15
   4   2  20    1.49    1.71
  -5  -2 -20    4.35    1.56
   5  -2  20    2.81    1.79
  -5   2 -20    5.98    2.29
   5   2  20    4.52    2.28
   6  -2  20    4.18    1.72
  -6  -2 -20    2.69    1.57
   6   2  20    3.29    2.18
   6   2  20    3.43    2.43
  -7  -2 -20    8.68    3.21
   7  -2  20    4.57    2.61
   7  -2  20    6.38    1.68
   7   2  20    3.98    2.52
   7   2  20    7.06    2.89
   8  -2  20    3.37    2.75
   8  -2  20    3.39    1.70
  -8  -2 -20    0.06    1.57
   8   2  20   -2.22    2.62
   8   2  20   -5.47    2.77
  -9  -2 -20    0.63    1.54
   9   2  20   -1.60    3.01
   9   3 -20    2.96    2.71
  -8  -3  20    2.20    1.88
   8   3 -20    6.64    2.54
  -7  -3  20    2.08    1.77
   7   3 -20   -1.11    2.39
  -6  -3  20    2.35    1.76
   6   3 -20    5.85    2.42
  -6   3  20    1.45    1.53
   5   3 -20    0.01    2.20
  -5   3  20    2.42    1.70
  -4  -3  20    4.63    1.82
   4   3 -20    2.59    2.21
  -4   3  20    1.88    1.83
  -3  -3  20    4.85    1.92
   3   3 -20    5.32    2.29
  -3   3  20    4.82    2.00
  -2  -3  20    4.00    2.02
  -2   3  20    8.50    2.13
   2   3 -20   11.31    2.52
  -1  -3  20    1.02    2.25
  -1  -3  20    3.28    1.83
   1   3 -20    2.01    2.19
  -1   3  20   -3.42    1.45
  -1   3  20    4.79    2.14
   0  -3  20    5.42    1.96
   0   3 -20    3.62    2.26
   0   3  20    6.52    1.79
   0   3  20    8.08    2.32
   1  -3  20   -1.01    2.00
  -1   3 -20    0.89    2.19
   1   3  20    0.36    1.68
   1   3  20    1.54    2.20
   2  -3  20   -2.07    1.84
  -2   3 -20   -0.21    2.60
   2   3  20    2.32    2.01
   2   3  20    3.47    2.39
   3  -3  20    0.36    2.04
   3   3  20    3.38    2.20
   3   3  20   -1.92    2.42
   4  -3  20    0.78    1.95
  -4  -3 -20   -2.98    1.74
   4   3  20    0.99    2.55
   4   3  20    0.59    2.55
  -5  -3 -20    1.39    1.86
   5  -3  20    0.75    2.23
   5   3  20    1.60    2.71
   5   3  20    1.94    2.44
  -6  -3 -20   -2.82    1.94
   6  -3  20   -3.08    2.22
   6   3  20   -1.20    3.10
   6   3  20    2.88    2.80
   7  -3  20    2.83    2.49
  -7  -3 -20   -0.79    2.00
   7   3  20   -0.17    3.21
   7   3  20    1.75    3.91
   8  -3  20    7.74    2.72
  -8  -3 -20    7.06    2.14
  -6  -4  20   -3.48    2.53
  -5  -4  20    2.05    2.67
  -4  -4  20    3.10    2.81
  -4   4  20    4.13    2.49
  -3  -4  20    8.82    2.89
  -3   4  20   10.10    2.76
  -2  -4  20    5.95    2.78
  -2   4  20    2.02    2.68
  -1  -4  20    3.44    2.82
  -1   4  20    8.84    2.69
   0  -4  20    5.99    2.87
   0   4  20    6.36    2.91
   0   4  20   -4.92    2.53
   1  -4  20    2.90    2.62
   1   4  20    8.52    3.06
   2   4  20    1.88    3.11
   2   4  20    0.16    2.71
   3   4  20    6.49    3.20
   3   4  20    1.97    3.15
   4   4  20    7.30    3.70
   4   4  20    5.50    3.40
  12   0 -21    6.75    4.77
  11   0 -21   15.33    3.08
  10   0 -21    1.03    2.50
   9   0 -21   17.21    2.63
   8   0 -21    3.99    2.16
   7   0 -21    6.84    2.00
   6   0 -21    1.91    1.81
   5   0 -21    6.72    1.78
   4   0 -21    1.12    1.26
   4   0 -21   -2.40    1.62
  -3   0  21   13.25    1.00
   3   0 -21   15.06    1.75
   3   0 -21   10.43    1.89
  -2   0  21    0.91    1.44
   2   0 -21    0.24    1.51
   2   0 -21    0.15    1.30
  -2   0  21    1.04    0.75
  -1   0  21   -1.07    1.92
   1   0 -21    2.53    1.39
  -1   0  21    0.10    0.94
   1   0 -21    0.92    1.58
   0   0  21    0.86    1.58
   0   0 -21    2.84    1.58
   0   0 -21    2.10    1.40
   0   0  21   -0.53    1.00
   1   0  21   14.99    2.12
   1   0  21   14.66    1.52
  -1   0 -21   12.24    1.81
  -1   0 -21   18.30    2.00
   2   0  21    0.25    1.70
   2   0  21   -2.57    2.13
  -2   0 -21   -0.21    1.54
  -2   0 -21    1.45    1.54
   3   0  21    6.62    2.01
  -3   0 -21    4.61    1.65
   3   0  21    2.41    1.39
  -3   0 -21    3.46    1.64
  -4   0 -21    0.46    1.43
   4   0  21    3.21    1.97
  -4   0 -21    1.08    1.64
   4   0  21    0.38    1.47
   5   0  21    0.57    1.59
  -5   0 -21    3.70    1.86
   5   0  21    0.28    2.09
  -5   0 -21    1.47    1.50
  -6   0 -21    5.42    2.28
   6   0  21   -2.84    2.02
   7   0  21   -3.04    2.26
   7   0  21   -2.23    1.99
   8   0  21   -3.57    2.33
   8   0  21   -1.61    2.21
   9   0  21   -0.41    3.15
   9   0  21    0.62    2.62
  11  -1 -21    3.01    2.78
  11   1 -21   -0.78    2.64
  10  -1 -21    3.91    2.42
  10   1 -21    4.15    2.46
   9  -1 -21    2.83    2.06
   9   1 -21   -1.63    2.30
   9   1 -21    0.95    1.41
   8  -1 -21    0.31    2.01
   8   1 -21   -1.02    1.52
   8   1 -21    1.87    2.07
   7  -1 -21    3.34    1.79
   7   1 -21    1.95    1.87
   7   1 -21    2.45    1.55
   6  -1 -21    0.33    1.88
   6   1 -21    7.20    2.08
   6   1 -21    3.95    1.75
  -5  -1  21    5.74    0.72
   5  -1 -21    2.46    1.77
   5   1 -21    2.41    1.56
   5   1 -21    7.49    2.07
  -5   1  21    8.55    1.50
   4  -1 -21    8.68    1.96
  -4  -1  21    7.19    1.04
   4   1 -21    6.23    1.75
  -4   1  21    7.57    1.54
   4   1 -21    3.03    1.54
  -3  -1  21    7.12    1.05
   3  -1 -21    2.95    1.66
   3   1 -21    4.21    1.59
   3   1 -21    6.36    1.80
  -3   1  21    7.91    1.64
   2  -1 -21   -0.54    1.67
  -2   1  21    2.32    1.48
   2   1 -21   -1.36    1.53
  -2   1  21    0.11    0.78
   2   1 -21    2.39    1.71
   1  -1 -21    3.06    1.60
  -1   1  21    3.94    1.02
  -1   1  21    3.68    1.88
   1   1 -21    3.05    1.53
   1   1 -21    1.88    1.67
   0  -1 -21   26.14    2.66
   0   1  21   22.91    1.88
   0   1 -21   22.82    2.35
   0   1 -21   19.52    2.24
   0   1  21   26.17    2.85
   1  -1  21    8.03    1.99
  -1  -1 -21    6.62    1.80
   1   1  21    5.03    1.30
  -1   1 -21    4.62    1.91
   1   1  21    6.16    1.87
  -2  -1 -21    5.29    1.57
   2  -1  21    3.71    1.95
  -2   1 -21    0.78    1.76
   2   1  21    2.58    1.84
   3  -1  21    3.79    1.99
  -3  -1 -21    3.95    1.57
   3   1  21    4.22    2.22
  -3   1 -21    6.59    2.00
   3   1  21    4.16    1.54
   4  -1  21    4.19    2.29
  -4  -1 -21   10.35    1.77
  -4   1 -21   13.75    2.38
   4   1  21    9.61    1.81
   4   1  21   10.48    2.25
   5  -1  21    0.54    2.33
  -5  -1 -21    4.46    1.62
   5   1  21   -0.57    2.32
  -5   1 -21    5.61    2.26
   5   1  21    4.03    1.79
  -6  -1 -21   -0.78    1.58
   6  -1  21   -2.65    2.18
   6   1  21    0.15    2.18
  -6   1 -21    2.22    2.14
  -7  -1 -21    1.97    2.88
   7  -1  21    2.25    2.60
   7   1  21    4.01    2.70
   7   1  21    1.49    2.13
  -8  -1 -21    2.15    1.66
   8  -1  21    2.76    2.64
   8   1  21   -0.25    2.30
   8   1  21    2.70    2.77
   9  -1  21    2.12    2.71
   9   1  21    4.60    3.17
   9  -2 -21   -0.88    2.52
   9   2 -21    4.11    2.06
   8  -2 -21   -1.36    2.33
  -8  -2  21   -0.02    1.25
   8   2 -21   -1.03    1.94
  -7  -2  21    0.74    1.09
   7  -2 -21    6.04    2.24
   7   2 -21    1.77    1.98
   6  -2 -21   -1.54    1.85
  -6  -2  21    0.06    1.16
  -6   2  21    0.06    1.32
   6   2 -21    1.30    1.90
  -5  -2  21    2.63    1.37
   5  -2 -21    4.10    1.86
   5   2 -21    4.17    1.89
  -5   2  21    4.29    1.54
   4  -2 -21    1.60    1.94
  -4  -2  21    4.12    1.39
  -4  -2  21    9.13    2.02
  -4   2  21    2.68    1.57
   4   2 -21    7.14    1.96
  -3  -2  21   -1.69    1.36
   3  -2 -21   -2.48    1.75
  -3  -2  21    2.43    1.75
   3   2 -21    3.31    1.80
  -3   2  21   -0.03    1.60
  -2  -2  21    3.38    1.42
  -2  -2  21    4.56    1.83
   2  -2 -21   -1.23    1.57
  -2   2  21    2.61    1.73
   2   2 -21    4.34    1.96
  -2   2  21    2.43    1.03
   1  -2 -21    2.30    1.74
  -1  -2  21    2.24    1.82
   1   2 -21    3.06    1.90
  -1   2  21    3.48    1.24
  -1   2  21    2.25    1.78
   0  -2 -21    8.11    2.01
   0  -2  21    7.13    1.91
   0   2 -21    6.71    2.05
   0   2  21    8.79    1.51
   0   2  21    8.14    2.10
   1  -2  21    3.83    1.93
  -1  -2 -21    1.27    1.79
   1   2  21    5.11    2.05
   1   2  21    4.51    1.53
  -1   2 -21    3.95    2.05
  -2  -2 -21    2.81    1.74
   2  -2  21    1.25    1.83
   2   2  21   -0.46    2.06
   2   2  21    4.47    1.65
  -2   2 -21    0.73    2.09
  -3  -2 -21    2.90    1.67
   3  -2  21   -0.15    1.71
   3   2  21   -1.45    1.61
  -3   2 -21   -2.56    2.11
   3   2  21    0.98    2.25
   4  -2  21    3.27    1.70
  -4  -2 -21    1.64    1.64
  -4   2 -21    0.87    2.22
   4   2  21   -1.18    2.20
   4   2  21    3.16    2.00
  -5  -2 -21    0.96    1.76
   5  -2  21    3.48    1.72
   5   2  21   -0.41    2.51
  -6  -2 -21    2.57    1.79
   6  -2  21    7.08    1.82
   6   2  21    4.89    2.46
   6   2  21    4.24    2.79
  -7  -2 -21    0.09    1.73
   7   2  21   -0.20    2.72
   7   2  21    0.07    2.76
  -8  -2 -21    1.58    1.90
   8   2  21   -3.09    3.14
   8   2  21   -4.57    3.51
   8   3 -21   -3.48    2.84
  -7  -3  21    9.33    2.01
   7   3 -21    8.71    2.86
  -6  -3  21   -2.51    2.00
   6   3 -21    0.85    2.71
  -5  -3  21    2.49    2.20
  -5   3  21    4.77    1.93
   5   3 -21    7.10    2.73
  -4  -3  21   -1.49    1.95
   4   3 -21    2.10    2.42
  -4   3  21    1.47    1.96
  -3  -3  21    2.15    2.12
   3   3 -21    0.07    2.31
  -3   3  21   -0.36    2.18
  -2  -3  21   -1.54    2.01
   2   3 -21   -4.33    2.11
  -2   3  21    2.56    2.22
  -1  -3  21    5.62    2.07
   1   3 -21    1.67    2.38
  -1   3  21    6.34    2.46
  -1   3  21    2.02    1.70
   0   3 -21    0.60    2.66
   0   3  21    8.01    2.59
   0   3  21    3.48    1.85
  -1  -3 -21    4.84    2.10
   1   3  21   11.46    2.19
   1   3  21   12.41    2.75
  -2  -3 -21    2.22    2.07
   2   3  21    5.82    2.71
   2   3  21    5.75    2.30
  -3  -3 -21    4.76    2.00
   3   3  21    1.42    2.74
  -4  -3 -21    4.96    2.19
   4  -3  21    2.55    3.14
   4   3  21    3.88    2.68
   4   3  21    4.80    2.96
  -5  -3 -21   -0.96    2.20
   5  -3  21    3.79    2.84
   5   3  21    2.04    2.65
   5   3  21    8.18    3.30
  -6  -3 -21   -3.61    2.16
   6  -3  21   -1.36    2.63
   6   3  21    3.92    2.93
   6   3  21   12.56    3.66
   7  -3  21    5.00    2.87
  -7  -3 -21    3.20    2.13
  -4  -4  21    2.39    3.02
  -3  -4  21   -4.24    2.79
  -3   4  21   -0.93    2.88
  -2  -4  21    5.53    3.07
  -2   4  21    7.84    3.00
  -1  -4  21    1.25    3.02
  -1   4  21    2.49    3.06
   0  -4  21    4.36    3.01
   0   4  21    6.04    3.26
   1  -4  21    1.70    3.05
   1   4  21    5.47    3.40
   2   4  21    9.86    3.62
  10   0 -22    3.05    2.56
   9   0 -22   -0.70    2.41
   8   0 -22   10.81    2.49
   7   0 -22    1.02    2.31
   6   0 -22    4.29    2.10
   5   0 -22   -1.43    1.87
   4   0 -22    4.52    1.84
   3   0 -22    2.90    1.46
   3   0 -22   -0.13    1.61
  -3   0  22    1.02    0.65
  -2   0  22   51.28    3.20
   2   0 -22   51.51    2.97
   2   0 -22   52.39    3.32
  -2   0  22   49.59    1.75
  -1   0  22   -1.25    0.97
  -1   0  22   -3.06    1.73
   1   0 -22    1.41    1.55
   1   0 -22    0.40    1.62
   0   0  22   19.56    1.93
   0   0 -22   20.72    2.42
   0   0 -22   22.94    2.18
   0   0  22   17.13    2.25
  -1   0 -22   -0.47    1.76
  -1   0 -22    0.24    1.73
   1   0  22   -0.62    1.23
   1   0  22    1.51    1.87
  -2   0 -22    5.95    1.80
   2   0  22    6.98    2.23
   2   0  22    6.69    1.58
  -2   0 -22    4.77    1.81
   3   0  22   -1.31    1.44
  -3   0 -22    1.19    1.66
   3   0  22   -2.55    1.97
  -3   0 -22    2.58    1.92
   4   0  22    1.82    2.15
  -4   0 -22    1.61    2.03
   4   0  22   -3.48    1.55
  -4   0 -22    2.72    1.65
  -5   0 -22    3.37    2.30
   5   0  22    5.10    2.42
  -5   0 -22   -0.31    1.68
   6   0  22    3.29    2.65
   6   0  22   -0.60    1.99
   7   0  22   -1.86    2.43
   7   0  22   -3.46    2.05
   8   0  22    8.18    2.66
   8   0  22    3.13    2.97
  10   1 -22    1.39    2.77
   9  -1 -22    4.36    2.47
   9   1 -22    2.52    2.63
   8  -1 -22    2.05    2.22
   8   1 -22    4.96    1.66
   8   1 -22    0.28    2.17
   7  -1 -22    8.98    2.20
   7   1 -22    8.28    2.24
   7   1 -22   11.40    1.88
   6  -1 -22   -0.77    1.90
   6   1 -22    1.33    1.69
   6   1 -22    0.97    1.98
   5  -1 -22    8.30    2.20
   5   1 -22   10.06    2.25
   5   1 -22    6.95    1.84
  -4  -1  22    8.06    1.04
   4  -1 -22    7.25    1.99
   4   1 -22    7.43    2.11
   4   1 -22    3.50    1.77
  -4   1  22    6.64    1.88
  -3  -1  22   18.07    1.77
   3  -1 -22   13.77    2.12
   3   1 -22   13.88    2.21
   3   1 -22   15.00    2.10
  -3   1  22   16.04    1.97
   2  -1 -22    4.10    1.83
  -2   1  22    3.06    0.92
   2   1 -22    1.31    1.85
   2   1 -22    4.95    1.97
  -2   1  22    3.42    1.79
   1  -1 -22    1.98    1.69
   1   1 -22   -0.19    1.83
   1   1 -22    2.21    1.76
  -1   1  22    0.43    1.70
  -1   1  22    2.98    1.09
   0  -1 -22    1.80    1.58
   0   1 -22   -1.22    1.71
   0   1  22   -0.50    1.72
   0   1 -22   -0.02    1.76
   0   1  22    0.60    1.18
  -1  -1 -22    8.05    1.85
  -1   1 -22    7.51    2.10
   1   1  22    4.79    1.51
   1   1  22    5.28    1.97
  -2  -1 -22    3.38    1.73
   2  -1  22    1.65    2.07
   2   1  22    2.18    2.14
   2   1  22    3.09    1.54
  -2   1 -22    4.22    2.16
   3  -1  22    9.51    2.62
  -3  -1 -22    7.84    1.90
   3   1  22    9.14    1.80
  -3   1 -22   12.32    2.32
   3   1  22    9.08    2.43
   4  -1  22   -0.77    2.29
  -4  -1 -22    3.09    1.75
   4   1  22    2.37    1.79
  -4   1 -22    7.37    2.45
   4   1  22    3.18    2.40
   5  -1  22   -0.84    2.40
  -5  -1 -22    4.87    1.81
   5   1  22    1.63    2.40
  -5   1 -22    2.31    2.56
  -6  -1 -22    0.02    1.78
   6  -1  22   -6.21    2.47
   6   1  22   -0.02    2.77
   6   1  22    3.73    2.19
  -7  -1 -22    4.33    1.84
   7  -1  22   -1.75    2.69
   7   1  22    3.57    2.96
   7   1  22    0.09    2.21
  -8  -1 -22    0.06    2.19
   8  -1  22   -3.58    2.82
   8   1  22    2.05    3.19
   8   1  22    2.17    2.62
   8  -2 -22    2.57    3.66
   8   2 -22    2.31    2.26
   7  -2 -22   -1.49    2.16
   7   2 -22    6.94    2.28
   6  -2 -22   -0.66    2.31
  -6  -2  22    0.08    1.19
  -6   2  22   -0.83    1.51
   6   2 -22    4.09    2.23
  -5  -2  22    1.01    1.33
   5  -2 -22   -6.77    2.02
   5   2 -22    2.40    2.23
  -5   2  22    2.68    1.67
  -4  -2  22   -0.02    1.48
   4  -2 -22   -5.57    2.02
   4   2 -22   -0.05    2.03
  -4   2  22   -0.10    1.65
   3  -2 -22   -1.88    1.96
  -3  -2  22   -0.27    1.46
  -3   2  22   -0.51    1.77
   3   2 -22   -1.53    2.00
  -2  -2  22    6.58    3.02
  -2  -2  22    3.96    1.56
   2  -2 -22   -2.10    1.90
   2   2 -22    3.48    2.12
  -2   2  22    3.04    1.95
  -2   2  22   -1.44    1.06
   1  -2 -22    2.19    2.03
  -1  -2  22    4.87    1.88
  -1   2  22    3.48    2.10
   1   2 -22    4.50    2.01
  -1   2  22    2.34    1.32
   0  -2  22    5.71    2.01
   0  -2 -22    2.38    1.95
   0   2  22    5.74    2.12
   0   2 -22    2.45    2.23
   0   2  22    1.99    1.55
  -1  -2 -22    8.21    1.99
   1  -2  22    9.22    2.03
  -1   2 -22    3.34    2.25
   1   2  22    6.74    2.33
   2  -2  22    8.42    2.05
  -2  -2 -22    4.48    1.87
  -2   2 -22    4.29    2.42
   2   2  22    9.96    2.58
   2   2  22    5.13    1.81
  -3  -2 -22    5.39    1.94
   3  -2  22    6.53    1.92
   3   2  22    1.92    1.94
  -3   2 -22    0.15    3.85
   3   2  22    3.24    2.53
  -4  -2 -22   -1.38    1.79
   4  -2  22    4.14    1.84
   4   2  22    4.09    2.56
  -5  -2 -22    6.51    2.05
   5   2  22   10.17    3.09
   5   2  22    7.92    2.49
  -6  -2 -22    3.66    2.02
   6   2  22    4.52    2.67
   6   2  22    4.58    3.12
  -7  -2 -22    8.35    2.08
   7   2  22    5.91    3.17
   7   2  22   10.55    3.45
  -8  -2 -22    2.52    2.92
   7   3 -22    0.44    3.01
   6   3 -22    2.05    2.90
  -5  -3  22   -1.23    2.07
   5   3 -22   -2.28    2.75
   4  -3 -22   -2.69    2.41
  -4  -3  22    0.91    2.20
   4   3 -22   -4.41    2.64
  -4   3  22    5.85    2.18
  -3  -3  22   -0.54    2.21
   3  -3 -22   -0.60    2.20
  -3   3  22    3.34    2.31
   3   3 -22    1.23    2.71
  -2  -3  22    0.16    2.24
   2  -3 -22    1.59    2.40
  -2   3  22    2.15    2.43
   2   3 -22    5.48    3.51
  -1  -3  22    8.72    2.45
   1  -3 -22    0.51    2.42
  -1   3  22    0.14    2.49
   0  -3 -22    0.99    2.35
   0   3  22   -0.23    2.41
   0   3  22    5.02    2.69
  -1  -3 -22   -0.50    2.14
   1   3  22    0.12    2.62
   1   3  22    2.54    2.19
  -2  -3 -22    5.35    2.37
   2   3  22    4.88    2.50
   2   3  22    2.91    2.91
  -3  -3 -22    0.74    2.36
   3   3  22    2.50    3.18
  -4  -3 -22   -1.33    2.30
   4   3  22    4.76    3.28
   4   3  22    3.92    2.94
  -5  -3 -22   -3.67    2.32
   5   3  22    1.47    3.02
   5   3  22   -0.27    3.45
  -6  -3 -22    0.90    2.40
   9   0 -23    4.98    4.35
   8   0 -23    3.72    2.51
   7   0 -23    3.94    2.32
   6   0 -23    2.99    2.08
   5   0 -23    7.21    2.25
   4   0 -23    1.66    2.00
   3   0 -23    3.12    1.92
  -3   0  23    0.13    0.61
  -2   0  23    0.90    0.94
  -2   0  23   -0.74    1.80
   2   0 -23    1.20    1.70
   2   0 -23   -1.17    1.85
   1   0 -23    5.49    2.15
  -1   0  23    6.81    1.22
   1   0 -23    4.98    1.86
  -1   0  23    6.09    2.12
   0   0  23   -2.54    2.01
   0   0  23   -2.27    1.16
   0   0 -23    1.53    1.81
   0   0 -23    0.54    1.88
   1   0  23   25.40    2.61
   1   0  23   28.19    2.77
  -1   0 -23   28.40    2.75
  -1   0 -23   28.85    2.71
  -2   0 -23    4.89    2.09
  -2   0 -23   -0.11    1.85
   2   0  23   -0.97    1.42
   2   0  23    3.75    2.37
   3   0  23   16.01    2.08
  -3   0 -23   17.70    2.48
   3   0  23   19.94    2.92
  -3   0 -23   16.79    2.35
   4   0  23   -1.49    1.83
  -4   0 -23    5.05    2.22
   4   0  23   -1.04    2.36
  -4   0 -23   -0.09    1.86
   5   0  23    9.06    2.92
   5   0  23    4.36    2.45
   6   0  23   -0.03    2.28
   6   0  23    2.45    2.88
   7   0  23   -0.59    2.80
   7   0  23   -2.75    2.44
   8  -1 -23    2.59    2.79
   8   1 -23    4.49    2.59
   7  -1 -23    1.64    2.10
   7   1 -23    0.60    2.11
   7   1 -23    1.86    2.15
   6  -1 -23    7.87    2.37
   6   1 -23    7.02    2.27
   6   1 -23    6.40    1.99
   5  -1 -23    0.17    2.20
   5   1 -23    4.56    1.96
   5   1 -23    3.82    2.21
   4  -1 -23   11.76    2.34
   4   1 -23    7.00    2.10
  -4   1  23    7.30    1.87
   4   1 -23    5.65    2.23
   3  -1 -23    9.68    2.23
  -3  -1  23   10.18    1.36
   3   1 -23   13.13    2.42
  -3   1  23    7.60    1.98
   3   1 -23    9.37    2.11
   2  -1 -23    9.45    2.11
   2   1 -23    8.23    2.19
  -2   1  23    8.85    2.12
   2   1 -23   -0.57    2.01
   1  -1 -23    2.05    1.88
  -1   1  23    4.00    2.10
   1   1 -23   -2.05    1.88
   1   1 -23    3.09    2.10
  -1   1  23    1.30    1.10
   0  -1 -23    6.79    2.03
   0   1 -23    7.77    2.23
   0   1  23    8.21    1.52
   0   1 -23    4.11    2.15
   0   1  23    6.15    2.15
  -1  -1 -23   -0.20    1.73
  -1   1 -23    3.10    2.17
   1   1  23    0.82    2.12
   1   1  23    0.93    1.50
  -2  -1 -23    2.03    1.85
   2  -1  23    2.51    2.31
   2   1  23    1.85    1.66
  -2   1 -23    1.83    2.20
   2   1  23   -2.21    2.16
   3  -1  23    3.61    2.43
  -3  -1 -23    1.95    1.97
   3   1  23    2.69    1.80
  -3   1 -23    2.01    2.36
   3   1  23    3.07    2.44
  -4  -1 -23    5.27    1.90
   4  -1  23    3.99    2.51
   4   1  23    3.36    2.04
   4   1  23    7.20    2.65
   5  -1  23    4.52    2.94
  -5  -1 -23    6.49    2.13
   5   1  23    6.12    2.97
   5   1  23    1.12    2.51
   6  -1  23    1.23    2.42
   6  -1  23   -2.24    2.89
  -6  -1 -23    2.49    2.02
   6   1  23    5.56    3.15
   6   1  23    0.77    2.49
   7  -1  23   -0.11    3.62
   7  -1  23   -2.98    2.87
  -7  -1 -23   -0.19    1.99
   7   1  23   -2.06    2.68
   7   1  23    0.83    3.19
   7   2 -23    1.79    2.41
   6  -2 -23    1.18    2.35
   6   2 -23    3.09    2.38
  -5  -2  23    1.67    1.64
   5  -2 -23   -0.55    2.44
   5   2 -23   -0.25    2.40
  -5   2  23    4.26    1.88
   4  -2 -23   -0.92    2.23
  -4  -2  23    1.78    1.63
   4   2 -23    1.12    2.33
  -4   2  23    5.57    2.01
   3  -2 -23   -1.74    2.03
  -3  -2  23    1.25    1.73
   3   2 -23   -0.07    2.30
  -2  -2  23    1.74    1.77
   2  -2 -23    1.39    2.18
  -2   2  23    1.30    2.20
   2   2 -23   -2.29    2.29
   1  -2 -23    1.70    2.16
  -1   2  23    2.92    2.37
   1   2 -23   -1.15    2.23
  -1   2  23    1.49    1.52
   0  -2 -23    4.64    2.21
   0   2  23    2.71    2.36
   0   2  23   -0.05    1.62
   0   2 -23    0.24    2.42
  -1  -2 -23    5.87    2.18
   1   2  23    6.13    2.52
   1   2  23    1.52    1.77
  -1   2 -23    6.03    2.64
  -2  -2 -23    2.04    2.11
   2   2  23    7.29    2.62
   2   2  23    5.99    2.00
  -3  -2 -23    0.90    2.06
   3   2  23    3.07    2.64
   3   2  23    1.26    2.24
  -4  -2 -23    1.30    2.14
   4   2  23    2.86    2.78
  -5  -2 -23   10.36    2.38
   5   2  23    7.02    3.32
   5   2  23    7.44    2.87
  -6  -2 -23    2.58    2.29
   6   2  23    3.51    3.02
   6   2  23    7.79    3.38
  -7  -2 -23   -0.93    2.36
   6   3 -23   -3.49    3.14
   5   3 -23   -1.77    3.04
  -4  -3  23   -2.85    2.38
  -3  -3  23    4.72    2.54
  -3   3  23    7.26    2.61
   2  -3 -23    2.13    2.68
  -2  -3  23    1.54    2.46
  -2   3  23    4.01    2.68
  -1  -3  23   15.91    2.86
   1  -3 -23    7.97    2.61
  -1   3  23    8.34    2.89
   0  -3  23    1.32    2.57
   0  -3 -23    0.33    2.59
   0   3  23   -2.30    2.82
  -1  -3 -23    2.67    2.65
   1   3  23    1.79    3.17
  -2  -3 -23   -1.31    2.61
   2   3  23   -0.17    3.20
  -3  -3 -23   -5.21    2.56
   3   3  23    3.85    3.41
  -4  -3 -23   -2.38    2.53
   4   3  23    3.05    3.60
   7   0 -24    4.44    3.08
   6   0 -24    9.75    2.82
   5   0 -24    3.90    2.35
   4   0 -24    6.53    2.40
   3   0 -24    4.22    2.20
  -2   0  24   -0.25    1.01
   2   0 -24    3.41    2.24
  -1   0  24   -2.51    1.19
  -1   0  24    2.23    2.11
   1   0 -24   -1.67    2.14
   0   0  24   -0.54    1.37
   0   0 -24   -0.14    2.13
   0   0  24   -2.50    2.29
   0   0 -24    2.86    2.06
   1   0  24   -1.34    1.67
   1   0  24   -2.04    2.24
  -1   0 -24    3.03    2.12
  -1   0 -24    0.48    2.12
  -2   0 -24   25.45    2.98
   2   0  24   24.38    3.27
  -2   0 -24   19.16    2.60
   2   0  24   22.84    2.24
  -3   0 -24    2.84    2.04
   3   0  24    0.55    1.89
   3   0  24    2.69    2.75
   4   0  24   15.10    3.19
  -4   0 -24    8.55    2.31
   5   0  24    0.96    3.07
   5   0  24   -2.25    2.27
   6   0  24    5.06    2.58
   6   0  24    8.38    3.31
   7   0  24    3.04    3.21
   6  -1 -24    3.89    2.52
   6   1 -24    3.48    2.55
   6   1 -24    0.29    2.13
   5  -1 -24    3.46    2.52
   5   1 -24    9.00    2.60
   5   1 -24    3.69    2.15
   4  -1 -24    2.90    2.27
   4   1 -24    1.70    2.14
  -4   1  24    0.89    1.96
   4   1 -24    0.40    2.49
   3  -1 -24    2.91    2.31
  -3  -1  24    0.73    1.20
   3   1 -24    3.37    2.37
   3   1 -24    2.23    2.08
  -3   1  24    0.11    2.12
   2  -1 -24    0.22    2.10
  -2  -1  24    0.03    1.32
   2   1 -24    2.32    2.13
   2   1 -24   -2.88    2.27
  -2   1  24    1.01    2.07
   1  -1 -24    1.31    2.17
  -1  -1  24    3.10    1.46
   1   1 -24   -1.89    2.11
  -1   1  24    2.65    1.59
   1   1 -24    3.94    2.29
  -1   1  24    2.68    2.23
   0  -1  24   -1.40    1.48
   0  -1 -24   -1.95    2.04
   0   1  24   -2.26    1.43
   0   1 -24    2.78    2.32
   0   1  24   -0.38    2.22
   1  -1  24    0.52    1.76
  -1  -1 -24    2.98    2.21
  -1   1 -24    1.77    2.38
   1   1  24    0.94    2.27
   1   1  24    2.50    2.67
  -2  -1 -24   -2.86    2.11
   2  -1  24   -2.22    1.82
   2   1  24   -2.17    2.48
   2   1  24   -1.40    1.85
  -2   1 -24    2.51    2.49
   3  -1  24    2.98    2.87
  -3  -1 -24    0.75    2.08
   3   1  24   -0.92    2.53
   3   1  24    1.84    2.13
   4  -1  24    0.22    2.89
  -4  -1 -24    0.95    2.09
   4  -1  24    0.69    2.24
   4   1  24    0.97    2.79
   5  -1  24   -1.31    2.32
   5  -1  24    0.05    2.91
  -5  -1 -24    0.59    2.21
   5   1  24   -4.38    2.88
   5   1  24    4.45    2.53
   6  -1  24    0.98    2.60
  -6  -1 -24    1.04    2.34
   6   1  24   -0.50    3.13
   6   1  24    0.68    2.73
  -7  -1 -24    4.11    2.37
   7   1  24    4.46    3.62
   6   2 -24   -2.56    2.66
   5   2 -24   -4.93    2.54
   4  -2 -24    3.77    2.81
  -4   2  24    0.25    2.13
   4   2 -24   -5.41    2.58
   3  -2 -24    6.13    2.55
  -3  -2  24    1.08    1.91
   3   2 -24   -3.90    2.48
  -3   2  24   -0.26    2.22
  -2  -2  24    5.46    1.98
   2  -2 -24    4.82    2.35
   2   2 -24    6.07    2.81
  -2   2  24    1.62    2.43
   1  -2 -24    6.36    2.47
  -1   2  24    6.64    2.59
   1   2 -24    5.62    2.78
   0  -2 -24    0.59    2.32
   0   2  24   -1.77    2.56
  -1  -2 -24   -0.57    2.37
   1   2  24    0.48    2.70
  -2  -2 -24   -0.17    2.18
   2   2  24    2.15    2.84
  -3  -2 -24    5.50    2.46
   3   2  24    1.20    3.22
   3   2  24    4.19    3.15
  -4  -2 -24    2.06    2.41
   4   2  24    4.36    3.24
   4   2  24   -0.31    2.74
  -5  -2 -24    0.76    2.41
   5   2  24   -5.04    2.73
   5   2  24    6.54    3.58
  -2  -3  24    8.96    3.15
  -2   3  24    7.17    3.12
  -1  -3  24    2.18    2.75
  -1   3  24    0.83    3.05
   0  -3  24    6.91    2.87
   0   3  24    9.79    3.34
   5   0 -25   11.71    4.02
   4   0 -25   -2.91    2.64
   3   0 -25   10.59    3.01
   2   0 -25    3.34    2.66
   1   0 -25    8.07    2.68
  -1   0  25   10.36    2.71
   0   0 -25    1.05    2.45
   0   0  25   -1.26    2.46
   1   0  25    3.92    2.80
   1   0  25    1.98    2.03
  -1   0 -25   10.93    2.75
  -2   0 -25   -1.27    2.25
   2   0  25   -2.42    2.84
   2   0  25   -2.01    1.93
   3   0  25    8.74    3.14
  -3   0 -25    9.17    2.62
   3   0  25    2.82    2.25
   4   0  25    0.87    2.47
  -4   0 -25   -1.56    2.37
   4   0  25    1.78    3.04
   5   0  25   15.78    3.75
   5   0  25    7.47    2.66
   6   0  25    0.06    2.87
   5   1 -25    0.25    2.53
   4  -1 -25   13.87    2.95
   4   1 -25   12.55    2.85
   4   1 -25   14.75    4.12
   3  -1 -25    0.88    2.59
   3   1 -25    3.40    2.61
  -3   1  25   -2.14    2.31
   3   1 -25   -2.85    2.73
   2  -1 -25    4.60    2.59
   2   1 -25    0.72    2.54
  -2   1  25    0.43    2.36
   2   1 -25    5.98    2.72
   1  -1 -25    3.62    2.56
   1   1 -25    4.79    2.69
  -1   1  25    3.43    2.61
   0  -1 -25    3.41    2.54
   0   1  25    7.62    2.81
   0   1 -25    9.53    2.98
  -1  -1 -25    4.06    2.55
   1  -1  25    1.72    2.11
  -1   1 -25    2.41    3.10
   1   1  25    5.58    2.76
   2  -1  25    3.56    2.14
  -2  -1 -25    1.68    2.37
   2   1  25    2.21    2.86
   3  -1  25    1.57    2.95
   3  -1  25    3.97    2.60
  -3  -1 -25    1.18    2.26
   3   1  25   -1.38    2.91
   4  -1  25   -1.19    3.15
  -4  -1 -25   -0.97    2.54
   4  -1  25    2.11    2.52
   4   1  25   -1.27    3.00
   5  -1  25    4.27    2.86
  -5  -1 -25   -1.98    2.35
   5   1  25   -1.85    3.36
   5   1  25   -0.94    2.86
   5   2 -25    1.26    3.48
   4   2 -25   -1.65    2.93
   3   2 -25   -2.93    3.03
  -3   2  25    2.38    2.63
  -2   2  25   -2.13    2.63
   2   2 -25   -2.82    3.32
   1  -2 -25   -0.77    2.76
  -1   2  25   -1.02    2.69
   0  -2 -25   -1.81    2.64
   0   2  25    5.31    3.03
  -1  -2 -25    0.19    2.60
   1   2  25    1.27    3.09
  -2  -2 -25    1.86    2.69
   2   2  25    2.01    3.25
  -3  -2 -25    5.67    2.83
   3   2  25   -0.25    3.43
   2   0 -26    6.17    3.03
   1   0 -26   -0.57    2.76
   0   0 -26   -0.67    2.61
   0   0  26    4.28    2.92
   1   0  26    0.29    3.02
  -1   0 -26   -3.70    2.43
  -2   0 -26    7.17    2.85
   2   0  26    0.35    3.36
  -3   0 -26   -2.08    2.65
   3   0  26   -6.26    3.25
   4   0  26   10.09    3.98
  -3   1  26    3.89    2.62
   3   1 -26    1.18    2.96
  -2   1  26   -1.30    2.92
   2   1 -26    7.78    3.16
   1  -1 -26   17.55    3.28
  -1   1  26   17.15    3.22
   1   1 -26   10.67    3.31
   0  -1 -26    1.10    2.75
   0   1  26    5.09    3.03
  -1  -1 -26   10.78    2.99
   1   1  26    6.12    3.13
  -2  -1 -26    6.36    2.71
   2   1  26    3.15    3.10
  -3  -1 -26    7.59    2.94
   3   1  26    8.44    3.57
   0   0  27    0.39    3.24
   0   0   0    0.00    0.00
;
_shelx_hkl_checksum              49
loop_
_space_group_symop_operation_xyz
'x, y, z'
'-x+1/2, y, -z+1/2'
'-x, -y, -z'
'x-1/2, -y, z-1/2'
loop_
_atom_site_label
_atom_site_type_symbol
_atom_site_fract_x
_atom_site_fract_y
_atom_site_fract_z
_atom_site_U_iso_or_equiv
_atom_site_adp_type
_atom_site_occupancy
_atom_site_site_symmetry_order
_atom_site_calc_flag
_atom_site_refinement_flags_posn
_atom_site_refinement_flags_adp
_atom_site_refinement_flags_occupancy
Zn1 Zn 0.2500 0.82679(16) 0.2500 0.0245(3) Uani 1 2 d S T P
S1 S 0.53550(9) 1.2287(4) 0.27200(8) 0.0591(5) Uani 1 1 d . . .
F1 F 0.47278(18) -0.7888(6) -0.10355(14) 0.0441(8) Uani 1 1 d . . .
N1 N 0.2727(2) 0.5878(8) 0.17132(15) 0.0237(8) Uani 1 1 d . . .
C1 C 0.2065(3) 0.4810(10) 0.1327(2) 0.0277(11) Uani 1 1 d . . .
H1 H 0.1467 0.5406 0.1381 0.033 Uiso 1 1 calc R U .
C2 C 0.2202(3) 0.2895(10) 0.0853(2) 0.0295(11) Uani 1 1 d . . .
H2 H 0.1705 0.2207 0.0591 0.035 Uiso 1 1 calc R U .
C3 C 0.3064(3) 0.1970(9) 0.07581(19) 0.0238(10) Uani 1 1 d . . .
C4 C 0.3756(3) 0.3125(10) 0.11506(19) 0.0284(10) Uani 1 1 d . . .
H4 H 0.4361 0.2592 0.1100 0.034 Uiso 1 1 calc R U .
C5 C 0.3566(3) 0.5039(10) 0.1613(2) 0.0283(11) Uani 1 1 d . . .
H5 H 0.4052 0.5802 0.1873 0.034 Uiso 1 1 calc R U .
C6 C 0.3284(3) -0.0124(10) 0.02840(19) 0.0252(10) Uani 1 1 d . . .
H6 H 0.3890 -0.0736 0.0298 0.030 Uiso 1 1 calc R U .
C7 C 0.2717(3) -0.1241(10) -0.0161(2) 0.0292(11) Uani 1 1 d . . .
H7 H 0.2112 -0.0625 -0.0177 0.035 Uiso 1 1 calc R U .
C8 C 0.2941(3) -0.3351(10) -0.06323(19) 0.0261(10) Uani 1 1 d . . .
C9 C 0.2302(3) -0.4151(12) -0.1110(2) 0.0463(15) Uani 1 1 d . . .
H9 H 0.1728 -0.3304 -0.1129 0.056 Uiso 1 1 calc R U .
C10 C 0.2471(4) -0.6163(13) -0.1564(2) 0.0523(17) Uani 1 1 d . . .
H10 H 0.2013 -0.6665 -0.1886 0.063 Uiso 1 1 calc R U .
C11 C 0.3290(3) -0.7424(10) -0.1552(2) 0.0321(12) Uani 1 1 d . . .
H11 H 0.3413 -0.8808 -0.1857 0.038 Uiso 1 1 calc R U .
C12 C 0.3925(3) -0.6597(10) -0.10782(19) 0.0252(10) Uani 1 1 d . . .
C13 C 0.3774(3) -0.4618(10) -0.06214(19) 0.0260(10) Uani 1 1 d . . .
H13 H 0.4235 -0.4125 -0.0302 0.031 Uiso 1 1 calc R U .
N2 N 0.3641(3) 1.0049(8) 0.26998(17) 0.0329(10) Uani 1 1 d . . .
C14 C 0.4366(3) 1.0934(11) 0.2714(2) 0.0339(12) Uani 1 1 d . . .
C1S C 0.0000 0.0000 0.0000 0.067(5) Uiso 0.5 2 d S . P
C2S C 0.0020(10) 0.411(4) -0.0148(7) 0.068(4) Uiso 0.5 1 d . . P
C3S C -0.0216(15) -0.157(7) 0.0821(11) 0.124(7) Uiso 0.5 1 d . . P
C4S C 0.0015(10) 0.194(4) -0.0160(8) 0.076(4) Uiso 0.5 1 d . . P
C5S C 0.0138(12) -0.012(6) -0.0535(10) 0.090(5) Uiso 0.5 1 d . . P
C7S C 0.0119(11) -0.433(6) -0.0497(8) 0.084(5) Uiso 0.5 1 d . . P
C8S C 0.0170(11) -0.628(5) -0.0705(9) 0.089(5) Uiso 0.5 1 d . . P
C9S C 0.0105(13) -0.212(6) -0.0504(10) 0.100(6) Uiso 0.5 1 d . . P
loop_
_atom_site_aniso_label
_atom_site_aniso_U_11
_atom_site_aniso_U_22
_atom_site_aniso_U_33
_atom_site_aniso_U_23
_atom_site_aniso_U_13
_atom_site_aniso_U_12
Zn1 0.0320(4) 0.0253(5) 0.0168(3) 0.000 0.0066(3) 0.000
S1 0.0304(7) 0.0863(14) 0.0596(9) -0.0164(8) -0.0067(7) -0.0129(7)
F1 0.0291(15) 0.047(2) 0.0556(17) -0.0140(15) -0.0025(13) 0.0104(14)
N1 0.031(2) 0.026(2) 0.0149(16) 0.0015(14) 0.0072(15) -0.0025(17)
C1 0.024(2) 0.032(3) 0.027(2) 0.001(2) 0.0048(18) -0.002(2)
C2 0.027(2) 0.035(3) 0.027(2) -0.004(2) -0.0014(19) -0.006(2)
C3 0.034(2) 0.020(3) 0.0167(18) 0.0029(18) 0.0047(18) 0.000(2)
C4 0.032(2) 0.031(3) 0.022(2) 0.000(2) 0.0041(18) 0.004(2)
C5 0.031(3) 0.029(3) 0.025(2) 0.001(2) 0.0030(19) -0.001(2)
C6 0.024(2) 0.028(3) 0.024(2) 0.0018(19) 0.0003(18) 0.003(2)
C7 0.027(2) 0.033(3) 0.027(2) 0.001(2) 0.0003(19) 0.003(2)
C8 0.031(2) 0.028(3) 0.0192(19) -0.004(2) 0.0016(17) -0.001(2)
C9 0.034(3) 0.063(4) 0.041(3) -0.022(3) -0.003(2) 0.016(3)
C10 0.043(3) 0.075(5) 0.037(3) -0.027(3) -0.017(2) 0.018(3)
C11 0.035(3) 0.041(3) 0.020(2) -0.0099(19) -0.0008(19) 0.005(2)
C12 0.022(2) 0.029(3) 0.025(2) 0.000(2) 0.0037(17) 0.002(2)
C13 0.024(2) 0.033(3) 0.021(2) 0.0018(19) -0.0043(17) -0.005(2)
N2 0.044(2) 0.031(3) 0.0236(19) -0.0039(17) 0.0043(18) -0.002(2)
C14 0.036(3) 0.040(3) 0.024(2) -0.007(2) -0.004(2) 0.007(2)
loop_
_atom_type_symbol
_atom_type_description
_atom_type_scat_dispersion_real
_atom_type_scat_dispersion_imag
_atom_type_scat_source
C C 0.0033 0.0016 'International Tables Vol C Tables 4.2.6.8 and 6.1.1.4'
H H 0.0000 0.0000 'International Tables Vol C Tables 4.2.6.8 and 6.1.1.4'
F F 0.0171 0.0103 'International Tables Vol C Tables 4.2.6.8 and 6.1.1.4'
N N 0.0061 0.0033 'International Tables Vol C Tables 4.2.6.8 and 6.1.1.4'
S S 0.1246 0.1234 'International Tables Vol C Tables 4.2.6.8 and 6.1.1.4'
Zn Zn 0.2839 1.4301 'International Tables Vol C Tables 4.2.6.8 and 6.1.1.4'
O O 0.0106 0.0060 'International Tables Vol C Tables 4.2.6.8 and 6.1.1.4'
loop_
_geom_angle_atom_site_label_1
_geom_angle_atom_site_label_2
_geom_angle_atom_site_label_3
_geom_angle
_geom_angle_site_symmetry_1
_geom_angle_site_symmetry_3
N2 Zn1 N2 125.7(2) . 2
N2 Zn1 N1 106.47(15) . 2
N2 Zn1 N1 104.42(14) 2 2
N2 Zn1 N1 104.42(14) . .
N2 Zn1 N1 106.47(15) 2 .
N1 Zn1 N1 108.6(2) 2 .
C1 N1 C5 116.7(4) . .
C1 N1 Zn1 123.0(3) . .
C5 N1 Zn1 119.8(3) . .
N1 C1 C2 123.6(4) . .
C1 C2 C3 120.0(4) . .
C2 C3 C4 116.4(4) . .
C2 C3 C6 124.6(4) . .
C4 C3 C6 119.0(4) . .
C5 C4 C3 120.2(4) . .
N1 C5 C4 123.1(4) . .
C7 C6 C3 126.1(4) . .
C6 C7 C8 125.8(4) . .
C9 C8 C13 117.4(4) . .
C9 C8 C7 119.4(4) . .
C13 C8 C7 123.1(4) . .
C8 C9 C10 122.0(5) . .
C11 C10 C9 120.6(5) . .
C10 C11 C12 117.0(4) . .
F1 C12 C11 118.3(4) . .
F1 C12 C13 118.1(4) . .
C11 C12 C13 123.6(4) . .
C12 C13 C8 119.4(4) . .
C14 N2 Zn1 167.9(4) . .
N2 C14 S1 177.4(5) . .
C4S C1S C4S 180.0 . 3
C4S C1S C5S 74.6(15) . .
C4S C1S C5S 105.4(15) 3 .
C4S C1S C5S 105.4(15) . 3
C4S C1S C5S 74.6(15) 3 3
C5S C1S C5S 180(3) . 3
C4S C1S C9S 116.6(12) . .
C4S C1S C9S 63.4(12) 3 .
C5S C1S C9S 42.1(12) . .
C5S C1S C9S 137.9(12) 3 .
C4S C1S C9S 63.4(12) . 3
C4S C1S C9S 116.6(12) 3 3
C5S C1S C9S 137.9(12) . 3
C5S C1S C9S 42.1(12) 3 3
C9S C1S C9S 180.0(11) . 3
C4S C1S C3S 47.0(13) . 3
C4S C1S C3S 133.0(13) 3 3
C5S C1S C3S 27.6(14) . 3
C5S C1S C3S 152.4(14) 3 3
C9S C1S C3S 69.7(11) . 3
C9S C1S C3S 110.3(11) 3 3
C4S C1S C3S 133.0(13) . .
C4S C1S C3S 47.0(13) 3 .
C5S C1S C3S 152.4(14) . .
C5S C1S C3S 27.6(14) 3 .
C9S C1S C3S 110.3(11) . .
C9S C1S C3S 69.7(11) 3 .
C3S C1S C3S 180.0 3 .
C2S C2S C4S 146(3) 3_565 .
C2S C2S C8S 134(3) 3_565 1_565
C4S C2S C8S 79.3(18) . 1_565
C2S C2S C7S 78(2) 3_565 1_565
C4S C2S C7S 135(2) . 1_565
C8S C2S C7S 56.1(15) 1_565 1_565
C2S C2S C7S 50.7(15) 3_565 3
C4S C2S C7S 96(2) . 3
C8S C2S C7S 175(2) 1_565 3
C7S C2S C7S 128.8(17) 1_565 3
C2S C2S C3S 166(3) 3_565 3
C4S C2S C3S 47.1(14) . 3
C8S C2S C3S 32.2(13) 1_565 3
C7S C2S C3S 88.2(17) 1_565 3
C7S C2S C3S 143(2) 3 3
C2S C2S C9S 91.6(19) 3_565 3
C4S C2S C9S 54.9(17) . 3
C8S C2S C9S 134(2) 1_565 3
C7S C2S C9S 169.5(18) 1_565 3
C7S C2S C9S 40.9(12) 3 3
C3S C2S C9S 101.9(15) 3 3
C2S C2S C8S 24.2(15) 3_565 3
C4S C2S C8S 122.4(17) . 3
C8S C2S C8S 158.3(16) 1_565 3
C7S C2S C8S 102.2(15) 1_565 3
C7S C2S C8S 26.6(12) 3 3
C3S C2S C8S 169.3(15) 3 3
C9S C2S C8S 67.6(11) 3 3
C8S C3S C5S 131(3) 3_545 3
C8S C3S C4S 69.3(19) 3_545 3
C5S C3S C4S 62.1(19) 3 3
C8S C3S C2S 35.1(14) 3_545 3
C5S C3S C2S 96(2) 3 3
C4S C3S C2S 34.2(11) 3 3
C8S C3S C1S 101.4(19) 3_545 .
C5S C3S C1S 30.1(15) 3 .
C4S C3S C1S 32.0(11) 3 .
C2S C3S C1S 66.2(9) 3 .
C8S C3S C9S 147(2) 3_545 3
C5S C3S C9S 15.3(17) 3 3
C4S C3S C9S 77.4(18) 3 3
C2S C3S C9S 111.6(15) 3 3
C1S C3S C9S 45.4(10) . 3
C1S C4S C2S 160(2) . .
C1S C4S C5S 56.2(15) . .
C2S C4S C5S 143(2) . .
C1S C4S C9S 75.0(16) . 3
C2S C4S C9S 85(2) . 3
C5S C4S C9S 131(2) . 3
C1S C4S C3S 101(2) . 3
C2S C4S C3S 99(2) . 3
C5S C4S C3S 44.7(13) . 3
C9S C4S C3S 174(2) 3 3
C1S C4S C8S 146.0(19) . 1_565
C2S C4S C8S 53.6(15) . 1_565
C5S C4S C8S 89.9(15) . 1_565
C9S C4S C8S 139(2) 3 1_565
C3S C4S C8S 45.1(13) 3 1_565
C1S C4S C7S 112.4(13) . 3
C2S C4S C7S 47.8(16) . 3
C5S C4S C7S 168.3(19) . 3
C9S C4S C7S 37.4(12) 3 3
C3S C4S C7S 146(2) 3 3
C8S C4S C7S 101.3(16) 1_565 3
C1S C4S C5S 39.3(9) . 3
C2S C4S C5S 121(2) . 3
C5S C4S C5S 95.6(17) . 3
C9S C4S C5S 35.8(12) 3 3
C3S C4S C5S 140(2) 3 3
C8S C4S C5S 174.1(19) 1_565 3
C7S C4S C5S 73.2(12) 3 3
C1S C4S C9S 38.2(8) . .
C2S C4S C9S 161.5(18) . .
C5S C4S C9S 18.1(13) . .
C9S C4S C9S 113.3(17) 3 .
C3S C4S C9S 62.8(16) 3 .
C8S C4S C9S 107.9(15) 1_565 .
C7S C4S C9S 150.7(14) 3 .
C5S C4S C9S 77.5(12) 3 .
C1S C4S C4S 0.002(1) . 3
C2S C4S C4S 160(2) . 3
C5S C4S C4S 56.2(15) . 3
C9S C4S C4S 75.0(16) 3 3
C3S C4S C4S 101(2) 3 3
C8S C4S C4S 146.0(19) 1_565 3
C7S C4S C4S 112.4(13) 3 3
C5S C4S C4S 39.3(9) 3 3
C9S C4S C4S 38.2(8) . 3
C9S C5S C3S 149(3) . 3
C9S C5S C1S 89(2) . .
C3S C5S C1S 122(3) 3 .
C9S C5S C4S 138(3) . .
C3S C5S C4S 73(2) 3 .
C1S C5S C4S 49.2(12) . .
C9S C5S C4S 53.8(18) . 3
C3S C5S C4S 157(3) 3 3
C1S C5S C4S 35.3(10) . 3
C4S C5S C4S 84.4(17) . 3
C9S C5S C8S 173(2) . 1_565
C3S C5S C8S 25.0(17) 3 1_565
C1S C5S C8S 97.3(15) . 1_565
C4S C5S C8S 48.1(12) . 1_565
C4S C5S C8S 132.5(16) 3 1_565
C8S C7S C9S 155(3) . .
C8S C7S C2S 68(2) . 1_545
C9S C7S C2S 137(3) . 1_545
C8S C7S C2S 119(3) . 3
C9S C7S C2S 86(2) . 3
C2S C7S C2S 51.2(17) 1_545 3
C8S C7S C4S 155(2) . 3
C9S C7S C4S 49.4(15) . 3
C2S C7S C4S 87.6(17) 1_545 3
C2S C7S C4S 36.4(10) 3 3
C3S C8S C7S 169(3) 3_545 .
C3S C8S C2S 113(2) 3_545 1_545
C7S C8S C2S 56.3(17) . 1_545
C3S C8S C4S 65.5(19) 3_545 1_545
C7S C8S C4S 103(2) . 1_545
C2S C8S C4S 47.2(11) 1_545 1_545
C3S C8S C2S 134(2) 3_545 3
C7S C8S C2S 34.6(16) . 3
C2S C8S C2S 21.7(16) 1_545 3
C4S C8S C2S 68.9(14) 1_545 3
C3S C8S C5S 23.5(16) 3_545 1_545
C7S C8S C5S 145(2) . 1_545
C2S C8S C5S 89.2(15) 1_545 1_545
C4S C8S C5S 42.0(10) 1_545 1_545
C2S C8S C5S 110.8(12) 3 1_545
C5S C9S C7S 175(3) . .
C5S C9S C4S 90(3) . 3
C7S C9S C4S 93(2) . 3
C5S C9S C1S 48.9(18) . .
C7S C9S C1S 135(2) . .
C4S C9S C1S 41.6(11) 3 .
C5S C9S C2S 130(2) . 3
C7S C9S C2S 53.3(16) . 3
C4S C9S C2S 40.0(11) 3 3
C1S C9S C2S 81.5(11) . 3
C5S C9S C4S 23.9(16) . .
C7S C9S C4S 160(2) . .
C4S C9S C4S 66.7(17) 3 .
C1S C9S C4S 25.2(7) . .
C2S C9S C4S 106.7(13) 3 .
C5S C9S C3S 15.9(16) . 3
C7S C9S C3S 160(2) . 3
C4S C9S C3S 106(2) 3 3
C1S C9S C3S 64.8(14) . 3
C2S C9S C3S 146.3(18) 3 3
C4S C9S C3S 39.8(10) . 3
loop_
_geom_bond_atom_site_label_1
_geom_bond_atom_site_label_2
_geom_bond_distance
_geom_bond_site_symmetry_2
Zn1 N2 1.936(4) .
Zn1 N2 1.936(4) 2
Zn1 N1 2.034(3) 2
Zn1 N1 2.034(3) .
S1 C14 1.616(5) .
F1 C12 1.353(5) .
N1 C1 1.335(5) .
N1 C5 1.341(5) .
C1 C2 1.375(6) .
C2 C3 1.386(6) .
C3 C4 1.390(6) .
C3 C6 1.466(6) .
C4 C5 1.376(6) .
C6 C7 1.322(6) .
C7 C8 1.470(6) .
C8 C9 1.379(6) .
C8 C13 1.387(6) .
C9 C10 1.392(7) .
C10 C11 1.368(7) .
C11 C12 1.374(6) .
C12 C13 1.378(6) .
N2 C14 1.163(6) .
C1S C4S 1.018(19) .
C1S C4S 1.018(19) 3
C1S C5S 1.118(19) .
C1S C5S 1.118(19) 3
C1S C9S 1.48(3) .
C1S C9S 1.48(3) 3
C1S C3S 1.88(3) 3
C1S C3S 1.88(3) .
C2S C2S 1.07(3) 3_565
C2S C4S 1.08(2) .
C2S C8S 1.18(2) 1_565
C2S C7S 1.06(2) 1_565
C2S C7S 1.34(2) 3
C2S C3S 1.89(3) 3
C2S C9S 1.67(3) 3
C2S C8S 2.07(3) 3
C3S C8S 1.09(3) 3_545
C3S C5S 1.03(3) 3
C3S C4S 1.40(3) 3
C3S C2S 1.89(3) 3
C3S C9S 1.95(3) 3
C4S C5S 1.30(2) .
C4S C9S 1.37(2) 3
C4S C3S 1.40(3) 3
C4S C8S 1.44(2) 1_565
C4S C7S 1.81(3) 3
C4S C5S 1.70(3) 3
C4S C9S 2.14(3) .
C4S C4S 2.04(4) 3
C5S C9S 0.99(3) .
C5S C3S 1.03(3) 3
C5S C4S 1.70(3) 3
C5S C8S 1.94(3) 1_565
C7S C8S 1.06(2) .
C7S C9S 1.10(3) .
C7S C2S 1.06(2) 1_545
C7S C2S 1.34(2) 3
C7S C4S 1.81(3) 3
C8S C3S 1.09(3) 3_545
C8S C2S 1.18(2) 1_545
C8S C4S 1.44(2) 1_545
C8S C2S 2.07(3) 3
C8S C5S 1.94(3) 1_545
C9S C4S 1.37(2) 3
C9S C2S 1.67(3) 3
C9S C3S 1.95(3) 3
