#------------------------------------------------------------------------------
#$Date: 2016-10-29 04:41:45 +0300 (Sat, 29 Oct 2016) $
#$Revision: 187663 $
#$URL: file:///home/coder/svn-repositories/cod/cif/1/54/43/1544395.cif $
#------------------------------------------------------------------------------
#
# This file is available in the Crystallography Open Database (COD),
# http://www.crystallography.net/. The original data for this entry
# were provided by IUCr Journals, http://journals.iucr.org/.
#
# The file may be used within the scientific community so long as
# proper attribution is given to the journal article from which the
# data were obtained.
#
data_1544395
loop_
_publ_author_name
'Arafath, Md. Azharul'
'Adam, Farook'
'Razali, Mohd. R.'
_publ_section_title
;
 1-[(<i>E</i>)-(3-Hydroxy-4-methoxybenzylidene)amino]-3-methylthiourea
;
_journal_issue                   10
_journal_name_full               IUCrData
_journal_page_first              x161599
_journal_paper_doi               10.1107/S2414314616015996
_journal_volume                  1
_journal_year                    2016
_chemical_formula_iupac          'C10 H13 N3 O2 S'
_chemical_formula_moiety         'C10 H13 N3 O2 S'
_chemical_formula_sum            'C10 H13 N3 O2 S'
_chemical_formula_weight         239.29
_chemical_name_systematic
;
1-[(<i>E</i>)-(3-Hydroxy-4-methoxybenzylidene)amino]-3-methylthiourea
;
_space_group_crystal_system      monoclinic
_space_group_IT_number           14
_space_group_name_Hall           '-P 2ybc'
_space_group_name_H-M_alt        'P 1 21/c 1'
_symmetry_space_group_name_Hall  '-P 2ybc'
_symmetry_space_group_name_H-M   'P 1 21/c 1'
_atom_sites_solution_hydrogens   mixed
_audit_creation_method           SHELXL-2014/7
_cell_angle_alpha                90
_cell_angle_beta                 94.896(2)
_cell_angle_gamma                90
_cell_formula_units_Z            4
_cell_length_a                   9.4893(13)
_cell_length_b                   13.5903(19)
_cell_length_c                   9.0554(12)
_cell_measurement_reflns_used    5445
_cell_measurement_temperature    100(2)
_cell_measurement_theta_max      26.98
_cell_measurement_theta_min      2.62
_cell_volume                     1163.5(3)
_computing_cell_refinement
;
SAINT (Bruker, 2009)
;
_computing_data_collection
;
APEX2 (Bruker, 2009)
;
_computing_data_reduction
;
SAINT (Bruker, 2009)
;
_computing_molecular_graphics
;
SHELXTL (Sheldrick 2008)
;
_computing_publication_material
;
SHELXTL (Sheldrick 2008)
;
_computing_structure_refinement
;
SHELXL2014 (Sheldrick, 2015)
;
_computing_structure_solution
;
SHELXS97 (Sheldrick 2008)
;
_diffrn_ambient_temperature      100(2)
_diffrn_measured_fraction_theta_full 1.000
_diffrn_measured_fraction_theta_max 0.994
_diffrn_measurement_device_type  'Bruker APEXII CCD'
_diffrn_measurement_method       '\f and \w scans'
_diffrn_radiation_type           MoK\a
_diffrn_radiation_wavelength     0.71073
_diffrn_reflns_av_R_equivalents  0.0449
_diffrn_reflns_limit_h_max       13
_diffrn_reflns_limit_h_min       -13
_diffrn_reflns_limit_k_max       19
_diffrn_reflns_limit_k_min       -19
_diffrn_reflns_limit_l_max       12
_diffrn_reflns_limit_l_min       -12
_diffrn_reflns_number            25305
_diffrn_reflns_theta_full        25.242
_diffrn_reflns_theta_max         30.167
_diffrn_reflns_theta_min         2.154
_exptl_absorpt_coefficient_mu    0.268
_exptl_absorpt_correction_type   none
_exptl_crystal_colour            colourless
_exptl_crystal_density_diffrn    1.366
_exptl_crystal_description       block
_exptl_crystal_F_000             504
_exptl_crystal_size_max          0.410
_exptl_crystal_size_mid          0.265
_exptl_crystal_size_min          0.179
_refine_diff_density_max         0.332
_refine_diff_density_min         -0.253
_refine_ls_extinction_method     none
_refine_ls_goodness_of_fit_ref   1.057
_refine_ls_hydrogen_treatment    mixed
_refine_ls_matrix_type           full
_refine_ls_number_parameters     159
_refine_ls_number_reflns         3429
_refine_ls_number_restraints     0
_refine_ls_restrained_S_all      1.057
_refine_ls_R_factor_all          0.0654
_refine_ls_R_factor_gt           0.0434
_refine_ls_shift/su_max          0.000
_refine_ls_shift/su_mean         0.000
_refine_ls_structure_factor_coef Fsqd
_refine_ls_weighting_details
'w=1/[\s^2^(Fo^2^)+(0.0492P)^2^+0.4456P] where P=(Fo^2^+2Fc^2^)/3'
_refine_ls_weighting_scheme      calc
_refine_ls_wR_factor_gt          0.1038
_refine_ls_wR_factor_ref         0.1206
_reflns_number_gt                2573
_reflns_number_total             3429
_reflns_threshold_expression     'I > 2\s(I)'
_cod_data_source_file            tk4022sup1.cif
_cod_data_source_block           I
_cod_database_code               1544395
_shelx_space_group_comment
;
The symmetry employed for this shelxl refinement is uniquely defined
by the following loop, which should always be used as a source of
symmetry information in preference to the above space-group names.
They are only intended as comments.
;
_shelx_estimated_absorpt_t_min   0.898
_shelx_estimated_absorpt_t_max   0.954
_shelx_hkl_file
;
  -1   0   0 0.22625 0.10840   2
   1   0   0 0.86369 0.20276   3
   2   0   0 20.5802 1.13618   1
  -2   0   0 19.5351 1.07312   2
   2   0   0 18.2947 1.20699   3
   2   0   0 19.9201 0.92618   4
   2   0   0 19.1200 1.19083   5
   3   0   0 -0.2276 0.18334   3
  -3   0   0 0.01430 0.13054   2
   3   0   0 0.13290 0.15710   4
   3   0   0 -0.2286 0.19751   1
   3   0   0 -0.2426 0.23113   5
   4   0   0 89.1127 3.57745   4
   4   0   0 82.9303 4.28709   3
   4   0   0 91.0668 4.31195   5
   4   0   0 91.3750 4.07665   1
  -4   0   0 85.7240 3.89170   2
  -5   0   0 -0.2312 0.27629   2
   5   0   0 -0.3288 0.36330   1
   5   0   0 -0.1755 0.61477   5
   5   0   0 0.01096 0.40573   3
   5   0   0 -0.0597 0.22067   4
   6   0   0 86.3845 3.80286   4
   6   0   0 80.6456 4.85857   3
  -6   0   0 97.9117 4.42115   2
   6   0   0 92.0492 4.93789   5
   6   0   0 89.0119 4.55148   1
   7   0   0 0.73511 0.94383   3
   7   0   0 -0.0942 0.64249   5
   7   0   0 0.51473 0.68776   1
  -7   0   0 0.68109 0.63063   2
  -8   0   0 245.362 10.0773   2
   8   0   0 226.001 10.3230   1
   8   0   0 242.740 11.0831   5
   8   0   0 242.417 11.3171   3
  -9   0   0 -1.6446 0.50011   2
   9   0   0 -0.1935 0.82363   3
   9   0   0 -1.4998 0.64734   1
   9   0   0 -0.1359 1.02616   5
  10   0   0 33.4581 4.14138   5
  10   0   0 25.1450 3.17063   1
  10   0   0 24.6535 3.70913   3
  11   0   0 -0.5230 1.32368   3
  11   0   0 2.14595 1.34447   5
  12   0   0 2.95622 1.68172   5
  12   0   0 2.72338 1.93649   3
   0  -1   0 0.10858 0.05626   4
   0  -1   0 0.06239 0.05052   1
   0  -1   0 0.00559 0.03966   2
   0   1   0 0.02223 0.04307   5
   0   1   0 0.14621 0.05981   1
   0   1   0 0.16988 0.06795   3
   1  -1   0 306.629 10.5997   2
   1  -1   0 299.717 10.8051   1
   1  -1   0 300.197 10.7340   4
  -1  -1   0 299.105 10.7590   2
   1  -1   0 302.153 10.8263   5
   1  -1   0 293.319 10.8126   3
   1   1   0 303.409 10.7888   5
  -1   1   0 293.600 10.8030   3
   1   1   0 306.968 10.8138   3
   1   1   0 307.833 10.6783   1
   2  -1   0 334.755 11.8091   2
  -2  -1   0 332.649 12.0041   2
   2  -1   0 314.051 12.0501   1
   2  -1   0 322.016 11.8812   4
  -2  -1   0 346.959 11.5690   4
   2  -1   0 326.368 12.1732   3
   2  -1   0 331.372 12.1604   5
  -2   1   0 334.135 11.8674   2
   2   1   0 331.413 11.9176   1
   2   1   0 334.029 12.1872   3
   2   1   0 332.790 12.1155   5
   2   1   0 326.590 11.5254   4
   3  -1   0 11.7944 1.28060   5
   3  -1   0 11.3330 1.26032   3
   3  -1   0 12.4502 1.04917   1
   3  -1   0 13.4090 0.89047   4
  -3  -1   0 10.2296 0.90961   2
   3   1   0 12.4298 1.32348   3
   3   1   0 12.6488 0.96129   1
   3   1   0 12.8311 1.33227   5
  -3   1   0 11.5941 0.87172   2
   3   1   0 11.9461 0.61179   4
   4  -1   0 46.1321 2.53277   1
   4  -1   0 46.4623 2.69622   5
   4  -1   0 47.4272 2.21096   4
  -4  -1   0 40.9463 2.34281   2
   4  -1   0 40.1779 2.60926   3
   4   1   0 45.1333 2.39039   1
   4   1   0 41.9250 2.65043   3
   4   1   0 44.3285 1.84616   4
   4   1   0 41.0124 2.57312   5
  -4   1   0 43.9265 2.26501   2
   5  -1   0 41.9562 2.24659   4
   5  -1   0 45.4603 2.96674   5
   5  -1   0 46.4962 2.75108   1
   5  -1   0 42.9926 2.96614   3
  -5  -1   0 41.2733 2.50236   2
   5   1   0 47.7494 2.65423   1
   5   1   0 39.6902 2.86372   3
  -5   1   0 43.2070 2.42618   2
   5   1   0 46.1491 2.90423   5
   5   1   0 44.8336 1.95386   4
   6  -1   0 84.2661 4.47619   1
   6  -1   0 88.5165 4.92081   3
  -6  -1   0 77.6120 4.17192   2
   6  -1   0 88.1261 4.81153   5
   6  -1   0 86.5404 3.89801   4
   6   1   0 89.0670 4.40744   1
   6   1   0 94.4402 4.95339   5
  -6   1   0 80.0570 4.06994   2
   6   1   0 76.3429 4.75234   3
   6   1   0 91.9303 3.52310   4
   7  -1   0 121.629 6.51334   3
   7  -1   0 114.116 5.91585   1
   7  -1   0 120.855 6.37214   5
   7  -1   0 118.287 5.17094   4
  -7  -1   0 116.608 5.65973   2
   7   1   0 116.066 6.43792   3
   7   1   0 126.385 5.91627   1
  -7   1   0 123.035 5.55860   2
   7   1   0 116.634 6.35471   5
  -8  -1   0 7.67892 1.46600   2
   8  -1   0 6.03601 1.62607   3
   8  -1   0 6.50739 1.63685   1
   8  -1   0 9.08425 2.01163   5
   8   1   0 8.14484 1.88134   5
   8   1   0 7.94201 1.98872   3
   8   1   0 6.89683 1.48340   1
  -8   1   0 9.14709 1.51432   2
  -9  -1   0 40.6124 3.11539   2
   9  -1   0 45.6339 3.53872   1
   9  -1   0 44.3562 3.96086   3
   9  -1   0 47.8457 4.06782   5
   9   1   0 49.3845 3.50866   1
   9   1   0 42.1598 4.57446   3
   9   1   0 37.3574 4.29586   5
  10  -1   0 1.16216 1.12197   1
  10  -1   0 2.51970 1.60065   5
  10  -1   0 3.23110 1.49842   3
  10   1   0 1.58868 1.12910   5
  10   1   0 0.17902 1.38214   3
  11  -1   0 0.94420 1.23865   3
  11  -1   0 0.91728 1.11137   5
  11   1   0 0.09710 0.95807   3
  11   1   0 0.78175 1.26779   5
 -11   1   0 -1.4817 0.79670   3
  12  -1   0 5.47113 2.06519   3
  12  -1   0 3.85852 1.56942   5
 -12   1   0 5.90207 2.30574   3
  12   1   0 4.97954 1.90772   3
  12   1   0 6.87011 2.40441   5
   0  -2   0 933.649 33.2250   4
   0  -2   0 960.544 33.1727   2
   0  -2   0 924.049 33.1942   1
   0   2   0 956.088 33.2705   1
   0   2   0 958.012 33.2891   5
   0   2   0 972.604 33.2151   3
  -1  -2   0 202.941 7.73965   2
  -1  -2   0 208.749 7.50813   4
   1  -2   0 209.460 7.78009   4
   1  -2   0 205.055 7.80595   1
   1  -2   0 201.294 7.78103   5
   1  -2   0 217.420 7.53791   2
   1   2   0 217.301 7.68257   1
   1   2   0 224.354 7.84424   5
  -1   2   0 211.632 7.83654   5
  -1   2   0 208.001 7.76193   3
   1   2   0 213.081 7.76679   3
  -2  -2   0 25.9655 1.45403   2
   2  -2   0 24.6179 1.51781   5
   2  -2   0 26.3188 1.55239   3
   2  -2   0 24.9901 1.19474   2
   2  -2   0 25.4351 1.41596   4
   2  -2   0 26.7265 1.51573   1
   2   2   0 24.2713 1.49149   3
   2   2   0 26.8661 1.51805   5
   2   2   0 25.1124 1.34063   1
  -2   2   0 25.0245 1.50793   3
   3  -2   0 246.180 9.47753   1
   3  -2   0 242.491 9.55980   5
   3  -2   0 242.253 9.22312   4
  -3  -2   0 243.070 9.34169   2
   3  -2   0 242.335 9.57888   3
   3  -2   0 251.316 9.00299   2
  -3   2   0 245.669 9.08176   2
  -3   2   0 231.861 9.50751   3
   3   2   0 252.585 9.19291   1
   3   2   0 239.105 9.46168   5
   3   2   0 252.126 9.61931   3
   4  -2   0 200.752 8.34775   5
   4  -2   0 196.699 8.39003   3
   4  -2   0 201.040 7.85273   4
   4  -2   0 206.957 7.69941   2
  -4  -2   0 197.172 8.03114   2
   4  -2   0 198.036 8.18537   1
   4   2   0 188.128 8.32495   3
  -4   2   0 204.343 7.77718   2
   4   2   0 203.471 8.30099   5
   4   2   0 209.624 7.93470   1
  -5  -2   0 925.763 33.5712   2
   5  -2   0 921.083 33.7925   1
   5  -2   0 951.843 34.1026   5
   5  -2   0 909.488 34.1094   3
  -5  -2   0 879.436 32.3420   4
   5  -2   0 944.873 33.2973   4
  -5   2   0 962.630 33.2821   2
   5   2   0 915.311 34.1369   3
   5   2   0 950.086 32.3367   4
   5   2   0 948.662 33.4807   1
   5   2   0 934.756 34.0079   5
   6  -2   0 87.7973 5.04836   3
   6  -2   0 92.0440 4.82476   1
   6  -2   0 90.2034 5.03617   5
  -6  -2   0 92.9342 4.61067   2
   6  -2   0 94.1019 4.30574   4
  -6   2   0 96.8231 4.36428   2
   6   2   0 85.5268 5.03112   3
   6   2   0 94.8016 4.58464   1
   6   2   0 90.4460 5.03195   5
   7  -2   0 79.6683 4.51441   1
   7  -2   0 71.4393 4.76990   3
  -7  -2   0 73.1181 4.16788   2
   7  -2   0 78.5817 4.82534   5
   7  -2   0 75.1014 3.83145   4
   7   2   0 79.0043 4.89535   3
  -7   2   0 77.8253 3.94963   2
   7   2   0 73.7746 4.73093   5
   7   2   0 78.3825 4.22406   1
  -8  -2   0 0.52903 0.76876   2
   8  -2   0 -0.1257 0.79693   1
   8  -2   0 0.36512 0.80186   5
   8  -2   0 -0.3713 0.62659   3
   8   2   0 -0.5360 0.99313   3
   8   2   0 -0.1204 0.94516   5
   8   2   0 0.00540 0.67460   1
  -8   2   0 -0.0887 0.50212   2
   9  -2   0 1.85058 1.32224   3
  -9  -2   0 2.74863 1.09909   2
   9  -2   0 1.33556 1.04160   5
   9  -2   0 3.39827 1.39178   1
   9   2   0 4.00146 1.30375   1
   9   2   0 3.31062 1.39143   3
   9   2   0 4.50192 1.75898   5
 -10  -2   0 7.09094 1.74567   2
  10  -2   0 6.77097 1.74161   1
  10  -2   0 6.17165 2.08387   3
  10  -2   0 5.94404 2.10343   5
 -10   2   0 7.86569 2.29805   3
  10   2   0 4.63981 1.81760   5
  10   2   0 7.97756 2.19336   3
  11  -2   0 23.5143 3.79739   5
  11  -2   0 26.2386 4.22518   3
  11  -2   0 27.1662 3.55215   1
 -11   2   0 21.6063 3.85569   3
  11   2   0 26.7147 3.99436   5
  11   2   0 27.7983 4.28487   3
  12  -2   0 -0.2688 1.81294   3
  12  -2   0 0.94700 1.34716   5
  12   2   0 0.99451 1.41319   5
  12   2   0 1.64740 1.44923   3
 -12   2   0 1.00724 1.90295   3
   0  -3   0 -0.0205 0.12685   4
   0  -3   0 0.49061 0.18463   2
   0  -3   0 0.36708 0.21783   1
   0   3   0 0.53274 0.28968   3
   0   3   0 0.07976 0.20346   5
   0   3   0 -0.3678 0.20761   1
   1  -3   0 1404.89 48.9824   4
  -1  -3   0 1421.01 48.9188   2
  -1  -3   0 1390.76 48.6895   4
   1  -3   0 1398.46 48.9584   5
   1  -3   0 1385.06 48.9844   1
   1  -3   0 1388.28 48.6531   2
   1   3   0 1408.78 49.0267   5
   1   3   0 1451.53 48.8515   1
  -1   3   0 1330.07 48.8590   3
  -1   3   0 1389.16 49.0136   5
   2  -3   0 906.900 31.4223   2
   2  -3   0 885.901 31.9310   5
  -2  -3   0 871.806 31.8155   2
  -2  -3   0 918.873 31.2674   4
   2  -3   0 899.290 31.9514   1
   2  -3   0 893.061 31.8512   4
   2  -3   0 899.917 31.9441   3
  -2   3   0 903.257 31.9094   3
   2   3   0 897.329 31.9087   5
   2   3   0 905.585 31.6487   1
  -2   3   0 880.061 31.9780   5
   2   3   0 902.042 31.9007   3
   3  -3   0 0.03535 0.29034   4
   3  -3   0 0.44491 0.24293   2
   3  -3   0 0.61326 0.37081   5
  -3  -3   0 0.42737 0.35301   2
   3  -3   0 0.03185 0.34193   1
   3  -3   0 0.22363 0.29416   3
  -3   3   0 0.50105 0.38577   3
   3   3   0 -0.1783 0.33570   3
   3   3   0 0.61815 0.31012   1
   3   3   0 -0.8216 0.26815   5
   4  -3   0 197.342 7.91260   4
   4  -3   0 198.919 8.31958   5
   4  -3   0 205.914 8.40007   3
   4  -3   0 193.334 7.50222   2
  -4  -3   0 198.537 8.03541   2
   4  -3   0 185.848 8.11667   1
  -4   3   0 200.835 7.64017   2
   4   3   0 193.041 8.29478   3
   4   3   0 196.811 8.20104   5
  -4   3   0 200.529 8.32746   3
   4   3   0 201.640 7.78735   1
   5  -3   0 1.89383 0.55986   2
  -5  -3   0 1.79591 0.61143   2
   5  -3   0 1.28857 0.70960   5
   5  -3   0 2.22190 0.70688   4
   5  -3   0 2.07697 0.83984   3
   5  -3   0 1.33563 0.66728   1
   5   3   0 1.61963 0.72890   5
  -5   3   0 1.31067 0.79967   3
  -5   3   0 1.06690 0.46821   2
   5   3   0 1.73910 0.76006   3
   5   3   0 2.13126 0.65691   1
  -6  -3   0 30.4961 2.31761   2
   6  -3   0 24.9001 2.83257   5
   6  -3   0 28.5892 2.09306   4
   6  -3   0 34.0847 2.53125   1
   6  -3   0 29.9743 2.58103   3
  -6   3   0 30.7549 2.59719   3
   6   3   0 29.1108 3.05815   3
   6   3   0 33.1489 2.71161   5
  -6   3   0 32.5616 2.03041   2
   6   3   0 30.1903 2.19698   1
   7  -3   0 154.198 6.86571   4
   7  -3   0 150.204 7.44997   1
   7  -3   0 151.026 7.75974   5
   7  -3   0 168.179 8.04746   3
  -7  -3   0 153.561 7.18451   2
  -7   3   0 153.566 7.81245   3
   7   3   0 163.166 7.11133   1
   7   3   0 158.962 7.79708   5
  -7   3   0 156.951 6.74931   2
   7   3   0 159.072 7.96529   3
   8  -3   0 23.2682 3.14019   3
   8  -3   0 25.4626 2.96089   1
   8  -3   0 26.7246 3.40273   5
   8  -3   0 23.9776 2.05994   4
  -8  -3   0 23.2648 2.56731   2
  -8   3   0 20.8105 2.93955   3
   8   3   0 20.9785 3.01973   5
   8   3   0 24.8910 2.71288   1
   8   3   0 21.0540 3.01942   3
  -9  -3   0 0.15068 0.90721   2
   9  -3   0 0.76824 0.91525   1
   9  -3   0 0.34908 0.82773   5
   9  -3   0 0.12213 1.04766   3
  -9   3   0 0.62707 1.09324   3
   9   3   0 0.31172 1.21727   5
   9   3   0 -1.0978 0.86777   3
  10  -3   0 44.0173 3.65307   1
  10  -3   0 32.9753 4.40980   5
 -10  -3   0 42.3943 3.45932   2
  10  -3   0 46.7789 5.09229   3
 -10   3   0 31.5478 4.29427   3
  10   3   0 41.3279 4.72446   5
  10   3   0 35.7720 4.57896   3
  11  -3   0 1.53209 1.37398   1
  11  -3   0 0.77745 1.38437   5
  11  -3   0 -0.8189 0.99435   3
  11   3   0 0.73777 1.13137   3
 -11   3   0 1.47363 1.33157   3
  11   3   0 0.37698 1.12214   5
  12  -3   0 2.21109 1.50232   3
  12  -3   0 5.44030 2.32157   5
  12   3   0 5.89519 2.47322   3
 -12   3   0 3.68298 1.89221   3
  12   3   0 3.06076 1.77580   5
   0  -4   0 2750.15 96.1260   1
   0  -4   0 2716.51 96.1852   4
   0  -4   0 2726.21 96.0602   2
   0   4   0 2786.32 96.3137   5
   0   4   0 2883.86 96.3043   1
   0   4   0 2705.80 96.1323   3
   1  -4   0 189.413 7.55252   1
   1  -4   0 197.164 7.60003   4
   1  -4   0 196.281 7.25191   2
  -1  -4   0 190.624 7.30893   4
  -1  -4   0 194.594 7.48821   2
   1   4   0 205.111 7.68933   5
  -1   4   0 195.878 7.45596   3
   1   4   0 195.374 7.50432   3
   1   4   0 192.407 7.43761   1
  -1   4   0 194.812 7.62067   5
  -2  -4   0 342.578 12.0818   4
   2  -4   0 332.238 12.6357   4
   2  -4   0 345.300 12.1397   2
  -2  -4   0 342.490 12.5976   2
   2  -4   0 330.225 12.6887   1
   2  -4   0 343.083 12.6910   5
   2   4   0 341.757 12.7119   5
   2   4   0 335.073 12.4166   1
  -2   4   0 328.439 12.5817   3
  -2   4   0 325.616 12.7117   5
   2   4   0 335.576 12.6105   3
   3  -4   0 164.195 6.98108   1
   3  -4   0 164.859 6.84513   4
   3  -4   0 166.426 6.30605   2
  -3  -4   0 167.659 6.85409   2
   3  -4   0 167.756 7.02104   3
   3  -4   0 167.606 6.99819   5
  -3  -4   0 166.197 5.96619   4
   3   4   0 173.979 6.05412   4
   3   4   0 165.725 6.56486   1
  -3   4   0 160.762 7.01882   5
   3   4   0 173.996 6.98470   5
  -3   4   0 151.786 6.86930   3
   4  -4   0 121.760 5.60693   3
   4  -4   0 116.353 5.45279   1
  -4  -4   0 109.254 5.23014   2
   4  -4   0 118.195 5.26438   4
   4  -4   0 124.479 4.76125   2
   4  -4   0 111.437 5.45379   5
  -4   4   0 112.849 5.47982   3
   4   4   0 123.066 5.03726   1
   4   4   0 116.918 5.43132   5
   4   4   0 113.429 5.48328   3
   5  -4   0 487.308 17.3675   2
   5  -4   0 482.103 18.5174   3
   5  -4   0 472.985 18.4333   5
   5  -4   0 458.188 18.2382   1
   5  -4   0 475.188 17.9452   4
  -5  -4   0 464.626 18.0394   2
   5   4   0 500.845 18.4270   5
   5   4   0 479.956 17.7024   1
   5   4   0 475.391 18.4996   3
  -5   4   0 478.765 17.4806   2
  -5   4   0 464.035 18.4030   3
   6  -4   0 20.3197 2.41084   1
   6  -4   0 26.4174 2.88938   3
   6  -4   0 23.6069 1.91078   4
   6  -4   0 23.1909 2.73496   5
  -6  -4   0 24.5913 2.04759   2
  -6   4   0 23.5322 1.70083   2
   6   4   0 24.5320 2.78438   3
  -6   4   0 22.3169 2.60975   3
   6   4   0 21.6773 1.82487   1
   6   4   0 21.1728 2.51461   5
   7  -4   0 29.8815 3.29582   5
   7  -4   0 28.5584 2.30321   4
   7  -4   0 28.6161 3.07702   1
   7  -4   0 29.9585 3.35390   3
  -7  -4   0 29.9418 2.53267   2
  -7   4   0 25.8571 1.99144   2
   7   4   0 27.0231 3.16050   3
   7   4   0 27.4883 2.21382   1
   7   4   0 29.2759 3.26963   5
  -7   4   0 23.5625 2.96556   3
   8  -4   0 163.451 8.37940   5
   8  -4   0 162.114 7.40852   4
  -8  -4   0 171.356 7.85819   2
   8  -4   0 156.467 8.49018   3
   8  -4   0 163.203 8.12219   1
   8   4   0 165.471 8.58555   3
  -8   4   0 167.673 8.57252   3
   8   4   0 157.433 7.44599   1
   8   4   0 155.754 8.29574   5
   9  -4   0 1.05269 1.25871   5
   9  -4   0 0.08687 0.81597   3
   9  -4   0 1.94942 1.38634   1
  -9  -4   0 -0.9221 0.78193   2
   9   4   0 -0.0476 0.83758   3
   9   4   0 1.85694 1.39777   5
  -9   4   0 0.71928 0.96156   3
  10  -4   0 14.5922 2.97141   5
  10  -4   0 17.6295 3.16124   3
 -10  -4   0 15.1550 2.45149   2
  10  -4   0 18.4267 3.00370   1
 -10   4   0 13.6705 2.70448   3
  10   4   0 16.3064 3.03006   3
  10   4   0 17.5918 3.20712   5
  11  -4   0 34.2651 4.14807   1
 -11  -4   0 29.0920 3.51886   2
  11  -4   0 25.1566 4.07007   3
  11  -4   0 38.3404 4.88381   5
 -11   4   0 27.6135 4.20525   3
  11   4   0 26.5342 4.29663   3
  11   4   0 25.1695 3.93153   5
  12  -4   0 2.68765 1.80304   5
  12  -4   0 2.40331 2.25218   3
  12   4   0 3.62787 2.00230   5
 -12   4   0 2.91142 2.47213   3
  12   4   0 4.03182 2.13762   3
   0  -5   0 0.66897 0.38002   4
   0  -5   0 0.95511 0.33332   2
   0  -5   0 -0.0560 0.23223   1
   0   5   0 0.04238 0.31366   1
   0   5   0 0.11166 0.31778   5
   0   5   0 0.15468 0.36151   3
  -1  -5   0 423.046 15.4440   4
  -1  -5   0 413.730 15.5618   2
   1  -5   0 425.161 15.6803   1
   1  -5   0 418.091 15.7155   4
   1  -5   0 439.365 15.3544   2
   1   5   0 425.687 15.8079   5
  -1   5   0 423.540 15.7621   5
   1   5   0 420.111 15.6052   3
   1   5   0 424.585 15.5844   1
  -1   5   0 429.864 15.5569   3
  -2  -5   0 29.7660 1.81058   2
  -2  -5   0 25.3269 1.42088   4
   2  -5   0 26.8979 1.85868   1
   2  -5   0 26.2263 1.81216   5
   2  -5   0 27.1177 1.82343   4
   2  -5   0 25.7508 1.42685   2
  -2   5   0 29.1519 1.81243   3
   2   5   0 27.9113 1.91820   5
   2   5   0 26.4883 1.68116   1
  -2   5   0 25.5422 1.85645   5
   2   5   0 26.8664 1.77363   3
   3  -5   0 158.533 6.87471   1
   3  -5   0 164.415 6.89691   5
   3  -5   0 158.921 6.78249   4
  -3  -5   0 155.515 6.70369   2
   3  -5   0 155.051 6.11534   2
  -3  -5   0 157.257 5.92034   4
  -3   5   0 167.202 7.00717   5
   3   5   0 162.086 6.49178   1
   3   5   0 158.366 6.80610   3
  -3   5   0 162.106 6.82275   3
   3   5   0 155.323 6.81657   5
   4  -5   0 39.0580 1.96116   2
   4  -5   0 35.9409 2.57854   5
   4  -5   0 33.2383 2.46461   1
   4  -5   0 42.4674 2.71303   3
   4  -5   0 36.6282 2.42275   4
  -4  -5   0 35.0255 2.39247   2
  -4   5   0 37.4082 2.54701   3
   4   5   0 34.7065 2.48664   5
  -4   5   0 40.1858 2.74383   5
   4   5   0 39.0415 1.46597   4
   4   5   0 34.1033 2.52297   3
   4   5   0 41.5281 2.26959   1
  -5  -5   0 16.3416 1.89884   2
   5  -5   0 15.1589 1.16666   2
   5  -5   0 15.4402 1.88601   4
   5  -5   0 14.8826 1.98408   3
   5  -5   0 15.0899 2.04587   5
   5  -5   0 13.7258 1.86450   1
   5   5   0 10.1145 1.75773   3
  -5   5   0 13.4398 1.85626   3
   5   5   0 15.7107 1.69340   1
   5   5   0 16.7901 2.13467   5
  -5   5   0 15.1753 1.27437   2
   6  -5   0 211.353 9.56881   5
   6  -5   0 214.453 9.67248   3
   6  -5   0 207.815 9.39319   1
  -6  -5   0 224.516 9.29560   2
   6  -5   0 208.341 9.02394   4
  -6   5   0 202.674 9.51330   3
   6   5   0 213.866 9.49971   5
   6   5   0 204.319 8.68071   1
   6   5   0 213.342 9.68803   3
  -6   5   0 212.627 8.43303   2
   7  -5   0 102.887 5.73360   1
   7  -5   0 99.9864 5.30829   4
   7  -5   0 102.446 5.96479   3
   7  -5   0 92.1977 5.74170   5
  -7  -5   0 120.080 5.73153   2
   7   5   0 110.358 6.14309   3
  -7   5   0 109.893 6.06105   3
   7   5   0 100.537 5.07224   1
   7   5   0 94.9782 5.69476   5
   8  -5   0 0.57880 1.02105   1
   8  -5   0 1.02174 0.82265   4
   8  -5   0 0.04139 1.05609   5
  -8  -5   0 0.65708 1.01584   2
   8  -5   0 4.07302 1.41896   3
   8   5   0 -0.7115 1.03256   3
   8   5   0 3.55359 1.41026   5
  -8   5   0 -0.9820 0.63697   3
   9  -5   0 25.5580 3.36695   1
   9  -5   0 22.3046 3.33206   3
  -9  -5   0 22.8635 2.92143   2
   9  -5   0 23.1243 3.48122   5
  -9   5   0 14.6969 2.68600   3
   9   5   0 21.0470 3.35459   3
   9   5   0 24.0327 3.40844   5
  10  -5   0 2.88361 1.72804   5
  10  -5   0 0.48485 1.41655   1
 -10  -5   0 1.01859 1.14944   2
  10  -5   0 0.50638 1.20297   3
  10   5   0 0.92820 1.42507   3
 -10   5   0 0.40287 1.08627   3
  10   5   0 -0.0576 0.97880   5
 -11  -5   0 -1.6661 1.06629   2
  11  -5   0 2.67597 1.83973   1
  11  -5   0 1.07957 1.70185   3
  11  -5   0 -0.2342 1.16252   5
  11   5   0 0.35748 1.61268   3
  11   5   0 -0.1485 0.85295   5
 -11   5   0 -1.2890 1.32756   3
  12  -5   0 0.66025 1.61299   1
  12  -5   0 -0.1872 1.16612   3
  12  -5   0 0.41082 1.51361   5
  12   5   0 1.29015 1.24472   5
  12   5   0 -0.5514 1.75527   3
 -12   5   0 -2.0367 1.09558   3
   0  -6   0 603.715 22.3581   4
   0  -6   0 616.998 22.2585   1
   0  -6   0 614.179 22.1805   2
   0   6   0 608.373 22.2818   3
   0   6   0 621.088 22.5487   5
   0   6   0 624.923 22.4939   1
  -1  -6   0 7.60070 1.01425   2
   1  -6   0 8.21783 0.93267   2
  -1  -6   0 9.52210 1.07217   4
   1  -6   0 7.59131 1.11896   4
   1  -6   0 7.64722 1.13727   1
   1   6   0 10.4661 1.22936   3
   1   6   0 7.42930 1.06258   1
  -1   6   0 10.5556 1.18886   3
   1   6   0 9.00571 1.36396   5
  -1   6   0 7.79708 1.14381   5
  -1   6   0 7.54332 1.20612   1
   2  -6   0 224.704 9.73443   4
   2  -6   0 245.464 9.20093   2
  -2  -6   0 237.899 9.64920   2
  -2  -6   0 241.209 9.25215   4
   2  -6   0 239.073 9.79855   1
   2  -6   0 253.789 9.82456   5
  -2   6   0 262.186 9.70976   3
   2   6   0 246.015 9.72471   3
   2   6   0 242.079 9.55452   1
   2   6   0 250.032 9.93672   5
  -2   6   0 252.845 9.92602   5
  -3  -6   0 83.7646 3.41455   4
   3  -6   0 80.7755 3.49942   2
   3  -6   0 78.8623 4.13875   5
  -3  -6   0 87.1651 4.14918   2
   3  -6   0 78.8573 4.12240   4
   3  -6   0 81.2941 4.20918   1
   3   6   0 79.8888 3.88519   1
   3   6   0 76.6299 4.06733   3
   3   6   0 88.2886 4.32001   5
  -3   6   0 79.0110 4.23497   5
  -3   6   0 82.4482 4.11541   3
  -4  -6   0 4.58291 1.02109   2
   4  -6   0 6.13179 1.24601   1
  -4  -6   0 5.21332 0.43588   4
   4  -6   0 4.64665 1.01329   4
   4  -6   0 6.40005 1.37563   5
   4  -6   0 5.35076 0.77087   2
  -4   6   0 6.18849 1.23237   3
   4   6   0 6.05114 1.29001   5
   4   6   0 4.15106 1.02708   3
   4   6   0 6.25478 1.10870   1
   4   6   0 4.29505 0.53869   4
  -4   6   0 3.31337 1.10675   5
   5  -6   0 9.92531 1.53087   4
  -5  -6   0 8.71539 1.49919   2
   5  -6   0 9.61667 1.64664   3
   5  -6   0 9.82142 1.09132   2
   5  -6   0 8.83076 1.62098   1
   5  -6   0 9.32444 1.76218   5
  -5   6   0 11.6451 1.75006   3
   5   6   0 10.8660 1.76239   5
   5   6   0 10.0816 1.75418   3
   5   6   0 9.34761 1.31425   1
  -5   6   0 8.47202 1.69608   5
   6  -6   0 4.68076 1.37908   3
   6  -6   0 1.09363 0.91572   5
   6  -6   0 5.03192 1.45114   1
  -6  -6   0 3.50874 1.07257   2
   6  -6   0 3.17225 0.95939   4
   6   6   0 3.41593 1.19883   3
   6   6   0 2.43793 0.87228   1
  -6   6   0 1.25623 0.98409   3
  -6   6   0 1.63906 0.97434   5
   6   6   0 2.22378 1.01511   5
   7  -6   0 128.531 6.89972   1
   7  -6   0 123.587 6.42913   4
   7  -6   0 128.730 7.09043   3
   7  -6   0 141.481 7.11799   5
  -7  -6   0 131.886 6.61560   2
   7   6   0 123.186 6.81698   5
   7   6   0 126.369 6.14255   1
  -7   6   0 134.081 7.12632   3
   7   6   0 133.901 7.22103   3
   8  -6   0 94.5330 5.71542   1
   8  -6   0 90.0685 5.73583   5
  -8  -6   0 87.1507 5.29944   2
   8  -6   0 88.4049 5.75041   3
   8  -6   0 106.758 5.42077   4
   8   6   0 82.2146 5.68611   3
   8   6   0 90.2443 5.76954   5
  -8   6   0 80.5687 5.55807   3
   9  -6   0 1.49652 1.18616   1
   9  -6   0 0.99739 1.27349   5
   9  -6   0 1.12032 1.13524   3
   9  -6   0 1.30768 1.06692   4
  -9  -6   0 0.85227 1.17737   2
   9   6   0 1.54429 1.43897   3
   9   6   0 0.90207 0.96939   5
  -9   6   0 0.45960 1.06335   3
  10  -6   0 8.19126 2.21044   1
 -10  -6   0 5.69404 1.77711   2
  10  -6   0 7.53351 2.12239   3
  10  -6   0 4.77494 1.88039   5
 -10   6   0 6.02543 1.97598   3
  10   6   0 7.33698 2.41845   3
  10   6   0 9.03208 2.24547   5
 -11  -6   0 -0.1172 1.38473   2
  11  -6   0 0.78728 1.59958   3
  11  -6   0 2.57607 1.62304   5
  11  -6   0 2.58788 1.80167   1
 -11   6   0 0.94412 1.70065   3
  11   6   0 1.54951 1.76119   5
  11   6   0 2.41336 1.94035   3
  12  -6   0 0.64957 1.43441   3
  12  -6   0 1.72818 1.91483   5
  12  -6   0 5.05909 2.00720   1
 -12   6   0 2.47995 1.87116   3
  12   6   0 3.56747 1.98756   5
   0  -7   0 0.21831 0.35319   4
   0  -7   0 0.09221 0.34419   2
   0  -7   0 -0.2903 0.24367   1
   0   7   0 0.23405 0.37336   3
   0   7   0 0.27775 0.48607   5
   0   7   0 0.29849 0.43732   1
   1  -7   0 54.4881 3.24202   4
   1  -7   0 60.1634 2.95682   2
  -1  -7   0 61.3580 3.11095   4
   1  -7   0 59.9762 3.20763   1
  -1  -7   0 65.1181 3.21835   2
  -1   7   0 61.1439 3.38497   5
   1   7   0 63.2817 3.25219   3
   1   7   0 63.9508 3.47340   5
  -1   7   0 60.3081 3.16239   3
   1   7   0 60.8715 3.20500   1
  -1   7   0 58.5202 3.35650   1
   2  -7   0 398.162 15.7907   4
   2  -7   0 419.576 15.1487   2
  -2  -7   0 415.531 15.6594   2
  -2  -7   0 405.747 15.2254   4
   2  -7   0 407.243 15.7750   1
  -2   7   0 425.030 15.6156   3
   2   7   0 417.275 15.5654   1
   2   7   0 408.135 15.9267   5
  -2   7   0 413.920 15.9033   5
   2   7   0 408.606 15.6764   3
   3  -7   0 23.6185 2.02184   1
  -3  -7   0 22.8633 1.97064   2
   3  -7   0 23.5319 2.36622   4
   3  -7   0 27.0400 2.15155   5
   3  -7   0 27.2438 1.60088   2
  -3  -7   0 24.3736 1.52096   4
  -3   7   0 18.5371 2.24722   5
   3   7   0 26.0820 1.94280   1
  -3   7   0 27.4265 2.05674   3
   3   7   0 26.2524 2.31716   5
   3   7   0 25.9750 2.10399   3
  -4  -7   0 165.982 6.47076   4
   4  -7   0 166.132 7.68259   4
   4  -7   0 172.330 7.83671   1
  -4  -7   0 167.334 7.62049   2
   4  -7   0 178.344 7.88496   5
   4  -7   0 172.174 6.80711   2
   4   7   0 176.759 7.30409   1
   4   7   0 168.113 7.81741   5
  -4   7   0 175.005 7.72635   3
   4   7   0 171.115 7.78532   3
  -4   7   0 183.067 8.07307   5
   5  -7   0 50.8778 3.29771   4
   5  -7   0 51.1808 3.44206   5
   5  -7   0 48.0105 2.46521   2
   5  -7   0 45.6411 3.30456   1
  -5  -7   0 49.3929 3.30107   2
   5   7   0 40.7011 3.17307   3
   5   7   0 48.5539 2.88695   1
   5   7   0 44.1362 3.33120   5
  -5   7   0 52.4002 3.55925   5
  -5   7   0 43.6175 3.26421   3
  -6  -7   0 161.792 7.57758   2
   6  -7   0 171.730 7.99731   5
   6  -7   0 155.130 7.75457   1
   6  -7   0 150.912 7.44476   4
   6   7   0 144.262 7.54105   5
   6   7   0 150.889 6.83722   1
  -6   7   0 162.802 7.78762   3
  -6   7   0 162.345 8.03608   5
   6   7   0 146.949 7.74864   3
   7  -7   0 24.9662 2.84961   4
   7  -7   0 17.7061 2.74087   3
   7  -7   0 18.1989 2.66169   1
  -7  -7   0 25.0418 2.95319   2
   7  -7   0 20.0765 2.94848   5
  -7   7   0 24.4023 3.02179   3
  -7   7   0 21.8363 3.09678   5
   7   7   0 21.6281 2.94701   5
   7   7   0 15.3343 2.65252   3
   8  -7   0 2.53271 1.26685   1
   8  -7   0 1.37656 1.04911   3
   8  -7   0 1.87009 1.16264   4
  -8  -7   0 2.15725 1.07159   2
   8  -7   0 0.61711 0.87330   5
  -8   7   0 0.80852 0.99623   5
   8   7   0 1.02096 1.03180   5
   8   7   0 1.39291 1.11895   3
  -8   7   0 2.75758 1.37907   3
   9  -7   0 63.8013 5.06727   3
   9  -7   0 63.6932 4.37880   4
   9  -7   0 66.3919 5.12314   5
   9  -7   0 67.2154 5.03793   1
  -9  -7   0 59.8221 4.57123   2
   9   7   0 69.7005 5.24822   5
   9   7   0 63.3387 5.26205   3
  -9   7   0 68.6753 5.29838   5
  -9   7   0 66.0983 5.03203   3
  10  -7   0 55.1738 4.55465   1
 -10  -7   0 50.7535 4.30722   2
  10  -7   0 67.3758 5.24911   5
  10  -7   0 54.4943 4.84680   3
 -10   7   0 52.8216 5.79287   5
  10   7   0 52.8941 5.82646   3
 -10   7   0 45.0326 5.21648   3
  10   7   0 43.7846 5.09600   5
 -11  -7   0 3.40569 1.53559   2
  11  -7   0 7.48781 2.39855   1
  11  -7   0 1.63605 1.97287   5
  11  -7   0 3.82389 1.86593   3
  11   7   0 4.14796 1.94597   5
 -11   7   0 3.46180 1.72180   3
 -11   7   0 2.98905 2.06454   5
  11   7   0 8.17293 2.56107   3
   0  -8   0 180.156 7.22857   2
   0  -8   0 168.595 7.24260   1
   0  -8   0 174.081 7.41102   4
   0   8   0 170.580 7.51202   1
   0   8   0 177.807 7.64107   5
   0   8   0 168.714 7.28480   3
  -1  -8   0 100.724 4.70282   2
   1  -8   0 100.399 4.93573   4
   1  -8   0 103.048 4.50290   2
   1  -8   0 100.940 4.80326   1
  -1  -8   0 93.9029 4.60030   4
   1   8   0 101.211 5.10485   5
   1   8   0 102.777 4.80032   3
  -1   8   0 98.5773 4.66782   3
   1   8   0 101.897 4.82202   1
  -1   8   0 90.5601 4.91182   1
  -1   8   0 94.8480 4.89306   5
   2  -8   0 -0.1500 0.31007   2
  -2  -8   0 0.06724 0.40288   4
  -2  -8   0 -0.3468 0.30733   2
   2  -8   0 -0.7459 0.35104   4
   2  -8   0 0.77626 0.51665   1
   2   8   0 0.00782 0.56746   1
  -2   8   0 -0.0592 0.50018   3
   2   8   0 0.09500 0.70198   3
   2   8   0 0.10975 0.93756   5
  -2   8   0 0.14084 0.54120   1
  -2   8   0 0.18359 0.63081   5
  -3  -8   0 605.283 21.7867   4
  -3  -8   0 582.863 22.5007   2
   3  -8   0 611.550 22.8078   4
   3  -8   0 589.435 21.7492   2
   3  -8   0 595.114 22.7334   1
   3   8   0 604.776 22.6434   3
  -3   8   0 599.870 22.8613   5
   3   8   0 601.560 22.3412   1
   3   8   0 580.433 22.8034   5
  -3   8   0 638.528 22.5922   3
  -4  -8   0 8.06221 1.43759   2
   4  -8   0 4.94199 1.26941   5
  -4  -8   0 8.17871 0.90086   4
   4  -8   0 6.44975 1.38944   1
   4  -8   0 7.45431 1.00227   2
   4  -8   0 6.79182 1.41981   4
   4   8   0 9.06380 1.58553   3
  -4   8   0 5.91235 1.26084   3
   4   8   0 6.22485 1.24617   1
  -4   8   0 4.12078 1.21017   5
   4   8   0 7.92550 1.56045   5
  -5  -8   0 131.814 6.48300   2
   5  -8   0 127.558 6.54278   4
   5  -8   0 131.931 6.68139   1
   5  -8   0 139.003 6.79984   5
   5   8   0 126.509 5.94305   1
   5   8   0 121.447 6.52726   3
   5   8   0 125.745 6.58492   5
  -5   8   0 129.317 6.82195   5
  -5   8   0 134.806 6.64362   3
  -6  -8   0 6.02545 1.59673   2
   6  -8   0 6.87852 1.65415   5
   6  -8   0 12.1755 2.07015   4
   6  -8   0 7.79097 1.81220   1
  -6   8   0 8.65525 1.85085   5
   6   8   0 8.30230 1.84473   5
   6   8   0 6.09739 1.26751   1
  -6   8   0 8.29891 1.81631   3
   6   8   0 7.87114 1.84276   3
   7  -8   0 6.37441 1.82609   5
   7  -8   0 3.52615 1.52576   1
   7  -8   0 6.72684 1.58912   4
  -7  -8   0 5.35767 1.60294   2
   7   8   0 6.21273 1.71636   3
   7   8   0 5.51717 1.56389   5
  -7   8   0 6.92448 1.64928   3
  -7   8   0 3.56616 1.59266   5
   8  -8   0 -0.6739 0.88443   4
  -8  -8   0 -0.9207 0.62138   2
   8  -8   0 -0.4421 0.78497   5
   8  -8   0 -2.2574 0.95382   1
  -8   8   0 2.66039 1.30847   3
   8   8   0 1.01313 0.99405   5
   8   8   0 0.67972 0.99976   3
  -8   8   0 -0.4534 0.94567   5
   9  -8   0 -1.0008 1.34298   5
  -9  -8   0 -1.3863 1.03183   2
   9  -8   0 -0.4486 0.97067   1
   9  -8   0 0.63311 0.99688   4
   9   8   0 2.08927 1.61595   5
  -9   8   0 1.00110 1.14778   3
   9   8   0 1.46923 1.51182   3
  -9   8   0 -1.2499 1.49999   5
  10  -8   0 11.6350 2.72489   1
  10  -8   0 15.8217 3.15673   5
 -10  -8   0 12.2964 2.45336   2
 -10   8   0 12.1798 2.62318   3
  10   8   0 16.0358 2.94885   5
  10   8   0 14.4224 3.26474   3
 -10   8   0 9.19858 2.75834   5
  11  -8   0 4.34647 1.79198   1
 -11  -8   0 2.55556 1.48094   2
  11  -8   0 5.99941 2.45853   5
 -11   8   0 4.87370 2.57318   5
  11   8   0 8.64879 2.41561   5
  11   8   0 8.15914 2.66444   3
 -11   8   0 3.31224 1.65584   3
   0  -9   0 -0.4733 0.33989   4
   0  -9   0 -0.1049 0.48288   2
   0  -9   0 -0.3952 0.50159   1
   0   9   0 0.00221 0.63786   1
   0   9   0 0.32409 0.73617   3
   0   9   0 -0.1779 0.57290   5
   1  -9   0 244.370 9.99188   4
  -1  -9   0 239.861 9.67938   4
   1  -9   0 231.998 9.74887   1
  -1  -9   0 248.201 9.73103   2
   1  -9   0 241.483 9.43866   2
   1   9   0 227.657 10.0848   5
   1   9   0 223.598 9.68918   3
  -1   9   0 242.235 10.1278   1
   1   9   0 241.813 9.86415   1
  -1   9   0 231.802 9.67147   3
  -1   9   0 220.032 9.91858   5
   2  -9   0 64.0027 3.80050   4
   2  -9   0 60.9881 3.66804   1
  -2  -9   0 70.9157 3.74312   2
  -2  -9   0 61.0239 3.31160   4
   2  -9   0 60.6969 3.16097   2
   2   9   0 57.8244 3.65505   3
  -2   9   0 64.3061 3.96369   1
  -2   9   0 63.9147 3.82288   5
  -2   9   0 62.0233 3.56970   3
   2   9   0 60.1972 3.89133   5
   2   9   0 56.6799 3.48749   1
  -3  -9   0 8.16158 1.51419   2
   3  -9   0 5.53481 1.26267   1
   3  -9   0 6.93776 1.42906   4
   3  -9   0 5.94398 1.01694   2
  -3  -9   0 6.49392 1.05423   4
   3   9   0 6.43971 1.54210   5
   3   9   0 5.45981 1.30321   1
  -3   9   0 4.49225 1.26450   5
  -3   9   0 5.51559 1.23285   3
   3   9   0 6.53358 1.35352   3
   4  -9   0 113.688 6.04569   1
   4  -9   0 109.446 5.97708   4
   4  -9   0 112.796 4.97846   2
   4  -9   0 117.852 6.02491   5
  -4  -9   0 121.087 5.92080   2
  -4   9   0 123.405 5.94649   3
   4   9   0 103.829 5.83619   3
   4   9   0 108.824 6.00926   5
   4   9   0 112.854 5.56642   1
  -4   9   0 119.491 6.19702   5
   5  -9   0 1.09569 1.08159   5
  -5  -9   0 -1.0447 0.80793   2
   5  -9   0 -0.2134 0.98507   1
   5  -9   0 0.10937 0.67121   4
   5   9   0 -0.5219 0.79324   1
   5   9   0 -0.4926 0.69276   5
   5   9   0 0.22006 0.71682   3
  -5   9   0 -0.0990 0.97652   5
  -5   9   0 0.10242 0.87015   3
   6  -9   0 60.5150 4.22106   4
  -6  -9   0 62.8411 4.19965   2
   6  -9   0 54.9758 4.16895   5
   6  -9   0 61.5832 4.47411   1
  -6   9   0 66.4608 4.37573   3
  -6   9   0 70.8943 4.71695   5
   6   9   0 61.4941 4.41494   5
   6   9   0 68.8002 4.63478   3
   7  -9   0 45.5564 3.86245   4
   7  -9   0 56.5491 4.20289   1
  -7  -9   0 46.3463 3.70450   2
   7  -9   0 54.6160 4.12495   5
   7   9   0 45.4039 4.03838   3
  -7   9   0 43.1766 3.89580   5
  -7   9   0 52.7477 4.14867   3
   7   9   0 51.3345 4.13904   5
   8  -9   0 1.72207 1.34817   4
   8  -9   0 1.24411 1.04546   5
  -8  -9   0 0.45276 0.94825   2
   8  -9   0 0.64568 1.03037   1
  -8   9   0 1.24037 1.24657   3
   8   9   0 2.77608 1.43994   5
  -8   9   0 6.60575 1.91738   5
   8   9   0 0.92646 0.99174   3
  -9  -9   0 9.28137 2.26636   2
   9  -9   0 8.74872 2.23997   1
   9  -9   0 5.17765 1.73746   4
   9  -9   0 3.70541 2.10095   5
   9   9   0 7.00427 2.03837   5
   9   9   0 4.73678 2.13591   3
  -9   9   0 9.25683 2.62119   5
  -9   9   0 7.89513 2.15650   3
 -10  -9   0 -0.1205 1.11638   2
  10  -9   0 -0.0447 1.22370   5
  10  -9   0 -1.9339 1.11639   4
  10  -9   0 2.15857 1.67434   1
 -10   9   0 1.41100 1.66098   3
  10   9   0 1.59410 1.26856   5
  10   9   0 1.25530 1.87011   3
 -10   9   0 0.46237 1.23922   5
  11  -9   0 -0.0155 1.37454   5
 -11  -9   0 -0.4432 1.12089   2
  11  -9   0 -0.3638 1.24045   1
 -11   9   0 1.70411 2.08663   3
  11   9   0 3.82967 1.92114   5
 -11   9   0 2.27017 1.94928   5
  11   9   0 0.36686 1.31003   3
   0 -10   0 118.852 6.02509   4
   0 -10   0 128.666 5.97440   1
   0 -10   0 128.268 5.88270   2
   0  10   0 133.642 6.14569   3
   0  10   0 126.385 6.24986   1
   0  10   0 127.654 6.44090   5
   1 -10   0 35.0901 2.35712   2
  -1 -10   0 37.5640 2.56022   4
   1 -10   0 34.1808 2.66406   4
   1 -10   0 35.7044 2.57330   1
  -1 -10   0 32.6265 2.43190   2
  -1  10   0 37.3309 2.60632   3
   1  10   0 33.8023 2.72056   3
   1  10   0 33.9282 2.58507   1
  -1  10   0 38.1397 2.98076   5
  -1  10   0 36.0205 2.80818   1
   1  10   0 33.9963 2.86783   5
  -2 -10   0 29.8508 2.22981   4
   2 -10   0 33.0097 2.13725   2
   2 -10   0 28.9706 2.40315   1
  -2 -10   0 31.3988 2.48039   2
   2 -10   0 30.9517 2.59735   4
   2  10   0 29.6946 2.92442   3
  -2  10   0 30.1032 3.17076   1
  -2  10   0 26.4528 2.89745   5
   2  10   0 28.7855 3.12619   5
  -2  10   0 30.4158 2.46270   3
   2  10   0 27.3123 2.29352   1
   3 -10   0 7.31891 1.19943   2
   3 -10   0 8.24974 1.58780   1
   3 -10   0 11.6609 1.90009   4
  -3 -10   0 8.49613 1.30166   4
  -3 -10   0 9.08993 1.56033   2
   3  10   0 7.51884 1.63853   3
  -3  10   0 8.43842 1.73115   5
   3  10   0 9.00537 2.10911   5
  -3  10   0 9.07549 1.58409   3
  -3  10   0 9.00163 1.93897   1
   3  10   0 7.39545 1.53633   1
   4 -10   0 14.3403 2.20691   4
   4 -10   0 11.4664 1.95489   1
  -4 -10   0 10.5234 1.86826   2
   4  10   0 9.84432 1.81268   1
   4  10   0 9.72139 1.87662   3
  -4  10   0 13.8132 2.08012   3
  -4  10   0 10.5157 1.96667   5
   4  10   0 10.0017 2.23911   5
   5 -10   0 7.85511 1.92604   5
   5 -10   0 7.95030 1.80603   4
  -5 -10   0 7.40426 1.68474   2
   5 -10   0 8.57897 1.90020   1
   5  10   0 10.9226 2.08714   5
   5  10   0 9.31723 1.87733   1
  -5  10   0 8.23726 1.69304   3
  -5  10   0 11.0660 2.13366   5
   5  10   0 4.37679 1.55540   3
   6 -10   0 8.74891 2.01284   1
   6 -10   0 8.37060 1.99512   4
  -6 -10   0 7.84682 1.90028   2
   6 -10   0 7.24184 1.79642   5
   6  10   0 8.09955 2.07567   5
   6  10   0 8.61256 2.02401   3
  -6  10   0 6.20229 1.59679   3
  -6  10   0 6.64998 1.84565   5
   7 -10   0 11.2428 2.45157   1
  -7 -10   0 9.49214 1.99959   2
   7 -10   0 8.15496 1.94677   4
   7 -10   0 9.63394 2.19259   5
  -7  10   0 11.0693 2.30969   3
   7  10   0 10.2971 2.29265   3
  -7  10   0 7.13522 2.00711   5
   7  10   0 8.85210 2.17038   5
   8 -10   0 97.0032 6.29657   1
  -8 -10   0 88.4382 5.80734   2
   8 -10   0 87.6721 5.70517   4
   8 -10   0 89.3360 5.99729   5
   8  10   0 91.9664 6.15416   5
  -8  10   0 87.4229 5.98280   3
   8  10   0 79.4131 5.91375   3
  -8  10   0 91.1533 6.24186   5
   9 -10   0 4.57608 2.09378   5
   9 -10   0 5.28309 2.29706   1
  -9 -10   0 4.44030 1.87335   2
   9 -10   0 2.96981 1.73777   4
   9  10   0 3.93865 1.96539   3
  -9  10   0 5.92931 1.90989   3
   9  10   0 5.35254 1.98544   5
  -9  10   0 2.56871 1.87144   5
 -10 -10   0 22.5378 3.43308   2
  10 -10   0 22.2936 3.84777   1
  10 -10   0 20.2216 3.20302   4
  10 -10   0 29.3010 4.14451   5
 -10  10   0 22.2111 3.85793   3
  10  10   0 20.7805 3.57889   5
 -10  10   0 19.5410 3.56637   5
  10  10   0 19.1386 3.67542   3
   0 -11   0 0.43598 0.59072   2
   0 -11   0 0.69123 0.79997   1
   0 -11   0 0.49283 0.83588   4
   0  11   0 -0.4340 1.04017   5
   0  11   0 -0.1250 0.79739   1
   0  11   0 0.35672 0.94438   3
  -1 -11   0 86.6202 4.63095   2
  -1 -11   0 84.9947 4.59256   4
   1 -11   0 82.7211 4.33440   2
   1 -11   0 84.9106 4.64141   1
   1 -11   0 83.7098 4.82026   4
   1  11   0 82.6793 5.01596   5
  -1  11   0 85.2329 5.05781   5
   1  11   0 83.5118 4.76765   1
   1  11   0 90.8122 4.80586   3
  -1  11   0 84.5233 4.69203   3
  -1  11   0 77.9412 4.83205   1
  -2 -11   0 52.1995 3.36336   2
   2 -11   0 47.3550 3.60246   4
   2 -11   0 47.0731 3.40345   1
   2 -11   0 53.2063 3.04623   2
  -2 -11   0 51.0719 3.17414   4
   2  11   0 43.5141 3.42771   3
   2  11   0 50.9377 3.43039   1
  -2  11   0 48.8777 3.38667   3
   2  11   0 50.9130 3.78651   5
  -2  11   0 48.2341 3.57273   5
  -2  11   0 44.0411 3.60966   1
  -3 -11   0 4.32370 1.20205   2
  -3 -11   0 4.20848 1.04412   4
   3 -11   0 1.95787 1.32666   4
   3 -11   0 5.80744 1.50188   1
   3 -11   0 3.50388 0.91671   2
   3  11   0 4.71360 1.47529   3
  -3  11   0 3.62370 1.22351   5
   3  11   0 5.14999 1.66191   5
  -3  11   0 2.66036 1.14747   1
  -3  11   0 4.53120 1.37060   3
   3  11   0 5.77867 1.43144   1
   4 -11   0 23.5373 2.96283   4
  -4 -11   0 21.4366 2.65821   2
   4 -11   0 27.0342 3.17810   1
   4  11   0 25.6942 2.89537   1
   4  11   0 20.4530 2.91544   5
  -4  11   0 28.1791 3.39048   5
  -4  11   0 20.8812 3.05798   1
  -4  11   0 24.4611 2.81036   3
   4  11   0 23.2513 2.83227   3
  -5 -11   0 0.84528 0.93811   2
   5 -11   0 0.02979 1.11425   4
   5 -11   0 1.22704 1.19873   1
   5  11   0 2.94496 1.36197   3
  -5  11   0 0.36755 0.80133   3
   5  11   0 1.64157 1.53627   5
  -5  11   0 1.15680 1.35920   5
   6 -11   0 36.6497 4.07101   5
  -6 -11   0 37.7215 3.93286   2
   6 -11   0 40.0068 4.37627   1
   6 -11   0 35.0797 4.03809   4
  -6  11   0 35.2987 4.12862   5
   6  11   0 36.2345 3.96258   3
  -6  11   0 40.2871 3.55285   3
   6  11   0 35.6352 4.14533   5
   7 -11   0 37.1515 4.19321   4
  -7 -11   0 42.9924 4.35867   2
   7 -11   0 39.7957 4.48049   5
   7 -11   0 36.5725 4.32004   1
  -7  11   0 44.7186 4.99151   5
   7  11   0 37.2831 4.21776   3
   7  11   0 44.2053 3.87624   5
  -7  11   0 44.3209 4.50449   3
   8 -11   0 15.5011 3.05364   1
   8 -11   0 12.8088 2.86156   5
   8 -11   0 17.9067 3.04471   4
  -8 -11   0 13.8907 2.74974   2
   8  11   0 16.0345 3.17899   3
  -8  11   0 15.3747 3.15936   5
  -8  11   0 11.7559 2.62441   3
   8  11   0 14.4357 2.87626   5
   9 -11   0 9.05760 2.70933   1
   9 -11   0 8.44083 2.41119   5
   9 -11   0 5.55652 2.08366   4
  -9 -11   0 3.77866 1.97878   2
   9  11   0 7.70754 2.24939   3
  -9  11   0 3.58303 1.83455   5
   9  11   0 8.11175 2.25908   5
  -9  11   0 8.15873 2.02143   3
  10 -11   0 5.06419 2.28691   5
 -10 -11   0 5.55082 1.97058   2
  10 -11   0 4.04524 1.88701   4
  10 -11   0 7.87653 2.32359   1
  10  11   0 8.17220 2.18860   5
 -10  11   0 4.54038 2.15490   3
  10  11   0 7.22827 2.71726   3
 -10  11   0 12.2596 3.25898   5
   0 -12   0 3.11715 1.02384   2
   0 -12   0 4.79678 1.42045   4
   0  12   0 2.64051 1.22956   1
   0  12   0 2.67971 1.30888   3
   0  12   0 3.79179 1.34157   5
  -1 -12   0 2.09065 1.04433   4
  -1 -12   0 1.22937 0.85952   2
   1 -12   0 3.31080 1.18527   4
   1 -12   0 2.14590 0.88860   2
   1 -12   0 2.42825 1.08413   1
   1  12   0 2.13039 1.35182   3
   1  12   0 2.80364 1.60622   5
  -1  12   0 1.58369 1.28382   5
  -1  12   0 1.73677 1.04878   1
   1  12   0 2.36616 1.01585   1
  -1  12   0 2.03171 1.25939   3
   2 -12   0 11.3151 2.14887   4
  -2 -12   0 9.95585 1.63486   4
  -2 -12   0 5.55055 1.35858   2
   2 -12   0 11.7970 2.07186   1
   2 -12   0 11.3662 1.57716   2
  -2  12   0 10.8262 2.25251   5
   2  12   0 10.8086 1.93859   1
  -2  12   0 11.2874 2.12328   1
   2  12   0 9.59775 2.31075   5
  -2  12   0 11.4890 2.00369   3
   2  12   0 9.34089 1.96136   3
   3 -12   0 95.8349 5.64337   1
  -3 -12   0 98.7079 4.97421   4
   3 -12   0 92.3296 5.76692   4
  -3 -12   0 99.3140 5.59302   2
   3  12   0 109.871 5.85850   3
  -3  12   0 99.3841 5.84443   5
  -3  12   0 92.9150 5.93900   1
   3  12   0 95.9752 5.92057   5
   3  12   0 93.8612 5.42045   1
  -3  12   0 103.448 5.58718   3
  -4 -12   0 15.0831 2.38236   2
   4 -12   0 19.9129 2.82295   4
   4 -12   0 16.9243 2.54878   1
  -4  12   0 20.3299 2.67011   3
  -4  12   0 20.6249 3.05469   1
   4  12   0 16.5348 2.84266   1
   4  12   0 22.6831 2.85775   3
  -4  12   0 12.1884 2.50642   5
   4  12   0 18.1562 3.02115   5
  -5 -12   0 32.3089 3.64521   2
   5 -12   0 35.0894 3.97872   1
   5 -12   0 32.9116 3.79509   4
   5  12   0 32.5965 3.74888   3
  -5  12   0 33.3336 3.59830   3
  -5  12   0 34.1925 4.07922   5
   5  12   0 35.8041 4.00649   5
  -5  12   0 31.8871 4.09327   1
   6 -12   0 7.72125 2.00910   4
  -6 -12   0 5.25671 1.64708   2
   6 -12   0 6.71014 1.83785   1
  -6  12   0 5.46004 1.80303   5
  -6  12   0 5.40909 1.94865   1
   6  12   0 5.80847 1.72632   3
   6  12   0 7.47360 2.09680   5
  -6  12   0 4.50377 1.74304   3
  -7 -12   0 1.05077 1.51812   2
   7 -12   0 -1.0364 0.79053   4
   7 -12   0 1.52076 1.47833   1
  -7  12   0 0.25264 1.37852   3
  -7  12   0 2.71430 1.62564   5
   7  12   0 -0.4663 0.84578   5
   7  12   0 1.53741 1.35956   3
  -8 -12   0 1.58546 1.58867   2
   8 -12   0 2.75689 1.55603   4
   8 -12   0 3.68793 1.96262   5
   8 -12   0 3.00184 1.61511   1
  -8  12   0 6.10995 2.32378   5
  -8  12   0 2.84792 1.66208   3
   8  12   0 1.82994 1.23745   5
   8  12   0 2.65003 1.44854   3
  -9 -12   0 0.72183 1.76802   2
   9 -12   0 -0.3493 1.10329   4
   9 -12   0 1.55670 1.33528   1
   9 -12   0 1.18848 1.39949   5
   9  12   0 3.31793 1.91232   3
  -9  12   0 -1.0994 1.54461   3
   9  12   0 2.15356 1.42416   5
  -9  12   0 -0.5082 1.17572   5
   0 -13   0 -0.9897 0.82960   4
   0 -13   0 -0.6995 0.73257   2
   0  13   0 -3.1036 0.88608   3
   0  13   0 -0.9856 0.87835   1
   0  13   0 -1.0332 0.74681   5
  -1 -13   0 14.4089 2.13447   2
   1 -13   0 17.1905 2.51051   1
   1 -13   0 18.8403 2.24233   2
   1 -13   0 16.3742 2.45401   4
  -1 -13   0 13.4883 2.13898   4
   1  13   0 15.8724 2.44899   1
  -1  13   0 17.5446 2.72823   5
  -1  13   0 20.3684 2.82838   1
  -1  13   0 18.0422 2.60333   3
   1  13   0 16.8334 2.40802   3
   1  13   0 14.1913 2.53676   5
   2 -13   0 51.1227 4.00743   4
   2 -13   0 50.9435 3.19480   2
   2 -13   0 44.6948 3.48051   1
  -2 -13   0 45.7554 3.54719   2
  -2 -13   0 45.2284 3.28843   4
   2  13   0 46.7757 3.60935   1
  -2  13   0 44.7165 3.58844   3
   2  13   0 47.6253 3.60314   3
   2  13   0 46.4984 4.73955   5
  -2  13   0 46.1448 3.75896   5
  -2  13   0 41.3097 3.66238   1
   3 -13   0 18.8075 2.72172   1
   3 -13   0 23.3006 3.19487   4
  -3 -13   0 19.3728 2.72497   2
   3  13   0 23.1532 2.95520   3
   3  13   0 22.9352 2.96400   1
  -3  13   0 22.3990 3.23762   1
   3  13   0 19.8266 3.17475   5
  -3  13   0 19.8136 2.98099   5
  -3  13   0 21.5576 2.80178   3
  -4 -13   0 4.61530 1.71350   2
   4 -13   0 2.91221 1.38351   1
   4 -13   0 3.02947 1.58970   4
  -4  13   0 1.19217 1.11873   5
  -4  13   0 3.26485 1.41414   3
  -4  13   0 3.10764 1.53340   1
   4  13   0 2.62030 1.20359   3
   4  13   0 1.56554 1.96026   5
   5 -13   0 7.36388 1.92541   1
  -5 -13   0 6.08464 1.90270   2
   5 -13   0 3.83384 1.56042   4
   5  13   0 7.21437 2.38955   5
  -5  13   0 5.74890 1.61124   3
  -5  13   0 6.50921 1.95880   1
   5  13   0 6.23754 1.72962   3
  -5  13   0 5.20291 1.79652   5
  -6 -13   0 4.64890 1.60547   2
   6 -13   0 3.65113 1.92057   4
   6 -13   0 2.40486 1.41131   1
   6  13   0 3.36012 1.36758   3
  -6  13   0 3.87415 1.67765   1
  -6  13   0 1.76360 1.43090   3
   6  13   0 0.95177 1.49548   5
  -6  13   0 4.45080 2.15076   5
   7 -13   0 0.12143 1.55529   4
  -7 -13   0 1.49105 1.58921   2
   7 -13   0 0.04813 1.29369   1
  -7  13   0 -0.7312 1.52176   1
   7  13   0 1.82537 1.02629   3
  -7  13   0 -1.3511 0.78452   5
  -7  13   0 -0.2475 1.20991   3
   7  13   0 0.81069 1.41173   5
  -8 -13   0 0.83172 1.75205   2
   8 -13   0 0.62738 1.65628   4
   8 -13   0 5.44675 2.20574   1
  -8  13   0 2.60627 1.73278   3
  -8  13   0 2.06928 1.89942   1
  -8  13   0 2.28192 1.53234   5
   8  13   0 1.76567 1.64132   3
   8  13   0 2.66194 1.65911   5
   9 -13   0 3.87697 1.74355   1
  -9 -13   0 1.43345 1.76867   2
   9 -13   0 2.55840 1.79195   4
  -9  13   0 2.63852 2.16324   5
   9  13   0 5.50270 1.89389   5
  -9  13   0 4.91457 2.21600   1
  -9  13   0 1.62739 1.94233   3
   9  13   0 2.42046 1.50355   3
   0 -14   0 4.99112 1.48610   2
   0 -14   0 10.2766 2.08874   4
   0  14   0 4.71391 1.98299   5
   0  14   0 6.00891 1.86286   3
   0  14   0 10.6196 2.13351   1
   1 -14   0 1.73664 1.29759   4
  -1 -14   0 1.05114 1.12908   4
   1 -14   0 0.61514 1.05517   1
   1 -14   0 0.49742 0.83202   2
  -1 -14   0 1.56996 1.15599   2
  -1  14   0 -0.9819 0.87344   5
  -1  14   0 1.27795 1.03515   3
   1  14   0 0.52092 1.05549   1
   1  14   0 1.46236 1.47634   5
  -1  14   0 2.76003 1.53075   1
   1  14   0 0.49673 1.32197   3
  -2 -14   0 21.0270 2.61235   4
   2 -14   0 22.2070 3.14573   4
  -2 -14   0 18.7289 2.65436   2
   2 -14   0 20.6662 2.80204   1
   2  14   0 18.8830 2.82116   3
   2  14   0 17.1354 2.64103   1
  -2  14   0 15.2458 2.74733   1
  -2  14   0 20.0621 3.12463   5
  -2  14   0 19.1066 2.82435   3
   2  14   0 26.6538 3.65438   5
   3 -14   0 13.4692 2.40410   1
   3 -14   0 12.8092 2.45319   4
  -3 -14   0 9.98993 2.02842   2
  -3  14   0 19.0292 3.11277   1
   3  14   0 15.8065 2.96563   5
  -3  14   0 13.2762 2.40970   3
   3  14   0 12.4971 2.38241   3
  -3  14   0 17.1807 2.99451   5
   4 -14   0 -0.3146 1.19927   4
  -4 -14   0 -1.2932 1.05944   2
   4 -14   0 -0.5975 1.04256   1
  -4  14   0 -0.5220 1.37826   1
   4  14   0 -0.1663 1.69933   5
   4  14   0 1.01721 0.87748   3
  -4  14   0 1.64068 1.38447   3
  -4  14   0 -0.4622 1.25411   5
  -5 -14   0 2.63824 1.76371   2
   5 -14   0 0.82493 1.46926   4
   5 -14   0 5.02379 1.95810   1
  -5  14   0 5.43169 1.64125   3
   5  14   0 5.31162 1.66229   3
   5  14   0 1.58669 1.79934   5
  -5  14   0 2.10841 1.91537   1
  -5  14   0 4.24861 1.87086   5
   6 -14   0 1.14719 1.29651   4
  -6 -14   0 2.56442 1.43929   2
   6 -14   0 2.12620 1.78341   1
   6  14   0 4.83186 1.64661   3
  -6  14   0 2.68534 1.33726   3
  -6  14   0 1.42310 1.82554   1
  -6  14   0 1.43526 1.31734   5
   6  14   0 4.27713 1.95807   5
  -7 -14   0 -0.3821 1.00531   2
   7 -14   0 -0.3081 0.99968   1
   7 -14   0 -0.2942 1.23928   4
  -7  14   0 -0.9319 1.02844   5
   7  14   0 1.95656 1.42575   3
  -7  14   0 0.86309 1.55873   3
   7  14   0 -0.2959 1.25991   5
  -7  14   0 -0.4921 1.01738   1
  -8 -14   0 16.1749 3.24941   2
   8 -14   0 21.0522 3.68978   1
   8 -14   0 14.5694 2.98810   4
  -8  14   0 15.2911 3.40608   1
  -8  14   0 20.7957 3.53103   3
   8  14   0 18.8890 3.29831   5
  -8  14   0 17.6698 3.47653   5
   8  14   0 19.8169 3.55579   3
   0 -15   0 -1.8031 0.74798   2
   0 -15   0 0.66276 1.23838   4
   0  15   0 -2.1919 1.43757   5
   0  15   0 1.10438 1.17614   1
   0  15   0 -2.6731 1.19588   3
   1 -15   0 28.9163 3.62113   4
   1 -15   0 27.4338 3.00819   2
  -1 -15   0 33.0195 3.57883   4
  -1 -15   0 22.6971 2.99335   2
  -1  15   0 28.8577 3.75273   1
  -1  15   0 33.2452 4.06369   5
   1  15   0 24.0475 3.35397   3
  -1  15   0 27.0188 3.25519   3
   1  15   0 31.1460 3.71080   1
   1  15   0 26.9111 4.06108   5
  -2 -15   0 13.5548 2.26506   4
   2 -15   0 21.1095 3.01746   1
  -2 -15   0 17.3653 2.67467   2
   2 -15   0 13.4480 2.51159   4
   2  15   0 10.8814 2.89386   5
   2  15   0 12.4061 2.50732   1
  -2  15   0 18.4920 2.72999   3
  -2  15   0 17.0767 2.90924   1
   2  15   0 16.1550 2.80571   3
  -2  15   0 15.5336 2.91081   5
  -3 -15   0 0.68325 1.02701   2
   3 -15   0 1.45607 1.24862   4
   3 -15   0 2.71607 1.64942   1
   3  15   0 0.47357 1.00089   3
  -3  15   0 0.46294 1.50650   1
  -3  15   0 -0.5620 1.36357   3
   3  15   0 1.92163 2.19206   5
  -3  15   0 1.86671 1.31354   5
   4 -15   0 -0.8493 0.79955   4
   4 -15   0 1.10367 1.19158   1
  -4 -15   0 0.19400 1.00567   2
  -4  15   0 -0.0066 1.07262   1
   4  15   0 -3.2052 1.46254   5
  -4  15   0 -1.7153 1.13375   3
  -4  15   0 1.70387 1.31282   5
   4  15   0 2.00407 1.13351   3
   5 -15   0 -1.0514 1.16977   1
  -5 -15   0 0.17253 1.01108   2
   5 -15   0 -1.5529 1.38776   4
  -5  15   0 0.71046 1.47178   3
   5  15   0 0.42865 0.89592   3
  -5  15   0 0.23406 1.57514   1
   5  15   0 2.90846 2.02776   5
  -5  15   0 0.29414 1.17924   5
   6 -15   0 -0.3356 1.07197   1
  -6 -15   0 0.30316 1.63761   2
   6 -15   0 -1.1858 1.18376   4
   6  15   0 -0.8276 1.00799   5
  -6  15   0 -0.7303 1.33772   3
  -6  15   0 -0.5921 1.38898   5
   6  15   0 -0.8756 0.75973   3
  -6  15   0 -1.3240 1.74278   1
   7 -15   0 2.99780 2.09541   4
   7 -15   0 3.93447 1.89238   1
  -7 -15   0 2.12262 1.52353   2
  -7  15   0 5.89673 2.33443   3
  -7  15   0 0.66751 1.63126   1
  -7  15   0 3.71581 2.34064   5
   7  15   0 3.18428 1.74632   3
   7  15   0 5.49392 1.99759   5
   0 -16   0 11.1910 2.20305   2
   0 -16   0 16.2626 2.76461   4
   0  16   0 10.2526 2.37615   1
   0  16   0 16.2937 3.29627   5
   0  16   0 8.48527 2.43231   3
  -1 -16   0 3.09094 1.54519   2
   1 -16   0 7.05190 2.13761   4
  -1 -16   0 7.36716 1.98226   4
   1  16   0 4.13084 2.08953   5
   1  16   0 0.83813 1.76269   3
  -1  16   0 3.64952 2.03134   3
  -1  16   0 4.88393 1.96574   1
   1  16   0 4.91250 1.75397   1
  -1  16   0 4.72520 1.90356   5
   2 -16   0 1.65289 1.44190   1
  -2 -16   0 3.25405 1.55119   2
   2 -16   0 1.50914 1.25160   4
  -2  16   0 1.95787 1.71271   1
  -2  16   0 2.95570 1.91386   3
   2  16   0 1.49296 1.73835   5
  -2  16   0 1.34552 1.95462   5
   2  16   0 -0.0265 1.59641   3
  -3 -16   0 5.71099 1.87938   2
   3 -16   0 4.76872 1.81173   4
   3 -16   0 5.16661 1.99424   1
  -3  16   0 4.00311 2.00286   3
  -3  16   0 5.31557 2.13055   1
   3  16   0 3.19708 1.80475   3
  -3  16   0 5.70795 2.11408   5
   3  16   0 3.93818 2.62684   5
  -4 -16   0 1.07693 1.20145   2
   4 -16   0 1.22663 1.21045   1
   4 -16   0 4.20045 1.81230   4
   4  16   0 1.24922 1.32200   3
  -4  16   0 2.73063 1.72936   1
  -4  16   0 0.39501 1.56406   5
  -4  16   0 -0.6114 1.51064   3
   4  16   0 0.54080 2.23170   5
   5 -16   0 -0.6586 1.49632   4
   5 -16   0 3.11580 1.58634   1
  -5 -16   0 0.52374 1.27211   2
  -5  16   0 -1.1772 1.55415   3
   5  16   0 -1.1126 1.71453   5
  -5  16   0 -0.8666 1.53679   5
  -5  16   0 1.49713 1.54296   1
   5  16   0 2.22828 1.58843   3
  -6 -16   0 1.23661 1.68323   2
   6 -16   0 2.91666 1.58947   1
   6 -16   0 0.12615 1.10343   4
   6  16   0 -0.0104 1.04865   3
  -6  16   0 3.14860 1.83590   1
   6  16   0 0.46035 1.34758   5
  -6  16   0 1.57989 1.69930   5
  -6  16   0 -1.5324 1.64993   3
  -7  16   0 -1.9613 1.54717   3
   7  16   0 3.52747 1.66113   3
   7  16   0 1.56679 1.43785   5
   0 -17   0 -0.2060 1.18835   2
   0 -17   0 1.32474 1.51982   4
   0  17   0 3.38602 1.70640   1
   0  17   0 -0.4768 1.64551   3
   0  17   0 -0.6148 1.31810   5
  -1 -17   0 0.11744 0.87403   2
   1 -17   0 -1.4133 1.01255   4
  -1 -17   0 -1.2887 1.24874   4
  -1  17   0 0.12928 1.91762   3
   1  17   0 1.82250 1.54028   1
  -1  17   0 0.93486 2.12136   5
   1  17   0 -0.6820 1.28579   3
   1  17   0 -2.0797 1.90970   5
  -1  17   0 0.70535 1.50086   1
  -2 -17   0 12.8476 2.45467   2
   2 -17   0 8.46583 2.16307   4
   2  17   0 6.97884 2.09116   3
  -2  17   0 8.24579 2.54099   1
   2  17   0 4.36692 2.75110   5
  -2  17   0 10.4104 3.09137   5
  -2  17   0 8.42738 2.48366   3
  -3 -17   0 14.9826 2.78134   2
   3 -17   0 10.7883 2.55926   4
   3 -17   0 15.4187 3.03621   1
   3  17   0 11.6092 2.70109   3
  -3  17   0 17.3950 3.33029   1
  -3  17   0 14.9886 3.29291   5
  -3  17   0 11.0929 2.75141   3
   3  17   0 14.6559 3.19359   5
   4 -17   0 -0.9071 1.19031   4
  -4 -17   0 2.61710 1.66724   2
   4 -17   0 1.03906 1.75749   1
   4  17   0 5.14235 1.79347   3
  -4  17   0 -0.0440 1.17693   3
  -4  17   0 -1.8126 1.65214   5
   4  17   0 -1.2451 2.17665   5
  -4  17   0 1.98161 1.73925   1
   5 -17   0 1.79021 1.63417   4
   5 -17   0 1.92957 1.97641   1
  -5 -17   0 2.27149 1.81056   2
   5  17   0 5.80359 1.98887   3
  -5  17   0 -1.0162 1.28210   3
   5  17   0 -1.0531 1.73313   5
  -5  17   0 2.94600 1.57466   1
  -5  17   0 2.45223 1.83854   5
   0 -18   0 4.12866 1.96723   4
   0  18   0 -1.0043 1.97314   3
   0  18   0 2.68497 2.14662   5
   0  18   0 2.25323 1.82898   1
  -1 -18   0 5.06249 1.86052   2
   1 -18   0 1.65248 1.79901   4
   1  18   0 0.44566 2.54325   5
   1  18   0 2.97997 2.21608   3
  -1  18   0 -1.0142 2.06512   3
  -1  18   0 3.17034 1.84338   1
  -1  18   0 1.52639 2.46558   5
  -2 -18   0 -1.1063 1.25501   2
   2 -18   0 1.10895 1.32955   4
  -2  18   0 -1.9030 1.72662   5
  -2  18   0 -1.5550 1.44538   1
  -2  18   0 -1.3379 1.34841   3
   2  18   0 -1.6163 1.56712   5
   2  18   0 -2.7496 1.57251   3
  -3 -18   0 13.9404 2.93882   2
   3 -18   0 13.7154 2.96332   1
   3 -18   0 14.3416 3.21918   4
  -3  18   0 13.6062 2.98842   3
  -3  18   0 4.93097 2.64706   5
   3  18   0 7.47179 3.20702   5
  -3  18   0 8.85266 2.42164   1
   3  18   0 9.50244 2.59062   3
   4 -18   0 -0.5520 1.72963   1
   4 -18   0 -0.9917 1.75988   4
  -4 -18   0 0.12125 1.57706   2
   4  18   0 -0.5796 1.76853   5
  -4  18   0 4.25314 2.08698   1
   4  18   0 1.40873 1.25571   3
  -4  18   0 -0.9812 1.50780   5
  -4  18   0 -4.7131 1.59915   3
   0 -19   0 0.35770 1.63626   4
   0  19   0 -4.4862 2.09130   3
   0  19   0 -2.5281 1.83308   5
   1 -19   0 5.09804 2.32184   4
   1  19   0 3.12929 2.81245   5
  -1  19   0 -1.0172 2.51957   3
   1  19   0 4.69092 2.43745   3
  -1  19   0 10.0724 2.72912   1
  12   0  -1 94.1556 7.26678   3
 -12   0   1 89.0055 7.04033   3
  11   0  -1 -0.5402 1.05618   1
  11   0  -1 2.19448 1.51607   5
  11   0  -1 -0.6284 1.33553   3
  10   0  -1 11.7761 2.53842   5
  10   0  -1 14.3359 2.91269   3
  10   0  -1 11.6673 2.36803   1
   9   0  -1 -0.6223 0.66219   5
   9   0  -1 -0.4123 0.81969   3
   9   0  -1 0.23470 0.91408   1
   8   0  -1 58.5424 3.93166   1
   8   0  -1 62.0959 4.41097   3
   8   0  -1 49.5608 4.07536   5
  -8   0   1 50.8147 3.20070   2
   7   0  -1 0.10919 0.42188   4
   7   0  -1 -0.5356 0.67052   1
  -7   0   1 1.38589 0.68601   2
   7   0  -1 0.41929 0.87151   3
   7   0  -1 -0.1281 0.91990   5
   6   0  -1 433.938 16.1621   4
   6   0  -1 450.068 17.5476   5
   6   0  -1 435.182 17.5599   3
   6   0  -1 438.146 17.1408   1
  -6   0   1 455.037 16.4975   2
   5   0  -1 -0.0727 0.40214   5
   5   0  -1 0.18866 0.48757   1
   5   0  -1 -0.4044 0.31404   3
   5   0  -1 0.00394 0.24487   4
  -5   0   1 -0.3832 0.26599   2
   4   0  -1 99.0164 4.76422   5
  -4   0   1 102.308 4.17549   2
   4   0  -1 104.741 4.09247   4
   4   0  -1 93.7261 4.55236   1
   4   0  -1 99.2822 4.79058   3
   3   0  -1 -0.3799 0.17589   5
  -3   0   1 0.16984 0.16185   2
   3   0  -1 -0.6123 0.22314   3
   3   0  -1 -0.3175 0.28697   1
   3   0  -1 0.30535 0.21758   4
  -2   0   1 41.2815 1.70702   2
   2   0  -1 39.7443 1.99724   1
   2   0  -1 39.1060 2.01182   3
   2   0  -1 39.8403 2.01946   5
   2   0  -1 40.4354 1.76990   4
  -1   0   1 0.18111 0.10850   3
   1   0  -1 -0.0242 0.10539   1
  -1   0   1 0.53778 0.13454   2
   1   0  -1 0.25047 0.12287   3
   1   0  -1 0.34173 0.15148   5
   1   0  -1 0.46032 0.16323   4
   0   0  -1 511.021 18.1971   4
   0   0  -1 518.782 18.1330   1
   0   0   1 535.469 18.0118   3
   0   0   1 502.479 18.1306   2
  -1   0  -1 0.14794 0.09888   1
   1   0   1 0.12319 0.10061   5
   1   0   1 0.20827 0.11045   4
   1   0   1 0.17058 0.11371   3
   1   0   1 0.12794 0.11401   2
   1   0   1 0.25618 0.09699   1
  -1   0  -1 0.19050 0.14502   4
  -2   0  -1 0.86295 0.29925   2
   2   0   1 0.81589 0.27176   2
   2   0   1 0.47549 0.28449   3
   2   0   1 0.62648 0.32474   5
  -2   0  -1 1.48994 0.31425   4
   2   0   1 0.58883 0.18547   4
   2   0   1 1.37127 0.30411   1
   3   0   1 -0.2831 0.11200   5
   3   0   1 0.22577 0.14920   4
   3   0   1 -0.3258 0.18791   3
   3   0   1 -0.2245 0.18909   1
  -3   0  -1 -0.0717 0.19780   2
   3   0   1 -0.1177 0.17682   2
   4   0   1 4079.42 143.472   5
   4   0   1 4167.93 142.714   4
  -4   0  -1 4250.73 143.413   2
   4   0   1 4136.97 143.095   1
   4   0   1 3918.38 143.622   3
   5   0   1 -0.2880 0.19064   4
   5   0   1 0.02694 0.42562   3
  -5   0  -1 -0.3847 0.38136   2
   5   0   1 -0.7362 0.27312   5
   5   0   1 -0.3671 0.31529   1
   6   0   1 0.86742 0.67664   5
  -6   0  -1 1.88618 0.65127   2
   6   0   1 0.93063 0.63315   1
   6   0   1 0.63514 0.36996   4
   6   0   1 1.32396 0.78709   3
   7   0   1 -0.8189 0.39931   1
   7   0   1 -0.9654 0.40788   5
   7   0   1 -0.0159 0.59775   3
  -7   0  -1 -0.3617 0.53675   2
   8   0   1 18.2975 2.82928   3
  -8   0  -1 20.9807 2.44794   2
   8   0   1 27.3933 2.31378   1
   8   0   1 22.4179 3.01385   5
  -9   0  -1 0.18400 0.80673   2
   9   0   1 2.14966 1.33072   5
   9   0   1 0.40201 1.19656   3
   9   0   1 1.12638 0.83709   1
  10   0   1 40.0005 4.79476   3
  10   0   1 41.6899 4.74233   5
  11   0   1 0.20617 0.89701   5
  11   0   1 0.93687 1.52190   3
  12   0   1 68.6082 6.11347   3
  12   0   1 64.8197 5.61762   5
  12  -1  -1 10.6138 2.86962   3
  12  -1  -1 9.22992 2.66643   5
 -12   1   1 5.50988 2.05982   3
  12   1  -1 11.7276 2.93872   3
  12   1  -1 10.0741 2.60970   5
  11  -1  -1 6.75432 1.82019   1
  11  -1  -1 8.73517 2.33790   3
  11  -1  -1 10.2172 2.46941   5
 -11   1   1 7.91026 2.26646   3
  11   1  -1 9.83419 2.53107   3
  11   1  -1 6.64851 2.32790   5
  10  -1  -1 5.91575 1.86495   3
  10  -1  -1 5.68728 1.84381   1
  10  -1  -1 3.69606 1.46240   5
  10   1  -1 3.53521 1.78775   3
  10   1  -1 5.85467 2.04686   5
 -10   1   1 3.54280 1.65954   3
  10   1  -1 5.01323 1.70021   1
   9  -1  -1 1.76656 1.08312   1
   9  -1  -1 -0.3362 0.65872   5
   9  -1  -1 -0.3411 0.79746   3
  -9  -1   1 -1.5424 0.67688   2
   9   1  -1 0.34667 0.94657   1
   9   1  -1 -0.8795 0.73609   5
   9   1  -1 2.41343 1.50847   3
   8  -1  -1 3.72753 1.54646   3
   8  -1  -1 3.19234 1.20782   1
  -8  -1   1 5.19105 1.25283   2
   8  -1  -1 4.68038 1.53248   5
  -8   1   1 4.64391 1.06067   2
   8   1  -1 1.51612 1.06670   5
   8   1  -1 4.83563 1.47870   1
   8   1  -1 2.64678 1.21178   3
   7  -1  -1 166.432 7.00934   4
  -7  -1   1 172.019 7.32411   2
   7  -1  -1 170.232 8.27447   5
   7  -1  -1 169.635 7.96292   1
   7  -1  -1 163.567 8.26785   3
  -7   1   1 170.266 7.07929   2
   7   1  -1 174.017 8.39962   3
   7   1  -1 180.415 8.43537   5
   7   1  -1 164.328 7.76670   1
   6  -1  -1 8.30102 1.08421   4
   6  -1  -1 10.1377 1.71409   1
   6  -1  -1 5.06766 1.25162   3
   6  -1  -1 8.75733 1.73469   5
  -6  -1   1 9.48174 1.21663   2
   6   1  -1 7.66866 1.57002   5
   6   1  -1 9.67382 1.55770   1
   6   1  -1 8.57908 1.58076   3
  -6   1   1 7.53495 1.03955   2
   6   1  -1 9.94627 0.82840   4
   5  -1  -1 31.5008 2.29140   1
  -5  -1   1 31.9883 1.97579   2
   5  -1  -1 33.3196 1.90494   4
   5  -1  -1 31.0859 2.41617   3
   5  -1  -1 31.0310 2.46037   5
   5   1  -1 31.1062 2.45535   3
   5   1  -1 32.3701 2.25313   1
   5   1  -1 34.7159 1.66599   4
   5   1  -1 31.6321 2.38622   5
  -5   1   1 33.6134 1.84201   2
   4  -1  -1 132.402 6.08899   5
  -4  -1   1 135.612 5.58372   2
   4  -1  -1 161.129 6.37303   3
   4  -1  -1 135.417 6.01095   1
   4  -1  -1 135.681 5.53143   4
   4   1  -1 133.293 6.07154   5
   4   1  -1 143.433 5.94730   1
   4   1  -1 137.457 6.14049   3
  -4   1   1 135.464 5.36632   2
   4   1  -1 136.721 5.23826   4
   3  -1  -1 187.337 7.49789   5
  -3  -1   1 181.773 7.03725   2
   3  -1  -1 180.511 7.03242   4
   3  -1  -1 184.907 7.48897   3
   3  -1  -1 187.082 7.42545   1
   3   1  -1 191.619 6.80387   4
   3   1  -1 180.804 7.29552   1
   3   1  -1 176.573 7.41370   3
   3   1  -1 194.960 7.49745   5
  -3   1   1 186.067 6.80071   2
  -2  -1   1 -0.0101 0.15907   2
   2  -1  -1 -0.3607 0.15636   5
   2  -1  -1 -0.4210 0.25455   1
   2  -1  -1 0.28302 0.22484   4
   2  -1  -1 0.33269 0.22930   3
   2   1  -1 -0.4972 0.18334   3
   2   1  -1 0.00032 0.23404   1
   2   1  -1 -0.4417 0.17698   5
  -2   1   1 0.09853 0.09461   2
  -2   1   1 0.02692 0.19754   3
   2   1  -1 -0.1448 0.13314   4
   1  -1  -1 679.894 24.6275   5
  -1  -1   1 686.002 24.5305   2
   1  -1  -1 686.905 24.6768   1
   1  -1  -1 745.168 24.3049   2
   1  -1  -1 703.119 24.6123   4
   1  -1  -1 725.946 24.6808   3
   1   1  -1 711.781 24.5475   4
   1   1  -1 686.229 24.6156   5
   1   1  -1 675.804 24.6796   1
  -1   1   1 714.172 24.2725   2
   1   1  -1 684.352 24.5326   3
  -1   1   1 693.367 24.6329   3
   0  -1  -1 8.27239 0.52774   4
   0  -1   1 7.66509 0.50123   4
   0  -1   1 8.25564 0.52819   2
   0  -1  -1 7.93757 0.46132   1
   0  -1  -1 8.62500 0.52927   2
   0   1   1 7.88717 0.48793   2
   0   1   1 7.92727 0.43122   5
   0   1  -1 8.37473 0.48557   5
   0   1   1 7.40443 0.50157   3
   0   1  -1 7.70669 0.56349   4
   0   1  -1 7.58731 0.54622   1
   1  -1   1 175.883 6.35107   5
   1  -1   1 171.070 6.39558   4
  -1  -1  -1 172.002 6.53257   2
   1  -1   1 169.509 6.35205   1
  -1  -1  -1 176.501 6.28247   4
   1  -1   1 178.866 6.43712   2
   1  -1   1 172.621 6.36600   3
   1   1   1 168.487 6.46474   2
  -1   1  -1 168.049 6.41475   1
   1   1   1 174.082 6.44872   3
   1   1   1 178.565 6.30297   5
   2  -1   1 19.6846 1.23299   5
   2  -1   1 19.5967 1.28025   3
  -2  -1  -1 20.1473 1.32144   2
   2  -1   1 22.9671 1.24902   2
   2  -1   1 21.2090 1.15521   4
   2  -1   1 21.9514 1.21226   1
  -2  -1  -1 21.3521 1.00353   4
   2   1   1 20.8796 1.22635   5
   2   1   1 20.3872 1.31944   3
   2   1   1 19.5810 0.98224   1
   3  -1   1 172.986 6.85403   5
   3  -1   1 171.954 6.51039   4
   3  -1   1 172.584 6.67226   1
   3  -1   1 164.463 6.91397   3
  -3  -1  -1 160.182 6.80990   2
  -3  -1  -1 171.331 6.26703   4
   3  -1   1 169.653 6.66219   2
   3   1   1 170.500 6.98339   3
   3   1   1 170.212 6.44171   1
   3   1   1 177.478 6.17981   4
  -3   1  -1 164.703 6.76407   2
   3   1   1 168.663 6.79297   5
   4  -1   1 2.10050 0.60768   1
   4  -1   1 1.82995 0.47069   4
  -4  -1  -1 1.84690 0.40836   4
   4  -1   1 1.14177 0.64132   3
   4  -1   1 1.13744 0.51278   2
  -4  -1  -1 0.35173 0.46306   2
   4  -1   1 3.22256 0.79627   5
   4   1   1 2.01011 0.34245   4
   4   1   1 1.79997 0.63668   5
   4   1   1 1.06849 0.48998   1
  -4   1  -1 0.52375 0.53478   2
   4   1   1 1.71164 0.69398   3
   5  -1   1 21.1941 1.42800   4
  -5  -1  -1 24.3994 1.87000   2
   5  -1   1 21.9226 1.67103   1
  -5  -1  -1 24.0685 1.28824   4
   5  -1   1 20.4427 2.18503   5
   5  -1   1 18.9167 2.17306   3
   5   1   1 21.5163 1.59175   1
  -5   1  -1 20.5058 1.68910   2
   5   1   1 20.6096 1.82718   5
   5   1   1 20.7167 1.13579   4
   5   1   1 19.3988 2.23837   3
  -6  -1  -1 10.1483 1.50535   2
  -6  -1  -1 9.89467 0.97390   4
   6  -1   1 11.5079 1.88920   3
   6  -1   1 10.4009 1.51022   1
   6  -1   1 14.0907 1.99239   5
   6  -1   1 10.5370 1.19521   4
   6   1   1 13.3624 1.59429   1
   6   1   1 9.56855 1.67635   5
  -6   1  -1 10.9723 1.53745   2
   6   1   1 8.89238 1.73805   3
   6   1   1 9.68846 0.76787   4
   7  -1   1 24.2855 2.15735   1
  -7  -1  -1 24.1194 2.13083   2
   7  -1   1 26.4468 2.92387   5
   7  -1   1 24.6722 3.03826   3
   7  -1   1 26.7635 1.79698   4
  -7   1  -1 24.8862 2.14530   2
   7   1   1 27.0759 2.12212   1
   7   1   1 23.1577 2.95150   3
   7   1   1 24.4484 2.93556   5
   8  -1   1 28.2893 3.46841   5
  -8  -1  -1 30.0547 2.59911   2
   8  -1   1 28.6256 3.51825   3
   8  -1   1 27.2309 2.87114   1
  -8   1  -1 34.7440 2.62185   2
   8   1   1 30.8896 2.43520   1
   8   1   1 28.0033 3.41871   5
   8   1   1 18.0013 2.82667   3
   9  -1   1 17.0443 2.84875   5
   9  -1   1 16.6466 2.39142   1
  -9  -1  -1 15.8128 2.25714   2
   9  -1   1 12.7021 2.62114   3
   9   1   1 15.7381 2.74773   5
   9   1   1 18.0525 3.02667   3
  -9   1  -1 11.3742 1.93359   2
  10  -1   1 5.41470 1.92523   5
  10  -1   1 4.52657 1.80282   3
 -10  -1  -1 2.34993 1.29602   2
  10   1   1 3.91414 1.61948   5
  10   1   1 3.07887 1.68450   3
  11  -1   1 22.0035 3.64349   3
  11  -1   1 25.0066 3.88993   5
  11   1   1 19.6644 3.53366   3
  11   1   1 29.8883 4.07736   5
  12  -1   1 4.21667 1.85275   5
  12  -1   1 1.15772 1.50859   3
  12   1   1 4.97837 1.95713   5
  12   1   1 7.62804 2.57304   3
 -12   1  -1 2.90355 1.71943   3
  12  -2  -1 6.24668 2.12767   5
  12  -2  -1 3.44837 2.28496   3
 -12   2   1 2.32761 2.08989   3
  12   2  -1 8.73278 2.69024   5
  12   2  -1 6.48744 2.38564   3
  11  -2  -1 0.18504 1.03106   5
  11  -2  -1 0.36814 1.59324   3
  11  -2  -1 1.01091 1.20561   1
 -11   2   1 -0.9717 1.47725   3
  11   2  -1 1.85371 1.27434   5
  11   2  -1 -0.1641 1.47676   3
  10  -2  -1 0.02180 1.38887   3
  10  -2  -1 0.00984 0.89612   5
  10  -2  -1 -0.5136 1.02574   1
 -10   2   1 -1.5923 1.13599   3
  10   2  -1 -0.2441 0.86628   1
  10   2  -1 0.29949 1.42895   5
  10   2  -1 -0.8699 0.72604   3
   9  -2  -1 10.7071 2.21788   5
   9  -2  -1 6.08984 1.77501   1
  -9  -2   1 6.11064 1.43611   2
   9  -2  -1 8.24211 2.12803   3
  -9   2   1 6.61029 1.87564   3
   9   2  -1 8.38959 1.92856   1
   9   2  -1 8.82257 2.30936   3
   9   2  -1 9.46880 2.16752   5
   8  -2  -1 28.6020 3.48936   3
   8  -2  -1 29.1923 3.26628   1
  -8  -2   1 35.3720 2.59558   2
   8  -2  -1 29.8246 3.64589   5
   8   2  -1 29.3663 2.64119   1
   8   2  -1 32.4265 3.69571   3
  -8   2   1 28.3241 3.46744   3
   8   2  -1 26.3433 3.40454   5
  -7  -2   1 3.61853 0.98340   2
   7  -2  -1 3.93727 0.91304   4
   7  -2  -1 4.34230 1.36781   3
   7  -2  -1 4.54799 1.27317   1
   7  -2  -1 3.29166 1.21038   5
   7   2  -1 3.00117 1.15855   5
   7   2  -1 3.42366 1.21991   3
  -7   2   1 4.91439 0.91207   2
   7   2  -1 3.15814 1.11444   1
  -7   2   1 3.00905 1.18891   3
  -6  -2   1 99.8089 4.67778   2
   6  -2  -1 95.4371 5.07370   1
   6  -2  -1 93.8829 5.27372   3
   6  -2  -1 101.774 4.56083   4
   6  -2  -1 94.9355 5.29312   5
   6   2  -1 87.5963 5.15901   3
   6   2  -1 100.105 5.31585   5
   6   2  -1 100.249 4.92078   1
  -6   2   1 100.974 4.26335   2
  -6   2   1 90.9614 5.18262   3
  -5  -2   1 378.855 13.8075   2
   5  -2  -1 362.457 14.2676   1
   5  -2  -1 359.907 14.4622   3
   5  -2  -1 355.595 14.3930   5
   5  -2  -1 374.339 13.7091   4
  -5   2   1 371.017 13.3025   2
   5   2  -1 354.123 12.9485   4
   5   2  -1 348.943 14.3776   3
   5   2  -1 372.961 14.4311   5
   5   2  -1 364.134 14.0147   1
  -5   2   1 352.506 14.3784   3
   4  -2  -1 108.040 5.24472   1
   4  -2  -1 116.511 5.39430   5
  -4  -2   1 116.652 4.96425   2
   4  -2  -1 113.303 5.39894   3
   4  -2  -1 120.352 4.95934   4
  -4   2   1 123.456 4.54027   2
   4   2  -1 117.817 4.35577   4
   4   2  -1 109.839 5.28298   5
   4   2  -1 122.099 5.44834   3
   4   2  -1 116.659 5.12394   1
  -4   2   1 107.395 5.31558   3
   3  -2  -1 47.6086 2.61207   3
   3  -2  -1 47.4367 2.59669   5
   3  -2  -1 47.1033 2.59865   1
  -3  -2   1 46.2532 2.31645   2
   3  -2  -1 46.4251 2.33925   4
  -3   2   1 47.5424 2.59613   3
   3   2  -1 45.3660 2.52314   3
   3   2  -1 48.6231 2.57676   5
   3   2  -1 46.7934 2.44940   1
   3   2  -1 47.9123 1.94502   4
  -3   2   1 46.0966 1.90217   2
  -2  -2   1 1664.54 58.9029   2
   2  -2  -1 1733.70 59.1919   3
   2  -2  -1 1688.67 59.1678   1
   2  -2  -1 1667.42 58.9648   4
   2  -2  -1 1649.73 59.1330   5
   2   2  -1 1629.69 59.0091   3
   2   2  -1 1717.32 59.1146   5
  -2   2   1 1698.90 59.1442   3
   2   2  -1 1713.91 59.0560   1
   2   2  -1 1693.73 58.6578   4
  -1  -2   1 2707.86 94.4435   2
   1  -2  -1 2704.35 94.4997   4
   1  -2  -1 2680.11 94.4836   5
   1  -2  -1 2705.38 94.5487   1
   1   2  -1 2783.02 94.4225   4
   1   2  -1 2714.51 94.5310   5
  -1   2   1 2720.90 94.5235   5
   1   2  -1 2719.45 94.5884   1
  -1   2   1 2721.53 94.5078   3
   0  -2   1 64.3880 2.64004   2
   0  -2  -1 63.1967 2.54582   1
   0  -2  -1 63.1954 2.57990   2
   0  -2   1 64.8194 2.65735   4
   0  -2  -1 61.6511 2.62060   4
   0   2  -1 62.1047 2.72853   1
   0   2   1 64.9931 2.67769   3
   0   2   1 67.1690 2.60739   5
   0   2  -1 66.8738 2.67267   5
   0   2  -1 65.6593 2.43467   3
  -1  -2  -1 1.43028 0.26749   4
  -1  -2  -1 0.99338 0.28374   2
   1  -2   1 1.34573 0.29145   3
   1  -2   1 2.01989 0.37918   4
   1  -2   1 1.69073 0.34516   1
   1  -2   1 2.35272 0.39853   5
   1  -2   1 1.52808 0.32014   2
  -1   2  -1 2.06568 0.44267   1
  -1   2  -1 2.34728 0.41300   5
   1   2   1 2.15288 0.46979   3
   1   2   1 2.95762 0.47589   5
   1   2   1 1.60249 0.19788   1
  -1   2  -1 2.56891 0.36392   3
   2  -2   1 0.02586 0.21480   1
   2  -2   1 -0.0328 0.14476   3
  -2  -2  -1 0.36514 0.13975   4
   2  -2   1 0.15655 0.20514   2
   2  -2   1 0.05917 0.18227   4
  -2  -2  -1 0.27248 0.23373   2
   2  -2   1 -0.0588 0.20936   5
   2   2   1 -0.5168 0.27673   3
   2   2   1 -0.0314 0.28195   5
   2   2   1 0.01592 0.13232   1
   3  -2   1 62.3525 3.04998   1
   3  -2   1 60.6522 2.92355   4
  -3  -2  -1 64.8434 2.42451   4
   3  -2   1 66.8544 3.18617   5
   3  -2   1 68.4880 3.26156   3
  -3  -2  -1 62.8439 3.15217   2
   3  -2   1 63.9613 2.93079   2
   3   2   1 64.2040 2.69370   1
   3   2   1 63.9281 3.25705   3
   3   2   1 62.8658 3.07913   5
   4  -2   1 287.344 11.3475   5
  -4  -2  -1 279.392 11.2305   2
   4  -2   1 283.130 11.1224   1
   4  -2   1 291.923 10.9458   2
  -4  -2  -1 287.867 10.1783   4
   4  -2   1 280.947 11.4043   3
   4  -2   1 296.338 10.9218   4
   4   2   1 284.045 11.4875   3
   4   2   1 282.919 11.2405   5
   4   2   1 295.772 10.7387   1
  -4   2  -1 294.269 11.1231   2
  -5  -2  -1 15.3256 1.76774   2
   5  -2   1 14.3773 1.50082   2
   5  -2   1 12.8296 1.76640   3
   5  -2   1 13.9178 1.65220   1
  -5  -2  -1 13.0552 0.70194   4
   5  -2   1 11.4750 1.29254   4
   5  -2   1 14.7739 1.85714   5
   5   2   1 13.6125 1.17983   1
   5   2   1 13.1969 1.86622   3
   5   2   1 11.4456 1.61912   5
  -5   2  -1 15.6763 1.66115   2
   6  -2   1 2.99649 1.10721   3
  -6  -2  -1 4.49678 1.11336   2
   6  -2   1 3.59059 0.80205   4
   6  -2   1 3.11538 1.10681   5
   6  -2   1 2.88997 0.89437   1
   6   2   1 2.72782 0.74677   1
  -6   2  -1 2.35909 0.74338   2
   6   2   1 2.11817 0.93125   5
   6   2   1 3.82108 1.14088   3
   7  -2   1 76.5937 4.56881   5
   7  -2   1 68.1458 4.03322   1
   7  -2   1 70.2091 3.54164   4
  -7  -2  -1 67.0219 4.05971   2
   7  -2   1 73.0831 4.59621   3
  -7   2  -1 66.7460 3.82629   2
   7   2   1 67.4246 3.69958   1
   7   2   1 65.0333 4.51496   3
   7   2   1 62.5930 4.28916   5
  -8  -2  -1 6.39994 1.49176   2
   8  -2   1 6.26025 1.66323   5
   8  -2   1 6.76513 1.93330   3
   8  -2   1 7.54548 1.51676   1
   8   2   1 10.6520 2.15193   3
   8   2   1 6.32565 1.83433   5
   8   2   1 5.05728 1.25041   1
  -8   2  -1 8.19366 1.53606   2
  -9  -2  -1 24.3454 2.91193   2
   9  -2   1 19.7645 2.97479   5
   9  -2   1 20.8802 3.25098   3
   9  -2   1 20.5215 2.66442   1
   9   2   1 17.6955 2.76294   5
   9   2   1 18.8763 3.08297   3
 -10  -2  -1 6.35832 1.70578   2
  10  -2   1 6.90793 1.77996   1
  10  -2   1 6.07030 2.19833   3
  10  -2   1 6.47601 1.95331   5
  10   2   1 4.66224 2.04602   3
  10   2   1 8.50979 2.23410   5
  11  -2   1 33.4004 4.44088   5
  11  -2   1 37.9428 5.04192   3
  11   2   1 26.2458 4.17501   3
 -11   2  -1 36.9413 4.81848   3
  11   2   1 37.5495 4.72641   5
  12  -2   1 0.09953 1.50757   3
  12  -2   1 -0.1804 1.54728   5
  12   2   1 0.65428 1.28657   3
  12   2   1 1.15869 1.29588   5
 -12   2  -1 -2.0017 1.70880   3
  12  -3  -1 6.00759 2.34192   3
  12  -3  -1 12.8156 3.17357   5
  12  -3  -1 10.1330 2.40398   1
  12   3  -1 7.61400 2.77830   3
  12   3  -1 10.5153 2.81763   5
 -12   3   1 9.58523 2.81615   3
  11  -3  -1 12.3874 2.85149   5
  11  -3  -1 12.3268 2.99655   3
  11  -3  -1 9.95550 2.48892   1
 -11   3   1 9.96750 2.63310   3
  11   3  -1 14.3855 3.13683   5
  11   3  -1 6.76887 2.14518   3
 -10  -3   1 0.14711 0.97694   2
  10  -3  -1 -1.1111 0.75998   5
  10  -3  -1 0.76468 1.56711   3
  10  -3  -1 0.68753 1.17671   1
  10   3  -1 -0.2168 1.23524   3
  10   3  -1 -0.7113 1.06668   5
 -10   3   1 -0.4612 1.13950   3
   9  -3  -1 -0.9086 0.68315   3
   9  -3  -1 1.14858 0.98690   1
  -9  -3   1 -0.1032 0.72929   2
   9  -3  -1 0.15658 1.11490   5
   9   3  -1 -0.8777 0.61168   3
  -9   3   1 0.48805 0.84622   3
   9   3  -1 -0.5822 0.68044   1
   9   3  -1 -1.3693 0.59472   5
   8  -3  -1 0.06460 0.69976   5
  -8  -3   1 -0.8275 0.58691   2
   8  -3  -1 -0.4621 0.61462   1
   8  -3  -1 -0.9219 0.50012   4
   8  -3  -1 -0.7207 1.02168   3
  -8   3   1 0.02713 0.98172   3
   8   3  -1 0.32653 1.13901   3
   8   3  -1 0.17172 0.65930   5
   8   3  -1 1.48881 0.83997   1
  -7  -3   1 32.4169 2.44885   2
   7  -3  -1 25.7680 2.97932   1
   7  -3  -1 29.1112 3.32523   3
   7  -3  -1 25.3018 3.10519   5
   7  -3  -1 32.7967 2.33176   4
   7   3  -1 26.0482 2.76381   1
  -7   3   1 33.5262 3.48615   3
   7   3  -1 24.2384 3.09802   5
  -7   3   1 29.5530 2.11136   2
   7   3  -1 31.5208 3.47136   3
   6  -3  -1 58.7344 3.79464   3
   6  -3  -1 49.7644 3.59369   5
   6  -3  -1 51.7164 3.47049   1
   6  -3  -1 51.7100 3.04022   4
  -6  -3   1 59.2682 3.27140   2
   6   3  -1 55.2314 3.30209   1
  -6   3   1 59.5582 2.68472   2
   6   3  -1 59.0537 3.73302   5
   6   3  -1 48.5490 3.50980   3
  -6   3   1 47.6196 3.48662   3
   5  -3  -1 102.082 4.89835   4
   5  -3  -1 104.386 5.46846   3
   5  -3  -1 108.843 5.46571   5
  -5  -3   1 109.826 5.00452   2
   5  -3  -1 112.570 5.45168   1
  -5   3   1 112.516 5.53355   3
   5   3  -1 111.473 5.51205   3
   5   3  -1 106.641 5.40966   5
   5   3  -1 111.912 5.11197   1
   5   3  -1 108.171 3.96667   4
  -5   3   1 108.193 4.36872   2
   4  -3  -1 -0.1947 0.28383   5
   4  -3  -1 -0.6745 0.41438   1
  -4  -3   1 -0.2771 0.30681   2
   4  -3  -1 0.19871 0.29412   4
   4  -3  -1 -0.2025 0.31883   3
   4   3  -1 -0.4957 0.22397   3
   4   3  -1 0.05643 0.14057   4
  -4   3   1 0.10174 0.18159   2
   4   3  -1 -0.0514 0.32907   5
  -4   3   1 0.37366 0.40593   3
   4   3  -1 0.10023 0.40778   1
   3  -3  -1 220.592 8.69564   3
   3  -3  -1 215.373 8.65536   5
   3  -3  -1 216.837 8.40474   4
   3  -3  -1 204.361 8.58860   1
  -3  -3   1 207.587 8.32040   2
  -3   3   1 215.421 8.63171   3
   3   3  -1 214.808 8.58422   5
   3   3  -1 213.009 8.40563   1
   3   3  -1 217.846 8.56251   3
  -3   3   1 213.546 7.68578   2
   3   3  -1 221.187 7.80932   4
  -2  -3   1 156.618 5.78024   4
   2  -3  -1 156.474 5.56896   2
   2  -3  -1 155.700 6.24493   4
   2  -3  -1 164.283 6.37033   5
  -2  -3   1 148.065 6.14032   2
   2  -3  -1 152.281 6.34778   1
   2   3  -1 159.109 5.91870   4
   2   3  -1 160.987 6.35009   5
   2   3  -1 161.878 6.31161   1
  -2   3   1 154.497 6.30695   3
   2   3  -1 155.276 6.18719   3
   1  -3  -1 563.048 20.0531   2
  -1  -3   1 575.149 20.4489   2
  -1  -3   1 583.622 20.2955   4
   1  -3  -1 558.673 20.4981   4
   1  -3  -1 564.800 20.5162   1
   1  -3  -1 557.941 20.4569   5
  -1   3   1 579.590 20.4929   3
   1   3  -1 586.505 20.5925   5
  -1   3   1 570.326 20.5254   5
   1   3  -1 577.943 20.5855   1
   1   3  -1 580.207 20.3029   3
   0  -3  -1 1338.26 47.2027   2
   0  -3   1 1332.88 47.2962   2
   0  -3  -1 1322.05 47.1986   1
   0  -3  -1 1342.83 47.3080   4
   0  -3   1 1339.10 47.3388   4
   0   3   1 1376.33 47.3794   3
   0   3  -1 1359.08 47.4822   1
   0   3  -1 1347.98 47.0996   3
   0   3   1 1384.22 47.3326   5
   0   3  -1 1373.13 47.4010   5
   1  -3   1 23.2212 1.45057   4
  -1  -3  -1 24.5743 1.13440   1
  -1  -3  -1 25.7086 1.28168   4
   1  -3   1 27.3530 1.49106   1
  -1  -3  -1 21.9263 1.38872   2
   1  -3   1 25.4937 1.36254   2
  -1   3  -1 25.2692 1.58070   1
   1   3   1 25.0613 1.54535   3
   1   3   1 28.7909 1.54288   5
  -1   3  -1 25.9603 1.31907   3
   1   3   1 26.4471 1.20449   1
  -1   3  -1 26.9290 1.47805   5
  -2  -3  -1 184.928 6.98071   2
   2  -3   1 163.452 6.80293   4
   2  -3   1 174.064 6.83075   3
   2  -3   1 177.562 6.87519   5
   2  -3   1 171.797 6.64506   2
   2  -3   1 171.581 6.87199   1
  -2  -3  -1 176.528 6.34120   4
  -2   3  -1 172.809 6.90550   5
   2   3   1 178.219 6.82256   5
   2   3   1 170.909 6.35257   1
  -2   3  -1 171.282 6.79868   3
   2   3   1 173.693 6.94376   3
  -3  -3  -1 233.154 9.44103   2
   3  -3   1 242.375 9.11573   2
   3  -3   1 235.657 9.39360   1
   3  -3   1 249.701 9.49272   5
   3  -3   1 246.608 9.32378   4
   3  -3   1 239.347 9.46922   3
   3   3   1 237.581 9.34474   5
  -3   3  -1 236.765 9.43499   3
   3   3   1 243.899 8.82397   1
   3   3   1 241.001 9.55818   3
   4  -3   1 30.1960 2.10335   5
   4  -3   1 31.6193 2.20169   3
   4  -3   1 28.3630 2.01139   1
   4  -3   1 29.1902 1.77427   2
   4  -3   1 27.5935 1.86459   4
  -4  -3  -1 30.2345 2.08662   2
  -4   3  -1 28.8043 2.11082   3
   4   3   1 28.6992 2.19249   3
   4   3   1 28.8280 1.61112   1
   4   3   1 26.1646 1.93747   5
  -5  -3  -1 192.838 8.02645   2
   5  -3   1 181.789 8.08966   5
   5  -3   1 182.480 8.19302   3
   5  -3   1 189.018 7.63443   4
   5  -3   1 178.934 7.87453   1
   5  -3   1 185.101 7.51554   2
  -5   3  -1 185.989 7.69645   2
   5   3   1 186.435 8.04825   5
   5   3   1 181.287 7.32149   1
   5   3   1 184.068 8.26476   3
   6  -3   1 111.892 5.96378   3
   6  -3   1 115.661 5.24800   4
  -6  -3  -1 126.076 5.79266   2
   6  -3   1 120.712 5.67165   1
   6  -3   1 106.430 5.13358   2
   6  -3   1 118.535 5.91771   5
  -6   3  -1 114.511 5.35405   2
   6   3   1 107.294 5.02867   1
   6   3   1 103.953 5.69184   5
   6   3   1 117.674 6.08829   3
  -7  -3  -1 1.00018 0.81774   2
   7  -3   1 1.53848 0.79397   1
   7  -3   1 -0.8246 0.75774   3
   7  -3   1 1.29279 1.10090   5
   7  -3   1 0.77761 0.64128   4
   7   3   1 -1.0102 0.73394   3
  -7   3  -1 1.51411 0.75272   2
   7   3   1 0.03745 0.62315   1
   7   3   1 -0.1390 0.57278   5
   8  -3   1 68.8765 4.72224   3
   8  -3   1 57.6415 4.33936   5
   8  -3   1 67.3655 3.65936   4
  -8  -3  -1 70.6913 4.29563   2
   8  -3   1 60.1660 4.07116   1
   8   3   1 56.0629 4.54478   3
  -8   3  -1 70.8162 3.91393   2
   8   3   1 64.5641 4.46863   5
  -8   3  -1 53.1478 4.27312   3
   9  -3   1 45.3542 3.59530   1
  -9  -3  -1 43.2016 3.40618   2
   9  -3   1 44.3756 4.73559   3
   9  -3   1 41.2262 3.71874   5
   9   3   1 48.1815 3.94148   5
   9   3   1 47.0191 4.95996   3
  -9   3  -1 47.6353 4.90435   3
  10  -3   1 26.3373 3.77931   5
  10  -3   1 31.3280 4.14341   3
  10  -3   1 31.3454 3.54570   1
 -10  -3  -1 26.7508 3.30758   2
  10   3   1 26.8308 3.94119   3
 -10   3  -1 23.9275 3.75223   3
  10   3   1 24.0069 3.57216   5
  11  -3   1 18.0042 3.48002   3
 -11  -3  -1 15.0856 2.52956   2
  11  -3   1 19.1777 3.42489   5
  11   3   1 13.8997 2.91777   5
 -11   3  -1 14.6318 3.07485   3
  11   3   1 19.4416 3.60130   3
  12  -3   1 5.43588 2.47435   3
  12  -3   1 4.00267 2.07052   5
  12   3   1 9.25286 2.55512   5
  12   3   1 10.4497 2.97883   3
 -12   3  -1 7.40645 2.65333   3
  12  -4  -1 8.25181 2.71390   3
  12  -4  -1 5.94522 2.28907   1
  12  -4  -1 4.82738 2.24149   5
  12   4  -1 4.90914 2.29990   3
  12   4  -1 9.79716 2.75347   5
 -12   4   1 4.52501 2.52154   3
  11  -4  -1 3.28097 1.82333   3
  11  -4  -1 1.98011 1.67758   5
  11  -4  -1 3.98615 1.80481   1
 -11   4   1 0.28627 1.31054   3
  11   4  -1 0.16360 1.18432   3
  11   4  -1 2.59940 1.46465   5
  10  -4  -1 35.8669 4.51426   3
  10  -4  -1 31.9161 3.98012   1
  10  -4  -1 30.9337 4.16765   5
 -10  -4   1 32.4017 3.50736   2
  10   4  -1 27.4864 3.90345   5
 -10   4   1 22.8359 3.69008   3
  10   4  -1 35.8058 4.39343   3
   9  -4  -1 1.50855 1.28619   1
   9  -4  -1 2.32905 1.55148   5
   9  -4  -1 2.89362 1.47561   3
  -9  -4   1 2.16689 1.13142   2
   9   4  -1 3.34027 1.22221   1
  -9   4   1 1.33002 1.19035   3
   9   4  -1 5.54145 1.74082   5
   9   4  -1 1.49396 1.39469   3
   8  -4  -1 1.44961 1.21687   5
   8  -4  -1 3.51216 1.18706   4
  -8  -4   1 4.22727 1.21961   2
   8  -4  -1 1.91762 1.28102   1
   8  -4  -1 1.66318 1.10736   3
   8   4  -1 6.83928 1.54641   1
   8   4  -1 2.26003 1.44016   3
  -8   4   1 1.86541 1.17057   3
   8   4  -1 0.67279 0.90750   5
   7  -4  -1 204.515 8.91626   4
  -7  -4   1 213.464 9.08519   2
   7  -4  -1 207.380 9.79267   5
   7  -4  -1 204.613 9.79362   3
   7  -4  -1 200.906 9.50377   1
   7   4  -1 198.998 8.99664   1
   7   4  -1 211.308 9.87987   3
   7   4  -1 206.316 9.73892   5
  -7   4   1 224.857 9.95796   3
   6  -4  -1 17.8079 2.00202   4
   6  -4  -1 17.1093 2.32664   1
   6  -4  -1 14.7036 2.17536   3
  -6  -4   1 14.6040 1.81708   2
   6  -4  -1 13.7110 2.18740   5
  -6   4   1 14.8170 1.11760   2
   6   4  -1 14.9237 1.91908   1
  -6   4   1 16.1622 2.27008   3
   6   4  -1 15.2795 2.19265   5
   6   4  -1 15.1172 2.19504   3
  -5  -4   1 125.481 5.67939   2
   5  -4  -1 127.421 5.70589   4
   5  -4  -1 132.636 6.22098   3
   5  -4  -1 114.266 5.93013   1
   5  -4  -1 116.246 6.00537   5
   5   4  -1 120.444 6.00033   3
   5   4  -1 121.169 5.60844   1
   5   4  -1 124.679 6.04314   5
  -5   4   1 123.330 6.06482   3
  -5   4   1 128.760 4.87102   2
   4  -4  -1 72.3301 3.98227   3
   4  -4  -1 69.2622 3.92093   1
   4  -4  -1 80.6995 3.83072   4
   4  -4  -1 77.8536 4.03479   5
  -4  -4   1 68.4793 3.63454   2
  -4   4   1 67.2066 3.86322   3
   4   4  -1 78.1320 2.89748   4
   4   4  -1 73.9213 3.91473   5
   4   4  -1 76.1418 3.93703   3
  -4   4   1 74.0304 2.98543   2
   4   4  -1 75.3722 3.70505   1
   3  -4  -1 2.97600 0.73159   4
   3  -4  -1 3.83267 0.85137   1
   3  -4  -1 4.64477 0.43052   2
   3  -4  -1 5.11433 0.91868   5
  -3  -4   1 4.13877 0.80988   2
   3   4  -1 3.18769 0.80170   5
  -3   4   1 3.44120 0.77256   3
   3   4  -1 4.81800 0.57375   4
   3   4  -1 2.23738 0.65729   3
   3   4  -1 6.64075 1.03388   1
   2  -4  -1 74.6847 3.49150   5
   2  -4  -1 66.7062 3.36386   4
  -2  -4   1 73.4586 2.99610   4
  -2  -4   1 76.5513 3.39439   2
   2  -4  -1 72.1812 2.78477   2
   2  -4  -1 72.3184 3.49061   1
  -2   4   1 72.8755 3.43700   3
   2   4  -1 76.1615 3.50261   1
   2   4  -1 73.9729 3.52212   5
   2   4  -1 70.3016 3.11224   4
   2   4  -1 72.4994 3.32065   3
  -2   4   1 68.8823 3.48336   5
  -1  -4   1 3311.83 117.059   2
   1  -4  -1 3305.58 117.146   4
   1  -4  -1 3302.81 117.087   5
  -1  -4   1 3347.54 116.914   4
   1  -4  -1 3320.65 117.131   1
   1  -4  -1 3716.27 117.509   2
  -1   4   1 3383.85 117.106   3
  -1   4   1 3298.99 117.157   5
   1   4  -1 3335.46 116.899   3
   1   4  -1 3292.16 117.228   5
   1   4  -1 3380.68 117.216   1
   0  -4  -1 1832.66 63.0492   2
   0  -4   1 1792.40 63.1944   1
   0  -4   1 1820.51 63.2378   4
   0  -4   1 1793.22 63.1541   2
   0  -4  -1 1799.32 63.1892   4
   0  -4  -1 1776.25 63.0628   1
   0   4  -1 1832.27 63.3282   5
   0   4   1 1790.22 63.2454   3
   0   4  -1 1819.26 62.9862   3
   0   4   1 1789.81 63.2362   5
   0   4  -1 1819.00 63.3933   1
   1  -4   1 39.8011 1.98018   2
  -1  -4  -1 39.0476 1.91417   4
  -1  -4  -1 39.0630 2.06444   2
   1  -4   1 40.2112 2.12863   1
   1  -4   1 41.8266 2.17443   4
  -1  -4  -1 41.1559 1.80553   1
  -1   4  -1 35.3893 2.19572   1
   1   4   1 39.6426 1.87251   1
   1   4   1 45.3274 2.28234   3
   1   4   1 39.9529 2.16531   5
  -1   4  -1 38.5066 2.12765   5
  -1   4  -1 41.0749 1.94407   3
  -2  -4  -1 616.007 22.6967   4
   2  -4   1 641.078 23.2579   5
   2  -4   1 653.602 23.3151   4
   2  -4   1 640.501 22.9666   2
   2  -4   1 643.935 23.3062   1
  -2  -4  -1 651.205 23.3195   2
  -2   4  -1 634.172 23.3297   5
  -2   4  -1 647.191 23.1517   3
   2   4   1 667.082 23.3779   3
   2   4   1 647.081 22.7726   1
   2   4   1 636.870 23.2423   5
   3  -4   1 201.393 8.02468   3
   3  -4   1 193.248 7.91169   4
  -3  -4  -1 187.375 7.97113   2
  -3  -4  -1 197.625 7.09932   4
   3  -4   1 194.313 7.59821   2
   3  -4   1 198.489 8.02137   1
   3  -4   1 199.214 8.03023   5
  -3   4  -1 201.964 8.12015   5
  -3   4  -1 192.426 7.94498   3
   3   4   1 196.494 8.09781   3
   3   4   1 193.795 7.34366   1
   3   4   1 200.039 7.95284   5
   4  -4   1 295.723 11.6546   5
   4  -4   1 292.028 11.6846   3
   4  -4   1 287.423 11.5647   1
   4  -4   1 304.006 11.4645   4
  -4  -4  -1 294.630 11.6116   2
   4  -4   1 291.398 11.0731   2
   4   4   1 292.285 10.8375   1
   4   4   1 291.687 11.5404   5
   4   4   1 291.391 11.7681   3
  -4   4  -1 282.341 11.6066   3
  -5  -4  -1 53.3439 3.32635   2
   5  -4   1 56.3901 3.17883   4
   5  -4   1 54.0051 3.38525   5
   5  -4   1 52.6591 3.40796   3
   5  -4   1 57.4827 2.94743   2
   5  -4   1 58.4661 3.40098   1
   5   4   1 59.7805 3.46410   5
  -5   4  -1 58.2243 3.12645   2
  -5   4  -1 54.9150 3.42891   3
   5   4   1 54.0065 2.75227   1
   5   4   1 52.5527 3.47257   3
   6  -4   1 21.9677 2.62842   5
   6  -4   1 19.9996 1.66712   2
   6  -4   1 20.7987 2.61999   3
   6  -4   1 15.3989 1.89873   4
   6  -4   1 21.8840 2.39346   1
  -6  -4  -1 17.2930 2.13901   2
   6   4   1 21.4592 2.46224   5
   6   4   1 18.6023 1.54327   1
  -6   4  -1 21.7013 1.85147   2
   6   4   1 20.6721 2.54202   3
  -6   4  -1 19.3071 2.42091   3
   7  -4   1 118.684 6.37379   5
   7  -4   1 123.566 5.76703   4
   7  -4   1 126.784 6.27280   1
  -7  -4  -1 120.095 6.13366   2
   7  -4   1 125.578 6.61506   3
  -7   4  -1 114.856 6.41715   3
  -7   4  -1 114.387 5.65823   2
   7   4   1 117.446 6.37790   5
   7   4   1 113.693 6.58729   3
   7   4   1 117.231 5.83848   1
   8  -4   1 0.02686 0.63647   1
  -8  -4  -1 0.32712 0.61023   2
   8  -4   1 0.45321 0.71118   4
   8  -4   1 -2.4397 0.66012   3
   8  -4   1 -0.1746 0.65212   5
   8   4   1 -0.2050 0.56754   5
   8   4   1 1.66321 1.13854   3
  -8   4  -1 0.46566 1.14593   3
   9  -4   1 0.28861 0.79183   5
   9  -4   1 0.20674 1.17512   3
  -9  -4  -1 1.37522 1.07306   2
   9  -4   1 -0.0202 0.99929   1
   9   4   1 -1.5235 0.97553   5
  -9   4  -1 0.60487 1.22979   3
   9   4   1 -0.6952 0.80568   3
  10  -4   1 4.25364 2.06987   3
  10  -4   1 7.01609 1.98421   1
  10  -4   1 7.22571 2.16792   5
 -10  -4  -1 5.61598 1.64172   2
 -10   4  -1 4.63851 1.90829   3
  10   4   1 10.3465 2.48077   3
  10   4   1 5.55310 1.97329   5
  11  -4   1 12.3149 2.59404   1
 -11  -4  -1 13.0921 2.54759   2
  11  -4   1 11.9520 2.78085   3
  11  -4   1 12.9659 2.78908   5
  11   4   1 15.4646 3.24127   3
 -11   4  -1 12.6252 2.78653   3
  11   4   1 9.39641 2.47351   5
  12  -4   1 22.8189 3.83755   5
  12  -4   1 24.6898 4.12251   3
 -12   4  -1 23.0516 3.96066   3
  12   4   1 24.0782 4.42611   3
  12   4   1 29.1328 4.35233   5
  12  -5  -1 0.87295 1.69327   1
  12  -5  -1 -0.2376 1.27410   3
  12  -5  -1 0.43680 1.29477   5
  12   5  -1 3.36428 1.89904   5
 -12   5   1 1.49432 1.62244   3
  12   5  -1 0.58455 1.94664   3
  11  -5  -1 20.6882 3.79627   3
  11  -5  -1 12.5603 2.66815   1
 -11  -5   1 14.3699 2.57050   2
  11  -5  -1 17.7020 3.56523   5
 -11   5   1 21.1239 3.75604   3
  11   5  -1 15.7112 3.25320   3
  11   5  -1 14.6927 3.23590   5
  10  -5  -1 15.7309 3.02045   5
  10  -5  -1 19.8326 3.36306   3
  10  -5  -1 15.6029 2.92418   1
 -10  -5   1 20.2510 2.82508   2
 -10   5   1 19.4058 3.27615   3
  10   5  -1 23.3118 3.72860   3
  10   5  -1 20.1417 3.45614   5
   9  -5  -1 9.99818 2.22995   1
   9  -5  -1 9.58704 2.05694   4
  -9  -5   1 12.2299 2.13532   2
   9  -5  -1 9.44778 2.44814   5
   9  -5  -1 8.54048 2.16890   3
  -9   5   1 8.47901 2.08940   3
   9   5  -1 9.01726 2.25931   5
   9   5  -1 7.16435 1.88187   3
   8  -5  -1 -0.7472 0.96665   1
   8  -5  -1 0.40107 1.07542   5
   8  -5  -1 0.01794 0.72327   3
  -8  -5   1 -1.1170 0.58998   2
   8  -5  -1 -0.7211 0.68052   4
   8   5  -1 -0.2654 0.73135   1
  -8   5   1 1.00970 0.92563   3
   8   5  -1 -0.4694 0.68790   3
   8   5  -1 0.52075 0.78685   5
   7  -5  -1 81.3238 4.38870   4
   7  -5  -1 72.6534 4.67155   1
   7  -5  -1 72.5195 4.90170   3
  -7  -5   1 62.8718 4.16204   2
   7  -5  -1 73.0630 4.79362   5
   7   5  -1 76.1827 4.91600   3
   7   5  -1 70.7461 4.78129   5
  -7   5   1 89.8283 5.23368   3
   7   5  -1 78.5872 4.36181   1
  -6  -5   1 77.3683 4.27220   2
   6  -5  -1 74.0957 4.58688   1
   6  -5  -1 79.1091 4.71749   3
   6  -5  -1 78.5303 4.71771   5
   6  -5  -1 71.7416 4.13660   4
  -6   5   1 75.5430 4.61136   3
   6   5  -1 75.7649 4.63992   3
   6   5  -1 76.5812 4.63652   5
   6   5  -1 75.1660 4.10789   1
   5  -5  -1 7.59214 1.51177   5
   5  -5  -1 6.72638 1.43950   1
  -5  -5   1 4.59983 1.02966   2
   5  -5  -1 3.55818 0.91641   4
   5  -5  -1 8.26505 1.60190   3
  -5   5   1 6.04807 0.69274   2
  -5   5   1 7.38392 1.45731   3
   5   5  -1 3.27511 1.03200   5
   5   5  -1 4.32983 1.05444   1
   5   5  -1 5.05886 1.28292   3
   4  -5  -1 27.6328 2.15626   1
   4  -5  -1 27.9439 2.07341   4
   4  -5  -1 26.7964 1.29074   2
  -4  -5   1 26.1261 1.93082   2
   4  -5  -1 28.3183 2.21673   5
   4   5  -1 27.5345 1.34840   4
  -4   5   1 26.4715 2.10696   3
   4   5  -1 26.1756 1.96194   1
   4   5  -1 21.3121 1.96079   5
   4   5  -1 26.3714 2.04275   3
   3  -5  -1 40.7601 2.69933   1
  -3  -5   1 47.4520 2.04945   4
   3  -5  -1 46.5899 1.93434   2
   3  -5  -1 42.0352 2.69222   5
   3  -5  -1 40.7468 2.57754   4
  -3  -5   1 44.9266 2.57468   2
  -3   5   1 43.9672 2.79314   5
   3   5  -1 45.6167 2.64451   3
   3   5  -1 44.1641 2.58498   1
  -3   5   1 47.8426 2.77954   3
   3   5  -1 48.6918 2.21701   4
   3   5  -1 45.4925 2.81075   5
   2  -5  -1 281.737 10.9396   5
   2  -5  -1 275.874 10.9867   1
  -2  -5   1 270.392 10.4104   4
   2  -5  -1 286.019 10.2004   2
   2  -5  -1 279.418 10.9506   4
  -2  -5   1 322.304 10.9829   2
   2   5  -1 280.841 10.9365   1
  -2   5   1 281.478 11.0343   5
  -2   5   1 277.454 10.8923   3
   2   5  -1 264.918 10.9991   5
   2   5  -1 287.341 10.7774   3
  -1  -5   1 32.9521 1.92203   2
   1  -5  -1 32.2836 1.62279   2
   1  -5  -1 33.5640 1.95361   1
   1  -5  -1 33.3461 1.98412   4
  -1  -5   1 32.6879 1.81684   4
   1   5  -1 33.1424 2.04991   1
  -1   5   1 31.5151 1.98674   5
  -1   5   1 30.9218 1.88447   3
   1   5  -1 31.0155 2.08957   5
   1   5  -1 33.2174 1.81064   3
   0  -5   1 35.4447 2.04629   4
   0  -5  -1 37.6311 2.07367   4
   0  -5  -1 34.7258 1.92552   1
   0  -5  -1 35.7948 1.91129   2
   0  -5   1 38.4973 2.04283   2
   0  -5   1 40.9188 2.12624   1
   0   5   1 37.1118 2.13540   3
   0   5  -1 38.9035 2.22389   5
   0   5  -1 39.5301 2.24215   1
   0   5   1 33.8926 2.08016   5
   0   5  -1 39.2630 1.94949   3
   1  -5   1 24.0786 1.46648   2
  -1  -5  -1 23.1519 1.53775   2
  -1  -5  -1 24.5653 1.44378   4
  -1  -5  -1 23.9994 1.33787   1
   1  -5   1 22.2955 1.54711   1
   1  -5   1 21.3142 1.59079   4
   1   5   1 22.1991 1.38553   1
  -1   5  -1 22.8768 1.62347   5
   1   5   1 24.7247 1.71446   5
  -1   5  -1 26.8516 1.79214   1
   1   5   1 24.0135 1.64508   3
  -1   5  -1 23.4821 1.42439   3
   2  -5   1 3.38422 0.58450   2
  -2  -5  -1 2.09183 0.57767   2
  -2  -5  -1 2.06668 0.42351   4
   2  -5   1 2.13353 0.57542   5
   2  -5   1 1.80957 0.56425   1
   2  -5   1 0.96911 0.46996   4
  -2   5  -1 1.00567 0.51971   1
  -2   5  -1 1.52153 0.44630   3
   2   5   1 2.48171 0.55197   1
   2   5   1 1.59144 0.56532   3
  -2   5  -1 1.89732 0.59523   5
   2   5   1 1.74262 0.75534   5
   3  -5   1 7.74455 1.20706   4
  -3  -5  -1 5.56270 0.99744   2
  -3  -5  -1 6.13648 0.63224   4
   3  -5   1 7.57350 1.22169   1
   3  -5   1 5.92037 0.83083   2
   3  -5   1 4.29494 0.95257   5
   3   5   1 5.91737 1.08073   3
   3   5   1 6.96781 1.20537   5
  -3   5  -1 5.03063 1.05298   5
  -3   5  -1 7.04935 1.07049   3
   3   5   1 6.80864 0.86165   1
   4  -5   1 55.4497 3.15121   3
  -4  -5  -1 43.9867 2.90049   2
  -4  -5  -1 48.0570 1.84350   4
   4  -5   1 51.8364 3.07813   1
   4  -5   1 53.1625 2.97083   4
   4  -5   1 45.0183 2.48983   2
   4  -5   1 46.7562 2.95459   5
  -4   5  -1 49.1049 3.00676   3
   4   5   1 46.4093 2.36066   1
   4   5   1 45.1737 2.91300   5
  -4   5  -1 49.7878 3.08514   5
   4   5   1 46.8918 3.03276   3
   5  -5   1 58.5214 3.48318   1
  -5  -5  -1 57.0588 3.48514   2
   5  -5   1 54.6105 2.89904   2
   5  -5   1 52.0026 3.39684   5
   5  -5   1 58.7407 3.62053   3
   5  -5   1 62.2752 3.42408   4
   5   5   1 58.8344 3.66067   3
  -5   5  -1 48.4726 3.38253   3
   5   5   1 56.8404 2.78562   1
  -5   5  -1 52.4030 3.48195   5
   5   5   1 50.5335 3.30801   5
   6  -5   1 0.35841 0.80859   5
   6  -5   1 1.54612 0.96909   3
   6  -5   1 0.75640 0.58189   2
   6  -5   1 -0.0771 0.45528   4
   6  -5   1 1.17037 0.88909   1
  -6  -5  -1 1.12220 0.79326   2
   6   5   1 -0.0421 0.64255   3
   6   5   1 1.33166 0.63511   1
  -6   5  -1 0.14982 0.83659   3
  -6   5  -1 0.64840 0.60808   2
   6   5   1 0.95171 0.87602   5
  -7  -5  -1 67.8927 4.33346   2
   7  -5   1 67.6271 4.44317   5
   7  -5   1 65.0030 3.97051   4
   7  -5   1 67.2753 4.37129   1
   7  -5   1 73.2171 3.78365   2
   7  -5   1 70.3488 4.62266   3
   7   5   1 65.0433 4.45549   5
  -7   5  -1 72.4817 3.92067   2
  -7   5  -1 73.0105 4.64228   3
   7   5   1 64.7302 4.60343   3
   8  -5   1 12.5684 2.42718   5
   8  -5   1 17.6336 2.85939   3
  -8  -5  -1 20.2786 2.68290   2
   8  -5   1 14.2320 2.40367   1
   8  -5   1 15.7934 2.11346   4
  -8   5  -1 16.9982 2.69602   3
   8   5   1 17.3452 2.74686   3
   8   5   1 21.8352 2.95972   5
   9  -5   1 33.2341 3.99269   3
   9  -5   1 37.2848 3.97098   1
  -9  -5  -1 37.9481 3.98009   2
   9  -5   1 40.7345 4.43265   5
  -9   5  -1 25.2967 3.66585   3
   9   5   1 44.5002 4.63475   5
   9   5   1 36.3592 4.44444   3
 -10  -5  -1 3.48975 1.68739   2
  10  -5   1 2.01234 1.56932   5
  10  -5   1 2.21098 1.78982   3
  10  -5   1 5.18172 1.73816   1
  10   5   1 3.97078 2.02011   3
  10   5   1 4.93538 1.96877   5
 -10   5  -1 3.07003 1.76183   3
  11  -5   1 10.4660 2.30360   1
  11  -5   1 8.79421 2.55421   3
 -11  -5  -1 11.0921 2.55784   2
  11  -5   1 17.7063 3.21025   5
  11   5   1 15.6745 3.09212   5
  11   5   1 14.8600 3.34527   3
 -11   5  -1 11.0986 2.80429   3
  12  -5   1 -0.1271 1.71361   3
 -12  -5  -1 0.06255 1.97446   2
  12  -5   1 2.27117 1.93634   5
  12   5   1 1.05063 1.64236   5
 -12   5  -1 0.38593 2.21796   3
  12   5   1 2.07641 2.37400   3
  12  -6  -1 3.48475 2.16161   5
  12  -6  -1 4.31646 2.55517   3
  12  -6  -1 -1.2630 1.66032   1
 -12   6   1 2.17808 2.50000   3
  12   6  -1 0.98191 1.62787   5
  12   6  -1 6.02537 2.72696   3
 -11  -6   1 -0.5509 1.37413   2
  11  -6  -1 -0.6006 1.49472   5
  11  -6  -1 1.81792 1.51604   3
  11  -6  -1 -0.1386 1.40407   1
  11   6  -1 1.12867 1.63337   5
 -11   6   1 -0.4185 1.24897   3
  11   6  -1 1.69078 1.75628   3
 -10  -6   1 1.72356 1.19408   2
  10  -6  -1 1.28151 1.20804   5
  10  -6  -1 -0.1552 1.02458   3
  10  -6  -1 2.23447 1.69563   1
  10   6  -1 1.17990 1.01718   5
 -10   6   1 1.31195 1.22970   3
  10   6  -1 1.24287 1.50613   3
  -9  -6   1 -1.6559 0.83313   2
   9  -6  -1 -0.6269 1.12836   1
   9  -6  -1 0.85715 1.03833   3
   9  -6  -1 -1.5781 0.82805   4
   9  -6  -1 -0.5017 0.72711   5
  -9   6   1 -0.4956 0.93211   3
   9   6  -1 0.70883 0.95283   5
   9   6  -1 0.28647 0.98295   3
   8  -6  -1 16.6491 2.72780   1
   8  -6  -1 20.8953 3.02988   3
   8  -6  -1 23.5429 3.23719   5
   8  -6  -1 14.6615 2.30778   4
  -8  -6   1 13.6034 2.11797   2
   8   6  -1 13.2473 2.09014   1
   8   6  -1 17.3827 2.85400   3
   8   6  -1 15.8763 2.78484   5
  -8   6   1 20.5159 2.98009   3
   7  -6  -1 44.8680 3.68035   5
  -7  -6   1 45.4230 3.30724   2
   7  -6  -1 40.5083 3.48336   3
   7  -6  -1 40.4214 3.39130   1
   7  -6  -1 41.7331 3.18346   4
   7   6  -1 42.1481 3.61857   3
  -7   6   1 44.1390 3.54827   3
   7   6  -1 38.3373 3.40842   5
   7   6  -1 43.7468 3.02271   1
   6  -6  -1 30.7303 3.27832   3
   6  -6  -1 31.4591 3.34775   1
   6  -6  -1 30.3575 3.23934   5
   6  -6  -1 24.2823 2.70863   4
  -6  -6   1 30.3077 2.56586   2
   6   6  -1 31.7769 3.30509   5
   6   6  -1 28.6708 3.10358   3
  -6   6   1 32.1113 2.76823   3
   6   6  -1 28.6835 2.32921   1
   5  -6  -1 258.629 10.9882   4
  -5  -6   1 270.341 10.9671   2
   5  -6  -1 275.217 11.3788   1
   5  -6  -1 264.342 11.3130   5
  -5   6   1 269.665 11.3281   3
  -5   6   1 259.592 9.82949   2
   5   6  -1 268.642 11.2774   5
  -5   6   1 258.989 11.3999   5
   5   6  -1 259.007 11.2012   3
   5   6  -1 273.834 10.8210   1
  -4  -6   1 109.939 5.23121   2
   4  -6  -1 104.391 5.45383   1
   4  -6  -1 110.100 5.36066   4
   4  -6  -1 112.634 4.27354   2
   4  -6  -1 103.701 5.38194   5
   4   6  -1 111.753 5.19588   1
   4   6  -1 105.504 5.28795   3
  -4   6   1 115.119 5.66072   5
  -4   6   1 110.166 5.42742   3
   4   6  -1 112.913 5.49206   5
   4   6  -1 107.441 4.40586   4
   3  -6  -1 124.026 5.90117   5
   3  -6  -1 129.024 5.94601   4
   3  -6  -1 133.585 5.00448   2
  -3  -6   1 121.962 5.73474   2
  -3  -6   1 123.530 5.11595   4
   3  -6  -1 133.007 6.04929   1
   3   6  -1 135.644 5.37008   4
   3   6  -1 121.737 5.74883   3
  -3   6   1 127.566 6.04001   5
  -3   6   1 124.820 5.87968   3
   3   6  -1 160.910 6.37056   5
   3   6  -1 132.214 5.87725   1
   2  -6  -1 10.8305 1.40188   1
  -2  -6   1 8.37706 0.97327   4
   2  -6  -1 8.54885 1.23340   5
   2  -6  -1 8.35723 1.29946   4
   2  -6  -1 8.75251 0.74617   2
  -2  -6   1 9.15073 1.20835   2
   2   6  -1 9.79482 1.43803   5
   2   6  -1 8.64798 1.16575   3
  -2   6   1 7.53075 1.19775   5
   2   6  -1 10.3907 1.43595   1
  -2   6   1 9.29260 1.21358   3
  -1  -6   1 87.1507 3.93522   2
   1  -6  -1 88.8414 4.07083   4
   1  -6  -1 79.2645 3.89869   1
  -1  -6   1 80.4735 3.78009   4
   1  -6  -1 82.3506 3.55370   2
  -1   6   1 80.0054 3.89083   3
   1   6  -1 85.1294 4.07785   1
  -1   6   1 84.6322 4.05174   5
   1   6  -1 87.1284 3.83298   3
   1   6  -1 82.6748 4.15399   5
   0  -6   1 365.093 14.0558   2
   0  -6   1 371.847 14.1973   4
   0  -6  -1 384.913 14.0267   1
   0  -6  -1 370.007 14.1573   4
   0  -6   1 376.081 14.1534   1
   0  -6  -1 371.152 13.9385   2
   0   6   1 380.316 14.1726   1
   0   6  -1 381.457 13.9732   3
   0   6   1 384.800 14.3182   5
   0   6  -1 384.077 14.3841   5
   0   6  -1 394.496 14.4618   1
   0   6   1 373.112 14.2119   3
   1  -6   1 66.0048 3.22105   1
   1  -6   1 58.5003 2.94861   2
  -1  -6  -1 61.2491 2.83279   1
  -1  -6  -1 63.0481 3.01214   4
  -1  -6  -1 60.9368 3.06260   2
   1  -6   1 61.1113 3.21521   4
   1   6   1 60.8354 2.96313   1
   1   6   1 61.7274 3.25890   3
  -1   6  -1 57.1649 3.28549   1
  -1   6  -1 59.5461 3.22904   5
   1   6   1 66.5453 3.32673   5
  -1   6  -1 64.3743 2.97001   3
  -2  -6  -1 9.17703 1.28456   2
  -2  -6  -1 7.69989 0.93628   4
   2  -6   1 10.8984 1.39347   1
   2  -6   1 10.0807 1.12506   2
   2  -6   1 9.34470 1.34589   4
   2   6   1 12.5110 1.02279   1
   2   6   1 8.67724 1.29966   3
   2   6   1 11.9630 1.54403   5
  -2   6  -1 8.76930 1.35662   1
  -2   6  -1 12.6373 1.52797   5
  -2   6  -1 10.9191 1.25512   3
   3  -6   1 6.16093 1.16090   4
  -3  -6  -1 5.87354 0.71862   4
  -3  -6  -1 5.64385 1.02139   2
   3  -6   1 3.70313 0.89437   1
   3  -6   1 5.42925 1.15143   5
   3  -6   1 5.68961 0.88403   2
   3   6   1 5.93986 1.17498   3
  -3   6  -1 5.56884 1.06441   3
   3   6   1 5.56246 0.90418   1
   3   6   1 16.4420 1.81101   5
  -3   6  -1 4.40936 1.07050   5
  -4  -6  -1 34.5365 1.53532   4
   4  -6   1 31.3259 2.00060   2
  -4  -6  -1 32.4983 2.45655   2
   4  -6   1 37.4080 2.50975   4
   4  -6   1 35.3536 2.51284   1
   4  -6   1 32.9425 2.43853   5
   4   6   1 32.6016 1.91343   1
  -4   6  -1 32.0034 2.48874   5
   4   6   1 33.4576 2.52807   3
  -4   6  -1 31.2348 2.32897   3
   4   6   1 33.3297 2.51379   5
   5  -6   1 32.9504 2.67129   3
   5  -6   1 33.0133 2.62685   5
   5  -6   1 36.5625 2.18882   2
   5  -6   1 31.2666 2.51666   4
   5  -6   1 33.9201 2.62371   1
  -5  -6  -1 35.8993 2.72087   2
  -5   6  -1 31.1897 2.64781   5
  -5   6  -1 33.7951 2.66821   3
   5   6   1 30.2863 2.63345   3
   5   6   1 34.8238 2.69758   5
   5   6   1 37.3360 2.07075   1
   6  -6   1 204.632 8.46492   2
   6  -6   1 203.739 9.42242   5
   6  -6   1 201.826 9.32193   1
   6  -6   1 219.026 9.63986   3
  -6  -6  -1 218.510 9.44912   2
   6  -6   1 200.901 9.08381   4
  -6   6  -1 216.153 9.68840   5
  -6   6  -1 219.196 9.58857   3
   6   6   1 206.360 9.70204   3
  -6   6  -1 202.215 8.68430   2
   6   6   1 200.689 9.35230   5
   7  -6   1 29.8027 3.39565   5
   7  -6   1 20.0603 2.52685   4
   7  -6   1 24.4657 3.00463   1
   7  -6   1 24.9542 3.09970   3
  -7  -6  -1 23.2748 2.73585   2
   7   6   1 26.2579 3.13430   5
  -7   6  -1 28.6728 3.28617   3
   7   6   1 17.1203 2.80285   3
  -7   6  -1 29.7352 3.41072   5
  -8  -6  -1 12.5831 2.13731   2
   8  -6   1 18.2189 2.77165   3
   8  -6   1 11.0194 2.21285   1
   8  -6   1 12.3279 2.00996   4
   8  -6   1 17.1978 2.75249   5
   8   6   1 11.0754 2.31889   3
   8   6   1 13.8619 2.53647   5
  -8   6  -1 10.1418 2.17701   3
   9  -6   1 8.88412 2.00887   1
   9  -6   1 4.11100 1.54015   3
   9  -6   1 7.05635 1.68431   4
  -9  -6  -1 5.79453 1.77599   2
   9  -6   1 8.31185 2.21415   5
  -9   6  -1 7.07038 1.91923   3
   9   6   1 7.19556 1.87360   5
   9   6   1 5.76413 2.12721   3
 -10  -6  -1 -0.0090 1.37379   2
  10  -6   1 1.68850 1.68051   5
  10  -6   1 1.72287 1.26336   1
  10  -6   1 1.64505 1.55359   3
  10   6   1 0.73570 1.37543   5
 -10   6  -1 4.74722 1.93467   3
  10   6   1 0.19739 1.59743   3
  11  -6   1 9.29275 2.37680   1
 -11  -6  -1 11.1471 2.54582   2
  11  -6   1 7.15371 2.43117   3
  11  -6   1 5.33263 1.98033   5
 -11   6  -1 5.82781 2.31112   3
  11   6   1 5.15824 2.42051   3
  11   6   1 10.3261 2.62577   5
  12  -6   1 11.4381 2.89871   5
  12   6   1 22.4219 3.85967   5
  11  -7  -1 0.33438 1.28816   5
  11  -7  -1 0.16318 1.19483   3
  11  -7  -1 0.23390 1.70960   1
 -11  -7   1 0.09762 1.38386   2
 -11   7   1 0.05325 1.11773   5
  11   7  -1 0.48054 1.59554   3
 -11   7   1 2.22807 1.63591   3
  11   7  -1 0.38692 1.02311   5
  10  -7  -1 2.97376 1.64514   3
 -10  -7   1 3.22336 1.68252   2
  10  -7  -1 2.86800 1.53035   1
  10  -7  -1 3.98261 1.66359   5
  10   7  -1 4.77550 1.75142   5
 -10   7   1 3.39980 1.62995   3
  10   7  -1 0.92301 1.56033   3
 -10   7   1 7.03012 2.25485   5
  -9  -7   1 5.26724 1.69980   2
   9  -7  -1 6.92657 1.93362   1
   9  -7  -1 4.93443 1.65575   4
   9  -7  -1 6.86915 1.95576   3
   9  -7  -1 8.82548 2.19673   5
   9   7  -1 8.73507 2.33441   5
  -9   7   1 10.8213 2.56072   5
  -9   7   1 5.36339 1.83293   3
   9   7  -1 7.40302 2.14855   3
  -8  -7   1 39.1647 3.22211   2
   8  -7  -1 43.5196 4.56574   1
   8  -7  -1 41.2007 3.41834   4
   8  -7  -1 33.5971 4.04083   5
  -8   7   1 35.6119 4.25913   5
   8   7  -1 40.8659 4.45221   3
  -8   7   1 32.9272 4.00071   3
   8   7  -1 44.6240 4.64144   5
  -7  -7   1 44.0211 3.36945   2
   7  -7  -1 38.8225 4.13216   1
   7  -7  -1 48.4116 3.43646   4
   7  -7  -1 41.4635 3.63634   5
  -7   7   1 47.1785 3.90303   5
  -7   7   1 39.6362 3.46709   3
   7   7  -1 45.4892 3.64521   3
   7   7  -1 40.9637 3.47376   5
   7   7  -1 40.0422 3.02243   1
   6  -7  -1 128.754 6.88454   1
  -6  -7   1 133.852 6.52922   2
   6  -7  -1 125.677 6.78429   5
   6  -7  -1 119.070 6.46920   4
  -6   7   1 137.271 7.07570   5
  -6   7   1 129.226 6.80328   3
   6   7  -1 144.395 7.04467   3
   6   7  -1 123.941 6.71947   5
   6   7  -1 135.238 6.29861   1
   5  -7  -1 34.8418 2.82845   5
   5  -7  -1 35.7745 2.86728   1
   5  -7  -1 37.1256 2.77693   4
  -5  -7   1 36.9253 2.75145   2
   5   7  -1 29.8024 2.59649   3
   5   7  -1 37.7878 2.64823   1
   5   7  -1 32.9858 3.34004   5
  -5   7   1 32.4348 2.82922   5
  -5   7   1 34.4938 2.78271   3
   4  -7  -1 30.9442 1.59367   2
   4  -7  -1 32.5959 2.48452   4
   4  -7  -1 28.5260 2.47629   5
   4  -7  -1 29.7300 2.47485   1
  -4  -7   1 31.4584 1.62162   4
  -4  -7   1 30.6685 2.37100   2
  -4   7   1 31.7032 2.50492   3
   4   7  -1 32.7263 1.81558   4
  -4   7   1 29.2800 2.58633   5
   4   7  -1 27.3858 2.33794   3
   4   7  -1 29.8236 2.36740   1
   4   7  -1 27.2146 2.87819   5
   3  -7  -1 0.30713 0.62074   1
  -3  -7   1 0.06319 0.36558   2
   3  -7  -1 0.17415 0.50375   4
   3  -7  -1 0.06299 0.27503   2
  -3  -7   1 0.44761 0.38793   4
   3  -7  -1 -0.2206 0.51627   5
   3   7  -1 0.41444 0.57273   3
  -3   7   1 0.16592 0.44676   3
   3   7  -1 -0.1086 0.64687   5
   3   7  -1 1.22327 0.81635   1
  -3   7   1 -0.0232 0.55822   5
  -2  -7   1 139.090 5.70408   4
  -2  -7   1 133.536 6.01667   2
   2  -7  -1 135.545 6.16389   1
   2  -7  -1 134.459 6.17946   4
   2  -7  -1 139.686 5.43946   2
   2   7  -1 134.996 6.30827   5
   2   7  -1 134.196 5.92958   3
   2   7  -1 136.673 6.14887   1
  -2   7   1 133.944 6.21415   5
  -2   7   1 135.682 6.04453   3
   1  -7  -1 46.6539 2.69186   1
   1  -7  -1 43.4028 2.72190   4
  -1  -7   1 43.9195 2.56854   4
   1  -7  -1 49.2215 2.41189   2
  -1  -7   1 44.6707 2.66342   2
   1   7  -1 47.3402 2.81506   1
  -1   7   1 47.2642 2.71156   3
   1   7  -1 49.1481 2.96810   5
  -1   7   1 46.7183 2.83285   5
   1   7  -1 48.7148 2.65817   3
   0  -7  -1 245.357 9.82309   4
   0  -7   1 245.663 9.85544   4
   0  -7   1 247.761 9.79281   1
   0  -7  -1 243.311 9.61811   1
   0  -7  -1 237.057 9.53294   2
   0  -7   1 253.372 9.73890   2
   0   7  -1 253.839 10.0901   5
   0   7   1 244.367 9.96657   5
   0   7   1 258.171 9.92019   3
   0   7  -1 256.561 9.65334   3
   0   7  -1 235.615 10.0038   1
   0   7   1 249.025 9.83055   1
  -1  -7  -1 1.37465 0.53010   4
   1  -7   1 1.80492 0.63040   4
   1  -7   1 0.51403 0.43351   1
  -1  -7  -1 1.45625 0.51999   2
  -1  -7  -1 1.04901 0.45011   1
   1  -7   1 0.65549 0.45509   2
  -1   7  -1 1.08978 0.59526   5
   1   7   1 1.04282 0.59230   3
  -1   7  -1 0.99731 0.63781   1
   1   7   1 0.46452 0.57723   5
   1   7   1 0.78176 0.46838   1
  -1   7  -1 1.07010 0.53712   3
  -2  -7  -1 39.2129 2.21162   4
   2  -7   1 37.6262 2.54089   1
   2  -7   1 38.7250 2.21517   2
   2  -7   1 39.3065 2.60381   4
  -2  -7  -1 40.0193 2.53550   2
  -2   7  -1 39.8450 2.37167   3
   2   7   1 39.5434 2.28078   1
   2   7   1 41.0368 2.69573   5
  -2   7  -1 38.6122 2.76323   1
  -2   7  -1 39.3503 2.60336   5
   2   7   1 40.7628 2.62838   3
   3  -7   1 248.443 10.3512   5
   3  -7   1 250.079 10.4059   1
  -3  -7  -1 257.923 9.56534   4
   3  -7   1 252.554 9.78829   2
   3  -7   1 259.309 10.4814   4
  -3  -7  -1 266.809 10.4279   2
  -3   7  -1 253.907 10.1717   3
  -3   7  -1 261.915 10.5704   5
   3   7   1 234.541 10.3566   3
   3   7   1 245.868 10.4186   5
   3   7   1 243.350 9.76194   1
   4  -7   1 12.2119 1.78248   5
   4  -7   1 11.2970 1.77936   1
   4  -7   1 11.2684 1.35150   2
  -4  -7  -1 12.7538 0.91699   4
   4  -7   1 10.8718 1.64633   4
  -4  -7  -1 10.9885 1.71464   2
   4   7   1 15.4050 2.07497   5
  -4   7  -1 13.4327 1.74200   3
   4   7   1 12.3679 1.83875   3
   4   7   1 13.9508 1.47997   1
  -4   7  -1 11.9072 1.92290   5
   5  -7   1 46.3214 2.67539   2
   5  -7   1 49.6224 3.45453   1
   5  -7   1 48.7293 3.41027   5
   5  -7   1 46.5054 3.24116   4
  -5  -7  -1 47.8710 3.26628   2
   5   7   1 47.4642 2.59649   1
   5   7   1 48.1486 3.43763   3
  -5   7  -1 46.0996 3.26689   3
  -5   7  -1 47.5690 3.48783   5
   5   7   1 44.9856 3.21214   5
   6  -7   1 283.988 12.5497   1
  -6  -7  -1 296.462 12.5194   2
   6  -7   1 289.340 11.5660   2
   6  -7   1 291.698 12.3761   4
   6  -7   1 311.214 12.8332   3
   6  -7   1 294.741 12.6897   5
  -6   7  -1 307.101 12.9624   5
  -6   7  -1 285.709 12.5505   3
   6   7   1 292.525 12.5912   5
   6   7   1 295.869 12.8843   3
   7  -7   1 3.98900 1.35061   3
   7  -7   1 2.23237 1.09319   1
   7  -7   1 1.41958 1.17752   5
   7  -7   1 7.13671 1.62194   4
  -7  -7  -1 7.54638 1.82557   2
   7   7   1 3.53188 1.38670   3
  -7   7  -1 6.41222 1.58842   3
   7   7   1 5.51177 1.47046   5
  -7   7  -1 6.99808 1.96999   5
   8  -7   1 9.47429 2.12231   5
   8  -7   1 10.0037 2.17572   3
   8  -7   1 8.43271 1.74810   4
   8  -7   1 11.7929 2.27758   1
  -8  -7  -1 10.3058 2.04651   2
  -8   7  -1 15.9376 2.70865   5
   8   7   1 13.4542 2.49271   5
  -8   7  -1 11.5461 2.38880   3
   8   7   1 9.76409 2.41175   3
   9  -7   1 12.0979 2.54718   3
  -9  -7  -1 12.8332 2.35993   2
   9  -7   1 9.36512 2.00432   4
   9  -7   1 13.7008 2.48257   1
   9  -7   1 12.2408 2.71242   5
  -9   7  -1 10.8934 2.43004   3
   9   7   1 6.12756 1.98458   3
  -9   7  -1 11.2408 2.57567   5
   9   7   1 14.5019 2.69708   5
  10  -7   1 7.40532 2.17079   1
  10  -7   1 5.25347 1.85506   3
 -10  -7  -1 10.0988 2.39469   2
  10  -7   1 4.88498 2.12784   5
  10   7   1 11.0579 2.81501   3
  10   7   1 9.58605 2.40008   5
 -10   7  -1 10.5092 2.57408   3
 -10   7  -1 10.2994 2.69220   5
  11  -7   1 0.97918 1.60543   3
 -11  -7  -1 0.77688 1.47532   2
  11  -7   1 4.06045 1.93092   1
  11  -7   1 3.72681 1.98742   5
  11   7   1 3.23798 1.65504   5
 -11   7  -1 4.41128 2.25379   3
  11   7   1 2.29787 2.19390   3
 -11   7  -1 1.73355 1.54535   5
  11  -8  -1 -0.2253 1.19458   5
 -11  -8   1 0.53213 1.58490   2
  11  -8  -1 0.34184 1.26697   1
 -11   8   1 0.29930 1.14294   5
  11   8  -1 -0.1097 1.75356   3
  11   8  -1 1.43202 1.16375   5
 -11   8   1 -0.6974 1.70810   3
  10  -8  -1 4.48620 1.74324   1
  10  -8  -1 0.77183 1.84831   5
 -10  -8   1 0.47667 1.45927   2
  10   8  -1 1.67268 1.49871   5
 -10   8   1 3.54515 2.02646   3
 -10   8   1 5.79495 2.33884   5
  10   8  -1 6.31565 2.33874   3
  -9  -8   1 52.9312 3.95533   2
   9  -8  -1 51.4868 5.22060   1
   9  -8  -1 39.1873 4.63559   5
   9  -8  -1 40.5790 4.21124   4
  -9   8   1 44.7083 5.05456   5
   9   8  -1 46.9042 5.12181   5
  -9   8   1 36.6302 4.46351   3
   9   8  -1 33.0636 4.43771   3
   8  -8  -1 2.76974 1.44827   5
  -8  -8   1 2.25133 1.11522   2
   8  -8  -1 0.49705 1.26134   1
   8  -8  -1 0.44312 0.86204   4
  -8   8   1 1.91649 1.21821   5
  -8   8   1 1.74480 1.44474   3
   8   8  -1 2.90490 1.35755   5
   8   8  -1 1.57213 1.34917   3
   7  -8  -1 8.26988 1.93152   5
  -7  -8   1 8.40122 1.83705   2
   7  -8  -1 9.89965 2.01151   1
   7  -8  -1 10.2597 2.03155   4
   7   8  -1 6.88945 1.87621   3
  -7   8   1 7.35548 1.84854   3
   7   8  -1 9.77447 2.13618   5
   7   8  -1 9.02399 1.64812   1
  -7   8   1 4.62591 1.55927   5
   6  -8  -1 5.41682 1.58484   5
   6  -8  -1 7.74516 1.65880   4
   6  -8  -1 5.63643 1.64676   1
  -6  -8   1 6.47701 1.50453   2
   6   8  -1 8.70357 1.62115   1
   6   8  -1 5.93343 1.47192   3
   6   8  -1 5.44155 1.65190   5
  -6   8   1 9.18449 1.90946   5
  -6   8   1 6.86706 1.76657   3
   5  -8  -1 71.2025 4.19782   4
   5  -8  -1 54.1676 3.94092   1
   5  -8  -1 59.3531 4.10629   5
  -5  -8   1 67.3272 4.04846   2
   5   8  -1 58.1970 3.70583   1
   5   8  -1 66.1784 4.21835   5
  -5   8   1 61.3200 4.09915   3
   5   8  -1 64.1805 4.09810   3
  -5   8   1 66.1872 4.34987   5
  -4  -8   1 44.3710 3.09412   2
   4  -8  -1 51.6131 3.35496   5
   4  -8  -1 45.7958 2.26780   2
   4  -8  -1 43.8269 3.20932   1
   4  -8  -1 43.8202 3.17561   4
  -4  -8   1 46.4613 2.31612   4
   4   8  -1 42.6961 2.46709   4
  -4   8   1 49.8979 3.24964   3
   4   8  -1 49.2402 3.18126   3
  -4   8   1 44.6992 3.29886   5
   4   8  -1 52.6348 3.49675   5
   4   8  -1 46.8749 3.14520   1
  -3  -8   1 0.15429 0.38552   4
   3  -8  -1 -0.0681 0.32414   2
   3  -8  -1 -0.0199 0.50834   4
   3  -8  -1 0.12197 0.51283   5
   3  -8  -1 -0.7854 0.52880   1
  -3  -8   1 0.02902 0.45769   2
  -3   8   1 0.04005 0.50397   5
   3   8  -1 4.16429 1.22600   1
   3   8  -1 0.68080 0.84899   5
  -3   8   1 0.25629 0.48344   3
   3   8  -1 0.14007 0.61620   3
   2  -8  -1 26.5351 2.34445   4
  -2  -8   1 33.8550 2.08942   4
   2  -8  -1 31.3575 1.83243   2
  -2  -8   1 35.9350 2.43385   2
   2  -8  -1 31.2931 2.38079   1
   2   8  -1 32.6221 2.30674   3
   2   8  -1 35.0189 2.65624   5
   2   8  -1 26.1532 2.28649   1
  -2   8   1 32.2545 2.35061   3
  -2   8   1 32.0679 2.46695   5
  -1  -8   1 189.616 7.99590   2
   1  -8  -1 196.066 7.63140   2
  -1  -8   1 192.705 7.93610   4
   1  -8  -1 188.528 8.16581   4
   1  -8  -1 196.550 8.04491   1
   1   8  -1 194.348 8.23427   1
   1   8  -1 187.130 8.32098   5
   1   8  -1 188.294 7.88271   3
  -1   8   1 189.421 8.19616   5
  -1   8   1 190.294 8.06056   3
  -1   8   1 185.064 8.17038   1
   0  -8   1 0.52202 0.53987   2
   0  -8   1 0.08782 0.47507   4
   0  -8   1 0.38186 0.44790   1
   0  -8  -1 -0.6101 0.42815   1
   0  -8  -1 0.25617 0.40006   2
   0  -8  -1 -0.1133 0.46838   4
   0   8   1 -1.2699 0.54086   5
   0   8  -1 -0.3307 0.43802   5
   0   8  -1 0.74379 0.60802   3
   0   8   1 -0.1632 0.55539   3
   0   8   1 0.30783 0.53743   1
   0   8  -1 -0.5758 0.34710   1
   1  -8   1 16.0277 1.82316   1
  -1  -8  -1 18.1594 1.43269   1
   1  -8   1 17.2904 1.73637   2
   1  -8   1 18.0564 1.99231   4
  -1  -8  -1 18.7680 1.54751   2
  -1  -8  -1 15.2536 1.68487   4
   1   8   1 17.5699 1.99937   3
  -1   8  -1 18.0772 2.18402   1
   1   8   1 15.1382 1.95311   5
   1   8   1 17.2232 1.79837   1
  -1   8  -1 18.9827 2.09756   5
  -1   8  -1 14.9826 1.60993   3
  -2  -8  -1 -0.2723 0.53739   2
  -2  -8  -1 0.43253 0.43750   4
   2  -8   1 0.16965 0.59307   1
   2  -8   1 -0.5195 0.37215   4
   2  -8   1 -0.2715 0.34311   2
   2   8   1 -0.0476 0.44144   1
  -2   8  -1 -0.6194 0.69186   1
   2   8   1 -0.0013 0.92728   5
  -2   8  -1 -0.4539 0.53062   5
  -2   8  -1 0.28774 0.51243   3
   2   8   1 0.77473 0.86446   3
   3  -8   1 55.9239 3.03881   2
   3  -8   1 56.8594 3.53003   1
   3  -8   1 57.2268 3.58133   4
  -3  -8  -1 58.2951 2.95537   4
  -3  -8  -1 57.6922 3.47250   2
  -3   8  -1 58.7829 3.77897   1
   3   8   1 60.2795 3.21899   1
   3   8   1 62.4843 3.83358   5
  -3   8  -1 55.0909 3.57757   5
  -3   8  -1 67.7998 3.51271   3
   3   8   1 57.5572 3.64554   3
   4  -8   1 19.2123 2.31944   4
   4  -8   1 18.6377 1.54403   2
  -4  -8  -1 19.2440 1.32998   4
   4  -8   1 23.7329 2.57981   1
   4  -8   1 24.0520 2.60830   5
  -4  -8  -1 21.0417 2.38133   2
   4   8   1 19.7942 1.94735   1
   4   8   1 22.4026 2.57966   5
  -4   8  -1 19.5376 2.21969   3
  -4   8  -1 16.5711 2.24780   5
   4   8   1 17.8575 2.32127   3
   5  -8   1 121.260 6.11758   4
   5  -8   1 112.773 6.09760   1
  -5  -8  -1 115.800 5.99773   2
   5  -8   1 123.336 6.21854   5
   5  -8   1 111.121 5.17999   2
   5   8   1 106.592 5.98578   5
  -5   8  -1 127.072 6.45452   5
  -5   8  -1 107.631 5.87911   3
   5   8   1 115.976 6.26573   3
   6  -8   1 19.7710 2.64798   5
  -6  -8  -1 18.5393 2.53040   2
   6  -8   1 14.7483 2.28551   1
   6  -8   1 13.3055 2.14738   4
   6   8   1 16.4245 2.42741   5
  -6   8  -1 22.3932 2.98809   5
  -6   8  -1 16.2841 2.42272   3
   6   8   1 17.4237 2.56696   3
  -7  -8  -1 181.390 8.64499   2
   7  -8   1 164.832 8.61695   1
   7  -8   1 183.861 8.90613   5
   7  -8   1 170.337 8.44269   4
   7   8   1 159.672 8.78594   3
   7   8   1 168.014 8.63505   5
  -7   8  -1 181.235 8.81968   3
  -7   8  -1 181.206 9.06724   5
   8  -8   1 0.22463 0.87220   1
   8  -8   1 1.27186 1.07032   5
  -8  -8  -1 0.46339 1.24552   2
   8  -8   1 0.33008 0.72881   4
  -8   8  -1 -0.0578 0.77067   5
   8   8   1 1.31100 1.14981   5
  -8   8  -1 0.70845 1.24724   3
   8   8   1 0.47013 1.19345   3
   9  -8   1 17.8559 2.73446   4
   9  -8   1 19.6633 3.11098   1
  -9  -8  -1 19.1813 2.92975   2
   9  -8   1 14.1243 2.94022   5
   9   8   1 15.9647 3.04761   3
   9   8   1 20.6518 3.18970   5
  -9   8  -1 19.2749 3.14811   3
  -9   8  -1 10.5040 2.71355   5
  10  -8   1 -0.7535 1.36902   1
 -10  -8  -1 -1.2005 0.79953   2
  10  -8   1 2.59029 1.39025   3
  10  -8   1 2.01173 1.79849   5
  10   8   1 1.60577 1.37490   5
 -10   8  -1 3.30373 1.93848   5
  10   8   1 3.74592 2.09038   3
 -10   8  -1 3.02031 1.56882   3
 -11  -8  -1 7.48887 2.59015   2
  11  -8   1 10.2798 2.73916   1
  11  -8   1 10.3028 2.77051   5
 -11   8  -1 8.89144 2.69802   3
  11   8   1 8.22907 2.70389   3
  11   8   1 9.85795 2.44686   5
 -11   8  -1 8.02960 2.57593   5
  11  -9  -1 -2.7011 1.60634   5
  11  -9  -1 1.66675 1.35174   1
 -11  -9   1 -1.2993 1.40285   2
  11   9  -1 0.47839 1.20720   3
  11   9  -1 1.23813 1.20754   5
 -11   9   1 -1.2336 1.74449   3
 -11   9   1 -0.5577 1.79942   5
  10  -9  -1 0.61822 1.78205   1
  10  -9  -1 -0.3728 1.80186   5
  10  -9  -1 4.63659 1.56062   4
 -10  -9   1 -0.4768 1.36831   2
 -10   9   1 1.40978 1.77304   3
  10   9  -1 1.43838 1.52364   5
 -10   9   1 6.36447 2.49697   5
  10   9  -1 2.50498 1.44430   3
  -9  -9   1 2.71469 1.38238   2
   9  -9  -1 6.27086 2.04861   5
   9  -9  -1 3.37384 1.34419   4
   9  -9  -1 9.14937 2.31744   1
   9   9  -1 3.79365 1.95652   3
  -9   9   1 6.37887 2.02236   5
  -9   9   1 4.91579 1.99853   3
   9   9  -1 4.78560 1.68552   5
  -8  -9   1 40.1455 3.52192   2
   8  -9  -1 50.3689 4.33634   5
   8  -9  -1 48.5431 4.15202   1
   8  -9  -1 36.3963 4.11162   4
  -8   9   1 47.6128 5.06922   5
  -8   9   1 43.2519 4.69954   3
   8   9  -1 44.3372 4.75191   5
   8   9  -1 40.3356 4.56168   3
   7  -9  -1 19.6306 3.03518   1
   7  -9  -1 18.4017 2.68221   4
  -7  -9   1 11.8243 2.07397   2
   7  -9  -1 17.8289 2.75849   5
   7   9  -1 14.6398 2.60557   3
  -7   9   1 15.9253 2.77257   5
  -7   9   1 15.8434 2.68562   3
   7   9  -1 19.8463 2.99925   5
  -6  -9   1 9.98535 1.83440   2
   6  -9  -1 9.55978 1.98929   1
   6  -9  -1 7.01537 1.72299   4
   6  -9  -1 7.27523 1.83001   5
   6   9  -1 6.57052 1.86222   5
  -6   9   1 9.78224 2.13357   5
   6   9  -1 6.91726 1.62765   1
   6   9  -1 9.53311 1.92396   3
  -6   9   1 7.80647 1.86626   3
   5  -9  -1 -1.6808 0.67792   4
   5  -9  -1 0.19470 0.74262   5
   5  -9  -1 1.30827 1.13925   1
  -5  -9   1 -0.7601 0.84334   2
   5   9  -1 1.47421 0.95632   5
  -5   9   1 -0.4782 0.59153   5
  -5   9   1 -0.0845 0.94896   3
   5   9  -1 0.78104 0.92634   1
   5   9  -1 0.74888 1.01678   3
   4  -9  -1 24.7476 2.86138   1
   4  -9  -1 24.7602 2.76533   4
  -4  -9   1 23.5696 1.60758   4
   4  -9  -1 27.1823 2.95073   5
  -4  -9   1 20.1055 2.41967   2
   4   9  -1 26.8690 2.86379   1
   4   9  -1 22.2016 2.79205   5
  -4   9   1 25.1197 2.88831   5
   4   9  -1 24.6790 2.64861   3
  -4   9   1 25.7853 2.72411   3
   4   9  -1 27.1116 1.92163   4
   3  -9  -1 40.1977 3.06265   4
  -3  -9   1 43.6621 2.52053   4
   3  -9  -1 41.0470 3.10139   1
   3  -9  -1 45.1007 2.34753   2
  -3  -9   1 42.2489 2.94285   2
   3   9  -1 47.9899 3.10993   3
  -3   9   1 39.3942 3.05183   5
   3   9  -1 43.3702 3.30828   5
   3   9  -1 46.2967 3.17827   1
  -3   9   1 48.0793 3.14815   3
   2  -9  -1 18.4635 2.20508   1
   2  -9  -1 14.9786 2.00313   4
  -2  -9   1 15.6946 1.94993   2
  -2  -9   1 18.6375 1.59820   4
   2  -9  -1 16.3115 1.36285   2
   2   9  -1 17.2086 2.21238   1
  -2   9   1 17.3614 2.02515   3
   2   9  -1 20.3414 2.48148   5
  -2   9   1 19.3601 2.30828   5
   2   9  -1 18.5388 2.09695   3
   1  -9  -1 1.54056 0.59881   2
  -1  -9   1 1.26190 0.63760   2
  -1  -9   1 1.94418 0.78605   4
   1  -9  -1 3.25486 1.00760   4
   1  -9  -1 0.92928 0.69497   1
  -1   9   1 1.45073 0.84081   3
  -1   9   1 0.71625 0.72144   1
  -1   9   1 0.53477 0.79240   5
   1   9  -1 0.93449 0.79654   3
   1   9  -1 1.38119 0.90461   5
   1   9  -1 1.63588 0.78277   1
   0  -9  -1 74.1978 3.79031   2
   0  -9   1 80.3279 4.01192   2
   0  -9  -1 79.4387 4.12759   4
   0  -9   1 66.0816 3.92620   4
   0  -9  -1 74.8949 3.87820   1
   0   9   1 71.0188 4.08147   3
   0   9  -1 77.9666 4.41717   5
   0   9  -1 77.8818 3.95708   3
   0   9   1 75.0104 4.10211   1
   0   9  -1 79.4173 4.37763   1
   0   9   1 77.8373 4.26444   5
   1  -9   1 -0.6202 0.29992   4
  -1  -9  -1 -0.0353 0.43430   4
   1  -9   1 -0.2481 0.57067   1
   1  -9   1 1.24395 0.56469   2
  -1  -9  -1 -0.4571 0.45501   2
   1   9   1 -0.1339 0.46708   1
   1   9   1 -0.3421 0.81171   3
  -1   9  -1 -0.0298 0.53964   5
   1   9   1 0.23550 0.70062   5
  -1   9  -1 0.07746 0.56934   3
  -1   9  -1 0.77156 0.83464   1
   2  -9   1 0.04980 0.75027   4
   2  -9   1 -0.7822 0.38284   2
  -2  -9  -1 0.59931 0.64622   2
   2  -9   1 -0.0173 0.65792   1
  -2  -9  -1 0.25481 0.52357   4
   2   9   1 0.05998 0.57309   1
   2   9   1 0.65692 0.96161   3
   2   9   1 0.03838 0.79202   5
  -2   9  -1 -0.5461 0.46193   3
  -2   9  -1 0.21720 0.88004   1
  -2   9  -1 0.33011 0.60700   5
   3  -9   1 0.39423 0.44671   2
  -3  -9  -1 -0.3659 0.42286   2
   3  -9   1 0.82144 0.64300   1
   3  -9   1 0.00823 0.52655   4
  -3  -9  -1 -0.0214 0.42937   4
  -3   9  -1 -0.0652 0.66288   1
   3   9   1 1.15744 0.84501   3
   3   9   1 -0.3909 0.57988   1
   3   9   1 1.35955 1.15047   5
  -3   9  -1 -0.0261 0.56879   5
  -3   9  -1 1.11487 0.69130   3
  -4  -9  -1 64.0945 3.85491   2
   4  -9   1 56.2146 3.85790   4
   4  -9   1 53.8398 3.09109   2
   4  -9   1 64.4111 3.98914   1
  -4   9  -1 65.7392 3.79030   3
   4   9   1 55.3676 3.28522   1
  -4   9  -1 49.9872 3.94574   1
  -4   9  -1 59.4562 3.93976   5
   4   9   1 54.1123 3.80424   5
   4   9   1 56.0203 3.83300   3
  -5  -9  -1 272.624 11.5336   2
   5  -9   1 250.417 10.8222   2
   5  -9   1 263.830 11.5625   5
   5  -9   1 258.671 11.4551   4
   5  -9   1 274.823 11.6229   1
  -5   9  -1 275.548 11.8400   5
   5   9   1 276.480 11.7965   3
   5   9   1 244.811 11.3802   5
  -5   9  -1 250.503 11.2157   3
  -6  -9  -1 24.0922 2.94365   2
   6  -9   1 24.5086 3.03660   4
   6  -9   1 26.0164 3.15774   5
   6  -9   1 25.3618 3.12839   1
   6   9   1 25.9249 3.27744   3
   6   9   1 27.3188 3.22966   5
  -6   9  -1 29.9558 3.23896   3
  -6   9  -1 26.1656 3.31632   5
   7  -9   1 1.45033 1.27885   5
   7  -9   1 0.56939 1.25865   1
   7  -9   1 0.40281 1.17458   4
  -7  -9  -1 -0.0456 0.99755   2
  -7   9  -1 0.83266 0.97461   5
   7   9   1 -0.0505 0.74667   5
  -7   9  -1 -0.4856 0.90844   3
   7   9   1 -0.7691 0.56690   3
   8  -9   1 28.6031 3.70640   5
  -8  -9  -1 29.3091 3.57879   2
   8  -9   1 28.3480 3.73248   1
   8  -9   1 26.1441 3.24572   4
  -8   9  -1 16.6314 2.80189   3
   8   9   1 28.9520 3.87655   3
  -8   9  -1 27.2631 3.76028   5
   8   9   1 27.6973 3.64255   5
  -9  -9  -1 4.46217 1.80589   2
   9  -9   1 4.53740 1.66195   4
   9  -9   1 5.08462 1.97537   5
   9  -9   1 5.49439 2.07957   1
  -9   9  -1 3.28061 1.95471   5
  -9   9  -1 2.56079 1.50573   3
   9   9   1 3.51996 1.83107   3
   9   9   1 4.99326 1.69303   5
 -10  -9  -1 0.54974 1.32846   2
  10  -9   1 -0.2594 1.03252   5
  10  -9   1 0.15641 1.53405   1
 -10   9  -1 -0.5526 0.99518   3
  10   9   1 -1.2966 1.60445   3
 -10   9  -1 -0.1783 1.01324   5
  10   9   1 0.72256 1.25760   5
  11  -9   1 8.87046 2.61495   5
 -11  -9  -1 9.52915 2.69374   2
  11  -9   1 10.4067 2.76423   1
  11   9   1 6.62990 1.90508   5
 -11   9  -1 11.4908 2.86212   3
 -11   9  -1 12.0036 2.98185   5
  11   9   1 9.83422 3.06443   3
  10 -10  -1 -0.9720 1.33182   4
  10 -10  -1 1.43098 1.83032   1
 -10 -10   1 0.77539 1.57483   2
  10 -10  -1 1.99471 1.72135   5
  10  10  -1 0.47027 1.62329   5
 -10  10   1 -1.0307 1.63287   3
  10  10  -1 -0.2350 1.15406   3
 -10  10   1 1.02360 1.89130   5
   9 -10  -1 4.85513 2.15951   5
  -9 -10   1 1.76916 1.27518   2
   9 -10  -1 2.55404 1.85197   1
   9 -10  -1 -0.1089 1.34832   4
   9  10  -1 7.56749 2.06387   5
  -9  10   1 2.03725 1.67397   3
  -9  10   1 3.41737 1.85171   5
   9  10  -1 3.93378 1.62409   3
   8 -10  -1 54.4253 4.73089   1
  -8 -10   1 50.1626 4.17696   2
   8 -10  -1 46.6947 4.21108   5
   8 -10  -1 45.4083 4.01455   4
  -8  10   1 51.1878 4.49519   5
   8  10  -1 50.4867 4.44461   3
  -8  10   1 52.3228 4.51083   3
   8  10  -1 50.6856 4.46485   5
   7 -10  -1 2.52449 1.57210   1
   7 -10  -1 -1.0769 1.07176   4
   7 -10  -1 1.34442 1.04430   5
  -7 -10   1 1.94792 1.13196   2
   7  10  -1 2.18335 1.25613   3
  -7  10   1 0.28195 1.00954   5
   7  10  -1 0.50817 1.28523   5
  -7  10   1 2.10501 1.32524   3
  -6 -10   1 1.67040 0.99708   2
   6 -10  -1 0.37597 1.22108   4
   6 -10  -1 0.62875 1.18952   5
   6 -10  -1 0.67221 0.94968   1
   6  10  -1 2.00389 1.04411   3
   6  10  -1 -0.1974 0.94002   1
  -6  10   1 0.15895 1.20179   5
   6  10  -1 -0.1783 1.12638   5
  -6  10   1 1.75287 1.09755   3
   5 -10  -1 1.12986 0.99897   1
   5 -10  -1 -0.9772 0.57378   5
   5 -10  -1 -1.7237 0.70055   4
  -5 -10   1 -0.1941 0.64022   2
  -5  10   1 -0.0748 0.60936   3
   5  10  -1 -0.1685 0.80585   3
   5  10  -1 -0.9708 0.62986   5
   5  10  -1 -0.5855 0.84510   1
  -5  10   1 -0.7803 0.54612   5
  -4 -10   1 95.5596 5.28107   2
   4 -10  -1 89.6977 5.38419   4
   4 -10  -1 90.5028 5.45552   1
   4  10  -1 102.515 5.42507   3
   4  10  -1 95.2950 5.32176   1
  -4  10   1 97.3752 5.60197   5
   4  10  -1 101.465 5.82538   5
  -4  10   1 94.1702 5.26515   3
   3 -10  -1 -0.6964 0.52592   4
  -3 -10   1 1.87375 0.86838   2
   3 -10  -1 0.39715 0.49792   2
   3 -10  -1 0.75121 0.74904   1
  -3 -10   1 1.38377 0.66226   4
  -3  10   1 1.40840 0.92779   5
   3  10  -1 1.04911 0.89314   3
  -3  10   1 0.17886 0.82689   3
   3  10  -1 1.57935 1.10242   1
   3  10  -1 1.10905 1.45887   5
  -2 -10   1 2.25738 0.85790   2
  -2 -10   1 4.30540 0.97487   4
   2 -10  -1 1.68727 0.93812   1
   2 -10  -1 2.70635 0.98842   4
   2 -10  -1 2.81464 0.75016   2
  -2  10   1 4.59552 1.13057   3
  -2  10   1 2.45749 1.10733   1
  -2  10   1 3.14101 1.05601   5
   2  10  -1 4.91639 1.22682   3
   2  10  -1 1.04756 1.03591   1
   2  10  -1 3.82974 1.62108   5
  -1 -10   1 6.03253 1.19637   2
  -1 -10   1 6.84962 1.29798   4
   1 -10  -1 5.99307 1.29734   1
   1 -10  -1 4.32144 0.95403   2
   1 -10  -1 5.95502 1.30076   4
  -1  10   1 3.98459 1.21345   5
  -1  10   1 4.20242 1.28972   1
   1  10  -1 8.58112 1.85076   5
   1  10  -1 3.44197 1.09950   1
  -1  10   1 5.43625 1.22636   3
   1  10  -1 8.68760 1.48931   3
   0 -10   1 22.3742 1.96223   2
   0 -10  -1 27.4925 2.33355   4
   0 -10   1 26.4819 2.29391   4
   0 -10  -1 28.2019 2.08617   1
   0 -10  -1 26.1400 2.05428   2
   0  10  -1 25.1196 2.18629   3
   0  10  -1 25.4296 2.89792   5
   0  10  -1 27.2332 2.39506   1
   0  10   1 30.3839 2.51649   3
   0  10   1 27.9959 2.43743   5
   0  10   1 24.5644 2.16720   1
   1 -10   1 24.6519 2.07759   2
   1 -10   1 31.7238 2.49218   1
   1 -10   1 26.9500 2.78492   4
  -1 -10  -1 29.5526 2.27872   2
  -1 -10  -1 30.5066 2.36055   4
   1  10   1 25.7242 2.21149   1
  -1  10  -1 31.2558 2.34273   3
   1  10   1 33.7014 2.60278   3
  -1  10  -1 27.9863 3.02059   1
  -1  10  -1 26.5867 2.91804   5
   1  10   1 28.4204 3.08894   5
  -2 -10  -1 2.88559 0.90042   4
  -2 -10  -1 1.50303 0.70348   2
   2 -10   1 1.86789 0.89800   4
   2 -10   1 2.12320 0.77935   2
   2 -10   1 3.58437 1.20890   1
   2  10   1 1.75872 0.83941   1
  -2  10  -1 1.96395 0.95666   5
  -2  10  -1 2.49465 1.25290   1
   2  10   1 1.09626 1.02189   5
   2  10   1 2.49184 1.27879   3
  -2  10  -1 1.16438 0.84565   3
   3 -10   1 37.7151 2.50855   2
  -3 -10  -1 38.7985 2.49534   4
   3 -10   1 39.3319 3.19106   4
  -3 -10  -1 39.0682 2.99443   2
   3 -10   1 44.6127 3.23215   1
   3  10   1 41.1561 3.46940   5
  -3  10  -1 46.5109 3.41955   5
  -3  10  -1 37.9856 2.79579   3
   3  10   1 38.9114 3.24862   3
   3  10   1 38.0076 2.77766   1
  -3  10  -1 38.0179 3.87375   1
   4 -10   1 101.631 5.09590   2
   4 -10   1 109.140 6.00103   1
  -4 -10  -1 111.752 5.93196   2
   4 -10   1 105.403 5.94280   4
  -4  10  -1 111.953 5.70226   3
   4  10   1 120.240 6.28608   3
  -4  10  -1 113.083 6.41719   1
   4  10   1 122.587 6.39415   5
  -4  10  -1 104.966 6.03939   5
   5 -10   1 30.4670 3.45607   1
   5 -10   1 28.7328 3.38249   4
  -5 -10  -1 30.9804 3.27406   2
   5  10   1 36.6919 3.79160   5
  -5  10  -1 32.2333 3.29784   3
   5  10   1 32.2516 3.57642   3
  -5  10  -1 32.2585 3.88159   1
  -5  10  -1 34.4657 3.79357   5
   6 -10   1 6.44825 1.90757   1
  -6 -10  -1 8.76887 1.93861   2
   6 -10   1 5.13874 1.55688   4
   6 -10   1 7.17117 1.78232   5
   6  10   1 6.06779 1.63462   5
  -6  10  -1 7.47855 1.83329   5
   6  10   1 9.07381 2.09222   3
  -6  10  -1 5.98719 1.62456   3
  -7 -10  -1 -0.6787 0.97297   2
   7 -10   1 0.61477 0.93143   1
   7 -10   1 -0.4081 0.70602   4
   7 -10   1 1.47164 1.43718   5
   7  10   1 0.17321 0.79084   5
   7  10   1 0.12546 1.12605   3
  -7  10  -1 1.32906 0.99451   3
  -7  10  -1 -0.4885 1.25555   5
  -8 -10  -1 9.31242 2.13553   2
   8 -10   1 13.3932 2.72854   1
   8 -10   1 11.6699 2.56491   5
   8 -10   1 12.1919 2.33152   4
   8  10   1 10.3534 2.28865   5
  -8  10  -1 13.6669 2.75683   5
   8  10   1 9.22848 2.30618   3
  -8  10  -1 12.9955 2.47402   3
   9 -10   1 4.25209 1.90559   1
   9 -10   1 2.00544 1.27518   5
  -9 -10  -1 -0.4899 1.38318   2
   9 -10   1 1.45838 1.49671   4
  -9  10  -1 3.02217 1.62370   5
   9  10   1 2.71446 1.38207   5
  -9  10  -1 -0.2626 1.21224   3
   9  10   1 2.08230 1.78313   3
 -10 -10  -1 1.22850 1.33489   2
  10 -10   1 0.70242 1.38216   4
  10 -10   1 1.83926 1.43756   1
  10 -10   1 1.26515 1.60887   5
 -10  10  -1 1.39299 1.31934   5
  10  10   1 2.00844 1.63542   3
  10  10   1 5.53463 2.03881   5
 -10  10  -1 1.22943 1.35111   3
  10 -11  -1 4.26119 2.14059   4
  10 -11  -1 7.13323 2.31017   1
 -10 -11   1 5.68240 2.20330   2
  10 -11  -1 2.27340 1.59605   5
  10  11  -1 13.7897 2.95252   5
 -10  11   1 5.96305 2.25417   5
 -10  11   1 3.31175 1.71971   3
  10  11  -1 2.27613 2.11149   3
   9 -11  -1 26.2755 4.13600   5
   9 -11  -1 25.5167 3.85513   1
   9 -11  -1 23.1931 3.56529   4
  -9 -11   1 26.9512 3.66162   2
  -9  11   1 18.7601 3.68537   5
  -9  11   1 25.4993 3.89275   3
   9  11  -1 21.2209 3.69189   3
   9  11  -1 26.6202 4.07561   5
   8 -11  -1 18.1518 3.09950   5
   8 -11  -1 13.5117 2.87002   4
   8 -11  -1 13.8342 3.04219   1
  -8 -11   1 15.1964 2.79211   2
  -8  11   1 14.1407 3.05734   5
   8  11  -1 13.0560 2.70635   3
   8  11  -1 19.5879 3.11648   5
  -8  11   1 17.7087 3.01568   3
   7 -11  -1 -2.1230 0.66934   5
   7 -11  -1 -3.5559 0.92800   4
  -7 -11   1 -1.2670 0.69143   2
   7 -11  -1 0.77442 1.18850   1
   7  11  -1 -0.3038 1.02621   3
  -7  11   1 -0.6468 1.06202   3
  -7  11   1 0.28939 1.14084   5
   7  11  -1 0.31025 0.77171   5
  -6 -11   1 28.4232 3.31759   2
   6 -11  -1 30.8091 3.71042   4
   6 -11  -1 24.8864 3.47975   5
   6 -11  -1 28.6600 3.72325   1
   6  11  -1 26.0322 3.51757   5
  -6  11   1 25.1230 3.30596   3
  -6  11   1 27.8624 3.81112   5
   6  11  -1 23.0726 3.20396   3
   5 -11  -1 23.9548 3.19071   1
  -5 -11   1 22.4499 2.89518   2
   5 -11  -1 24.8903 3.30987   4
   5  11  -1 28.4498 3.22878   1
  -5  11   1 32.3239 3.46409   3
   5  11  -1 28.5962 3.23083   3
   5  11  -1 28.9065 3.63612   5
  -5  11   1 26.5245 3.43960   5
  -4 -11   1 0.35642 0.80861   2
   4 -11  -1 0.33481 0.79764   4
   4 -11  -1 1.04906 0.94168   1
   4  11  -1 0.59947 0.82961   3
   4  11  -1 -2.1357 0.88016   1
  -4  11   1 0.14143 0.69768   3
   4  11  -1 0.33646 0.99654   5
  -4  11   1 -0.8156 0.53470   5
   3 -11  -1 28.4261 3.13795   1
  -3 -11   1 38.7053 3.00762   2
   3 -11  -1 31.8686 3.38602   4
  -3 -11   1 30.9602 2.31549   4
   3  11  -1 29.2642 3.23528   1
   3  11  -1 36.7635 3.90690   5
   3  11  -1 26.9070 2.93645   3
  -3  11   1 37.1124 3.18555   5
  -3  11   1 39.0544 2.93159   3
   2 -11  -1 5.18572 1.39541   4
   2 -11  -1 5.36035 1.31635   1
  -2 -11   1 3.83542 1.10950   2
   2 -11  -1 2.76211 0.85473   2
  -2 -11   1 4.13103 1.07309   4
  -2  11   1 5.15980 1.47143   1
  -2  11   1 2.36251 1.19568   3
  -2  11   1 2.56919 1.33927   5
   2  11  -1 3.71514 1.72480   5
   2  11  -1 3.19808 1.21583   3
   2  11  -1 2.80941 1.31060   1
  -1 -11   1 55.1213 3.53527   2
   1 -11  -1 59.1011 3.76851   4
   1 -11  -1 51.1975 3.44372   1
   1 -11  -1 55.0371 3.18866   2
  -1 -11   1 53.3694 3.46286   4
   1  11  -1 52.7550 3.74191   1
   1  11  -1 57.8035 3.51526   3
   1  11  -1 60.2522 4.05376   5
  -1  11   1 53.6499 3.73055   5
  -1  11   1 53.0218 3.55835   3
  -1  11   1 53.0538 3.71736   1
   0 -11  -1 83.0341 4.39358   1
   0 -11   1 76.2498 4.55011   4
   0 -11  -1 78.3752 4.25109   2
   0 -11   1 78.1945 4.37866   2
   0 -11  -1 89.7948 4.79048   4
   0  11   1 82.5730 4.84584   5
   0  11   1 75.1063 4.53798   1
   0  11   1 74.0159 4.60049   3
   0  11  -1 85.0225 4.93549   1
   0  11  -1 80.1362 4.87774   5
   0  11  -1 87.8834 4.57114   3
   1 -11   1 40.1864 3.04439   1
   1 -11   1 38.9622 3.04831   4
  -1 -11  -1 41.5438 2.85574   2
  -1 -11  -1 38.4892 2.92496   4
   1 -11   1 47.3639 2.94749   2
   1  11   1 36.4900 3.16185   5
  -1  11  -1 45.5994 3.05430   3
  -1  11  -1 38.4329 3.26422   1
   1  11   1 42.1528 3.32893   3
   1  11   1 39.0971 2.92711   1
  -1  11  -1 45.9230 3.51688   5
  -2 -11  -1 1.73165 0.98206   2
  -2 -11  -1 -0.0614 0.61783   4
   2 -11   1 1.11733 0.75779   2
   2 -11   1 -0.9206 0.85274   4
   2 -11   1 -0.0446 0.55964   1
  -2  11  -1 -0.8843 0.57431   1
   2  11   1 0.75882 1.16726   3
  -2  11  -1 0.82281 0.91350   3
   2  11   1 0.80221 1.06211   5
   2  11   1 1.19179 0.79605   1
  -2  11  -1 -0.0451 0.72972   5
  -3 -11  -1 35.9315 2.45361   4
  -3 -11  -1 32.7128 2.72708   2
   3 -11   1 37.1078 2.52380   2
   3 -11   1 30.9483 3.27479   1
   3 -11   1 30.7563 3.27391   4
  -3  11  -1 33.8657 2.73121   3
   3  11   1 26.5063 3.29231   5
   3  11   1 33.0333 2.62554   1
  -3  11  -1 37.5694 3.10750   5
  -3  11  -1 28.0893 3.42447   1
   3  11   1 32.8139 3.44792   3
   4 -11   1 0.28614 0.66797   1
   4 -11   1 -1.0758 0.82023   4
  -4 -11  -1 -1.2701 0.53499   2
   4 -11   1 -0.1947 0.52693   2
   4  11   1 -0.1449 0.68704   3
   4  11   1 -0.3263 0.94796   5
  -4  11  -1 0.11173 1.10280   5
  -4  11  -1 -0.1009 0.81454   3
  -4  11  -1 -1.3922 0.57180   1
  -5 -11  -1 12.3433 2.27147   2
   5 -11   1 8.92081 2.05291   1
   5 -11   1 11.3278 2.16120   4
  -5  11  -1 15.9490 2.76818   5
   5  11   1 12.1156 2.30589   3
   5  11   1 14.7514 2.70755   5
  -5  11  -1 9.73946 2.24923   1
  -5  11  -1 11.6168 2.03319   3
   6 -11   1 28.5784 3.55512   4
  -6 -11  -1 23.2685 3.13720   2
   6 -11   1 25.8241 3.39110   1
   6  11   1 23.9419 3.27371   3
  -6  11  -1 20.1735 3.34721   1
  -6  11  -1 28.2505 3.34167   3
   6  11   1 22.3546 3.15659   5
  -6  11  -1 26.9714 3.55340   5
  -7 -11  -1 0.36832 0.88351   2
   7 -11   1 2.16887 1.22695   1
   7 -11   1 1.29232 1.41953   5
   7 -11   1 0.41663 0.96841   4
  -7  11  -1 2.63535 1.44727   1
  -7  11  -1 0.07051 1.05840   3
  -7  11  -1 0.26384 1.35736   5
   7  11   1 1.58843 1.28897   5
   7  11   1 1.45754 1.36433   3
   8 -11   1 0.95197 1.63944   5
   8 -11   1 3.08432 1.55022   1
  -8 -11  -1 2.44569 1.46164   2
   8 -11   1 2.86950 1.67944   4
   8  11   1 7.03839 1.90884   5
   8  11   1 1.49323 1.65697   3
  -8  11  -1 -0.0806 1.12765   1
  -8  11  -1 4.86631 1.79064   3
  -8  11  -1 4.88631 2.25312   5
   9 -11   1 0.67348 1.31800   1
   9 -11   1 -0.6984 1.26680   4
   9 -11   1 1.81272 1.53348   5
  -9 -11  -1 -1.0548 1.55847   2
  -9  11  -1 -0.6386 1.32501   5
   9  11   1 1.69001 1.45146   3
   9  11   1 1.14007 0.98826   5
  -9  11  -1 1.74594 1.47463   1
  -9  11  -1 2.19037 1.73546   3
  10 -11   1 3.35543 2.10677   5
  10 -11   1 4.01969 1.71687   1
  10 -11   1 3.02742 1.73562   4
 -10 -11  -1 1.92386 1.63765   2
 -10  11  -1 1.79619 2.18146   5
  10  11   1 6.11596 2.16606   5
 -10  11  -1 4.79907 1.95825   3
  10  11   1 4.11386 2.35017   3
 -10  11  -1 2.43438 1.77713   1
   9 -12  -1 -1.6157 1.10523   1
   9 -12  -1 1.54182 1.82945   4
  -9 -12   1 1.43015 1.38197   2
   9 -12  -1 0.21237 1.26127   5
   9  12  -1 1.71629 1.66779   3
  -9  12   1 0.87054 1.68377   3
   9  12  -1 3.59646 1.84048   5
  -9  12   1 0.26202 1.34910   5
  -8 -12   1 -1.3489 1.24200   2
   8 -12  -1 -0.7115 1.34999   4
   8 -12  -1 0.24266 1.15872   5
   8 -12  -1 0.29114 1.31990   1
  -8  12   1 2.00777 1.36130   3
   8  12  -1 1.16679 1.40022   3
   8  12  -1 1.79425 1.25141   5
  -8  12   1 -0.7700 0.85955   5
   7 -12  -1 6.34940 1.94874   5
   7 -12  -1 7.24717 2.30180   1
  -7 -12   1 4.35737 1.60614   2
   7 -12  -1 3.97062 1.65417   4
   7  12  -1 5.25554 1.82289   5
   7  12  -1 4.75299 1.71065   3
  -7  12   1 2.78082 1.61741   3
  -7  12   1 8.80842 2.23544   5
   6 -12  -1 3.58844 1.53839   4
   6 -12  -1 6.19913 1.92391   1
  -6 -12   1 8.07154 2.06697   2
  -6  12   1 7.03771 1.94746   3
   6  12  -1 5.11216 1.80053   5
  -6  12   1 4.48117 1.54820   5
   6  12  -1 3.56398 1.55066   3
   5 -12  -1 22.0922 3.14502   1
   5 -12  -1 23.5127 3.27185   4
  -5 -12   1 26.3646 3.15787   2
   5  12  -1 19.1848 2.77293   3
  -5  12   1 22.9202 3.27882   5
   5  12  -1 18.9617 3.00938   5
   5  12  -1 23.0500 3.45067   1
  -5  12   1 25.5313 3.15136   3
   4 -12  -1 45.2048 3.67959   1
  -4 -12   1 52.0122 3.79579   2
   4 -12  -1 47.4337 3.86696   4
  -4  12   1 52.8193 3.79330   3
   4  12  -1 49.7920 4.33392   5
  -4  12   1 44.1251 3.77037   5
   4  12  -1 48.3504 3.86980   1
   4  12  -1 50.3697 3.76990   3
  -3 -12   1 2.37257 1.28598   2
   3 -12  -1 5.67786 1.73024   4
  -3 -12   1 3.41295 1.06172   4
   3 -12  -1 5.01219 1.61577   1
   3  12  -1 4.15149 1.39067   1
   3  12  -1 4.88573 2.04080   5
   3  12  -1 4.69087 1.47720   3
  -3  12   1 3.71455 1.55442   1
  -3  12   1 1.45054 0.96465   5
  -3  12   1 1.10395 1.15400   3
   2 -12  -1 27.2449 2.08671   2
   2 -12  -1 29.8363 3.24767   4
  -2 -12   1 22.7373 2.50388   4
  -2 -12   1 23.5579 2.79730   2
   2 -12  -1 32.6049 3.33068   1
   2  12  -1 27.6111 3.40828   5
  -2  12   1 24.0892 3.06054   1
   2  12  -1 24.3906 2.81785   3
  -2  12   1 31.4569 2.71439   3
   2  12  -1 22.4203 2.96048   1
  -2  12   1 28.7794 3.32430   5
  -1 -12   1 15.3618 2.21608   2
   1 -12  -1 23.4209 2.33412   2
  -1 -12   1 20.3398 2.44762   4
   1 -12  -1 23.3563 2.85022   4
   1 -12  -1 18.8652 2.37090   1
   1  12  -1 24.8725 2.98777   1
   1  12  -1 15.6144 2.52476   5
  -1  12   1 17.6952 2.61563   5
  -1  12   1 16.4120 2.37583   1
   1  12  -1 17.6430 2.35818   3
  -1  12   1 18.1890 2.51549   3
   0 -12  -1 2.08655 1.04131   1
   0 -12   1 2.68798 1.08758   2
   0 -12   1 3.74487 1.25689   4
   0 -12  -1 1.10936 0.86132   2
   0 -12  -1 2.10021 1.03038   4
   0  12   1 1.38455 1.36543   5
   0  12  -1 1.86008 1.11575   1
   0  12  -1 1.26223 1.14564   3
   0  12   1 2.64459 1.11712   1
   0  12   1 1.56410 1.01528   3
   0  12  -1 0.37931 0.97885   5
  -1 -12  -1 -0.2039 0.69061   2
   1 -12   1 0.92060 0.99772   1
  -1 -12  -1 -0.6630 0.43097   4
   1 -12   1 -0.0066 0.63435   2
   1 -12   1 1.02507 1.00233   4
  -1  12  -1 -0.9015 0.53904   3
  -1  12  -1 0.27069 1.09397   5
   1  12   1 1.27963 0.97941   3
   1  12   1 -0.3691 1.20187   5
   1  12   1 -0.5309 0.67232   1
  -1  12  -1 0.20293 1.01312   1
   2 -12   1 2.70764 0.95047   2
  -2 -12  -1 2.07064 0.98521   4
   2 -12   1 2.48559 1.07493   1
   2 -12   1 6.28363 1.58633   4
  -2 -12  -1 3.63741 1.25063   2
  -2  12  -1 3.06992 1.39092   5
  -2  12  -1 2.58463 1.07768   3
   2  12   1 1.82317 1.13394   3
   2  12   1 2.92676 1.13647   1
  -2  12  -1 5.26335 1.54947   1
   2  12   1 2.42215 1.37610   5
   3 -12   1 65.6735 4.68593   4
   3 -12   1 85.2450 4.94999   1
  -3 -12  -1 69.6307 4.58305   2
   3 -12   1 71.6772 4.10827   2
  -3 -12  -1 84.2658 4.41288   4
  -3  12  -1 72.9137 4.98382   5
  -3  12  -1 81.3226 4.64897   3
  -3  12  -1 78.3751 5.18892   1
   3  12   1 75.3198 4.96367   3
   3  12   1 72.6243 4.96908   5
   4 -12   1 0.94181 0.84604   1
  -4 -12  -1 0.57495 1.07099   2
   4 -12   1 -0.3224 0.84623   4
  -4  12  -1 -0.2668 0.92948   3
  -4  12  -1 0.84887 0.93637   5
  -4  12  -1 -0.3432 0.75396   1
   4  12   1 1.00973 0.94078   3
   4  12   1 -0.1594 1.53004   5
   5 -12   1 -0.2083 0.90701   4
  -5 -12  -1 0.15616 0.88033   2
   5 -12   1 -0.0369 0.79137   1
  -5  12  -1 1.64702 1.27199   1
  -5  12  -1 2.33190 1.26953   5
   5  12   1 -1.0901 0.95302   3
   5  12   1 0.81671 1.15866   5
  -5  12  -1 -0.6440 0.62896   3
  -6 -12  -1 22.6597 3.20998   2
   6 -12   1 30.1747 3.71628   1
   6 -12   1 22.1300 3.14366   4
  -6  12  -1 19.0700 2.77569   3
  -6  12  -1 20.4892 3.34228   1
   6  12   1 24.3720 3.54325   5
   6  12   1 22.9935 3.33925   3
  -6  12  -1 22.0383 3.40402   5
  -7 -12  -1 90.5147 5.94658   2
   7 -12   1 92.6889 6.12999   1
   7 -12   1 82.0884 5.80970   4
  -7  12  -1 81.9057 5.60530   3
  -7  12  -1 77.3317 6.11289   1
   7  12   1 77.3087 5.69638   5
   7  12   1 86.8392 6.12923   3
  -7  12  -1 85.4834 6.15128   5
   8 -12   1 27.4640 3.92769   1
   8 -12   1 27.3197 3.96295   4
  -8 -12  -1 23.7196 3.64130   2
  -8  12  -1 30.5662 4.42093   1
   8  12   1 21.5379 3.50452   3
   8  12   1 23.7600 3.68160   5
  -8  12  -1 24.4581 3.55513   3
  -8  12  -1 33.4276 4.49187   5
   9 -12   1 11.6458 2.87155   5
  -9 -12  -1 6.96650 2.60604   2
   9 -12   1 11.2232 2.60782   1
   9 -12   1 14.0778 2.96062   4
  -9  12  -1 16.0902 3.33272   1
  -9  12  -1 8.88516 2.43396   3
  -9  12  -1 13.2106 3.22126   5
   9  12   1 15.2898 3.02934   5
   9  12   1 13.1344 3.14469   3
   9 -13  -1 2.77191 1.76297   5
   9 -13  -1 1.02790 1.91846   1
   9 -13  -1 2.40358 1.68970   4
  -9 -13   1 1.35120 1.55236   2
   9  13  -1 3.27085 1.41262   5
  -9  13   1 3.80623 1.90736   5
  -9  13   1 1.42129 1.46492   3
   9  13  -1 5.06964 2.11669   3
  -8 -13   1 5.60940 2.16845   2
   8 -13  -1 8.49541 2.28794   4
   8 -13  -1 11.9462 2.92476   1
   8  13  -1 11.0357 2.75848   5
  -8  13   1 5.60207 1.97339   3
  -8  13   1 6.72208 2.27726   5
   8  13  -1 6.75704 2.24428   3
  -7 -13   1 -1.0781 0.90599   2
   7 -13  -1 0.29276 1.18364   4
   7 -13  -1 0.53004 1.01779   1
   7  13  -1 2.31552 1.32533   3
  -7  13   1 -1.9334 0.67535   3
   7  13  -1 3.43565 1.95240   5
  -7  13   1 0.92824 1.64525   5
   6 -13  -1 2.87713 1.59548   4
   6 -13  -1 5.33200 1.95168   1
  -6 -13   1 3.05502 1.61143   2
   6  13  -1 6.55664 1.84454   3
  -6  13   1 3.80131 1.67595   5
  -6  13   1 1.44530 1.28569   3
   6  13  -1 4.32813 1.99380   5
   5 -13  -1 2.28025 1.25894   1
  -5 -13   1 2.84588 1.26056   2
   5 -13  -1 0.39854 1.05904   4
  -5  13   1 2.85558 1.42314   3
   5  13  -1 3.00377 1.46882   3
  -5  13   1 3.15292 1.55814   1
  -5  13   1 1.56184 1.51611   5
   5  13  -1 1.56075 1.74345   5
  -4 -13   1 3.84240 1.47201   2
   4 -13  -1 4.12236 1.67487   1
   4 -13  -1 7.52130 2.05729   4
  -4  13   1 4.99695 1.97260   1
  -4  13   1 8.46252 1.97554   3
  -4  13   1 1.56291 1.56241   5
   4  13  -1 3.95445 1.40948   3
   4  13  -1 4.35556 2.14250   5
   4  13  -1 4.69683 1.91251   1
  -3 -13   1 1.00786 1.15960   2
   3 -13  -1 -2.6703 0.78310   4
   3 -13  -1 1.68561 1.07917   1
   3  13  -1 1.29421 1.83243   5
  -3  13   1 -0.6128 0.78120   1
  -3  13   1 -0.2991 1.19942   5
   3  13  -1 3.58588 1.36264   1
   3  13  -1 0.77017 1.02317   3
  -3  13   1 -0.9554 1.07105   3
   2 -13  -1 -0.1003 1.15602   4
  -2 -13   1 0.59427 0.88856   4
  -2 -13   1 0.03640 0.71605   2
   2 -13  -1 -0.8439 0.62029   1
  -2  13   1 0.27738 1.11204   3
  -2  13   1 -0.3395 1.01172   5
  -2  13   1 -0.1721 0.69693   1
   2  13  -1 1.12842 1.33762   5
   2  13  -1 -1.0698 0.61282   3
   2  13  -1 1.14680 0.96805   1
  -1 -13   1 -0.6397 0.91542   2
   1 -13  -1 0.71610 1.10858   4
  -1 -13   1 0.00145 0.84859   4
   1 -13  -1 -0.2473 0.68193   2
   1 -13  -1 -0.0229 1.03021   1
  -1  13   1 -0.7572 0.91397   1
   1  13  -1 -0.8447 0.77771   3
  -1  13   1 1.20263 1.33894   3
   1  13  -1 0.97379 1.13896   1
   1  13  -1 0.38737 1.50639   5
  -1  13   1 0.56436 1.26691   5
   0 -13   1 15.6347 2.16017   2
   0 -13   1 13.2792 2.19565   4
   0 -13  -1 11.6540 2.05976   4
   0 -13  -1 15.8485 2.22116   1
   0 -13  -1 13.3999 1.96817   2
   0  13  -1 16.6203 2.58179   1
   0  13   1 13.1450 2.22871   1
   0  13  -1 9.66591 2.29443   5
   0  13  -1 15.0742 2.26387   3
   0  13   1 18.3847 2.85307   5
   0  13   1 16.2061 2.43512   3
  -1 -13  -1 0.32545 0.69798   4
   1 -13   1 -0.2377 0.65392   4
   1 -13   1 1.66332 0.94593   2
  -1 -13  -1 0.13299 0.87869   2
  -1  13  -1 0.76959 1.20082   1
  -1  13  -1 0.01993 1.26859   5
   1  13   1 -1.2967 1.05104   3
   1  13   1 -0.1548 0.79178   1
   1  13   1 0.20970 1.02574   5
  -1  13  -1 0.67084 1.14991   3
  -2 -13  -1 17.6115 2.31717   4
   2 -13   1 19.3322 2.30353   2
   2 -13   1 25.1371 3.03230   1
  -2 -13  -1 16.6779 2.44775   2
   2 -13   1 14.9013 2.54745   4
   2  13   1 25.1038 2.86980   1
   2  13   1 18.1496 3.17373   5
  -2  13  -1 15.9643 2.69674   5
   2  13   1 19.5832 2.74821   3
  -2  13  -1 19.7066 2.90858   1
  -2  13  -1 22.6074 2.73402   3
  -3 -13  -1 17.0225 2.43308   2
   3 -13   1 15.4441 2.35213   2
   3 -13   1 24.1425 3.02319   1
   3 -13   1 12.4424 2.49619   4
   3  13   1 14.5231 2.78601   5
  -3  13  -1 15.7355 2.80937   1
  -3  13  -1 20.7606 3.05287   5
  -3  13  -1 23.6717 2.80560   3
   3  13   1 17.4589 2.78432   3
   4 -13   1 26.2463 3.43193   4
  -4 -13  -1 21.3774 2.89548   2
   4 -13   1 24.0607 3.29739   1
  -4  13  -1 23.8183 3.33415   5
  -4  13  -1 27.0126 3.21969   3
  -4  13  -1 21.7711 3.51132   1
   4  13   1 29.8721 3.99808   5
   4  13   1 21.9260 3.04456   3
  -5 -13  -1 30.4783 3.55959   2
   5 -13   1 33.2399 3.88477   1
   5 -13   1 28.8506 3.69886   4
  -5  13  -1 28.7339 3.77584   5
   5  13   1 27.6019 3.80656   5
   5  13   1 25.2007 3.44114   3
  -5  13  -1 27.7573 3.85292   1
  -5  13  -1 35.6882 3.62962   3
   6 -13   1 24.2104 3.59909   4
  -6 -13  -1 26.0841 3.56018   2
   6 -13   1 24.6421 3.58562   1
  -6  13  -1 23.6019 3.20831   3
   6  13   1 21.1852 3.23213   3
  -6  13  -1 18.9953 3.49083   1
   6  13   1 24.4848 3.56510   5
  -6  13  -1 23.4676 3.72617   5
   7 -13   1 7.56110 2.34648   1
  -7 -13  -1 10.0610 2.45584   2
   7 -13   1 12.3008 2.58527   4
  -7  13  -1 7.11103 2.15013   5
  -7  13  -1 8.50441 2.23536   3
  -7  13  -1 8.35876 2.67499   1
   7  13   1 9.82737 2.40081   5
   7  13   1 10.7890 2.54286   3
   8 -13   1 1.41437 1.39287   4
   8 -13   1 1.42090 1.39222   1
  -8 -13  -1 1.48584 1.72638   2
   8  13   1 0.46781 0.97180   5
  -8  13  -1 1.03532 1.42840   1
  -8  13  -1 0.37539 1.49743   3
   8  13   1 1.51042 1.64503   3
  -8  13  -1 0.78322 1.35762   5
   9 -13   1 -0.1658 1.08356   4
  -9 -13  -1 -0.9572 1.10017   2
   9 -13   1 -1.7035 0.86916   1
  -9  13  -1 0.04839 1.82103   5
  -9  13  -1 2.54668 1.69863   1
   9  13   1 4.54811 1.76495   5
   9  13   1 1.77365 1.59405   3
  -9  13  -1 2.49954 1.89563   3
  -8 -14   1 25.3791 3.99943   2
   8 -14  -1 36.1882 4.79589   1
   8 -14  -1 31.3051 4.33049   4
  -8  14   1 26.9648 3.94833   3
  -8  14   1 33.9800 4.80881   1
   8  14  -1 23.3675 3.94053   5
  -8  14   1 31.4274 4.81990   5
   8  14  -1 29.3349 4.24515   3
   7 -14  -1 2.09971 1.78342   4
  -7 -14   1 -1.3496 1.09352   2
   7 -14  -1 0.36220 1.23685   1
   7  14  -1 0.09036 1.48160   5
   7  14  -1 1.68879 1.08205   3
  -7  14   1 0.68506 1.07752   3
  -7  14   1 -0.8772 1.19591   1
  -7  14   1 -0.1369 1.65491   5
   6 -14  -1 -1.1544 0.94697   4
  -6 -14   1 -0.6243 1.36027   2
   6 -14  -1 1.22269 1.59265   1
   6  14  -1 -2.1857 1.26638   5
  -6  14   1 -2.3236 1.05864   3
  -6  14   1 0.81733 1.62999   5
   6  14  -1 0.35005 0.94957   3
  -6  14   1 0.37418 1.58608   1
   5 -14  -1 -0.6802 0.98619   4
   5 -14  -1 2.48337 1.57485   1
  -5 -14   1 0.09090 1.04829   2
   5  14  -1 3.43848 1.42114   3
  -5  14   1 2.89061 1.70202   1
   5  14  -1 1.43539 1.94919   5
  -5  14   1 2.35659 1.31316   3
  -5  14   1 2.45429 1.53535   5
   4 -14  -1 30.8530 3.87581   1
   4 -14  -1 26.4786 3.73672   4
  -4 -14   1 29.6168 3.54462   2
  -4  14   1 31.0452 3.92763   5
  -4  14   1 30.4390 4.09211   1
   4  14  -1 27.7911 3.39749   3
   4  14  -1 27.7877 4.08076   5
  -4  14   1 26.6060 3.46139   3
   3 -14  -1 2.05566 1.52469   4
   3 -14  -1 1.07270 1.12358   1
  -3 -14   1 0.18350 1.21947   2
   3  14  -1 1.02699 1.36891   1
   3  14  -1 -0.3356 1.72079   5
  -3  14   1 1.69529 1.40171   1
   3  14  -1 3.46226 1.46395   3
  -3  14   1 -1.2403 0.74887   5
  -3  14   1 -0.8293 0.85417   3
   2 -14  -1 31.7418 3.47893   1
   2 -14  -1 26.2090 3.38163   4
  -2 -14   1 24.2420 3.00020   2
  -2 -14   1 21.9528 2.72556   4
   2  14  -1 21.4973 3.53810   5
  -2  14   1 23.8386 3.31747   1
  -2  14   1 26.8467 3.32135   3
  -2  14   1 33.6899 3.94728   5
   2  14  -1 31.6412 3.39962   3
   2  14  -1 18.0101 2.94332   1
  -1 -14   1 0.56849 0.81583   4
   1 -14  -1 1.04420 1.13772   1
   1 -14  -1 -0.9072 0.77172   2
   1 -14  -1 0.80593 1.26609   4
  -1 -14   1 -1.5119 0.80739   2
   1  14  -1 -1.9353 1.09842   3
   1  14  -1 -0.1842 1.21380   5
  -1  14   1 1.13882 1.43756   5
  -1  14   1 -2.0365 1.09948   3
  -1  14   1 0.19054 1.17825   1
   1  14  -1 0.47981 0.91940   1
   0 -14   1 7.80819 1.89105   4
   0 -14   1 6.91703 1.66977   2
   0 -14  -1 9.91688 2.03924   4
   0 -14  -1 7.18417 1.62166   2
   0  14   1 8.55509 2.37937   5
   0  14   1 5.59881 1.67997   3
   0  14  -1 9.61772 2.17629   1
   0  14  -1 7.30086 1.72141   3
   0  14   1 5.52086 1.69266   1
   0  14  -1 10.4934 2.40558   5
  -1 -14  -1 3.03811 1.13581   2
   1 -14   1 2.17152 1.38162   4
  -1 -14  -1 5.31520 1.55463   4
   1 -14   1 1.14125 0.94859   2
   1  14   1 1.79000 1.24135   1
   1  14   1 3.19685 1.72234   3
   1  14   1 0.69524 1.71623   5
  -1  14  -1 2.65472 1.42354   1
  -1  14  -1 0.41631 1.57938   5
  -1  14  -1 5.78506 1.68049   3
   2 -14   1 28.3600 3.51418   4
  -2 -14  -1 27.7553 3.20875   2
   2 -14   1 30.7034 2.65298   2
  -2 -14  -1 27.6891 3.04966   4
   2 -14   1 25.0422 3.24513   1
  -2  14  -1 30.9116 3.37042   3
   2  14   1 28.4840 3.56350   3
  -2  14  -1 31.9599 3.91914   1
  -2  14  -1 27.0623 3.74420   5
   2  14   1 34.2900 4.02614   5
   3 -14   1 64.9938 4.61133   1
  -3 -14  -1 67.1692 4.66333   2
   3 -14   1 68.2017 4.85483   4
  -3  14  -1 56.8505 4.82362   5
  -3  14  -1 64.7695 4.35046   3
   3  14   1 61.2102 4.92858   5
   3  14   1 69.6028 4.82442   3
  -3  14  -1 70.0002 5.16395   1
   4 -14   1 10.4616 2.28303   4
  -4 -14  -1 13.2632 2.47256   2
   4 -14   1 15.9322 2.85334   1
  -4  14  -1 10.3154 2.24721   3
  -4  14  -1 11.1692 2.47089   5
   4  14   1 19.2117 3.47836   5
  -4  14  -1 15.7665 3.09631   1
   4  14   1 16.4937 2.73973   3
   5 -14   1 5.12099 2.03633   4
   5 -14   1 9.21236 2.41740   1
  -5 -14  -1 6.64267 2.03669   2
  -5  14  -1 10.0695 2.63974   5
  -5  14  -1 7.22005 1.72094   3
   5  14   1 6.65526 1.89367   3
  -5  14  -1 3.90137 2.03052   1
   5  14   1 9.71552 2.67683   5
   6 -14   1 1.05322 1.32445   4
   6 -14   1 3.43159 1.82645   1
  -6 -14  -1 0.82788 1.12892   2
   6  14   1 1.42033 1.25068   3
  -6  14  -1 -0.3246 1.08636   5
   6  14   1 2.26680 1.80180   5
  -6  14  -1 1.60464 1.76227   1
  -6  14  -1 1.22806 1.15893   3
  -7 -14  -1 0.81476 1.20324   2
   7 -14   1 -0.1514 1.44964   1
   7 -14   1 -1.4076 1.41694   4
  -7  14  -1 -0.3337 1.83963   1
  -7  14  -1 2.49724 1.56368   3
   7  14   1 -0.0683 1.25512   3
   7  14   1 1.09304 1.54392   5
  -7  14  -1 0.25469 1.81304   5
   8 -14   1 6.24747 2.46148   4
  -8 -14  -1 6.18479 2.04975   2
   8 -14   1 15.9524 3.34035   1
  -8  14  -1 3.03395 2.00647   3
  -8  14  -1 7.43984 2.91417   1
   8  14   1 12.2684 2.88432   3
  -8  14  -1 11.1543 3.09955   5
   8  14   1 10.3421 2.58061   5
   7 -15  -1 -0.4178 1.68635   4
  -7 -15   1 -0.1362 1.19047   2
   7 -15  -1 0.30774 1.65818   1
  -7  15   1 -0.3164 1.12073   5
  -7  15   1 -0.7689 1.63130   3
  -7  15   1 2.42120 1.72605   1
   7  15  -1 2.80901 1.53512   3
   7  15  -1 1.45228 1.32347   5
   6 -15  -1 -1.4392 1.52402   4
  -6 -15   1 0.61008 1.86258   2
   6 -15  -1 0.75218 1.20504   1
  -6  15   1 1.78773 1.55038   1
  -6  15   1 0.48497 1.22633   3
   6  15  -1 1.30455 1.08392   3
  -6  15   1 0.42967 1.29839   5
   6  15  -1 2.26810 1.49903   5
  -5 -15   1 2.11364 1.38283   2
   5 -15  -1 0.29656 1.17304   4
   5 -15  -1 2.51255 1.45088   1
   5  15  -1 2.20722 1.99756   5
  -5  15   1 -0.5905 1.10850   1
  -5  15   1 1.81812 1.36327   3
   5  15  -1 2.28531 1.50597   3
  -5  15   1 0.12352 1.52058   5
  -4 -15   1 5.43673 1.59603   2
   4 -15  -1 5.77681 2.22820   4
   4 -15  -1 10.0950 2.25947   1
  -4  15   1 3.43815 1.92946   5
   4  15  -1 9.42124 2.02945   3
  -4  15   1 6.26743 1.99955   1
  -4  15   1 4.97498 1.71664   3
   4  15  -1 5.88924 2.71415   5
   3 -15  -1 19.3731 3.06711   1
   3 -15  -1 29.5770 3.81982   4
  -3 -15   1 21.8489 3.14054   2
  -3  15   1 18.9961 3.37087   5
   3  15  -1 19.9052 2.89343   3
   3  15  -1 18.5474 3.19259   1
   3  15  -1 18.3889 3.59211   5
  -3  15   1 17.3358 2.97032   3
  -3  15   1 18.7716 3.26434   1
   2 -15  -1 6.73911 1.91679   1
   2 -15  -1 5.17047 1.91322   4
  -2 -15   1 3.96741 1.47739   2
  -2 -15   1 2.75383 1.40042   4
   2  15  -1 4.40278 2.27648   5
   2  15  -1 3.51417 1.82068   1
  -2  15   1 4.55926 1.76520   5
   2  15  -1 0.68427 1.48242   3
  -2  15   1 5.47178 1.98615   1
  -2  15   1 2.78879 1.49934   3
   1 -15  -1 22.5460 2.94325   1
  -1 -15   1 26.0581 3.15863   4
   1 -15  -1 23.6556 3.22171   4
  -1 -15   1 23.0287 2.94918   2
   1  15  -1 24.0292 3.38633   1
  -1  15   1 21.7109 3.16786   3
  -1  15   1 21.9538 3.07739   1
  -1  15   1 29.5515 3.93999   5
   1  15  -1 21.4025 3.04630   3
   1  15  -1 27.6040 3.82956   5
   0 -15   1 5.66358 1.77378   4
   0 -15   1 6.32223 1.72651   2
   0 -15  -1 3.07533 1.28321   2
   0 -15  -1 4.86099 1.68961   4
   0  15  -1 6.48728 1.99865   1
   0  15   1 2.39841 1.74753   3
   0  15   1 5.47049 1.97414   5
   0  15   1 8.65530 2.14693   1
   0  15  -1 5.54729 1.62097   3
   0  15  -1 5.20022 1.97424   5
   1 -15   1 -0.6266 1.15806   4
  -1 -15  -1 1.45134 1.17848   4
  -1 -15  -1 1.54369 1.24438   2
   1 -15   1 0.19644 0.95310   2
   1  15   1 1.44478 1.19539   1
   1  15   1 -2.0358 0.88782   3
   1  15   1 1.75383 1.57451   5
  -1  15  -1 -0.4866 1.33092   3
  -1  15  -1 -0.3703 1.64140   5
  -1  15  -1 0.80652 1.05514   1
   2 -15   1 13.7913 2.56355   4
   2 -15   1 12.7387 2.40030   1
  -2 -15  -1 14.2544 2.42741   2
  -2  15  -1 10.0081 2.25442   3
  -2  15  -1 12.2881 2.54361   5
   2  15   1 13.4562 2.85733   5
  -2  15  -1 6.64061 1.87965   1
   2  15   1 15.3980 2.67277   3
  -3 -15  -1 13.4523 2.41972   2
   3 -15   1 11.7710 2.56763   4
   3 -15   1 12.1708 2.40304   1
  -3  15  -1 12.6547 2.90430   5
  -3  15  -1 10.6879 2.38243   1
  -3  15  -1 13.5566 2.45628   3
   3  15   1 10.1219 2.22128   3
   3  15   1 6.49218 2.66314   5
   4 -15   1 1.51811 1.32262   4
   4 -15   1 3.00322 1.70005   1
  -4 -15  -1 1.54716 1.66879   2
  -4  15  -1 0.18455 1.01505   3
  -4  15  -1 2.82537 1.87826   5
   4  15   1 1.50530 2.04632   5
   4  15   1 3.70287 1.67626   3
  -4  15  -1 3.38499 2.04451   1
   5 -15   1 19.0836 3.28730   1
  -5 -15  -1 16.4324 2.88620   2
   5 -15   1 16.8810 3.05821   4
   5  15   1 16.8836 2.98551   3
  -5  15  -1 15.2126 3.37520   1
   5  15   1 24.6223 3.89844   5
  -5  15  -1 18.1650 3.32776   5
  -5  15  -1 17.2662 2.98460   3
  -6 -15  -1 -1.8191 1.23308   2
   6 -15   1 -1.5432 1.56016   4
   6 -15   1 -1.4848 1.37366   1
   6  15   1 1.34836 1.27386   3
   6  15   1 -0.6286 1.43331   5
  -6  15  -1 -1.5511 1.31475   3
  -6  15  -1 3.46967 2.07697   5
  -6  15  -1 1.34750 2.12182   1
   7 -15   1 3.39473 1.79507   1
  -7 -15  -1 2.50466 1.58411   2
   7 -15   1 4.53796 1.96746   4
  -7  15  -1 2.12125 1.70832   5
   7  15   1 6.43102 2.15192   3
  -7  15  -1 1.52182 1.74865   1
  -7  15  -1 3.12907 1.94149   3
   7  15   1 4.72250 2.02477   5
  -7  16   1 -1.1575 1.80811   3
   7  16  -1 5.88546 2.14387   3
   6 -16  -1 0.58654 1.59750   1
   6 -16  -1 -0.4045 1.70841   4
  -6 -16   1 -1.1682 1.46095   2
  -6  16   1 -0.7396 1.62845   5
  -6  16   1 -2.1371 1.58167   3
   6  16  -1 0.17225 1.13015   5
   6  16  -1 3.92417 1.80396   3
  -6  16   1 1.17796 1.99532   1
   5 -16  -1 3.74373 1.86200   4
  -5 -16   1 4.37608 1.69398   2
   5 -16  -1 1.81386 1.69478   1
  -5  16   1 4.18176 2.11841   5
   5  16  -1 3.69664 2.37097   5
  -5  16   1 0.76571 1.76819   3
  -5  16   1 3.23672 1.96776   1
   5  16  -1 7.75864 2.10446   3
   4 -16  -1 51.2368 5.54421   4
   4 -16  -1 58.8819 4.90483   1
  -4 -16   1 57.5942 4.61453   2
   4  16  -1 62.6251 4.77363   3
  -4  16   1 60.1256 5.37439   1
  -4  16   1 67.2683 5.32437   5
   4  16  -1 55.2880 6.07431   5
  -4  16   1 58.1802 4.92160   3
   3 -16  -1 0.93904 1.60978   4
  -3 -16   1 2.67846 1.68619   2
   3 -16  -1 1.18700 1.11930   1
  -3  16   1 0.19806 1.41173   5
   3  16  -1 -0.3256 1.21223   3
   3  16  -1 -0.4796 1.45320   5
  -3  16   1 0.72157 1.26837   1
  -3  16   1 0.75896 1.62304   3
   2 -16  -1 5.57117 1.69041   1
  -2 -16   1 2.04890 1.22262   2
   2 -16  -1 2.95166 1.99000   4
  -2  16   1 6.13722 1.84372   1
  -2  16   1 6.20567 1.92915   5
  -2  16   1 1.59246 1.75738   3
   2  16  -1 4.00954 1.78892   3
   2  16  -1 4.72111 2.11259   5
   2  16  -1 4.90158 1.98092   1
  -1 -16   1 3.15441 1.59472   4
   1 -16  -1 2.51206 1.37204   4
  -1 -16   1 0.29644 1.03804   2
   1  16  -1 -0.9267 1.35261   3
   1  16  -1 0.37397 1.36843   1
   1  16  -1 -3.2318 1.76927   5
  -1  16   1 2.06183 1.57625   3
  -1  16   1 1.72665 1.46840   1
  -1  16   1 -1.4000 1.54750   5
   0 -16   1 0.24020 1.18868   2
   0 -16  -1 1.43444 1.20859   2
   0 -16   1 1.92931 1.15718   4
   0 -16  -1 0.19894 1.34584   4
   0  16   1 1.16487 1.43931   5
   0  16   1 0.20392 1.81053   3
   0  16  -1 2.93667 1.77764   5
   0  16  -1 0.62012 1.57591   1
   0  16   1 1.88114 1.44759   1
   0  16  -1 -0.1207 1.07346   3
  -1 -16  -1 3.67549 1.55780   2
   1 -16   1 8.14104 1.83130   2
   1 -16   1 2.79044 1.49870   4
  -1 -16  -1 2.63789 1.48201   4
   1  16   1 4.48502 2.18621   3
  -1  16  -1 3.81002 1.70947   1
  -1  16  -1 4.44153 1.89901   3
  -1  16  -1 10.4985 2.82819   5
   1  16   1 5.81184 2.24675   5
  -2 -16  -1 5.95217 1.84903   2
   2 -16   1 5.14924 2.01618   4
   2  16   1 7.49442 2.76455   5
   2  16   1 2.90361 1.88947   3
  -2  16  -1 8.48362 2.35935   1
  -2  16  -1 6.12462 1.96818   3
  -2  16  -1 5.98907 2.15529   5
   3 -16   1 6.84137 2.23323   1
   3 -16   1 4.81491 2.03100   4
  -3 -16  -1 3.05761 1.60544   2
  -3  16  -1 2.80441 1.52766   5
   3  16   1 -0.2515 2.12338   5
   3  16   1 3.22712 1.80060   3
  -3  16  -1 1.82888 1.72849   3
  -3  16  -1 7.36313 2.10406   1
   4 -16   1 5.03057 2.26255   4
   4 -16   1 10.6151 2.70658   1
  -4 -16  -1 9.05654 2.05139   2
  -4  16  -1 7.13254 2.25052   3
   4  16   1 10.4618 3.12041   5
   4  16   1 3.57500 1.71905   3
  -4  16  -1 5.95988 2.08652   5
  -4  16  -1 6.36947 2.39071   1
   5 -16   1 1.87742 1.85174   1
  -5 -16  -1 -0.6027 1.34349   2
   5 -16   1 -0.1335 1.85981   4
  -5  16  -1 -1.5088 1.47688   3
   5  16   1 2.98174 1.60404   3
  -5  16  -1 -1.2463 0.99778   5
  -5  16  -1 0.67243 1.81413   1
   5  16   1 -1.2917 1.68297   5
  -6 -16  -1 -0.6953 1.61440   2
   6 -16   1 0.53433 1.74871   1
   6 -16   1 -1.3804 1.25123   4
  -6  16  -1 -1.5351 1.24669   5
  -6  16  -1 -0.2046 1.66546   3
  -6  16  -1 0.70691 1.90941   1
   6  16   1 0.12277 1.13671   3
   6  16   1 -1.2847 1.57985   5
   5 -17  -1 2.34476 1.94956   1
  -5 -17   1 -0.6086 1.54820   2
   5 -17  -1 0.30975 1.28966   4
  -5  17   1 0.29818 1.93253   5
  -5  17   1 0.30840 1.41292   3
   5  17  -1 1.09458 2.12892   5
  -5  17   1 3.24079 2.21651   1
   5  17  -1 3.75154 1.80293   3
   4 -17  -1 3.77119 1.58362   1
  -4 -17   1 1.69094 1.67687   2
   4 -17  -1 0.35426 1.87277   4
  -4  17   1 0.56185 1.39491   3
  -4  17   1 1.18566 1.51130   1
  -4  17   1 -0.4639 1.23134   5
   4  17  -1 0.24125 1.74732   5
   4  17  -1 3.90509 1.58711   3
  -3 -17   1 6.18903 2.21789   2
   3 -17  -1 9.21208 2.50259   1
   3 -17  -1 5.59049 2.26699   4
  -3  17   1 5.93829 2.11783   5
  -3  17   1 8.80231 2.41192   3
   3  17  -1 6.71589 2.16847   3
  -3  17   1 10.3756 2.73448   1
   3  17  -1 0.99219 2.39101   5
  -2 -17   1 -0.6571 0.85438   2
   2 -17  -1 -2.2212 1.25395   4
   2 -17  -1 -2.2564 1.13043   1
   2  17  -1 -4.2444 1.79961   5
  -2  17   1 -3.4190 1.46021   3
   2  17  -1 -1.4765 1.36021   3
   2  17  -1 -0.7518 1.12066   1
  -2  17   1 -2.2244 1.02849   5
  -2  17   1 -0.2646 1.36742   1
  -1 -17   1 0.09994 0.83990   2
  -1 -17   1 -0.8811 0.88549   4
   1 -17  -1 -0.6996 0.90412   4
   1  17  -1 -0.1178 1.72143   5
  -1  17   1 -0.4862 1.33306   3
  -1  17   1 -0.8889 1.27062   1
  -1  17   1 -1.9452 1.85483   5
   1  17  -1 -2.9971 1.33518   3
   1  17  -1 -0.9010 0.96722   1
   0 -17   1 3.91286 1.66176   2
   0 -17  -1 3.07470 1.80500   4
   0 -17   1 4.79790 1.57810   4
   0  17   1 3.34928 1.53056   1
   0  17  -1 -2.6386 1.91872   5
   0  17  -1 1.91383 1.56554   3
   0  17   1 1.07945 1.63971   5
   0  17  -1 4.18825 2.01792   1
   0  17   1 -1.4458 1.71991   3
   1 -17   1 13.9818 2.59597   4
  -1 -17  -1 17.8977 2.94806   4
  -1 -17  -1 18.4189 2.82793   2
   1  17   1 9.80717 3.12219   5
   1  17   1 14.6929 3.27020   3
  -1  17  -1 18.0320 3.61144   3
  -1  17  -1 19.3140 3.20949   1
  -1  17  -1 13.4889 3.16382   5
  -2 -17  -1 26.0665 3.34680   2
   2 -17   1 35.3513 4.41444   4
  -2  17  -1 26.5289 3.96743   1
  -2  17  -1 22.8931 3.87979   5
   2  17   1 19.1454 3.39918   3
  -2  17  -1 24.2710 5.24775   3
   2  17   1 29.5314 4.60562   5
   3 -17   1 -0.9093 1.06491   4
  -3 -17  -1 -0.5684 1.41869   2
   3  17   1 0.83753 1.73512   5
  -3  17  -1 0.35983 1.35973   5
  -3  17  -1 1.69516 1.75317   1
   3  17   1 2.60073 1.39413   3
   4 -17   1 1.50412 1.53889   1
   4 -17   1 -0.5849 1.24945   4
  -4 -17  -1 -0.6917 1.44347   2
  -4  17  -1 1.78866 1.31102   1
  -4  17  -1 -0.2636 1.71845   5
   4  17   1 -2.6207 2.02147   5
   4  17   1 3.73488 1.84546   3
  -5 -17  -1 -2.3617 1.39043   2
   5 -17   1 -0.8773 1.98366   4
   5 -17   1 0.16457 1.70063   1
   5  17   1 -0.5650 1.85540   5
  -5  17  -1 -0.6208 1.91924   5
   5  17   1 1.21687 1.55195   3
  -5  17  -1 2.08793 1.98403   1
  -4 -18   1 -1.1270 1.52737   2
   4 -18  -1 -2.5054 1.53108   1
   4 -18  -1 4.23031 2.40187   4
  -4  18   1 2.69938 2.14078   1
  -4  18   1 0.29997 2.59526   5
   4  18  -1 -2.8115 1.41699   5
  -4  18   1 -3.2431 1.76519   3
   3 -18  -1 2.06196 1.86207   1
  -3 -18   1 0.46757 1.48239   2
   3 -18  -1 1.84163 2.18123   4
  -3  18   1 1.42297 1.72821   1
  -3  18   1 -1.1062 1.96351   3
   3  18  -1 -2.3798 2.22207   5
  -3  18   1 -0.1916 2.09137   5
   2 -18  -1 0.48899 1.77235   4
  -2 -18   1 0.76766 1.43158   2
  -2  18   1 -0.7492 1.79782   5
  -2  18   1 -2.7516 1.87488   3
  -2  18   1 0.02523 1.68429   1
   2  18  -1 -1.2708 1.63933   5
   1 -18  -1 2.39391 1.66503   4
  -1 -18   1 3.80609 1.55157   2
   1  18  -1 -2.7643 1.59494   1
  -1  18   1 4.56342 2.12925   1
   1  18  -1 -1.7881 2.45307   5
  -1  18   1 -2.5654 2.07838   5
  -1  18   1 2.08440 1.81816   3
   0 -18   1 7.45670 2.43933   4
   0 -18  -1 3.26804 1.96698   4
   0  18   1 -0.3568 2.16183   3
   0  18  -1 -1.6194 2.27420   5
   0  18   1 2.19095 2.40486   5
   0  18  -1 3.68761 2.10270   1
   1 -18   1 6.89465 1.99581   4
   1  18   1 11.3286 3.44664   5
  -1  18  -1 2.10628 2.10353   5
   1  18   1 7.19151 2.69793   3
  -1  18  -1 8.44659 2.29172   1
  -2 -18  -1 0.29046 1.54621   2
   2 -18   1 3.48244 1.90555   4
  -2  18  -1 1.33495 1.47002   1
   2  18   1 -1.3651 1.69145   5
   2  18   1 -2.7426 1.14505   3
  -2  18  -1 -1.0093 1.59375   5
  -3 -18  -1 3.14762 1.74007   2
   3 -18   1 5.10187 1.83421   4
   3  18   1 6.49430 2.41736   3
  -3  18  -1 4.62804 2.56921   1
  -3  18  -1 3.07182 2.14382   5
   3  18   1 3.50464 2.84158   5
   4 -18   1 0.71524 1.62851   1
  -4 -18  -1 -1.4025 1.55449   2
   4 -18   1 1.28629 1.63688   4
  -4  18  -1 1.26242 1.49863   1
   4  18   1 1.64666 1.65170   3
   4  18   1 -1.5553 1.56613   5
   1 -19  -1 -2.2814 1.49260   4
  -1 -19   1 -0.8943 1.00623   2
  -1  19   1 -4.7735 1.89121   3
   0 -19   1 -1.8761 1.62494   4
   0 -19  -1 0.31458 1.38088   4
   0  19   1 -1.5024 2.46999   5
   0  19  -1 -1.8559 1.58648   1
   0  19   1 -3.7323 2.11656   3
   1 -19   1 -0.5616 1.68866   4
   1  19   1 -1.3367 1.97905   5
  -1  19  -1 1.93142 1.72525   1
   1  19   1 -1.3526 1.46675   3
  12   0  -2 14.8449 3.31282   3
  12   0  -2 10.7617 2.86329   5
 -12   0   2 5.68903 2.44734   3
  11   0  -2 0.79135 1.10996   5
 -11   0   2 -0.6551 1.51767   3
  11   0  -2 0.09014 1.15788   1
  11   0  -2 2.25780 1.83275   3
  10   0  -2 10.8581 2.40164   1
  10   0  -2 7.25231 2.03655   5
  10   0  -2 7.63206 2.19829   3
   9   0  -2 -0.1415 1.11022   5
   9   0  -2 0.10652 0.87062   3
   9   0  -2 -0.8046 1.00369   1
  -8   0   2 586.903 21.1185   2
   8   0  -2 567.547 22.8310   3
   8   0  -2 538.276 22.6565   5
   8   0  -2 574.252 22.4058   1
   7   0  -2 -0.5892 0.38084   4
  -7   0   2 -0.2954 0.40903   2
   7   0  -2 0.63059 0.91245   3
   7   0  -2 -0.6998 0.59942   5
   7   0  -2 1.04688 0.88029   1
   6   0  -2 322.977 13.3011   5
   6   0  -2 307.877 12.0151   4
   6   0  -2 309.222 13.1960   3
   6   0  -2 348.727 13.2179   1
  -6   0   2 312.517 12.0228   2
   5   0  -2 -0.0163 0.27613   4
   5   0  -2 -0.1871 0.38270   1
   5   0  -2 1.35320 0.64700   3
  -5   0   2 -0.2346 0.29747   2
   5   0  -2 0.23624 0.69757   5
   4   0  -2 988.094 35.8323   5
   4   0  -2 983.589 35.7496   1
   4   0  -2 982.938 35.7737   3
   4   0  -2 994.898 35.1016   4
  -4   0   2 1006.05 34.9354   2
   3   0  -2 0.22847 0.32807   3
   3   0  -2 -0.7909 0.31385   1
   3   0  -2 -0.2795 0.22366   5
   3   0  -2 -0.1667 0.19379   4
   2   0  -2 1479.97 51.3574   4
  -2   0   2 1445.91 51.3967   3
   2   0  -2 1445.65 51.4184   3
   2   0  -2 1452.02 51.4782   5
  -2   0   2 1500.64 51.0928   2
   2   0  -2 1468.89 51.5998   1
  -1   0   2 0.10410 0.14763   2
   1   0  -2 0.07095 0.24540   1
   1   0  -2 -0.5073 0.16923   5
  -1   0   2 0.08879 0.12870   3
   1   0  -2 0.31347 0.26499   4
   0   0  -2 735.906 25.7095   5
   0   0   2 761.328 25.8559   3
   0   0   2 747.011 26.1196   2
   0   0  -2 723.719 26.2192   4
   0   0  -2 731.253 26.0884   1
   1   0   2 -0.2379 0.17704   3
   1   0   2 -0.2115 0.12269   2
  -1   0  -2 0.21308 0.22321   4
   1   0   2 0.08344 0.10639   5
  -1   0  -2 0.24128 0.23178   1
   2   0   2 971.692 33.9858   5
  -2   0  -2 929.213 34.4464   2
   2   0   2 961.486 34.2318   3
  -2   0  -2 961.733 34.1695   4
   2   0   2 975.549 33.8242   1
  -2   0  -2 1002.34 33.9285   1
   2   0   2 962.249 34.3181   2
   3   0   2 -0.1760 0.19040   3
   3   0   2 -0.1274 0.31038   2
  -3   0  -2 0.00084 0.23469   4
   3   0   2 0.69824 0.29812   4
   3   0   2 -0.1181 0.16287   1
  -3   0  -2 -0.0403 0.30912   2
   3   0   2 -0.0111 0.24755   5
  -4   0  -2 200.491 7.93052   4
   4   0   2 203.545 8.52249   3
   4   0   2 222.523 7.78300   4
   4   0   2 197.224 7.82962   1
   4   0   2 201.346 8.30669   2
   4   0   2 200.372 8.23343   5
  -4   0  -2 196.440 8.43865   2
  -5   0  -2 -0.1782 0.33190   2
   5   0   2 0.09738 0.35634   2
  -5   0  -2 -0.2533 0.32890   4
   5   0   2 -0.3815 0.30309   3
   5   0   2 -0.2776 0.51698   5
   5   0   2 -0.0965 0.30401   1
   5   0   2 -0.3046 0.27513   4
   6   0   2 -0.4324 0.55152   5
   6   0   2 0.45734 0.59247   3
   6   0   2 0.98884 0.42192   4
  -6   0  -2 0.27256 0.61439   2
  -6   0  -2 0.42225 0.46145   4
   6   0   2 -0.0187 0.45930   1
   7   0   2 0.12572 0.49527   1
   7   0   2 -0.6092 0.73160   5
   7   0   2 -0.1722 0.87970   3
  -7   0  -2 -0.4113 0.55434   2
   8   0   2 2.86510 1.32542   5
  -8   0  -2 5.44525 1.45411   2
   8   0   2 3.45825 1.43479   3
   8   0   2 5.07634 1.18452   1
   9   0   2 1.32246 1.21446   5
   9   0   2 -1.3001 0.97128   3
  -9   0  -2 1.18790 0.97245   2
  10   0   2 9.83154 2.32890   3
  10   0   2 11.7465 2.41515   5
 -10   0  -2 11.7727 2.21676   2
  11   0   2 1.59672 0.99302   5
  11   0   2 1.73475 1.59983   3
  12   0   2 30.0744 4.31580   5
  12   0   2 29.3746 4.52757   3
 -12  -1   2 0.31123 1.85663   3
  12  -1  -2 3.74840 1.83527   1
  12  -1  -2 -0.2803 1.39987   3
  12  -1  -2 0.78121 1.19269   5
 -12   1   2 0.69909 1.33572   3
  12   1  -2 2.10098 1.43540   5
  12   1  -2 1.05439 1.89713   3
  11  -1  -2 2.33138 1.83581   1
  11  -1  -2 5.20381 1.92518   5
  11  -1  -2 8.57920 2.47676   3
  11   1  -2 5.95321 1.82339   1
 -11   1   2 3.40120 1.71885   3
  11   1  -2 6.04048 2.27621   5
  11   1  -2 1.39899 1.77357   3
  10  -1  -2 1.67574 1.56236   3
  10  -1  -2 0.90122 1.39866   5
  10  -1  -2 2.58698 1.30993   1
  10   1  -2 0.30694 1.02333   1
  10   1  -2 1.79892 1.25187   3
 -10   1   2 -0.0157 1.43060   3
  10   1  -2 2.04408 1.30079   5
   9  -1  -2 2.81235 1.42317   1
   9  -1  -2 4.03905 1.78984   3
   9  -1  -2 1.86887 1.55521   5
   9   1  -2 3.94382 1.49464   1
   9   1  -2 3.92900 1.47743   3
   9   1  -2 2.39420 1.48876   5
  -9   1   2 2.45931 1.60141   3
   8  -1  -2 107.261 6.16090   1
   8  -1  -2 107.034 6.42022   5
  -8  -1   2 107.549 5.21331   2
   8  -1  -2 104.513 6.33584   3
   8   1  -2 119.714 6.20855   1
   8   1  -2 103.647 6.28143   5
   8   1  -2 117.163 6.56311   3
  -8   1   2 101.149 6.19064   3
   7  -1  -2 12.6442 2.17605   5
   7  -1  -2 17.1283 2.49907   3
   7  -1  -2 13.6575 2.16185   1
  -7  -1   2 17.4372 1.81180   2
   7  -1  -2 14.9587 1.63140   4
  -7   1   2 14.8471 1.47773   2
   7   1  -2 10.6491 2.20118   5
   7   1  -2 13.6323 2.22266   3
   7   1  -2 12.8398 2.12886   1
  -7   1   2 15.2949 2.33812   3
  -6  -1   2 -0.3093 0.36289   2
   6  -1  -2 0.36079 0.74738   3
   6  -1  -2 0.20317 0.50861   1
   6  -1  -2 -0.6733 0.39672   5
   6  -1  -2 -0.1454 0.42708   4
  -6   1   2 -0.0789 0.34009   2
   6   1  -2 -0.3252 0.65586   3
   6   1  -2 0.21957 0.33977   4
   6   1  -2 0.19732 0.67616   5
   6   1  -2 0.20636 0.49940   1
   5  -1  -2 230.936 9.90884   1
   5  -1  -2 239.140 10.0400   3
   5  -1  -2 236.422 9.24292   4
   5  -1  -2 236.835 10.0356   5
  -5  -1   2 238.881 9.17024   2
  -5   1   2 239.553 8.86758   2
   5   1  -2 239.507 9.85512   1
   5   1  -2 244.406 10.0754   5
  -5   1   2 225.060 9.89177   3
   5   1  -2 245.843 8.99654   4
   5   1  -2 230.091 9.95413   3
   4  -1  -2 2.08263 0.63773   3
   4  -1  -2 1.56038 0.76474   1
   4  -1  -2 2.23027 0.57458   4
   4  -1  -2 1.64870 0.71144   5
  -4  -1   2 2.20242 0.51026   2
   4   1  -2 1.57408 0.46173   4
  -4   1   2 1.48210 0.62166   3
   4   1  -2 0.56058 0.59073   1
   4   1  -2 0.92199 0.54929   5
   4   1  -2 1.28754 0.56257   3
  -4   1   2 1.78799 0.35378   2
   3  -1  -2 480.670 17.2990   4
  -3  -1   2 476.197 17.1117   2
   3  -1  -2 473.827 17.6292   5
   3  -1  -2 476.664 17.6243   3
   3  -1  -2 467.117 17.6569   1
   3   1  -2 477.722 17.6202   5
  -3   1   2 482.651 16.7984   2
   3   1  -2 478.162 17.1303   4
  -3   1   2 469.004 17.5753   3
   3   1  -2 463.553 17.5110   3
   3   1  -2 487.043 17.6416   1
   2  -1  -2 7.96494 0.94427   5
   2  -1  -2 7.73204 0.86999   4
   2  -1  -2 10.2763 1.14683   1
   2  -1  -2 8.05156 0.92951   3
  -2  -1   2 8.65631 0.69811   2
   2   1  -2 8.51849 1.11399   1
  -2   1   2 8.76170 0.96065   3
  -2   1   2 9.32860 0.53577   2
   2   1  -2 6.13713 0.89604   5
   2   1  -2 8.01754 0.87272   3
   2   1  -2 8.08089 0.85232   4
   1  -1  -2 6.34703 0.79473   1
   1  -1  -2 6.61604 0.57931   5
   1  -1  -2 7.87082 0.82458   4
  -1  -1   2 6.07020 0.65402   2
   1   1  -2 6.26434 0.49069   3
  -1   1   2 7.89229 0.60639   3
   1   1  -2 6.85922 0.72173   5
   1   1  -2 6.91348 0.87073   1
  -1   1   2 6.33719 0.48300   2
   1   1  -2 6.28982 0.75009   4
   0  -1  -2 620.792 22.3991   1
   0  -1  -2 633.882 22.6071   4
   0  -1  -2 621.887 22.1439   5
   0  -1   2 626.638 22.5469   2
   0   1   2 650.554 22.4284   3
   0   1  -2 628.070 22.6967   4
   0   1   2 638.262 22.5026   2
   0   1  -2 675.731 22.1011   3
   0   1   2 629.197 22.1627   5
   0   1  -2 636.890 22.6320   1
   0   1  -2 630.569 22.2797   5
  -1  -1  -2 173.453 6.81829   2
   1  -1   2 167.619 6.39723   3
   1  -1   2 166.018 6.66703   2
   1  -1   2 176.688 6.33091   5
   1  -1   2 171.261 6.57542   4
  -1  -1  -2 181.144 6.27108   1
  -1  -1  -2 173.603 6.60438   4
   1   1   2 177.090 6.58074   3
  -1   1  -2 168.252 6.33901   5
   1   1   2 177.746 6.25187   5
  -1   1  -2 174.029 6.59403   1
   1   1   2 170.549 6.69241   2
  -1   1  -2 181.264 6.81359   4
   2  -1   2 456.468 16.5331   2
  -2  -1  -2 432.783 16.6834   2
   2  -1   2 451.623 16.4229   3
   2  -1   2 459.546 16.2820   5
   2  -1   2 453.004 16.2250   1
   2  -1   2 446.977 16.3130   4
  -2  -1  -2 472.794 15.9402   1
  -2  -1  -2 441.641 16.2676   4
   2   1   2 450.893 16.5127   3
   2   1   2 451.922 15.8729   1
   2   1   2 441.907 16.1940   5
   2   1   2 444.141 16.5696   2
  -2   1  -2 469.269 16.3702   1
  -2   1  -2 462.451 16.5618   4
  -3  -1  -2 120.922 4.75195   4
   3  -1   2 120.264 4.83062   4
   3  -1   2 121.486 4.84098   1
  -3  -1  -2 116.880 5.28380   2
   3  -1   2 115.589 5.07207   2
   3  -1   2 116.172 4.96809   5
   3  -1   2 122.816 5.19638   3
   3   1   2 117.512 5.21307   3
   3   1   2 118.866 4.53087   1
   3   1   2 113.375 5.13265   2
   3   1   2 118.146 4.93978   5
  -3   1  -2 121.534 5.04882   4
  -3   1  -2 114.141 5.22859   2
  -4  -1  -2 28.1832 1.66564   4
   4  -1   2 28.4409 2.11771   3
  -4  -1  -2 26.4071 2.12414   2
   4  -1   2 33.8263 1.83332   4
   4  -1   2 30.6736 1.86801   1
   4  -1   2 30.2614 2.04469   5
   4  -1   2 35.2575 2.16751   2
  -4   1  -2 32.8131 2.24470   2
   4   1   2 33.0953 1.70217   1
   4   1   2 32.9304 2.27488   3
   4   1   2 32.1058 2.05166   5
  -4   1  -2 34.5429 2.02604   4
   5  -1   2 111.654 5.75347   3
  -5  -1  -2 118.886 4.87984   4
  -5  -1  -2 120.818 5.75395   2
   5  -1   2 114.731 5.56930   5
   5  -1   2 117.101 5.23679   1
   5  -1   2 120.978 5.50761   2
   5  -1   2 117.273 5.01098   4
  -5   1  -2 126.457 5.32013   4
   5   1   2 115.151 5.82845   3
  -5   1  -2 113.194 5.59358   2
   5   1   2 127.443 5.05988   1
   5   1   2 120.650 5.61239   5
   6  -1   2 77.2928 4.67996   3
   6  -1   2 91.2849 4.68688   5
  -6  -1  -2 86.6949 3.70325   4
   6  -1   2 80.8724 4.32723   2
  -6  -1  -2 81.8933 4.57042   2
   6  -1   2 86.3241 3.85864   4
   6  -1   2 79.4035 4.11969   1
   6   1   2 74.9325 4.45054   5
   6   1   2 77.0862 4.72354   3
   6   1   2 84.2442 3.95983   1
  -6   1  -2 88.3986 4.14511   4
  -6   1  -2 80.3457 4.48392   2
   7  -1   2 0.90535 0.80135   3
   7  -1   2 3.61799 1.26244   5
   7  -1   2 1.00882 0.67999   1
   7  -1   2 2.01372 0.65160   4
  -7  -1  -2 1.89628 0.91934   2
   7   1   2 0.01930 0.89340   3
   7   1   2 0.70493 0.58929   1
   7   1   2 1.73497 1.03280   5
  -7   1  -2 1.71211 0.74757   4
  -7   1  -2 1.18202 0.92204   2
   8  -1   2 36.7142 2.82001   1
  -8  -1  -2 38.4993 3.08233   2
   8  -1   2 36.6727 3.14471   5
   8  -1   2 32.3704 3.85958   3
   8   1   2 33.9583 3.97519   3
   8   1   2 33.3554 3.67043   5
  -8   1  -2 41.1000 3.11125   2
   9  -1   2 57.7543 4.74268   3
   9  -1   2 55.7850 4.26952   5
  -9  -1  -2 62.9265 4.24216   2
   9   1   2 51.5118 4.25440   5
  -9   1  -2 63.6371 4.13927   2
   9   1   2 45.7706 4.98585   3
 -10  -1  -2 2.85163 1.37464   2
  10  -1   2 0.96412 1.08318   3
  10  -1   2 2.02137 1.40641   5
  10   1   2 3.46377 1.41113   5
  10   1   2 2.02890 1.51124   3
 -10   1  -2 0.33805 1.54862   2
  11  -1   2 9.53301 2.41515   5
  11  -1   2 6.35388 2.16124   3
  11   1   2 13.2571 2.82918   5
  11   1   2 10.3265 2.64738   3
  12  -1   2 4.53194 1.75842   5
  12  -1   2 2.49363 2.02694   3
  12   1   2 2.20883 1.99536   3
  12   1   2 6.36564 2.16389   5
  12  -2  -2 -2.0541 1.75321   3
  12  -2  -2 2.78069 1.92244   5
  12  -2  -2 0.84140 1.60884   1
  12   2  -2 1.01740 1.63185   5
 -12   2   2 -1.0606 1.74930   3
  12   2  -2 -0.1633 1.33247   3
  11  -2  -2 16.2535 2.88958   1
  11  -2  -2 8.75343 2.59412   5
  11  -2  -2 7.71714 2.23245   3
  11   2  -2 19.6375 3.46337   3
  11   2  -2 17.5111 3.44186   5
  11   2  -2 8.21837 2.30599   1
 -11   2   2 9.09558 2.68062   3
  10  -2  -2 2.01674 1.56343   1
  10  -2  -2 1.80296 1.59005   5
  10  -2  -2 0.08748 1.08297   3
  10   2  -2 3.20895 1.53234   5
  10   2  -2 3.83173 1.60709   1
  10   2  -2 1.74021 1.61522   3
 -10   2   2 1.86179 1.36815   3
   9  -2  -2 176.755 9.22932   5
  -9  -2   2 179.394 7.89186   2
   9  -2  -2 177.667 9.38684   3
   9  -2  -2 165.841 8.75462   1
   9   2  -2 167.805 9.17731   5
   9   2  -2 179.627 9.37560   3
  -9   2   2 171.747 9.21659   3
   9   2  -2 169.486 8.58857   1
  -8  -2   2 64.4790 3.64805   2
   8  -2  -2 59.0270 3.52237   4
   8  -2  -2 58.5124 4.43137   3
   8  -2  -2 71.4014 4.60756   1
   8  -2  -2 65.3431 4.57733   5
   8   2  -2 62.2451 4.51301   3
  -8   2   2 50.7603 4.16686   3
   8   2  -2 55.0132 4.29890   5
   8   2  -2 61.5697 4.18234   1
   7  -2  -2 42.7565 2.73433   4
   7  -2  -2 46.2811 3.42694   1
   7  -2  -2 42.2675 3.43826   3
   7  -2  -2 44.0245 3.58698   5
  -7  -2   2 47.7622 2.86225   2
  -7   2   2 44.1917 3.45640   3
   7   2  -2 48.1117 3.59320   5
   7   2  -2 43.0639 3.15917   1
   7   2  -2 42.6808 3.41993   3
   6  -2  -2 33.3242 2.23039   4
  -6  -2   2 33.1564 2.21475   2
   6  -2  -2 34.0434 2.79085   5
   6  -2  -2 32.4872 2.81666   3
   6  -2  -2 33.0894 2.76419   1
   6   2  -2 33.8570 2.79275   5
   6   2  -2 36.1536 2.80808   3
  -6   2   2 33.2526 2.79137   3
   6   2  -2 31.8085 2.51441   1
   6   2  -2 37.3795 1.85287   4
  -6   2   2 33.4138 1.78906   2
   5  -2  -2 53.3162 3.30479   3
   5  -2  -2 52.7045 3.29196   1
   5  -2  -2 50.4469 3.22596   5
  -5  -2   2 50.3962 2.70052   2
   5  -2  -2 51.5111 2.78326   4
   5   2  -2 46.6349 2.29673   4
   5   2  -2 46.5781 3.17453   5
   5   2  -2 47.1205 3.13282   3
   5   2  -2 46.9462 2.98640   1
  -5   2   2 43.4387 3.05661   3
  -5   2   2 54.9218 2.23260   2
   4  -2  -2 70.9293 3.77850   3
   4  -2  -2 71.7948 3.81333   5
  -4  -2   2 72.2344 3.31828   2
   4  -2  -2 70.4112 3.40821   4
   4  -2  -2 65.2335 3.69089   1
  -4   2   2 68.7560 3.74803   3
   4   2  -2 68.2457 3.61798   1
   4   2  -2 70.4951 3.04736   4
  -4   2   2 72.8750 2.75046   2
   4   2  -2 71.2267 3.74904   5
   4   2  -2 68.6292 3.67364   3
   3  -2  -2 27.5822 1.93306   5
   3  -2  -2 28.3135 1.95382   1
   3  -2  -2 32.1334 1.82560   4
   3  -2  -2 29.9632 1.98907   3
  -3  -2   2 28.9579 1.68231   2
  -3   2   2 30.3430 1.18145   2
  -3   2   2 31.2228 1.99983   3
   3   2  -2 29.1635 1.94961   5
   3   2  -2 29.0520 1.57556   4
   3   2  -2 28.4788 1.83590   3
   3   2  -2 29.9312 1.94616   1
  -2  -2   2 886.142 31.6237   2
   2  -2  -2 891.909 31.8313   5
   2  -2  -2 888.556 31.9307   1
   2  -2  -2 910.714 31.7938   4
  -2   2   2 921.125 31.0684   2
   2   2  -2 891.388 31.9383   1
   2   2  -2 894.912 31.8101   5
   2   2  -2 882.970 31.6133   4
  -2   2   2 883.487 31.8130   3
   2   2  -2 889.369 31.6308   3
   1  -2  -2 7716.89 299.480   4
  -1  -2   2 8021.48 299.422   2
   1  -2  -2 9019.38 299.883   1
   1   2  -2 9999.99 300.625   4
  -1   2   2 8067.80 299.459   3
   1   2  -2 9162.01 298.878   3
   1   2  -2 8091.92 299.188   5
   0  -2  -2 833.365 26.1356   1
   0  -2   2 720.003 26.2309   4
   0  -2  -2 734.728 26.2537   2
   0  -2   2 732.801 26.2746   2
   0  -2  -2 730.391 26.2899   4
   0   2   2 753.592 25.9979   5
   0   2  -2 729.612 26.1202   5
   0   2  -2 731.871 26.4107   1
   0   2   2 732.826 26.1728   2
   0   2   2 737.108 26.2291   3
   0   2  -2 713.735 26.4438   4
   1  -2   2 1049.48 36.4302   4
  -1  -2  -2 1020.24 35.8602   1
   1  -2   2 1031.13 36.4489   2
   1  -2   2 1007.48 36.0829   3
  -1  -2  -2 1023.50 36.3052   4
  -1  -2  -2 1014.63 36.5691   2
   1  -2   2 1041.48 36.3371   1
   1   2   2 992.699 36.4560   2
  -1   2  -2 1063.62 36.6777   4
   1   2   2 1036.88 36.1125   5
  -1   2  -2 1037.71 36.2268   5
  -1   2  -2 1050.49 36.5050   1
   1   2   2 1056.62 36.4380   3
   2  -2   2 439.554 16.4027   3
   2  -2   2 454.289 16.4069   1
   2  -2   2 448.512 16.4729   4
  -2  -2  -2 446.224 16.7608   2
  -2  -2  -2 475.054 16.2546   4
   2  -2   2 449.149 16.3698   5
   2  -2   2 463.335 16.5693   2
   2   2   2 454.802 16.2778   5
   2   2   2 449.681 16.6626   2
  -2   2  -2 459.109 16.5709   1
   2   2   2 460.768 16.6291   3
  -2   2  -2 447.904 16.4078   5
  -2   2  -2 439.325 16.6799   4
   3  -2   2 101.012 4.60925   3
  -3  -2  -2 103.448 4.12043   4
   3  -2   2 107.317 4.48039   1
   3  -2   2 103.134 4.52834   5
  -3  -2  -2 94.4924 4.71299   2
   3  -2   2 111.440 4.50118   4
   3  -2   2 109.098 4.60276   2
   3   2   2 101.726 4.73162   3
   3   2   2 104.466 3.87715   1
   3   2   2 99.6458 4.42096   5
  -4  -2  -2 3.12843 0.48968   4
   4  -2   2 2.51406 0.65453   2
   4  -2   2 2.38812 0.63731   1
   4  -2   2 2.61112 0.63638   4
  -4  -2  -2 3.68513 0.96352   2
   4  -2   2 2.82643 0.74311   5
   4  -2   2 1.06264 0.57125   3
   4   2   2 2.87180 0.76604   5
   4   2   2 1.98790 0.76626   3
  -4   2  -2 1.78907 0.64386   2
   4   2   2 3.00076 0.48413   1
  -5  -2  -2 93.3673 3.72204   4
   5  -2   2 84.3995 4.69738   3
   5  -2   2 88.7061 4.18606   4
   5  -2   2 94.7755 4.51402   2
  -5  -2  -2 80.9356 4.59005   2
   5  -2   2 93.2943 4.67996   5
   5  -2   2 92.5770 4.41131   1
   5   2   2 92.4841 4.90500   3
   5   2   2 100.576 3.99719   1
   5   2   2 87.6715 4.56238   5
  -5   2  -2 92.9680 4.67749   2
   6  -2   2 26.4780 2.73619   5
   6  -2   2 24.3963 1.96704   1
  -6  -2  -2 24.1709 2.58343   2
   6  -2   2 23.9525 2.02046   2
   6  -2   2 21.7209 1.68794   4
   6  -2   2 20.8410 2.49654   3
  -6   2  -2 22.2908 2.39906   2
   6   2   2 23.9156 1.64147   1
   6   2   2 20.6381 2.56150   3
   6   2   2 19.0059 2.34303   5
   7  -2   2 139.634 7.13859   5
   7  -2   2 139.783 6.67571   1
   7  -2   2 155.213 6.35731   4
   7  -2   2 148.351 7.52350   3
  -7  -2  -2 132.257 6.97729   2
   7   2   2 142.605 7.17258   5
   7   2   2 148.777 6.73427   1
   7   2   2 139.953 7.46024   3
  -7   2  -2 149.091 7.00589   2
  -7   2  -2 145.652 6.61181   4
  -8  -2  -2 1.51137 1.01934   2
   8  -2   2 2.10959 1.19325   3
   8  -2   2 2.04795 1.17372   5
   8  -2   2 2.07167 0.90187   1
   8   2   2 1.65479 1.12394   3
   8   2   2 3.02499 1.34223   5
  -8   2  -2 2.73550 1.17933   2
  -9  -2  -2 24.9176 3.05692   2
   9  -2   2 21.2267 3.27703   3
   9  -2   2 20.3626 2.98465   5
   9  -2   2 26.8355 2.94985   1
  -9   2  -2 29.0066 3.10525   2
   9   2   2 21.9399 3.21012   5
   9   2   2 28.7061 3.78984   3
  10  -2   2 8.85492 2.38785   5
  10  -2   2 12.0766 2.74491   3
 -10  -2  -2 14.8051 2.57239   2
  10   2   2 13.7221 2.83097   3
  10   2   2 16.7979 2.83150   5
 -11  -2  -2 2.33001 1.60367   2
  11  -2   2 1.80475 1.34274   3
  11  -2   2 0.35992 1.36874   5
  11   2   2 3.32545 1.74299   5
  11   2   2 4.05778 2.16656   3
 -11   2  -2 1.02339 1.45482   3
  12  -2   2 1.72759 1.28047   3
  12  -2   2 -0.4158 1.37066   5
  12   2   2 1.32171 1.17723   5
  12   2   2 2.84970 2.11429   3
 -12   2  -2 0.23803 1.28401   3
  12  -3  -2 2.20675 2.05358   5
  12  -3  -2 0.94773 1.66625   3
  12  -3  -2 0.83201 1.53011   1
  12   3  -2 -1.3003 0.95263   3
 -12   3   2 -0.2232 1.43126   3
  12   3  -2 2.75477 1.55737   5
  11  -3  -2 4.73642 2.26670   5
  11  -3  -2 7.66459 2.22131   1
  11  -3  -2 7.37395 2.73422   3
  11   3  -2 6.05609 2.25910   3
 -11   3   2 7.64282 2.55445   3
  11   3  -2 6.62956 2.23505   5
  10  -3  -2 33.3080 4.33898   5
  10  -3  -2 28.9400 4.03508   3
  10  -3  -2 21.6817 3.32560   1
  10   3  -2 21.9291 3.06492   1
  10   3  -2 29.6039 4.08634   5
 -10   3   2 23.5718 3.58721   3
  10   3  -2 22.0137 3.47484   3
   9  -3  -2 16.4553 3.05758   3
   9  -3  -2 19.1347 3.04785   5
   9  -3  -2 21.1123 3.19570   1
  -9  -3   2 20.1056 2.38188   2
   9   3  -2 19.2337 3.16402   5
   9   3  -2 24.7675 3.50766   3
   9   3  -2 14.6946 2.46111   1
  -9   3   2 18.9729 3.19782   3
   8  -3  -2 102.034 6.09423   1
   8  -3  -2 99.9325 6.29079   3
   8  -3  -2 103.032 6.29443   5
   8  -3  -2 103.620 5.26224   4
  -8  -3   2 107.614 5.34113   2
   8   3  -2 100.048 5.72368   1
  -8   3   2 99.4924 6.19813   3
   8   3  -2 114.556 6.52233   3
   8   3  -2 104.806 6.28858   5
   7  -3  -2 102.885 5.91442   5
   7  -3  -2 95.1448 5.65285   1
   7  -3  -2 106.685 6.07570   3
  -7  -3   2 109.942 5.18847   2
   7  -3  -2 100.804 5.09240   4
   7   3  -2 104.169 5.98430   5
   7   3  -2 105.021 5.57764   1
   7   3  -2 100.472 5.83882   3
  -7   3   2 107.755 6.01769   3
  -6  -3   2 2.48029 0.80647   2
   6  -3  -2 1.70938 0.85650   3
   6  -3  -2 1.73611 0.72824   4
   6  -3  -2 1.05829 0.79331   5
   6  -3  -2 1.81406 0.91797   1
  -6   3   2 1.30284 0.86068   3
   6   3  -2 0.83557 0.79235   1
   6   3  -2 1.58477 1.00565   3
   6   3  -2 1.21678 0.43889   4
  -6   3   2 1.46963 0.40608   2
   6   3  -2 1.28855 0.84830   5
   5  -3  -2 19.2648 2.24976   3
  -5  -3   2 21.9136 1.67488   2
   5  -3  -2 19.5834 2.26156   1
   5  -3  -2 17.9836 1.84862   4
   5  -3  -2 19.8467 2.35853   5
   5   3  -2 19.2526 2.24756   5
  -5   3   2 18.9862 0.96769   2
   5   3  -2 22.2570 1.85037   1
   5   3  -2 18.6163 2.16194   3
   5   3  -2 20.7649 1.20641   4
  -5   3   2 18.3311 2.15347   3
   4  -3  -2 0.06063 0.33717   3
   4  -3  -2 -0.5424 0.31927   4
   4  -3  -2 0.31249 0.53329   5
   4  -3  -2 -0.6005 0.51954   1
  -4  -3   2 0.32364 0.31400   2
  -4   3   2 0.25050 0.43583   3
   4   3  -2 -0.1442 0.33393   5
   4   3  -2 0.09306 0.48193   3
   4   3  -2 0.07484 0.53074   1
   4   3  -2 0.13000 0.25136   4
   3  -3  -2 96.9258 4.55336   5
   3  -3  -2 96.1189 4.36773   4
   3  -3  -2 97.5191 4.61554   1
  -3  -3   2 96.9522 4.26682   2
   3   3  -2 101.213 4.54844   5
   3   3  -2 103.940 4.60242   1
  -3   3   2 96.4237 4.53579   3
   3   3  -2 96.5760 4.03140   4
   3   3  -2 91.5659 4.34271   3
   2  -3  -2 786.189 28.3971   5
   2  -3  -2 810.300 27.5106   2
  -2  -3   2 787.745 28.2717   2
   2  -3  -2 802.977 28.5516   1
   2  -3  -2 808.006 28.4212   4
   2   3  -2 773.754 28.1837   4
   2   3  -2 795.026 28.5649   1
   2   3  -2 778.271 28.1578   3
  -2   3   2 787.323 28.4184   3
   2   3  -2 797.721 28.4331   5
   1  -3  -2 1944.42 66.0298   2
   1  -3  -2 1881.10 66.3002   5
  -1  -3   2 1870.55 66.2517   4
  -1  -3   2 1831.97 66.3765   2
   1  -3  -2 1891.59 66.4469   1
   1  -3  -2 1883.20 66.4803   4
   1   3  -2 1897.62 66.4465   5
   1   3  -2 1903.52 66.6636   1
  -1   3   2 1963.55 66.4385   3
   1   3  -2 1908.23 66.5090   4
   1   3  -2 1915.55 66.0266   3
  -1   3   2 1880.59 66.3516   5
   0  -3   2 799.923 28.6867   4
   0  -3  -2 789.758 28.6894   4
   0  -3   2 794.631 28.6960   2
   0  -3  -2 799.291 28.6098   2
   0  -3  -2 810.738 28.4952   1
   0   3   2 815.522 28.7284   3
   0   3  -2 823.060 28.1812   3
   0   3  -2 824.632 28.9220   1
   0   3  -2 792.129 28.6404   5
   0   3  -2 810.899 28.9392   4
   0   3   2 827.992 28.5230   5
  -1  -3  -2 53.3729 2.09610   1
   1  -3   2 52.6272 2.60379   4
   1  -3   2 58.3522 2.60795   1
  -1  -3  -2 50.7287 2.61239   2
  -1  -3  -2 56.2543 2.48170   4
   1  -3   2 54.2000 2.56856   2
   1   3   2 51.6267 2.41494   5
  -1   3  -2 56.3226 2.51561   5
   1   3   2 54.9849 2.67890   3
  -1   3  -2 52.1472 2.24418   3
  -1   3  -2 49.4075 2.64042   1
   2  -3   2 3.49044 0.61861   3
   2  -3   2 4.25962 0.70878   5
   2  -3   2 3.59340 0.67486   4
   2  -3   2 3.86296 0.68438   2
   2  -3   2 4.50653 0.74251   1
  -2  -3  -2 4.45671 0.57991   4
  -2  -3  -2 4.07383 0.83055   2
   2   3   2 2.87150 0.66644   3
   2   3   2 4.24008 0.69471   5
  -2   3  -2 3.85042 0.76278   1
  -2   3  -2 3.44265 0.63325   5
  -2   3  -2 3.46569 0.60622   3
   3  -3   2 307.603 11.7135   1
   3  -3   2 297.748 11.7446   3
   3  -3   2 312.643 11.7375   4
  -3  -3  -2 307.339 12.0306   2
  -3  -3  -2 315.292 11.1576   4
   3  -3   2 311.118 11.7064   2
   3  -3   2 309.801 11.7462   5
  -3   3  -2 302.991 11.7802   5
   3   3   2 301.675 11.6080   5
   3   3   2 311.814 11.9958   3
   3   3   2 306.026 10.8303   1
  -4  -3  -2 58.3365 2.44188   4
  -4  -3  -2 59.0244 3.40675   2
   4  -3   2 59.8771 3.07263   4
   4  -3   2 52.6207 3.05384   1
   4  -3   2 58.5407 3.22233   5
   4  -3   2 58.5420 3.08982   2
   4  -3   2 60.4977 3.32685   3
   4   3   2 59.0645 2.47281   1
   4   3   2 62.6542 3.48197   3
   4   3   2 58.3863 3.14243   5
   5  -3   2 108.534 4.99761   2
  -5  -3  -2 107.875 4.01995   4
  -5  -3  -2 103.642 5.33063   2
   5  -3   2 105.624 5.33840   3
   5  -3   2 107.048 4.90257   4
   5  -3   2 109.188 5.08625   1
   5  -3   2 104.327 5.21561   5
  -5   3  -2 100.705 5.11379   2
   5   3   2 108.925 5.18916   5
   5   3   2 99.0664 5.40903   3
   5   3   2 107.063 4.36822   1
  -6  -3  -2 219.971 9.67266   2
   6  -3   2 209.708 9.26863   1
   6  -3   2 213.419 9.18570   2
   6  -3   2 226.504 9.88601   3
   6  -3   2 225.229 9.07432   4
   6  -3   2 221.078 9.65597   5
   6   3   2 225.088 8.61715   1
   6   3   2 213.810 9.94615   3
  -6   3  -2 225.104 9.50418   2
   6   3   2 228.992 9.67085   5
   7  -3   2 -0.0006 0.55316   4
   7  -3   2 -0.2914 0.77714   3
  -7  -3  -2 1.85627 1.01396   2
   7  -3   2 0.64895 0.75192   1
   7  -3   2 0.84348 0.75993   2
   7  -3   2 1.08112 0.81266   5
   7   3   2 -0.5631 0.60549   5
   7   3   2 -0.3563 0.67026   3
  -7   3  -2 0.60764 0.74086   2
   8  -3   2 23.7672 3.15071   3
   8  -3   2 21.8394 2.69063   1
   8  -3   2 26.7740 3.29611   5
  -8  -3  -2 23.1284 2.85492   2
   8   3   2 20.1961 3.06642   3
   8   3   2 25.7843 3.17479   5
  -8   3  -2 23.8808 2.71913   2
   9  -3   2 -0.2697 1.03011   5
   9  -3   2 -0.0628 0.71447   3
   9  -3   2 0.74676 0.92007   1
  -9  -3  -2 -0.6226 0.79345   2
   9   3   2 0.00386 1.07252   5
  -9   3  -2 0.27659 0.97908   2
  -9   3  -2 1.26649 1.03535   3
   9   3   2 -0.7666 1.00733   3
 -10  -3  -2 1.23115 1.09086   2
  10  -3   2 4.25677 1.64036   5
  10  -3   2 4.21292 1.74980   3
  10   3   2 3.21300 1.82523   3
  10   3   2 1.32166 1.20714   5
 -10   3  -2 -0.0909 1.30761   3
  11  -3   2 2.22964 1.62001   5
  11  -3   2 -1.9910 1.08523   3
 -11  -3  -2 -0.8650 1.27286   2
  11   3   2 2.04611 1.89393   3
  11   3   2 0.90841 1.38245   5
 -11   3  -2 -1.8717 1.43915   3
  12  -3   2 -0.0789 1.59685   5
  12  -3   2 -1.1270 1.63993   3
 -12   3  -2 0.37147 1.95986   3
  12   3   2 0.48895 1.36386   3
  12   3   2 2.56600 1.73541   5
  12  -4  -2 6.42885 2.47714   3
  12  -4  -2 8.08593 2.29002   1
  12  -4  -2 3.59415 1.76758   5
  12   4  -2 9.39594 2.86142   3
 -12   4   2 1.04330 2.06403   3
  12   4  -2 7.17909 2.55930   5
  11  -4  -2 9.52418 2.52988   3
  11  -4  -2 9.49543 2.64873   5
  11  -4  -2 11.9313 2.71912   1
 -11   4   2 15.6153 3.21865   3
  11   4  -2 17.0502 3.44702   3
  11   4  -2 17.1321 3.44522   5
  10  -4  -2 1.89965 1.50618   1
  10  -4  -2 0.55198 1.52325   3
 -10  -4   2 1.22695 1.18209   2
  10  -4  -2 2.03527 1.63931   5
  10   4  -2 1.48501 1.17519   1
  10   4  -2 1.03555 1.20117   5
  10   4  -2 -1.3291 1.02779   3
 -10   4   2 -0.1757 1.54176   3
  -9  -4   2 47.7453 3.44247   2
   9  -4  -2 52.2151 4.54608   3
   9  -4  -2 46.2793 4.09360   5
   9  -4  -2 47.4885 4.12004   1
   9   4  -2 45.1748 3.66629   1
   9   4  -2 44.1904 3.98664   5
   9   4  -2 40.8963 4.61567   3
  -9   4   2 49.4486 4.35529   3
   8  -4  -2 62.8924 4.55821   1
   8  -4  -2 55.1825 3.68636   4
   8  -4  -2 60.9431 4.63577   3
  -8  -4   2 66.0892 3.90179   2
   8  -4  -2 58.5155 4.41219   5
   8   4  -2 60.9973 4.57702   3
   8   4  -2 60.3055 4.05663   1
  -8   4   2 57.5299 4.49324   3
   8   4  -2 57.0748 4.43451   5
   7  -4  -2 59.4123 4.25895   5
   7  -4  -2 71.0992 4.57415   3
   7  -4  -2 65.4840 4.43645   1
   7  -4  -2 59.9153 3.67682   4
  -7  -4   2 62.3574 3.74235   2
   7   4  -2 65.7477 4.05989   1
   7   4  -2 59.1893 4.21048   3
  -7   4   2 59.7112 4.24936   3
   7   4  -2 67.0108 4.51955   5
   6  -4  -2 488.847 18.9878   4
   6  -4  -2 524.483 19.9025   3
   6  -4  -2 515.969 19.7947   5
   6  -4  -2 510.977 19.7455   1
  -6  -4   2 489.402 18.8897   2
   6   4  -2 495.218 19.6461   5
   6   4  -2 492.737 19.2187   1
   6   4  -2 489.389 19.5761   3
  -6   4   2 491.168 19.6761   3
   5  -4  -2 3.03799 0.97447   5
  -5  -4   2 1.94482 0.65179   2
   5  -4  -2 2.69566 0.94932   1
   5  -4  -2 3.06392 0.99877   3
   5  -4  -2 3.10122 0.84499   4
   5   4  -2 2.53038 0.91041   5
   5   4  -2 2.05925 0.44515   4
   5   4  -2 1.94273 0.84240   3
  -5   4   2 3.63427 1.05412   3
   5   4  -2 2.56417 0.86233   1
   4  -4  -2 -0.4645 0.34522   4
  -4  -4   2 0.22749 0.42037   2
   4  -4  -2 -0.6752 0.38078   5
   4  -4  -2 -0.3466 0.31648   3
   4  -4  -2 -0.1997 0.35399   1
   4   4  -2 -0.0755 0.51720   1
   4   4  -2 -0.2521 0.41471   3
  -4   4   2 -0.2726 0.31525   3
   4   4  -2 0.02601 0.25158   4
   4   4  -2 -0.0813 0.40390   5
  -3  -4   2 466.110 17.5401   2
   3  -4  -2 469.828 17.6986   4
   3  -4  -2 490.972 17.9778   1
   3  -4  -2 484.374 17.8456   5
   3   4  -2 480.774 17.6137   3
   3   4  -2 476.327 17.2368   4
   3   4  -2 465.941 17.7897   5
   3   4  -2 475.888 17.8149   1
  -3   4   2 466.417 17.8063   3
   2  -4  -2 170.197 7.04254   5
   2  -4  -2 166.559 7.05403   4
   2  -4  -2 176.031 6.22233   2
  -2  -4   2 170.525 6.65199   4
  -2  -4   2 178.668 7.01252   2
   2  -4  -2 172.392 7.16228   1
   2   4  -2 179.256 6.82953   3
   2   4  -2 174.307 7.13139   5
  -2   4   2 165.511 7.07784   5
  -2   4   2 175.130 7.08857   3
   2   4  -2 172.569 7.25017   1
   2   4  -2 181.425 6.93267   4
   1  -4  -2 548.335 20.0989   4
   1  -4  -2 552.981 20.0450   1
   1  -4  -2 550.752 19.9327   5
   1  -4  -2 547.908 19.5761   2
  -1  -4   2 542.880 20.0190   2
  -1  -4   2 552.156 19.8791   4
   1   4  -2 560.097 19.6327   3
   1   4  -2 565.104 20.1575   4
   1   4  -2 556.959 20.2991   1
  -1   4   2 543.232 19.9944   5
  -1   4   2 569.581 20.0791   3
   1   4  -2 537.639 20.1077   5
   0  -4   2 38.3252 2.13176   2
   0  -4  -2 39.9630 2.13382   4
   0  -4  -2 38.4076 2.01688   2
   0  -4  -2 42.0539 2.01398   1
   0  -4   2 38.9663 2.13299   4
   0   4  -2 42.5571 1.81144   3
   0   4   2 38.3577 2.04859   5
   0   4   2 41.2960 2.25071   3
   0   4  -2 43.1097 2.23821   5
   0   4  -2 40.4182 2.32358   4
   0   4  -2 43.3209 2.38892   1
   1  -4   2 41.0601 2.28518   4
  -1  -4  -2 43.7024 2.14836   4
  -1  -4  -2 42.2446 2.29296   2
  -1  -4  -2 43.8411 1.83659   1
   1  -4   2 42.0714 2.22705   2
   1  -4   2 39.4044 2.21525   1
   1   4   2 43.1650 2.21017   5
  -1   4  -2 42.6158 1.93798   3
  -1   4  -2 41.1890 2.40012   1
  -1   4  -2 45.6805 2.28532   5
   1   4   2 39.7936 2.30729   3
   2  -4   2 176.825 7.39116   2
  -2  -4  -2 184.139 7.66339   2
   2  -4   2 192.099 7.54974   1
  -2  -4  -2 185.666 7.13127   4
   2  -4   2 197.725 7.49270   5
   2  -4   2 193.256 7.35743   3
   2  -4   2 190.925 7.60891   4
  -2   4  -2 189.148 7.30951   3
  -2   4  -2 181.973 7.70078   1
   2   4   2 190.725 7.68894   3
   2   4   2 186.741 7.40376   5
  -2   4  -2 189.302 7.53220   5
   2   4   2 183.576 6.74674   1
   3  -4   2 30.9949 1.98858   1
   3  -4   2 27.0244 1.84268   3
   3  -4   2 25.7781 1.77852   2
   3  -4   2 27.3737 1.87715   4
  -3  -4  -2 29.4995 1.46281   4
  -3  -4  -2 29.0645 2.09425   2
   3  -4   2 28.1386 1.91643   5
  -3   4  -2 27.0348 1.85131   3
   3   4   2 31.1319 1.92672   5
  -3   4  -2 25.3851 1.88844   5
  -3   4  -2 26.2359 2.02490   1
   3   4   2 28.7922 1.19844   1
   3   4   2 26.0214 2.02264   3
   4  -4   2 539.904 19.5938   1
   4  -4   2 513.593 19.6317   3
  -4  -4  -2 517.562 19.8061   2
  -4  -4  -2 534.290 18.5072   4
   4  -4   2 536.367 19.6450   5
   4  -4   2 511.404 19.4487   4
   4  -4   2 522.959 19.3488   2
  -4   4  -2 503.208 19.6415   5
   4   4   2 536.279 19.9436   3
   4   4   2 507.723 18.4972   1
  -4   4  -2 506.620 19.5834   3
   4   4   2 546.194 19.5455   5
   5  -4   2 6.79353 1.30864   3
   5  -4   2 5.83521 1.13495   1
   5  -4   2 6.39677 1.27975   5
   5  -4   2 4.47070 0.95092   2
  -5  -4  -2 4.04540 1.04110   2
   5  -4   2 5.10782 1.00122   4
   5   4   2 5.45976 1.32799   3
  -5   4  -2 3.66146 1.07779   3
   5   4   2 5.01139 0.67844   1
   5   4   2 4.52164 1.13230   5
   6  -4   2 0.17997 0.67244   5
   6  -4   2 -0.5564 0.37893   3
   6  -4   2 -0.8845 0.47225   2
  -6  -4  -2 0.53709 0.59180   2
   6  -4   2 0.59215 0.56284   1
   6  -4   2 -0.0186 0.55576   4
  -6   4  -2 0.33994 0.60483   2
   6   4   2 -0.4406 0.47349   5
   6   4   2 -0.7964 0.70433   3
  -6   4  -2 0.09613 0.50391   3
   7  -4   2 84.9394 5.23989   3
   7  -4   2 91.3593 4.97411   1
   7  -4   2 86.5443 4.65621   2
   7  -4   2 88.0038 5.18780   5
   7  -4   2 89.4798 4.63448   4
  -7  -4  -2 87.3821 5.10047   2
   7   4   2 82.2579 5.07107   5
   7   4   2 93.1715 5.61546   3
  -7   4  -2 85.5526 5.22518   3
  -7   4  -2 91.8000 4.94241   2
   8  -4   2 30.3997 2.42527   4
   8  -4   2 28.9183 3.22203   1
   8  -4   2 25.8908 3.23875   5
  -8  -4  -2 33.6478 3.54413   2
   8  -4   2 33.2123 3.79562   3
   8   4   2 33.3475 3.63007   5
  -8   4  -2 30.1271 2.64441   2
   8   4   2 25.0890 3.50370   3
  -8   4  -2 28.5682 3.53268   3
  -9  -4  -2 0.09309 1.16117   2
   9  -4   2 0.23864 0.92686   1
   9  -4   2 0.79167 0.88757   3
   9  -4   2 0.35429 1.20682   5
  -9   4  -2 0.63336 0.93215   3
   9   4   2 2.40339 1.37808   3
   9   4   2 -0.5183 1.00972   5
 -10  -4  -2 54.1600 4.28070   2
  10  -4   2 47.0935 5.05710   5
  10  -4   2 50.9495 3.98808   1
  10  -4   2 42.4725 5.06174   3
  10   4   2 47.7813 5.10926   5
 -10   4  -2 43.9969 5.08109   3
  10   4   2 57.9645 4.91101   3
  11  -4   2 -0.0302 1.36734   5
 -11  -4  -2 0.53387 1.40932   2
  11  -4   2 -1.0518 1.48271   3
 -11   4  -2 2.07337 1.87619   3
  11   4   2 2.40806 1.62944   3
  11   4   2 1.31055 1.46895   5
 -12  -4  -2 12.0449 3.09660   2
  12  -4   2 17.3454 3.17730   5
  12  -4   2 19.0595 3.84007   3
  12   4   2 14.2875 2.99030   5
  12   4   2 16.6936 4.09437   3
 -12   4  -2 14.3232 3.44208   3
  12  -5  -2 -0.8837 1.11650   3
  12  -5  -2 0.76620 2.06561   5
  12  -5  -2 0.81720 1.59395   1
 -12   5   2 -1.1942 1.31420   3
  12   5  -2 0.69340 1.78515   3
  12   5  -2 3.36556 1.99918   5
  11  -5  -2 8.40778 2.53675   5
  11  -5  -2 7.98585 2.26497   1
  11  -5  -2 8.36489 2.80404   3
  11   5  -2 6.02815 2.12998   3
 -11   5   2 8.65004 2.89479   3
  11   5  -2 7.90848 2.52562   5
 -10  -5   2 -0.2323 1.12831   2
  10  -5  -2 0.79093 1.34635   3
  10  -5  -2 1.01195 1.69495   5
  10  -5  -2 0.15322 0.96775   1
 -10   5   2 -1.2961 1.50984   3
  10   5  -2 -1.1104 1.23908   3
  10   5  -2 0.69610 1.37025   5
   9  -5  -2 0.67087 0.97066   4
   9  -5  -2 -0.2647 0.82347   5
   9  -5  -2 1.40195 1.44587   3
  -9  -5   2 1.90107 1.08527   2
   9  -5  -2 -0.2465 0.86258   1
   9   5  -2 0.56534 0.96731   1
   9   5  -2 0.62177 0.97780   3
   9   5  -2 -0.0508 0.75265   5
  -9   5   2 0.16403 1.40675   3
   8  -5  -2 -0.7645 0.61315   1
   8  -5  -2 -0.4471 0.62347   5
   8  -5  -2 -0.7782 0.96584   3
   8  -5  -2 -0.7302 0.41153   4
  -8  -5   2 0.20425 0.78739   2
  -8   5   2 -0.8829 0.96779   3
   8   5  -2 -0.8683 0.53370   5
   8   5  -2 -0.9879 0.54934   3
   8   5  -2 0.39704 0.80358   1
  -7  -5   2 72.9803 4.16860   2
   7  -5  -2 79.9932 4.94523   3
   7  -5  -2 64.9662 4.59478   1
   7  -5  -2 75.9569 4.30012   4
   7  -5  -2 61.9038 4.56541   5
   7   5  -2 61.9351 4.40357   3
  -7   5   2 74.4941 4.76706   3
   7   5  -2 59.6197 4.46971   5
   7   5  -2 70.5561 4.29277   1
   6  -5  -2 10.3140 1.89831   5
   6  -5  -2 13.7816 2.10066   3
  -6  -5   2 14.7288 1.84514   2
   6  -5  -2 15.9583 2.03805   4
   6  -5  -2 12.5417 2.08726   1
   6   5  -2 12.5643 2.03680   3
  -6   5   2 10.8407 1.87066   3
   6   5  -2 13.6446 2.20097   5
   6   5  -2 11.8390 1.84573   1
   5  -5  -2 276.078 11.2319   4
  -5  -5   2 273.129 11.0545   2
   5  -5  -2 267.975 11.5192   5
   5  -5  -2 273.882 11.6401   1
   5   5  -2 271.694 11.2441   1
  -5   5   2 276.955 11.5910   3
   5   5  -2 293.757 11.6663   5
   5   5  -2 258.151 11.3275   3
   5   5  -2 278.050 10.1170   4
  -4  -5   2 24.2188 1.86233   2
   4  -5  -2 24.3125 2.04632   5
   4  -5  -2 24.3145 2.57486   1
   4  -5  -2 23.5008 1.97690   4
   4   5  -2 30.5249 2.24512   1
   4   5  -2 24.7316 2.00248   3
   4   5  -2 25.4367 1.52236   4
   4   5  -2 24.1490 2.13829   5
  -4   5   2 26.2881 2.11872   3
  -3  -5   2 216.787 9.16402   2
   3  -5  -2 237.554 9.46267   5
   3  -5  -2 220.934 9.48224   1
   3  -5  -2 234.303 9.40453   4
   3   5  -2 234.784 8.90926   4
   3   5  -2 222.907 9.14612   3
  -3   5   2 241.244 9.49055   3
   3   5  -2 236.891 9.49527   5
   3   5  -2 232.556 9.46050   1
  -3   5   2 228.080 9.49833   5
  -2  -5   2 419.906 15.8883   2
   2  -5  -2 434.266 16.0574   4
  -2  -5   2 438.916 15.5497   4
   2  -5  -2 424.596 15.9462   5
   2  -5  -2 418.027 16.0416   1
   2  -5  -2 422.155 15.0807   2
  -2   5   2 458.064 16.0727   3
   2   5  -2 420.499 16.1520   1
   2   5  -2 430.806 16.1186   5
  -2   5   2 411.683 16.0022   5
   2   5  -2 411.834 15.7714   4
   2   5  -2 421.627 15.6388   3
   1  -5  -2 40.1066 2.27505   4
  -1  -5   2 39.2686 2.05808   4
  -1  -5   2 35.5936 2.09897   2
   1  -5  -2 37.2185 1.78342   2
   1  -5  -2 36.0980 2.11886   1
   1   5  -2 33.0220 2.23960   1
   1   5  -2 35.1735 1.85241   3
   1   5  -2 32.4689 2.11976   4
   1   5  -2 36.0903 2.24099   5
  -1   5   2 36.1608 2.14045   3
  -1   5   2 34.5854 2.10409   5
   0  -5  -2 14.7560 1.09087   1
   0  -5   2 13.5087 1.38462   4
   0  -5   2 13.8937 1.16460   2
   0  -5  -2 15.4018 1.21274   4
   0  -5  -2 13.3423 1.07312   2
   0   5  -2 14.2078 1.59583   1
   0   5   2 15.4607 1.19690   5
   0   5  -2 14.6089 0.99388   3
   0   5  -2 15.0836 1.55752   5
   0   5   2 14.8500 1.27646   3
  -1  -5  -2 687.407 24.7723   2
   1  -5   2 696.705 24.8219   1
   1  -5   2 663.037 24.8352   4
  -1  -5  -2 676.800 24.5743   4
   1  -5   2 711.728 24.7357   2
  -1  -5  -2 667.199 24.1955   1
  -1   5  -2 681.864 25.0697   1
   1   5   2 686.524 24.7270   5
   1   5   2 663.704 24.8715   3
  -1   5  -2 706.479 24.3355   3
  -1   5  -2 686.480 24.8032   5
   1   5   2 686.676 24.3115   1
   2  -5   2 191.411 7.99770   4
  -2  -5  -2 197.073 7.53771   4
   2  -5   2 200.918 7.99529   1
   2  -5   2 201.903 7.82575   2
  -2  -5  -2 196.197 8.05224   2
  -2   5  -2 192.149 7.63549   3
  -2   5  -2 194.999 7.97335   5
   2   5   2 196.264 7.24291   1
   2   5   2 198.627 8.10853   3
   2   5   2 191.183 7.87026   5
  -2   5  -2 192.457 8.18984   1
   3  -5   2 129.238 5.70285   2
  -3  -5  -2 155.007 6.29027   2
   3  -5   2 132.906 5.95061   1
   3  -5   2 139.994 5.89082   3
   3  -5   2 130.413 5.94460   4
  -3  -5  -2 132.663 5.25811   4
   3  -5   2 136.592 5.93592   5
  -3   5  -2 127.027 6.11566   1
   3   5   2 127.245 4.99662   1
   3   5   2 134.349 6.12406   3
   3   5   2 141.493 5.90082   5
  -3   5  -2 132.555 6.00173   5
  -3   5  -2 132.292 5.78494   3
  -4  -5  -2 87.4282 4.46894   2
   4  -5   2 74.1157 4.07661   4
   4  -5   2 83.5092 4.23627   5
   4  -5   2 78.0607 3.91446   2
   4  -5   2 75.8047 4.11543   1
   4  -5   2 80.3063 4.20254   3
  -4  -5  -2 81.8781 3.26294   4
   4   5   2 90.5898 4.59409   3
  -4   5  -2 75.7031 4.11172   3
   4   5   2 79.2766 4.11349   5
   4   5   2 80.6375 3.23633   1
  -4   5  -2 85.9279 4.35394   5
   5  -5   2 10.8716 1.68333   1
   5  -5   2 11.4941 1.77030   5
   5  -5   2 12.1991 1.54175   2
   5  -5   2 9.36279 1.58743   3
  -5  -5  -2 10.8499 1.76141   2
   5  -5   2 13.0976 1.66665   4
   5   5   2 15.6121 1.94960   5
  -5   5  -2 14.7476 2.03578   5
   5   5   2 10.9070 1.86732   3
  -5   5  -2 11.0897 1.71617   3
   5   5   2 12.6483 1.39705   1
   6  -5   2 8.02674 1.58349   5
   6  -5   2 7.97299 1.48678   4
   6  -5   2 12.7347 2.04461   3
   6  -5   2 10.4649 1.81231   1
   6  -5   2 9.38488 1.40550   2
  -6  -5  -2 12.4628 1.93226   2
   6   5   2 10.5351 1.83432   5
  -6   5  -2 9.22547 1.55456   2
   6   5   2 8.22948 1.71290   3
  -6   5  -2 8.16770 1.63292   3
  -6   5  -2 12.1062 1.95700   5
   7  -5   2 9.14876 1.65185   4
   7  -5   2 8.50159 1.82727   3
   7  -5   2 9.47874 1.83815   1
  -7  -5  -2 9.73136 1.84416   2
   7  -5   2 10.5955 1.64738   2
   7  -5   2 10.6663 2.04241   5
  -7   5  -2 9.21512 1.65039   2
   7   5   2 9.89269 2.17098   3
   7   5   2 11.3568 2.08932   5
  -7   5  -2 9.20971 1.88239   3
   8  -5   2 9.46190 2.05478   3
   8  -5   2 11.7729 2.09555   1
  -8  -5  -2 9.99874 1.96734   2
   8  -5   2 11.9257 2.29599   5
   8  -5   2 14.6434 2.00030   4
   8   5   2 13.9161 2.69139   3
  -8   5  -2 10.0715 2.05578   3
   8   5   2 9.52114 1.97885   5
   9  -5   2 34.8940 3.76963   1
  -9  -5  -2 35.0565 3.82725   2
   9  -5   2 35.7994 4.07329   5
   9  -5   2 28.7755 3.75240   3
   9   5   2 31.7980 3.94147   5
   9   5   2 29.2092 4.07470   3
  -9   5  -2 32.4118 3.92713   3
  10  -5   2 0.78191 1.32812   5
  10  -5   2 1.87441 1.74594   3
 -10  -5  -2 1.10250 1.34158   2
  10  -5   2 -0.9940 1.03405   1
  10   5   2 0.62288 1.07112   5
 -10   5  -2 -1.2251 1.20436   3
  10   5   2 0.55177 1.25779   3
  11  -5   2 22.8836 3.56273   5
 -11  -5  -2 27.3229 3.73407   2
  11  -5   2 24.6729 4.04137   3
  11   5   2 19.8421 3.48440   5
 -11   5  -2 19.3978 3.54784   3
  11   5   2 19.6052 3.47456   3
  12  -5   2 0.63761 1.67205   5
  12   5   2 3.06369 1.97243   5
  12  -6  -2 6.45220 2.44103   1
  12   6  -2 1.27958 1.35463   5
  12   6  -2 6.20605 2.52469   3
  11  -6  -2 27.1882 4.13501   1
  11  -6  -2 22.4167 3.98403   3
 -11  -6   2 21.6762 3.15624   2
  11  -6  -2 22.8010 3.88287   5
 -11   6   2 22.0604 3.91040   3
  11   6  -2 19.4910 3.49502   3
  11   6  -2 20.3454 3.63550   5
 -10  -6   2 4.76746 1.47390   2
  10  -6  -2 6.32547 2.06371   3
  10  -6  -2 6.00073 2.16256   5
  10  -6  -2 6.06488 2.18307   1
  10   6  -2 6.20725 2.17291   3
  10   6  -2 4.39337 1.65856   5
 -10   6   2 5.95615 2.06304   3
  -9  -6   2 17.7210 2.59897   2
   9  -6  -2 17.1348 3.13371   1
   9  -6  -2 14.3079 2.34244   4
   9  -6  -2 20.4031 3.29295   3
   9  -6  -2 19.2219 3.25995   5
   9   6  -2 19.6475 3.24439   3
   9   6  -2 19.6425 2.76011   1
   9   6  -2 20.1208 3.31651   5
  -9   6   2 20.3288 3.15532   3
   8  -6  -2 1.58438 1.15689   4
   8  -6  -2 0.37515 0.82155   1
  -8  -6   2 0.30709 0.86243   2
   8  -6  -2 1.24068 1.28386   3
   8  -6  -2 -0.9541 1.01292   5
   8   6  -2 2.82832 1.16492   1
   8   6  -2 -1.0353 0.79356   5
  -8   6   2 1.40680 1.21073   3
   8   6  -2 0.49847 1.24801   3
  -7  -6   2 4.93644 1.34166   2
   7  -6  -2 6.54975 1.83082   1
   7  -6  -2 2.39296 1.13282   3
   7  -6  -2 7.85005 1.68755   4
   7  -6  -2 5.95927 1.61789   5
  -7   6   2 4.41976 1.42817   3
   7   6  -2 4.92643 1.37962   1
   7   6  -2 4.84033 1.56416   3
   7   6  -2 6.10763 1.66844   5
  -6  -6   2 257.539 10.3324   2
   6  -6  -2 258.292 10.9194   5
   6  -6  -2 233.346 10.3132   4
   6  -6  -2 225.899 10.6525   1
   6   6  -2 236.096 10.2803   1
   6   6  -2 222.597 10.5640   5
  -6   6   2 264.172 10.9879   3
   6   6  -2 222.815 10.4772   3
   5  -6  -2 19.6672 2.40844   5
   5  -6  -2 19.4349 2.24478   4
  -5  -6   2 15.4155 1.95166   2
   5  -6  -2 19.6048 2.46117   1
  -5   6   2 17.1810 2.24680   3
   5   6  -2 17.1505 1.29089   4
   5   6  -2 16.2316 2.28333   5
  -5   6   2 17.1668 2.31736   5
   5   6  -2 19.8168 2.34773   1
   5   6  -2 16.8664 2.15047   3
   4  -6  -2 107.671 5.59756   5
   4  -6  -2 123.914 5.90789   1
   4  -6  -2 118.329 5.62662   4
  -4  -6   2 118.216 5.46938   2
  -4   6   2 115.834 5.71247   3
   4   6  -2 107.648 5.40636   3
  -4   6   2 117.961 5.82864   5
   4   6  -2 115.627 5.75877   5
   4   6  -2 114.773 4.85284   4
   4   6  -2 112.762 5.59566   1
   3  -6  -2 60.9063 3.39427   5
  -3  -6   2 57.6946 3.23523   2
   3  -6  -2 58.7632 2.31747   2
   3  -6  -2 58.2319 3.45591   1
   3  -6  -2 59.8405 3.42526   4
   3   6  -2 54.7971 3.36442   1
  -3   6   2 56.7872 3.32163   3
   3   6  -2 59.0034 2.98325   4
   3   6  -2 59.9729 3.18898   3
  -3   6   2 62.4201 3.51016   5
   3   6  -2 56.0253 3.41006   5
   2  -6  -2 14.4350 1.66702   1
   2  -6  -2 10.3258 0.81921   2
   2  -6  -2 14.7495 1.67919   4
  -2  -6   2 12.5445 1.45682   2
   2  -6  -2 13.5615 1.58000   5
  -2  -6   2 12.9806 1.06754   4
   2   6  -2 12.0314 1.33062   3
   2   6  -2 14.4985 1.75213   5
  -2   6   2 13.5018 1.60294   3
   2   6  -2 12.1702 1.70030   1
  -2   6   2 12.8445 1.60388   5
   2   6  -2 13.2621 1.46152   4
   1  -6  -2 1398.52 49.9731   4
   1  -6  -2 1418.76 49.8586   1
  -1  -6   2 1391.89 49.8657   2
  -1  -6   2 1360.95 49.6902   4
   1  -6  -2 1414.96 49.3381   2
   1   6  -2 1393.55 50.0799   5
  -1   6   2 1417.40 49.9350   3
  -1   6   2 1429.66 49.9299   5
   1   6  -2 1401.30 50.1776   1
   1   6  -2 1431.48 49.4716   3
   0  -6  -2 57.4464 3.02385   4
   0  -6  -2 57.3623 2.82168   1
   0  -6   2 54.6983 2.98184   4
   0  -6  -2 58.1073 2.82637   2
   0  -6   2 61.9296 3.04388   2
   0   6  -2 52.5567 3.09849   5
   0   6  -2 57.3709 2.68101   3
   0   6   2 56.7229 2.99693   5
   0   6  -2 58.2271 3.25267   1
   0   6   2 58.3262 3.15467   3
   1  -6   2 9.75229 1.22160   2
   1  -6   2 11.8936 1.42821   1
  -1  -6  -2 9.45754 1.13984   4
  -1  -6  -2 9.51577 0.81238   1
  -1  -6  -2 9.23372 1.22130   2
   1  -6   2 8.75425 1.25692   4
  -1   6  -2 8.22302 1.34348   1
   1   6   2 10.6215 1.41848   5
   1   6   2 11.2077 0.95093   1
  -1   6  -2 10.3703 1.37296   5
   1   6   2 8.02320 1.25277   3
  -1   6  -2 10.0641 1.03353   3
  -2  -6  -2 444.685 17.1218   2
  -2  -6  -2 466.353 16.6614   4
   2  -6   2 445.585 17.1066   1
   2  -6   2 461.515 17.2249   4
   2  -6   2 454.695 16.8794   2
  -2   6  -2 454.828 16.7087   3
   2   6   2 439.342 17.2052   3
  -2   6  -2 452.424 17.1446   5
  -2   6  -2 451.496 17.4352   1
   2   6   2 451.328 17.0788   5
   2   6   2 471.053 16.4067   1
  -3  -6  -2 74.1795 3.27074   4
  -3  -6  -2 73.0223 3.94997   2
   3  -6   2 75.0053 3.94017   4
   3  -6   2 77.8955 3.98028   1
   3  -6   2 69.3153 3.57120   2
   3  -6   2 82.8894 3.99455   5
   3   6   2 70.1241 3.82523   5
  -3   6  -2 67.6904 4.05765   1
  -3   6  -2 67.0284 3.85737   5
   3   6   2 73.3324 3.10954   1
   3   6   2 77.4417 4.13615   3
  -3   6  -2 74.1926 3.70003   3
   4  -6   2 287.978 11.8828   4
   4  -6   2 293.792 11.9357   1
   4  -6   2 289.344 11.5163   2
  -4  -6  -2 286.558 12.0320   2
  -4  -6  -2 293.955 10.7894   4
   4  -6   2 313.222 11.9829   3
   4  -6   2 312.526 12.0243   5
   4   6   2 297.896 12.2173   3
  -4   6  -2 300.914 11.8534   3
  -4   6  -2 293.080 12.2246   1
  -4   6  -2 272.758 11.9376   5
   4   6   2 295.755 11.8435   5
   4   6   2 297.686 10.7605   1
   5  -6   2 0.64513 0.71538   3
   5  -6   2 0.29316 0.49756   2
   5  -6   2 1.41908 0.77714   4
   5  -6   2 0.04198 0.67255   5
   5  -6   2 3.92493 1.13544   1
  -5  -6  -2 1.45791 0.80158   2
  -5   6  -2 1.88380 0.94820   3
  -5   6  -2 0.60871 0.82045   5
   5   6   2 0.60802 0.64167   3
   5   6   2 -0.1143 0.65101   5
  -6  -6  -2 -0.5461 0.98845   2
   6  -6   2 2.15754 0.96317   4
   6  -6   2 2.04615 1.13207   5
   6  -6   2 2.34225 1.10466   3
   6  -6   2 1.04125 0.92570   1
   6  -6   2 1.39832 0.67937   2
   6   6   2 1.40172 0.98149   5
  -6   6  -2 2.08813 1.12470   3
  -6   6  -2 1.17304 1.05586   5
   6   6   2 0.84664 1.05323   3
   7  -6   2 93.5522 5.37105   5
   7  -6   2 86.2401 5.31750   3
   7  -6   2 82.6996 4.48750   2
   7  -6   2 81.3144 4.94500   1
  -7  -6  -2 85.7295 5.25037   2
   7  -6   2 83.8998 4.75003   4
   7   6   2 84.1882 5.12941   5
  -7   6  -2 88.8114 5.40269   5
   7   6   2 77.1233 5.39191   3
  -7   6  -2 79.5744 5.15506   3
  -7   6  -2 87.9054 4.79792   2
   8  -6   2 0.71558 1.12619   1
   8  -6   2 0.53415 0.95145   4
   8  -6   2 0.00569 1.03243   3
   8  -6   2 0.74188 0.87031   5
  -8  -6  -2 0.63279 1.04490   2
  -8   6  -2 1.57475 1.30430   3
   8   6   2 2.24335 1.28946   5
   8   6   2 1.54445 1.11935   3
  -8   6  -2 3.34414 1.32128   5
   9  -6   2 5.82012 1.98897   3
  -9  -6  -2 5.33080 1.74382   2
   9  -6   2 3.95867 1.64478   5
   9  -6   2 5.95006 1.65781   1
  -9   6  -2 3.55146 1.56442   5
   9   6   2 5.94812 1.72137   5
   9   6   2 3.65936 1.97258   3
  -9   6  -2 5.46459 1.93602   3
 -10  -6  -2 53.6427 4.61795   2
  10  -6   2 63.7257 5.32098   3
  10  -6   2 64.4467 4.74368   1
  10  -6   2 67.8952 5.17288   5
 -10   6  -2 54.3780 4.86781   5
 -10   6  -2 62.9039 5.25724   3
  10   6   2 51.6732 4.58438   5
  10   6   2 62.5721 5.48928   3
  11  -6   2 -0.3173 1.07074   3
 -11  -6  -2 0.93287 1.59040   2
  11  -6   2 2.11778 1.45540   5
  11   6   2 -0.4147 1.07876   5
  11   6   2 -0.4765 1.48100   3
 -11   6  -2 1.16469 1.29244   5
 -11   6  -2 -0.3472 1.16385   3
 -11  -7   2 1.52012 1.60390   2
  11  -7  -2 0.98725 1.68897   5
  11  -7  -2 0.57503 1.58334   1
  11   7  -2 2.06676 1.53676   3
 -11   7   2 3.32931 1.73436   3
  11   7  -2 5.77703 1.85531   5
  10  -7  -2 51.2831 4.54838   1
  10  -7  -2 58.5611 4.98912   5
 -10  -7   2 39.1302 4.20409   2
  10   7  -2 41.5306 5.01794   5
 -10   7   2 44.7936 5.12569   3
  10   7  -2 43.8996 5.06912   3
   9  -7  -2 0.74759 1.27047   4
  -9  -7   2 2.12027 1.26985   2
   9  -7  -2 0.97639 1.16376   1
   9  -7  -2 1.74010 1.65522   5
  -9   7   2 2.71531 1.42774   3
   9   7  -2 1.59570 1.44591   5
   9   7  -2 1.77957 1.47078   3
   8  -7  -2 51.9682 4.28260   5
   8  -7  -2 49.0735 3.76198   4
   8  -7  -2 47.8899 4.17528   1
  -8  -7   2 43.6850 3.41532   2
   8   7  -2 41.0371 3.39885   1
   8   7  -2 44.0603 3.87969   5
   8   7  -2 42.5240 4.52244   3
  -8   7   2 46.5461 4.74209   3
   7  -7  -2 45.0238 3.57766   4
  -7  -7   2 55.7243 3.61878   2
   7  -7  -2 45.8844 3.79257   1
   7  -7  -2 50.4204 3.89418   5
   7   7  -2 46.3130 3.73334   5
  -7   7   2 42.6199 3.72316   5
   7   7  -2 47.6478 3.74948   3
  -7   7   2 49.8899 4.00221   3
   7   7  -2 50.0120 3.49666   1
   6  -7  -2 21.5765 2.67281   4
   6  -7  -2 23.4078 2.89836   5
  -6  -7   2 22.8739 2.61136   2
   6  -7  -2 19.8535 2.75018   1
   6   7  -2 20.5232 2.52049   1
   6   7  -2 27.6943 3.12707   5
   6   7  -2 22.4756 2.75820   3
  -6   7   2 20.3463 2.78057   5
  -6   7   2 16.1677 2.46268   3
   5  -7  -2 0.97215 0.72745   4
  -5  -7   2 -0.3677 0.65009   2
   5  -7  -2 1.00294 0.76269   1
   5  -7  -2 0.72762 0.74810   5
   5   7  -2 -0.1141 0.87295   1
  -5   7   2 -0.3609 0.64444   3
  -5   7   2 -0.3272 0.78256   5
   5   7  -2 -0.0927 0.69438   5
   5   7  -2 0.02842 0.63210   3
   4  -7  -2 78.5857 4.54037   1
   4  -7  -2 85.4046 4.57732   5
  -4  -7   2 79.6356 4.33637   2
   4  -7  -2 81.9972 4.52805   4
   4   7  -2 78.4477 4.54595   5
  -4   7   2 86.8692 4.71201   5
   4   7  -2 82.1960 4.53503   1
   4   7  -2 82.9096 3.79249   4
  -4   7   2 77.6533 4.44088   3
   4   7  -2 71.9630 4.16470   3
  -3  -7   2 1.43527 0.80540   2
   3  -7  -2 1.78161 0.37986   2
   3  -7  -2 1.92287 0.76185   5
   3  -7  -2 3.29817 0.96383   4
   3  -7  -2 3.38160 0.97682   1
  -3  -7   2 2.23763 0.60008   4
   3   7  -2 3.21329 1.23848   5
   3   7  -2 1.28087 0.66800   3
  -3   7   2 2.28989 0.89020   3
   3   7  -2 1.68412 0.64129   4
   3   7  -2 4.51863 1.33761   1
  -3   7   2 1.76137 0.77905   5
  -2  -7   2 206.421 8.46986   2
  -2  -7   2 197.392 8.06261   4
   2  -7  -2 202.569 7.65207   2
   2  -7  -2 194.079 8.54788   4
   2  -7  -2 196.502 8.51230   1
  -2   7   2 208.584 8.62485   5
  -2   7   2 213.751 8.57963   3
   2   7  -2 204.651 8.74250   5
   2   7  -2 204.961 8.16893   3
   2   7  -2 199.031 8.37346   4
   2   7  -2 200.241 8.68289   1
  -1  -7   2 178.836 7.55738   2
   1  -7  -2 179.192 7.04547   2
  -1  -7   2 176.443 7.41631   4
   1  -7  -2 176.350 7.64952   4
   1  -7  -2 174.672 7.47380   1
   1   7  -2 178.746 7.82867   5
   1   7  -2 174.127 7.79173   1
  -1   7   2 185.399 7.64477   5
  -1   7   2 174.864 7.59026   3
   1   7  -2 195.518 7.27853   3
   0  -7  -2 122.540 5.55738   4
   0  -7  -2 127.197 5.35090   1
   0  -7  -2 124.341 5.30866   2
   0  -7   2 123.174 5.60003   4
   0  -7   2 130.870 5.59624   2
   0   7   2 122.274 5.59184   5
   0   7  -2 118.828 5.69867   5
   0   7   2 126.646 5.69488   3
   0   7  -2 123.776 5.19995   3
   0   7  -2 124.157 5.87046   1
  -1  -7  -2 34.3735 2.13215   4
   1  -7   2 33.0581 2.25442   1
   1  -7   2 31.8139 2.11140   2
  -1  -7  -2 34.2173 1.87064   1
  -1  -7  -2 33.5713 2.14119   2
   1  -7   2 33.4233 2.27965   4
  -1   7  -2 32.3331 2.31780   5
  -1   7  -2 34.4798 1.95583   3
   1   7   2 30.2364 2.26814   3
  -1   7  -2 33.5528 2.49428   1
   1   7   2 29.9645 2.27140   5
   1   7   2 28.0937 1.88548   1
   2  -7   2 0.01862 0.42639   4
  -2  -7  -2 0.43643 0.44618   4
   2  -7   2 0.07445 0.36933   1
   2  -7   2 1.11447 0.55691   2
  -2  -7  -2 0.09694 0.55891   2
  -2   7  -2 -0.1394 0.46408   1
   2   7   2 0.67958 0.42072   1
  -2   7  -2 0.23170 0.39388   3
  -2   7  -2 1.28795 0.67693   5
   2   7   2 -0.0447 0.81685   3
   2   7   2 0.14615 0.61602   5
  -3  -7  -2 45.7438 2.38841   4
  -3  -7  -2 45.1018 2.97811   2
   3  -7   2 42.4803 2.90013   1
   3  -7   2 48.8083 2.70459   2
   3  -7   2 44.2269 2.99467   4
   3   7   2 43.4411 2.88814   5
  -3   7  -2 45.0908 3.19236   1
  -3   7  -2 43.1619 2.96229   5
  -3   7  -2 51.4332 2.80306   3
   3   7   2 43.3477 3.08501   3
   3   7   2 43.5071 2.29329   1
  -4  -7  -2 19.2008 1.27687   4
   4  -7   2 19.6991 1.67338   2
   4  -7   2 19.3750 2.26332   5
   4  -7   2 15.5475 2.03651   1
  -4  -7  -2 21.7232 2.38620   2
   4  -7   2 16.0795 2.08971   4
  -4   7  -2 21.6210 2.23318   3
  -4   7  -2 22.7836 2.51871   5
   4   7   2 15.9022 2.14353   3
   4   7   2 19.6085 2.25805   5
  -4   7  -2 20.8645 2.53363   1
   4   7   2 21.4249 1.42663   1
   5  -7   2 1.04856 0.73375   5
  -5  -7  -2 1.17274 0.78776   2
   5  -7   2 -0.3013 0.67296   1
   5  -7   2 -0.3292 0.48842   4
   5  -7   2 0.53580 0.58346   2
  -5   7  -2 0.25735 0.58399   5
   5   7   2 -0.5142 0.65957   5
   5   7   2 -0.3937 0.74206   3
  -5   7  -2 1.11698 0.70914   3
   6  -7   2 42.4432 3.25001   1
   6  -7   2 37.3829 3.07392   3
   6  -7   2 43.1458 3.21689   5
  -6  -7  -2 42.0843 3.41988   2
   6  -7   2 39.0235 3.06578   4
   6  -7   2 38.1199 2.63437   2
  -6   7  -2 41.0543 3.27265   5
   6   7   2 34.5603 3.00213   5
  -6   7  -2 35.6648 3.08815   3
   6   7   2 36.3613 3.23786   3
   7  -7   2 34.7414 2.97659   4
   7  -7   2 37.7475 3.15014   1
   7  -7   2 33.6185 3.67960   3
   7  -7   2 35.3146 3.13777   5
  -7  -7  -2 36.6124 3.17744   2
   7   7   2 40.0895 4.17368   3
   7   7   2 36.4336 3.20128   5
  -7   7  -2 42.1255 3.46244   5
  -7   7  -2 30.9955 3.51405   3
   8  -7   2 1.17046 1.10770   3
   8  -7   2 5.50434 1.54485   4
  -8  -7  -2 1.76222 1.21451   2
   8  -7   2 2.80398 1.34150   5
   8  -7   2 2.54546 1.24148   1
   8   7   2 1.04066 1.19667   5
  -8   7  -2 4.81542 1.77507   3
   8   7   2 1.71559 1.19742   3
  -8   7  -2 2.24269 1.44642   5
   9  -7   2 -0.4401 0.68925   4
   9  -7   2 -0.5337 1.12946   3
   9  -7   2 1.93474 1.60772   5
  -9  -7  -2 1.20517 1.28731   2
   9  -7   2 0.93352 1.14301   1
   9   7   2 3.19387 1.36740   5
  -9   7  -2 -0.4948 1.25244   3
   9   7   2 3.11878 1.79626   3
  -9   7  -2 -0.3886 1.30647   5
 -10  -7  -2 4.24516 1.90313   2
  10  -7   2 5.06952 1.82017   1
  10  -7   2 4.80654 1.95139   3
  10  -7   2 3.35317 1.84491   5
  10   7   2 1.32724 1.80419   3
 -10   7  -2 1.85980 1.77204   5
 -10   7  -2 4.81566 2.08901   3
  10   7   2 7.28174 2.06644   5
  11  -7   2 0.72846 1.28838   3
  11  -7   2 1.10373 1.36995   1
  11  -7   2 -1.2027 1.56134   5
 -11  -7  -2 -0.7682 1.56319   2
  11   7   2 0.21956 1.62814   3
  11   7   2 0.83761 1.09515   5
 -11   7  -2 -1.1271 1.15464   3
 -11   7  -2 -0.0151 1.65065   5
  11  -8  -2 14.0947 3.06939   1
 -11  -8   2 15.0126 2.80058   2
  11  -8  -2 6.69440 2.66966   5
 -11   8   2 13.2490 3.23720   3
  11   8  -2 9.07816 2.69390   5
 -11   8   2 11.0109 3.08967   5
  11   8  -2 13.1738 3.00193   3
  10  -8  -2 9.45029 2.71080   5
  10  -8  -2 11.8449 2.91990   1
  10  -8  -2 11.0535 2.70392   4
 -10  -8   2 6.80921 2.05564   2
  10   8  -2 11.0898 2.62929   3
  10   8  -2 12.5971 2.89660   5
 -10   8   2 9.47319 2.52305   5
 -10   8   2 13.0011 2.88037   3
   9  -8  -2 17.4323 2.84121   4
  -9  -8   2 16.0242 2.53255   2
   9  -8  -2 19.2592 3.35164   1
   9  -8  -2 22.5909 3.64781   5
  -9   8   2 24.5382 3.83584   5
   9   8  -2 17.5992 3.05461   5
   9   8  -2 13.3005 2.74180   3
  -9   8   2 20.2941 3.23484   3
   8  -8  -2 -0.0603 0.70186   4
  -8  -8   2 -0.4776 0.95809   2
   8  -8  -2 0.11001 0.95915   5
   8  -8  -2 -0.0845 0.82276   1
  -8   8   2 -0.5300 1.14375   3
  -8   8   2 0.36742 1.03067   5
   8   8  -2 -0.9826 0.71157   3
   8   8  -2 1.24983 0.99498   1
   8   8  -2 2.48390 1.43809   5
   7  -8  -2 26.5100 3.49018   5
   7  -8  -2 33.9099 3.87842   1
  -7  -8   2 28.9103 3.12315   2
   7  -8  -2 30.5145 3.33819   4
   7   8  -2 28.6299 3.11926   1
  -7   8   2 21.4743 3.29989   5
  -7   8   2 23.2069 3.23182   3
   7   8  -2 22.6612 3.15769   5
   7   8  -2 30.6729 3.56855   3
   6  -8  -2 14.3701 2.48165   5
   6  -8  -2 12.6720 2.23899   1
   6  -8  -2 10.9968 2.06190   4
  -6  -8   2 12.9328 2.10551   2
  -6   8   2 12.5675 2.37823   5
  -6   8   2 14.5577 2.28534   3
   6   8  -2 13.9935 2.14842   3
   6   8  -2 11.7861 1.99670   1
   6   8  -2 15.7503 2.43285   5
   5  -8  -2 84.1290 5.00785   1
   5  -8  -2 77.0952 4.64533   4
  -5  -8   2 77.8036 4.51454   2
   5  -8  -2 83.3678 4.84656   5
  -5   8   2 79.6316 4.90045   5
   5   8  -2 75.5356 4.52553   3
   5   8  -2 81.2394 4.65691   1
  -5   8   2 76.7657 4.75413   3
   5   8  -2 74.9791 4.84728   5
  -4  -8   2 28.6091 2.43017   2
  -4  -8   2 30.5283 1.79334   4
   4  -8  -2 29.3736 2.93119   4
   4  -8  -2 26.4468 2.92467   1
   4  -8  -2 29.1370 3.02501   5
  -4   8   2 29.1871 3.07405   5
   4   8  -2 26.8094 1.94034   4
   4   8  -2 27.3050 2.30243   3
   4   8  -2 27.0121 2.88171   1
   4   8  -2 25.9570 2.93959   5
  -4   8   2 29.8322 2.48872   3
   3  -8  -2 49.3261 3.28548   4
  -3  -8   2 45.5637 3.06068   2
   3  -8  -2 48.0072 3.29850   1
  -3  -8   2 48.7538 2.66715   4
   3  -8  -2 48.5395 2.28744   2
   3  -8  -2 55.3534 3.38200   5
   3   8  -2 53.0640 3.01320   4
   3   8  -2 49.8817 3.58654   5
   3   8  -2 49.2324 3.02625   3
   3   8  -2 47.5005 3.28947   1
  -3   8   2 54.4750 3.36014   3
  -3   8   2 51.4496 3.40325   5
  -2  -8   2 138.621 6.11751   4
   2  -8  -2 145.334 6.68654   4
   2  -8  -2 140.503 6.57358   1
  -2  -8   2 144.291 6.53115   2
   2  -8  -2 141.258 5.72392   2
   2   8  -2 144.930 6.77104   1
   2   8  -2 155.297 6.31939   3
  -2   8   2 141.838 6.55264   3
   2   8  -2 134.863 6.72777   5
  -2   8   2 143.258 6.63870   5
   1  -8  -2 737.425 27.1659   1
  -1  -8   2 738.671 27.2341   2
   1  -8  -2 715.535 27.3361   4
   1  -8  -2 748.060 26.6539   2
  -1  -8   2 726.746 27.0773   4
  -1   8   2 751.388 27.3778   5
   1   8  -2 756.421 27.6412   1
  -1   8   2 728.151 27.2899   3
   1   8  -2 727.919 27.5524   5
   1   8  -2 782.058 26.9040   3
   0  -8   2 32.8277 2.26996   2
   0  -8   2 33.4977 2.29493   4
   0  -8  -2 34.7260 2.12660   1
   0  -8  -2 33.3903 2.09457   2
   0  -8  -2 32.1077 2.29802   4
   0   8   2 29.0664 2.28673   3
   0   8  -2 30.0961 2.42719   1
   0   8  -2 29.7162 2.00839   3
   0   8   2 30.5619 2.16235   1
   0   8   2 32.6253 2.35359   5
   0   8  -2 31.1456 2.52459   5
  -1  -8  -2 39.3974 2.41844   4
   1  -8   2 35.6790 2.53537   4
   1  -8   2 35.5825 2.44093   1
   1  -8   2 31.1880 2.20657   2
  -1  -8  -2 33.3182 2.30423   2
  -1  -8  -2 36.2922 2.06425   1
  -1   8  -2 34.3476 2.57485   5
   1   8   2 36.1966 2.22003   1
  -1   8  -2 35.5136 2.67143   1
   1   8   2 34.0190 2.56682   5
   1   8   2 32.6480 2.48529   3
  -1   8  -2 34.5304 2.14061   3
  -2  -8  -2 214.164 8.32736   4
   2  -8   2 198.535 8.78742   4
   2  -8   2 202.184 8.38949   2
   2  -8   2 201.928 8.70903   1
  -2  -8  -2 213.435 8.71643   2
   2   8   2 207.798 8.88433   3
   2   8   2 184.852 8.67688   5
  -2   8  -2 200.621 8.77035   5
  -2   8  -2 194.461 8.99687   1
  -2   8  -2 214.810 8.30353   3
   2   8   2 201.871 8.08375   1
   3  -8   2 37.0384 2.38599   2
  -3  -8  -2 35.5927 2.12481   4
  -3  -8  -2 36.8001 2.70500   2
   3  -8   2 33.2387 2.61457   4
   3  -8   2 39.7471 2.79815   1
   3   8   2 38.2423 2.75595   5
  -3   8  -2 35.7051 2.95406   1
  -3   8  -2 36.7322 2.41625   3
  -3   8  -2 31.1641 2.62311   5
   3   8   2 34.3112 2.73938   3
   3   8   2 32.6438 2.07155   1
   4  -8   2 0.14621 0.47230   2
  -4  -8  -2 1.03540 0.68178   2
   4  -8   2 0.15727 0.78115   1
   4  -8   2 -0.0059 0.79976   4
   4   8   2 -0.2499 0.51181   3
  -4   8  -2 -0.9569 0.84206   1
  -4   8  -2 -0.3356 0.60636   5
   4   8   2 -0.6759 0.80148   5
  -4   8  -2 0.10543 0.53285   3
  -5  -8  -2 6.54231 1.46021   2
   5  -8   2 2.95205 1.07229   5
   5  -8   2 3.59659 1.21811   4
   5  -8   2 5.71369 1.44200   1
   5  -8   2 4.58685 1.06474   2
  -5   8  -2 3.78040 1.28912   1
  -5   8  -2 4.17996 1.32790   5
   5   8   2 4.09705 1.27709   5
  -5   8  -2 1.90983 1.01001   3
   5   8   2 1.87696 1.19117   3
  -6  -8  -2 5.59078 1.50452   2
   6  -8   2 5.25408 1.26707   2
   6  -8   2 9.20407 1.86256   1
   6  -8   2 7.52327 1.71950   5
   6  -8   2 7.90990 1.79118   4
   6   8   2 6.79330 1.68977   3
  -6   8  -2 4.89799 1.64964   5
   6   8   2 10.2090 2.04669   5
  -6   8  -2 6.91992 1.83080   1
  -6   8  -2 6.68577 1.50948   3
   7  -8   2 120.820 6.45977   4
   7  -8   2 123.797 6.74129   5
  -7  -8  -2 116.386 6.70146   2
   7  -8   2 122.372 6.71781   1
  -7   8  -2 122.682 6.73364   3
   7   8   2 106.738 6.41248   5
   7   8   2 125.660 7.15997   3
  -7   8  -2 128.975 7.01330   5
   8  -8   2 0.95379 0.91801   3
   8  -8   2 1.60563 1.07684   5
  -8  -8  -2 1.06570 0.98943   2
   8  -8   2 1.60288 1.06993   1
   8  -8   2 -0.2131 0.98200   4
   8   8   2 1.86323 1.01878   5
  -8   8  -2 0.86740 0.96020   3
   8   8   2 1.88979 1.35944   3
  -8   8  -2 0.82891 1.08195   5
   9  -8   2 13.7190 2.49594   1
  -9  -8  -2 22.8190 3.29280   2
   9  -8   2 12.8131 2.79008   3
   9  -8   2 14.3960 2.53417   4
   9  -8   2 20.7570 3.26391   5
  -9   8  -2 15.0260 2.91838   5
  -9   8  -2 18.8056 3.12753   3
   9   8   2 24.3923 3.77195   3
   9   8   2 9.69402 2.14397   5
 -10  -8  -2 -0.8806 1.09316   2
  10  -8   2 0.68430 1.55733   5
  10  -8   2 0.90087 1.30622   1
  10  -8   2 0.55345 1.36516   3
  10   8   2 -1.2709 1.45981   3
 -10   8  -2 2.36910 1.67412   3
 -10   8  -2 -0.8633 1.42281   5
  10   8   2 2.78009 1.53887   5
  11  -8   2 5.27228 2.00029   1
  11  -8   2 1.52706 2.02174   5
 -11  -8  -2 3.27799 1.69974   2
  11  -8   2 6.40898 2.43428   3
  11   8   2 5.40464 2.01816   3
 -11   8  -2 3.98416 2.15831   5
 -11   8  -2 3.82335 1.76531   3
  11   8   2 4.63406 1.87176   5
  11  -9  -2 16.2859 3.53156   5
  11  -9  -2 15.9766 3.43948   1
 -11  -9   2 16.2859 3.17048   2
  11   9  -2 17.6988 3.60324   5
  11   9  -2 18.8285 3.57090   3
 -11   9   2 18.4897 3.81825   5
 -11   9   2 19.9061 3.71329   3
 -10  -9   2 14.0534 2.60213   2
  10  -9  -2 12.4135 2.85859   5
  10  -9  -2 12.6156 2.64418   4
  10  -9  -2 20.0517 3.75831   1
 -10   9   2 18.6718 3.64354   5
  10   9  -2 14.4409 2.99680   3
 -10   9   2 12.9057 3.10090   3
  10   9  -2 18.2662 3.55817   5
   9  -9  -2 23.4423 3.79270   5
   9  -9  -2 24.7622 3.69705   1
  -9  -9   2 26.2926 3.41433   2
   9  -9  -2 22.2056 3.23855   4
  -9   9   2 22.7267 3.66436   3
   9   9  -2 23.6555 3.69346   3
   9   9  -2 17.3360 3.09100   5
  -9   9   2 25.3238 3.94963   5
  -8  -9   2 19.2835 2.85707   2
   8  -9  -2 15.9776 2.92235   5
   8  -9  -2 17.9168 2.93484   4
   8  -9  -2 19.2501 3.19069   1
   8   9  -2 19.7828 3.25739   5
   8   9  -2 18.6666 2.95578   3
  -8   9   2 21.1419 3.38445   5
  -8   9   2 27.2139 3.70769   3
   7  -9  -2 45.0605 3.66302   4
   7  -9  -2 45.3498 4.64764   5
  -7  -9   2 44.2696 3.60091   2
   7  -9  -2 46.1530 4.04419   1
   7   9  -2 33.5197 3.93027   3
  -7   9   2 36.8424 4.12689   3
  -7   9   2 44.0282 4.68124   5
   7   9  -2 36.9802 3.23872   1
   7   9  -2 45.2120 3.95514   5
   6  -9  -2 8.97532 1.97651   1
   6  -9  -2 6.93219 1.90172   4
  -6  -9   2 7.02493 1.63195   2
   6  -9  -2 6.76659 1.74903   5
   6   9  -2 5.98891 1.75820   5
  -6   9   2 8.70634 1.90288   5
  -6   9   2 5.02291 1.49071   3
   6   9  -2 6.28159 1.58389   3
   6   9  -2 8.55479 1.80906   1
  -5  -9   2 35.9761 2.99281   2
   5  -9  -2 45.5625 3.47925   4
   5  -9  -2 39.4470 3.36383   5
   5  -9  -2 37.4645 3.36082   1
   5   9  -2 37.1111 3.88846   5
  -5   9   2 38.5189 3.42955   5
   5   9  -2 41.1132 3.17848   3
  -5   9   2 52.8828 3.58737   3
   5   9  -2 36.7582 3.14290   1
  -4  -9   2 30.3330 2.50094   2
   4  -9  -2 22.3556 2.72895   4
  -4  -9   2 25.1913 1.74753   4
   4  -9  -2 30.0996 3.09823   5
   4  -9  -2 28.1158 3.09947   1
   4   9  -2 26.1520 3.04766   5
   4   9  -2 24.0905 1.95551   4
   4   9  -2 28.7373 3.05077   1
   4   9  -2 26.1978 2.34349   3
  -4   9   2 26.0124 3.09992   5
  -4   9   2 24.3267 2.66627   3
  -3  -9   2 119.002 5.20526   4
   3  -9  -2 102.121 5.20919   2
   3  -9  -2 114.697 5.99918   4
   3  -9  -2 121.434 6.03450   1
  -3  -9   2 117.822 5.79079   2
   3   9  -2 116.607 6.03876   1
   3   9  -2 114.905 5.54703   3
  -3   9   2 124.985 5.96548   3
   3   9  -2 110.739 6.04521   5
   3   9  -2 111.333 5.45781   4
  -3   9   2 116.916 6.02994   5
  -2  -9   2 0.97074 0.60136   4
   2  -9  -2 -0.0993 0.56664   1
   2  -9  -2 0.90405 0.66936   4
  -2  -9   2 0.51627 0.59264   2
   2  -9  -2 0.71483 0.44978   2
   2   9  -2 2.73519 1.35915   5
   2   9  -2 1.97936 0.82242   3
  -2   9   2 1.64656 0.78762   5
  -2   9   2 2.21330 0.88317   3
   2   9  -2 1.59653 1.03230   1
  -1  -9   2 38.5800 2.59415   2
   1  -9  -2 34.3908 2.47373   1
   1  -9  -2 34.3024 2.16831   2
   1  -9  -2 35.9206 2.69796   4
  -1  -9   2 36.0242 2.51451   4
   1   9  -2 39.3065 3.07997   5
  -1   9   2 39.6946 2.73829   5
  -1   9   2 34.9709 2.59847   3
   1   9  -2 35.8597 2.41439   3
   1   9  -2 31.8396 2.65279   1
   0  -9  -2 20.3830 1.70015   2
   0  -9  -2 21.9578 1.76248   1
   0  -9   2 17.9614 2.03647   2
   0  -9   2 23.8737 2.35961   4
   0  -9  -2 23.0004 2.32664   4
   0   9   2 24.6736 2.50377   3
   0   9   2 23.5104 2.45671   5
   0   9  -2 23.9555 2.60940   1
   0   9  -2 21.2859 1.77266   3
   0   9   2 21.4385 1.88992   1
   0   9  -2 19.5693 2.35211   5
   1  -9   2 37.1046 2.68272   4
  -1  -9  -2 32.5936 2.38489   4
   1  -9   2 34.6529 2.40945   2
  -1  -9  -2 30.6982 2.31308   2
   1  -9   2 33.0547 2.54214   1
  -1  -9  -2 32.1973 2.08653   1
   1   9   2 37.3913 2.85585   3
  -1   9  -2 28.8829 2.57962   5
   1   9   2 32.1419 2.57485   5
  -1   9  -2 35.6908 2.29612   3
  -1   9  -2 34.7057 2.85203   1
   1   9   2 37.2109 2.36642   1
   2  -9   2 105.818 5.56431   1
   2  -9   2 121.594 5.85398   4
  -2  -9  -2 106.076 5.41672   2
  -2  -9  -2 106.083 5.15782   4
   2  -9   2 110.524 5.28701   2
  -2   9  -2 110.729 5.74227   5
   2   9   2 109.244 5.68444   5
   2   9   2 117.633 5.13276   1
  -2   9  -2 111.851 6.01266   1
   2   9   2 116.870 5.81042   3
  -2   9  -2 116.358 5.21341   3
   3  -9   2 19.9756 2.08311   2
   3  -9   2 23.1371 2.55595   1
   3  -9   2 16.5346 2.19220   4
  -3  -9  -2 17.2237 1.77100   4
  -3  -9  -2 13.2790 2.03399   2
   3   9   2 16.7895 2.32560   5
  -3   9  -2 21.2358 1.84847   3
  -3   9  -2 24.8439 2.92826   1
  -3   9  -2 21.3307 2.54739   5
   3   9   2 20.1281 1.73020   1
   3   9   2 19.7033 2.53502   3
   4  -9   2 0.12530 0.92891   1
   4  -9   2 0.30434 0.86279   4
   4  -9   2 0.99145 0.62923   2
  -4  -9  -2 0.21621 0.71248   2
  -4   9  -2 -0.2474 0.84407   5
   4   9   2 1.17387 0.83008   3
  -4   9  -2 -1.4382 0.88056   1
   4   9   2 2.20191 1.29435   5
  -4   9  -2 -0.9729 0.59038   3
   5  -9   2 56.0933 3.75467   1
   5  -9   2 46.5003 3.61646   4
  -5  -9  -2 48.3142 3.70613   2
   5  -9   2 48.9936 3.57098   5
   5  -9   2 48.0604 3.10924   2
  -5   9  -2 49.2000 3.86459   1
  -5   9  -2 55.1799 3.87453   5
   5   9   2 43.3428 3.62879   3
  -5   9  -2 50.5208 3.50854   3
   6  -9   2 4.21028 1.47869   5
   6  -9   2 2.30712 1.10188   4
   6  -9   2 5.38537 1.55236   1
  -6  -9  -2 2.02289 1.24593   2
  -6   9  -2 4.24050 1.43617   3
  -6   9  -2 3.16734 1.31027   1
   6   9   2 2.85210 1.26335   3
   6   9   2 5.61388 1.68137   5
  -6   9  -2 0.92587 1.28463   5
   7  -9   2 53.8447 4.07932   5
   7  -9   2 56.3531 4.25162   1
  -7  -9  -2 47.9776 3.93041   2
   7  -9   2 48.8229 3.79866   4
   7   9   2 50.5303 4.26291   3
  -7   9  -2 49.0735 3.97840   3
  -7   9  -2 49.9238 4.38546   1
  -7   9  -2 54.0944 4.24853   5
   7   9   2 50.6584 4.01915   5
  -8  -9  -2 5.36130 1.94594   2
   8  -9   2 11.8176 2.37783   1
   8  -9   2 7.82360 1.83847   4
   8  -9   2 8.59956 2.08513   5
  -8   9  -2 9.30502 2.23142   3
   8   9   2 10.4599 2.41887   3
  -8   9  -2 8.95337 2.24099   1
  -8   9  -2 8.80158 2.18602   5
   8   9   2 6.83440 1.77201   5
   9  -9   2 44.5147 4.73047   1
   9  -9   2 43.9838 4.92774   5
   9  -9   2 46.8226 3.99258   4
  -9  -9  -2 48.0753 4.16073   2
   9   9   2 46.0702 5.28476   3
  -9   9  -2 39.7250 4.75870   1
  -9   9  -2 42.2426 4.62778   3
  -9   9  -2 32.5418 4.45974   5
   9   9   2 37.9557 4.53631   5
 -10  -9  -2 -0.0307 1.09254   2
  10  -9   2 -0.7260 1.19918   1
  10  -9   2 0.99941 1.28721   5
 -10   9  -2 1.13659 1.30755   5
 -10   9  -2 3.15016 1.80835   1
 -10   9  -2 0.60700 1.43972   3
  10   9   2 -0.5837 1.15526   3
  10   9   2 3.16971 1.64066   5
  10 -10  -2 1.34970 1.44695   5
 -10 -10   2 2.07653 1.78205   2
  10 -10  -2 3.28707 1.92896   4
  10 -10  -2 1.60499 1.49699   1
  10  10  -2 2.37331 1.69780   5
 -10  10   2 1.19880 1.49640   3
  10  10  -2 0.79496 1.60952   3
 -10  10   2 1.44776 1.52684   5
   9 -10  -2 7.85926 2.57798   1
  -9 -10   2 8.93201 2.30325   2
   9 -10  -2 3.80068 1.50335   4
   9 -10  -2 5.94818 2.03683   5
   9  10  -2 7.67735 2.36778   3
  -9  10   2 11.8580 2.72667   3
  -9  10   2 4.98590 1.86444   5
   9  10  -2 8.02485 2.15938   5
   8 -10  -2 -0.3147 0.83214   5
   8 -10  -2 0.25326 1.46085   1
  -8 -10   2 -1.0011 1.16123   2
   8 -10  -2 -1.7587 1.22080   4
  -8  10   2 -1.0857 1.05525   3
  -8  10   2 -0.3355 0.74048   5
   8  10  -2 3.22207 1.45470   5
   8  10  -2 -0.0716 1.08047   3
   7 -10  -2 1.50662 1.51033   1
   7 -10  -2 0.55392 0.98574   4
  -7 -10   2 -0.4836 1.08976   2
   7 -10  -2 0.06615 1.28874   5
   7  10  -2 0.41249 0.88510   1
   7  10  -2 0.31660 1.02624   3
   7  10  -2 2.47183 1.52563   5
  -7  10   2 0.64524 1.17826   5
  -7  10   2 1.41094 1.36538   3
   6 -10  -2 64.1735 4.43590   5
   6 -10  -2 59.1353 4.40281   4
  -6 -10   2 47.9098 3.78200   2
   6 -10  -2 51.0432 4.27327   1
  -6  10   2 56.3613 4.38055   5
  -6  10   2 49.6951 3.99123   3
   6  10  -2 54.3014 3.98176   1
   6  10  -2 58.5935 4.47652   5
   6  10  -2 61.2695 4.18482   3
  -5 -10   2 3.21661 1.24249   2
   5 -10  -2 3.25767 1.39147   5
   5 -10  -2 5.38216 1.57238   1
   5 -10  -2 3.72894 1.51847   4
   5  10  -2 4.78631 1.67127   5
  -5  10   2 0.36696 1.19060   5
   5  10  -2 4.83312 1.35063   3
  -5  10   2 2.78098 1.35814   3
   5  10  -2 6.55977 1.77352   1
   4 -10  -2 109.721 5.93000   1
   4 -10  -2 101.514 5.87397   4
  -4 -10   2 97.9754 4.73076   4
  -4 -10   2 94.6617 5.48449   2
  -4  10   2 102.814 5.87423   5
   4  10  -2 106.814 5.81315   1
  -4  10   2 110.383 5.79341   3
   4  10  -2 108.802 5.59372   3
   4  10  -2 103.492 5.95284   5
  -3 -10   2 1.03833 0.69216   4
  -3 -10   2 -0.9144 0.75232   2
   3 -10  -2 -0.2280 0.64273   4
   3 -10  -2 -0.4569 0.73720   1
  -3  10   2 0.25955 0.77116   5
   3  10  -2 0.29964 0.52786   4
   3  10  -2 0.41363 1.12120   1
  -3  10   2 0.22677 0.70458   3
   3  10  -2 -0.1355 0.60631   3
   3  10  -2 0.52386 1.38378   5
  -2 -10   2 12.2722 1.64370   4
   2 -10  -2 10.5795 1.81885   4
   2 -10  -2 12.1236 1.41291   2
  -2 -10   2 11.0937 1.73918   2
   2 -10  -2 12.5254 1.93758   1
  -2  10   2 13.0244 1.95891   3
   2  10  -2 12.5061 1.78171   3
   2  10  -2 12.5935 2.16295   1
  -2  10   2 15.6449 2.23345   5
   2  10  -2 14.8829 2.49992   5
   1 -10  -2 -1.0287 0.33493   2
  -1 -10   2 -0.7062 0.58381   2
  -1 -10   2 -0.4121 0.56815   4
   1 -10  -2 -0.3819 0.55874   1
   1 -10  -2 1.17377 0.71343   4
   1  10  -2 0.08407 1.21529   5
   1  10  -2 0.55748 0.68429   1
   1  10  -2 -0.7145 0.65906   3
  -1  10   2 0.73898 0.79781   5
  -1  10   2 -0.7506 0.77741   3
  -1  10   2 0.02068 0.64463   1
   0 -10  -2 0.03429 0.51052   2
   0 -10  -2 0.35671 0.61829   1
   0 -10   2 -0.2460 0.61749   4
   0 -10   2 -1.0411 0.46350   2
   0 -10  -2 0.19648 0.49099   4
   0  10   2 -0.1945 0.54255   5
   0  10  -2 3.43551 1.33396   5
   0  10  -2 0.00068 0.69893   3
   0  10   2 -0.1015 0.58246   1
   0  10   2 0.36671 0.98244   3
   0  10  -2 -1.3555 0.73126   1
   1 -10   2 7.02525 1.35230   2
  -1 -10  -2 3.47899 1.03239   2
  -1 -10  -2 9.89221 1.34787   1
   1 -10   2 5.62850 1.34857   4
  -1 -10  -2 5.32201 1.24979   4
   1 -10   2 4.69304 1.15605   1
  -1  10  -2 5.38021 1.38940   1
  -1  10  -2 2.55565 1.34409   5
   1  10   2 6.85817 1.52449   3
  -1  10  -2 3.76949 0.99801   3
   1  10   2 6.04292 1.18160   1
   1  10   2 5.07611 1.61259   5
   2 -10   2 300.384 12.1810   2
  -2 -10  -2 301.086 12.1346   4
  -2 -10  -2 296.694 12.3896   2
   2 -10   2 309.343 12.7538   4
   2 -10   2 297.207 12.5843   1
   2  10   2 303.195 12.7502   5
   2  10   2 293.797 11.9411   1
  -2  10  -2 303.937 12.7744   5
  -2  10  -2 323.275 12.1509   3
   2  10   2 304.884 12.7547   3
  -2  10  -2 306.908 13.1064   1
  -3 -10  -2 50.6135 3.08668   4
   3 -10   2 56.8786 3.87159   4
  -3 -10  -2 52.5032 3.58567   2
   3 -10   2 52.7076 3.24688   2
   3 -10   2 54.3607 3.64817   1
   3  10   2 53.6778 3.81054   3
   3  10   2 55.7289 3.99830   5
  -3  10  -2 50.7107 3.87067   1
  -3  10  -2 53.8546 3.32060   3
  -3  10  -2 56.2997 3.80544   5
   4 -10   2 79.8073 4.27558   2
   4 -10   2 85.1903 4.96168   1
  -4 -10  -2 75.2102 4.67984   2
   4 -10   2 74.0772 4.81566   4
  -4  10  -2 82.7429 5.30804   1
  -4  10  -2 86.1724 5.05131   5
   4  10   2 79.1512 4.94908   5
   4  10   2 71.3592 4.80834   3
  -4  10  -2 80.8615 4.45246   3
   5 -10   2 18.9932 2.20719   2
   5 -10   2 21.9626 2.84026   4
  -5 -10  -2 11.8203 2.20941   2
   5 -10   2 20.4562 2.77173   1
  -5  10  -2 23.3860 2.72700   3
  -5  10  -2 24.5238 3.13361   5
  -5  10  -2 20.8248 3.02782   1
   5  10   2 20.1388 2.83629   5
   5  10   2 18.2815 2.88269   3
   6 -10   2 26.5880 3.26980   5
   6 -10   2 20.9541 3.00482   4
  -6 -10  -2 23.0423 3.05678   2
   6 -10   2 21.8806 3.03377   1
  -6  10  -2 25.0711 3.42155   1
   6  10   2 19.6947 3.13734   3
  -6  10  -2 25.6990 3.32031   5
  -6  10  -2 24.0186 2.94208   3
   6  10   2 24.9025 3.25775   5
   7 -10   2 26.2639 3.41041   5
   7 -10   2 19.6292 2.86264   4
  -7 -10  -2 16.1301 2.72364   2
   7 -10   2 22.8606 3.28269   1
   7  10   2 23.2748 3.23551   5
   7  10   2 13.9265 2.76835   3
  -7  10  -2 23.1447 3.51266   1
  -7  10  -2 21.7125 3.22264   5
  -7  10  -2 26.9230 3.26957   3
   8 -10   2 42.3946 4.60230   5
  -8 -10  -2 40.7316 4.43476   2
   8 -10   2 48.0482 4.02789   1
   8 -10   2 43.4817 3.77234   4
  -8  10  -2 39.5050 4.68083   5
   8  10   2 46.4892 4.07706   5
   8  10   2 37.4798 4.69123   3
  -8  10  -2 50.4837 5.34283   1
  -8  10  -2 49.9749 4.25090   3
   9 -10   2 1.58584 1.54967   4
   9 -10   2 3.86365 1.59143   1
   9 -10   2 3.90784 2.04577   5
  -9 -10  -2 2.11668 1.71935   2
  -9  10  -2 5.48461 1.82603   1
   9  10   2 5.31620 1.80570   5
  -9  10  -2 2.17655 1.42524   3
   9  10   2 2.21198 1.43656   3
  -9  10  -2 2.63110 1.93843   5
  10 -10   2 7.84521 2.32430   1
 -10 -10  -2 4.53791 1.86255   2
  10 -10   2 6.66670 2.08704   5
 -10  10  -2 6.89697 2.38990   1
  10  10   2 3.85343 2.36605   3
 -10  10  -2 5.27964 2.14623   5
  10  10   2 6.14092 2.02630   5
 -10  10  -2 6.96140 2.40676   3
  10 -11  -2 0.15446 1.85164   5
 -10 -11   2 -0.3236 1.81187   2
  10 -11  -2 5.15242 2.19880   1
  10 -11  -2 -0.6696 1.18763   4
  10  11  -2 6.92713 2.12234   5
 -10  11   2 3.07987 1.90109   5
 -10  11   2 3.09047 2.09258   3
  10  11  -2 2.48293 1.50779   3
   9 -11  -2 10.1466 2.65216   5
   9 -11  -2 5.68368 2.21234   4
  -9 -11   2 6.04301 2.19873   2
   9 -11  -2 10.4391 2.70598   1
  -9  11   2 12.6770 2.88555   3
   9  11  -2 8.88122 2.43156   3
  -9  11   2 9.32063 2.41868   5
   9  11  -2 7.07172 2.22903   5
   8 -11  -2 4.38765 1.82989   1
  -8 -11   2 9.82909 2.33959   2
   8 -11  -2 5.16940 1.76990   4
   8 -11  -2 4.14742 1.97609   5
  -8  11   2 7.34079 2.07343   3
  -8  11   2 5.78622 2.21048   5
   8  11  -2 7.56063 2.25628   5
   8  11  -2 8.66097 2.25232   3
   7 -11  -2 1.44592 1.60016   5
   7 -11  -2 3.96474 1.60511   1
  -7 -11   2 1.68480 1.52872   2
   7 -11  -2 4.39287 1.90145   4
  -7  11   2 5.02047 1.66285   3
   7  11  -2 6.46649 1.82945   3
  -7  11   2 3.35006 1.80834   5
   7  11  -2 2.87052 1.36229   5
   6 -11  -2 -1.0105 1.18689   4
   6 -11  -2 -0.7922 0.72419   5
  -6 -11   2 1.60444 1.04302   2
   6 -11  -2 1.29684 1.40265   1
  -6  11   2 0.99683 1.18284   3
   6  11  -2 0.41207 0.96642   5
   6  11  -2 0.17630 1.13492   1
  -6  11   2 0.84334 1.00477   5
   6  11  -2 0.64253 0.90887   3
   5 -11  -2 13.1990 2.47521   4
   5 -11  -2 8.87134 2.04077   1
  -5 -11   2 12.3238 2.28419   2
   5  11  -2 11.6796 1.98672   3
   5  11  -2 10.6834 2.24468   5
  -5  11   2 5.42486 1.69072   5
  -5  11   2 11.2682 2.17538   3
   5  11  -2 12.0640 2.25962   1
  -4 -11   2 26.3789 2.97327   2
   4 -11  -2 21.5089 2.89307   1
   4 -11  -2 13.3518 2.47848   4
   4  11  -2 20.3895 3.04474   5
   4  11  -2 20.4064 3.02089   1
  -4  11   2 22.9546 2.79720   3
   4  11  -2 22.7373 2.64863   3
  -4  11   2 20.5747 2.96862   5
   3 -11  -2 0.45025 0.97964   1
   3 -11  -2 0.00127 0.70092   4
  -3 -11   2 0.16611 0.94729   2
  -3 -11   2 0.02672 0.56748   4
   3  11  -2 2.12647 1.02648   3
  -3  11   2 0.05545 1.02495   3
  -3  11   2 1.98314 1.00316   5
   3  11  -2 -0.6702 0.92918   5
   3  11  -2 2.47757 1.41446   1
   3  11  -2 1.29257 0.85270   4
  -2 -11   2 20.1627 2.54911   2
   2 -11  -2 24.1420 2.96986   4
   2 -11  -2 23.5517 1.81227   2
  -2 -11   2 27.2523 2.63714   4
   2 -11  -2 30.5109 3.05433   1
  -2  11   2 27.8772 3.10776   5
   2  11  -2 24.2306 2.96310   1
   2  11  -2 24.5950 2.60455   3
   2  11  -2 20.0773 3.01426   5
  -2  11   2 24.5720 2.76043   3
   1 -11  -2 0.61391 0.88692   1
  -1 -11   2 -0.7412 0.68856   4
  -1 -11   2 0.36626 0.56272   2
   1 -11  -2 0.34777 0.60993   2
   1 -11  -2 1.41581 1.01134   4
   1  11  -2 1.56399 1.48280   5
   1  11  -2 0.88554 1.14399   1
   1  11  -2 0.24609 0.85076   3
  -1  11   2 0.86610 1.10032   3
  -1  11   2 1.25883 0.85232   5
  -1  11   2 0.79236 0.90889   1
   0 -11  -2 135.543 6.69074   4
   0 -11   2 137.567 6.72117   4
   0 -11  -2 133.084 6.27666   1
   0 -11  -2 134.818 6.26141   2
   0 -11   2 141.604 6.58960   2
   0  11   2 137.583 6.61459   1
   0  11   2 142.401 6.86406   3
   0  11  -2 136.520 7.04174   1
   0  11   2 127.862 6.81236   5
   0  11  -2 135.361 6.32363   3
   0  11  -2 138.407 7.05185   5
  -1 -11  -2 58.7406 3.26916   1
  -1 -11  -2 54.9535 3.46161   2
   1 -11   2 51.5208 3.71151   4
   1 -11   2 56.2775 3.51585   2
  -1 -11  -2 56.1027 3.59920   4
   1  11   2 49.9374 3.73358   5
  -1  11  -2 57.4735 4.03547   1
   1  11   2 55.0543 3.41307   1
   1  11   2 54.2992 3.78699   3
  -1  11  -2 57.4257 3.43278   3
  -1  11  -2 53.6637 3.99145   5
  -2 -11  -2 38.8012 2.96534   2
   2 -11   2 39.9302 2.81110   2
  -2 -11  -2 41.9314 2.86492   4
   2 -11   2 36.3474 3.02193   4
   2 -11   2 35.5909 2.91857   1
   2  11   2 35.8026 3.14146   5
  -2  11  -2 38.6250 2.76006   3
  -2  11  -2 41.4710 3.26090   5
  -2  11  -2 35.5396 3.78667   1
   2  11   2 35.2210 2.58304   1
   2  11   2 34.5023 3.09745   3
  -3 -11  -2 65.1171 4.28741   2
   3 -11   2 72.8419 4.65728   4
   3 -11   2 67.4496 3.94563   2
  -3 -11  -2 73.1096 3.88404   4
   3 -11   2 63.6835 4.26367   1
  -3  11  -2 63.0545 4.59872   1
   3  11   2 67.4943 4.54132   3
   3  11   2 60.4568 4.54581   5
  -3  11  -2 73.9878 4.74312   5
  -3  11  -2 78.0892 4.17765   3
   4 -11   2 61.1610 3.83270   2
  -4 -11  -2 70.2219 4.56334   2
   4 -11   2 71.9969 4.71783   4
   4 -11   2 70.3124 4.60506   1
  -4  11  -2 66.0986 4.55898   5
  -4  11  -2 66.2500 4.91928   1
   4  11   2 67.8434 4.72977   5
   4  11   2 72.2957 4.88507   3
  -4  11  -2 67.2227 4.14206   3
   5 -11   2 62.3059 4.45821   1
  -5 -11  -2 67.7763 4.56568   2
   5 -11   2 69.6963 4.69633   4
  -5  11  -2 67.1938 4.83221   5
  -5  11  -2 57.0122 4.65156   1
   5  11   2 69.8117 4.66659   5
   5  11   2 65.0572 4.73232   3
  -5  11  -2 73.9486 4.43792   3
   6 -11   2 0.54359 1.22155   4
  -6 -11  -2 0.39791 0.92064   2
   6 -11   2 -0.1059 0.83024   1
   6  11   2 0.13534 1.22138   5
   6  11   2 -0.1539 0.82597   3
  -6  11  -2 2.52289 1.45954   1
  -6  11  -2 1.55105 1.04839   5
  -6  11  -2 1.28509 1.10064   3
   7 -11   2 2.76779 1.26927   4
  -7 -11  -2 3.65282 1.55919   2
   7 -11   2 2.08205 1.51674   1
  -7  11  -2 3.74277 1.77538   1
   7  11   2 1.65424 1.19464   3
   7  11   2 3.96430 1.63650   5
  -7  11  -2 2.64991 1.60572   5
  -7  11  -2 4.34944 1.46967   3
   8 -11   2 7.89453 2.24514   5
   8 -11   2 8.38737 2.23790   1
   8 -11   2 9.39118 2.19784   4
  -8 -11  -2 6.87091 2.05260   2
   8  11   2 10.1425 2.26528   5
  -8  11  -2 5.10501 1.70574   3
  -8  11  -2 10.5782 2.58318   1
   8  11   2 10.7953 2.71270   3
  -8  11  -2 10.5994 2.62203   5
   9 -11   2 2.23628 1.69297   4
   9 -11   2 1.45176 1.21322   1
  -9 -11  -2 1.85586 1.86090   2
   9 -11   2 0.53400 1.06305   5
   9  11   2 4.70189 1.80988   5
  -9  11  -2 3.31819 1.66340   1
   9  11   2 2.29854 1.65520   3
  -9  11  -2 0.92288 1.14209   5
  -9  11  -2 0.37081 1.36381   3
  10 -11   2 -0.5723 0.90197   1
  10 -11   2 0.33912 1.46609   4
  10 -11   2 -1.0091 1.66217   5
 -10  11  -2 -0.5089 1.64068   3
  10  11   2 0.71727 1.46894   5
 -10  11  -2 1.26800 1.86511   5
 -10  11  -2 1.35464 1.56969   1
   9 -12  -2 25.9536 4.02570   5
  -9 -12   2 20.5762 3.36447   2
   9 -12  -2 30.4721 4.58317   1
   9 -12  -2 22.4292 3.65573   4
  -9  12   2 25.0898 4.18447   5
   9  12  -2 27.6699 4.14126   3
  -9  12   2 26.2212 3.93916   3
   9  12  -2 32.5809 4.37187   5
  -8 -12   2 -0.8554 0.96446   2
   8 -12  -2 0.66003 1.17259   4
   8 -12  -2 -0.2422 1.56997   5
   8 -12  -2 2.73903 1.84332   1
   8  12  -2 0.72369 1.17127   5
  -8  12   2 0.53099 1.23928   3
   8  12  -2 2.59832 1.62116   3
  -8  12   2 1.48209 1.69260   5
   7 -12  -2 6.84673 2.23433   5
   7 -12  -2 3.71572 1.97965   1
  -7 -12   2 7.59926 2.13716   2
   7 -12  -2 4.26166 2.12468   4
   7  12  -2 4.74960 1.64558   3
  -7  12   2 3.31328 1.89778   5
  -7  12   2 3.89969 1.59103   3
   7  12  -2 6.42508 1.98732   5
   6 -12  -2 1.42351 1.18675   1
  -6 -12   2 -0.0387 0.99031   2
   6 -12  -2 3.04309 1.75504   4
   6  12  -2 0.06316 1.41534   1
  -6  12   2 4.99809 1.87239   5
  -6  12   2 -0.4052 1.24017   3
   6  12  -2 2.37835 1.68270   5
   6  12  -2 2.03868 1.32534   3
   5 -12  -2 9.37901 2.30987   4
   5 -12  -2 10.4803 2.35861   1
  -5 -12   2 10.6928 2.20557   2
  -5  12   2 10.1239 2.38988   5
   5  12  -2 11.6637 2.13495   3
  -5  12   2 9.20854 2.11098   3
   5  12  -2 12.0961 2.48151   1
   5  12  -2 7.88099 2.28330   5
  -4 -12   2 -0.2468 1.05535   2
   4 -12  -2 1.06162 0.99990   1
   4 -12  -2 -0.8897 0.77488   4
  -4  12   2 -0.0300 1.18421   3
  -4  12   2 0.35041 1.10618   5
   4  12  -2 0.02814 0.75630   3
   4  12  -2 0.74264 1.20603   1
   4  12  -2 1.54475 1.35365   5
  -3 -12   2 55.8671 3.84138   2
   3 -12  -2 58.5123 4.07063   1
   3 -12  -2 55.8839 4.24967   4
  -3 -12   2 53.1026 3.30914   4
   3  12  -2 53.2070 3.66113   4
   3  12  -2 47.7993 4.05789   5
   3  12  -2 55.2114 3.67413   3
  -3  12   2 54.2471 3.97838   5
   3  12  -2 42.9120 3.71150   1
  -3  12   2 46.1802 3.65440   3
  -2 -12   2 10.2759 1.73545   4
   2 -12  -2 9.02126 1.88721   4
  -2 -12   2 6.69135 1.52963   2
   2 -12  -2 10.2614 1.95103   1
  -2  12   2 8.52223 1.84555   1
  -2  12   2 11.0299 2.17399   5
  -2  12   2 6.32972 1.58581   3
   2  12  -2 9.26045 2.39638   5
   2  12  -2 11.9510 1.87186   3
   2  12  -2 8.61030 1.93489   1
  -1 -12   2 36.9069 2.97887   4
   1 -12  -2 39.0594 3.16956   4
   1 -12  -2 37.9291 2.84325   1
  -1 -12   2 38.9546 3.06961   2
   1 -12  -2 34.2103 2.51492   2
   1  12  -2 40.3515 2.98024   3
  -1  12   2 39.0820 3.33530   3
   1  12  -2 34.1746 3.74604   1
   1  12  -2 34.5323 3.80094   5
  -1  12   2 38.3501 3.04257   1
  -1  12   2 32.1814 3.56070   5
   0 -12   2 -0.8048 0.66817   2
   0 -12  -2 -0.0958 0.63897   2
   0 -12  -2 -0.5470 0.62461   1
   0 -12  -2 -1.3806 0.77804   4
   0 -12   2 0.03332 0.60410   4
   0  12   2 0.49597 0.85914   1
   0  12  -2 -0.8037 0.86509   1
   0  12   2 -2.6017 0.80469   5
   0  12  -2 -0.8473 0.83305   3
   0  12  -2 -2.0472 1.13061   5
   0  12   2 -0.4698 0.70509   3
   1 -12   2 3.69336 1.16065   4
  -1 -12  -2 2.93213 1.15441   4
  -1 -12  -2 2.19141 1.01812   2
   1 -12   2 1.80278 0.95180   2
   1  12   2 1.82501 0.94339   1
  -1  12  -2 2.80950 1.53313   5
   1  12   2 1.72089 1.44166   5
  -1  12  -2 2.62876 1.39938   1
   1  12   2 1.70876 1.40976   3
  -1  12  -2 2.76516 1.18386   3
   2 -12   2 40.7047 3.49554   4
  -2 -12  -2 44.4041 3.14224   4
   2 -12   2 39.3186 3.00037   2
   2 -12   2 41.6513 3.29715   1
  -2 -12  -2 50.5385 3.45827   2
  -2  12  -2 43.6213 3.69575   5
   2  12   2 46.8036 3.84717   3
   2  12   2 43.9961 4.35102   5
  -2  12  -2 39.7993 3.54106   1
  -2  12  -2 42.2589 3.10301   3
   3 -12   2 3.75389 1.36983   4
   3 -12   2 3.85544 1.16382   2
   3 -12   2 4.81684 1.45521   1
  -3 -12  -2 3.82640 1.30566   2
  -3  12  -2 1.20026 1.34815   5
  -3  12  -2 1.52481 1.24609   1
   3  12   2 5.48344 1.66346   3
  -3  12  -2 6.21286 1.45343   3
   3  12   2 1.91870 1.41206   5
   4 -12   2 3.02112 1.44651   1
   4 -12   2 3.48384 1.16067   2
  -4 -12  -2 3.28323 1.22589   2
   4 -12   2 4.83806 1.53713   4
  -4  12  -2 4.55114 1.76443   5
   4  12   2 2.70882 1.53895   3
  -4  12  -2 1.59097 1.15490   3
   4  12   2 4.69063 1.67695   5
  -4  12  -2 2.76357 1.64964   1
   5 -12   2 29.3769 3.58068   4
   5 -12   2 30.0798 3.56338   1
  -5 -12  -2 29.9880 3.51090   2
  -5  12  -2 25.6820 3.65848   1
  -5  12  -2 29.3298 3.72651   5
  -5  12  -2 29.5419 3.17485   3
   5  12   2 32.5555 3.88594   5
   5  12   2 22.5837 3.34942   3
   6 -12   2 -0.2456 0.93977   1
  -6 -12  -2 0.44486 1.28787   2
   6 -12   2 0.68956 0.95303   4
   6  12   2 -1.1963 1.08636   3
  -6  12  -2 -0.6758 0.92376   3
  -6  12  -2 0.08226 1.06943   1
   6  12   2 0.03014 0.86613   5
  -6  12  -2 0.76112 1.51455   5
   7 -12   2 99.8612 6.37304   1
  -7 -12  -2 94.5380 6.27268   2
   7 -12   2 100.887 6.36027   4
  -7  12  -2 86.2018 6.28459   5
   7  12   2 86.5213 5.91690   5
  -7  12  -2 89.5025 6.63092   1
  -7  12  -2 96.7355 5.98688   3
   7  12   2 86.5675 6.34617   3
   8 -12   2 -1.1224 0.94679   1
  -8 -12  -2 -2.0148 1.25706   2
   8 -12   2 3.06244 1.69149   4
  -8  12  -2 -0.2994 1.41245   5
  -8  12  -2 -1.1808 1.04729   1
   8  12   2 1.48051 1.38849   3
   8  12   2 0.88350 0.92607   5
  -8  12  -2 0.45553 1.08181   3
   9 -12   2 -1.2189 1.55491   4
  -9 -12  -2 3.70987 1.80129   2
   9 -12   2 4.35676 1.77150   1
   9  12   2 6.76456 1.94353   5
   9  12   2 8.38768 2.69259   3
  -9  12  -2 3.05401 2.03314   1
  -9  12  -2 6.69663 2.54343   5
  -9  12  -2 5.06421 2.03169   3
  -9 -13   2 0.60587 1.37751   2
   9 -13  -2 0.68725 1.32166   4
   9 -13  -2 -0.3482 1.47029   1
   9 -13  -2 -1.0656 1.79325   5
  -9  13   2 0.55731 1.88629   3
   9  13  -2 1.88596 1.82776   3
  -9  13   2 4.24941 2.29305   5
   9  13  -2 1.21544 1.17175   5
  -8 -13   2 3.73275 1.75738   2
   8 -13  -2 3.20194 2.10520   4
   8 -13  -2 11.1148 2.75723   1
   8 -13  -2 6.64355 2.23556   5
  -8  13   2 9.28539 2.57019   3
   8  13  -2 7.83898 2.39469   3
   8  13  -2 11.7574 2.92853   5
  -8  13   2 6.94324 2.15941   5
   7 -13  -2 3.36195 1.95916   4
   7 -13  -2 1.80330 1.45322   1
  -7 -13   2 4.02318 1.92579   2
   7  13  -2 4.79477 1.78624   3
  -7  13   2 5.10977 2.10508   3
  -7  13   2 6.32162 2.10244   5
   7  13  -2 7.27593 2.34096   5
   6 -13  -2 -1.0210 1.40223   4
   6 -13  -2 3.04878 1.79326   1
  -6 -13   2 0.31216 1.22145   2
   6  13  -2 2.05834 1.33215   5
  -6  13   2 -0.0622 1.51649   5
  -6  13   2 0.95298 1.07958   3
   6  13  -2 4.13472 1.44421   3
   5 -13  -2 3.30719 1.65257   1
   5 -13  -2 1.34856 1.60920   4
  -5 -13   2 4.92905 1.84322   2
   5  13  -2 5.16478 1.84112   5
  -5  13   2 1.72416 1.21795   3
   5  13  -2 0.77871 1.43915   1
   5  13  -2 3.03644 1.31600   3
  -5  13   2 1.93593 1.29873   5
  -4 -13   2 0.38702 1.19326   2
   4 -13  -2 -0.5045 0.98737   1
   4 -13  -2 0.91266 1.05653   4
  -4  13   2 -0.0292 0.81819   3
   4  13  -2 -1.6976 0.96238   5
   4  13  -2 -0.4407 0.77539   3
   4  13  -2 -1.9114 1.39541   1
  -4  13   2 1.45618 1.21785   5
   3 -13  -2 41.0363 3.34226   1
  -3 -13   2 27.4460 3.27321   2
  -3 -13   2 36.6875 2.80977   4
   3 -13  -2 33.7806 3.92188   4
   3  13  -2 30.9983 3.93958   5
   3  13  -2 39.0696 4.11174   1
   3  13  -2 44.0693 3.31313   3
  -3  13   2 43.4168 4.47784   5
  -3  13   2 36.5161 4.08234   1
  -3  13   2 33.7147 3.82445   3
  -2 -13   2 79.2195 4.82150   2
   2 -13  -2 74.1008 4.66094   1
  -2 -13   2 79.6930 4.58389   4
   2 -13  -2 83.6370 5.30223   4
   2  13  -2 71.2873 4.55386   3
   2  13  -2 72.2034 5.40090   5
  -2  13   2 72.3666 4.94466   3
  -2  13   2 75.2091 5.00188   5
  -2  13   2 77.8553 5.03861   1
   2  13  -2 75.0782 5.19916   1
   1 -13  -2 3.96111 1.35669   1
   1 -13  -2 6.33613 1.65288   4
   1 -13  -2 6.85759 1.40948   2
  -1 -13   2 4.85698 1.51257   4
  -1 -13   2 2.63555 1.08342   2
  -1  13   2 7.13108 1.80024   5
  -1  13   2 6.59401 1.68036   1
   1  13  -2 9.74044 2.52657   5
  -1  13   2 5.88524 1.87030   3
   1  13  -2 5.95477 1.61919   3
   1  13  -2 5.06133 1.62477   1
   0 -13  -2 20.6942 2.46694   1
   0 -13   2 25.2682 2.87303   2
   0 -13   2 21.9990 2.78322   4
   0 -13  -2 21.4120 2.42977   2
   0 -13  -2 22.8933 2.83976   4
   0  13  -2 21.4032 3.20642   5
   0  13   2 26.5994 3.01230   1
   0  13   2 18.2557 2.64860   3
   0  13   2 18.9915 2.92162   5
   0  13  -2 24.7435 2.74328   3
   0  13  -2 20.7855 2.92576   1
   1 -13   2 65.0971 4.01632   2
  -1 -13  -2 53.7460 3.97543   4
  -1 -13  -2 67.8167 4.04148   2
   1 -13   2 64.4684 4.41583   4
   1  13   2 57.3931 3.91452   1
  -1  13  -2 60.8502 4.67017   5
  -1  13  -2 62.2979 4.56496   1
   1  13   2 60.3648 4.52453   3
   1  13   2 60.4672 4.42434   5
  -1  13  -2 61.4530 3.95992   3
   2 -13   2 -0.2385 0.70989   1
  -2 -13  -2 0.91974 0.87845   2
   2 -13   2 1.26380 0.99230   2
   2 -13   2 -0.7197 0.46917   4
  -2 -13  -2 -0.5229 0.71934   4
  -2  13  -2 0.97592 1.12909   1
   2  13   2 1.19934 1.49704   3
  -2  13  -2 -0.2364 0.93707   3
  -2  13  -2 -1.1334 1.28794   5
   2  13   2 -0.6617 1.45613   5
   3 -13   2 -0.7903 0.65025   2
  -3 -13  -2 -0.3782 0.97813   2
   3 -13   2 -0.3692 0.76245   1
   3 -13   2 0.42526 1.18572   4
  -3  13  -2 -1.0331 0.71476   5
   3  13   2 -0.6833 0.90323   3
  -3  13  -2 0.68969 1.06745   1
  -3  13  -2 0.43522 1.12887   3
   3  13   2 0.34186 1.19390   5
   4 -13   2 9.64917 2.18538   4
  -4 -13  -2 7.35282 1.98115   2
   4 -13   2 10.4391 2.26485   1
   4  13   2 5.01518 2.12048   5
  -4  13  -2 5.95303 1.69073   3
  -4  13  -2 6.71185 2.06223   5
   4  13   2 9.59877 2.34171   3
  -4  13  -2 6.51748 2.19974   1
   5 -13   2 29.0692 3.75655   4
  -5 -13  -2 29.0338 3.50544   2
   5 -13   2 26.6126 3.52364   1
   5  13   2 25.9087 3.68783   3
  -5  13  -2 23.4401 3.67859   1
  -5  13  -2 27.3531 3.72082   5
   5  13   2 38.5877 4.22188   5
  -5  13  -2 34.8249 3.56989   3
   6 -13   2 10.7975 2.31910   4
  -6 -13  -2 15.8397 2.90646   2
   6 -13   2 10.1948 2.52157   1
   6  13   2 14.6833 2.79945   5
  -6  13  -2 16.0907 2.52979   3
  -6  13  -2 14.3205 2.98602   5
  -6  13  -2 10.5491 2.91563   1
   6  13   2 20.3562 3.34888   3
   7 -13   2 10.9534 2.63805   1
  -7 -13  -2 6.66712 2.23569   2
   7 -13   2 4.58463 1.95147   4
   7  13   2 7.04025 2.08142   5
  -7  13  -2 5.73759 1.94910   5
  -7  13  -2 9.63797 2.64488   1
   7  13   2 9.26395 2.26412   3
  -7  13  -2 11.5254 2.45656   3
   8 -13   2 14.6192 3.14050   4
  -8 -13  -2 12.9176 2.80065   2
   8 -13   2 12.7811 2.82949   1
   8  13   2 15.9774 3.07202   5
  -8  13  -2 14.2056 3.04877   5
  -8  13  -2 11.9544 2.63477   3
  -8  13  -2 14.0812 3.24046   1
   8  13   2 12.5820 2.96575   3
  -9  13  -2 4.49260 2.34570   5
  -9  13  -2 3.25905 2.16007   1
   9  13   2 8.04775 2.24492   5
   8 -14  -2 1.63701 1.92431   1
  -8 -14   2 -0.6053 1.17772   2
   8 -14  -2 -1.8406 1.75362   4
  -8  14   2 0.14945 1.63211   3
  -8  14   2 1.33188 1.43207   5
   8  14  -2 0.50019 1.23025   5
   8  14  -2 1.77584 1.29632   3
   7 -14  -2 -2.3458 1.53121   4
   7 -14  -2 0.73791 1.77788   1
  -7 -14   2 -0.1451 1.17455   2
   7  14  -2 -0.5940 1.47156   5
  -7  14   2 0.71654 1.62365   3
   7  14  -2 1.70462 1.54413   3
  -7  14   2 2.96093 1.64989   5
   6 -14  -2 26.5881 3.78746   1
   6 -14  -2 17.7371 3.36671   4
  -6 -14   2 15.1873 2.96561   2
  -6  14   2 23.4350 3.68508   5
   6  14  -2 16.3947 2.93377   3
  -6  14   2 19.8500 3.19238   3
   6  14  -2 20.9023 3.57036   5
   5 -14  -2 3.53175 1.48214   1
   5 -14  -2 1.10260 1.68291   4
  -5 -14   2 4.06987 1.78049   2
  -5  14   2 6.17567 2.16458   5
   5  14  -2 0.51882 1.26381   5
   5  14  -2 3.58541 1.49054   3
  -5  14   2 4.29769 1.91505   3
  -5  14   2 2.21433 1.34437   1
  -4 -14   2 1.14496 1.30838   2
   4 -14  -2 1.43594 1.17194   1
   4 -14  -2 0.90350 1.22307   4
  -4  14   2 1.55140 1.46624   3
  -4  14   2 0.39924 0.96446   1
   4  14  -2 0.85631 1.36119   5
   4  14  -2 1.69712 1.15303   3
  -4  14   2 2.55703 1.55750   5
   4  14  -2 -2.2860 1.41707   1
   3 -14  -2 12.7071 2.49557   4
  -3 -14   2 13.6219 2.41557   2
   3 -14  -2 16.4677 2.65568   1
  -3  14   2 13.1187 2.48051   5
   3  14  -2 13.3321 2.21985   3
  -3  14   2 12.7895 2.36299   3
   3  14  -2 8.48732 2.20186   1
   3  14  -2 13.9064 2.82969   5
  -3  14   2 12.1508 2.63626   1
  -2 -14   2 3.45117 1.11737   4
  -2 -14   2 7.40511 1.99626   2
   2 -14  -2 4.92962 1.84789   4
   2 -14  -2 4.30488 1.57928   1
  -2  14   2 3.12655 1.52628   1
  -2  14   2 4.30678 1.79541   3
  -2  14   2 4.39855 1.86546   5
   2  14  -2 4.60467 1.93638   5
   2  14  -2 3.22773 1.46306   3
   2  14  -2 3.44142 1.70875   1
  -1 -14   2 12.2051 2.12009   4
   1 -14  -2 14.6214 2.29409   1
   1 -14  -2 15.1809 2.52527   4
  -1 -14   2 12.8536 2.27086   2
  -1  14   2 14.9321 2.41940   1
   1  14  -2 13.0653 2.70076   5
   1  14  -2 12.8159 2.19504   3
  -1  14   2 12.8292 2.59090   3
   1  14  -2 15.3879 2.79685   1
  -1  14   2 16.6980 2.73376   5
   0 -14   2 0.58433 1.14350   4
   0 -14  -2 2.81899 1.21139   2
   0 -14  -2 -0.0655 1.01164   4
   0 -14  -2 0.89944 0.99750   1
   0 -14   2 -0.6643 0.78290   2
   0  14   2 0.56217 1.60964   5
   0  14   2 0.43642 1.01335   1
   0  14   2 -1.2606 1.30065   3
   0  14  -2 -0.5687 1.15066   3
   0  14  -2 -1.0691 1.04778   5
   0  14  -2 -1.4280 1.17428   1
  -1 -14  -2 -1.0380 0.80915   2
  -1 -14  -2 0.74801 0.86878   4
   1 -14   2 0.83459 1.08992   2
   1 -14   2 -0.0295 0.77361   4
   1  14   2 -0.5499 0.93657   3
  -1  14  -2 0.63509 1.07519   1
   1  14   2 -2.3965 1.32716   5
  -1  14  -2 -2.8994 0.89531   3
  -1  14  -2 0.88497 1.21522   5
  -2 -14  -2 47.3431 3.65303   4
   2 -14   2 49.7319 3.61286   2
  -2 -14  -2 45.8889 3.74169   2
   2 -14   2 55.3198 4.12826   4
   2  14   2 54.8612 4.39778   5
   2  14   2 45.6460 3.98228   3
  -2  14  -2 55.2066 4.51272   5
  -2  14  -2 46.0012 3.60904   3
  -2  14  -2 46.2540 4.16724   1
   3 -14   2 -0.1578 0.79848   4
   3 -14   2 -0.1714 0.83125   2
  -3 -14  -2 -1.5716 0.89907   2
   3 -14   2 0.43690 0.97827   1
   3  14   2 -1.8640 1.55094   5
  -3  14  -2 -0.2559 0.95172   5
   3  14   2 -1.0488 1.23864   3
  -3  14  -2 -0.4828 1.09570   3
  -3  14  -2 0.03971 0.88329   1
  -4 -14  -2 0.84898 0.97935   2
   4 -14   2 3.18779 1.65316   1
   4 -14   2 0.62619 0.90863   4
   4  14   2 1.82195 1.46479   3
  -4  14  -2 0.21130 1.05052   5
  -4  14  -2 -1.0583 1.34740   1
  -4  14  -2 -0.5920 1.12059   3
   4  14   2 -1.8935 1.55024   5
   5 -14   2 3.42010 1.81061   1
  -5 -14  -2 2.62416 1.59324   2
   5 -14   2 4.62620 1.60016   4
   5  14   2 1.96064 1.51558   5
  -5  14  -2 0.22264 1.64390   5
   5  14   2 1.67347 1.56532   3
  -5  14  -2 5.20591 2.24798   1
  -5  14  -2 0.99478 1.38789   3
   6 -14   2 5.06805 2.04050   4
  -6 -14  -2 4.84209 1.75979   2
   6 -14   2 1.88087 1.83250   1
   6  14   2 0.33170 1.07765   5
  -6  14  -2 1.81840 1.77641   5
  -6  14  -2 2.82449 2.22384   1
   6  14   2 2.99008 1.78630   3
   7 -14   2 31.1643 4.34439   1
  -7 -14  -2 29.9940 4.01683   2
   7 -14   2 31.6265 4.20186   4
  -7  14  -2 36.2353 4.77034   5
  -7  14  -2 24.7957 4.44168   1
   7  14   2 29.9715 4.07325   5
   7  14   2 25.6805 3.82467   3
  -8 -14  -2 4.21560 1.90429   2
   8 -14   2 0.72894 1.42576   4
   8 -14   2 3.11053 2.02802   1
  -8  14  -2 3.74350 2.56119   1
   8  14   2 6.74946 2.33619   3
  -8  14  -2 4.02550 2.28155   5
   8  14   2 5.37760 1.84037   5
   7 -15  -2 16.4343 3.26773   1
   7 -15  -2 7.94722 2.41238   4
  -7 -15   2 7.22495 2.14116   2
   7  15  -2 6.80408 2.23194   5
  -7  15   2 9.90067 2.53826   3
  -7  15   2 10.8351 2.77304   1
  -7  15   2 9.76023 2.91930   5
  -6 -15   2 5.72224 2.13749   2
   6 -15  -2 8.19005 2.53492   1
   6 -15  -2 8.76133 2.75217   4
   6  15  -2 5.44388 1.82135   3
  -6  15   2 7.82938 2.36122   5
  -6  15   2 10.2728 2.58165   1
   6  15  -2 8.04416 2.66718   5
  -6  15   2 8.91400 2.55710   3
  -5 -15   2 0.83790 1.41429   2
   5 -15  -2 0.00243 1.44169   1
   5 -15  -2 0.91674 1.29674   4
  -5  15   2 0.31327 1.48904   3
  -5  15   2 2.81850 1.81064   1
  -5  15   2 5.58912 2.11425   5
   5  15  -2 1.34990 1.91743   5
   5  15  -2 3.32993 1.53445   3
  -4 -15   2 12.4717 2.57278   2
   4 -15  -2 10.1354 2.43034   4
   4 -15  -2 11.4882 2.51394   1
  -4  15   2 9.30450 2.47283   1
  -4  15   2 16.5992 3.10890   3
   4  15  -2 8.75707 2.80581   1
   4  15  -2 10.1186 2.13211   3
   4  15  -2 12.9203 2.92054   5
  -4  15   2 17.2833 3.12392   5
  -3 -15   2 1.72640 1.56620   2
   3 -15  -2 5.52424 1.86887   4
   3 -15  -2 3.32791 1.34349   1
   3  15  -2 3.36339 1.90996   5
  -3  15   2 5.09571 2.10713   5
  -3  15   2 3.78923 1.97365   3
   3  15  -2 3.84418 1.42650   3
  -3  15   2 4.18196 1.66339   1
   3  15  -2 2.61618 1.84234   1
   2 -15  -2 0.11222 0.99982   4
  -2 -15   2 -0.6157 0.92196   4
  -2 -15   2 -1.4730 1.05862   2
   2 -15  -2 0.01916 0.88305   1
   2  15  -2 -0.4940 1.01672   1
  -2  15   2 -1.7037 0.75642   3
  -2  15   2 0.55858 1.05841   1
   2  15  -2 -0.6047 1.41437   5
  -2  15   2 -0.2337 1.40165   5
   2  15  -2 0.32152 1.14373   3
  -1 -15   2 1.81989 1.23885   2
   1 -15  -2 0.52183 1.19370   1
   1 -15  -2 0.70804 1.03874   4
  -1 -15   2 0.10383 1.06879   4
   1  15  -2 -2.5900 1.72114   5
   1  15  -2 2.55152 1.45554   1
   1  15  -2 0.17790 1.28261   3
  -1  15   2 -0.5959 1.48520   5
  -1  15   2 -1.3071 1.32389   3
  -1  15   2 0.85811 1.24863   1
   0 -15   2 22.0914 3.08086   4
   0 -15  -2 19.3418 2.94163   4
   0 -15  -2 23.1338 2.73240   2
   0 -15   2 18.1022 2.61572   2
   0  15  -2 22.6241 3.45211   3
   0  15   2 22.1516 3.32201   3
   0  15  -2 16.4715 2.93120   1
   0  15   2 17.7823 2.75463   1
   0  15   2 19.5717 3.18975   5
   0  15  -2 17.0067 3.26660   5
   1 -15   2 31.8096 3.77614   4
   1 -15   2 26.2450 3.12379   2
  -1 -15  -2 23.1253 2.97398   2
  -1 -15  -2 34.6303 3.72850   4
  -1  15  -2 23.0295 3.49880   5
   1  15   2 27.4193 3.77190   5
  -1  15  -2 21.9598 3.48772   3
   1  15   2 29.1657 3.74141   3
  -1  15  -2 27.0927 3.89973   1
   2 -15   2 3.10574 1.36166   4
  -2 -15  -2 -0.0823 1.21868   2
   2 -15   2 3.10986 1.31151   2
  -2  15  -2 2.90632 1.71308   1
   2  15   2 -0.4679 1.94042   5
   2  15   2 -1.2207 1.52878   3
  -2  15  -2 2.78471 1.97228   5
   3 -15   2 28.3424 3.64442   1
  -3 -15  -2 25.0469 3.32412   2
   3 -15   2 24.4137 3.51906   4
  -3  15  -2 20.6694 3.64988   5
   3  15   2 22.5593 3.80241   5
  -3  15  -2 27.0062 3.92074   1
   3  15   2 21.0543 3.44276   3
   4 -15   2 -2.6083 1.06513   4
   4 -15   2 1.82618 1.62510   1
  -4 -15  -2 -1.0284 1.20647   2
   4  15   2 0.09210 1.31390   3
  -4  15  -2 1.48115 1.77112   1
   4  15   2 -1.4557 1.78865   5
  -4  15  -2 2.27481 1.86488   5
  -5 -15  -2 -0.3304 0.96863   2
   5 -15   2 0.34746 1.51736   1
   5 -15   2 1.97966 1.61236   4
  -5  15  -2 -0.1466 1.70605   1
   5  15   2 2.36767 1.53356   3
  -5  15  -2 3.07104 1.98979   5
   5  15   2 1.47478 1.87469   5
   6 -15   2 -0.6152 1.46858   1
   6 -15   2 0.36686 1.01761   4
  -6 -15  -2 -0.1515 1.50555   2
  -6  15  -2 -0.9659 1.83215   1
   6  15   2 -0.4904 1.41758   5
  -6  15  -2 -0.2834 1.72950   5
   6  15   2 0.21252 1.51812   3
   7 -15   2 2.08864 1.98604   1
   7 -15   2 -0.8941 1.67329   4
  -7 -15  -2 0.43827 1.63418   2
  -7  15  -2 2.72188 1.73263   5
   7  15   2 1.39017 1.43177   5
   7  15   2 3.37437 1.53048   3
  -7  15  -2 3.17974 2.38217   1
  -6 -16   2 2.88087 1.85427   2
   6 -16  -2 1.46069 1.39813   1
   6 -16  -2 1.16626 1.95427   4
  -6  16   2 4.35007 2.23150   5
  -6  16   2 1.86301 1.60450   1
   6  16  -2 0.65745 1.67717   5
  -6  16   2 -0.1033 1.30885   3
   5 -16  -2 0.15360 1.31753   4
   5 -16  -2 1.20766 1.31447   1
  -5 -16   2 -0.2276 1.58932   2
  -5  16   2 0.96415 1.82637   3
  -5  16   2 -1.1426 1.18138   1
  -5  16   2 0.53615 1.39619   5
   5  16  -2 0.39428 2.04272   5
  -4 -16   2 6.08767 2.20979   2
   4 -16  -2 8.99190 2.20068   1
   4 -16  -2 6.10058 2.48037   4
  -4  16   2 7.02645 2.08408   1
  -4  16   2 8.97994 2.66256   3
  -4  16   2 14.9568 3.16762   5
   4  16  -2 9.04824 2.66181   5
   3 -16  -2 9.50480 2.29030   4
  -3 -16   2 5.92558 2.03530   2
   3 -16  -2 5.13227 1.95849   1
  -3  16   2 2.57431 2.11402   5
  -3  16   2 1.97594 1.62714   1
   3  16  -2 3.26722 2.24025   1
  -3  16   2 6.93056 2.16547   3
   3  16  -2 6.22089 2.79182   5
   2 -16  -2 1.43660 1.36926   1
   2 -16  -2 0.22878 0.93821   4
  -2 -16   2 -0.8793 1.14997   2
  -2  16   2 -0.2328 1.65920   3
  -2  16   2 -1.2526 1.17860   1
   2  16  -2 -0.9673 2.06070   5
  -2  16   2 -0.1227 1.24294   5
   2  16  -2 -3.4005 1.44014   1
   1 -16  -2 8.28747 2.03863   1
  -1 -16   2 8.37519 2.15992   2
   1 -16  -2 5.61555 1.98672   4
  -1 -16   2 5.68144 1.59525   4
   1  16  -2 3.52700 2.09639   5
  -1  16   2 6.08012 2.35823   3
  -1  16   2 7.01327 2.37633   5
   1  16  -2 7.32959 2.48535   1
  -1  16   2 6.59996 1.91556   1
   0 -16  -2 18.5794 2.91811   4
   0 -16   2 18.0122 2.73005   2
   0 -16   2 18.9970 2.84711   4
   0  16  -2 20.4948 3.70734   5
   0  16   2 14.6966 2.88080   5
   0  16   2 16.3392 3.21260   3
   0  16  -2 17.6563 3.14906   1
   1 -16   2 3.26271 1.54441   4
  -1 -16  -2 0.74994 1.25694   2
  -1 -16  -2 0.91761 1.44864   4
   1 -16   2 4.39675 1.54442   2
  -1  16  -2 2.50652 1.82467   5
   1  16   2 2.56171 1.87378   5
  -1  16  -2 5.14145 2.10414   1
   1  16   2 -1.1529 1.71128   3
  -2 -16  -2 9.77570 2.27754   2
   2 -16   2 11.3536 2.62378   4
  -2  16  -2 18.6117 3.39208   1
   2  16   2 10.9792 3.04905   5
   2  16   2 13.8554 2.92256   3
  -2  16  -2 11.1615 2.97835   5
   3 -16   2 0.74453 1.13773   4
  -3 -16  -2 -0.1850 1.30738   2
  -3  16  -2 1.28341 1.37927   1
   3  16   2 -1.1300 2.05043   5
  -3  16  -2 -1.4274 1.56924   5
   3  16   2 1.50480 1.32322   3
   4 -16   2 5.94763 2.22805   1
   4 -16   2 4.08261 1.76570   4
  -4 -16  -2 4.95958 1.73668   2
   4  16   2 7.97937 2.01351   3
  -4  16  -2 2.70951 2.16263   5
  -4  16  -2 5.64270 2.38467   1
   4  16   2 5.58558 2.61493   5
   5 -16   2 2.53074 1.51216   4
  -5 -16  -2 0.57857 1.62548   2
   5 -16   2 1.56175 1.91855   1
  -5  16  -2 0.65966 1.76913   1
   5  16   2 1.47609 1.73363   3
  -5  16  -2 0.98121 1.39458   5
   5  16   2 -0.8495 1.63795   5
  -6 -16  -2 1.58671 1.39098   2
   6 -16   2 -0.0949 1.71463   4
   6 -16   2 -1.9721 1.67088   1
  -6  16  -2 -0.3407 1.86202   5
   6  16   2 1.92528 1.90764   3
   6  16   2 5.97921 2.39499   5
  -6  16  -2 4.04842 2.40909   1
   5 -17  -2 2.54466 1.99970   1
  -5 -17   2 -0.2804 1.68249   2
   5 -17  -2 -1.0108 1.26889   4
  -5  17   2 0.99898 2.11986   5
   5  17  -2 1.68781 1.72552   5
  -5  17   2 -2.5654 1.55570   3
  -5  17   2 2.22345 1.97527   1
   4 -17  -2 -0.0581 1.82862   4
  -4 -17   2 1.18951 1.50332   2
   4 -17  -2 -0.5241 1.42201   1
   4  17  -2 -0.8503 1.99584   5
  -4  17   2 -0.6207 1.28372   3
  -4  17   2 1.71995 1.52350   5
  -4  17   2 3.12792 2.01914   1
   3 -17  -2 0.21931 1.72751   4
  -3 -17   2 -1.9463 1.19534   2
   3 -17  -2 1.19422 1.18826   1
   3  17  -2 1.10253 2.44502   5
  -3  17   2 -1.5884 1.05687   5
  -3  17   2 -1.1592 1.23445   3
  -3  17   2 -0.2219 1.17486   1
   3  17  -2 2.57136 2.36636   1
   2 -17  -2 4.46762 1.69513   1
   2 -17  -2 4.82739 2.09954   4
  -2 -17   2 5.45872 1.92145   2
   2  17  -2 4.30562 2.17294   1
  -2  17   2 5.32477 2.07361   1
   2  17  -2 4.94797 2.53632   5
  -2  17   2 4.90178 2.37793   3
  -2  17   2 1.77800 1.78064   5
  -1 -17   2 10.1488 2.34697   4
   1 -17  -2 8.46245 2.42905   4
  -1 -17   2 4.86693 1.67300   2
   1  17  -2 1.56131 1.97052   1
  -1  17   2 5.41359 2.55989   5
   1  17  -2 2.43035 2.68619   5
  -1  17   2 6.12089 2.21857   3
   0 -17   2 28.0461 3.76824   4
   0 -17   2 26.6683 3.42486   2
   0 -17  -2 32.2850 4.01292   4
   0  17   2 30.6751 4.31947   3
   0  17  -2 26.1511 4.08100   1
   0  17   2 26.1756 3.99587   5
   0  17  -2 27.9898 4.19098   5
   1 -17   2 11.0903 2.54633   4
   1 -17   2 15.3608 2.56669   2
   1  17   2 7.81650 2.40072   3
  -1  17  -2 9.73174 2.85976   1
  -1  17  -2 11.1404 2.82256   5
   1  17   2 12.1949 3.31439   5
   2 -17   2 -1.7623 0.89483   4
  -2 -17  -2 0.45972 1.35549   2
  -2  17  -2 1.54107 1.90772   1
   2  17   2 0.24434 1.35467   3
  -2  17  -2 -0.1013 1.98338   5
   2  17   2 -5.3852 1.79927   5
   3 -17   2 4.04772 2.19695   4
  -3 -17  -2 4.51716 1.92186   2
   3  17   2 3.35475 2.10191   3
  -3  17  -2 5.51326 2.01111   1
   3  17   2 -0.0407 1.75142   5
  -3  17  -2 3.17239 2.29864   5
   4 -17   2 1.44416 2.04610   4
  -4 -17  -2 5.38296 2.17000   2
   4  17   2 3.94961 2.17828   5
  -4  17  -2 -0.8594 1.40600   5
   4  17   2 4.23830 1.97741   3
  -4  17  -2 0.74556 1.80289   1
   5 -17   2 0.56129 2.10584   1
  -5 -17  -2 -1.6966 1.39734   2
   5 -17   2 2.00675 2.07812   4
   5  17   2 1.30129 1.26566   3
  -5  17  -2 0.30746 2.09572   5
   5  17   2 1.25729 1.50874   5
  -5  17  -2 -0.1261 1.79455   1
   4 -18  -2 0.71483 1.42061   1
  -4 -18   2 1.72909 1.95412   2
  -4  18   2 1.74078 1.60197   1
  -4  18   2 0.08732 2.30014   3
   3 -18  -2 5.15760 2.16631   1
   3 -18  -2 -0.1203 1.91863   4
  -3 -18   2 2.88485 1.93450   2
  -3  18   2 2.03712 1.73082   5
   3  18  -2 1.18209 1.87546   5
  -3  18   2 8.07357 2.65674   1
  -3  18   2 0.17181 2.20674   3
   2 -18  -2 3.38137 2.14959   4
   2 -18  -2 0.18890 1.63935   1
  -2 -18   2 0.82050 1.19992   2
  -2  18   2 -0.2268 1.41453   1
   2  18  -2 -2.7213 1.86197   1
  -2  18   2 0.83546 1.65259   5
   2  18  -2 -4.4496 2.14243   5
  -2  18   2 -1.9595 2.05980   3
  -1 -18   2 3.13220 2.11098   4
  -1 -18   2 -1.3826 0.68605   2
   1 -18  -2 0.21895 1.24286   4
   1  18  -2 1.67638 2.03708   1
   1  18  -2 -3.1070 2.27652   5
  -1  18   2 0.15019 2.40214   5
  -1  18   2 -3.4361 1.28548   3
   0 -18   2 -0.2280 1.33633   4
   0 -18   2 0.56806 1.44087   2
   0 -18  -2 2.03595 1.78499   4
   0  18   2 -2.8667 1.87803   5
   0  18  -2 -1.4795 1.69364   5
   0  18   2 -2.8428 1.84571   3
   0  18  -2 -0.8135 1.72324   1
   1 -18   2 2.67146 1.83993   4
  -1  18  -2 2.45666 1.95829   5
   1  18   2 2.83374 1.97433   3
   1  18   2 -0.2087 2.46276   5
  -1  18  -2 3.28595 2.31144   1
  -2 -18  -2 0.82884 1.48789   2
   2 -18   2 -1.7284 1.58825   4
   2  18   2 -2.4467 1.55625   5
  -2  18  -2 1.76863 1.99406   1
   2  18   2 -3.5187 1.70169   3
  -2  18  -2 -2.5028 1.96041   5
  -3 -18  -2 -0.9068 1.03380   2
   3 -18   2 -0.2064 1.87112   4
  -3  18  -2 -0.0055 1.28978   1
   3  18   2 2.22894 1.50639   3
   3  18   2 -3.9950 2.05817   5
  -3  18  -2 0.19988 1.92799   5
  12   0  -3 4.64895 1.98388   1
  12   0  -3 1.62358 1.71127   3
  12   0  -3 4.79560 2.06969   5
 -12   0   3 5.21461 1.96626   3
  11   0  -3 1.61955 1.43552   1
  11   0  -3 -1.3440 1.34401   3
  11   0  -3 0.33837 0.96979   5
 -11   0   3 -0.5766 1.10865   3
  10   0  -3 22.0358 3.57056   3
 -10   0   3 17.1205 3.21398   3
  10   0  -3 20.3432 3.32709   1
  10   0  -3 18.5425 3.32240   5
  -9   0   3 -1.5280 1.02521   3
   9   0  -3 0.55413 0.96394   3
   9   0  -3 0.63089 1.11274   5
   9   0  -3 0.75895 1.18383   1
  -8   0   3 7.08708 1.75943   3
   8   0  -3 6.43360 1.77499   1
   8   0  -3 8.88458 2.03358   5
   8   0  -3 9.04034 2.02069   3
  -7   0   3 -0.6850 0.51492   3
   7   0  -3 -0.5114 0.70065   5
  -7   0   3 -0.4993 0.46671   2
   7   0  -3 -0.9434 0.44958   3
   7   0  -3 -1.0971 0.39114   4
   7   0  -3 -1.1717 0.72797   1
  -6   0   3 78.2072 4.55329   3
   6   0  -3 80.1153 4.64005   1
   6   0  -3 81.3464 4.66955   3
  -6   0   3 81.8592 3.68383   2
   6   0  -3 81.9840 4.76834   5
   6   0  -3 78.5941 3.85576   4
  -5   0   3 -0.3844 0.28877   3
  -5   0   3 -0.5611 0.25655   2
   5   0  -3 -0.2711 0.31226   4
   5   0  -3 -0.8087 0.49396   5
   5   0  -3 0.58393 0.59115   3
   5   0  -3 0.15053 0.50945   1
  -4   0   3 863.792 30.1755   2
   4   0  -3 921.018 30.6440   4
  -4   0   3 831.367 30.8993   3
   4   0  -3 834.616 30.9529   3
   4   0  -3 849.677 31.1569   1
   4   0  -3 809.411 31.0182   5
   3   0  -3 -0.0162 0.34318   1
  -3   0   3 -0.0393 0.24310   2
   3   0  -3 -0.3508 0.27989   3
   3   0  -3 -0.1936 0.34641   5
   3   0  -3 0.02764 0.34743   4
  -3   0   3 -0.3629 0.24341   3
   2   0  -3 81.0914 3.52396   3
  -2   0   3 79.8054 3.35496   2
   2   0  -3 78.9573 3.65581   4
  -2   0   3 80.3638 3.49317   3
   2   0  -3 81.1837 3.59362   5
   2   0  -3 82.0575 3.83843   1
   1   0  -3 0.37601 0.28746   4
   1   0  -3 -0.4376 0.34982   1
   1   0  -3 -0.0571 0.16933   5
  -1   0   3 0.16421 0.22386   2
  -1   0   3 -0.0341 0.13610   3
   0   0  -3 234.660 8.22571   5
   0   0  -3 232.122 8.98806   4
   0   0  -3 234.296 8.80377   1
   0   0   3 233.834 8.44312   3
   0   0   3 227.358 8.81334   2
  -1   0  -3 -0.0657 0.31988   4
  -1   0  -3 0.07176 0.06985   5
   1   0   3 0.10298 0.22367   3
  -1   0  -3 0.57174 0.34479   1
   1   0   3 -0.2822 0.16037   2
   2   0   3 37.7637 2.06064   3
   2   0   3 36.7455 2.23362   2
  -2   0  -3 37.8580 2.19007   4
  -2   0  -3 42.3604 1.94219   1
   2   0   3 38.6695 1.77954   5
   3   0   3 -0.0499 0.20418   1
   3   0   3 -0.2622 0.21583   2
   3   0   3 0.45084 0.31725   5
  -3   0  -3 -0.0339 0.25265   1
  -3   0  -3 0.27510 0.35273   4
  -3   0  -3 -0.1872 0.28653   2
   3   0   3 -0.1568 0.23871   3
   4   0   3 132.448 6.19257   3
   4   0   3 132.662 5.82505   5
  -4   0  -3 135.339 5.85536   4
   4   0   3 142.905 6.26581   2
  -4   0  -3 136.284 6.41441   2
  -4   0  -3 142.033 5.63929   1
   4   0   3 138.491 5.47498   1
   5   0   3 -1.0172 0.45922   3
  -5   0  -3 0.43961 0.42542   4
   5   0   3 -0.1236 0.53067   2
  -5   0  -3 -0.1821 0.50305   2
   5   0   3 -0.4277 0.36633   5
   5   0   3 -0.1325 0.31444   1
  -6   0  -3 297.009 11.2941   4
   6   0   3 296.617 11.8403   5
   6   0   3 289.574 11.1037   1
  -6   0  -3 256.391 11.9297   2
   6   0   3 286.812 11.9275   2
   6   0   3 291.322 12.2830   3
   7   0   3 -0.5033 0.71311   5
  -7   0  -3 -0.2158 0.82958   2
   7   0   3 0.02311 0.46616   1
   7   0   3 0.73558 0.87084   3
  -8   0  -3 8.30147 1.84122   2
   8   0   3 4.22486 1.55296   3
   8   0   3 7.18938 1.73511   5
   9   0   3 -0.2435 0.82696   5
   9   0   3 0.92007 0.99509   3
  -9   0  -3 -0.0597 0.71188   2
  10   0   3 22.9579 3.26797   5
  10   0   3 25.9830 3.79253   3
 -10   0  -3 23.8821 3.20218   2
  11   0   3 0.26163 1.11948   3
  11   0   3 0.76427 1.39550   5
  12   0   3 23.8280 4.12530   3
 -12  -1   3 8.13554 2.63190   3
  12  -1  -3 9.16446 2.52687   5
  12  -1  -3 6.63228 2.69901   3
  12  -1  -3 4.86232 2.29855   1
 -12   1   3 6.73550 2.42292   3
  12   1  -3 10.2731 2.92593   5
  12   1  -3 9.03147 2.50703   1
  12   1  -3 7.36258 2.36516   3
  11  -1  -3 1.67107 1.42025   1
  11  -1  -3 1.48885 1.76305   5
  11  -1  -3 -1.2614 1.58114   3
 -11  -1   3 2.45478 1.89426   3
  11   1  -3 0.03233 0.99604   3
 -11   1   3 -0.7413 1.57479   3
  11   1  -3 0.90181 1.10757   5
  11   1  -3 -0.2605 0.96836   1
  10  -1  -3 0.53820 1.16784   3
  10  -1  -3 0.84985 1.03643   1
  10  -1  -3 2.13805 1.66133   5
 -10  -1   3 0.24165 1.11482   3
  10   1  -3 1.55402 1.28067   3
  10   1  -3 1.26204 1.22373   5
 -10   1   3 -0.9634 0.86931   3
  10   1  -3 0.70168 0.97464   1
   9  -1  -3 0.30202 1.35109   3
   9  -1  -3 -0.9914 0.71608   1
   9  -1  -3 0.91301 1.23651   5
   9   1  -3 -0.3485 1.20594   5
   9   1  -3 -0.2716 0.76065   3
  -9   1   3 1.24546 1.35814   3
   9   1  -3 -0.0114 0.99758   1
  -8  -1   3 58.6203 3.43132   2
   8  -1  -3 65.2152 4.57976   1
   8  -1  -3 63.9711 4.57299   3
   8  -1  -3 67.4877 4.75872   5
   8   1  -3 59.0100 4.36110   1
  -8   1   3 54.5311 4.27568   3
   8   1  -3 66.7135 4.65897   5
   8   1  -3 61.3215 4.56982   3
  -7  -1   3 42.0617 2.54539   2
   7  -1  -3 45.7970 2.70781   4
   7  -1  -3 37.4995 3.39737   5
   7  -1  -3 38.3147 3.25655   3
   7  -1  -3 45.1135 3.48095   1
  -7   1   3 36.8523 3.16469   3
   7   1  -3 44.3767 3.61679   5
   7   1  -3 35.6731 3.05208   1
   7   1  -3 40.8952 2.39738   4
   7   1  -3 42.4251 3.43223   3
   6  -1  -3 16.3743 2.27815   3
  -6  -1   3 17.6585 1.42218   2
   6  -1  -3 19.2680 1.86249   4
   6  -1  -3 12.9547 2.03789   5
   6  -1  -3 22.3373 2.66056   1
   6   1  -3 15.3401 2.17386   1
   6   1  -3 15.1084 2.18191   3
   6   1  -3 14.8960 2.18707   5
  -6   1   3 15.1563 1.15375   2
   6   1  -3 17.1266 1.41080   4
  -6   1   3 18.6348 2.35467   3
  -5  -1   3 -0.3235 0.36826   2
   5  -1  -3 0.37529 0.46466   4
   5  -1  -3 -0.0961 0.44502   3
   5  -1  -3 0.86693 0.68130   1
   5  -1  -3 0.53235 0.65681   5
   5   1  -3 0.41403 0.54359   1
  -5   1   3 0.27806 0.32230   2
   5   1  -3 0.96527 0.47983   4
   5   1  -3 0.37157 0.41912   3
  -5   1   3 0.59033 0.54533   3
   5   1  -3 0.39151 0.50437   5
   4  -1  -3 358.450 14.0613   3
  -4  -1   3 367.252 13.4073   2
   4  -1  -3 360.963 13.6969   4
   4  -1  -3 371.843 14.2761   1
   4  -1  -3 366.455 14.1496   5
   4   1  -3 370.804 14.1708   5
   4   1  -3 364.139 14.1808   1
   4   1  -3 366.787 13.5617   4
   4   1  -3 333.726 13.8755   3
  -4   1   3 368.251 13.0782   2
  -4   1   3 360.059 14.0232   3
  -3  -1   3 14.9782 1.09644   2
   3  -1  -3 17.6969 1.87245   1
   3  -1  -3 15.0481 1.30023   3
   3  -1  -3 14.9806 1.28236   4
   3  -1  -3 14.7259 1.31999   5
   3   1  -3 15.2386 1.27076   3
   3   1  -3 14.2633 1.20739   4
  -3   1   3 16.1865 0.93671   2
  -3   1   3 13.3274 1.44352   3
   3   1  -3 12.4582 1.55522   1
   3   1  -3 17.3704 1.40237   5
   2  -1  -3 3.12737 0.63549   5
  -2  -1   3 2.08992 0.47860   2
   2  -1  -3 2.72473 0.74253   1
   2  -1  -3 2.10556 0.54488   4
  -2  -1   3 3.79080 0.58308   3
   2   1  -3 2.63092 0.51966   3
   2   1  -3 2.15792 0.74216   1
  -2   1   3 2.50774 0.56297   3
   2   1  -3 3.53553 0.62422   5
   2   1  -3 4.22609 0.71620   4
  -2   1   3 4.51505 0.55071   2
  -1  -1   3 198.837 7.76771   2
   1  -1  -3 212.967 7.95446   1
   1  -1  -3 202.691 7.58136   5
   1  -1  -3 205.501 7.99426   4
  -1  -1   3 199.665 7.38327   3
  -1   1   3 210.278 7.68214   2
   1   1  -3 205.876 8.04462   1
  -1   1   3 200.193 7.62989   3
   1   1  -3 205.630 7.62143   5
   1   1  -3 197.698 7.99222   4
   0  -1   3 322.516 12.3873   2
   0  -1  -3 339.777 12.5211   4
   0  -1  -3 316.576 11.7349   5
   0  -1   3 352.418 11.8056   3
   0  -1  -3 327.076 12.2256   1
   0   1  -3 337.089 12.6112   4
   0   1  -3 357.610 11.9389   5
   0   1   3 338.701 12.3658   2
   0   1   3 338.806 12.1574   3
   0   1  -3 329.799 12.4677   1
   0   1   3 323.695 11.7563   5
  -1  -1  -3 36.1416 1.65677   1
   1  -1   3 34.8598 1.97123   2
  -1  -1  -3 31.3349 1.89669   4
   1  -1   3 34.2518 1.59392   3
   1   1   3 33.2217 1.75386   3
   1   1   3 33.0814 1.30470   5
   1   1   3 33.1724 1.93229   2
  -1   1  -3 31.2541 1.97666   4
  -1   1  -3 34.3885 1.47063   5
  -1   1  -3 37.0660 1.91891   1
   2  -1   3 130.347 5.03025   5
   2  -1   3 127.254 5.27033   3
  -2  -1  -3 120.014 5.68293   2
   2  -1   3 138.052 5.37617   4
  -2  -1  -3 132.366 5.42246   4
   2  -1   3 134.275 5.60129   2
  -2  -1  -3 135.459 4.94801   1
  -2   1  -3 127.161 5.04402   5
   2   1   3 128.421 5.58764   2
  -2   1  -3 130.223 5.59878   4
   2   1   3 127.645 5.39716   3
   2   1   3 127.111 4.96614   5
  -2   1  -3 135.106 5.32180   1
  -3  -1  -3 10.7696 0.76756   1
   3  -1   3 8.45310 1.17461   3
  -3  -1  -3 7.61967 1.27265   2
   3  -1   3 12.0265 1.42809   2
   3  -1   3 9.80624 1.07621   4
  -3  -1  -3 10.0234 1.14576   4
   3  -1   3 11.5224 0.94190   1
   3  -1   3 11.4235 1.15066   5
  -3   1  -3 10.7488 1.33110   4
  -3   1  -3 11.2439 1.20651   1
   3   1   3 10.0808 1.07183   5
   3   1   3 9.58437 1.31680   2
   3   1   3 9.86891 1.30158   3
  -4  -1  -3 198.154 7.76558   4
  -4  -1  -3 191.694 8.48174   2
   4  -1   3 186.930 8.19150   3
   4  -1   3 199.273 7.74944   4
   4  -1   3 202.011 8.26962   2
  -4  -1  -3 200.614 7.43966   1
   4  -1   3 195.047 7.92396   5
   4  -1   3 186.767 7.61396   1
  -4   1  -3 191.696 8.03277   4
   4   1   3 193.393 7.87507   5
  -4   1  -3 185.084 8.38726   2
   4   1   3 205.579 8.39178   2
  -4   1  -3 205.570 7.87713   1
   4   1   3 194.157 8.32391   3
   4   1   3 190.810 7.29315   1
  -5  -1  -3 113.397 5.87804   2
   5  -1   3 117.574 5.14946   1
   5  -1   3 114.217 5.65810   2
   5  -1   3 126.792 5.61823   5
   5  -1   3 127.448 5.95315   3
   5  -1   3 117.669 5.11896   4
  -5  -1  -3 123.516 5.15311   4
   5   1   3 122.568 5.56678   5
  -5   1  -3 110.546 5.82328   2
   5   1   3 118.569 5.77871   2
   5   1   3 106.544 5.77601   3
   5   1   3 119.898 4.86612   1
  -5   1  -3 119.918 5.46019   4
   6  -1   3 47.8994 3.11120   5
   6  -1   3 47.1851 2.58004   4
   6  -1   3 37.3614 2.54661   1
  -6  -1  -3 48.1406 2.56918   4
  -6  -1  -3 44.7110 3.26847   2
   6  -1   3 44.8052 3.11835   2
   6  -1   3 46.8397 3.38523   3
   6   1   3 50.3239 3.18321   5
   6   1   3 44.4170 2.44490   1
  -6   1  -3 40.7739 3.17558   2
  -6   1  -3 48.8313 2.89511   4
   6   1   3 38.7204 3.16251   3
   7  -1   3 179.560 7.18521   4
   7  -1   3 160.809 8.29171   3
  -7  -1  -3 166.778 8.19705   2
   7  -1   3 162.152 7.92630   5
   7  -1   3 169.841 7.36416   1
  -7   1  -3 179.766 8.28496   2
  -7   1  -3 176.950 7.49451   4
   7   1   3 157.017 7.86973   5
   7   1   3 167.464 8.47074   3
   8  -1   3 105.844 6.24915   3
  -8  -1  -3 99.7611 5.81331   2
   8  -1   3 96.8812 5.66004   5
   8   1   3 93.3804 5.59299   5
  -8   1  -3 95.4931 5.64774   2
   8   1   3 96.1569 6.08927   3
   9  -1   3 5.27646 1.71520   3
   9  -1   3 6.11700 1.74990   5
  -9  -1  -3 5.95823 1.72376   2
   9   1   3 7.32508 1.74172   5
   9   1   3 2.88731 1.37328   3
  -9   1  -3 3.74949 1.36067   2
  10  -1   3 17.2047 2.88582   5
  10  -1   3 15.9040 3.08528   3
 -10  -1  -3 12.3016 2.41687   2
  10   1   3 17.2145 2.82102   5
 -10   1  -3 12.1652 2.30688   2
  10   1   3 10.8942 2.58203   3
  11  -1   3 5.98908 2.31175   3
  11  -1   3 1.71183 1.46033   5
 -11  -1  -3 1.95990 1.59697   2
  11   1   3 2.05420 1.76562   3
  11   1   3 5.18585 1.88097   5
  12  -1   3 7.07239 2.24975   3
  12  -1   3 6.99978 3.53309   5
  12   1   3 7.98202 2.49465   3
  12  -2  -3 -1.5410 1.11081   3
  12  -2  -3 1.62207 1.66924   5
  12  -2  -3 -0.8798 1.56179   1
 -12  -2   3 -0.0744 1.59236   3
 -12   2   3 -1.4517 1.09654   3
  12   2  -3 -0.7255 1.67366   3
  12   2  -3 0.25647 1.23238   5
  11  -2  -3 18.7911 3.64655   5
  11  -2  -3 16.4950 3.09079   1
  11  -2  -3 11.9848 2.86913   3
 -11   2   3 18.6742 3.38133   3
  11   2  -3 18.8386 3.65172   5
  11   2  -3 20.1316 3.39583   1
  11   2  -3 11.9113 2.98362   3
  10  -2  -3 22.3311 3.71444   5
  10  -2  -3 23.8182 3.65858   1
  10  -2  -3 20.8876 3.61033   3
  10   2  -3 24.4039 3.71909   5
  10   2  -3 18.7931 3.10224   1
  10   2  -3 18.3232 3.18744   3
 -10   2   3 22.5566 3.63896   3
   9  -2  -3 2.53372 1.46325   5
   9  -2  -3 2.38386 1.31939   1
   9  -2  -3 0.43807 1.40164   3
   9   2  -3 2.97739 1.64877   3
  -9   2   3 6.53033 1.95205   3
   9   2  -3 1.97528 1.16244   1
   9   2  -3 2.31917 1.53848   5
   8  -2  -3 6.26623 1.35897   4
   8  -2  -3 9.99144 2.27006   1
   8  -2  -3 9.21015 2.04827   5
   8  -2  -3 9.01779 1.98627   3
  -8  -2   3 14.5869 1.81385   2
   8   2  -3 11.6061 2.25717   3
   8   2  -3 13.0007 2.38889   1
  -8   2   3 11.5653 2.26617   3
   8   2  -3 5.72226 1.72821   5
   7  -2  -3 112.610 6.25017   3
   7  -2  -3 107.696 6.16944   5
  -7  -2   3 113.557 5.17263   2
   7  -2  -3 102.118 5.94894   1
   7  -2  -3 107.013 5.22399   4
   7   2  -3 103.387 6.03853   5
   7   2  -3 111.238 5.92631   1
   7   2  -3 109.886 6.09251   3
  -7   2   3 101.392 5.96877   3
   6  -2  -3 105.284 5.80062   5
   6  -2  -3 112.291 5.19115   4
   6  -2  -3 115.892 5.94568   1
   6  -2  -3 108.033 5.81959   3
  -6  -2   3 118.684 5.09311   2
   6   2  -3 117.344 5.98229   5
   6   2  -3 108.455 4.73078   4
   6   2  -3 107.862 5.75376   3
   6   2  -3 103.481 5.62099   1
  -6   2   3 98.4676 5.62514   3
  -6   2   3 109.056 4.38664   2
   5  -2  -3 116.027 5.98227   3
   5  -2  -3 123.996 5.59332   4
   5  -2  -3 119.100 6.07578   1
   5  -2  -3 125.521 6.11068   5
  -5  -2   3 131.220 5.43955   2
   5   2  -3 125.577 5.25389   4
  -5   2   3 118.822 5.97550   3
   5   2  -3 119.593 5.89975   3
   5   2  -3 125.400 6.10195   5
  -5   2   3 128.204 4.75226   2
   5   2  -3 131.165 6.10618   1
  -4  -2   3 41.0968 2.24751   2
   4  -2  -3 37.4391 2.34720   4
   4  -2  -3 38.9163 2.64906   5
   4  -2  -3 36.4402 2.52673   3
   4  -2  -3 38.0475 2.65844   1
  -4   2   3 44.7411 1.73104   2
   4   2  -3 33.4537 2.56242   1
  -4   2   3 41.3894 2.61868   3
   4   2  -3 38.9724 2.64952   5
   4   2  -3 40.1568 2.20968   4
   4   2  -3 38.3872 2.48642   3
   3  -2  -3 220.306 9.42356   1
   3  -2  -3 229.047 9.30226   5
   3  -2  -3 236.050 9.23758   4
  -3  -2   3 234.045 8.97123   2
  -3   2   3 245.427 8.41694   2
   3   2  -3 232.985 9.09763   3
  -3   2   3 218.633 9.21559   3
   3   2  -3 231.679 9.46256   1
   3   2  -3 244.587 9.08177   4
   3   2  -3 235.030 9.31250   5
  -2  -2   3 461.851 17.7369   2
   2  -2  -3 488.879 18.1066   1
   2  -2  -3 479.327 17.9972   4
   2  -2  -3 490.114 17.8748   5
   2   2  -3 502.501 17.9680   4
   2   2  -3 495.263 17.8904   5
  -2   2   3 508.094 17.3726   2
   2   2  -3 493.631 18.2022   1
  -2   2   3 491.160 17.8820   3
   2   2  -3 482.476 17.5872   3
   1  -2  -3 232.718 8.85740   1
  -1  -2   3 218.214 8.74991   2
   1  -2  -3 228.864 8.54619   5
   1  -2  -3 231.749 8.95587   4
  -1  -2   3 220.655 8.21845   3
   1   2  -3 228.921 8.64366   5
   1   2  -3 229.670 9.08848   1
   1   2  -3 232.362 9.01213   4
  -1   2   3 241.503 8.73396   3
   1   2  -3 229.754 8.23864   3
  -1   2   3 238.913 8.56956   2
   0  -2   3 66.6298 3.08080   2
   0  -2  -3 64.4298 3.07643   2
   0  -2  -3 67.1038 3.13845   4
   0  -2  -3 66.2814 2.86047   1
   0   2  -3 63.6677 3.18771   1
   0   2   3 66.1965 2.60245   5
   0   2  -3 64.9483 2.79166   5
   0   2  -3 61.6686 3.19787   4
   0   2   3 65.2704 2.97666   2
   0   2   3 66.8612 2.95309   3
   1  -2   3 255.220 10.2943   2
  -1  -2  -3 274.067 9.73088   1
  -1  -2  -3 269.337 10.4831   2
   1  -2   3 258.725 9.71953   3
   1  -2   3 275.601 10.2510   4
  -1  -2  -3 270.922 10.2486   4
  -1   2  -3 270.924 10.3198   1
   1   2   3 276.469 9.68164   5
   1   2   3 257.312 10.2887   2
  -1   2  -3 274.918 9.86859   5
   1   2   3 287.290 10.2392   3
  -1   2  -3 271.604 10.5513   4
  -2  -2  -3 0.91719 0.16517   1
   2  -2   3 0.91739 0.34714   3
  -2  -2  -3 1.23128 0.42994   4
   2  -2   3 1.08070 0.40331   1
   2  -2   3 0.41450 0.28064   4
   2  -2   3 0.66336 0.31559   5
   2  -2   3 0.59817 0.40237   2
  -2  -2  -3 0.82560 0.43463   2
  -2   2  -3 0.63356 0.32321   5
   2   2   3 0.93872 0.41560   3
  -2   2  -3 0.91400 0.44222   1
   2   2   3 0.35838 0.34682   2
  -2   2  -3 0.67184 0.41673   4
   2   2   3 0.76434 0.29504   5
  -3  -2  -3 934.135 33.4107   4
   3  -2   3 946.977 33.6206   4
   3  -2   3 924.073 33.6774   3
  -3  -2  -3 946.002 34.2218   2
  -3  -2  -3 962.800 32.7490   1
   3  -2   3 928.024 33.4648   5
   3  -2   3 926.693 33.4585   1
   3  -2   3 947.871 33.8894   2
   3   2   3 935.709 34.0197   2
   3   2   3 932.067 33.3902   5
  -3   2  -3 944.549 33.9837   4
  -3   2  -3 955.034 33.7188   1
   3   2   3 945.288 33.9263   3
   4  -2   3 -0.0446 0.32415   5
  -4  -2  -3 0.53980 0.60123   2
   4  -2   3 -0.1276 0.43158   2
   4  -2   3 -0.1503 0.36611   3
  -4  -2  -3 -0.6233 0.25056   4
   4  -2   3 -0.0177 0.32133   4
  -4  -2  -3 0.36027 0.23301   1
   4  -2   3 0.06913 0.32997   1
   4   2   3 0.17874 0.17925   1
  -4   2  -3 0.16780 0.44384   1
   4   2   3 0.35296 0.53681   3
   4   2   3 0.05909 0.38010   5
  -4   2  -3 -0.6220 0.33392   4
  -5  -2  -3 160.029 7.54251   2
   5  -2   3 159.976 6.80151   1
   5  -2   3 161.410 7.18594   2
  -5  -2  -3 166.775 6.47006   4
   5  -2   3 154.826 6.73071   4
   5  -2   3 163.586 7.40289   3
   5  -2   3 166.135 7.13109   5
  -5   2  -3 171.526 7.54372   2
  -5   2  -3 168.476 7.19739   4
   5   2   3 159.272 7.04163   5
   5   2   3 153.600 7.43435   3
   5   2   3 154.248 6.15217   1
  -6  -2  -3 108.601 5.80918   2
   6  -2   3 99.6720 5.64033   3
   6  -2   3 99.4441 5.34056   5
   6  -2   3 108.388 5.08243   1
   6  -2   3 104.109 4.90243   4
   6  -2   3 103.726 5.38998   2
  -6   2  -3 105.816 5.28735   4
  -6   2  -3 116.108 5.80532   2
   6   2   3 111.957 5.48568   5
   6   2   3 110.911 5.93460   3
   7  -2   3 27.8417 2.02986   4
  -7  -2  -3 31.5506 3.26237   2
   7  -2   3 26.1701 2.77968   2
   7  -2   3 25.5904 3.13275   3
   7  -2   3 25.9466 2.18212   1
   7  -2   3 25.7932 2.94005   5
   7   2   3 23.9595 3.04087   3
  -7   2  -3 25.2003 2.90705   2
  -7   2  -3 24.2307 2.53964   4
   7   2   3 24.4109 2.85218   5
   8  -2   3 3.67630 1.43138   5
   8  -2   3 3.95908 1.46712   3
  -8  -2  -3 7.71678 1.75507   2
   8  -2   3 8.97993 1.59832   1
  -8   2  -3 5.06209 1.48985   2
   8   2   3 6.86531 1.67551   5
   8   2   3 6.56443 1.99296   3
   9  -2   3 72.3056 5.13014   3
   9  -2   3 70.4386 4.79967   5
  -9  -2  -3 56.7153 4.45691   2
   9   2   3 61.8902 5.03418   3
   9   2   3 64.4849 4.64399   5
  -9   2  -3 62.1661 4.45565   2
  10  -2   3 4.62106 1.61716   3
  10  -2   3 5.81370 1.86857   5
 -10  -2  -3 4.26096 1.67500   2
  10   2   3 2.78947 1.70369   3
 -10   2  -3 4.89380 1.88502   2
  10   2   3 11.1456 2.33327   5
  11  -2   3 77.1577 5.99108   3
 -11  -2  -3 53.4065 4.71577   2
  11  -2   3 53.1595 4.64859   5
  11   2   3 66.2998 5.12905   5
  11   2   3 52.7352 5.93483   3
  12  -2   3 4.40262 2.39054   3
  12  -2   3 5.41361 2.28322   5
  12   2   3 6.08567 2.33713   3
 -12   2  -3 2.22243 2.13163   3
  12  -3  -3 2.82542 1.76535   5
  12  -3  -3 0.47877 1.82076   3
  12  -3  -3 1.59847 1.38646   1
 -12   3   3 1.51467 2.00235   3
  12   3  -3 2.72942 2.01603   5
  12   3  -3 1.50237 2.03643   3
  11  -3  -3 -0.5525 1.47775   1
  11  -3  -3 -0.2632 1.26576   5
  11  -3  -3 0.55320 1.66505   3
 -11   3   3 -2.2323 1.33491   3
  11   3  -3 0.37183 1.25350   1
  11   3  -3 1.17213 1.23079   5
  11   3  -3 0.76941 1.10262   3
  10  -3  -3 3.94994 1.95902   5
  10  -3  -3 2.86331 1.44926   1
  10  -3  -3 1.33503 1.67401   3
  10   3  -3 3.37406 1.52933   3
  10   3  -3 0.68548 1.51766   5
  10   3  -3 1.33433 0.97396   1
 -10   3   3 2.19649 1.72206   3
   9  -3  -3 10.2943 2.35019   3
  -9  -3   3 5.35273 1.43100   2
   9  -3  -3 5.01438 1.85515   1
   9  -3  -3 6.33355 1.87525   5
   9   3  -3 9.43151 2.10335   1
  -9   3   3 11.0476 2.37151   3
   9   3  -3 6.03377 2.04642   5
   9   3  -3 5.12571 1.93401   3
   8  -3  -3 67.8909 4.73604   1
   8  -3  -3 56.2985 4.52865   3
  -8  -3   3 73.7705 4.00426   2
   8  -3  -3 65.2448 4.72627   5
   8  -3  -3 72.0853 4.08363   4
   8   3  -3 68.0607 4.57094   1
   8   3  -3 62.6804 4.67823   3
   8   3  -3 67.6936 4.84656   5
  -8   3   3 62.0932 4.61614   3
   7  -3  -3 3.45191 1.03116   4
   7  -3  -3 2.69205 1.36415   3
  -7  -3   3 4.21133 1.08756   2
   7  -3  -3 1.90226 1.09607   5
   7  -3  -3 2.01906 1.21722   1
   7   3  -3 0.81132 1.06727   3
   7   3  -3 4.34639 1.57623   5
  -7   3   3 1.23202 1.10083   3
   7   3  -3 4.57658 1.33515   1
  -6  -3   3 106.113 4.96837   2
   6  -3  -3 104.652 5.17535   4
   6  -3  -3 96.0677 5.61705   1
   6  -3  -3 106.628 5.74691   5
   6  -3  -3 116.555 5.94656   3
   6   3  -3 104.688 4.51118   4
  -6   3   3 104.833 5.71911   3
   6   3  -3 104.704 5.61879   3
   6   3  -3 102.888 5.50995   1
   6   3  -3 103.412 5.74202   5
  -5  -3   3 13.9690 1.55918   2
   5  -3  -3 14.6492 1.96747   3
   5  -3  -3 11.8248 1.59619   4
   5  -3  -3 11.4716 1.91368   1
   5  -3  -3 13.5240 1.93896   5
  -5   3   3 13.3317 1.84042   3
  -5   3   3 13.5039 0.55059   2
   5   3  -3 13.3966 1.90095   5
   5   3  -3 11.7356 1.25897   4
   5   3  -3 10.2398 1.62498   3
   5   3  -3 12.9978 1.87303   1
  -4  -3   3 14.3403 1.51692   2
   4  -3  -3 15.0225 1.79036   3
   4  -3  -3 11.7900 1.75569   1
   4  -3  -3 10.4725 1.42802   4
   4  -3  -3 13.6380 1.81203   5
   4   3  -3 16.2841 1.23296   4
   4   3  -3 11.9189 1.51267   3
   4   3  -3 13.7820 1.77463   5
   4   3  -3 13.9765 1.84954   1
  -4   3   3 13.2357 1.69256   3
  -3  -3   3 31.4576 1.97065   2
   3  -3  -3 31.8310 2.09685   4
   3  -3  -3 33.6953 2.32153   1
   3  -3  -3 31.2970 2.15273   5
   3  -3  -3 31.9360 1.26611   2
   3   3  -3 33.5874 2.16519   5
   3   3  -3 31.7016 1.96874   3
  -3   3   3 29.5696 2.11949   3
   3   3  -3 34.5309 2.32791   1
   3   3  -3 34.2138 1.96638   4
  -2  -3   3 6.87137 0.93285   2
   2  -3  -3 7.39690 1.00388   5
   2  -3  -3 6.74950 1.02897   4
   2  -3  -3 7.61460 0.60393   2
   2  -3  -3 6.72618 1.07024   1
  -2   3   3 7.77454 0.57010   2
   2   3  -3 9.33291 1.13758   5
   2   3  -3 7.70116 0.83325   3
   2   3  -3 9.49542 1.33375   1
   2   3  -3 8.03437 1.06681   4
  -2   3   3 6.85451 0.98677   3
   1  -3  -3 38.1582 1.99893   2
   1  -3  -3 40.2672 2.21832   1
  -1  -3   3 41.6087 2.23333   2
   1  -3  -3 42.0481 2.04652   5
   1  -3  -3 42.8791 2.34810   4
   1   3  -3 45.4240 2.25674   5
   1   3  -3 40.4981 1.71253   3
  -1   3   3 41.7050 2.07706   5
  -1   3   3 41.3739 2.20742   3
  -1   3   3 40.3911 1.96117   2
   1   3  -3 38.3116 2.31103   4
   1   3  -3 41.5034 2.47713   1
   0  -3  -3 50.0634 2.37885   1
   0  -3  -3 52.3420 2.60284   2
   0  -3   3 49.8042 2.55273   4
   0  -3  -3 57.3031 2.71608   4
   0  -3   3 49.7886 2.59994   2
   0   3   3 49.5086 2.56918   3
   0   3  -3 53.5485 2.84496   1
   0   3  -3 48.6938 2.77340   4
   0   3   3 54.9226 2.30237   5
   0   3  -3 50.7442 2.45663   5
   0   3   3 47.7206 2.46463   2
   1  -3   3 3.42544 0.41004   3
   1  -3   3 2.14519 0.54452   4
  -1  -3  -3 2.01360 0.61478   2
  -1  -3  -3 3.01313 0.64160   4
   1  -3   3 3.05184 0.64994   2
  -1  -3  -3 3.10185 0.42277   1
  -1   3  -3 2.74373 0.37008   3
  -1   3  -3 2.23160 0.65721   4
   1   3   3 3.80602 0.58453   5
  -1   3  -3 2.29431 0.50340   5
   1   3   3 3.88078 0.77324   3
   1   3   3 2.11285 0.56349   2
  -1   3  -3 2.19474 0.68787   1
   2  -3   3 192.325 7.72235   4
   2  -3   3 185.726 7.77304   2
   2  -3   3 195.193 7.45197   5
   2  -3   3 190.462 7.59850   1
  -2  -3  -3 193.612 8.02939   2
   2  -3   3 195.448 7.40891   3
  -2  -3  -3 192.686 7.51322   4
  -2   3  -3 195.625 8.07130   4
   2   3   3 200.772 7.85256   3
   2   3   3 181.569 7.83574   2
  -2   3  -3 192.648 7.50109   5
  -2   3  -3 191.359 7.83126   1
   2   3   3 193.631 7.32701   5
   3  -3   3 541.987 18.9914   3
   3  -3   3 514.578 18.8437   5
  -3  -3  -3 524.032 18.6386   4
   3  -3   3 506.132 18.9885   4
   3  -3   3 500.204 19.1034   2
  -3  -3  -3 525.236 19.5192   2
   3  -3   3 497.741 18.8657   1
  -3   3  -3 511.043 19.3703   4
   3   3   3 522.432 19.2878   3
  -3   3  -3 513.154 19.1592   1
  -3   3  -3 506.880 18.8998   5
   3   3   3 510.220 18.7165   5
   4  -3   3 93.8948 4.39856   3
  -4  -3  -3 88.2050 3.71009   4
   4  -3   3 79.4436 4.21705   2
   4  -3   3 82.4279 4.05918   1
   4  -3   3 88.9126 4.18984   5
  -4  -3  -3 79.5436 4.49914   2
   4  -3   3 84.5830 4.10164   4
  -4   3  -3 86.4193 4.31962   1
  -4   3  -3 83.4122 4.18252   5
   4   3   3 88.2180 4.10318   5
  -4   3  -3 78.6630 4.31314   4
   4   3   3 87.3698 4.54627   3
   5  -3   3 4.91583 1.10412   2
   5  -3   3 4.95313 1.11450   5
   5  -3   3 5.69589 1.05196   4
  -5  -3  -3 2.76343 0.93261   2
   5  -3   3 5.26640 1.03740   1
   5  -3   3 3.77219 1.02841   3
  -5  -3  -3 4.93262 0.72583   4
   5   3   3 3.61204 0.93098   5
  -5   3  -3 4.07070 1.06341   4
  -5   3  -3 3.66682 1.09887   2
   5   3   3 5.27892 1.36073   3
  -5   3  -3 4.58062 1.11462   1
   6  -3   3 43.7466 2.75026   4
   6  -3   3 42.9890 2.84498   1
   6  -3   3 46.2031 3.13595   5
   6  -3   3 44.9939 3.22717   3
   6  -3   3 44.9570 3.07564   2
  -6  -3  -3 42.5710 3.32560   2
  -6   3  -3 41.4954 3.03446   4
   6   3   3 45.1120 3.47403   3
  -6   3  -3 40.4197 3.15117   2
   6   3   3 46.6574 3.11062   5
  -7  -3  -3 8.32448 1.75873   2
   7  -3   3 10.4007 1.50191   4
   7  -3   3 8.43940 1.83962   3
   7  -3   3 6.42200 1.35972   1
   7  -3   3 7.00961 1.59407   5
   7  -3   3 11.6792 1.82462   2
   7   3   3 6.37531 1.52201   5
   7   3   3 7.25216 1.75569   3
  -7   3  -3 6.86583 1.61520   2
  -7   3  -3 10.4195 1.79325   4
   8  -3   3 53.4597 3.93806   5
  -8  -3  -3 52.3422 4.03330   2
   8  -3   3 48.2980 4.04339   3
   8  -3   3 48.7966 3.41949   1
   8  -3   3 58.8665 3.81787   2
   8   3   3 47.1081 4.20452   3
  -8   3  -3 51.3999 3.80248   2
   8   3   3 52.7231 3.91709   5
   9  -3   3 4.49739 1.62790   3
  -9  -3  -3 3.17399 1.59685   2
   9  -3   3 4.42494 1.58217   5
   9   3   3 2.97291 1.45536   5
  -9   3  -3 4.30578 1.48651   2
   9   3   3 2.73361 1.64434   3
  10  -3   3 60.2304 4.75133   5
 -10  -3  -3 62.3368 4.66074   2
  10  -3   3 60.3444 4.98785   3
  10   3   3 55.5022 4.56631   5
 -10   3  -3 56.1496 4.81729   3
  10   3   3 60.1235 5.23922   3
  11  -3   3 2.37175 1.39399   3
  11  -3   3 2.45364 1.76087   5
 -11  -3  -3 0.64506 1.62283   2
  11   3   3 1.17565 1.57984   3
 -11   3  -3 -0.2456 1.12226   3
  11   3   3 2.73984 1.47046   5
 -12  -3  -3 15.0496 3.16625   2
  12  -3   3 18.1944 3.40580   5
  12  -3   3 14.1654 3.34277   3
 -12   3  -3 15.0851 3.30914   3
  12  -4  -3 2.85677 2.17073   5
  12  -4  -3 5.28415 2.42672   3
  12  -4  -3 6.70726 2.55569   1
  12   4  -3 5.16864 2.37067   5
 -12   4   3 4.29037 2.42532   3
  12   4  -3 8.88461 2.69283   3
  11  -4  -3 1.26881 1.28670   1
  11  -4  -3 -0.4308 1.20282   5
  11  -4  -3 -0.5675 1.48700   3
 -11   4   3 0.78206 1.96720   3
  11   4  -3 0.47117 1.59857   5
  11   4  -3 1.15511 1.14036   3
  10  -4  -3 1.36813 1.59825   1
  10  -4  -3 -0.2298 0.97633   3
  10  -4  -3 3.80881 2.05092   5
  10   4  -3 0.69482 1.08103   5
 -10   4   3 -0.0704 1.10959   3
  10   4  -3 3.04116 1.78862   3
  10   4  -3 0.48921 1.27603   1
   9  -4  -3 9.50493 2.50821   1
  -9  -4   3 10.4758 1.87549   2
   9  -4  -3 12.7208 2.50785   3
   9  -4  -3 13.4745 2.64602   5
   9   4  -3 11.8135 2.49472   5
  -9   4   3 7.82373 2.09560   3
   9   4  -3 9.76953 2.07651   1
   9   4  -3 10.3672 2.29777   3
   8  -4  -3 1.06497 0.98406   1
   8  -4  -3 2.87135 1.08412   4
   8  -4  -3 3.60994 1.39599   3
   8  -4  -3 3.69180 1.64959   5
  -8  -4   3 2.36932 1.00840   2
   8   4  -3 1.35045 0.96601   1
  -8   4   3 1.17799 0.99895   3
   8   4  -3 1.21406 1.07190   5
   8   4  -3 3.47088 1.31884   3
   7  -4  -3 47.8050 3.67456   1
  -7  -4   3 46.6626 3.06052   2
   7  -4  -3 43.3526 3.10190   4
   7  -4  -3 45.1090 3.73205   5
   7  -4  -3 45.4108 3.65471   3
   7   4  -3 37.7830 3.39704   3
   7   4  -3 38.9059 3.53873   5
   7   4  -3 46.8334 3.41115   1
  -7   4   3 45.2349 3.70220   3
   6  -4  -3 59.0699 3.91934   3
   6  -4  -3 58.4557 3.90688   1
   6  -4  -3 56.4368 3.44451   4
  -6  -4   3 51.7978 3.20498   2
   6  -4  -3 52.6216 3.72360   5
   6   4  -3 57.3130 3.82627   5
  -6   4   3 54.1174 3.81289   3
   6   4  -3 50.7306 3.52939   3
   6   4  -3 45.6662 3.45326   1
   5  -4  -3 58.5876 3.78206   1
   5  -4  -3 57.7064 3.38316   4
   5  -4  -3 53.2216 3.55264   5
  -5  -4   3 55.2948 3.16192   2
   5   4  -3 51.7142 3.41148   1
  -5   4   3 54.6065 3.55035   3
   5   4  -3 47.3835 3.27507   3
   5   4  -3 57.6013 2.78777   4
   5   4  -3 59.3237 3.62607   5
   4  -4  -3 1.79042 0.73078   5
  -4  -4   3 1.15259 0.63544   2
   4  -4  -3 1.63355 0.75258   1
   4  -4  -3 2.59706 0.78222   4
   4   4  -3 1.38149 0.73686   5
   4   4  -3 1.88476 0.69980   3
   4   4  -3 2.52319 0.63631   4
  -4   4   3 2.28991 0.76751   3
   4   4  -3 1.46829 0.76446   1
   3  -4  -3 135.336 6.12087   5
   3  -4  -3 139.417 6.17995   4
   3  -4  -3 132.413 6.29299   1
  -3  -4   3 141.764 6.00694   2
   3   4  -3 138.428 6.34820   1
   3   4  -3 133.977 5.85692   4
   3   4  -3 141.254 6.20375   5
  -3   4   3 136.506 6.17999   3
   3   4  -3 158.166 6.02004   3
   2  -4  -3 1168.68 41.7354   1
   2  -4  -3 1150.23 40.7565   2
   2  -4  -3 1171.75 41.4891   5
   2  -4  -3 1158.01 41.6836   4
  -2  -4   3 1128.85 41.4851   2
   2   4  -3 1185.74 41.5944   4
   2   4  -3 1158.96 41.1067   3
  -2   4   3 1192.38 41.5853   5
   2   4  -3 1189.71 41.9595   1
   2   4  -3 1168.54 41.6019   5
  -1  -4   3 4.47198 0.86881   2
   1  -4  -3 3.48385 0.76796   4
   1  -4  -3 3.75460 0.67821   5
   1  -4  -3 3.02335 0.71580   1
   1  -4  -3 2.82027 0.51331   2
  -1  -4   3 4.04396 0.74136   4
  -1   4   3 4.93464 0.82740   3
   1   4  -3 3.75068 0.84031   4
  -1   4   3 3.17710 0.65891   5
   1   4  -3 4.35352 0.49526   3
   1   4  -3 6.07810 1.17025   1
   1   4  -3 4.99160 0.87307   5
   0  -4  -3 31.8552 1.95115   4
   0  -4   3 29.0229 1.85849   4
   0  -4  -3 33.9820 1.91782   2
   0  -4   3 32.9246 1.99691   2
   0  -4  -3 31.4247 1.72859   1
   0   4   3 30.9209 1.98386   3
   0   4  -3 31.9410 1.33646   3
   0   4  -3 33.8319 1.93898   5
   0   4   3 30.8661 1.70892   5
   0   4  -3 27.8222 2.03661   4
   0   4  -3 31.7010 2.17563   1
  -1  -4  -3 98.1318 3.85672   1
  -1  -4  -3 96.9159 4.53175   2
   1  -4   3 100.102 4.48664   4
  -1  -4  -3 101.283 4.37648   4
   1  -4   3 97.5284 4.46337   2
  -1   4  -3 101.993 4.80795   4
   1   4   3 103.351 4.20719   5
  -1   4  -3 99.2469 3.82648   3
  -1   4  -3 99.6278 4.30949   5
  -1   4  -3 95.0949 4.61188   1
   1   4   3 97.5255 4.52610   3
  -2  -4  -3 239.027 9.72540   2
   2  -4   3 242.064 9.43923   1
   2  -4   3 241.280 9.52507   2
  -2  -4  -3 233.542 9.18232   4
   2  -4   3 253.862 9.12111   3
   2  -4   3 240.665 9.53229   4
   2   4   3 235.755 9.59053   3
  -2   4  -3 237.965 9.05144   3
  -2   4  -3 232.289 9.83813   4
   2   4   3 245.305 9.17410   5
  -2   4  -3 241.456 9.33412   5
  -2   4  -3 232.525 9.66329   1
  -3  -4  -3 167.425 6.60089   4
   3  -4   3 181.457 7.19145   4
  -3  -4  -3 167.247 7.40151   2
   3  -4   3 169.436 6.93354   5
   3  -4   3 162.500 6.97763   1
   3  -4   3 173.615 7.14024   2
   3  -4   3 168.406 6.90419   3
  -3   4  -3 161.726 7.23781   1
   3   4   3 160.261 7.23085   3
  -3   4  -3 162.783 6.85082   3
  -3   4  -3 162.074 7.39026   4
   3   4   3 172.197 6.83168   5
  -3   4  -3 165.410 6.99204   5
   4  -4   3 222.096 9.06184   4
   4  -4   3 209.360 9.03484   2
  -4  -4  -3 233.287 9.60558   2
   4  -4   3 219.594 9.03423   5
  -4  -4  -3 220.443 8.36525   4
   4  -4   3 229.354 9.06659   1
   4  -4   3 213.453 9.06251   3
  -4   4  -3 222.967 9.13936   5
  -4   4  -3 215.767 9.38800   4
  -4   4  -3 216.503 9.05847   3
   4   4   3 216.714 9.43042   3
  -4   4  -3 225.198 9.32036   1
   4   4   3 222.137 8.92711   5
   5  -4   3 3.83446 1.00972   2
   5  -4   3 2.93647 0.92804   1
   5  -4   3 1.75415 0.81946   3
   5  -4   3 2.29992 0.74838   4
   5  -4   3 4.26838 0.98754   5
  -5  -4  -3 2.83164 0.53358   4
  -5  -4  -3 2.34623 0.90477   2
  -5   4  -3 2.41870 0.93517   3
  -5   4  -3 3.57834 0.99995   1
  -5   4  -3 3.25966 0.98880   4
  -5   4  -3 3.52076 0.97676   5
   5   4   3 2.31120 0.87126   5
   5   4   3 1.72288 1.00878   3
   6  -4   3 310.383 12.1659   4
   6  -4   3 288.113 12.6016   3
   6  -4   3 311.729 12.3606   2
   6  -4   3 294.609 12.2052   1
   6  -4   3 324.392 12.6019   5
  -6  -4  -3 312.005 12.9569   2
  -6   4  -3 308.928 12.6823   2
   6   4   3 276.363 12.8295   3
  -6   4  -3 297.146 12.5676   4
  -6   4  -3 293.241 12.5984   3
   6   4   3 296.623 12.3877   5
   7  -4   3 50.7694 3.10461   4
   7  -4   3 45.2107 3.38477   5
   7  -4   3 43.8488 3.11584   1
  -7  -4  -3 49.4188 3.71278   2
   7  -4   3 35.8145 2.88673   2
   7  -4   3 41.6950 3.47747   3
   7   4   3 45.8504 3.35110   5
  -7   4  -3 44.7688 3.32012   2
   7   4   3 40.9551 3.69862   3
  -7   4  -3 46.8043 3.35644   4
  -7   4  -3 41.0479 3.47966   3
   8  -4   3 11.8133 1.73413   4
  -8  -4  -3 10.2318 2.06008   2
   8  -4   3 9.16509 1.91319   5
   8  -4   3 10.1404 2.11020   3
   8  -4   3 13.1645 2.05373   1
   8  -4   3 9.43466 1.79919   2
  -8   4  -3 8.37434 2.04939   3
   8   4   3 9.84347 2.05368   5
  -8   4  -3 9.71136 1.84081   4
   8   4   3 8.04462 2.13114   3
  -8   4  -3 11.8135 2.11697   2
  -9  -4  -3 2.77596 1.49643   2
   9  -4   3 2.98050 1.27015   1
   9  -4   3 4.61966 1.71707   3
   9  -4   3 3.85854 1.43283   5
   9   4   3 6.48959 1.77842   5
  -9   4  -3 3.00357 1.40864   2
   9   4   3 6.56893 2.07259   3
  -9   4  -3 3.80915 1.58126   3
  10  -4   3 1.25435 1.24715   5
  10  -4   3 1.31258 1.02001   3
 -10  -4  -3 -0.3196 0.84554   2
 -10   4  -3 1.02232 1.16426   3
  10   4   3 0.96768 1.47558   3
  10   4   3 0.09407 1.13647   5
  11  -4   3 6.96523 2.16943   3
  11  -4   3 7.33897 2.17336   5
 -11  -4  -3 8.78223 2.43043   2
  11   4   3 11.2690 2.45223   5
 -11   4  -3 4.26550 1.76912   3
  11   4   3 11.4235 2.99925   3
  12  -5  -3 1.14833 2.13747   5
  12  -5  -3 2.33124 2.34211   3
  12  -5  -3 5.98796 2.52644   1
 -12   5   3 -0.6159 1.10883   3
  12   5  -3 3.50853 1.92189   3
  12   5  -3 0.25306 1.35791   5
  11  -5  -3 3.98195 2.06808   5
  11  -5  -3 3.36305 1.73731   3
  11  -5  -3 6.58183 2.21727   1
 -11   5   3 5.46390 2.04004   3
  11   5  -3 2.47974 1.81588   5
  11   5  -3 2.38381 1.95333   3
  10  -5  -3 4.38322 1.78041   1
  10  -5  -3 5.02353 2.16718   5
 -10  -5   3 4.55020 1.60077   2
  10  -5  -3 10.4155 2.61418   3
  10   5  -3 6.66686 2.19556   3
  10   5  -3 2.99796 1.53954   1
 -10   5   3 9.38489 2.62071   3
  10   5  -3 5.01386 2.01298   5
   9  -5  -3 9.72052 2.36382   3
   9  -5  -3 10.9205 2.43582   5
  -9  -5   3 11.2910 2.04238   2
   9  -5  -3 8.33596 2.13277   1
   9  -5  -3 11.1203 2.07530   4
   9   5  -3 11.2797 2.56416   3
  -9   5   3 12.4193 2.46092   3
   9   5  -3 11.7187 2.51109   5
   9   5  -3 12.2109 2.36190   1
   8  -5  -3 2.31183 1.30813   1
  -8  -5   3 3.83787 1.26729   2
   8  -5  -3 2.96088 1.25093   4
   8  -5  -3 6.05677 1.79713   3
   8  -5  -3 3.26818 1.37866   5
   8   5  -3 3.80891 1.52361   3
   8   5  -3 3.62896 1.43430   5
  -8   5   3 6.04871 1.70741   3
   8   5  -3 6.29246 1.73440   1
   7  -5  -3 6.82582 1.74700   5
   7  -5  -3 6.71948 1.68730   3
   7  -5  -3 3.76002 1.09222   4
  -7  -5   3 5.10954 1.30940   2
   7  -5  -3 6.30555 1.64608   1
   7   5  -3 5.82911 1.58167   3
  -7   5   3 3.55223 1.27339   3
   7   5  -3 2.89701 1.16382   1
   7   5  -3 6.49874 1.76012   5
   6  -5  -3 5.22920 1.36780   4
   6  -5  -3 5.60075 1.61392   1
  -6  -5   3 4.50008 1.20249   2
   6  -5  -3 6.73293 1.57992   5
   6   5  -3 3.85973 1.27888   5
   6   5  -3 3.99119 1.33285   1
   6   5  -3 6.31765 1.49911   3
  -6   5   3 5.86096 1.39688   3
   5  -5  -3 40.0037 2.79415   4
   5  -5  -3 32.3035 2.78521   1
   5  -5  -3 35.8469 2.79855   5
  -5  -5   3 37.7828 2.60947   2
  -5   5   3 38.0064 2.87034   3
   5   5  -3 37.3262 2.74807   3
   5   5  -3 35.6557 2.10681   4
   5   5  -3 37.6036 2.89672   1
   5   5  -3 38.4793 2.88363   5
   4  -5  -3 0.31148 0.63170   1
   4  -5  -3 1.19676 0.74350   5
   4  -5  -3 1.84693 0.71872   4
  -4  -5   3 1.68239 0.77074   2
   4   5  -3 0.94226 0.51821   4
  -4   5   3 1.03369 0.77988   3
   4   5  -3 1.16552 0.84799   5
   4   5  -3 0.98916 0.63430   3
   4   5  -3 1.00118 0.98221   1
  -3  -5   3 133.639 5.91004   2
   3  -5  -3 131.974 6.03560   5
   3  -5  -3 132.236 6.06821   4
   3  -5  -3 136.138 6.23267   1
   3   5  -3 142.511 6.35486   1
   3   5  -3 127.362 6.04238   5
  -3   5   3 137.231 6.17354   5
  -3   5   3 134.325 6.08335   3
   3   5  -3 133.070 5.73095   3
   3   5  -3 127.780 5.71930   4
  -2  -5   3 325.644 12.3958   4
   2  -5  -3 339.537 12.9062   4
  -2  -5   3 318.876 12.6773   2
   2  -5  -3 327.821 11.8816   2
   2  -5  -3 327.510 12.8528   1
   2  -5  -3 325.637 12.6277   5
  -2   5   3 336.015 12.7597   5
   2   5  -3 328.782 13.1055   1
   2   5  -3 325.327 12.7393   4
  -2   5   3 332.319 12.7789   3
   2   5  -3 339.779 12.8672   5
   2   5  -3 339.460 12.2898   3
  -1  -5   3 113.020 4.62869   4
   1  -5  -3 103.048 4.26090   2
   1  -5  -3 109.467 4.68359   1
   1  -5  -3 101.045 4.75528   4
  -1  -5   3 95.1295 4.60235   2
   1   5  -3 104.122 4.08085   3
  -1   5   3 101.319 4.69209   3
  -1   5   3 96.7023 4.49406   5
   1   5  -3 104.174 5.03744   1
   1   5  -3 97.1219 4.67316   5
   1   5  -3 99.1857 4.83093   4
   0  -5   3 1.28791 0.54850   4
   0  -5  -3 -0.0658 0.28337   4
   0  -5  -3 0.45443 0.37112   2
   0  -5   3 0.02964 0.31143   2
   0  -5  -3 -0.1893 0.25749   1
   0   5   3 0.90043 0.54471   3
   0   5   3 0.25294 0.35848   5
   0   5  -3 0.32649 0.54600   5
   0   5  -3 -0.5177 0.49389   1
   0   5  -3 0.11189 0.26237   3
   0   5  -3 0.17080 0.49722   4
  -1  -5  -3 33.4820 2.14806   4
   1  -5   3 37.8272 2.32991   4
   1  -5   3 39.9249 2.34268   2
  -1  -5  -3 38.6905 1.83159   1
  -1  -5  -3 35.3302 2.29678   2
  -1   5  -3 39.2950 2.58682   1
   1   5   3 39.2079 2.19922   5
  -1   5  -3 37.0053 2.22011   5
  -1   5  -3 41.7488 1.82568   3
  -1   5  -3 37.2702 2.56193   4
   1   5   3 39.0865 2.49554   3
   2  -5   3 126.950 5.43829   1
  -2  -5  -3 122.694 5.59006   2
  -2  -5  -3 120.574 5.08798   4
   2  -5   3 123.963 5.40673   2
   2  -5   3 118.251 5.42587   4
  -2   5  -3 116.770 5.27434   5
  -2   5  -3 114.618 5.59864   1
  -2   5  -3 119.761 5.75763   4
   2   5   3 115.076 4.40151   1
  -2   5  -3 120.675 4.92185   3
   2   5   3 117.325 5.17315   5
   2   5   3 123.663 5.57090   3
  -3  -5  -3 96.0618 4.00772   4
   3  -5   3 100.772 4.33751   3
   3  -5   3 86.2141 4.43500   4
   3  -5   3 89.1834 4.32619   5
  -3  -5  -3 92.2564 4.71273   2
   3  -5   3 84.7264 4.35776   2
   3  -5   3 89.2298 4.40901   1
  -3   5  -3 79.7933 4.54227   1
  -3   5  -3 85.8280 4.37416   5
  -3   5  -3 94.0657 4.25313   3
   3   5   3 92.7008 4.69533   3
   3   5   3 95.4073 4.30197   5
   4  -5   3 6.93293 1.26926   1
   4  -5   3 9.05307 1.35137   2
   4  -5   3 10.0202 1.46444   5
   4  -5   3 8.74417 1.33175   3
   4  -5   3 5.24031 1.11087   4
  -4  -5  -3 6.64141 0.84474   4
  -4  -5  -3 6.49735 1.36043   2
   4   5   3 9.33858 1.38169   5
  -4   5  -3 5.34383 1.31041   1
  -4   5  -3 5.48958 1.14497   5
   4   5   3 8.30284 1.50577   3
  -4   5  -3 5.85780 1.13855   3
   5  -5   3 251.909 10.7290   4
   5  -5   3 267.179 10.9768   3
   5  -5   3 258.053 10.7842   1
   5  -5   3 271.302 10.7914   2
   5  -5   3 265.877 10.8967   5
  -5  -5  -3 250.474 11.1963   2
   5   5   3 262.764 11.3632   3
  -5   5  -3 265.976 10.9996   5
  -5   5  -3 248.510 10.8212   3
   5   5   3 259.997 10.7451   5
  -5   5  -3 273.752 11.2147   1
   6  -5   3 81.7841 4.52368   1
  -6  -5  -3 86.3537 5.08123   2
   6  -5   3 74.3622 4.29913   4
   6  -5   3 88.9320 4.54494   2
   6  -5   3 79.2508 4.56258   5
   6  -5   3 75.2258 4.65828   3
   6   5   3 78.3162 4.50705   5
   6   5   3 71.8285 4.80747   3
  -6   5  -3 76.4369 4.72237   1
  -6   5  -3 80.7165 4.68574   5
  -6   5  -3 74.8417 4.58295   2
  -6   5  -3 89.9403 4.88756   3
  -7  -5  -3 91.9004 5.56275   2
   7  -5   3 90.0508 5.38932   3
   7  -5   3 87.3153 4.80651   4
   7  -5   3 90.8558 4.97468   2
   7  -5   3 99.6100 5.20540   1
   7  -5   3 90.3726 5.20816   5
  -7   5  -3 89.9481 5.31045   5
  -7   5  -3 87.8013 5.34450   3
  -7   5  -3 87.2876 5.17882   2
   7   5   3 83.0385 5.53881   3
   7   5   3 89.4277 5.20681   5
   8  -5   3 0.68926 1.04427   5
   8  -5   3 4.01212 1.56542   3
  -8  -5  -3 -0.5138 0.96948   2
   8  -5   3 2.04161 1.09013   1
   8  -5   3 1.95341 0.87537   4
   8  -5   3 0.73863 0.88454   2
  -8   5  -3 0.01114 0.84827   2
  -8   5  -3 1.99735 0.99675   4
   8   5   3 -0.1217 1.21190   3
   8   5   3 3.66627 1.32658   5
  -8   5  -3 2.91193 1.40409   5
  -8   5  -3 1.14390 1.15775   3
   9  -5   3 24.0554 3.40078   3
   9  -5   3 24.3304 3.24201   5
  -9  -5  -3 27.0800 3.49230   2
   9  -5   3 24.5639 3.00014   1
  -9   5  -3 15.0862 2.75875   3
  -9   5  -3 17.7327 2.93981   5
   9   5   3 24.0612 3.58757   3
   9   5   3 27.7905 3.54621   5
 -10  -5  -3 8.60428 2.43312   2
  10  -5   3 17.5601 3.06331   5
  10  -5   3 17.6851 3.08169   3
 -10   5  -3 11.6226 2.53152   5
 -10   5  -3 10.3138 2.52205   3
  10   5   3 19.4407 3.40757   3
  10   5   3 11.6559 2.39938   5
  11  -5   3 1.68673 1.79428   3
  11  -5   3 2.01181 1.61831   5
 -11  -5  -3 3.40161 1.75836   2
  11   5   3 -0.0106 1.18154   5
 -11   5  -3 5.35715 2.02698   5
  11   5   3 5.98489 2.26442   3
 -11   5  -3 4.36124 1.80988   3
  12   6  -3 1.28947 1.88781   3
  11  -6  -3 1.35313 1.69930   1
  11  -6  -3 -0.5513 1.67658   5
  11   6  -3 0.36816 1.28524   5
  11   6  -3 1.11833 1.51633   3
 -11   6   3 -0.3767 1.46482   3
  10  -6  -3 8.43601 2.55422   5
  10  -6  -3 10.0879 2.75337   1
 -10  -6   3 8.17748 1.99978   2
  10   6  -3 11.2428 2.54984   5
  10   6  -3 15.0532 4.01377   1
  10   6  -3 10.1408 2.42031   3
 -10   6   3 15.0097 3.05260   3
  -9  -6   3 46.3864 3.46422   2
   9  -6  -3 42.9233 4.87678   5
   9  -6  -3 46.8360 4.99666   1
   9  -6  -3 42.4753 3.61070   4
  -9   6   3 42.4454 4.77164   3
   9   6  -3 39.3172 4.48684   3
   9   6  -3 34.2660 3.99136   1
   9   6  -3 46.1665 5.01592   5
  -8  -6   3 18.3388 2.41711   2
   8  -6  -3 19.8458 3.06318   5
   8  -6  -3 17.0093 2.52424   4
   8  -6  -3 21.3902 3.15330   1
  -8   6   3 22.3732 3.16520   3
   8   6  -3 12.8103 2.48161   3
   8   6  -3 16.1543 2.58598   1
   8   6  -3 18.4736 3.04350   5
   7  -6  -3 34.7365 2.90009   4
   7  -6  -3 34.7596 3.86978   5
  -7  -6   3 39.4202 3.00473   2
   7  -6  -3 30.4360 3.65531   1
  -7   6   3 38.9259 3.33902   3
   7   6  -3 32.0800 3.47336   3
   7   6  -3 34.3554 3.01513   1
   7   6  -3 37.5157 3.27984   5
   6  -6  -3 20.5618 2.80306   5
   6  -6  -3 25.1070 3.14801   1
   6  -6  -3 20.8685 2.51199   4
  -6  -6   3 22.1382 2.47989   2
   6   6  -3 21.4138 2.75379   5
   6   6  -3 21.4485 2.63353   3
   6   6  -3 26.3158 2.98427   1
  -6   6   3 24.7574 2.95082   3
   5  -6  -3 -0.2255 0.41314   4
  -5  -6   3 0.34278 0.56623   2
   5  -6  -3 0.60339 0.96827   1
   5  -6  -3 0.18444 0.62806   5
   5   6  -3 -0.4994 0.67640   1
   5   6  -3 1.02551 0.74433   3
   5   6  -3 0.99680 0.50613   4
  -5   6   3 0.58947 0.67008   3
   5   6  -3 1.56077 0.87267   5
  -5   6   3 1.21567 0.80268   5
   4  -6  -3 -0.3444 0.63545   1
  -4  -6   3 -0.0463 0.61445   2
   4  -6  -3 0.01585 0.45398   4
   4  -6  -3 0.06751 0.47233   5
  -4   6   3 1.60280 0.81327   5
   4   6  -3 0.34988 0.54571   3
   4   6  -3 0.54236 0.92860   1
   4   6  -3 -0.0707 0.35205   4
  -4   6   3 0.68724 0.74774   3
   4   6  -3 -0.0507 0.80410   5
   3  -6  -3 11.4256 1.68194   4
   3  -6  -3 11.0965 1.56441   5
   3  -6  -3 10.2695 1.61710   1
  -3  -6   3 11.3070 1.47731   2
   3  -6  -3 10.5395 0.56850   2
   3   6  -3 14.6344 2.01235   1
   3   6  -3 12.5677 1.44302   3
  -3   6   3 9.67382 1.47999   3
   3   6  -3 10.6955 1.38487   4
  -3   6   3 9.41272 1.52305   5
   3   6  -3 12.1713 1.74539   5
  -2  -6   3 1184.84 41.5612   2
   2  -6  -3 1150.53 41.6249   1
  -2  -6   3 1127.60 41.1100   4
   2  -6  -3 1137.43 40.5593   2
   2  -6  -3 1174.69 41.7117   4
   2  -6  -3 1139.08 41.3960   5
   2   6  -3 1138.62 41.5270   4
   2   6  -3 1190.37 41.0102   3
   2   6  -3 1127.61 41.8963   1
  -2   6   3 1201.95 41.6270   3
   2   6  -3 1154.11 41.6890   5
  -2   6   3 1164.49 41.5549   5
   1  -6  -3 175.277 7.15578   1
  -1  -6   3 175.882 7.27027   2
  -1  -6   3 168.764 7.06086   4
   1  -6  -3 172.407 7.33360   4
   1  -6  -3 169.160 6.70846   2
   1   6  -3 166.479 6.56869   3
  -1   6   3 171.496 7.27242   3
   1   6  -3 177.506 7.49613   4
   1   6  -3 170.008 7.32565   5
   1   6  -3 170.919 7.56927   1
  -1   6   3 160.861 7.03618   5
   0  -6  -3 10.8926 1.22312   1
   0  -6   3 11.5986 1.46700   2
   0  -6  -3 12.8364 1.49938   4
   0  -6  -3 11.0985 1.28062   2
   0  -6   3 15.1886 1.61268   4
   0   6  -3 12.0572 1.49860   5
   0   6   3 12.7948 1.45349   5
   0   6   3 11.4371 1.55245   3
   0   6  -3 10.6275 0.91916   3
   0   6  -3 12.8148 1.67505   4
   0   6  -3 12.4554 1.75063   1
   1  -6   3 341.117 13.3754   4
  -1  -6  -3 339.106 12.6044   1
   1  -6   3 344.974 13.3016   2
  -1  -6  -3 366.349 13.3732   2
  -1  -6  -3 334.689 13.1312   4
   1   6   3 352.556 13.1811   5
  -1   6  -3 369.730 12.6407   3
  -1   6  -3 325.931 13.5935   1
   1   6   3 342.593 13.4608   3
  -1   6  -3 335.563 13.2614   5
  -1   6  -3 341.452 13.7630   4
  -2  -6  -3 409.994 15.2318   2
   2  -6   3 385.684 15.0257   1
  -2  -6  -3 401.182 14.6809   4
   2  -6   3 395.085 14.9754   2
   2  -6   3 382.498 15.0992   4
  -2   6  -3 382.473 14.4048   3
   2   6   3 381.879 15.1884   3
  -2   6  -3 400.471 15.0109   5
   2   6   3 392.086 14.8578   5
  -2   6  -3 386.066 15.3806   1
   3  -6   3 313.409 12.6254   2
  -3  -6  -3 333.074 12.1716   4
   3  -6   3 323.824 12.8545   4
  -3  -6  -3 344.761 13.1257   2
   3  -6   3 322.112 12.7800   1
   3   6   3 319.679 13.0194   3
  -3   6  -3 312.874 12.3417   3
  -3   6  -3 326.428 12.7897   5
   3   6   3 321.499 12.5573   5
  -3   6  -3 311.534 13.0916   1
   4  -6   3 21.1289 1.86724   5
   4  -6   3 21.8919 2.25114   2
  -4  -6  -3 23.0687 2.48548   2
   4  -6   3 22.2166 1.90958   3
  -4  -6  -3 22.3953 1.43701   4
   4  -6   3 21.4647 2.33525   4
   4  -6   3 22.2138 1.92949   1
  -4   6  -3 22.9670 2.61310   1
  -4   6  -3 22.2044 2.34128   5
   4   6   3 22.3008 2.27605   5
   4   6   3 18.3242 2.37554   3
  -4   6  -3 23.9190 1.93024   3
   5  -6   3 -0.5298 0.50252   3
   5  -6   3 0.43093 0.69819   5
  -5  -6  -3 0.95926 0.93779   2
   5  -6   3 0.74569 0.64839   2
   5  -6   3 0.15493 0.63375   4
   5  -6   3 0.79463 0.76859   1
  -5   6  -3 0.56790 0.92225   1
  -5   6  -3 -0.4776 0.56552   5
   5   6   3 -0.1208 0.56918   3
   5   6   3 0.60291 0.74685   5
  -5   6  -3 0.33493 0.70288   3
   6  -6   3 160.358 8.04874   5
   6  -6   3 179.032 8.32733   3
   6  -6   3 171.166 7.84370   2
   6  -6   3 174.898 8.10722   1
  -6  -6  -3 174.672 8.50533   2
   6  -6   3 182.345 8.08419   4
   6   6   3 162.578 8.55950   3
  -6   6  -3 171.741 8.22920   3
   6   6   3 180.763 8.16083   5
  -6   6  -3 185.279 8.45012   5
  -6   6  -3 180.952 8.52780   1
   7  -6   3 1.74374 0.99559   3
   7  -6   3 2.05560 0.92695   2
   7  -6   3 0.50659 1.06323   5
   7  -6   3 1.00462 0.81500   4
  -7  -6  -3 1.14001 0.95169   2
   7  -6   3 0.98373 0.95377   1
  -7   6  -3 1.43765 0.96873   3
  -7   6  -3 1.34980 0.96772   2
  -7   6  -3 2.72393 1.42902   1
   7   6   3 2.23431 1.33934   3
   7   6   3 1.87321 1.08491   5
  -7   6  -3 -0.8664 0.84363   5
   8  -6   3 64.1419 4.74908   3
   8  -6   3 62.0038 4.52126   5
   8  -6   3 70.6680 4.22337   4
   8  -6   3 67.4784 4.39925   1
  -8  -6  -3 64.3533 4.64386   2
  -8   6  -3 54.0513 4.45007   3
  -8   6  -3 63.0153 4.67067   5
  -8   6  -3 66.8427 4.69039   1
   8   6   3 61.7415 4.99682   3
  -8   6  -3 72.4241 5.23113   2
   8   6   3 62.2062 4.46180   5
  -8   6  -3 64.4641 4.47596   4
   9  -6   3 18.1766 3.03031   3
  -9  -6  -3 13.4541 2.62381   2
   9  -6   3 12.4158 2.51643   5
   9  -6   3 17.0313 2.64364   1
   9   6   3 13.2451 2.89813   3
  -9   6  -3 13.3933 2.57165   3
  -9   6  -3 14.8071 2.82499   5
  -9   6  -3 16.5599 2.82545   1
   9   6   3 16.8353 2.75043   5
 -10  -6  -3 14.9664 2.92902   2
  10  -6   3 15.6570 2.84994   5
  10  -6   3 14.6785 2.91699   1
  10  -6   3 16.5474 3.10166   3
  10   6   3 13.3067 2.99987   3
 -10   6  -3 10.0015 2.63112   3
 -10   6  -3 10.5790 2.40035   5
  10   6   3 12.4426 2.61392   5
 -10   6  -3 16.8052 3.00660   1
  11  -6   3 22.7815 3.81371   3
  11  -6   3 23.8770 3.91704   5
 -11  -6  -3 19.3160 3.26851   2
  11   6   3 23.3353 4.03297   3
 -11   6  -3 19.1029 3.62030   3
 -11   6  -3 30.8027 4.35091   5
  11  -7  -3 3.11642 1.95776   5
  11  -7  -3 0.76005 1.26528   1
  11   7  -3 -0.0240 0.94998   5
 -11   7   3 -0.1452 1.22565   3
  11   7  -3 0.44657 1.74273   3
 -10  -7   3 3.07485 1.69166   2
  10  -7  -3 3.78776 1.75048   1
  10  -7  -3 1.55227 1.23063   5
  10   7  -3 3.75529 1.88861   5
  10   7  -3 2.52526 1.36011   3
 -10   7   3 3.40762 1.63574   3
  -9  -7   3 37.5028 3.84337   2
   9  -7  -3 36.9993 3.92415   4
   9  -7  -3 32.8994 4.26333   5
   9  -7  -3 35.8257 4.52940   1
   9   7  -3 42.6193 4.68488   3
  -9   7   3 34.4987 4.40972   3
   9   7  -3 29.9603 3.66219   1
   9   7  -3 38.7482 4.76669   5
  -8  -7   3 0.68667 1.13131   2
   8  -7  -3 1.52326 1.44808   1
   8  -7  -3 1.29042 1.03441   4
   8  -7  -3 0.43287 1.14974   5
   8   7  -3 -0.4322 1.03218   3
   8   7  -3 1.22852 1.07907   5
   8   7  -3 1.24474 1.03682   1
  -8   7   3 1.22824 1.03672   3
   7  -7  -3 0.11014 0.61187   4
   7  -7  -3 1.26710 1.05772   1
  -7  -7   3 -0.9291 0.73159   2
   7  -7  -3 -0.6561 0.66180   5
  -7   7   3 0.07401 0.78672   3
   7   7  -3 0.16654 0.95805   5
   7   7  -3 -0.8107 0.55490   1
  -7   7   3 0.26179 0.82481   5
   7   7  -3 0.62420 1.01364   3
   6  -7  -3 21.3332 2.58366   4
   6  -7  -3 20.7228 2.80261   5
  -6  -7   3 17.9703 2.32784   2
   6  -7  -3 18.9387 2.69062   1
   6   7  -3 19.6827 2.53100   3
   6   7  -3 18.0330 2.69437   5
   6   7  -3 16.4751 2.47537   1
  -6   7   3 16.9334 2.57982   5
  -6   7   3 20.3175 2.67956   3
   5  -7  -3 1.48229 0.87209   1
   5  -7  -3 1.57964 1.11475   5
   5  -7  -3 0.93291 0.92632   4
  -5  -7   3 0.48545 0.86096   2
   5   7  -3 1.63074 0.67497   4
   5   7  -3 0.27180 0.98400   5
  -5   7   3 0.61422 0.67668   3
   5   7  -3 2.09884 1.01037   1
   5   7  -3 0.95624 0.80152   3
  -5   7   3 1.52534 1.15142   5
   4  -7  -3 37.0224 2.87115   5
  -4  -7   3 38.9808 2.70648   2
   4  -7  -3 40.3165 2.99169   1
   4  -7  -3 38.8631 2.86055   4
   4   7  -3 37.3858 2.38066   4
   4   7  -3 34.8873 2.83857   5
  -4   7   3 35.6565 2.89740   5
  -4   7   3 39.1609 2.95683   3
   4   7  -3 34.3414 2.85032   1
   4   7  -3 38.2663 2.63907   3
   3  -7  -3 48.6285 3.18882   1
   3  -7  -3 44.7645 3.02251   5
  -3  -7   3 46.1951 2.99347   2
   3  -7  -3 47.8797 3.22956   4
  -3  -7   3 44.0419 2.56236   4
   3  -7  -3 48.1080 2.03250   2
  -3   7   3 48.7866 3.21987   5
   3   7  -3 50.4297 3.51179   1
   3   7  -3 50.6793 2.84853   3
   3   7  -3 55.0565 3.39413   5
   3   7  -3 51.1391 2.96667   4
  -3   7   3 49.2965 3.13687   3
   2  -7  -3 154.122 7.12504   1
  -2  -7   3 165.166 7.15857   2
   2  -7  -3 159.755 6.21782   2
   2  -7  -3 157.755 7.22776   4
  -2  -7   3 162.711 6.76357   4
   2   7  -3 163.194 7.33145   5
   2   7  -3 161.479 7.13877   4
   2   7  -3 170.257 6.66581   3
  -2   7   3 160.072 7.13657   3
  -2   7   3 152.303 7.07340   5
   2   7  -3 166.705 7.53058   1
   1  -7  -3 0.75323 0.62525   4
   1  -7  -3 1.86220 0.74490   1
   1  -7  -3 1.85266 0.59014   2
  -1  -7   3 2.46127 0.68683   4
  -1  -7   3 1.43886 0.64868   2
   1   7  -3 2.68655 0.96816   5
   1   7  -3 1.60069 0.68479   4
  -1   7   3 1.84256 0.72251   3
  -1   7   3 0.68051 0.52027   5
   1   7  -3 1.95166 0.59593   3
   1   7  -3 1.12362 0.78133   1
   0  -7  -3 24.0774 1.94182   4
   0  -7   3 24.8665 1.97938   2
   0  -7   3 24.0423 1.94315   4
   0  -7  -3 24.9792 1.71696   1
   0  -7  -3 25.3434 1.77943   2
   0   7   3 25.3971 2.05186   3
   0   7  -3 23.8166 1.54276   3
   0   7  -3 25.1110 2.17872   1
   0   7   3 27.2532 1.99403   5
   0   7  -3 28.1399 2.11548   5
   0   7  -3 26.2218 2.25175   4
   1  -7   3 -0.1922 0.33935   2
  -1  -7  -3 -0.1462 0.30318   4
   1  -7   3 0.13014 0.36878   4
  -1  -7  -3 0.04140 0.33519   1
  -1  -7  -3 0.00980 0.49018   2
   1   7   3 -0.0306 0.29980   1
  -1   7  -3 0.25230 0.40628   3
  -1   7  -3 0.09378 0.57964   5
   1   7   3 0.20451 0.51748   5
  -1   7  -3 0.57943 0.62150   1
   1   7   3 -0.7502 0.47414   3
   2  -7   3 1.65876 0.65680   2
  -2  -7  -3 1.09430 0.70990   2
   2  -7   3 2.02426 0.72494   1
  -2  -7  -3 1.25157 0.59005   4
   2  -7   3 0.93850 0.70902   4
  -2   7  -3 0.32278 0.60420   5
  -2   7  -3 1.41539 0.57479   3
  -2   7  -3 1.21837 0.70605   1
   2   7   3 1.85191 0.49360   1
   2   7   3 3.00018 1.02960   5
   2   7   3 1.88978 1.00797   3
  -3  -7  -3 94.8348 4.21430   4
   3  -7   3 83.5297 4.47641   2
  -3  -7  -3 86.1367 4.75726   2
   3  -7   3 98.9589 4.81869   1
   3  -7   3 87.4773 4.73045   4
  -3   7  -3 90.9609 4.74509   5
  -3   7  -3 83.9032 4.91787   1
   3   7   3 92.2544 4.64771   5
  -3   7  -3 93.3141 4.33131   3
   3   7   3 94.4480 4.98380   3
   4  -7   3 81.7556 4.50518   1
   4  -7   3 77.6153 4.48555   4
  -4  -7  -3 89.2430 4.82956   2
  -4  -7  -3 84.6448 3.75467   4
   4  -7   3 76.2113 4.26388   2
  -4   7  -3 90.0740 4.39180   3
   4   7   3 79.5380 4.38334   5
  -4   7  -3 83.7854 4.62592   5
  -4   7  -3 76.8032 4.72991   1
   4   7   3 84.8486 4.85068   3
  -5  -7  -3 36.9782 3.13696   2
   5  -7   3 39.0408 2.95821   1
   5  -7   3 35.0628 2.60886   2
   5  -7   3 34.7727 2.76571   4
   5  -7   3 35.7676 2.83301   5
  -5   7  -3 34.1704 2.69127   3
  -5   7  -3 41.8627 3.31569   1
  -5   7  -3 38.6456 3.03755   5
   5   7   3 38.0404 3.14273   3
   5   7   3 34.0950 2.69919   5
  -6  -7  -3 4.66895 1.45170   2
   6  -7   3 3.71910 1.21946   3
   6  -7   3 3.79896 1.31742   5
   6  -7   3 2.26986 0.98729   1
   6  -7   3 3.31402 1.22319   4
   6  -7   3 4.34781 1.22325   2
   6   7   3 5.39508 1.36549   5
  -6   7  -3 6.07669 1.57022   1
  -6   7  -3 1.73329 0.92129   5
  -6   7  -3 4.71168 1.33498   3
   6   7   3 3.39069 1.43008   3
   7  -7   3 0.66118 0.74817   2
   7  -7   3 -0.2545 0.88709   1
   7  -7   3 -0.4800 0.85389   4
  -7  -7  -3 0.72456 0.96720   2
   7  -7   3 0.65972 1.04402   3
   7  -7   3 -0.6687 0.85795   5
  -7   7  -3 -1.3817 0.79552   3
   7   7   3 1.10470 1.20380   3
  -7   7  -3 -0.7790 0.71720   2
  -7   7  -3 -1.2018 0.89805   1
   7   7   3 0.41220 0.87479   5
  -7   7  -3 -1.9370 0.82260   5
   8  -7   3 8.82980 1.96355   3
   8  -7   3 7.08687 1.70378   4
   8  -7   3 5.59798 1.80498   5
  -8  -7  -3 9.39640 2.20388   2
   8  -7   3 9.26952 1.93429   1
  -8   7  -3 10.1638 2.22653   5
   8   7   3 7.60311 1.93113   5
  -8   7  -3 8.26190 1.94109   1
   8   7   3 7.77304 2.17412   3
  -8   7  -3 10.1123 2.21709   3
   9  -7   3 4.33047 1.69149   5
   9  -7   3 4.59868 1.69859   3
   9  -7   3 8.73699 1.87299   4
   9  -7   3 5.97078 1.64334   1
  -9  -7  -3 3.92283 1.71030   2
  -9   7  -3 2.97371 1.73072   3
  -9   7  -3 3.92685 1.71710   4
   9   7   3 6.77560 2.28203   3
  -9   7  -3 3.92376 1.47547   1
   9   7   3 7.21837 2.01960   5
  -9   7  -3 2.94613 1.45150   5
 -10  -7  -3 15.5362 2.90975   2
  10  -7   3 13.9944 2.86279   3
  10  -7   3 13.6788 2.57884   1
  10  -7   3 13.1606 2.69939   5
 -10   7  -3 17.0658 3.02492   1
  10   7   3 15.9694 2.93861   5
 -10   7  -3 17.3230 3.09266   5
 -10   7  -3 17.2090 3.31816   3
  10   7   3 11.7125 2.92726   3
  11  -7   3 0.24425 1.25872   5
  11  -7   3 1.85879 1.67841   3
 -11  -7  -3 0.08284 1.23669   2
  11   7   3 1.20174 1.87471   3
 -11   7  -3 -0.6262 1.70699   3
 -11   7  -3 1.18897 1.41097   5
 -11  -8   3 -1.1257 1.51761   2
  11  -8  -3 1.73834 1.96844   1
  11  -8  -3 -0.4968 1.20685   5
 -11   8   3 0.24467 1.23220   5
 -11   8   3 0.33850 1.94298   3
  11   8  -3 -1.0690 1.51401   3
  11   8  -3 2.43629 1.46669   5
  10  -8  -3 0.70813 1.25989   5
  10  -8  -3 3.16265 2.05704   1
 -10  -8   3 2.42300 1.61314   2
  10  -8  -3 -1.3678 0.76866   4
 -10   8   3 0.17822 1.24521   5
  10   8  -3 2.51477 1.67507   5
 -10   8   3 1.69698 1.82104   3
  10   8  -3 1.98123 1.45059   3
   9  -8  -3 2.03272 1.44556   1
  -9  -8   3 -0.1460 0.83722   2
   9  -8  -3 2.19119 1.53877   5
   9  -8  -3 1.11744 1.07057   4
   9   8  -3 4.25663 1.70079   5
   9   8  -3 0.19074 1.16281   3
   9   8  -3 3.07288 1.43632   1
  -9   8   3 1.30998 1.27881   3
  -9   8   3 3.19744 1.52088   5
   8  -8  -3 0.23770 0.86284   4
   8  -8  -3 -0.3488 1.20356   1
  -8  -8   3 -0.1639 0.84944   2
   8  -8  -3 0.42127 1.26506   5
   8   8  -3 0.09253 0.99958   3
   8   8  -3 0.18876 0.77453   5
  -8   8   3 0.87476 1.28370   5
   8   8  -3 0.40294 0.89295   1
  -8   8   3 -0.7553 0.78906   3
   7  -8  -3 13.8071 2.31234   4
   7  -8  -3 13.7070 2.49520   5
   7  -8  -3 19.5692 3.00142   1
  -7  -8   3 12.1698 2.22253   2
   7   8  -3 16.8174 2.58695   1
   7   8  -3 11.4714 2.24452   5
  -7   8   3 13.0554 2.34368   3
  -7   8   3 13.3622 2.57081   5
   7   8  -3 14.1307 2.37549   3
  -6  -8   3 18.6868 2.44912   2
   6  -8  -3 16.7080 2.73752   5
   6  -8  -3 23.4994 3.04725   1
   6  -8  -3 17.4770 2.59291   4
  -6   8   3 23.0987 2.93310   3
  -6   8   3 18.7431 2.91378   5
   6   8  -3 23.2178 2.73144   3
   6   8  -3 18.6992 2.60686   1
   6   8  -3 19.3389 2.77679   5
   5  -8  -3 32.2110 2.83071   5
  -5  -8   3 30.5302 2.61906   2
   5  -8  -3 28.1129 3.09588   4
   5  -8  -3 39.2372 3.16300   1
   5   8  -3 32.3567 3.46924   5
  -5   8   3 32.2807 3.48116   5
   5   8  -3 32.6439 3.49053   1
  -5   8   3 29.7160 3.20100   3
   5   8  -3 36.3941 2.84448   3
   4  -8  -3 12.5860 1.97423   5
   4  -8  -3 12.9149 2.06092   4
   4  -8  -3 10.0267 1.96622   1
  -4  -8   3 10.8604 1.79847   2
  -4   8   3 14.2212 2.05693   3
  -4   8   3 18.4562 2.39778   5
   4   8  -3 12.6626 2.20487   5
   4   8  -3 12.6686 1.79544   3
   4   8  -3 16.4783 1.81570   4
   4   8  -3 11.7880 2.18533   1
   3  -8  -3 106.804 5.33444   5
  -3  -8   3 96.8462 5.19357   2
  -3  -8   3 98.7419 4.70908   4
   3  -8  -3 116.387 5.64906   4
   3  -8  -3 113.523 5.60974   1
  -3   8   3 105.358 5.38023   3
   3   8  -3 106.210 5.67282   5
   3   8  -3 106.450 4.99164   3
  -3   8   3 102.442 5.40453   5
   3   8  -3 105.754 5.15111   4
   3   8  -3 92.8673 5.46539   1
   2  -8  -3 6.08436 1.28146   1
   2  -8  -3 4.91569 1.19377   4
  -2  -8   3 8.57921 1.45691   2
   2  -8  -3 6.56767 0.85314   2
  -2  -8   3 5.57886 1.05933   4
   2   8  -3 11.1983 1.82487   1
   2   8  -3 5.66113 1.27844   4
   2   8  -3 6.13003 1.02482   3
   2   8  -3 7.87654 1.70727   5
  -2   8   3 7.06728 1.33922   5
  -2   8   3 5.93885 1.33192   3
  -1  -8   3 25.0666 2.01650   4
   1  -8  -3 29.6985 2.15355   1
   1  -8  -3 26.1634 1.73646   2
   1  -8  -3 31.1343 2.38151   4
  -1  -8   3 24.2270 2.09241   2
  -1   8   3 27.0467 2.19771   3
   1   8  -3 26.5532 1.81743   3
   1   8  -3 22.3143 2.49676   4
  -1   8   3 28.2006 2.19893   5
   1   8  -3 25.0246 2.68583   5
   1   8  -3 24.9295 2.74716   1
   0  -8   3 14.7092 1.76508   2
   0  -8  -3 12.9583 1.48368   1
   0  -8  -3 12.9284 1.48823   2
   0  -8  -3 13.0861 1.65455   4
   0  -8   3 11.9024 1.63617   4
   0   8   3 12.0749 1.74808   3
   0   8   3 12.8208 1.68603   5
   0   8  -3 13.0732 1.90138   1
   0   8  -3 10.5303 1.23583   3
   0   8  -3 12.5264 1.78439   5
  -1  -8  -3 15.5068 1.26245   1
  -1  -8  -3 15.1800 1.76919   4
   1  -8   3 19.2492 2.02705   2
  -1  -8  -3 14.2915 1.76957   2
   1  -8   3 12.3561 1.71872   4
  -1   8  -3 18.1547 2.13588   5
  -1   8  -3 17.8977 1.36896   3
   1   8   3 15.3703 1.35956   1
  -1   8  -3 16.5561 2.19366   1
   1   8   3 16.3727 2.05043   3
   1   8   3 16.1079 1.91962   5
  -2  -8  -3 6.83285 1.17044   4
   2  -8   3 6.20053 1.27608   1
  -2  -8  -3 7.10422 1.35924   2
   2  -8   3 5.94615 1.20533   2
   2  -8   3 7.45747 1.40196   4
  -2   8  -3 5.02682 1.19258   5
  -2   8  -3 6.62424 1.50013   1
   2   8   3 7.38331 0.96618   1
   2   8   3 9.90789 1.57453   5
  -2   8  -3 6.37068 1.03950   3
   2   8   3 6.20308 1.39958   3
   3  -8   3 247.455 10.6725   4
   3  -8   3 252.669 10.3516   2
  -3  -8  -3 243.172 9.86424   4
  -3  -8  -3 250.325 10.6835   2
   3  -8   3 257.826 10.6618   1
  -3   8  -3 258.645 10.0431   3
  -3   8  -3 246.046 10.5914   5
   3   8   3 241.309 10.8094   3
   3   8   3 247.849 10.4747   5
  -3   8  -3 259.995 11.1311   1
   4  -8   3 0.51269 0.80946   1
   4  -8   3 0.97622 0.70636   2
  -4  -8  -3 2.39817 1.08240   2
   4  -8   3 0.46923 0.84362   4
  -4   8  -3 3.28959 1.16067   5
  -4   8  -3 2.12813 1.25364   1
  -4   8  -3 1.58642 0.78209   3
   4   8   3 1.41652 1.10760   3
   4   8   3 0.69094 0.95289   5
   5  -8   3 85.1124 4.83985   1
   5  -8   3 82.6067 4.49796   2
  -5  -8  -3 80.4719 5.03592   2
   5  -8   3 73.6038 4.71547   4
   5  -8   3 84.5233 4.84627   5
   5   8   3 72.8830 4.93899   3
  -5   8  -3 87.6526 5.23677   1
  -5   8  -3 84.5656 4.64817   3
  -5   8  -3 84.2492 4.97906   5
   5   8   3 83.8597 4.69168   5
   6  -8   3 140.955 7.34567   1
   6  -8   3 163.218 7.63796   5
   6  -8   3 149.149 7.03789   2
   6  -8   3 143.566 7.35865   4
  -6  -8  -3 127.929 7.41095   2
   6   8   3 142.898 7.89943   3
   6   8   3 160.269 7.53243   5
  -6   8  -3 151.107 7.40485   3
  -6   8  -3 154.340 7.94742   1
  -6   8  -3 154.101 7.71372   5
   7  -8   3 3.40428 1.45250   5
   7  -8   3 4.22317 1.48225   4
  -7  -8  -3 3.55433 1.49571   2
   7  -8   3 2.74715 1.33336   1
  -7   8  -3 4.24621 1.73625   1
  -7   8  -3 5.10951 1.73604   5
   7   8   3 1.78830 1.11624   5
  -7   8  -3 3.84131 1.46668   3
   7   8   3 0.51953 1.16882   3
   8  -8   3 -1.3072 0.78771   3
   8  -8   3 -0.8836 0.86316   4
   8  -8   3 -0.4093 1.12103   5
   8  -8   3 0.15892 0.78078   1
  -8  -8  -3 0.51368 0.88950   2
  -8   8  -3 1.35666 1.19349   5
  -8   8  -3 0.68179 1.17735   3
  -8   8  -3 1.03421 1.07151   1
   8   8   3 0.36598 1.00751   5
   8   8   3 0.10151 0.89542   3
   9  -8   3 9.55977 2.12762   4
   9  -8   3 11.5529 2.33943   1
   9  -8   3 5.93181 1.74538   5
   9  -8   3 9.68782 2.45340   3
  -9  -8  -3 14.9214 2.73371   2
  -9   8  -3 7.13496 2.17280   1
  -9   8  -3 9.99965 2.41190   5
   9   8   3 11.1190 2.39739   5
  -9   8  -3 9.02940 2.28311   3
   9   8   3 9.05278 2.63937   3
  10  -8   3 0.08677 1.43825   5
  10  -8   3 1.47226 1.62745   3
 -10  -8  -3 -0.3269 1.09401   2
  10  -8   3 0.48363 1.00342   1
  10   8   3 3.95266 1.58706   5
 -10   8  -3 1.62111 1.27588   1
 -10   8  -3 -0.8744 1.37611   3
 -10   8  -3 2.50397 1.73535   5
  10   8   3 0.33503 1.21889   3
  11  -8   3 24.9040 3.92472   5
 -11  -9   3 -1.4406 1.54468   2
  11  -9  -3 0.77724 2.14340   1
  11   9  -3 2.50205 2.19010   5
  11   9  -3 1.05810 1.37479   3
 -11   9   3 0.94309 1.69150   5
  10  -9  -3 5.32720 2.04821   1
 -10  -9   3 5.60699 2.07817   2
  10  -9  -3 1.19631 1.63646   5
  10  -9  -3 1.93350 1.62709   4
  10   9  -3 5.22257 2.34141   5
 -10   9   3 2.94169 2.27230   3
  10   9  -3 7.21936 1.99920   3
 -10   9   3 1.49062 1.67452   5
   9  -9  -3 6.10148 2.27833   1
  -9  -9   3 6.09432 2.00097   2
   9  -9  -3 0.76793 1.44784   5
   9  -9  -3 6.66417 1.98281   4
  -9   9   3 0.28531 1.28958   5
   9   9  -3 5.41112 1.90087   3
   9   9  -3 6.36091 1.90170   5
  -9   9   3 3.04269 1.51065   3
   8  -9  -3 -1.7418 0.63563   4
   8  -9  -3 -0.5606 0.92025   1
  -8  -9   3 -1.3591 1.03474   2
   8  -9  -3 -0.2202 1.38449   5
   8   9  -3 -0.6847 0.97412   5
  -8   9   3 -1.5468 1.07803   3
   8   9  -3 -0.1111 0.85217   3
  -8   9   3 0.75003 1.57088   5
   8   9  -3 0.75746 0.96022   1
   7  -9  -3 12.5330 2.31376   4
   7  -9  -3 11.0003 2.39000   1
  -7  -9   3 11.1475 2.01781   2
   7  -9  -3 10.1500 2.34386   5
   7   9  -3 12.4038 2.39195   5
  -7   9   3 12.1905 2.47307   3
   7   9  -3 16.7837 2.63451   3
  -7   9   3 12.4964 2.63928   5
   7   9  -3 14.6048 2.52217   1
   6  -9  -3 3.16475 1.39984   4
   6  -9  -3 4.33763 1.53086   1
   6  -9  -3 0.58339 1.14196   5
  -6  -9   3 3.10300 1.36448   2
   6   9  -3 2.16758 1.16848   3
   6   9  -3 4.55912 1.59569   1
  -6   9   3 5.47905 1.73781   5
  -6   9   3 3.80952 1.22444   3
   6   9  -3 3.19053 1.32510   5
   5  -9  -3 9.42346 1.95046   5
   5  -9  -3 6.59339 1.58284   4
   5  -9  -3 12.7973 2.24009   1
  -5  -9   3 11.7978 2.02862   2
  -5   9   3 7.62441 1.68026   3
   5   9  -3 7.71454 1.81662   5
   5   9  -3 10.0596 1.77361   3
   5   9  -3 10.9276 2.23967   1
  -5   9   3 10.0349 1.97686   5
   4  -9  -3 13.1929 2.14484   1
   4  -9  -3 13.0478 2.15576   5
  -4  -9   3 12.0269 1.90907   2
   4  -9  -3 12.9741 2.04896   4
   4   9  -3 10.3848 1.53563   4
   4   9  -3 14.0002 2.37287   1
   4   9  -3 12.2795 2.33000   5
  -4   9   3 9.14906 1.91961   5
   4   9  -3 14.9365 1.95293   3
  -4   9   3 11.7025 2.06648   3
  -3  -9   3 78.1893 3.92170   4
   3  -9  -3 79.0237 4.64300   4
   3  -9  -3 81.1091 4.62169   1
  -3  -9   3 78.5023 4.51492   2
   3   9  -3 72.2741 4.63544   5
   3   9  -3 77.5618 4.29905   4
  -3   9   3 80.4036 4.63219   3
   3   9  -3 78.3717 4.90024   1
   3   9  -3 74.4767 4.06922   3
  -3   9   3 76.1365 4.57140   5
   2  -9  -3 10.4437 1.75622   4
  -2  -9   3 11.7094 1.74777   2
   2  -9  -3 11.5157 1.24552   2
  -2  -9   3 12.8875 1.61488   4
   2  -9  -3 13.3434 1.86100   1
   2   9  -3 11.4956 2.02639   5
  -2   9   3 12.0027 1.81010   3
   2   9  -3 11.9557 2.05747   1
  -2   9   3 14.3596 1.92992   5
   2   9  -3 8.54435 1.57818   4
   2   9  -3 12.6165 1.53737   3
   1  -9  -3 94.0542 4.37161   2
  -1  -9   3 91.7791 4.75009   4
  -1  -9   3 106.191 5.11876   2
   1  -9  -3 99.8194 4.87122   1
   1  -9  -3 98.0431 5.12686   4
   1   9  -3 88.8387 5.07615   4
   1   9  -3 88.9622 5.29545   1
   1   9  -3 91.0424 5.25825   5
  -1   9   3 91.2537 4.98897   3
  -1   9   3 95.8942 4.95885   5
   1   9  -3 100.624 4.50236   3
   0  -9   3 8.62861 1.43881   4
   0  -9  -3 10.1957 1.41548   2
   0  -9  -3 8.19740 1.46742   4
   0  -9   3 8.93472 1.46332   2
   0  -9  -3 9.70893 1.38750   1
   0   9  -3 8.48987 1.81342   1
   0   9  -3 8.14820 1.70141   5
   0   9  -3 10.6081 1.36372   3
   0   9   3 12.1373 1.82115   3
   0   9   3 12.1738 1.75505   5
  -1  -9  -3 106.596 4.63547   1
   1  -9   3 99.0580 5.29160   4
  -1  -9  -3 106.964 5.17310   4
  -1  -9  -3 102.139 5.04417   2
   1  -9   3 103.284 5.16648   2
  -1   9  -3 96.3047 4.60022   3
  -1   9  -3 97.0984 5.28550   5
   1   9   3 104.393 5.33474   5
   1   9   3 107.495 5.57250   3
  -1   9  -3 105.965 5.74409   1
   1   9   3 103.230 4.79575   1
   2  -9   3 19.4237 2.34137   4
  -2  -9  -3 20.7666 2.28714   2
   2  -9   3 16.7388 2.20462   1
  -2  -9  -3 18.2221 1.99405   4
   2  -9   3 22.7036 2.33463   2
   2   9   3 17.2132 2.35202   3
   2   9   3 18.6194 2.41672   5
  -2   9  -3 21.9349 1.69657   3
   2   9   3 19.0808 1.52718   1
  -2   9  -3 16.4796 2.43966   1
  -2   9  -3 16.8415 2.23908   5
  -3  -9  -3 55.7484 3.22231   4
   3  -9   3 61.1319 3.88699   4
   3  -9   3 62.4283 3.94224   1
   3  -9   3 58.8272 3.56877   2
  -3  -9  -3 56.4293 3.76774   2
   3   9   3 57.9540 3.85901   5
  -3   9  -3 58.5920 3.78565   5
  -3   9  -3 61.6403 3.36146   3
  -3   9  -3 59.0853 4.21016   1
   3   9   3 64.6077 4.13443   3
  -4  -9  -3 7.30564 1.62404   2
   4  -9   3 3.17425 1.25681   1
   4  -9   3 7.28167 1.46764   2
   4  -9   3 7.41107 1.57578   4
   4   9   3 7.50948 1.73973   3
  -4   9  -3 7.42165 1.36840   3
  -4   9  -3 7.85175 1.63851   5
   4   9   3 4.95889 1.47716   5
  -4   9  -3 5.21839 1.75286   1
   5  -9   3 98.5275 5.38305   1
   5  -9   3 82.4521 4.75800   2
   5  -9   3 89.8420 5.26884   4
  -5  -9  -3 95.6028 5.55585   2
   5   9   3 91.0638 5.67593   3
   5   9   3 79.9330 5.00215   5
  -5   9  -3 91.2023 4.98350   3
  -5   9  -3 100.125 5.57968   5
  -5   9  -3 85.1123 5.52807   1
   6  -9   3 26.2622 3.20021   4
   6  -9   3 22.9560 2.52025   2
  -6  -9  -3 21.6507 2.95559   2
   6  -9   3 24.9743 2.99851   5
   6  -9   3 20.0655 2.82267   1
  -6   9  -3 19.9715 2.84109   5
   6   9   3 21.0654 3.08052   3
   6   9   3 24.8530 3.04162   5
  -6   9  -3 22.9016 2.80065   3
  -6   9  -3 24.7635 3.34084   1
   7  -9   3 11.7521 2.23408   1
   7  -9   3 10.7771 2.27889   5
   7  -9   3 9.73876 2.17573   4
  -7  -9  -3 7.56040 1.85943   2
   7   9   3 7.73032 2.11743   3
   7   9   3 9.74141 2.03618   5
  -7   9  -3 10.4153 2.30050   5
  -7   9  -3 8.69516 2.16500   1
  -7   9  -3 7.08488 1.70145   3
   8  -9   3 1.31621 1.32678   1
   8  -9   3 -0.0364 1.12354   4
   8  -9   3 1.60563 1.31533   5
  -8  -9  -3 1.15860 1.44277   2
   8   9   3 1.94624 1.04266   5
   8   9   3 1.30005 1.48537   3
  -8   9  -3 -0.0243 1.11439   3
  -8   9  -3 1.57953 1.54976   1
  -8   9  -3 -1.2127 1.15940   5
   9  -9   3 15.0141 2.97098   5
  -9  -9  -3 19.0542 3.35238   2
   9  -9   3 14.4943 2.69749   4
   9  -9   3 16.8293 2.94397   1
  -9   9  -3 13.4493 2.57325   3
  -9   9  -3 13.8997 2.91268   5
  -9   9  -3 21.6083 3.70164   1
   9   9   3 15.6041 2.88623   5
   9   9   3 14.0979 2.97601   3
  10  -9   3 0.66425 1.47604   1
  10  -9   3 2.26054 1.75061   5
 -10  -9  -3 -2.9287 1.55166   2
  10   9   3 1.56636 1.71913   3
 -10   9  -3 0.47708 1.58458   3
 -10   9  -3 3.15415 2.06717   1
 -10   9  -3 -0.4992 1.47850   5
  10 -10  -3 0.78821 1.56425   4
 -10 -10   3 0.94644 1.66774   2
  10 -10  -3 1.12250 2.01825   5
  10 -10  -3 4.55334 2.34972   1
 -10  10   3 2.15540 1.85719   5
  10  10  -3 2.37241 2.02473   5
 -10  10   3 2.37564 1.69642   3
  10  10  -3 4.38671 1.80063   3
   9 -10  -3 1.44957 1.55427   4
  -9 -10   3 2.92996 1.66187   2
   9 -10  -3 1.55848 1.53375   5
   9 -10  -3 1.32734 1.40239   1
   9  10  -3 3.03713 1.70400   3
  -9  10   3 0.17293 1.00458   5
   9  10  -3 4.57784 1.70835   5
  -9  10   3 2.04229 1.84322   3
  -8 -10   3 9.98361 2.21374   2
   8 -10  -3 10.5410 2.55414   5
   8 -10  -3 5.41602 2.13931   1
   8 -10  -3 8.49059 2.36779   4
  -8  10   3 6.51903 2.16538   3
   8  10  -3 12.1860 2.50824   3
   8  10  -3 12.1842 2.70556   5
  -8  10   3 8.63143 2.49467   5
  -7 -10   3 0.49311 1.24766   2
   7 -10  -3 1.04079 1.12381   4
   7 -10  -3 0.35235 1.37609   5
   7 -10  -3 1.67543 1.47941   1
   7  10  -3 -0.6893 0.82225   3
  -7  10   3 1.82967 1.53909   5
  -7  10   3 0.59562 1.43208   3
   7  10  -3 2.84173 1.24415   1
   7  10  -3 -0.0490 0.84652   5
   6 -10  -3 28.2696 3.66099   1
   6 -10  -3 30.7658 3.72051   5
   6 -10  -3 31.4656 3.65752   4
  -6 -10   3 26.4552 3.22142   2
   6  10  -3 28.2150 3.54165   1
  -6  10   3 35.4722 4.09044   5
  -6  10   3 22.4908 3.08240   3
   6  10  -3 27.4133 3.22912   3
   6  10  -3 26.0610 3.49908   5
  -5 -10   3 18.3651 2.57125   2
   5 -10  -3 18.7536 2.82486   5
   5 -10  -3 15.4868 2.57918   1
   5 -10  -3 12.7888 2.31338   4
   5  10  -3 17.8235 2.76111   5
   5  10  -3 19.7689 2.87116   1
  -5  10   3 19.7262 2.68549   3
  -5  10   3 18.2251 2.82443   5
   5  10  -3 15.2373 2.30156   3
   4 -10  -3 1.86943 1.01107   1
  -4 -10   3 3.31133 1.40606   2
   4 -10  -3 1.36067 1.18964   4
  -4 -10   3 4.58861 0.99534   4
  -4  10   3 3.33195 1.23663   3
   4  10  -3 3.34302 1.09091   4
  -4  10   3 5.22041 1.57023   5
   4  10  -3 4.10386 1.10709   3
   4  10  -3 4.25376 1.54516   5
   4  10  -3 3.26055 1.61277   1
   3 -10  -3 57.0858 4.05233   4
   3 -10  -3 54.1452 3.85867   1
  -3 -10   3 55.7777 3.75815   2
  -3 -10   3 60.7760 3.35641   4
   3  10  -3 56.4266 3.64644   4
  -3  10   3 59.4779 3.87654   3
   3  10  -3 56.3691 3.43481   3
   3  10  -3 53.4681 4.03049   5
   3  10  -3 56.5259 4.19635   1
  -3  10   3 54.1584 3.85989   5
   2 -10  -3 90.1060 4.31823   2
  -2 -10   3 98.5116 5.21350   2
  -2 -10   3 101.429 4.93246   4
   2 -10  -3 89.9822 5.10967   1
   2 -10  -3 95.0555 5.33170   4
   2  10  -3 94.5191 5.53465   1
  -2  10   3 95.1369 5.26556   5
   2  10  -3 97.6344 5.72063   5
  -2  10   3 95.4637 5.24874   3
   2  10  -3 104.205 4.82167   3
   2  10  -3 88.5358 5.14865   4
   1 -10  -3 1.59860 0.66348   2
   1 -10  -3 1.93166 0.93137   1
  -1 -10   3 1.57118 0.87991   4
   1 -10  -3 1.02535 0.90443   4
  -1 -10   3 4.73433 1.25351   2
  -1  10   3 2.66077 1.08184   3
   1  10  -3 3.12273 1.07453   3
   1  10  -3 1.75987 1.09504   4
   1  10  -3 3.95738 1.42328   1
   1  10  -3 2.85441 1.61542   5
  -1  10   3 2.94668 1.22066   5
   0 -10  -3 38.7628 2.89833   4
   0 -10   3 34.1732 2.63373   2
   0 -10  -3 35.9976 2.42991   1
   0 -10   3 34.4569 2.76142   4
   0 -10  -3 34.3566 2.43753   2
   0  10  -3 40.1614 2.55857   3
   0  10  -3 32.4208 3.47489   1
   0  10  -3 37.3365 3.04834   5
   0  10   3 37.0887 2.81638   5
   0  10   3 35.4600 2.89350   3
   0  10   3 35.6365 2.59392   1
  -1 -10  -3 3.89741 1.14229   2
  -1 -10  -3 4.56869 1.20417   4
  -1 -10  -3 4.12818 0.89730   1
   1 -10   3 3.72859 1.17518   2
   1 -10   3 2.87583 1.13992   4
   1  10   3 0.71903 1.11187   5
  -1  10  -3 2.00962 1.11908   1
  -1  10  -3 3.92366 1.23566   5
   1  10   3 3.46189 1.24940   3
  -1  10  -3 6.39878 1.16813   3
   1  10   3 1.93004 0.76936   1
   2 -10   3 43.4857 3.19624   1
   2 -10   3 40.1103 3.27210   4
  -2 -10  -3 42.8198 2.91946   4
  -2 -10  -3 48.6186 3.25567   2
   2 -10   3 48.4638 3.15959   2
   2  10   3 40.3750 3.34874   5
  -2  10  -3 44.0437 2.79361   3
   2  10   3 45.2904 3.45092   3
  -2  10  -3 40.7783 3.30352   5
  -2  10  -3 50.1877 3.68074   1
  -3 -10  -3 21.7087 2.16866   4
  -3 -10  -3 22.8966 2.67584   2
   3 -10   3 19.8635 2.53436   4
   3 -10   3 17.4020 2.41802   1
   3 -10   3 19.5859 2.32037   2
  -3  10  -3 19.9062 2.12931   3
   3  10   3 18.3802 2.51439   5
   3  10   3 17.5068 2.57625   3
  -3  10  -3 20.4851 2.69845   5
  -3  10  -3 21.4595 2.98215   1
   4 -10   3 4.40392 1.33594   1
   4 -10   3 6.08193 1.42187   2
   4 -10   3 6.01804 1.50554   4
  -4 -10  -3 8.47388 1.88362   2
  -4  10  -3 6.20602 1.34294   3
  -4  10  -3 5.26753 1.65660   1
   4  10   3 7.09157 1.76615   3
  -4  10  -3 6.68737 1.69833   5
   4  10   3 7.77525 1.83532   5
   5 -10   3 0.83678 0.81421   2
  -5 -10  -3 1.32769 0.93347   2
   5 -10   3 2.98912 1.18037   4
   5 -10   3 0.99275 0.86331   1
  -5  10  -3 1.40257 0.99679   3
  -5  10  -3 1.06852 1.16494   1
   5  10   3 0.73688 1.06020   5
   5  10   3 2.23193 1.25728   3
  -5  10  -3 1.07731 1.31609   5
   6 -10   3 208.519 9.74790   1
  -6 -10  -3 199.760 9.80589   2
   6 -10   3 211.558 9.87083   4
   6  10   3 186.982 9.98369   3
   6  10   3 191.475 9.46776   5
  -6  10  -3 214.989 9.47826   3
  -6  10  -3 192.016 9.79512   5
  -6  10  -3 194.669 10.1002   1
   7 -10   3 21.1826 3.07033   4
   7 -10   3 23.2349 3.22590   1
  -7 -10  -3 22.0414 3.31992   2
   7  10   3 24.7103 3.22763   5
  -7  10  -3 22.6919 3.48696   1
  -7  10  -3 20.4388 2.84144   3
   7  10   3 19.1704 3.18910   3
  -7  10  -3 27.7248 3.71718   5
  -8 -10  -3 32.5663 3.97929   2
   8 -10   3 33.7065 4.06466   1
   8 -10   3 30.1599 3.60139   4
   8 -10   3 30.9048 3.94020   5
  -8  10  -3 25.8960 3.80648   5
   8  10   3 29.8637 3.76498   5
  -8  10  -3 24.2876 3.40568   3
   8  10   3 30.3547 4.26011   3
  -8  10  -3 30.7672 4.28506   1
   9 -10   3 6.25642 2.23014   5
  -9 -10  -3 3.81996 2.08730   2
   9 -10   3 3.96695 1.77292   4
   9 -10   3 5.12079 1.90066   1
   9  10   3 7.18707 2.03549   5
  -9  10  -3 5.04951 2.31437   1
  -9  10  -3 6.56171 2.23767   5
  -9  10  -3 4.13018 1.60730   3
   9  10   3 3.33124 1.98315   3
  10 -10   3 14.7376 2.97314   5
 -10 -10  -3 9.92196 2.82092   2
  10 -10   3 15.2497 3.02065   1
 -10  10  -3 14.5857 3.29259   3
 -10  10  -3 15.7956 3.68330   1
 -10  10  -3 16.6487 3.42715   5
  10  10   3 13.6601 3.55705   3
  10 -11  -3 0.01057 2.05122   5
 -10 -11   3 1.39362 1.52682   2
  10 -11  -3 2.95676 1.81870   1
  10 -11  -3 1.31849 1.77687   4
  10  11  -3 2.00976 1.83886   3
 -10  11   3 1.70725 1.78044   5
 -10  11   3 -1.6041 1.75483   3
  10  11  -3 3.05424 1.54638   5
  -9 -11   3 10.1225 2.35131   2
   9 -11  -3 12.2786 2.89117   5
   9 -11  -3 16.9245 3.41460   1
   9 -11  -3 14.1997 2.81498   4
  -9  11   3 15.9629 3.25643   5
   9  11  -3 17.8087 3.39667   5
  -9  11   3 17.7909 3.20973   3
   9  11  -3 11.8902 2.73669   3
   8 -11  -3 5.42350 2.35638   5
   8 -11  -3 2.31419 1.85902   1
   8 -11  -3 0.34958 1.52862   4
  -8 -11   3 2.14740 1.40714   2
   8  11  -3 3.91278 1.44257   5
  -8  11   3 2.25032 1.53933   3
   8  11  -3 3.08577 1.77216   3
  -8  11   3 2.50199 1.83465   5
   7 -11  -3 6.96658 2.24401   5
  -7 -11   3 2.73965 1.35697   2
   7 -11  -3 1.63799 1.34761   4
   7 -11  -3 5.27900 2.09241   1
   7  11  -3 7.13718 2.04331   5
  -7  11   3 0.83807 1.07606   3
  -7  11   3 4.39151 1.81426   5
   7  11  -3 4.54987 1.74436   1
   7  11  -3 3.05046 1.36826   3
  -6 -11   3 -0.1887 0.75263   2
   6 -11  -3 2.45626 1.51210   5
   6 -11  -3 1.80804 1.26227   4
   6 -11  -3 -0.4505 1.22139   1
  -6  11   3 1.45305 1.50256   5
  -6  11   3 1.07595 1.28693   3
   6  11  -3 0.26829 1.38120   1
   6  11  -3 1.40130 1.14274   3
   6  11  -3 -0.3010 1.31829   5
   5 -11  -3 -0.7270 0.75363   4
  -5 -11   3 0.25029 1.01887   2
   5 -11  -3 -1.6716 0.46167   1
  -5  11   3 -0.1674 1.10169   5
   5  11  -3 0.87773 0.86982   3
   5  11  -3 -0.0550 1.01343   1
   5  11  -3 -1.2628 1.20201   5
  -5  11   3 -0.9320 0.95402   3
   4 -11  -3 69.7637 4.51663   1
   4 -11  -3 60.8584 4.35341   4
  -4 -11   3 58.3425 4.07718   2
   4  11  -3 52.7574 4.25387   5
  -4  11   3 62.5202 4.26609   3
  -4  11   3 58.1129 4.35223   5
   4  11  -3 62.1672 4.47219   1
   4  11  -3 59.9754 3.88400   3
   3 -11  -3 19.3110 2.63202   4
  -3 -11   3 17.6836 2.56003   2
  -3 -11   3 15.6319 1.92430   4
   3 -11  -3 17.1486 2.62643   1
  -3  11   3 19.7284 2.64821   5
  -3  11   3 16.7507 2.50011   3
   3  11  -3 20.1076 2.26984   3
   3  11  -3 21.9251 3.02640   1
   3  11  -3 12.0955 2.43487   5
   3  11  -3 14.5711 2.19483   4
  -2 -11   3 56.6242 3.53833   4
  -2 -11   3 52.4023 3.74631   2
   2 -11  -3 58.5555 4.11635   4
   2 -11  -3 58.3943 3.86133   1
  -2  11   3 50.1590 3.81442   5
  -2  11   3 60.1121 4.08801   3
   2  11  -3 54.8493 4.38073   5
   2  11  -3 56.6372 3.93406   4
   2  11  -3 54.9461 4.23569   1
   2  11  -3 56.4101 3.45804   3
  -1 -11   3 11.7959 1.87620   2
   1 -11  -3 12.3439 1.88006   1
  -1 -11   3 12.9072 1.86853   4
   1 -11  -3 10.3179 1.96815   4
   1 -11  -3 11.7549 1.53502   2
  -1  11   3 12.8707 2.06723   3
  -1  11   3 14.2754 2.16739   5
   1  11  -3 14.4631 2.41068   5
   1  11  -3 13.9306 2.36797   1
  -1  11   3 10.5356 1.81789   1
   1  11  -3 8.90837 1.58342   3
   1  11  -3 13.5750 2.18396   4
   0 -11  -3 2.44554 1.01187   1
   0 -11   3 4.34229 1.19050   2
   0 -11  -3 4.64828 1.10259   2
   0 -11  -3 5.22687 1.43993   4
   0 -11   3 6.92263 1.51383   4
   0  11  -3 4.37039 1.09851   3
   0  11   3 6.76381 1.75990   3
   0  11   3 4.41224 1.25104   1
   0  11  -3 3.45775 1.34411   1
   0  11   3 2.75683 1.16151   5
   0  11  -3 1.48536 1.56300   5
  -1 -11  -3 0.42432 0.78595   2
  -1 -11  -3 0.43133 0.72282   1
   1 -11   3 0.11796 0.55759   2
  -1 -11  -3 0.93428 0.93251   4
   1 -11   3 0.25405 0.93729   4
  -1  11  -3 -1.1398 0.74658   3
   1  11   3 -0.4430 0.89579   3
  -1  11  -3 -0.3847 0.88243   5
   1  11   3 0.32221 0.94168   5
   1  11   3 1.05930 0.81254   1
  -1  11  -3 -0.0763 0.76086   1
  -2 -11  -3 3.68907 1.14660   2
   2 -11   3 3.24830 1.05685   2
   2 -11   3 5.56438 1.57175   4
  -2 -11  -3 5.69925 1.34261   4
   2  11   3 3.34729 1.37333   3
  -2  11  -3 0.40018 0.91600   1
  -2  11  -3 2.38339 1.43890   5
  -2  11  -3 4.01284 1.18939   3
   2  11   3 4.43232 1.71176   5
   3 -11   3 20.9325 2.79890   4
   3 -11   3 23.9385 2.70900   2
  -3 -11  -3 29.1987 3.08339   2
   3 -11   3 23.5547 3.00935   1
  -3 -11  -3 29.3398 2.31689   4
   3  11   3 23.8007 3.09748   3
   3  11   3 22.1583 3.08274   5
  -3  11  -3 28.4070 3.28139   5
  -3  11  -3 26.5317 3.40775   1
  -3  11  -3 26.2824 2.25687   3
  -4 -11  -3 123.548 6.73001   2
   4 -11   3 123.471 6.73735   1
   4 -11   3 119.660 6.76127   4
   4 -11   3 131.215 6.39248   2
   4  11   3 121.804 6.99297   3
  -4  11  -3 138.809 6.34390   3
  -4  11  -3 118.274 7.11055   1
  -4  11  -3 130.649 6.99431   5
   4  11   3 124.322 6.71131   5
   5 -11   3 8.17029 1.66220   2
  -5 -11  -3 6.63296 1.66649   2
   5 -11   3 10.4724 2.21415   1
   5 -11   3 14.1172 2.39809   4
  -5  11  -3 8.73129 1.75918   3
   5  11   3 6.71749 2.09001   3
   5  11   3 9.77753 2.18114   5
  -5  11  -3 15.2481 3.00262   1
  -5  11  -3 9.55143 2.09705   5
   6 -11   3 10.5095 2.36044   4
   6 -11   3 9.13365 2.20014   1
  -6 -11  -3 5.17634 1.68601   2
   6  11   3 9.19159 2.11763   5
  -6  11  -3 7.24581 2.23259   1
  -6  11  -3 10.5574 2.03423   3
   6  11   3 8.02748 2.21136   3
  -6  11  -3 5.31850 1.74066   5
   7 -11   3 3.57593 1.48229   1
   7 -11   3 4.08101 1.55369   4
  -7 -11  -3 2.61278 1.42541   2
  -7  11  -3 1.76111 1.30752   5
  -7  11  -3 2.24983 1.34303   3
   7  11   3 3.95687 1.75481   3
  -7  11  -3 2.38341 1.44832   1
   7  11   3 6.56677 1.82207   5
  -8 -11  -3 12.2634 2.73809   2
   8 -11   3 17.4611 3.08051   1
   8 -11   3 17.1203 2.83227   4
   8  11   3 13.5892 2.89737   3
  -8  11  -3 10.4186 2.80017   1
  -8  11  -3 10.3330 2.50974   5
   8  11   3 11.3590 2.29792   5
  -8  11  -3 11.3718 2.52727   3
   9 -11   3 2.02925 1.57354   1
   9 -11   3 0.28279 1.05460   4
  -9 -11  -3 0.05095 1.22972   2
  -9  11  -3 0.73985 1.88559   1
   9  11   3 4.02687 2.11161   3
   9  11   3 3.32025 1.46776   5
  -9  11  -3 2.83828 1.98708   5
   9 -12  -3 9.49029 2.50422   4
   9 -12  -3 7.06545 2.44884   1
   9 -12  -3 5.55606 2.56557   5
  -9 -12   3 5.49299 2.26415   2
   9  12  -3 7.46876 2.24441   5
   9  12  -3 4.04154 1.72621   3
  -9  12   3 4.91066 2.39855   5
  -9  12   3 4.53468 1.78677   3
  -8 -12   3 0.16626 1.50654   2
   8 -12  -3 -0.5869 1.62427   4
   8 -12  -3 -0.7679 1.56453   5
   8 -12  -3 -0.6817 0.91793   1
  -8  12   3 3.04941 1.95847   3
   8  12  -3 1.40026 1.54274   3
  -8  12   3 -1.8358 1.33452   5
   8  12  -3 3.66692 1.77896   5
   7 -12  -3 -1.4827 1.25400   5
  -7 -12   3 0.67185 1.08598   2
   7 -12  -3 1.24428 1.25857   1
   7 -12  -3 0.18024 1.23974   4
   7  12  -3 -0.0218 1.16907   3
  -7  12   3 0.83944 1.52919   5
   7  12  -3 -0.0280 1.40080   5
  -7  12   3 -0.7517 0.88445   3
  -6 -12   3 0.33655 1.20769   2
   6 -12  -3 0.74335 1.36113   1
   6 -12  -3 -0.6018 0.95101   4
  -6  12   3 1.74489 1.51816   5
   6  12  -3 0.42356 1.13567   5
  -6  12   3 -0.7203 1.13452   3
   6  12  -3 2.23175 1.14749   3
   6  12  -3 -1.2134 1.22731   1
   5 -12  -3 34.7112 4.04980   1
  -5 -12   3 33.0265 3.79996   2
   5 -12  -3 32.6190 3.96093   4
   5  12  -3 33.3578 4.08591   5
   5  12  -3 40.6990 4.39748   1
   5  12  -3 36.1920 3.16785   3
  -5  12   3 32.1973 3.93509   5
  -5  12   3 37.8764 3.99246   3
   4 -12  -3 2.10867 1.19869   4
  -4 -12   3 -2.1749 0.78381   2
   4 -12  -3 1.01443 0.95835   1
  -4  12   3 1.99687 1.38831   3
   4  12  -3 0.82529 0.85450   3
  -4  12   3 -0.4934 1.02194   5
   4  12  -3 0.13182 1.18401   5
   4  12  -3 0.43416 1.67125   1
  -3 -12   3 51.5817 3.81982   2
  -3 -12   3 51.9384 3.36611   4
   3 -12  -3 53.9874 4.21640   4
   3 -12  -3 51.2375 3.95975   1
   3  12  -3 47.1629 3.68523   4
   3  12  -3 52.4007 4.49829   5
   3  12  -3 62.6772 3.81538   3
  -3  12   3 57.0821 4.03706   3
   3  12  -3 47.7856 4.03290   1
  -3  12   3 47.6300 3.81089   5
  -2 -12   3 26.8513 2.69286   4
   2 -12  -3 33.0692 3.32844   1
   2 -12  -3 21.3957 2.85384   4
  -2 -12   3 20.8422 2.74345   2
  -2  12   3 29.0277 3.35324   5
   2  12  -3 24.6888 3.51402   5
   2  12  -3 25.3518 3.38730   1
  -2  12   3 21.0840 2.79389   3
   2  12  -3 27.0532 2.36900   3
   2  12  -3 20.7119 2.74330   4
   1 -12  -3 -0.6467 0.53699   2
   1 -12  -3 -1.0343 0.47552   4
  -1 -12   3 -0.0667 0.53738   4
   1 -12  -3 0.09293 0.78512   1
  -1 -12   3 -0.4912 0.84450   2
  -1  12   3 0.47089 0.90168   1
   1  12  -3 -0.8214 0.68615   3
   1  12  -3 -0.2963 0.65901   4
  -1  12   3 1.65539 1.10816   3
   1  12  -3 -0.6302 1.07304   5
  -1  12   3 0.11328 0.84581   5
   1  12  -3 0.23034 1.27497   1
   0 -12  -3 4.65347 1.26725   1
   0 -12  -3 5.05620 1.30783   2
   0 -12   3 6.73521 1.61637   4
   0 -12   3 9.75895 1.73120   2
   0 -12  -3 6.99687 1.57660   4
   0  12  -3 10.4026 1.64349   3
   0  12   3 7.98621 1.98181   5
   0  12   3 7.54629 1.60572   1
   0  12  -3 5.64078 1.79678   1
   0  12  -3 4.91648 1.65287   5
   0  12   3 7.28104 1.96284   3
  -1 -12  -3 93.9749 4.89874   1
  -1 -12  -3 99.7885 5.30666   2
   1 -12   3 94.1362 5.35957   2
   1 -12   3 103.726 5.79462   4
  -1 -12  -3 109.006 5.64351   4
   1  12   3 98.9577 5.81397   5
   1  12   3 100.258 5.81148   3
  -1  12  -3 89.5994 5.93251   1
  -1  12  -3 102.506 6.05738   5
  -1  12  -3 99.1299 5.02140   3
  -2 -12  -3 -0.0822 0.92547   2
   2 -12   3 0.73862 0.91256   2
   2 -12   3 1.56864 1.32010   4
  -2 -12  -3 3.27856 1.21156   4
   2  12   3 1.73728 1.54902   3
  -2  12  -3 1.21563 1.45529   1
  -2  12  -3 0.61838 0.93723   3
   2  12   3 1.38479 1.63570   5
  -2  12  -3 1.39908 1.50874   5
   3 -12   3 46.0867 3.35187   2
   3 -12   3 38.1076 3.48649   1
   3 -12   3 35.0957 3.89217   4
  -3 -12  -3 42.4753 3.49746   2
   3  12   3 38.9366 4.21033   5
  -3  12  -3 44.7642 4.64508   1
  -3  12  -3 45.3255 3.69112   5
   3  12   3 42.8256 4.35249   3
  -3  12  -3 46.7317 3.15053   3
   4 -12   3 22.5882 2.72183   2
   4 -12   3 28.3416 3.46001   1
  -4 -12  -3 24.5387 3.10731   2
   4 -12   3 20.8690 2.99373   4
  -4  12  -3 26.7397 3.30640   3
  -4  12  -3 26.9830 3.53817   5
   4  12   3 21.5468 3.17784   5
  -4  12  -3 27.6944 3.68706   1
   4  12   3 24.2708 3.31471   3
  -5 -12  -3 8.37189 2.09592   2
   5 -12   3 10.2692 2.38137   1
   5 -12   3 6.95457 1.90134   4
   5  12   3 7.54702 1.98443   5
   5  12   3 8.39082 2.07969   3
  -5  12  -3 6.96703 2.37659   1
  -5  12  -3 6.21699 1.94931   5
  -6 -12  -3 10.5558 2.38953   2
   6 -12   3 16.5815 2.99077   4
   6 -12   3 10.5611 2.48237   1
  -6  12  -3 15.5353 2.81276   5
   6  12   3 14.3287 2.75095   3
  -6  12  -3 17.1722 3.36916   1
   6  12   3 16.9722 2.78214   5
  -7 -12  -3 9.37380 2.45076   2
   7 -12   3 14.9119 2.77528   1
   7 -12   3 9.77290 2.30313   4
  -7  12  -3 11.4368 2.73251   1
  -7  12  -3 13.0697 2.95656   5
   7  12   3 14.0735 2.60491   5
   7  12   3 8.10668 2.17744   3
  -8 -12  -3 0.97705 1.62422   2
   8 -12   3 2.63797 1.76108   1
   8 -12   3 0.07125 1.02440   4
  -8  12  -3 2.88060 1.73961   5
   8  12   3 1.16089 0.88932   5
   8  12   3 2.37547 1.91716   3
  -8  12  -3 2.60621 2.15103   1
   9 -12   3 0.18853 1.46731   1
   9 -12   3 0.11494 1.21739   4
  -9 -12  -3 -1.6155 1.56372   2
   9  12   3 1.33800 2.17872   3
  -9  12  -3 -0.9206 1.94226   1
  -9  12  -3 0.17590 1.05043   5
  -9 -13   3 2.98993 1.87805   2
   9 -13  -3 -0.6126 1.75205   4
   9  13  -3 1.72287 1.28929   5
  -9  13   3 -0.3117 2.00844   3
   8 -13  -3 -1.2002 1.14562   5
   8 -13  -3 -3.0715 1.42326   1
  -8 -13   3 1.20026 1.71294   2
   8 -13  -3 -1.7759 1.53274   4
  -8  13   3 -0.0278 1.57979   3
  -8  13   3 0.33465 1.20754   5
   8  13  -3 -2.1454 1.20584   5
   7 -13  -3 3.42283 2.11871   1
  -7 -13   3 3.76467 1.80919   2
   7 -13  -3 1.11227 1.24422   4
  -7  13   3 1.54047 1.33875   5
  -7  13   3 3.85589 1.94729   3
   7  13  -3 3.58634 1.74748   5
  -6 -13   3 5.57690 2.01553   2
   6 -13  -3 3.25124 1.68908   4
   6 -13  -3 8.77263 2.32586   1
   6  13  -3 3.14620 1.88334   5
   6  13  -3 3.54483 1.97333   1
  -6  13   3 4.22584 1.95301   5
  -6  13   3 4.79319 1.72117   3
   5 -13  -3 1.20881 1.43998   1
   5 -13  -3 -0.1673 0.99205   4
  -5 -13   3 -0.1737 0.85436   2
   5  13  -3 2.39513 1.38791   3
  -5  13   3 -0.1481 1.21999   3
   5  13  -3 -0.9614 1.04076   1
  -5  13   3 -1.6627 0.73420   5
   5  13  -3 -1.1926 1.45530   5
  -4 -13   3 17.4859 2.87173   2
   4 -13  -3 13.4337 2.59757   1
   4 -13  -3 15.3926 2.88586   4
  -4  13   3 14.8339 2.66450   5
   4  13  -3 20.7338 3.48266   5
   4  13  -3 12.3647 2.90716   1
  -4  13   3 18.9995 2.88831   3
  -3 -13   3 2.02090 0.99786   4
  -3 -13   3 2.28536 1.36049   2
   3 -13  -3 2.39168 1.18214   1
   3 -13  -3 0.79456 1.00459   4
  -3  13   3 1.10699 1.41015   3
   3  13  -3 1.27215 1.17385   4
   3  13  -3 -1.2260 1.49128   5
  -3  13   3 1.13314 1.34118   5
   3  13  -3 1.32113 1.28756   1
  -2 -13   3 7.83475 1.52347   4
   2 -13  -3 4.77118 1.70593   4
   2 -13  -3 9.52116 1.91317   1
  -2 -13   3 7.63797 1.89290   2
  -2  13   3 7.01373 1.87976   1
   2  13  -3 4.61706 2.15986   5
  -2  13   3 5.52582 1.61702   5
   2  13  -3 9.20899 2.37395   1
  -2  13   3 5.15114 1.61019   3
   2  13  -3 6.07007 1.65367   4
   1 -13  -3 12.1491 2.04073   1
  -1 -13   3 14.5108 2.12877   4
  -1 -13   3 14.5262 2.42523   2
   1 -13  -3 14.8741 2.55377   4
  -1  13   3 14.4808 2.47265   5
  -1  13   3 12.1018 2.29378   3
   1  13  -3 13.3632 2.71754   1
   1  13  -3 13.8944 2.84551   5
   1  13  -3 14.7607 2.51206   4
  -1  13   3 16.4125 2.40239   1
   0 -13  -3 11.7490 1.86931   1
   0 -13   3 13.2601 2.28248   4
   0 -13   3 9.88322 2.07305   2
   0 -13  -3 10.5117 1.77130   2
   0 -13  -3 9.33955 1.90401   4
   0  13   3 8.98419 1.83051   1
   0  13  -3 10.6780 2.50060   5
   0  13   3 13.0835 2.45313   5
   0  13   3 7.69760 1.85168   3
   0  13  -3 11.3994 2.54694   1
  -1 -13  -3 32.0135 2.71944   2
   1 -13   3 29.9161 3.39321   4
  -1 -13  -3 30.0926 3.26888   4
   1 -13   3 28.4482 3.16262   2
  -1  13  -3 22.5068 3.38618   5
   1  13   3 21.9250 3.06599   5
  -1  13  -3 24.2547 3.39276   1
   1  13   3 25.7779 3.39687   3
  -2 -13  -3 84.2688 5.19284   4
   2 -13   3 96.0010 5.43805   2
   2 -13   3 93.1035 5.71501   4
  -2 -13  -3 113.312 5.78901   2
   2  13   3 94.7294 5.84971   5
  -2  13  -3 98.3666 6.21006   1
   2  13   3 84.5351 5.86442   3
  -2  13  -3 96.8563 6.07756   5
   3 -13   3 1.80261 1.15404   1
  -3 -13  -3 -1.2431 0.90546   2
   3 -13   3 -1.0116 0.94646   4
   3 -13   3 0.25721 0.88507   2
   3  13   3 2.41941 1.40287   3
   3  13   3 -2.5569 1.44194   5
  -3  13  -3 1.51561 1.17716   1
  -3  13  -3 -0.2317 0.90382   5
   4 -13   3 16.6058 2.92902   4
   4 -13   3 17.1742 2.47623   2
  -4 -13  -3 16.3032 2.68852   2
   4 -13   3 19.5802 3.11326   1
   4  13   3 21.5998 3.25169   5
  -4  13  -3 22.8659 3.61825   1
  -4  13  -3 14.8999 2.67974   5
   4  13   3 15.9180 2.85975   3
   5 -13   3 15.5592 2.90645   1
   5 -13   3 17.7713 2.96746   4
  -5 -13  -3 16.0871 2.66546   2
   5  13   3 13.3676 2.67580   5
   5  13   3 18.4006 3.06112   3
  -5  13  -3 19.1705 3.08874   5
  -5  13  -3 14.3074 3.18055   1
   6 -13   3 0.79995 1.50395   1
  -6 -13  -3 1.13002 1.17380   2
   6 -13   3 -0.4447 1.02955   4
  -6  13  -3 -1.1203 1.08392   5
   6  13   3 2.24074 1.45837   5
   6  13   3 1.05912 1.17970   3
  -6  13  -3 0.16096 1.90133   1
  -7 -13  -3 3.78726 1.66278   2
   7 -13   3 6.14374 1.95345   1
   7 -13   3 4.79129 1.95849   4
  -7  13  -3 2.27161 1.84081   5
   7  13   3 4.34793 1.87147   3
  -7  13  -3 4.82164 2.18666   1
   7  13   3 5.68266 1.92902   5
   8 -13   3 -1.7512 1.33924   1
   8 -13   3 2.09690 1.36318   4
  -8 -13  -3 0.07543 1.27044   2
  -8  13  -3 1.45696 1.67464   5
  -8  13  -3 -0.6326 1.88789   1
   8  13   3 2.45893 1.73368   3
  -8 -14   3 -0.2383 1.26629   2
   8 -14  -3 -2.2392 1.66087   4
   8 -14  -3 0.15820 1.53099   1
  -8  14   3 -0.4482 1.61075   5
  -8  14   3 0.95350 1.38967   3
   8  14  -3 -1.0231 1.21392   5
   7 -14  -3 -0.2039 1.20210   4
  -7 -14   3 0.17765 1.48891   2
   7 -14  -3 -0.2364 1.27944   1
  -7  14   3 -0.0917 1.69261   5
   7  14  -3 1.08422 1.57441   5
  -7  14   3 0.88989 1.29571   3
   6 -14  -3 4.16446 1.80038   4
   6 -14  -3 4.41074 2.08193   1
  -6 -14   3 2.11072 1.42706   2
  -6  14   3 3.23948 1.74457   5
  -6  14   3 7.15929 2.30843   3
   6  14  -3 1.98550 1.57431   5
   5 -14  -3 41.7342 4.86434   4
   5 -14  -3 45.3357 4.94415   1
  -5 -14   3 33.3496 4.04380   2
   5  14  -3 31.4487 4.28157   1
   5  14  -3 42.2404 4.95408   5
  -5  14   3 43.2542 4.74008   3
  -5  14   3 46.4735 5.13806   5
  -4 -14   3 3.77146 1.56008   2
   4 -14  -3 5.39813 1.81353   4
   4 -14  -3 3.97158 1.74591   1
  -4  14   3 3.14512 1.75380   3
   4  14  -3 5.78686 2.59457   1
   4  14  -3 2.49417 2.03132   5
  -4  14   3 2.71320 1.54163   5
  -3 -14   3 2.23935 1.58441   2
   3 -14  -3 4.07139 1.40948   1
   3 -14  -3 6.28728 2.13203   4
  -3  14   3 5.82303 1.65337   1
  -3  14   3 5.94027 2.10661   3
  -3  14   3 7.32903 1.95799   5
   3  14  -3 3.88673 2.23380   5
   3  14  -3 9.39386 2.32742   1
   2 -14  -3 11.5441 2.37621   4
  -2 -14   3 18.1667 2.67275   2
  -2 -14   3 16.5644 2.36803   4
   2 -14  -3 24.8243 3.02420   1
  -2  14   3 22.1776 3.14533   3
   2  14  -3 14.2392 3.01441   1
   2  14  -3 18.4512 3.47763   5
   2  14  -3 15.0966 2.51870   4
  -2  14   3 17.1756 2.98878   5
  -2  14   3 18.1438 2.80005   1
  -1 -14   3 10.8335 2.29856   2
  -1 -14   3 10.5092 2.07915   4
   1 -14  -3 14.3404 2.50954   4
   1 -14  -3 15.1704 2.30592   1
   1  14  -3 10.5993 2.48296   5
  -1  14   3 17.0714 2.65008   1
  -1  14   3 12.5393 2.39345   3
   1  14  -3 16.6194 2.79659   4
   1  14  -3 12.0660 2.57557   1
  -1  14   3 17.4794 2.97280   5
   0 -14  -3 58.3104 3.74778   2
   0 -14   3 54.2299 4.06180   2
   0 -14  -3 60.7533 4.39600   4
   0 -14  -3 49.0895 4.04326   1
   0 -14   3 54.4312 4.03141   4
   0  14   3 48.6044 4.13332   3
   0  14  -3 55.7954 4.55342   1
   0  14  -3 58.5707 4.60246   5
   0  14   3 47.8171 4.35564   5
  -1 -14  -3 44.0180 3.57729   4
   1 -14   3 34.7077 3.70693   2
  -1 -14  -3 39.7445 3.25604   2
   1 -14   3 41.5120 3.53145   4
   1  14   3 50.9588 4.96849   5
  -1  14  -3 48.3736 4.14914   1
  -1  14  -3 37.2065 4.46067   5
   1  14   3 36.8031 4.09794   3
  -2 -14  -3 8.24320 1.87759   2
   2 -14   3 7.16162 1.84511   4
  -2 -14  -3 2.94217 1.43721   4
   2 -14   3 6.28350 1.65825   2
   2  14   3 2.30313 1.54665   3
  -2  14  -3 5.69968 2.14321   5
  -2  14  -3 4.82557 1.70785   1
   2  14   3 6.99761 2.39706   5
  -3 -14  -3 2.87710 1.28347   2
   3 -14   3 2.02002 1.24067   4
   3 -14   3 3.09014 1.31920   2
   3  14   3 2.08698 2.04350   5
   3  14   3 2.55599 1.65036   3
  -3  14  -3 1.97981 1.74408   5
  -3  14  -3 1.08221 1.42852   1
  -4 -14  -3 10.0369 2.25256   2
   4 -14   3 5.60156 1.96876   1
   4 -14   3 5.23179 2.09657   4
  -4  14  -3 6.11602 2.11595   5
   4  14   3 3.94869 1.77819   5
  -4  14  -3 5.66990 2.22536   1
   4  14   3 6.60096 2.02896   3
  -5 -14  -3 11.9979 2.58722   2
   5 -14   3 16.0426 2.82528   4
   5 -14   3 12.9405 2.88237   1
  -5  14  -3 18.2128 3.51614   1
  -5  14  -3 15.5853 3.24357   5
   5  14   3 19.2673 3.27876   5
   5  14   3 17.3465 2.99759   3
   6 -14   3 22.3029 3.49790   4
  -6 -14  -3 22.7055 3.55943   2
   6 -14   3 29.8715 4.11651   1
   6  14   3 24.3776 3.67680   5
  -6  14  -3 30.5785 4.15463   5
   6  14   3 17.6502 3.38380   3
  -6  14  -3 27.9303 4.46227   1
   7 -14   3 3.04308 1.91879   4
  -7 -14  -3 -0.3296 1.53609   2
   7 -14   3 0.23051 1.39178   1
   7  14   3 3.04475 1.59189   5
   7  14   3 5.00484 2.05139   3
  -7  14  -3 0.07035 2.02716   1
  -7  14  -3 -1.3803 1.61835   5
   8  14   3 6.60052 2.20669   5
   7 -15  -3 1.91335 2.01156   1
   7 -15  -3 2.21905 1.75733   4
  -7 -15   3 -1.7967 1.58600   2
  -7  15   3 0.29292 1.92466   3
   7  15  -3 4.63065 2.12147   5
  -7  15   3 1.91703 1.86546   5
  -6 -15   3 -1.5887 0.94532   2
   6 -15  -3 -1.7192 1.55245   4
   6 -15  -3 0.73208 1.66614   1
   6  15  -3 -0.2048 1.17316   5
  -6  15   3 0.53111 1.74154   5
  -6  15   3 -0.9647 1.17057   3
  -5 -15   3 1.34075 1.71942   2
   5 -15  -3 3.35271 2.12933   4
   5 -15  -3 3.02515 1.51635   1
  -5  15   3 1.09433 1.24408   5
   5  15  -3 4.23982 2.05282   5
  -5  15   3 1.82439 1.45662   1
  -5  15   3 4.89966 2.14514   3
   5  15  -3 -1.5573 1.82441   1
  -4 -15   3 0.50643 1.44776   2
   4 -15  -3 0.83752 1.22527   4
   4 -15  -3 4.55666 1.80578   1
  -4  15   3 3.33269 1.48085   1
  -4  15   3 -0.1425 1.61970   3
   4  15  -3 2.97489 2.41936   5
  -4  15   3 1.68377 1.43696   5
   4  15  -3 -1.2989 1.92257   1
  -3 -15   3 9.27234 2.15310   2
   3 -15  -3 11.3923 2.61745   4
   3 -15  -3 8.42575 2.20422   1
  -3  15   3 7.17737 2.13833   3
  -3  15   3 10.7659 2.50133   1
  -3  15   3 15.1223 2.88229   5
   3  15  -3 8.15796 2.44504   5
   3  15  -3 9.74534 2.56079   1
   2 -15  -3 -0.1968 1.23420   4
  -2 -15   3 1.88662 1.21832   4
   2 -15  -3 2.04140 1.43283   1
  -2 -15   3 -0.4415 0.89543   2
  -2  15   3 1.85436 1.27412   1
  -2  15   3 -1.4321 1.47043   3
  -2  15   3 0.58107 1.59842   5
   2  15  -3 -0.7768 1.14661   4
   2  15  -3 0.04574 1.24322   1
   2  15  -3 -0.3199 1.48577   5
   1 -15  -3 11.6267 2.18327   1
   1 -15  -3 9.96737 2.34351   4
  -1 -15   3 9.93371 2.00415   4
  -1 -15   3 10.0756 2.10264   2
   1  15  -3 8.23087 2.77381   5
  -1  15   3 11.7993 2.43178   3
   1  15  -3 8.30643 2.16848   4
   1  15  -3 7.30070 2.50421   1
  -1  15   3 6.71259 2.41556   5
  -1  15   3 8.37172 2.04458   1
   0 -15   3 8.13669 1.88934   4
   0 -15  -3 8.17409 1.94220   4
   0 -15   3 10.2466 2.21445   2
   0  15   3 8.88143 2.57998   5
   0  15  -3 8.97552 2.49197   1
   0  15   3 8.98828 2.57366   3
   0  15  -3 2.47568 2.22454   5
  -1 -15  -3 17.4398 2.55640   2
   1 -15   3 26.4959 3.36643   4
  -1 -15  -3 23.3479 3.12567   4
   1 -15   3 16.5393 2.69503   2
  -1  15  -3 21.3040 3.50630   1
   1  15   3 20.7132 3.51100   5
   1  15   3 17.4720 3.14703   3
  -1  15  -3 13.7671 2.81260   5
   2 -15   3 2.33176 1.25431   2
   2 -15   3 1.07672 1.29868   4
  -2 -15  -3 1.22258 0.98267   2
   2  15   3 -0.6123 1.79235   5
   2  15   3 -1.0614 1.65123   3
  -2  15  -3 0.43523 1.76939   5
  -2  15  -3 2.14771 1.88387   1
   3 -15   3 1.20245 1.18976   4
  -3 -15  -3 1.44805 1.44040   2
  -3  15  -3 2.08227 1.38641   1
   3  15   3 0.52002 1.39546   5
   3  15   3 -0.4940 1.57891   3
  -3  15  -3 2.49785 1.95711   5
  -4 -15  -3 31.3634 3.83154   2
   4 -15   3 25.0176 3.67048   4
  -4  15  -3 27.8414 4.13816   5
   4  15   3 20.8328 3.55264   3
   4  15   3 36.8319 4.47609   5
  -4  15  -3 31.9557 4.57264   1
   5 -15   3 29.5629 4.11767   1
   5 -15   3 18.8053 3.26657   4
  -5 -15  -3 18.5663 3.07623   2
   5  15   3 24.2210 3.72883   5
  -5  15  -3 29.4677 4.52054   1
   5  15   3 20.1620 3.32828   3
  -5  15  -3 24.3790 3.80369   5
   6 -15   3 0.31121 1.65579   1
   6 -15   3 0.40630 1.57417   4
  -6 -15  -3 -0.6178 0.99175   2
  -6  15  -3 2.71223 1.86276   5
  -6  15  -3 -0.2066 1.68382   1
   6  15   3 2.04269 1.69990   5
   6  15   3 3.49412 1.69243   3
  -7 -15  -3 1.07512 1.96449   2
   7 -15   3 6.67847 2.18993   4
   7  15   3 6.16395 1.99582   5
  -7  15  -3 8.40694 3.39384   1
  -7  15  -3 3.19308 1.83022   5
   7  15   3 9.31089 2.86541   3
   6 -16  -3 -0.4908 2.06163   4
   6 -16  -3 2.60973 2.00178   1
  -6 -16   3 0.35025 1.87023   2
   6  16  -3 1.16258 1.54405   5
  -6  16   3 1.57598 1.80216   1
  -6  16   3 0.61853 1.94682   3
  -6  16   3 -1.3542 1.51738   5
   5 -16  -3 1.10274 1.68276   1
  -5 -16   3 0.69240 1.54028   2
   5 -16  -3 0.38947 2.00846   4
  -5  16   3 -1.2308 1.50929   5
  -5  16   3 4.62826 1.95017   1
  -5  16   3 -0.2636 1.40402   3
   5  16  -3 0.81299 1.63519   5
   4 -16  -3 3.83559 1.82176   4
  -4 -16   3 1.71056 1.86222   2
   4 -16  -3 1.73545 1.64940   1
   4  16  -3 1.84307 2.62623   1
  -4  16   3 1.08338 1.59683   1
  -4  16   3 6.69146 2.23814   5
  -4  16   3 5.46961 2.11803   3
   4  16  -3 -0.6771 2.11887   5
   3 -16  -3 5.95721 1.99586   1
  -3 -16   3 5.97327 1.85234   2
   3 -16  -3 6.19460 2.05310   4
  -3  16   3 8.51442 2.26946   1
   3  16  -3 5.16540 2.41417   1
  -3  16   3 6.87496 2.43689   5
  -3  16   3 2.96414 1.76053   3
   3  16  -3 8.10756 2.51555   5
  -2 -16   3 -1.2023 1.10503   2
   2 -16  -3 -0.0283 1.29465   1
   2 -16  -3 0.07289 1.04847   4
  -2 -16   3 -0.0575 1.23750   4
  -2  16   3 -1.5852 1.73361   3
  -2  16   3 1.23565 1.43104   1
   2  16  -3 -3.1698 1.79776   5
  -2  16   3 0.00342 1.18690   5
   2  16  -3 -0.0895 1.87457   1
  -1 -16   3 3.47636 1.29448   4
  -1 -16   3 0.66057 1.36095   2
   1 -16  -3 6.01580 1.80945   4
   1  16  -3 2.49957 1.56673   4
   1  16  -3 1.46401 1.81099   5
  -1  16   3 3.44740 1.89020   3
  -1  16   3 6.75091 2.35501   5
   1  16  -3 2.31560 2.10632   1
   0 -16   3 1.44859 1.37163   2
   0 -16   3 2.73488 1.56946   4
   0 -16  -3 1.81871 1.61945   4
   0  16  -3 -1.4827 1.91628   5
   0  16   3 0.27469 2.00207   3
   0  16  -3 0.42724 1.63572   1
   0  16   3 1.93545 1.63069   5
  -1 -16  -3 0.71373 1.34934   4
   1 -16   3 -0.9659 1.24616   4
   1 -16   3 -0.0344 1.17797   2
   1  16   3 -2.1070 1.25523   5
  -1  16  -3 -0.3533 1.34871   5
   1  16   3 -3.8013 1.54199   3
  -1  16  -3 -0.8329 1.07484   1
   2 -16   3 2.29765 1.27261   4
  -2 -16  -3 0.54199 1.35347   2
   2 -16   3 3.25710 1.44504   2
  -2  16  -3 2.56680 1.58060   1
  -2  16  -3 0.79484 1.84595   5
   2  16   3 -1.8544 1.21507   5
   2  16   3 5.30270 1.95954   3
   3 -16   3 5.52965 2.18594   4
  -3 -16  -3 8.50593 2.18503   2
  -3  16  -3 10.7076 2.89673   1
   3  16   3 5.99784 2.61054   5
  -3  16  -3 5.90136 2.60548   5
   3  16   3 5.65401 2.08012   3
   4 -16   3 6.05112 2.28098   4
  -4 -16  -3 4.57327 1.88146   2
  -4  16  -3 4.90725 2.35717   1
   4  16   3 5.49055 2.36036   3
  -4  16  -3 -0.3909 1.86623   5
   4  16   3 0.06657 2.03132   5
  -5 -16  -3 4.84277 2.11328   2
   5 -16   3 1.46861 1.64261   1
   5 -16   3 2.08949 1.85065   4
  -5  16  -3 7.83202 2.29169   5
   5  16   3 3.14016 2.03360   5
  -5  16  -3 4.64195 2.07706   1
   5  16   3 4.39496 1.94872   3
  -6 -16  -3 1.16812 1.76566   2
  -6  16  -3 2.97794 2.26476   5
   6  16   3 2.01924 1.53254   3
   6  16   3 1.36180 1.61667   5
   5 -17  -3 7.58575 2.53117   1
  -5 -17   3 4.31399 2.21098   2
   5 -17  -3 3.45590 1.89123   4
  -5  17   3 3.70936 2.23778   5
  -5  17   3 2.25571 2.36449   3
  -5  17   3 7.19978 2.59569   1
   4 -17  -3 15.0761 3.45192   4
  -4 -17   3 14.8110 3.07485   2
   4 -17  -3 15.1763 3.08292   1
   4  17  -3 16.2374 3.50698   5
  -4  17   3 17.8425 3.62072   3
  -4  17   3 18.7902 3.41950   5
  -4  17   3 15.5752 3.22717   1
   3 -17  -3 1.44437 1.53274   1
   3 -17  -3 0.89239 1.38688   4
  -3 -17   3 2.55590 1.69650   2
   3  17  -3 0.04085 2.27537   1
  -3  17   3 0.67568 2.20251   3
  -3  17   3 0.29651 1.40671   5
  -3  17   3 4.07379 1.94867   1
   3  17  -3 0.74660 2.56511   5
   2 -17  -3 6.77003 2.07081   4
  -2 -17   3 6.72261 2.09167   2
   2 -17  -3 5.01458 1.98978   1
  -2  17   3 3.07781 2.31500   3
   2  17  -3 2.39615 1.98949   1
  -2  17   3 3.19708 1.84345   5
   2  17  -3 1.33148 1.96328   5
  -1 -17   3 -1.0645 1.14254   2
  -1 -17   3 1.14044 1.38236   4
   1 -17  -3 0.50009 1.73569   4
   1  17  -3 0.25387 1.98806   1
   1  17  -3 2.01920 1.69167   4
  -1  17   3 -1.6475 1.19075   3
   1  17  -3 -5.5464 1.98050   5
  -1  17   3 -1.7538 1.70187   5
   0 -17   3 -1.4206 1.08155   2
   0 -17   3 1.80657 1.32750   4
   0 -17  -3 -0.0338 1.13128   4
   0  17   3 1.66761 1.72349   5
   0  17  -3 2.66095 1.78674   1
   0  17  -3 1.78276 1.44417   4
   0  17   3 -2.1296 1.84422   3
   0  17  -3 0.51814 1.76198   5
   1 -17   3 3.58006 1.52933   4
   1 -17   3 1.78921 1.45880   2
   1  17   3 0.91676 1.73985   3
  -1  17  -3 2.59673 2.47997   5
  -1  17  -3 1.87899 1.54699   1
   1  17   3 -2.7376 1.81911   5
  -2 -17  -3 6.75978 2.05708   2
   2 -17   3 13.9320 2.92048   4
  -2  17  -3 8.60054 3.04957   5
   2  17   3 6.93777 2.73630   3
   2  17   3 3.52039 2.66737   5
  -2  17  -3 10.1953 2.62127   1
  -3 -17  -3 0.90765 1.52752   2
   3 -17   3 0.60799 1.30110   4
  -3  17  -3 1.56279 1.71671   1
   3  17   3 -3.2070 1.98253   5
   3  17   3 -0.5117 1.82759   3
  -3  17  -3 -2.0256 1.93207   5
   4 -17   3 29.7151 4.14726   4
  -4 -17  -3 31.5608 4.08975   2
  -4  17  -3 28.3774 4.32187   5
   4  17   3 32.8693 4.33323   3
  -4  17  -3 33.5314 4.86526   1
   4  17   3 38.9752 5.02958   5
   3 -18  -3 4.37719 2.21916   1
  -3 -18   3 2.22033 1.82475   2
   3 -18  -3 2.28934 2.37235   4
  -3  18   3 7.96525 2.55051   5
  -3  18   3 3.73749 3.22567   1
   3  18  -3 0.92683 2.42576   1
  -3  18   3 -1.0643 2.36049   3
   3  18  -3 -0.9353 2.91456   5
  -2 -18   3 -0.8683 0.94228   2
   2 -18  -3 -1.0127 1.88461   4
   2  18  -3 -5.6964 2.13097   5
   2  18  -3 -1.5428 2.12957   1
  -2  18   3 -4.7901 1.49839   5
  -2  18   3 -3.4768 2.05370   3
  -1 -18   3 1.48606 1.66187   2
  -1 -18   3 0.46617 1.40532   4
   1 -18  -3 0.34242 1.75375   4
  -1  18   3 -4.3469 2.00685   5
   1  18  -3 -0.8533 1.68965   5
   1  18  -3 0.45332 2.44643   4
  -1  18   3 -1.5888 1.48093   3
   1  18  -3 -1.3118 1.37268   1
   0 -18  -3 9.17572 2.61394   4
   0 -18   3 7.29658 2.05902   2
   0 -18   3 9.46161 2.47807   4
   0  18  -3 6.84974 2.45543   4
   0  18   3 8.10728 2.70148   5
   0  18  -3 9.45262 3.01906   1
   0  18  -3 7.96590 3.39029   5
   0  18   3 4.84023 2.69140   3
   1 -18   3 4.57869 2.18917   4
  -1  18  -3 1.40574 2.58933   5
  -1  18  -3 4.90867 2.56629   1
   1  18   3 2.71601 2.76625   5
   1  18   3 -0.0193 2.29806   3
   2 -18   3 -0.9107 1.09831   4
  -2  18  -3 2.43428 1.77132   1
   2  18   3 -3.3747 1.76371   3
   2  18   3 -5.0406 1.89965   5
  -2  18  -3 -3.2605 2.16296   5
  -3 -18  -3 2.06292 1.85390   2
   3 -18   3 3.73234 2.48039   4
  -3  18  -3 1.08362 2.75327   5
   3  18   3 6.07612 2.52141   3
   3  18   3 -2.6439 1.49731   5
  12   0  -4 22.8334 3.86500   1
  12   0  -4 23.7892 4.32435   3
 -12   0   4 17.4852 3.56210   3
  12   0  -4 26.6914 4.31559   5
 -11   0   4 -0.7645 0.91566   3
  11   0  -4 1.35379 1.74708   1
  11   0  -4 -1.0016 0.93939   3
  11   0  -4 0.91899 1.21271   5
  10   0  -4 4.61952 2.01857   3
  10   0  -4 5.87112 2.27764   5
 -10   0   4 6.26964 2.06459   3
  10   0  -4 3.99568 1.80545   1
   9   0  -4 0.41742 1.00858   3
   9   0  -4 2.38570 1.60157   5
  -9   0   4 0.32920 1.30913   3
   9   0  -4 1.31453 1.08915   1
   8   0  -4 23.0142 3.17409   3
  -8   0   4 19.5991 2.91175   3
   8   0  -4 25.4734 3.38641   1
   8   0  -4 23.3043 3.31434   5
   7   0  -4 -1.1106 0.58282   5
   7   0  -4 0.05101 0.50532   4
  -7   0   4 0.51769 0.86303   3
   7   0  -4 -1.4296 0.78587   3
   7   0  -4 -1.0825 0.82970   1
   6   0  -4 -0.5536 0.48237   3
   6   0  -4 -0.0814 0.85808   1
  -6   0   4 1.11777 0.63172   3
   6   0  -4 0.05729 0.42302   4
   6   0  -4 -0.4649 0.56107   5
  -6   0   4 -0.1467 0.40094   2
  -5   0   4 0.23768 0.56810   3
   5   0  -4 -0.0037 0.55937   5
   5   0  -4 -0.3445 0.29521   3
  -5   0   4 0.24693 0.38150   2
   5   0  -4 -0.5778 0.32949   4
   5   0  -4 0.05894 0.53065   1
   4   0  -4 0.24673 0.44203   5
  -4   0   4 0.34377 0.35356   2
   4   0  -4 0.07209 0.51681   4
   4   0  -4 -0.3209 0.40501   3
   4   0  -4 -0.3623 0.56675   1
  -4   0   4 0.62961 0.56328   3
  -3   0   4 -0.7006 0.25410   3
   3   0  -4 0.40909 0.45854   5
   3   0  -4 0.84129 0.47954   4
   3   0  -4 0.13387 0.39083   3
  -3   0   4 0.14347 0.30569   2
   3   0  -4 0.07879 0.40760   1
   2   0  -4 960.716 34.8644   1
  -2   0   4 978.524 34.3356   2
  -2   0   4 946.787 34.2330   3
   2   0  -4 962.558 34.4109   5
   2   0  -4 990.977 34.8028   4
   1   0  -4 -0.0467 0.30082   4
   1   0  -4 -0.2581 0.39038   1
   1   0  -4 -0.0800 0.19887   5
  -1   0   4 -0.1021 0.20332   3
  -1   0   4 0.34101 0.35933   2
   0   0   4 406.142 15.3784   2
   0   0  -4 427.054 15.3587   1
   0   0  -4 409.089 14.5161   5
   0   0  -4 412.986 15.6028   4
   0   0   4 415.304 14.8462   3
  -1   0  -4 -0.0401 0.40305   1
   1   0   4 -0.0886 0.32326   2
  -1   0  -4 0.52426 0.46023   4
   1   0   4 -0.2011 0.21347   3
   2   0   4 112.744 5.19950   2
  -2   0  -4 115.614 5.18545   4
   2   0   4 109.388 4.77563   3
   2   0   4 111.319 4.22752   5
  -2   0  -4 106.990 4.22727   5
  -2   0  -4 122.739 4.77320   1
  -3   0  -4 -0.0591 0.40636   4
  -3   0  -4 -0.1326 0.30247   1
   3   0   4 -0.0724 0.30980   3
   3   0   4 0.42978 0.29459   5
   3   0   4 -0.1613 0.25976   2
  -3   0  -4 -0.3413 0.33713   2
   4   0   4 236.756 10.1208   2
   4   0   4 233.591 9.40863   5
  -4   0  -4 256.686 9.37129   1
  -4   0  -4 244.831 9.84109   4
   4   0   4 248.757 10.0469   3
  -4   0  -4 230.998 10.3516   2
   5   0   4 -0.5317 0.50839   3
  -5   0  -4 -0.4722 0.42415   1
   5   0   4 -0.3594 0.61959   2
   5   0   4 -0.0397 0.32478   1
  -5   0  -4 -0.0530 0.69177   2
   5   0   4 -0.0519 0.41329   5
  -5   0  -4 0.46464 0.53482   4
   6   0   4 121.001 5.90667   5
  -6   0  -4 126.172 6.63004   2
  -6   0  -4 126.910 5.81571   4
   6   0   4 118.656 6.39308   3
   6   0   4 126.483 6.40536   2
  -6   0  -4 125.960 5.57569   1
  -7   0  -4 -0.4210 0.82747   2
   7   0   4 -0.6147 0.58051   5
   7   0   4 0.47918 0.71264   3
   8   0   4 4.31814 1.55207   3
  -8   0  -4 3.99025 1.41744   2
   8   0   4 6.55206 1.56292   5
   9   0   4 -0.0797 0.85563   5
  -9   0  -4 -0.9887 1.00595   2
   9   0   4 -0.3723 1.04194   3
 -10   0  -4 8.58814 2.11825   2
  10   0   4 9.56253 2.29820   3
 -11   0  -4 1.08833 1.47489   2
  11   0   4 1.46065 1.65164   3
 -12  -1   4 6.06471 2.35748   3
  12  -1  -4 9.55228 2.92656   5
  12  -1  -4 -0.3764 1.40188   3
  12  -1  -4 8.10884 2.35445   1
 -12   1   4 1.62156 1.60508   3
  12   1  -4 14.3588 3.35564   5
  12   1  -4 0.66642 1.85824   3
  12   1  -4 3.90174 2.16437   1
  11  -1  -4 25.7728 4.19951   5
  11  -1  -4 16.7380 3.18157   1
  11  -1  -4 18.8518 3.62590   3
 -11  -1   4 7.94489 2.50060   3
 -11   1   4 20.7510 3.63136   3
  11   1  -4 24.1803 4.06341   5
  11   1  -4 22.5685 3.70360   1
  11   1  -4 21.8468 3.69713   3
  10  -1  -4 2.92182 1.92110   5
 -10  -1   4 2.14464 1.68245   3
  10  -1  -4 7.70060 2.36462   1
  10  -1  -4 2.92940 1.58021   3
  10   1  -4 7.41886 2.24661   1
  10   1  -4 2.65832 1.56529   5
 -10   1   4 5.05332 1.77658   3
  10   1  -4 6.67032 1.95894   3
   9  -1  -4 69.3664 5.22153   1
   9  -1  -4 65.3387 5.19798   3
   9  -1  -4 73.8203 5.43829   5
  -9  -1   4 68.2229 5.00850   3
  -9   1   4 77.8379 5.38938   3
   9   1  -4 71.2684 5.15937   3
   9   1  -4 75.1732 5.52961   5
   9   1  -4 66.4632 4.96212   1
  -8  -1   4 31.7817 3.60041   3
   8  -1  -4 39.2570 4.20754   1
   8  -1  -4 37.0340 4.14699   5
   8  -1  -4 31.6485 2.49605   4
   8  -1  -4 27.8091 3.53428   3
   8   1  -4 34.0845 3.77793   3
   8   1  -4 29.0167 3.54790   1
   8   1  -4 39.7699 4.23271   5
  -8   1   4 35.3434 3.92096   3
   7  -1  -4 1.63651 1.09582   5
   7  -1  -4 2.39124 1.25374   3
   7  -1  -4 2.78092 0.90114   4
  -7  -1   4 2.51079 1.24509   3
  -7  -1   4 1.64931 0.75501   2
   7  -1  -4 2.95655 1.19776   1
   7   1  -4 2.99852 0.81410   4
   7   1  -4 0.92247 0.99195   3
  -7   1   4 2.14322 1.23828   3
   7   1  -4 1.33346 1.11090   1
   7   1  -4 3.40477 1.53404   5
   6  -1  -4 41.5590 3.24491   3
  -6  -1   4 43.9111 2.50050   2
   6  -1  -4 47.5290 3.40264   5
   6  -1  -4 43.5124 3.32681   1
  -6  -1   4 36.9756 2.96053   3
   6  -1  -4 46.5070 2.85841   4
  -6   1   4 45.4989 3.25990   3
   6   1  -4 41.8586 3.38013   5
   6   1  -4 43.7806 2.65512   4
   6   1  -4 47.8495 3.31171   3
  -6   1   4 43.6047 2.22036   2
   6   1  -4 40.2733 3.19343   1
  -5  -1   4 0.33338 0.37991   2
  -5  -1   4 -0.0786 0.36458   3
   5  -1  -4 -0.8937 0.56743   5
   5  -1  -4 -0.0102 0.53416   3
   5  -1  -4 0.30454 0.55028   1
   5  -1  -4 -0.2640 0.44596   4
   5   1  -4 -0.7181 0.49743   5
   5   1  -4 -0.0758 0.71045   1
   5   1  -4 0.16974 0.43012   3
   5   1  -4 0.24925 0.48674   4
  -5   1   4 0.11603 0.28969   2
  -5   1   4 0.31439 0.64500   3
   4  -1  -4 138.197 6.06801   3
  -4  -1   4 129.147 5.83123   3
   4  -1  -4 126.409 6.04331   5
   4  -1  -4 135.529 5.93340   4
   4  -1  -4 130.976 6.27509   1
  -4  -1   4 135.801 5.51348   2
   4   1  -4 123.177 6.00259   5
   4   1  -4 135.125 5.80975   4
   4   1  -4 134.725 6.32329   1
  -4   1   4 126.308 5.92352   3
   4   1  -4 122.596 5.81551   3
  -4   1   4 137.007 5.23639   2
  -3  -1   4 307.359 11.7612   2
   3  -1  -4 312.642 12.1317   5
   3  -1  -4 303.593 12.1593   4
   3  -1  -4 303.402 12.4067   1
  -3  -1   4 307.246 11.8534   3
  -3   1   4 324.527 11.5650   2
   3   1  -4 323.650 12.5128   1
   3   1  -4 323.719 12.1714   4
  -3   1   4 303.752 11.9892   3
   3   1  -4 323.552 12.1870   5
   3   1  -4 314.935 11.9150   3
  -2  -1   4 38.7707 2.14238   2
   2  -1  -4 37.2463 2.11772   5
   2  -1  -4 39.5295 2.39292   4
  -2  -1   4 37.1847 1.92144   3
   2  -1  -4 38.7555 2.40296   1
   2   1  -4 41.0117 2.19133   5
   2   1  -4 40.5009 2.55683   1
   2   1  -4 36.6983 2.33074   4
  -2   1   4 41.5980 2.06476   2
  -2   1   4 37.7361 2.08594   3
   1  -1  -4 160.046 6.29622   5
  -1  -1   4 161.726 6.69744   2
   1  -1  -4 168.763 6.84498   1
  -1  -1   4 170.047 6.14329   3
   1  -1  -4 164.178 6.95802   4
   1   1  -4 166.926 7.00267   4
   1   1  -4 160.185 6.92128   1
  -1   1   4 171.120 6.64957   2
   1   1  -4 165.201 6.38045   5
  -1   1   4 173.743 6.47332   3
   0  -1   4 166.743 6.99690   2
   0  -1  -4 169.129 7.13327   4
   0  -1  -4 175.200 6.85346   1
   0  -1   4 175.246 6.30121   3
   0   1  -4 163.307 7.18783   4
   0   1   4 175.188 6.11788   5
   0   1  -4 172.298 7.08331   1
   0   1  -4 181.027 6.34827   5
   0   1   4 172.151 6.65620   3
   0   1   4 165.035 6.93465   2
  -1  -1  -4 24.7737 1.44971   1
   1  -1   4 22.1859 1.24211   3
  -1  -1  -4 22.5378 1.71936   4
   1  -1   4 19.4352 1.58606   2
  -1   1  -4 23.2541 1.80711   4
  -1   1  -4 22.3865 1.62772   1
  -1   1  -4 22.4005 1.06528   5
   1   1   4 21.5917 1.62549   2
   1   1   4 24.7408 1.51844   3
  -2  -1  -4 0.49146 0.42103   2
   2  -1   4 -0.2972 0.24451   2
   2  -1   4 0.18118 0.33385   3
  -2  -1  -4 -0.1203 0.24898   4
   2  -1   4 0.12424 0.19379   5
  -2  -1  -4 -0.1213 0.39407   1
  -2   1  -4 0.36202 0.23128   5
   2   1   4 0.50286 0.20146   5
  -2   1  -4 0.38646 0.43743   1
  -2   1  -4 0.33868 0.38534   4
   2   1   4 1.03984 0.44719   3
   2   1   4 0.36922 0.39980   2
   3  -1   4 6.16441 1.01177   3
   3  -1   4 5.65429 1.09204   2
  -3  -1  -4 4.86034 1.10508   2
   3  -1   4 6.65745 0.81993   5
  -3  -1  -4 7.09218 0.80538   1
  -3  -1  -4 7.18564 1.10103   4
   3   1   4 5.26045 0.96710   3
   3   1   4 4.80652 1.04175   2
  -3   1  -4 3.61132 0.92158   4
   3   1   4 5.65020 0.75041   5
  -3   1  -4 6.72439 1.00929   1
  -4  -1  -4 0.66503 0.69552   2
  -4  -1  -4 0.47768 0.33212   1
   4  -1   4 0.43923 0.37766   1
   4  -1   4 0.73183 0.50695   2
  -4  -1  -4 -0.1556 0.35619   4
   4  -1   4 -0.1444 0.44785   3
   4  -1   4 0.20671 0.36094   5
  -4   1  -4 0.44912 0.39976   1
   4   1   4 0.52086 0.42548   5
   4   1   4 0.51381 0.67151   2
   4   1   4 0.59713 0.57277   3
  -4   1  -4 0.05468 0.44424   2
  -4   1  -4 0.18024 0.48158   4
  -5  -1  -4 71.6191 4.53906   2
  -5  -1  -4 79.5157 3.94608   4
   5  -1   4 83.0121 3.74541   1
   5  -1   4 75.2640 3.94123   5
  -5  -1  -4 74.1426 3.48573   1
   5  -1   4 76.5036 4.41304   2
   5  -1   4 81.4923 4.46745   3
  -5   1  -4 76.0715 4.63471   2
  -5   1  -4 86.2950 4.31606   4
  -5   1  -4 81.1225 3.96699   1
   5   1   4 72.8526 4.39062   2
   5   1   4 72.7682 3.90265   5
   5   1   4 80.7861 3.37654   1
   5   1   4 82.7164 4.56479   3
  -6  -1  -4 13.7943 1.64595   4
   6  -1   4 13.4656 1.86459   5
   6  -1   4 8.63388 1.64321   2
   6  -1   4 12.5410 1.47268   1
  -6  -1  -4 11.7127 2.08590   2
   6  -1   4 16.5540 2.25653   3
  -6   1  -4 14.8120 1.83603   1
   6   1   4 10.3275 1.82300   2
   6   1   4 15.7462 1.95395   5
   6   1   4 18.1413 2.52272   3
  -6   1  -4 15.2834 2.34867   2
  -6   1  -4 15.3561 1.99835   4
   7  -1   4 0.22027 0.65152   5
   7  -1   4 1.10942 0.96076   2
   7  -1   4 0.52972 0.90416   3
  -7  -1  -4 0.20180 0.94122   2
  -7   1  -4 1.20770 0.76543   4
   7   1   4 0.48144 0.75465   5
  -7   1  -4 2.24632 1.03524   2
   7   1   4 0.43304 0.98382   3
   8  -1   4 49.1639 4.11519   3
  -8  -1  -4 65.9702 4.61201   2
   8  -1   4 55.3238 3.92567   5
   8   1   4 59.1788 3.99893   5
  -8   1  -4 57.6865 4.32921   2
   8   1   4 52.9144 4.38685   3
   9  -1   4 1.18256 0.99563   5
  -9  -1  -4 -0.4489 0.99543   2
   9  -1   4 0.65155 1.09383   3
   9   1   4 0.65758 0.92203   5
   9   1   4 0.43541 1.16746   3
  -9   1  -4 0.35565 1.13082   2
  10  -1   4 9.89676 2.38985   3
 -10  -1  -4 7.72155 2.12447   2
 -10   1  -4 12.3694 2.59380   2
  10   1   4 7.94158 2.46108   3
 -11  -1  -4 30.0745 3.95924   2
  11  -1   4 31.1548 4.46898   3
  11   1   4 28.5077 4.26887   3
  12  -2  -4 5.40762 2.54964   5
 -12  -2   4 1.10447 1.57035   3
  12  -2  -4 1.25069 1.97775   1
  12  -2  -4 2.67925 2.29639   3
  12   2  -4 5.44702 2.50648   3
  12   2  -4 2.28974 1.59479   5
 -12   2   4 4.85290 2.28476   3
  12   2  -4 1.84869 1.89405   1
  11  -2  -4 4.35167 1.94278   1
  11  -2  -4 4.13165 2.09853   5
 -11  -2   4 3.14610 1.55136   3
  11  -2  -4 4.35395 1.90141   3
  11   2  -4 4.02651 1.83446   1
 -11   2   4 3.95043 2.12148   3
  11   2  -4 5.13708 2.12466   3
  11   2  -4 4.48053 2.11407   5
  10  -2  -4 1.98734 1.36104   1
  10  -2  -4 -2.0209 1.13463   3
  10  -2  -4 0.10319 1.44296   5
 -10  -2   4 1.84658 1.47985   3
  10   2  -4 2.32486 1.59181   3
  10   2  -4 0.93514 0.96257   1
 -10   2   4 -0.3282 1.35828   3
  10   2  -4 1.26158 1.17093   5
   9  -2  -4 69.1975 5.12983   1
   9  -2  -4 63.2750 5.11004   3
   9  -2  -4 64.6729 5.15739   5
  -9   2   4 70.2707 5.11133   3
   9   2  -4 68.3458 5.19217   3
   9   2  -4 72.3901 5.18103   1
   9   2  -4 68.5867 5.30710   5
   8  -2  -4 1.42497 1.34793   3
   8  -2  -4 4.33101 1.59394   1
   8  -2  -4 2.81744 1.07322   4
   8  -2  -4 1.63110 1.14521   5
  -8  -2   4 4.07798 1.19062   2
   8   2  -4 1.98694 1.10767   1
  -8   2   4 2.42874 1.49664   3
   8   2  -4 3.08641 1.30862   3
   8   2  -4 0.78883 1.03076   5
   7  -2  -4 296.211 13.2012   5
   7  -2  -4 321.376 13.3307   3
   7  -2  -4 294.282 12.2065   4
  -7  -2   4 309.161 11.9287   2
   7  -2  -4 303.565 13.2659   1
   7   2  -4 298.779 13.2517   5
   7   2  -4 315.365 13.1065   3
   7   2  -4 283.563 12.9688   1
  -7   2   4 289.300 12.9830   3
   6  -2  -4 72.4788 4.61057   1
   6  -2  -4 66.0188 4.34596   3
   6  -2  -4 66.3984 4.33967   5
  -6  -2   4 70.7953 3.64552   2
   6  -2  -4 75.6291 4.01519   4
   6   2  -4 70.2631 3.63925   4
  -6   2   4 72.6098 4.39870   3
   6   2  -4 71.2967 4.24517   3
   6   2  -4 71.1336 4.52653   5
   6   2  -4 72.2341 4.43898   1
   5  -2  -4 56.2369 3.52713   5
   5  -2  -4 55.3039 3.47620   3
   5  -2  -4 50.3245 3.15005   4
   5  -2  -4 55.8463 3.65300   1
  -5  -2   4 52.8787 2.89920   2
  -5   2   4 52.1289 3.36290   3
   5   2  -4 54.1666 3.54728   1
   5   2  -4 55.5108 3.00638   4
   5   2  -4 47.1870 3.18148   3
   5   2  -4 53.0512 3.51821   5
  -5   2   4 57.2251 2.37932   2
   4  -2  -4 59.5143 3.41177   5
   4  -2  -4 59.1023 3.28427   4
  -4  -2   4 53.5744 2.89304   2
   4  -2  -4 53.8203 3.44218   1
  -4   2   4 54.1364 3.23406   3
   4   2  -4 54.2302 3.03989   4
   4   2  -4 53.7819 3.10742   3
   4   2  -4 57.1993 3.39200   5
  -4   2   4 57.8522 2.44254   2
   4   2  -4 57.2833 3.54977   1
  -3  -2   4 87.0787 3.88617   3
   3  -2  -4 87.5518 4.16328   5
   3  -2  -4 84.0800 4.21028   4
   3  -2  -4 84.9425 4.40841   1
  -3  -2   4 89.7364 3.98612   2
   3   2  -4 78.8449 4.09923   5
   3   2  -4 79.0744 4.06979   4
   3   2  -4 83.3437 4.41004   1
  -3   2   4 85.3459 4.12047   3
  -3   2   4 89.8874 3.54840   2
   3   2  -4 86.0072 3.90313   3
  -2  -2   4 234.776 9.34922   2
   2  -2  -4 229.934 9.62289   1
   2  -2  -4 245.299 9.68569   4
  -2  -2   4 231.761 8.92047   3
   2  -2  -4 233.568 9.27608   5
   2   2  -4 252.114 9.68739   4
  -2   2   4 244.743 9.34812   3
   2   2  -4 239.633 8.96266   3
   2   2  -4 249.005 9.37606   5
   2   2  -4 237.363 9.78904   1
  -2   2   4 252.294 9.06376   2
  -1  -2   4 8.35152 1.14356   2
   1  -2  -4 11.2827 0.84748   5
   1  -2  -4 12.9568 1.47957   4
   1  -2  -4 10.4357 1.25042   1
  -1  -2   4 11.8188 0.61337   3
   1   2  -4 13.3662 1.54267   4
  -1   2   4 11.8878 1.01253   2
   1   2  -4 12.5309 0.98322   5
  -1   2   4 11.3390 1.01141   3
   1   2  -4 12.9674 1.57816   1
   0  -2  -4 6.55324 0.88897   1
   0  -2   4 6.31845 1.02047   2
   0  -2  -4 7.39387 1.08028   4
   0   2  -4 8.73751 0.87716   5
   0   2  -4 8.82163 1.28095   1
   0   2   4 8.07342 0.53048   5
   0   2  -4 8.51423 1.25885   4
   0   2   4 6.15894 0.93610   2
   0   2   4 8.10320 0.99537   3
  -1  -2  -4 1209.55 41.4834   1
  -1  -2  -4 1161.75 42.3246   2
  -1  -2  -4 1186.64 42.1054   4
   1  -2   4 1151.87 42.1377   2
   1  -2   4 1164.55 41.2677   3
  -1   2  -4 1181.98 41.3732   5
   1   2   4 1180.10 41.8414   3
  -1   2  -4 1245.66 42.4847   4
  -1   2  -4 1193.70 42.1203   1
   1   2   4 1158.66 41.0440   5
   1   2   4 1163.85 42.1104   2
  -2  -2  -4 4.94500 1.07690   2
   2  -2   4 6.41226 0.82305   3
  -2  -2  -4 4.95937 0.88770   4
   2  -2   4 5.18561 1.00375   2
  -2  -2  -4 6.24621 0.54524   1
  -2   2  -4 5.99305 1.04716   1
  -2   2  -4 5.33140 1.08017   4
   2   2   4 5.76105 0.61719   5
   2   2   4 4.49557 0.93817   2
   2   2   4 4.87864 0.95873   3
  -2   2  -4 6.02921 0.72056   5
  -3  -2  -4 12.6524 1.77593   2
  -3  -2  -4 12.1459 1.42184   4
   3  -2   4 15.2033 1.30152   3
   3  -2   4 15.6591 1.59942   4
  -3  -2  -4 14.2131 0.80927   1
   3  -2   4 15.2814 1.14733   5
   3  -2   4 15.7817 1.81279   2
   3   2   4 14.1446 1.67083   3
  -3   2  -4 14.3556 1.58257   1
   3   2   4 16.1084 1.90340   2
   3   2   4 13.3477 1.03349   5
  -3   2  -4 15.2796 1.80973   4
  -3   2  -4 15.2241 1.18030   5
   4  -2   4 -0.0463 0.39385   3
   4  -2   4 0.19959 0.38883   1
  -4  -2  -4 -0.0155 0.25336   1
   4  -2   4 -0.1444 0.47709   2
  -4  -2  -4 0.37443 0.50991   2
   4  -2   4 -0.2135 0.24693   4
   4  -2   4 0.04529 0.39077   5
  -4  -2  -4 -0.4007 0.42079   4
  -4   2  -4 -0.3429 0.48226   4
   4   2   4 -0.5447 0.31368   2
   4   2   4 0.03055 0.51849   3
  -4   2  -4 -0.0886 0.46459   1
   4   2   4 -0.1582 0.35555   5
   5  -2   4 42.4652 2.93455   3
   5  -2   4 42.6427 2.63692   5
   5  -2   4 44.8937 2.62911   4
   5  -2   4 39.3277 2.84973   2
  -5  -2  -4 42.4583 3.25666   2
   5  -2   4 41.4445 2.46199   1
  -5  -2  -4 41.7707 2.43426   4
  -5   2  -4 38.7120 2.62186   1
   5   2   4 39.9627 2.54754   5
  -5   2  -4 37.8366 2.80009   4
  -5   2  -4 39.3285 3.05185   2
   5   2   4 37.5346 2.91393   3
   6  -2   4 71.7324 4.35986   3
  -6  -2  -4 67.9360 4.61411   2
   6  -2   4 70.7839 4.24889   2
   6  -2   4 63.3099 3.87236   5
   6  -2   4 76.2649 3.81126   4
   6  -2   4 66.5329 3.63486   1
  -6   2  -4 82.7079 4.16961   1
   6   2   4 62.9909 4.31389   3
  -6   2  -4 69.5592 4.10835   4
  -6   2  -4 63.3424 4.31907   2
   6   2   4 69.7368 3.96782   5
  -7  -2  -4 13.7701 2.35186   2
   7  -2   4 12.4270 1.66718   1
   7  -2   4 14.5837 2.24091   2
   7  -2   4 15.7956 2.38611   3
   7  -2   4 17.7838 1.96028   4
   7  -2   4 15.8670 2.20822   5
  -7   2  -4 16.7438 2.16026   1
   7   2   4 11.1182 1.90934   5
  -7   2  -4 14.7416 2.03174   4
   7   2   4 8.13623 2.01683   3
  -7   2  -4 16.4619 2.47391   2
   8  -2   4 7.41914 1.69467   5
  -8  -2  -4 7.71204 1.86999   2
   8  -2   4 10.9416 2.23120   3
   8  -2   4 11.7463 2.15678   2
   8   2   4 11.6444 2.32183   3
  -8   2  -4 9.99615 2.12344   2
   8   2   4 12.2620 2.04189   5
   9  -2   4 53.4994 4.08244   5
  -9  -2  -4 53.7646 4.30204   2
   9  -2   4 51.9145 4.50964   3
   9   2   4 52.8048 4.04602   5
   9   2   4 51.4915 4.47664   3
  -9   2  -4 53.8205 4.31405   2
 -10  -2  -4 9.15620 2.12404   2
  10  -2   4 9.54768 2.55767   3
  10   2   4 14.0595 2.85988   3
 -10   2  -4 10.1271 2.21627   2
  11  -2   4 17.0176 3.24346   3
 -11  -2  -4 16.1884 3.09249   2
  11   2   4 15.1385 3.25556   3
  12  -3  -4 1.64850 1.59283   5
 -12  -3   4 -0.6583 1.15910   3
  12  -3  -4 3.91768 2.46868   3
  12  -3  -4 -0.0796 1.97876   1
  12   3  -4 3.38319 1.69565   3
 -12   3   4 0.55549 1.88299   3
  12   3  -4 4.41846 2.12008   1
  12   3  -4 4.12127 1.88880   5
  11  -3  -4 1.28878 1.35551   1
  11  -3  -4 4.94030 2.30622   3
  11  -3  -4 0.39614 1.26565   5
 -11  -3   4 0.10044 1.08661   3
  11   3  -4 1.32302 1.43305   5
  11   3  -4 0.77449 1.24799   3
  11   3  -4 3.58712 1.58920   1
 -11   3   4 -0.8716 1.62797   3
  10  -3  -4 8.46776 2.55855   5
  10  -3  -4 4.09974 1.74956   3
  10  -3  -4 6.90113 2.17273   1
  10   3  -4 3.77881 1.92622   5
 -10   3   4 2.71839 1.61240   3
  10   3  -4 6.33993 2.11802   1
  10   3  -4 2.33094 1.37700   3
   9  -3  -4 13.3483 2.62663   1
   9  -3  -4 8.91286 2.24989   5
   9  -3  -4 10.5836 2.38370   3
   9   3  -4 11.9804 2.60343   5
   9   3  -4 8.44950 2.06698   3
   9   3  -4 10.1904 2.20220   1
  -9   3   4 12.0985 2.47217   3
   8  -3  -4 13.8267 2.49145   3
   8  -3  -4 13.4862 2.62401   5
   8  -3  -4 11.7466 2.59044   1
  -8  -3   4 14.2570 1.92261   2
   8  -3  -4 12.1439 1.82157   4
   8   3  -4 11.2692 2.35754   1
   8   3  -4 11.5630 2.32430   5
   8   3  -4 13.1140 2.36439   3
  -8   3   4 11.6296 2.31522   3
   7  -3  -4 9.32879 1.95967   1
   7  -3  -4 6.44537 1.67141   5
   7  -3  -4 5.59683 1.27996   4
  -7  -3   4 3.87534 1.05788   2
   7  -3  -4 8.96257 1.95258   3
   7   3  -4 7.42233 1.88078   1
   7   3  -4 5.49660 1.59653   5
  -7   3   4 4.04021 1.47583   3
   7   3  -4 5.84219 1.59648   3
   6  -3  -4 173.023 8.24559   3
   6  -3  -4 174.059 8.39898   1
  -6  -3   4 173.394 7.39829   2
   6  -3  -4 176.262 8.28077   5
   6  -3  -4 173.267 7.70012   4
   6   3  -4 168.880 7.13899   4
  -6   3   4 165.233 8.06384   3
   6   3  -4 171.165 8.23682   5
   6   3  -4 162.765 8.08778   1
   6   3  -4 176.101 8.04566   3
   5  -3  -4 18.0449 2.07472   4
   5  -3  -4 14.9852 2.29758   1
   5  -3  -4 18.7238 2.32417   5
  -5  -3   4 17.5029 1.82586   2
   5   3  -4 19.9918 2.51282   1
  -5   3   4 19.7129 2.28653   3
   5   3  -4 18.2064 2.09096   3
   5   3  -4 21.3686 2.47850   5
   5   3  -4 16.6765 1.74920   4
   4  -3  -4 353.065 14.5275   1
   4  -3  -4 357.987 14.3071   5
   4  -3  -4 363.750 14.2063   4
  -4  -3   4 376.283 13.9204   2
   4   3  -4 348.885 14.2643   5
   4   3  -4 355.568 13.9522   3
  -4   3   4 362.730 14.2708   3
  -4   3   4 375.503 12.8862   2
   4   3  -4 379.145 14.6199   1
   4   3  -4 361.769 13.8900   4
   3  -3  -4 -0.3313 0.39752   5
   3  -3  -4 0.27321 0.41697   4
  -3  -3   4 -0.1168 0.37032   2
   3  -3  -4 -0.1019 0.39781   1
   3   3  -4 -0.0914 0.47046   5
  -3   3   4 0.05548 0.21047   2
   3   3  -4 0.35239 0.61533   1
   3   3  -4 -0.6019 0.44602   4
  -3   3   4 0.12732 0.37006   3
   3   3  -4 0.22905 0.33600   3
   2  -3  -4 55.8796 2.88899   5
   2  -3  -4 55.8225 3.21449   4
   2  -3  -4 55.5736 2.68891   2
  -2  -3   4 60.2704 3.07494   2
   2  -3  -4 57.3356 3.18648   1
   2   3  -4 54.8395 2.54802   3
  -2   3   4 64.7714 3.11413   3
  -2   3   4 59.8714 2.63420   2
   2   3  -4 55.4208 3.15253   4
   2   3  -4 57.4625 3.00278   5
   2   3  -4 64.7827 3.49320   1
   1  -3  -4 -0.0443 0.20401   5
  -1  -3   4 -0.2438 0.26237   2
   1  -3  -4 -0.2646 0.29234   4
   1  -3  -4 0.13107 0.34381   2
  -1  -3   4 0.13275 0.07942   3
   1  -3  -4 0.04284 0.38383   1
  -1   3   4 1.21648 0.51503   3
   1   3  -4 -0.1667 0.32000   4
  -1   3   4 0.41603 0.28202   5
   1   3  -4 -0.4614 0.37321   5
  -1   3   4 -0.3635 0.24303   2
   1   3  -4 -0.2123 0.46199   1
   0  -3  -4 164.559 6.99117   4
   0  -3   4 172.605 7.01823   2
   0  -3  -4 159.627 6.90653   2
   0  -3  -4 168.313 6.62427   1
   0   3  -4 169.631 7.18146   1
   0   3  -4 165.848 6.56698   5
   0   3   4 167.164 6.80821   2
   0   3   4 170.297 6.82415   3
   0   3   4 167.071 6.28686   5
   0   3  -4 165.179 7.22543   4
   1  -3   4 902.585 31.7020   3
  -1  -3  -4 916.947 32.9232   2
   1  -3   4 936.356 32.6698   4
   1  -3   4 913.097 32.7771   2
  -1  -3  -4 921.954 32.6706   4
  -1  -3  -4 916.577 31.9736   1
  -1   3  -4 914.170 32.1494   5
   1   3   4 912.831 31.8673   5
  -1   3  -4 866.997 31.6767   3
   1   3   4 916.170 32.5752   3
  -1   3  -4 894.226 33.0611   4
  -1   3  -4 890.729 32.7994   1
   1   3   4 903.142 32.7124   2
  -2  -3  -4 102.592 5.32769   2
   2  -3   4 115.992 5.25640   2
  -2  -3  -4 115.446 5.01714   4
  -2  -3  -4 110.196 4.09259   1
   2  -3   4 114.551 4.59679   3
   2  -3   4 118.174 5.12440   4
  -2   3  -4 113.849 4.67246   5
   2   3   4 104.998 5.19829   2
  -2   3  -4 107.455 5.13711   1
  -2   3  -4 108.712 5.41185   4
   2   3   4 112.116 4.44336   5
   2   3   4 118.963 5.16009   3
  -3  -3  -4 1.79648 0.78936   2
   3  -3   4 3.25903 0.82532   4
  -3  -3  -4 1.76050 0.59245   4
   3  -3   4 2.01690 0.61530   3
   3  -3   4 2.43291 0.60329   5
   3  -3   4 2.61871 0.79061   2
   3   3   4 2.23631 0.75277   3
   3   3   4 3.65053 0.93836   2
  -3   3  -4 2.27099 0.59944   5
   3   3   4 3.28184 0.65806   5
  -3   3  -4 1.34106 0.76711   4
  -3   3  -4 1.86195 0.80862   1
   4  -3   4 0.77834 0.53395   4
  -4  -3  -4 0.04650 0.46459   2
  -4  -3  -4 0.96809 0.53548   4
   4  -3   4 0.44284 0.49784   3
   4  -3   4 0.30360 0.48550   2
   4  -3   4 0.01669 0.38270   1
   4  -3   4 0.83638 0.53117   5
   4   3   4 -0.0251 0.41894   5
  -4   3  -4 0.22886 0.46242   5
   4   3   4 -0.4699 0.34064   3
  -4   3  -4 0.08036 0.37421   1
  -4   3  -4 -0.3414 0.58974   4
   5  -3   4 -0.5441 0.43398   3
  -5  -3  -4 -0.4553 0.71923   2
   5  -3   4 -0.1264 0.43401   1
   5  -3   4 -0.0080 0.56094   2
   5  -3   4 0.37851 0.58599   4
  -5  -3  -4 -1.1786 0.31952   4
   5  -3   4 0.24955 0.51999   5
  -5   3  -4 -0.7105 0.53904   1
   5   3   4 -0.0730 0.51393   3
  -5   3  -4 -0.5834 0.53756   4
   5   3   4 -0.1295 0.38424   5
  -5   3  -4 0.23407 0.56646   5
   6  -3   4 21.1821 2.20173   1
   6  -3   4 20.9040 2.55942   2
   6  -3   4 20.2316 2.32356   5
  -6  -3  -4 27.5253 3.19947   2
   6  -3   4 20.7200 2.55725   3
   6  -3   4 21.3832 2.20730   4
  -6   3  -4 17.7471 2.40820   4
   6   3   4 23.2761 2.82709   3
  -6   3  -4 20.4567 2.43072   1
   6   3   4 19.4672 2.31828   5
  -6   3  -4 22.5010 2.86330   2
   7  -3   4 22.4529 2.26509   4
   7  -3   4 16.5612 2.03072   1
   7  -3   4 14.1976 2.29411   3
  -7  -3  -4 15.2580 2.46193   2
   7  -3   4 15.9877 2.33204   2
   7  -3   4 14.8085 2.14339   5
  -7   3  -4 25.8301 2.82347   1
  -7   3  -4 12.7765 2.26721   2
   7   3   4 20.5746 2.53279   5
   7   3   4 14.3139 2.46636   3
  -7   3  -4 20.0289 2.49438   4
   8  -3   4 16.5325 2.68501   3
   8  -3   4 14.1800 2.30026   5
  -8  -3  -4 26.0520 3.46151   2
   8  -3   4 15.7845 2.41646   2
  -8   3  -4 16.8054 2.61219   2
   8   3   4 13.8980 2.67533   3
   8   3   4 16.9763 2.57430   5
  -9  -3  -4 0.82933 1.14364   2
   9  -3   4 0.22655 0.94351   3
   9  -3   4 0.51567 1.03335   5
   9   3   4 1.74376 1.27370   5
  -9   3  -4 1.65084 1.16695   2
   9   3   4 -0.7915 1.04607   3
  10  -3   4 11.1090 2.53691   3
 -10  -3  -4 18.2448 3.22240   2
  10   3   4 13.7779 2.95709   3
  11  -3   4 2.04037 1.66845   3
 -11  -3  -4 -0.6664 1.02291   2
  11   3   4 -0.7015 1.41506   3
 -11   3  -4 -0.1822 1.14911   3
  12  -4  -4 4.51770 2.33942   1
  12  -4  -4 6.17103 2.42247   3
 -12  -4   4 3.33991 1.65037   3
  12  -4  -4 7.17922 2.84792   5
  12   4  -4 7.84181 3.47051   5
 -12   4   4 7.58002 2.43927   3
  12   4  -4 5.23133 2.15063   3
  11  -4  -4 10.6532 2.74061   3
  11  -4  -4 15.2224 3.38862   1
  11  -4  -4 15.4296 3.30730   5
  11   4  -4 13.1544 2.96674   3
  11   4  -4 14.9995 3.22489   5
  11   4  -4 14.6916 2.90738   1
 -11   4   4 16.6355 3.32662   3
  10  -4  -4 88.4144 6.41019   3
  10  -4  -4 85.8972 6.10329   1
  10  -4  -4 81.3410 6.20190   5
  10   4  -4 79.4378 5.93035   3
 -10   4   4 87.4584 6.25409   3
  10   4  -4 71.5218 5.78742   5
  10   4  -4 71.3492 5.46997   1
   9  -4  -4 3.09636 1.62690   1
   9  -4  -4 0.23282 0.92842   5
   9  -4  -4 0.82170 0.97667   4
   9  -4  -4 1.52828 1.52687   3
  -9  -4   4 0.70607 0.97464   2
   9   4  -4 0.40079 1.13669   1
   9   4  -4 1.56126 1.13315   5
   9   4  -4 2.61037 1.48638   3
  -9   4   4 -0.0858 1.18586   3
   8  -4  -4 33.6916 4.07727   5
   8  -4  -4 40.9265 4.34211   3
   8  -4  -4 34.1115 2.91526   4
   8  -4  -4 41.3179 4.54575   1
  -8  -4   4 32.8137 2.71282   2
  -8   4   4 33.1368 3.81603   3
   8   4  -4 39.5919 4.33768   5
   8   4  -4 36.1950 3.94147   3
   8   4  -4 32.8008 3.82242   1
   7  -4  -4 26.0785 3.37455   5
   7  -4  -4 24.9377 2.73978   4
   7  -4  -4 27.7313 3.35243   3
  -7  -4   4 27.9879 2.25063   2
   7  -4  -4 24.5024 3.24119   1
   7   4  -4 24.0439 3.20158   5
   7   4  -4 25.1580 2.99199   3
  -7   4   4 31.1136 3.38992   3
   7   4  -4 29.0827 3.35360   1
  -6  -4   4 0.21243 0.52216   2
   6  -4  -4 -0.1257 0.63576   1
   6  -4  -4 0.74309 0.80193   4
   6  -4  -4 -0.3238 0.58864   5
   6   4  -4 -1.8589 0.60836   1
  -6   4   4 -0.2588 0.55444   3
   6   4  -4 -0.9884 0.87394   5
   6   4  -4 0.38041 0.51568   4
   6   4  -4 0.74634 0.79419   3
   5  -4  -4 1.29782 0.73266   4
  -5  -4   4 4.06608 1.01308   2
   5  -4  -4 1.87839 0.98785   1
   5  -4  -4 3.84116 1.10533   5
   5   4  -4 2.70268 1.02925   5
   5   4  -4 3.05465 1.23080   1
  -5   4   4 3.76216 1.12849   3
   5   4  -4 3.05788 0.87145   4
   5   4  -4 2.31616 0.86537   3
   4  -4  -4 16.6482 1.96432   4
   4  -4  -4 21.5956 2.31431   5
  -4  -4   4 15.6449 1.76324   2
   4  -4  -4 16.0400 2.20392   1
   4   4  -4 16.7385 1.75593   4
   4   4  -4 15.6428 2.01955   5
   4   4  -4 14.1149 1.67103   3
  -4   4   4 16.9555 2.00101   3
   4   4  -4 15.2930 2.14572   1
   3  -4  -4 66.0316 3.53116   5
   3  -4  -4 66.6350 3.69405   4
   3  -4  -4 65.4894 2.70153   2
  -3  -4   4 70.4803 3.55549   2
   3  -4  -4 59.7842 3.67656   1
   3   4  -4 68.3201 3.59373   4
   3   4  -4 68.0557 3.25166   3
   3   4  -4 75.5519 3.77097   5
  -3   4   4 65.9185 3.58701   3
   3   4  -4 62.7935 3.90164   1
   2  -4  -4 277.860 10.1030   2
  -2  -4   4 275.233 10.6844   2
   2  -4  -4 255.757 10.4176   5
   2  -4  -4 265.858 10.8186   1
   2  -4  -4 282.398 10.9404   4
   2   4  -4 274.381 10.6548   5
  -2   4   4 281.474 10.6873   3
   2   4  -4 270.600 11.1393   1
   2   4  -4 265.591 9.98700   3
   2   4  -4 275.734 10.8597   4
  -2   4   4 256.414 10.4910   5
   1  -4  -4 15.4653 1.37855   1
   1  -4  -4 13.9219 1.67908   4
   1  -4  -4 17.8894 1.22390   5
  -1  -4   4 16.9456 1.45658   2
   1  -4  -4 16.9856 1.29107   2
   1   4  -4 16.5886 1.82887   4
   1   4  -4 16.5517 1.97726   1
  -1   4   4 16.0944 1.38996   3
  -1   4   4 17.5111 1.26487   2
  -1   4   4 16.2988 1.22374   5
   1   4  -4 17.2437 1.48685   5
   1   4  -4 16.8083 0.75240   3
   0  -4   4 280.415 11.1138   2
   0  -4   4 288.683 11.0467   4
   0  -4  -4 284.198 10.7153   1
   0  -4  -4 275.737 11.1185   4
   0  -4  -4 278.174 11.0149   2
   0   4   4 293.773 10.9567   2
   0   4   4 278.517 10.9988   3
   0   4   4 292.316 10.5417   5
   0   4  -4 278.952 10.8009   5
   0   4  -4 285.453 11.4661   4
   0   4  -4 280.348 11.3764   1
   1  -4   4 81.3575 4.17593   2
  -1  -4  -4 83.1921 3.53026   1
   1  -4   4 92.1081 4.22529   4
  -1  -4  -4 88.0773 4.32394   2
  -1  -4  -4 86.4633 4.15022   4
  -1   4  -4 82.9768 4.36539   1
  -1   4  -4 91.3327 4.59545   4
   1   4   4 84.7327 4.16280   3
  -1   4  -4 87.4324 3.25475   3
  -1   4  -4 90.1240 3.91246   5
   1   4   4 84.0604 4.16240   2
   1   4   4 84.5511 3.66715   5
  -2  -4  -4 43.5348 2.81979   2
   2  -4   4 43.9671 2.60704   4
  -2  -4  -4 45.9643 2.53844   4
   2  -4   4 42.1757 2.10995   3
   2  -4   4 41.2367 2.66621   2
   2   4   4 41.2367 2.14788   5
  -2   4  -4 37.0250 2.64464   1
  -2   4  -4 41.0614 2.07784   3
  -2   4  -4 46.7724 2.99500   4
   2   4   4 43.8843 2.68209   3
  -2   4  -4 43.0749 2.34142   5
  -3  -4  -4 52.3281 3.47681   2
  -3  -4  -4 63.9867 3.09233   4
   3  -4   4 55.8327 3.36393   2
   3  -4   4 60.3397 3.20749   1
   3  -4   4 55.8593 3.22015   4
   3  -4   4 59.2782 3.01048   3
   3   4   4 57.2586 2.86276   5
  -3   4  -4 59.3401 3.08315   5
  -3   4  -4 59.5266 3.45835   1
   3   4   4 62.8018 3.53957   3
  -3   4  -4 57.5060 2.97358   3
  -3   4  -4 53.3075 3.51223   4
   4  -4   4 5.72218 1.04932   5
  -4  -4  -4 5.35709 1.36120   2
   4  -4   4 6.99272 1.21002   1
   4  -4   4 4.97233 1.13278   2
  -4  -4  -4 4.45441 0.85812   4
   4  -4   4 6.25565 1.12321   3
   4  -4   4 7.13689 1.24677   4
  -4   4  -4 4.60466 1.16663   1
  -4   4  -4 7.81168 1.26917   5
  -4   4  -4 4.79833 1.25076   4
   4   4   4 6.57647 1.32961   3
   4   4   4 6.49017 1.10490   5
  -4   4  -4 6.77848 1.16149   3
   5  -4   4 14.2088 1.80522   1
   5  -4   4 12.3130 1.72800   4
   5  -4   4 13.6366 1.77475   5
  -5  -4  -4 14.2810 1.42919   4
  -5  -4  -4 13.8355 2.15019   2
   5  -4   4 11.1225 1.73212   3
   5  -4   4 14.7291 2.05084   2
  -5   4  -4 17.8304 2.22190   1
  -5   4  -4 11.0211 1.91265   4
   5   4   4 15.2054 2.20545   3
  -5   4  -4 15.3293 1.90579   5
   5   4   4 18.6170 1.96623   5
   6  -4   4 177.825 7.84110   4
   6  -4   4 176.182 7.80173   1
  -6  -4  -4 191.935 8.88692   2
   6  -4   4 169.655 7.92369   5
   6  -4   4 174.453 8.15041   2
   6  -4   4 169.360 8.19946   3
  -6   4  -4 177.711 8.40919   4
  -6   4  -4 172.485 8.05351   5
   6   4   4 173.849 8.59920   3
  -6   4  -4 177.799 8.52737   2
   6   4   4 171.216 7.88447   5
  -6   4  -4 186.467 8.28621   1
   7  -4   4 0.46953 0.86137   3
   7  -4   4 -1.7855 0.62895   2
  -7  -4  -4 1.61836 1.09563   2
   7  -4   4 0.43116 0.63060   1
   7  -4   4 0.93353 0.98765   5
   7  -4   4 0.30539 0.77262   4
   7   4   4 0.22799 0.81348   5
  -7   4  -4 0.53881 0.98274   2
  -7   4  -4 0.28988 0.93982   1
  -7   4  -4 0.47369 0.84797   5
   7   4   4 0.51287 0.85222   3
  -7   4  -4 -0.0652 0.91741   4
  -8  -4  -4 0.69453 1.11723   2
   8  -4   4 0.12621 0.70516   1
   8  -4   4 -0.6338 0.68689   4
   8  -4   4 -1.1350 0.66838   2
   8  -4   4 0.00941 0.75885   5
   8  -4   4 -0.9589 0.75916   3
  -8   4  -4 -0.1212 0.95873   1
   8   4   4 -0.3131 0.68654   5
  -8   4  -4 -0.4979 0.84522   3
  -8   4  -4 -0.5203 0.95691   4
   8   4   4 -0.9367 1.02613   3
  -8   4  -4 0.06592 0.93557   2
  -8   4  -4 1.03868 1.00415   5
   9  -4   4 18.2640 2.66256   2
  -9  -4  -4 18.8786 3.02893   2
   9  -4   4 19.0840 2.88791   5
   9  -4   4 18.5703 2.96283   3
  -9   4  -4 22.3081 3.08855   5
   9   4   4 15.5575 2.89088   3
  -9   4  -4 23.6209 3.38804   3
  -9   4  -4 20.8184 3.07122   2
  10  -4   4 20.8744 3.44674   3
 -10  -4  -4 25.9662 3.74773   2
  10  -4   4 16.6103 2.83385   5
 -10   4  -4 25.1096 3.51425   5
  10   4   4 21.6703 3.60938   3
 -10   4  -4 25.1698 3.78453   3
  11  -4   4 23.0320 3.85944   3
 -11  -4  -4 23.2607 3.55652   2
  11   4   4 25.9403 4.17254   3
 -11   4  -4 20.6042 3.69933   3
  12  -5  -4 2.67384 1.91441   1
  12   5  -4 5.30372 2.30893   3
  11  -5  -4 25.1437 4.14706   1
  11  -5  -4 22.0474 3.97569   5
  11   5  -4 28.0057 4.30024   5
 -11   5   4 26.9172 4.20792   3
  11   5  -4 24.0831 3.83194   1
  11   5  -4 28.7324 4.14360   3
  10  -5  -4 4.58762 2.25236   5
  10  -5  -4 2.26885 1.88479   1
  10   5  -4 2.49426 1.55533   3
  10   5  -4 1.00252 1.47763   5
 -10   5   4 2.01733 1.30395   3
  10   5  -4 2.68358 1.33137   1
   9  -5  -4 59.4215 5.15332   1
  -9  -5   4 65.6308 4.28133   2
   9  -5  -4 76.6375 4.72118   4
   9  -5  -4 63.7314 5.04291   5
   9   5  -4 66.7924 4.92300   1
   9   5  -4 66.6667 5.25424   5
  -9   5   4 69.3573 5.27587   3
   9   5  -4 56.7563 4.66829   3
   8  -5  -4 0.74355 0.96648   4
  -8  -5   4 0.18255 0.78832   2
   8  -5  -4 3.09202 1.29360   5
   8  -5  -4 0.56298 1.40466   1
   8   5  -4 3.49172 1.48654   3
   8   5  -4 2.46237 1.27517   1
  -8   5   4 0.73471 0.93442   3
   8   5  -4 1.37466 1.28658   5
   7  -5  -4 27.2369 3.41421   1
   7  -5  -4 23.1420 2.72099   4
   7  -5  -4 15.2465 2.55288   5
  -7  -5   4 20.4097 2.33937   2
   7   5  -4 18.0803 2.74322   5
   7   5  -4 15.8894 2.47073   1
   7   5  -4 20.3083 2.72281   3
  -7   5   4 16.2307 2.68759   3
  -6  -5   4 40.5181 2.73394   2
   6  -5  -4 30.9156 3.12574   4
   6  -5  -4 35.7641 3.79184   1
   6  -5  -4 32.9934 2.93874   5
   6   5  -4 34.3176 2.85405   3
   6   5  -4 31.6631 3.46455   1
  -6   5   4 44.3083 3.26205   3
   6   5  -4 29.7346 3.42561   5
   5  -5  -4 16.5087 2.27375   5
   5  -5  -4 16.5243 2.39264   1
  -5  -5   4 14.6138 1.87248   2
   5  -5  -4 16.1441 2.06688   4
   5   5  -4 15.4675 2.21950   5
   5   5  -4 19.8711 1.92261   4
   5   5  -4 17.2476 2.08096   3
  -5   5   4 18.0332 2.30633   3
   5   5  -4 22.1456 2.78414   1
  -4  -5   4 35.6620 2.49225   2
   4  -5  -4 31.2456 2.49462   4
   4  -5  -4 33.5911 2.79642   1
   4  -5  -4 31.6630 2.47945   5
   4   5  -4 39.6297 2.47032   3
   4   5  -4 34.9634 2.34567   4
  -4   5   4 36.0849 2.69854   3
   4   5  -4 34.2798 2.89909   1
   4   5  -4 38.7321 2.80454   5
   3  -5  -4 127.857 6.16912   4
   3  -5  -4 135.843 6.37480   1
  -3  -5   4 139.393 6.08470   2
   3  -5  -4 129.028 4.90249   2
   3  -5  -4 132.607 6.04808   5
   3   5  -4 128.926 5.60917   3
  -3   5   4 137.613 6.16064   3
  -3   5   4 124.021 6.04389   5
   3   5  -4 130.256 6.49360   1
   3   5  -4 140.380 6.24978   5
   3   5  -4 139.222 6.09365   4
  -2  -5   4 178.121 8.23455   2
   2  -5  -4 199.587 8.50495   1
   2  -5  -4 190.689 8.49880   4
   2  -5  -4 199.294 8.16041   5
   2  -5  -4 204.026 7.67976   2
   2   5  -4 221.061 7.74719   3
   2   5  -4 200.022 8.37414   5
  -2   5   4 204.465 8.27773   5
   2   5  -4 195.051 8.47935   4
  -2   5   4 209.591 8.43996   3
   2   5  -4 210.816 8.95706   1
   1  -5  -4 341.925 13.5348   1
   1  -5  -4 346.648 13.8002   4
   1  -5  -4 358.608 13.3013   2
  -1  -5   4 365.312 13.7728   2
  -1  -5   4 370.430 13.6118   4
  -1   5   4 372.238 13.7252   3
   1   5  -4 333.320 14.0383   1
   1   5  -4 362.962 14.0452   4
   1   5  -4 355.569 13.6297   5
   1   5  -4 343.239 12.6439   3
  -1   5   4 361.058 13.3730   5
   0  -5  -4 0.00754 0.31952   1
   0  -5   4 0.48235 0.44561   4
   0  -5   4 0.84550 0.63000   2
   0  -5  -4 0.38439 0.36219   2
   0  -5  -4 0.36484 0.41940   4
   0   5   4 0.42911 0.53606   3
   0   5  -4 1.90982 0.94654   1
   0   5  -4 -0.1073 0.33052   4
   0   5  -4 0.47266 0.13811   3
   0   5   4 0.81128 0.49828   5
   0   5  -4 1.50530 0.70637   5
   1  -5   4 41.7624 2.54757   4
  -1  -5  -4 38.2572 2.52055   2
  -1  -5  -4 40.4243 2.45980   4
  -1  -5  -4 37.9025 1.92708   1
   1  -5   4 37.4463 2.49276   2
  -1   5  -4 42.6209 1.74067   3
  -1   5  -4 40.9123 2.38994   5
   1   5   4 39.5413 2.57623   3
  -1   5  -4 38.5738 2.74531   1
  -1   5  -4 34.9745 2.69020   4
   1   5   4 40.7001 2.23860   5
  -2  -5  -4 40.7783 2.36906   4
   2  -5   4 38.4652 2.55137   2
  -2  -5  -4 40.2268 2.72124   2
   2  -5   4 34.4953 2.43014   4
   2   5   4 36.7102 2.15481   5
  -2   5  -4 38.4334 2.29859   5
   2   5   4 35.9993 1.44020   1
  -2   5  -4 29.6747 2.49151   1
  -2   5  -4 37.9822 2.88389   4
  -2   5  -4 34.3219 1.86523   3
   2   5   4 41.3362 2.65204   3
  -3  -5  -4 32.2760 2.04028   4
   3  -5   4 29.1827 2.26417   4
  -3  -5  -4 31.0138 2.48113   2
   3  -5   4 32.2428 1.99605   3
   3  -5   4 32.8567 2.28716   1
   3  -5   4 32.3730 2.37970   2
  -3   5  -4 33.5632 2.67770   4
  -3   5  -4 29.1514 2.42225   1
  -3   5  -4 29.3179 2.11069   5
   3   5   4 25.9128 2.26767   3
   3   5   4 28.2048 1.91791   5
  -3   5  -4 32.8754 2.00870   3
   4  -5   4 5.28216 1.12535   4
   4  -5   4 4.51446 1.02725   1
   4  -5   4 4.86502 1.04737   3
   4  -5   4 2.34138 0.82011   2
  -4  -5  -4 5.50322 0.91545   4
   4  -5   4 5.99004 1.13239   5
  -4  -5  -4 3.43090 1.09291   2
   4   5   4 4.68464 1.30616   3
   4   5   4 4.21901 0.93793   5
  -4   5  -4 3.42191 1.02925   4
  -4   5  -4 5.18476 1.09485   3
  -4   5  -4 4.38402 1.03508   5
  -4   5  -4 3.65868 1.08879   1
   5  -5   4 -1.1878 0.53096   3
   5  -5   4 -0.4279 0.57760   5
   5  -5   4 -0.2712 0.37832   1
  -5  -5  -4 0.17229 0.70256   2
   5  -5   4 0.21244 0.68317   2
   5  -5   4 0.54843 0.56995   4
  -5   5  -4 2.20368 0.93112   4
  -5   5  -4 -0.5008 0.52820   5
  -5   5  -4 -0.3054 0.46661   1
  -5   5  -4 -0.0716 0.57919   3
   5   5   4 -0.7531 0.42462   3
   5   5   4 -0.1320 0.51940   5
   6  -5   4 80.5388 4.53703   1
   6  -5   4 84.6546 4.60135   4
   6  -5   4 75.8699 4.60880   2
   6  -5   4 82.4584 4.82122   3
  -6  -5  -4 75.8468 5.10978   2
   6  -5   4 84.7315 4.68700   5
  -6   5  -4 83.7297 5.12481   4
   6   5   4 85.7662 4.61855   5
  -6   5  -4 81.1340 4.90773   1
   6   5   4 83.6090 5.25812   3
  -6   5  -4 85.4973 4.84008   3
  -6   5  -4 77.9466 4.65782   5
   7  -5   4 29.5447 2.56445   1
   7  -5   4 31.0061 3.21723   5
  -7  -5  -4 27.8648 3.38557   2
   7  -5   4 30.1060 2.53650   4
   7  -5   4 28.8979 3.12042   2
   7  -5   4 26.2166 3.08431   3
   7   5   4 35.0695 2.80068   5
  -7   5  -4 26.3214 3.07341   4
  -7   5  -4 27.3200 3.16459   3
  -7   5  -4 34.0698 3.57536   1
  -7   5  -4 28.5866 3.40418   2
  -7   5  -4 28.0550 3.15735   5
   7   5   4 26.4707 3.57023   3
   8  -5   4 -0.8710 0.80283   5
   8  -5   4 -0.7253 0.83799   3
   8  -5   4 -0.0479 0.76862   1
   8  -5   4 -0.9576 0.70376   2
   8  -5   4 -0.6883 0.72291   4
  -8  -5  -4 -0.6567 0.67559   2
  -8   5  -4 0.38453 1.09254   1
  -8   5  -4 0.88383 1.07893   5
  -8   5  -4 -0.6307 0.90779   3
   8   5   4 0.54396 0.95332   3
  -8   5  -4 -0.3076 1.01102   2
   8   5   4 -0.7776 0.72416   5
  -8   5  -4 0.38657 1.19438   4
   9  -5   4 13.4604 2.37511   5
   9  -5   4 15.3745 2.82537   3
  -9  -5  -4 17.8857 3.01039   2
  -9   5  -4 14.4819 2.65676   3
  -9   5  -4 19.2269 2.98961   2
   9   5   4 15.8566 3.23749   3
  -9   5  -4 17.9694 2.81519   5
 -10  -5  -4 -1.6942 1.16972   2
  10  -5   4 -0.3325 1.19054   5
  10  -5   4 -1.8091 1.13820   3
 -10   5  -4 1.36504 1.21357   3
 -10   5  -4 1.64869 1.22438   5
  10   5   4 -0.8015 1.20617   3
 -11  -5  -4 5.12718 2.37889   2
  11  -5   4 7.49346 2.47485   3
 -11   5  -4 6.59924 2.40803   3
  11   5   4 4.90157 2.05012   3
  11  -6  -4 7.46727 2.75548   5
  11  -6  -4 10.0046 2.64825   1
  11   6  -4 12.7124 3.09279   5
 -11   6   4 15.2331 3.37625   3
  11   6  -4 13.5236 3.11261   3
  10  -6  -4 18.3257 3.43926   5
  10  -6  -4 14.5550 2.98381   1
 -10  -6   4 11.1845 2.31498   2
  10   6  -4 16.5438 2.98931   3
  10   6  -4 18.5830 3.33050   5
  10   6  -4 8.40088 2.26551   1
 -10   6   4 15.6127 3.02495   3
   9  -6  -4 16.0183 3.11428   1
   9  -6  -4 21.7317 3.42225   5
  -9  -6   4 11.4886 2.15257   2
   9  -6  -4 17.6788 2.69502   4
   9   6  -4 11.2779 2.49055   3
   9   6  -4 16.8081 3.01448   5
  -9   6   4 15.5612 2.85671   3
   9   6  -4 14.6437 2.61735   1
   8  -6  -4 2.89606 1.41285   5
   8  -6  -4 1.26358 1.08044   4
  -8  -6   4 2.55173 1.20848   2
   8  -6  -4 2.23972 1.52924   1
   8   6  -4 -0.1849 0.97180   5
  -8   6   4 0.99805 1.33953   3
   8   6  -4 -0.2096 1.02398   1
   8   6  -4 1.43924 1.32451   3
  -7  -6   4 56.9106 3.65422   2
   7  -6  -4 53.2337 3.77641   4
   7  -6  -4 59.4788 4.52400   1
   7  -6  -4 54.2808 4.22590   5
   7   6  -4 49.2578 4.09444   5
   7   6  -4 51.2078 4.01643   1
   7   6  -4 50.2083 3.85409   3
  -7   6   4 49.8468 4.10164   3
  -6  -6   4 12.7392 1.83823   2
   6  -6  -4 8.26618 1.85479   5
   6  -6  -4 13.1266 2.35332   1
   6  -6  -4 12.0449 1.98775   4
  -6   6   4 12.1951 2.03189   3
   6   6  -4 11.4175 2.04829   5
   6   6  -4 12.5727 1.93498   3
   6   6  -4 8.89676 1.97298   1
   5  -6  -4 78.8322 4.62805   4
   5  -6  -4 78.0808 4.65658   5
  -5  -6   4 83.3089 4.51425   2
   5  -6  -4 83.3306 5.04267   1
   5   6  -4 77.5119 4.40436   3
   5   6  -4 81.5811 4.09044   4
   5   6  -4 81.8240 4.79443   5
  -5   6   4 79.0518 4.70155   3
  -5   6   4 80.3068 4.79578   5
   5   6  -4 84.7300 5.00250   1
   4  -6  -4 156.489 7.24160   5
   4  -6  -4 151.382 7.27938   4
  -4  -6   4 161.046 7.12150   2
   4  -6  -4 162.003 7.60897   1
   4   6  -4 156.534 6.87182   4
   4   6  -4 155.981 7.53378   1
   4   6  -4 156.441 6.86529   3
  -4   6   4 165.666 7.42384   3
  -4   6   4 159.722 7.38832   5
   4   6  -4 139.599 7.20024   5
   3  -6  -4 0.10362 0.20460   2
   3  -6  -4 -0.1511 0.66236   1
   3  -6  -4 -0.0354 0.44664   4
  -3  -6   4 0.37753 0.66886   2
   3  -6  -4 0.13512 0.45567   5
   3   6  -4 -0.1271 0.52730   4
   3   6  -4 0.05136 0.42451   3
  -3   6   4 -0.0609 0.43665   5
  -3   6   4 0.00119 0.48409   3
   3   6  -4 0.43532 0.83948   5
   3   6  -4 -0.5582 0.64675   1
   2  -6  -4 420.447 16.3237   4
   2  -6  -4 425.261 15.8851   5
   2  -6  -4 417.715 16.1923   1
   2  -6  -4 420.670 15.2233   2
  -2  -6   4 419.673 16.1226   2
  -2   6   4 434.379 16.1780   3
  -2   6   4 406.360 15.9460   5
   2   6  -4 425.368 16.2949   4
   2   6  -4 410.991 15.3107   3
   2   6  -4 414.608 16.6098   1
   2   6  -4 416.367 16.1537   5
  -1  -6   4 17.8556 1.82145   4
   1  -6  -4 19.6396 1.62914   1
  -1  -6   4 13.8355 1.76413   2
   1  -6  -4 15.3077 1.31197   2
   1  -6  -4 13.5603 1.74529   4
  -1   6   4 18.6210 1.95231   3
   1   6  -4 18.0675 1.04609   3
   1   6  -4 17.1439 2.27399   1
   1   6  -4 15.4346 1.82151   5
   1   6  -4 12.6987 1.82472   4
  -1   6   4 17.6062 1.48309   5
   0  -6   4 16.4702 1.76549   4
   0  -6  -4 16.3642 1.33194   1
   0  -6   4 18.6718 1.93078   2
   0  -6  -4 16.4812 1.70594   2
   0  -6  -4 19.5086 2.02044   4
   0   6  -4 18.4193 2.15832   4
   0   6  -4 17.5298 2.21923   1
   0   6   4 20.3418 2.14432   3
   0   6  -4 15.6116 1.82566   5
   0   6  -4 15.6144 0.93652   3
   0   6   4 17.3795 1.41792   5
  -1  -6  -4 110.493 5.10077   4
  -1  -6  -4 106.754 5.15948   2
  -1  -6  -4 101.727 4.38594   1
   1  -6   4 106.009 5.16268   2
   1  -6   4 106.510 5.15144   4
  -1   6  -4 110.402 4.23157   3
  -1   6  -4 113.654 5.58175   1
   1   6   4 104.299 5.22192   3
  -1   6  -4 105.828 5.01621   5
   1   6   4 108.775 4.84383   5
  -1   6  -4 117.216 5.71397   4
  -2  -6  -4 362.913 14.4138   2
   2  -6   4 357.130 14.2318   2
   2  -6   4 358.816 14.2426   4
  -2  -6  -4 359.678 13.9073   4
   2   6   4 366.062 13.8101   5
  -2   6  -4 367.294 14.0350   5
   2   6   4 363.846 12.9385   1
   2   6   4 369.926 14.4322   3
  -2   6  -4 345.867 14.5069   1
  -2   6  -4 369.622 13.3434   3
  -2   6  -4 376.829 14.8546   4
   3  -6   4 138.717 6.35336   4
  -3  -6  -4 134.692 5.83708   4
   3  -6   4 128.348 6.22829   2
  -3  -6  -4 141.387 6.63184   2
   3  -6   4 139.112 6.29376   1
  -3   6  -4 132.200 5.70075   3
  -3   6  -4 129.751 6.69829   4
   3   6   4 134.421 5.90351   5
  -3   6  -4 137.699 6.64476   1
   3   6   4 129.598 6.45737   3
  -3   6  -4 133.666 6.12280   5
  -4  -6  -4 3.10481 0.73541   4
   4  -6   4 2.57036 0.89132   1
   4  -6   4 3.10525 0.91252   4
   4  -6   4 1.42935 0.68046   3
   4  -6   4 3.19994 0.95563   2
  -4  -6  -4 1.73343 1.05645   2
  -4   6  -4 2.61366 0.99938   4
   4   6   4 1.49778 0.85241   3
  -4   6  -4 1.59909 0.88216   1
   4   6   4 1.89071 0.73402   5
  -4   6  -4 3.24206 0.88485   3
  -4   6  -4 4.60799 1.09876   5
  -5  -6  -4 44.1159 3.50594   2
   5  -6   4 45.3794 3.20544   1
   5  -6   4 50.2554 3.29188   2
   5  -6   4 44.2294 3.21175   4
   5  -6   4 51.3232 3.29863   3
   5  -6   4 52.1033 3.29858   5
  -5   6  -4 47.3703 3.30903   5
  -5   6  -4 52.7711 3.81706   4
   5   6   4 41.6266 3.43700   3
   5   6   4 52.4332 3.18776   5
  -5   6  -4 49.8039 3.65356   1
  -5   6  -4 47.8228 3.18879   3
   6  -6   4 246.865 10.5942   5
   6  -6   4 235.077 10.4477   4
   6  -6   4 235.736 10.4515   1
   6  -6   4 234.900 10.5032   2
  -6  -6  -4 258.841 11.3360   2
   6  -6   4 253.021 10.7543   3
   6   6   4 239.011 10.4328   5
   6   6   4 238.457 11.2347   3
  -6   6  -4 238.171 11.0553   4
  -6   6  -4 253.566 10.8169   5
  -6   6  -4 244.614 10.6563   3
  -6   6  -4 246.224 10.9898   1
  -7  -6  -4 0.50607 0.81344   2
   7  -6   4 -0.4679 0.75119   2
   7  -6   4 0.53598 0.84292   1
   7  -6   4 0.15768 0.95915   3
   7  -6   4 0.06709 0.76852   4
   7  -6   4 0.74991 0.92410   5
  -7   6  -4 0.52739 1.09922   1
   7   6   4 0.65395 0.91092   3
  -7   6  -4 0.42866 0.96494   4
  -7   6  -4 -0.7328 0.73364   2
  -7   6  -4 0.52022 0.88457   5
   7   6   4 0.43076 0.73855   5
  -7   6  -4 -1.7545 0.75708   3
   8  -6   4 10.3661 2.15685   5
  -8  -6  -4 9.49732 2.34473   2
   8  -6   4 7.54263 1.75842   2
   8  -6   4 12.3306 2.37950   3
   8  -6   4 10.3165 1.90726   4
   8  -6   4 6.73396 1.69244   1
  -8   6  -4 7.87647 2.00249   3
  -8   6  -4 5.27755 1.80667   1
   8   6   4 9.83993 1.94503   5
   8   6   4 8.54917 2.06495   3
  -8   6  -4 10.0910 2.14871   2
  -8   6  -4 10.2829 2.18694   4
  -8   6  -4 10.2689 2.16170   5
   9  -6   4 0.10337 1.25945   3
   9  -6   4 0.45549 0.94434   5
   9  -6   4 -1.5893 0.68710   1
  -9  -6  -4 1.46722 1.49034   2
  -9   6  -4 1.42809 1.47079   1
   9   6   4 0.37223 1.40855   3
  -9   6  -4 -0.3244 0.73310   5
  -9   6  -4 0.14313 1.37450   3
  10  -6   4 4.68089 1.73784   3
 -10  -6  -4 3.79023 1.78971   2
  10  -6   4 3.58688 1.77632   5
  10   6   4 6.88110 2.52590   3
 -10   6  -4 4.27658 1.76282   3
 -10   6  -4 4.61764 1.90984   5
  11  -6   4 2.10466 1.86951   3
 -11  -6  -4 1.18753 1.88345   2
  11   6   4 0.54332 1.47576   3
 -11   6  -4 4.25227 2.28566   3
  11  -7  -4 2.13155 1.95655   5
  11  -7  -4 0.08944 1.70853   1
  11   7  -4 2.40204 1.33383   5
  11   7  -4 1.63938 1.85930   3
 -11   7   4 -0.1480 1.64828   3
  10  -7  -4 6.55496 2.12998   5
 -10  -7   4 6.79242 2.01422   2
  10  -7  -4 7.08036 2.40226   1
  10   7  -4 7.84635 2.22025   1
 -10   7   4 6.52602 2.48384   3
  10   7  -4 9.49820 2.49590   5
  10   7  -4 5.57910 1.84814   3
   9  -7  -4 20.3751 3.53203   1
   9  -7  -4 13.3334 2.63908   4
   9  -7  -4 14.2677 2.89169   5
  -9  -7   4 18.8775 2.73089   2
   9   7  -4 19.1680 3.04463   1
  -9   7   4 20.6006 3.32670   3
   9   7  -4 16.2323 3.25155   5
   9   7  -4 15.9462 2.85716   3
   8  -7  -4 8.81983 2.26147   1
   8  -7  -4 3.29941 1.78580   5
   8  -7  -4 7.42183 1.92283   4
  -8  -7   4 8.21767 1.86108   2
   8   7  -4 9.41824 2.34091   5
   8   7  -4 6.62822 1.84597   3
  -8   7   4 9.62366 2.32289   3
   8   7  -4 8.73677 2.08815   1
   7  -7  -4 4.40684 1.77693   1
   7  -7  -4 3.93800 1.42781   5
  -7  -7   4 5.62023 1.45066   2
   7  -7  -4 5.62898 1.69575   4
  -7   7   4 4.80381 1.61315   5
   7   7  -4 4.28369 1.40392   3
   7   7  -4 5.19053 1.68702   1
   7   7  -4 3.48526 1.31682   5
  -7   7   4 5.97765 1.89171   3
   6  -7  -4 34.6082 3.66432   5
   6  -7  -4 28.3951 3.26407   4
   6  -7  -4 35.5985 3.89651   1
  -6  -7   4 32.2530 2.67995   2
  -6   7   4 38.5629 4.01125   5
  -6   7   4 28.7850 3.37818   3
   6   7  -4 31.9633 3.50733   1
   6   7  -4 31.8472 3.63164   5
   6   7  -4 32.1870 2.81119   3
   5  -7  -4 13.7397 2.25179   5
   5  -7  -4 12.9173 2.13625   4
  -5  -7   4 12.5983 1.99002   2
   5  -7  -4 16.8509 2.49652   1
   5   7  -4 18.5748 2.55752   5
   5   7  -4 16.9357 1.83668   4
  -5   7   4 13.3363 2.13244   3
  -5   7   4 11.2963 2.14404   5
   5   7  -4 13.5329 1.92519   3
   5   7  -4 16.0287 2.44899   1
  -4  -7   4 36.7354 2.72930   2
   4  -7  -4 41.1886 3.04174   4
   4  -7  -4 35.2919 2.82713   5
   4  -7  -4 35.7885 2.94622   1
   4   7  -4 37.6413 2.61371   3
   4   7  -4 40.7507 3.34418   1
  -4   7   4 41.3540 3.07111   5
   4   7  -4 39.9022 3.02572   5
   4   7  -4 35.5285 2.54550   4
  -4   7   4 34.0812 2.87332   3
   3  -7  -4 15.4699 2.13936   1
  -3  -7   4 17.3654 2.01925   2
   3  -7  -4 18.3496 2.20869   4
   3  -7  -4 19.7253 2.17744   5
   3   7  -4 16.4577 2.49859   1
   3   7  -4 16.3873 1.69195   3
  -3   7   4 14.3686 2.04212   5
  -3   7   4 16.0451 2.03484   3
   3   7  -4 16.8488 2.21197   5
   3   7  -4 17.2504 2.01935   4
  -2  -7   4 0.04357 0.38954   4
  -2  -7   4 0.90535 0.73483   2
   2  -7  -4 0.78775 0.43493   2
   2  -7  -4 0.18965 0.55109   4
   2  -7  -4 0.51959 0.67277   1
   2   7  -4 0.46901 0.38657   3
   2   7  -4 2.70680 1.00864   5
   2   7  -4 0.98746 0.68173   4
   2   7  -4 0.22646 1.08553   1
  -2   7   4 0.14038 0.42833   5
  -2   7   4 1.72838 0.83913   3
  -1  -7   4 23.1958 2.39338   2
   1  -7  -4 25.9576 2.24525   4
  -1  -7   4 29.2086 2.08329   4
   1  -7  -4 30.6295 1.87934   2
   1  -7  -4 28.5143 2.10081   1
   1   7  -4 26.1561 1.55680   3
  -1   7   4 28.3883 2.07055   5
   1   7  -4 28.5876 2.32664   5
   1   7  -4 27.1393 2.33001   4
   1   7  -4 26.4447 2.96888   1
  -1   7   4 31.0198 2.30787   3
   0  -7   4 8.69115 1.39000   2
   0  -7  -4 7.70873 1.15244   1
   0  -7  -4 10.3282 1.50762   4
   0  -7   4 9.36603 1.38878   4
   0  -7  -4 8.43900 1.25716   2
   0   7   4 8.79409 1.50732   3
   0   7  -4 10.0471 1.57695   5
   0   7  -4 5.65413 1.31829   4
   0   7  -4 8.73468 0.88129   3
   0   7  -4 5.60128 1.36734   1
   0   7   4 8.73359 1.30609   5
  -1  -7  -4 33.2413 2.33690   2
  -1  -7  -4 34.1937 2.32896   4
   1  -7   4 27.5668 2.23906   2
  -1  -7  -4 30.7259 1.79916   1
   1  -7   4 34.3991 2.43309   4
  -1   7  -4 33.7987 1.74476   3
  -1   7  -4 31.1864 2.30676   5
  -1   7  -4 31.3363 2.65438   4
  -1   7  -4 33.8532 2.79111   1
   1   7   4 32.3064 2.64958   3
   1   7   4 32.0607 2.25731   5
   2  -7   4 1.19459 0.66216   2
   2  -7   4 2.89407 0.83329   4
  -2  -7  -4 1.27244 0.65894   4
  -2  -7  -4 2.62945 0.93608   2
  -2   7  -4 3.36693 1.14923   1
  -2   7  -4 2.80009 0.63272   3
   2   7   4 2.55065 1.22006   3
  -2   7  -4 3.08354 0.97475   5
   2   7   4 3.38113 1.07488   5
  -2   7  -4 2.06669 0.87618   4
   3  -7   4 5.81881 1.21147   4
  -3  -7  -4 6.82003 1.45427   2
  -3  -7  -4 8.56495 1.22792   4
   3  -7   4 4.69088 1.14652   2
   3  -7   4 6.32200 1.32354   1
   3   7   4 7.83614 1.57802   3
  -3   7  -4 3.74087 1.33934   1
  -3   7  -4 7.02476 1.50546   4
  -3   7  -4 7.71022 1.40949   5
  -3   7  -4 6.72459 1.07072   3
   3   7   4 5.09303 1.17949   5
   4  -7   4 12.2904 1.88012   2
   4  -7   4 15.1148 1.99585   4
   4  -7   4 14.9599 2.06634   1
  -4  -7  -4 10.1716 1.82354   2
  -4  -7  -4 15.8437 1.60564   4
  -4   7  -4 12.7471 2.17673   1
   4   7   4 15.0125 2.23883   3
  -4   7  -4 11.1775 1.76228   5
  -4   7  -4 11.4088 2.02466   4
  -4   7  -4 15.8974 1.78869   3
   4   7   4 12.6453 1.73141   5
   5  -7   4 5.32287 1.30571   2
   5  -7   4 4.47086 1.23218   5
  -5  -7  -4 -0.9349 0.87725   2
   5  -7   4 4.05204 1.12913   4
   5  -7   4 3.99230 1.21104   1
   5  -7   4 3.68520 1.17720   3
  -5   7  -4 1.18121 0.99836   4
  -5   7  -4 3.59433 1.09121   3
   5   7   4 5.32122 1.61165   3
  -5   7  -4 4.11758 1.13635   5
  -5   7  -4 5.00112 1.42290   1
   5   7   4 6.68634 1.35267   5
   6  -7   4 59.3962 3.86226   2
   6  -7   4 54.8143 3.83380   1
   6  -7   4 54.9044 3.74967   4
   6  -7   4 61.4669 3.95102   5
   6  -7   4 55.5821 3.81643   3
  -6  -7  -4 56.6366 4.18579   2
  -6   7  -4 60.8406 4.35002   4
   6   7   4 59.6681 3.76268   5
   6   7   4 56.9289 4.28218   3
  -6   7  -4 52.0727 4.15732   1
  -6   7  -4 52.3497 3.74474   3
  -6   7  -4 51.4592 3.77726   5
  -7  -7  -4 4.54894 1.47356   2
   7  -7   4 3.26231 1.27635   1
   7  -7   4 1.46798 1.11791   5
   7  -7   4 4.27254 1.38144   3
   7  -7   4 3.65673 1.23533   4
   7  -7   4 2.85236 1.11354   2
  -7   7  -4 1.53051 1.26451   1
  -7   7  -4 2.04455 1.26697   3
  -7   7  -4 3.34532 1.37131   2
  -7   7  -4 2.46036 1.39836   4
   7   7   4 2.03658 1.04669   5
  -7   7  -4 1.65921 1.14690   5
   7   7   4 1.29038 1.13141   3
   8  -7   4 40.7258 3.45668   1
   8  -7   4 38.5505 3.48808   3
   8  -7   4 39.4329 3.35983   4
  -8  -7  -4 39.7751 4.43138   2
   8  -7   4 50.1181 3.84982   5
  -8   7  -4 39.7973 4.13681   3
  -8   7  -4 43.8797 3.78774   5
   8   7   4 39.0133 5.62487   5
  -8   7  -4 44.2650 4.50250   4
   8   7   4 39.8361 4.75405   3
  -8   7  -4 45.4339 4.63935   1
   9  -7   4 -0.7666 0.91139   1
   9  -7   4 0.80727 0.93636   3
  -9  -7  -4 1.24550 1.26730   2
   9  -7   4 2.54730 1.41332   5
  -9   7  -4 -0.4696 0.90596   3
  -9   7  -4 0.97580 1.29415   5
  -9   7  -4 -0.4995 1.28771   1
   9   7   4 -0.4256 1.22842   3
  -9   7  -4 -1.0380 1.11839   4
 -10  -7  -4 6.43906 2.40433   2
  10  -7   4 6.75994 2.17694   3
  10  -7   4 7.88011 2.24676   5
 -10   7  -4 10.7541 2.73049   5
 -10   7  -4 4.05387 2.09031   3
  10   7   4 7.70842 2.63910   3
  11  -8  -4 -0.6228 1.29730   1
  11  -8  -4 0.05782 1.27742   5
 -11   8   4 0.95059 1.45411   5
 -11   8   4 -0.3932 1.80198   3
  11   8  -4 0.21763 1.83131   3
  11   8  -4 3.61518 1.73082   5
  10  -8  -4 21.9133 3.77529   5
  10  -8  -4 17.5212 3.07671   4
  10  -8  -4 25.7394 4.10842   1
 -10  -8   4 19.1625 3.01798   2
  10   8  -4 20.1369 3.38652   3
 -10   8   4 22.6189 3.71684   3
  10   8  -4 21.2468 3.61751   5
 -10   8   4 25.7386 4.10188   5
   9  -8  -4 14.3149 2.92410   5
  -9  -8   4 11.7646 2.15871   2
   9  -8  -4 28.1740 4.04224   1
   9  -8  -4 11.4306 2.46566   4
  -9   8   4 13.7623 2.94612   5
   9   8  -4 18.0784 3.25664   5
  -9   8   4 18.2455 3.38755   3
   9   8  -4 13.3154 2.64224   3
   9   8  -4 10.6473 2.41347   1
   8  -8  -4 2.35695 1.48661   4
   8  -8  -4 1.81331 1.51186   5
  -8  -8   4 4.12594 1.48914   2
   8  -8  -4 2.93362 1.80115   1
   8   8  -4 4.26703 1.59310   3
  -8   8   4 1.84893 1.47985   5
   8   8  -4 3.55580 1.41862   5
  -8   8   4 2.48698 1.34981   3
   8   8  -4 4.18118 1.69447   1
   7  -8  -4 91.1316 5.74493   5
   7  -8  -4 75.3650 5.54551   1
  -7  -8   4 82.9686 5.08539   2
   7  -8  -4 78.1787 5.28428   4
  -7   8   4 78.5038 5.35525   3
   7   8  -4 81.6161 5.22863   3
  -7   8   4 94.0681 5.95438   5
   7   8  -4 79.0749 5.25120   1
   7   8  -4 84.9330 5.60538   5
   6  -8  -4 -0.3052 1.00751   4
  -6  -8   4 1.62829 1.07049   2
   6  -8  -4 -1.3522 0.93285   5
   6  -8  -4 0.69630 0.98222   1
   6   8  -4 0.66502 0.93805   5
  -6   8   4 1.17997 0.95725   3
   6   8  -4 0.84174 0.90765   3
  -6   8   4 -1.0442 0.94760   5
   6   8  -4 1.20842 1.29039   1
   5  -8  -4 10.9690 2.11770   1
   5  -8  -4 13.3096 2.15866   5
   5  -8  -4 14.1992 2.23838   4
  -5  -8   4 12.6007 2.05174   2
   5   8  -4 12.7564 1.87317   3
   5   8  -4 11.9922 2.15683   5
   5   8  -4 11.0210 2.13052   1
  -5   8   4 9.79494 1.98970   5
  -5   8   4 14.7616 2.32199   3
  -4  -8   4 3.17807 1.05116   2
   4  -8  -4 0.58543 0.91677   5
   4  -8  -4 1.64829 1.04619   4
   4  -8  -4 2.00947 1.17621   1
   4   8  -4 0.35996 0.70578   4
  -4   8   4 1.08872 0.99142   5
   4   8  -4 2.09599 1.38847   5
   4   8  -4 1.47159 1.13348   1
   4   8  -4 0.32314 0.70473   3
  -4   8   4 0.94434 0.83309   3
   3  -8  -4 0.16491 0.65602   5
   3  -8  -4 0.77002 0.73823   4
  -3  -8   4 0.40069 0.61237   2
   3  -8  -4 1.32723 0.99908   1
   3   8  -4 0.33756 0.71339   4
  -3   8   4 0.12234 0.62916   3
  -3   8   4 0.06812 0.73827   5
   3   8  -4 -0.7948 0.66615   5
   3   8  -4 -0.0453 0.46491   3
   3   8  -4 -0.0058 1.22961   1
   2  -8  -4 149.201 7.21240   4
   2  -8  -4 154.717 7.06889   1
   2  -8  -4 145.194 6.09847   2
  -2  -8   4 138.503 6.62597   4
  -2  -8   4 166.830 7.25698   2
   2   8  -4 153.332 7.64632   1
  -2   8   4 159.713 7.19508   3
   2   8  -4 157.917 7.27921   4
   2   8  -4 155.243 6.34341   3
  -2   8   4 153.169 7.00436   5
   2   8  -4 151.207 7.24085   5
  -1  -8   4 73.7810 4.30499   2
   1  -8  -4 78.7821 4.20045   1
   1  -8  -4 81.9087 3.87622   2
  -1  -8   4 90.0312 4.40005   4
   1  -8  -4 80.2204 4.49048   4
   1   8  -4 77.5336 4.60661   5
   1   8  -4 83.8748 3.65857   3
   1   8  -4 79.7259 4.82112   1
   1   8  -4 80.8045 4.71271   4
  -1   8   4 77.7212 4.43259   3
  -1   8   4 86.5123 4.30682   5
   0  -8  -4 -0.4404 0.42969   2
   0  -8   4 0.40383 0.59127   4
   0  -8   4 0.00409 0.66688   2
   0  -8  -4 -0.4788 0.39908   1
   0  -8  -4 0.00211 0.56564   4
   0   8   4 -0.2607 0.57702   3
   0   8  -4 0.82910 1.10480   1
   0   8  -4 -0.2697 0.74450   4
   0   8   4 -0.8269 0.59537   5
   0   8  -4 -0.5065 0.65838   5
   0   8  -4 -0.2108 0.48721   3
   1  -8   4 444.020 17.1291   2
  -1  -8  -4 433.538 16.9481   4
   1  -8   4 446.436 17.1811   4
  -1  -8  -4 456.446 17.0399   2
  -1  -8  -4 440.405 16.1789   1
  -1   8  -4 421.514 17.5428   1
  -1   8  -4 445.057 17.1552   5
  -1   8  -4 447.403 17.7666   4
   1   8   4 432.934 17.2860   3
   1   8   4 445.137 16.8988   5
   1   8   4 434.278 16.3101   1
   2  -8   4 6.27071 1.29527   4
  -2  -8  -4 4.97486 1.11478   4
  -2  -8  -4 4.60441 1.17744   2
   2  -8   4 4.08070 1.04956   2
  -2   8  -4 5.32290 1.60571   1
  -2   8  -4 2.93216 1.14594   4
  -2   8  -4 4.33361 0.84845   3
   2   8   4 7.56642 1.59686   3
   2   8   4 4.53556 1.26877   5
  -2   8  -4 3.78315 1.17570   5
  -3  -8  -4 5.38416 1.09618   4
   3  -8   4 3.95624 1.19818   4
   3  -8   4 3.51832 1.02087   2
  -3  -8  -4 6.74661 1.44050   2
   3  -8   4 4.25028 1.18325   1
   3   8   4 5.73539 1.32167   5
  -3   8  -4 2.61682 1.15737   1
  -3   8  -4 4.13867 1.22191   5
  -3   8  -4 3.34545 0.87460   3
   3   8   4 4.35926 1.54856   3
  -3   8  -4 3.96392 1.40622   4
  -4  -8  -4 4.88468 1.33143   2
   4  -8   4 7.05827 1.53465   4
   4  -8   4 6.25878 1.45211   1
   4  -8   4 7.48631 1.57037   2
  -4   8  -4 5.17691 1.08150   3
   4   8   4 7.42809 1.71787   3
   4   8   4 5.05452 1.30590   5
  -4   8  -4 7.10800 1.72959   4
  -4   8  -4 7.26663 1.72293   1
  -4   8  -4 5.20880 1.39642   5
   5  -8   4 -0.2782 0.65074   2
   5  -8   4 -0.3398 0.55313   4
   5  -8   4 -0.4950 0.86802   1
  -5  -8  -4 -1.4803 0.88884   2
  -5   8  -4 -1.0181 0.83699   1
  -5   8  -4 -1.0558 0.56528   3
   5   8   4 -0.0885 0.76100   3
  -5   8  -4 -0.8696 0.45856   5
  -5   8  -4 -0.8149 0.67298   4
   5   8   4 -0.3575 0.65162   5
   6  -8   4 14.2352 2.20354   5
   6  -8   4 14.7281 2.35457   1
   6  -8   4 10.8061 2.08997   4
   6  -8   4 11.6872 1.97400   2
  -6  -8  -4 15.3543 2.53994   2
  -6   8  -4 12.6744 2.05693   3
   6   8   4 12.6172 2.01162   5
   6   8   4 9.87570 2.19260   3
  -6   8  -4 8.59573 2.21922   4
  -6   8  -4 11.2304 1.99163   5
  -6   8  -4 15.7883 2.74398   1
   7  -8   4 27.0843 3.10468   4
   7  -8   4 27.0644 3.22580   1
  -7  -8  -4 22.0020 3.28136   2
   7  -8   4 20.9131 2.83045   5
   7  -8   4 29.2145 3.14020   2
   7   8   4 16.9310 2.96872   3
  -7   8  -4 23.9477 3.14572   5
  -7   8  -4 22.6357 3.21683   4
  -7   8  -4 17.7467 2.59184   3
  -7   8  -4 23.6455 3.30399   1
   7   8   4 22.4709 2.86507   5
   8  -8   4 -0.3285 1.08445   5
   8  -8   4 0.72053 0.88950   4
   8  -8   4 0.92139 0.83431   1
  -8  -8  -4 3.30619 1.71088   2
   8  -8   4 0.85948 1.18897   3
  -8   8  -4 -0.3059 1.16621   5
  -8   8  -4 0.99704 1.17578   3
  -8   8  -4 1.75495 1.22342   1
   8   8   4 1.63999 1.34378   3
  -8   8  -4 0.68838 0.96521   4
   9  -8   4 33.3741 3.96964   5
   9  -8   4 25.0420 3.16404   4
   9  -8   4 34.2972 3.95734   1
  -9  -8  -4 35.5090 4.51768   2
  -9   8  -4 25.2787 3.58799   3
  -9   8  -4 29.5485 4.11897   1
   9   8   4 32.7814 4.50417   3
  -9   8  -4 25.7515 3.69462   5
  -9   8  -4 33.3031 4.07945   4
  10  -8   4 13.0971 2.67582   5
 -10  -8  -4 11.3525 2.83333   2
  10   8   4 7.31748 2.67964   3
 -10   8  -4 7.11247 2.31529   5
 -10   8  -4 8.00065 2.77543   1
  10  -9  -4 1.10132 1.66379   5
  10  -9  -4 2.61118 2.27538   1
  10  -9  -4 0.93924 1.43357   4
 -10  -9   4 2.35530 1.63523   2
  10   9  -4 2.60272 1.54794   5
 -10   9   4 0.23351 1.20656   5
  10   9  -4 1.95693 1.79257   3
 -10   9   4 4.75224 2.41123   3
   9  -9  -4 6.30662 2.11155   5
   9  -9  -4 4.12433 1.87973   4
  -9  -9   4 4.27914 1.69589   2
   9  -9  -4 2.57304 1.56552   1
   9   9  -4 2.24621 1.46074   1
  -9   9   4 0.74170 1.20850   3
   9   9  -4 2.88798 1.59206   5
  -9   9   4 0.81432 1.21872   5
   9   9  -4 6.40188 2.03833   3
   8  -9  -4 7.77270 2.47397   1
  -8  -9   4 4.24855 1.59233   2
   8  -9  -4 3.88867 2.00939   5
   8  -9  -4 6.36272 2.05100   4
   8   9  -4 8.47546 2.19680   5
  -8   9   4 4.95789 1.73047   3
   8   9  -4 4.86840 1.69149   3
  -8   9   4 9.17443 2.58618   5
   8   9  -4 8.14276 2.17297   1
  -7  -9   4 0.57251 0.74201   2
   7  -9  -4 0.32244 1.26329   4
   7  -9  -4 2.34625 1.28910   1
   7  -9  -4 0.13480 1.32360   5
   7   9  -4 0.88234 0.90937   1
  -7   9   4 0.62895 1.21599   5
   7   9  -4 2.58503 1.46913   5
   7   9  -4 -0.1748 1.03908   3
  -7   9   4 -0.5854 0.74857   3
  -6  -9   4 4.90008 1.40937   2
   6  -9  -4 6.26113 1.80412   1
   6  -9  -4 3.29441 1.46014   5
   6  -9  -4 5.55367 1.57785   4
  -6   9   4 4.12909 1.55996   3
   6   9  -4 3.08773 1.30223   3
  -6   9   4 6.21839 1.86006   5
   6   9  -4 6.99137 2.00990   1
   6   9  -4 6.95830 1.82230   5
   5  -9  -4 26.4986 3.21442   4
   5  -9  -4 20.5697 2.93519   5
   5  -9  -4 28.6285 3.43419   1
  -5  -9   4 20.7233 2.67784   2
  -5   9   4 24.7944 3.15575   3
   5   9  -4 25.8541 3.24522   5
  -5   9   4 27.3331 3.43831   5
   5   9  -4 22.8352 2.66189   3
   5   9  -4 26.5470 3.36374   1
  -4  -9   4 1.15691 0.93473   2
   4  -9  -4 4.00251 1.28621   4
   4  -9  -4 4.63146 1.47707   5
   4  -9  -4 3.17618 1.26947   1
  -4   9   4 3.50604 1.17648   3
   4   9  -4 5.87159 1.77869   5
   4   9  -4 2.02405 0.88975   4
  -4   9   4 2.71416 1.21646   5
   4   9  -4 7.23448 1.75927   1
   4   9  -4 3.39278 1.11493   3
  -3  -9   4 4.34639 1.04911   4
   3  -9  -4 4.11085 1.30622   4
  -3  -9   4 2.77599 1.09166   2
   3  -9  -4 3.87180 1.23379   1
  -3   9   4 3.09710 1.20962   5
   3   9  -4 4.62550 1.81237   1
   3   9  -4 5.81019 1.56510   5
  -3   9   4 6.17856 1.55088   3
   3   9  -4 4.19510 0.96217   3
   3   9  -4 3.88703 1.13648   4
  -2  -9   4 50.8021 3.47484   2
  -2  -9   4 49.3893 3.09611   4
   2  -9  -4 51.4576 3.53562   4
   2  -9  -4 53.3778 3.47143   1
   2   9  -4 48.7726 3.74680   1
   2   9  -4 50.3493 2.80848   3
   2   9  -4 52.8997 3.68087   5
   2   9  -4 46.8855 3.46421   4
  -2   9   4 47.7124 3.37308   3
  -2   9   4 45.7669 3.19038   5
   1  -9  -4 124.073 5.55256   2
  -1  -9   4 124.574 6.20781   2
  -1  -9   4 121.281 5.97661   4
   1  -9  -4 126.823 6.38003   4
   1  -9  -4 127.772 6.00380   1
  -1   9   4 126.824 6.11503   5
  -1   9   4 126.330 6.31404   3
   1   9  -4 127.047 6.80996   1
   1   9  -4 128.293 6.61376   4
   1   9  -4 122.205 6.47289   5
   1   9  -4 133.727 5.42461   3
   0  -9  -4 6.66779 1.36345   4
   0  -9   4 6.62016 1.34503   4
   0  -9   4 6.19671 1.32936   2
   0  -9  -4 6.58807 1.15809   1
   0  -9  -4 5.46778 1.09021   2
   0   9  -4 4.96101 1.50296   1
   0   9   4 8.48585 1.52824   5
   0   9  -4 4.79180 1.36032   4
   0   9  -4 4.86795 0.92626   3
   0   9   4 8.57095 1.64228   3
   0   9  -4 5.47823 1.42682   5
  -1  -9  -4 16.6515 2.02952   2
   1  -9   4 17.5238 2.21907   4
  -1  -9  -4 16.5813 2.05575   4
  -1  -9  -4 17.5073 1.40314   1
   1  -9   4 20.7663 2.39072   2
   1   9   4 15.3630 1.99726   5
   1   9   4 15.0905 1.65825   1
  -1   9  -4 18.9387 1.50550   3
  -1   9  -4 21.2474 2.46800   5
  -1   9  -4 19.5738 2.71770   4
   1   9   4 15.2334 2.18720   3
  -1   9  -4 16.5467 2.43140   1
   2  -9   4 82.7646 4.62962   2
  -2  -9  -4 94.3879 4.90431   2
  -2  -9  -4 80.6102 4.42237   4
   2  -9   4 83.5110 4.83226   4
  -2   9  -4 86.9264 5.34289   4
  -2   9  -4 83.0340 5.21983   1
   2   9   4 85.8767 5.00380   3
   2   9   4 82.6830 4.66789   5
  -2   9  -4 80.9666 4.75217   5
  -3  -9  -4 16.3063 2.33892   2
   3  -9   4 16.0476 2.26448   4
   3  -9   4 21.5037 2.45188   2
  -3  -9  -4 16.5675 1.96199   4
   3  -9   4 17.7075 2.36862   1
  -3   9  -4 17.1990 2.59900   4
  -3   9  -4 24.3195 3.13954   1
   3   9   4 18.2222 2.37926   5
   3   9   4 19.2381 2.67175   3
  -3   9  -4 21.7442 1.74613   3
  -3   9  -4 19.3313 2.44380   5
   4  -9   4 7.78097 1.76649   4
   4  -9   4 6.60765 1.41172   2
   4  -9   4 8.18275 1.83782   1
  -4  -9  -4 7.78309 1.72079   2
  -4   9  -4 8.71414 1.65995   5
   4   9   4 5.31487 1.46259   5
  -4   9  -4 5.78737 1.23205   3
  -4   9  -4 9.02479 2.07348   1
   4   9   4 3.67434 1.53483   3
  -5  -9  -4 39.9042 3.41303   2
   5  -9   4 35.4664 3.13156   4
   5  -9   4 33.0067 2.92876   2
   5  -9   4 40.8760 3.24503   1
  -5   9  -4 40.2284 4.26649   1
   5   9   4 42.2576 3.14609   5
  -5   9  -4 38.7904 2.90091   3
  -5   9  -4 43.3717 3.42213   5
   5   9   4 36.0174 3.92954   3
   6  -9   4 5.20613 1.40547   2
   6  -9   4 5.21822 1.54780   4
   6  -9   4 7.53744 1.80406   1
  -6  -9  -4 7.85930 2.01505   2
   6   9   4 9.18657 1.86895   5
  -6   9  -4 9.35123 2.13335   4
  -6   9  -4 3.93752 1.54510   1
  -6   9  -4 3.57823 1.35257   3
   6   9   4 5.39272 1.78967   3
  -6   9  -4 4.54861 1.43463   5
   7  -9   4 6.88178 1.74341   4
  -7  -9  -4 8.02200 2.06694   2
   7  -9   4 11.8082 2.21917   1
  -7   9  -4 6.12511 1.84299   1
   7   9   4 6.16363 1.93963   3
  -7   9  -4 11.1048 2.57028   4
   7   9   4 5.74541 1.53144   5
  -7   9  -4 9.34613 2.13797   5
   8  -9   4 12.0674 2.44465   1
  -8  -9  -4 10.4608 2.40406   2
   8  -9   4 14.7618 2.60804   5
   8  -9   4 11.5960 2.30755   4
   8   9   4 11.3203 2.63222   3
  -8   9  -4 11.9751 2.49463   5
  -8   9  -4 9.81455 2.44523   1
  -8   9  -4 10.9405 2.69848   4
  -9  -9  -4 4.61539 2.02361   2
   9  -9   4 3.27268 1.71378   1
   9  -9   4 3.38352 1.70516   5
   9  -9   4 3.56376 1.60615   4
  -9   9  -4 2.15146 1.92323   4
  -9   9  -4 4.98269 2.11509   1
  -9   9  -4 2.97391 1.82702   5
   9   9   4 3.06316 2.00627   3
 -10  -9  -4 -1.0686 1.59635   2
  10  -9   4 -0.8750 1.25183   1
  10  -9   4 0.59682 1.19501   5
 -10   9  -4 1.18491 1.37052   5
  10   9   4 0.93398 1.32777   3
 -10   9  -4 -0.3794 1.96886   1
 -10 -10   4 17.8731 2.98850   2
  10 -10  -4 14.6601 3.22110   1
  10 -10  -4 19.2246 3.91196   5
  10 -10  -4 22.1039 3.48611   4
 -10  10   4 23.9177 3.83687   3
 -10  10   4 20.7653 3.81586   5
  10  10  -4 13.8359 3.11551   5
   9 -10  -4 -0.2964 1.17375   5
   9 -10  -4 1.71087 1.46033   4
   9 -10  -4 -0.4368 1.49838   1
  -9 -10   4 -0.0672 0.95438   2
   9  10  -4 2.03468 1.56818   3
   9  10  -4 1.08708 1.60272   5
  -9  10   4 -2.4115 1.29850   3
  -9  10   4 1.86595 1.49631   5
   8 -10  -4 6.52776 2.07348   1
   8 -10  -4 7.62760 2.31144   4
   8 -10  -4 3.58177 1.93671   5
  -8 -10   4 8.17202 2.01112   2
  -8  10   4 8.02517 2.36215   5
  -8  10   4 4.27917 1.94317   3
   8  10  -4 8.74929 2.28890   5
   8  10  -4 8.22600 2.15599   3
   8  10  -4 8.95985 2.33076   1
   7 -10  -4 1.65941 1.24247   4
  -7 -10   4 0.50197 1.14483   2
   7 -10  -4 1.11205 1.24195   1
   7 -10  -4 -0.2876 1.15947   5
  -7  10   4 0.68813 1.48549   5
   7  10  -4 1.19026 1.43524   5
   7  10  -4 -0.1497 1.09736   3
   7  10  -4 0.62260 0.90578   1
  -7  10   4 0.08381 1.38777   3
   6 -10  -4 26.6529 3.48104   4
   6 -10  -4 30.9673 3.73122   5
  -6 -10   4 26.6497 3.16458   2
   6 -10  -4 37.7927 4.20987   1
   6  10  -4 21.8336 3.27732   1
  -6  10   4 31.8319 3.90782   5
   6  10  -4 26.8587 3.10256   3
  -6  10   4 27.4651 3.39931   3
   6  10  -4 30.6373 3.74316   5
  -5 -10   4 1.90692 0.99637   2
   5 -10  -4 2.55838 1.31415   4
   5 -10  -4 5.16901 1.79121   5
   5 -10  -4 7.24447 2.08598   1
  -5  10   4 4.20611 1.63136   5
  -5  10   4 4.17251 1.39652   3
   5  10  -4 3.63145 1.46792   5
   5  10  -4 2.47418 1.14504   3
   5  10  -4 3.20940 1.44467   1
  -4 -10   4 68.9431 4.57466   2
   4 -10  -4 67.4985 4.66714   4
   4 -10  -4 75.3302 4.89492   1
   4  10  -4 75.8807 4.23133   3
   4  10  -4 72.6132 5.11716   1
   4  10  -4 71.9672 4.97204   5
  -4  10   4 69.5191 4.70836   5
  -4  10   4 73.8143 4.78898   3
   4  10  -4 73.7741 4.37499   4
   3 -10  -4 118.899 6.33173   4
  -3 -10   4 110.955 6.04032   2
  -3 -10   4 114.455 5.46710   4
   3 -10  -4 120.605 6.25705   1
   3  10  -4 108.829 6.34553   5
  -3  10   4 101.162 5.90638   3
   3  10  -4 113.753 5.96107   4
   3  10  -4 114.903 6.53109   1
   3  10  -4 108.169 5.92836   3
  -3  10   4 111.772 6.08993   5
  -2 -10   4 338.040 13.5829   2
   2 -10  -4 327.524 13.3942   1
  -2 -10   4 341.471 13.1260   4
   2 -10  -4 329.304 13.7245   4
   2  10  -4 324.812 13.7672   5
   2  10  -4 325.349 14.1089   1
  -2  10   4 315.331 13.3358   5
  -2  10   4 309.092 13.4518   3
   2  10  -4 301.742 13.5020   4
  -1 -10   4 10.2719 1.67114   4
  -1 -10   4 18.3604 2.32522   2
   1 -10  -4 19.7763 2.51285   4
   1 -10  -4 13.9056 1.94712   1
   1 -10  -4 17.9380 1.83028   2
  -1  10   4 13.9537 2.27141   3
   1  10  -4 14.0761 2.39352   5
   1  10  -4 16.7654 2.61234   1
   1  10  -4 17.3099 2.48291   4
  -1  10   4 17.5151 2.23917   5
   0 -10   4 67.8832 4.17226   2
   0 -10  -4 70.7762 3.73205   1
   0 -10  -4 74.2158 4.33553   4
   0 -10  -4 65.4301 3.73378   2
   0 -10   4 73.1398 4.25007   4
   0  10  -4 62.5909 4.38359   5
   0  10  -4 62.7725 4.48647   4
   0  10   4 59.8961 4.26208   3
   0  10   4 67.2655 4.13549   5
   0  10  -4 67.7242 4.59150   1
  -1 -10  -4 4.86820 1.24609   2
  -1 -10  -4 6.61807 1.51713   4
   1 -10   4 5.09895 1.23240   2
   1 -10   4 4.32249 1.22631   4
   1  10   4 6.18067 1.58900   3
   1  10   4 6.63661 1.70395   5
  -1  10  -4 5.26964 1.64022   5
  -1  10  -4 4.91502 1.46078   4
  -1  10  -4 4.27424 1.41239   1
   2 -10   4 6.71592 1.55580   4
  -2 -10  -4 5.37294 1.29113   2
   2 -10   4 5.66936 1.39742   2
  -2 -10  -4 5.71154 1.34859   4
  -2  10  -4 3.03111 1.29319   1
   2  10   4 4.52259 1.49316   3
  -2  10  -4 6.47032 1.66474   5
   2  10   4 5.83647 1.61250   5
  -2  10  -4 5.88760 1.53224   4
   3 -10   4 1.48020 1.08593   4
   3 -10   4 1.11894 0.85856   2
  -3 -10  -4 -0.0801 0.86151   2
  -3 -10  -4 -0.8557 0.55189   4
   3  10   4 -0.9036 0.78989   3
  -3  10  -4 1.06104 1.27830   1
   3  10   4 -0.2634 1.02285   5
  -3  10  -4 -0.2250 0.95262   5
   4 -10   4 21.5457 2.85994   1
  -4 -10  -4 25.2738 2.96138   2
   4 -10   4 24.9628 2.87399   2
   4 -10   4 23.7613 3.03379   4
   4  10   4 22.2765 2.78547   5
  -4  10  -4 22.1941 3.14466   1
   4  10   4 19.1092 2.89162   3
  -4  10  -4 23.2123 2.99695   5
   5 -10   4 -0.6541 0.91186   4
   5 -10   4 0.85835 1.29487   1
  -5 -10  -4 -0.8038 0.69987   2
   5 -10   4 -1.0765 0.63404   2
   5  10   4 1.45885 1.02706   5
   5  10   4 -0.6120 0.97033   3
  -5  10  -4 -0.7198 1.18709   1
  -5  10  -4 0.81612 1.14770   5
   6 -10   4 40.6187 4.18500   4
   6 -10   4 34.3570 3.56930   2
   6 -10   4 42.4352 3.66521   1
  -6 -10  -4 37.2049 4.10274   2
   6  10   4 38.2830 4.38657   3
  -6  10  -4 34.6427 4.34953   1
  -6  10  -4 34.8981 3.93894   5
   6  10   4 37.3686 3.22743   5
   7 -10   4 15.8152 2.69661   4
  -7 -10  -4 8.37604 2.31471   2
   7 -10   4 18.3611 2.83994   1
  -7  10  -4 15.8529 3.17281   1
   7  10   4 15.7459 2.50610   5
  -7  10  -4 9.22518 2.48089   4
  -7  10  -4 10.5784 2.19467   5
   7  10   4 16.2769 3.04038   3
  -8 -10  -4 1.71040 1.54189   2
   8 -10   4 1.90180 1.14412   4
   8 -10   4 -0.4100 1.15413   1
  -8  10  -4 0.00666 1.02946   4
   8  10   4 0.04407 1.28018   3
  -8  10  -4 0.00213 0.80089   5
  -8  10  -4 -2.1187 1.29584   1
   9 -10   4 3.31749 1.77914   1
   9 -10   4 4.98441 1.71233   4
   9 -10   4 4.59452 1.77703   5
  -9 -10  -4 1.01006 1.32932   2
  -9  10  -4 3.15186 1.94224   1
  -9  10  -4 6.62092 2.20317   5
   9  10   4 5.66431 2.22463   3
  -9  10  -4 4.43820 1.76608   4
  10 -11  -4 0.94792 1.81617   4
 -10 -11   4 1.30659 1.86089   2
   9 -11  -4 2.21507 1.53692   4
   9 -11  -4 6.53107 2.33953   1
   9 -11  -4 4.73512 2.09800   5
  -9 -11   4 6.25069 2.13284   2
  -9  11   4 3.33422 2.01232   3
  -9  11   4 8.88228 2.69938   5
   9  11  -4 7.09151 2.11330   5
   8 -11  -4 15.9868 3.24589   1
  -8 -11   4 11.8277 2.57414   2
   8 -11  -4 12.4556 2.80628   4
   8 -11  -4 10.7970 2.79218   5
   8  11  -4 8.04615 2.15544   1
  -8  11   4 7.76105 2.62568   5
   8  11  -4 13.9795 2.89428   5
  -8  11   4 8.23226 2.23099   3
   7 -11  -4 1.22170 1.19083   4
   7 -11  -4 5.56096 2.04754   1
  -7 -11   4 1.99780 1.25578   2
   7 -11  -4 5.46181 1.98476   5
   7  11  -4 3.82073 1.75053   1
   7  11  -4 2.01122 1.39717   5
  -7  11   4 1.12537 1.49961   5
  -7  11   4 4.26406 1.89166   3
   6 -11  -4 11.0476 2.44839   1
  -6 -11   4 12.1901 2.37639   2
   6 -11  -4 10.8910 2.40091   5
   6 -11  -4 15.0132 2.80001   4
  -6  11   4 10.9477 2.17110   3
   6  11  -4 13.3656 2.61831   5
   6  11  -4 9.47744 2.48059   1
  -6  11   4 14.0270 2.85959   5
   5 -11  -4 1.87228 1.56036   1
  -5 -11   4 0.66193 1.15004   2
   5 -11  -4 4.20665 1.69878   4
   5  11  -4 0.03372 1.58168   1
  -5  11   4 1.86840 1.44117   5
   5  11  -4 -0.3568 0.81316   5
  -5  11   4 2.93041 1.63805   3
   4 -11  -4 8.46749 2.13436   1
   4 -11  -4 11.8781 2.41558   4
  -4 -11   4 9.59792 1.89001   2
   4  11  -4 10.8006 2.44175   1
  -4  11   4 9.22118 1.97242   3
   4  11  -4 7.28629 1.92403   5
  -4  11   4 11.0441 2.22517   5
  -3 -11   4 2.39875 0.96104   4
   3 -11  -4 1.88143 1.33613   4
  -3 -11   4 4.33942 1.50935   2
   3 -11  -4 3.57192 1.48871   1
  -3  11   4 3.77567 1.55372   3
   3  11  -4 4.99341 1.43838   4
   3  11  -4 3.33178 1.42624   5
  -3  11   4 2.14202 1.31589   5
   3  11  -4 4.70843 2.07922   1
  -2 -11   4 5.28368 1.32163   4
  -2 -11   4 7.23721 1.67572   2
   2 -11  -4 4.50782 1.41525   4
   2 -11  -4 4.40635 1.40110   1
  -2  11   4 4.35807 1.53496   5
   2  11  -4 4.90046 1.64627   1
   2  11  -4 3.48854 1.44799   4
   2  11  -4 4.45041 1.99140   5
  -2  11   4 2.55525 1.37308   3
   1 -11  -4 40.3450 2.88659   1
   1 -11  -4 44.8255 3.43896   4
   1 -11  -4 34.4756 2.49048   2
  -1 -11   4 34.5969 2.92037   2
  -1 -11   4 32.8178 2.78567   4
  -1  11   4 31.7205 3.38540   5
   1  11  -4 31.8777 3.76944   1
   1  11  -4 33.1469 3.59675   4
   1  11  -4 40.8952 3.44279   5
  -1  11   4 35.8384 3.63685   3
   0 -11   4 153.799 7.68079   2
   0 -11  -4 168.174 7.91476   4
   0 -11   4 163.054 7.71349   4
   0 -11  -4 166.768 7.31219   2
   0 -11  -4 161.370 7.13897   1
   0  11   4 154.292 7.69048   5
   0  11  -4 166.513 8.32335   4
   0  11  -4 165.001 8.15504   5
   0  11   4 165.886 8.01231   3
   0  11   4 157.544 7.33027   1
   0  11  -4 142.149 8.05516   1
  -1 -11  -4 23.9778 2.62615   2
   1 -11   4 26.4582 2.93202   2
   1 -11   4 23.8403 2.81988   4
  -1 -11  -4 22.7708 2.66436   4
   1  11   4 24.9755 3.11606   3
  -1  11  -4 26.4718 3.25847   5
  -1  11  -4 23.6690 3.25572   1
   1  11   4 20.3642 2.68717   5
  -1  11  -4 21.4009 2.95336   4
  -2 -11  -4 9.63439 1.87113   2
  -2 -11  -4 9.84351 1.72339   4
   2 -11   4 8.44127 1.78018   4
   2 -11   4 16.9991 2.31928   2
   2  11   4 7.80305 1.99816   5
  -2  11  -4 8.71340 2.00655   4
  -2  11  -4 11.8401 2.26744   5
  -2  11  -4 8.70198 2.01849   1
   2  11   4 13.2368 2.30124   3
  -3 -11  -4 -0.1233 0.98390   2
   3 -11   4 -0.3386 1.00019   4
   3 -11   4 -0.0313 0.81598   2
  -3  11  -4 1.22527 1.27393   5
   3  11   4 0.65986 1.33640   3
   3  11   4 -0.7350 1.13015   5
  -3  11  -4 2.68201 1.39750   1
  -4 -11  -4 10.5907 1.98690   2
   4 -11   4 10.8525 2.07553   4
   4 -11   4 7.94377 1.76646   2
   4 -11   4 9.23728 2.14443   1
   4  11   4 10.2144 2.10046   5
  -4  11  -4 10.7257 2.44008   1
  -4  11  -4 8.41685 1.93490   5
   4  11   4 9.42370 2.21751   3
   5 -11   4 3.08583 1.32676   4
   5 -11   4 2.33695 1.54995   1
  -5 -11  -4 3.31585 1.42360   2
   5 -11   4 2.83222 1.31745   2
  -5  11  -4 2.35191 1.45159   5
   5  11   4 0.81669 1.05156   3
  -5  11  -4 1.54809 1.45513   1
   5  11   4 3.68169 1.45867   5
  -6 -11  -4 18.0858 2.90834   2
   6 -11   4 17.0605 2.87750   4
   6 -11   4 15.3821 2.80619   1
   6  11   4 14.5742 2.39765   5
  -6  11  -4 19.2355 2.95528   5
   6  11   4 12.3790 2.65998   3
  -6  11  -4 17.6992 3.28732   1
   7 -11   4 3.77386 1.72449   1
   7 -11   4 1.05498 1.12170   4
  -7 -11  -4 -2.0083 1.15187   2
  -7  11  -4 3.22133 1.78178   5
  -7  11  -4 4.91244 1.83589   4
  -7  11  -4 1.94116 1.92683   1
   7  11   4 1.56286 1.16738   3
   8 -11   4 14.5219 2.58416   4
   8 -11   4 18.6248 3.04017   1
  -8 -11  -4 13.7472 2.88936   2
   8  11   4 10.8636 2.74208   3
  -8  11  -4 20.9556 3.53198   1
  -8  11  -4 12.6795 2.68706   5
  -8  11  -4 8.51431 2.57268   4
   9 -11   4 1.93442 1.28176   1
  -9 -11  -4 0.50858 1.98110   2
   9 -11   4 0.10536 1.37429   4
  -9  11  -4 0.94501 1.48926   1
  -9  11  -4 0.61565 1.61721   5
   9  11   4 2.13806 1.91718   3
  -9  11  -4 1.57752 2.08632   4
   9 -12  -4 4.60390 2.35730   5
   9 -12  -4 2.60208 1.68757   4
  -9 -12   4 5.27824 1.98733   2
   9 -12  -4 2.89884 2.20809   1
  -9  12   4 1.39883 2.04409   5
  -9  12   4 0.62745 1.43232   3
   9  12  -4 3.76030 1.67855   5
   8 -12  -4 0.56649 1.78152   1
  -8 -12   4 -2.5816 1.24517   2
   8 -12  -4 -0.0515 1.74772   4
   8 -12  -4 4.38271 2.27016   5
  -8  12   4 -0.8152 1.42716   5
  -8  12   4 -0.4122 1.63529   3
   8  12  -4 4.32771 2.03140   5
   7 -12  -4 20.9271 3.47494   4
   7 -12  -4 30.8243 4.36290   1
   7 -12  -4 29.1769 4.20756   5
  -7 -12   4 26.2420 3.69748   2
   7  12  -4 27.3327 3.91137   1
  -7  12   4 28.2665 3.83014   3
  -7  12   4 22.9983 3.85995   5
   7  12  -4 28.8002 4.03514   5
  -6 -12   4 15.1362 2.77537   2
   6 -12  -4 11.8556 2.54941   4
   6 -12  -4 13.1878 2.68530   1
   6  12  -4 14.6864 3.12093   1
  -6  12   4 14.3811 2.86696   5
  -6  12   4 13.3674 2.78223   3
   6  12  -4 11.5508 2.84071   5
   5 -12  -4 1.05202 1.43812   1
  -5 -12   4 2.04435 1.23956   2
   5 -12  -4 0.90780 1.09773   4
  -5  12   4 3.52416 1.72607   5
  -5  12   4 1.91778 1.24327   3
   5  12  -4 -0.7533 1.46048   5
   5  12  -4 -0.8710 1.41526   1
   4 -12  -4 0.20299 1.17098   1
  -4 -12   4 -0.0022 1.19902   2
   4 -12  -4 0.25046 1.00273   4
   4  12  -4 -0.6095 1.81843   1
  -4  12   4 -1.1641 1.26530   3
   4  12  -4 1.90943 1.72212   5
  -4  12   4 1.03865 1.31398   5
   3 -12  -4 27.7261 3.46198   4
  -3 -12   4 27.3286 2.33419   4
   3 -12  -4 25.3033 3.22134   1
  -3 -12   4 29.0507 3.33527   2
   3  12  -4 28.5429 3.80829   5
   3  12  -4 23.3387 3.37606   1
  -3  12   4 32.1566 3.50171   3
   3  12  -4 26.7917 3.21258   4
  -3  12   4 25.8446 3.20787   5
  -2 -12   4 32.7940 2.85394   4
   2 -12  -4 43.4176 3.33132   1
  -2 -12   4 34.8903 3.61846   2
   2 -12  -4 42.1393 4.19052   4
   2  12  -4 38.6689 3.94400   4
   2  12  -4 27.1528 3.69545   1
  -2  12   4 37.4083 3.91270   3
  -2  12   4 42.3339 3.36622   5
   2  12  -4 36.5591 4.18975   5
   1 -12  -4 9.46257 2.05237   4
  -1 -12   4 6.81740 1.58761   4
  -1 -12   4 6.90467 1.62427   2
   1 -12  -4 11.5995 1.87760   1
   1  12  -4 8.95134 2.18808   1
  -1  12   4 8.62673 1.78963   1
   1  12  -4 7.46019 1.90870   4
  -1  12   4 7.54985 2.03927   3
   1  12  -4 4.35288 2.04011   5
  -1  12   4 5.84568 1.73832   5
   0 -12   4 18.4303 2.55862   2
   0 -12  -4 18.0104 2.17317   2
   0 -12  -4 17.9036 2.62684   4
   0 -12   4 21.9937 2.70027   4
   0 -12  -4 22.4438 2.70210   1
   0  12   4 16.3811 2.58179   3
   0  12  -4 16.1876 2.80488   4
   0  12  -4 22.8271 3.07339   5
   0  12   4 19.3705 2.81690   5
   0  12  -4 21.5254 3.25847   1
  -1 -12  -4 34.4523 3.43736   4
  -1 -12  -4 29.6418 3.07765   2
   1 -12   4 34.6358 3.57751   4
   1 -12   4 35.6305 3.54973   2
  -1  12  -4 31.9431 3.86039   4
  -1  12  -4 34.9075 3.80765   5
   1  12   4 33.8408 3.71713   3
   1  12   4 26.7592 3.33222   5
  -1  12  -4 40.1516 4.26749   1
   2 -12   4 11.6655 2.07748   2
   2 -12   4 8.37976 1.83707   4
  -2 -12  -4 10.6738 1.99669   2
  -2 -12  -4 12.0238 1.93464   4
   2  12   4 9.76825 2.32894   5
  -2  12  -4 13.1221 2.36314   5
  -2  12  -4 8.14522 1.99387   4
   2  12   4 13.0941 2.67334   3
  -2  12  -4 10.1675 2.37496   1
   3 -12   4 36.1463 3.67709   2
  -3 -12  -4 41.4981 3.46386   2
   3 -12   4 38.8008 4.07312   4
   3  12   4 31.7686 3.76719   5
  -3  12  -4 36.4099 4.03958   5
  -3  12  -4 34.1011 4.14829   1
   3  12   4 39.5655 4.32029   3
  -4 -12  -4 8.41715 1.90696   2
   4 -12   4 5.89897 1.66123   4
   4 -12   4 7.72894 1.99795   1
   4 -12   4 11.1410 1.99611   2
  -4  12  -4 14.4621 2.73924   1
   4  12   4 10.0428 2.24733   3
   4  12   4 11.1152 2.32758   5
  -4  12  -4 13.1354 2.55929   5
   5 -12   4 0.21124 0.98490   4
   5 -12   4 -0.1980 1.02880   2
  -5 -12  -4 -1.7135 1.10425   2
   5 -12   4 0.77313 1.03940   1
   5  12   4 0.66243 1.10036   5
  -5  12  -4 -0.7331 1.22680   5
  -5  12  -4 -0.5263 0.92578   1
   5  12   4 0.68447 1.11747   3
   6 -12   4 9.38523 2.40124   4
  -6 -12  -4 6.06583 2.21616   2
   6 -12   4 6.29031 1.96685   1
   6  12   4 9.60627 2.34768   3
  -6  12  -4 6.69565 2.07096   1
   6  12   4 9.57526 2.00452   5
  -6  12  -4 2.97713 1.66318   5
   7 -12   4 13.2398 2.70114   4
  -7 -12  -4 8.52992 2.36442   2
   7 -12   4 13.3266 2.78980   1
  -7  12  -4 17.5743 3.42391   1
   7  12   4 9.99611 2.58513   3
  -7  12  -4 10.8754 2.64676   4
  -7  12  -4 13.1656 2.84476   5
   8 -12   4 4.09011 1.74152   1
   8 -12   4 3.30449 1.84671   4
  -8 -12  -4 -0.4705 1.62080   2
  -8  12  -4 3.80721 1.79784   5
  -8  12  -4 3.06269 1.87187   1
   8  12   4 8.19739 2.35744   3
  -8  12  -4 1.68722 2.07495   4
   8 -13  -4 9.68939 2.55981   5
   8 -13  -4 4.17344 2.14049   4
   8 -13  -4 8.15956 2.55982   1
  -8 -13   4 5.42672 2.07810   2
   8  13  -4 8.61159 2.35408   5
  -8  13   4 9.30242 2.70296   3
  -8  13   4 5.46525 2.15847   5
   7 -13  -4 2.29039 1.88545   1
   7 -13  -4 0.00783 1.17639   4
  -7 -13   4 -2.7299 1.17144   2
  -7  13   4 0.08692 1.65089   3
   7  13  -4 1.04003 1.64449   1
  -7  13   4 0.68619 1.08349   5
   7  13  -4 1.86777 1.90533   5
   6 -13  -4 20.2309 3.37655   4
  -6 -13   4 22.1456 3.27275   2
   6 -13  -4 16.3125 3.20012   1
  -6  13   4 21.2615 3.31847   3
  -6  13   4 28.3449 4.06687   5
   6  13  -4 18.7607 3.39408   5
   6  13  -4 24.0276 3.78782   1
   5 -13  -4 6.65204 2.02408   4
  -5 -13   4 9.30303 2.34280   2
   5 -13  -4 6.58101 2.13290   1
   5  13  -4 14.5460 3.11796   1
  -5  13   4 12.0509 2.50258   5
  -5  13   4 7.46611 2.26653   3
   5  13  -4 8.83579 2.51504   5
   4 -13  -4 3.40947 1.47689   4
   4 -13  -4 12.3914 2.55448   1
  -4 -13   4 5.92349 1.73674   2
  -4  13   4 5.55668 2.02182   3
   4  13  -4 6.18441 2.40230   5
  -4  13   4 7.36556 1.88612   5
   4  13  -4 2.58633 2.08609   1
   3 -13  -4 7.25209 2.00804   4
  -3 -13   4 6.91141 1.93520   2
   3 -13  -4 9.41419 2.11092   1
  -3 -13   4 10.4675 1.84236   4
   3  13  -4 5.65567 2.40289   5
   3  13  -4 10.2893 2.51124   1
   3  13  -4 7.73171 1.89771   4
  -3  13   4 6.08776 1.95178   5
  -3  13   4 6.89462 1.88337   3
   2 -13  -4 0.17532 1.00381   1
  -2 -13   4 -0.1981 0.86199   4
   2 -13  -4 1.05696 1.01377   4
  -2 -13   4 1.13333 0.98703   2
   2  13  -4 0.45404 1.31119   1
   2  13  -4 0.37296 1.69592   5
   2  13  -4 -1.0091 0.73569   4
  -2  13   4 1.58713 1.37004   5
  -2  13   4 1.14726 1.48012   3
  -1 -13   4 56.4687 3.92827   4
   1 -13  -4 58.4778 4.21905   4
  -1 -13   4 55.1652 4.13411   2
   1 -13  -4 59.1305 3.80733   1
   1  13  -4 45.1972 4.94711   1
   1  13  -4 46.3788 4.99063   5
  -1  13   4 55.7824 4.23241   5
  -1  13   4 52.9775 3.87555   1
   1  13  -4 49.4086 4.11671   4
  -1  13   4 46.6410 4.21069   3
   0 -13  -4 28.1485 2.87366   2
   0 -13  -4 37.8439 3.78937   4
   0 -13   4 34.2305 3.49158   4
   0 -13   4 28.4683 3.36368   2
   0  13   4 29.2034 3.45274   5
   0  13   4 35.2052 3.96985   3
   0  13  -4 27.5144 3.81550   5
   0  13  -4 28.2006 3.66774   4
   0  13  -4 32.5536 4.16905   1
  -1 -13  -4 -0.5452 0.54940   2
  -1 -13  -4 0.96806 1.12218   4
   1 -13   4 -0.4311 0.93438   4
   1 -13   4 -1.5049 0.89504   2
   1  13   4 -1.2696 1.24146   5
  -1  13  -4 -0.0050 1.30613   4
  -1  13  -4 -1.1209 1.16046   1
   1  13   4 -0.9054 1.44549   3
  -1  13  -4 0.20950 1.21775   5
  -2 -13  -4 27.5762 3.24203   2
   2 -13   4 33.2964 3.67181   4
  -2 -13  -4 33.5226 3.41637   4
   2 -13   4 34.8417 3.57886   2
  -2  13  -4 30.9969 3.78977   5
   2  13   4 28.4982 3.63551   5
   2  13   4 30.5413 3.96468   3
  -2  13  -4 25.1783 3.55120   4
  -2  13  -4 32.9005 4.09441   1
   3 -13   4 23.3751 2.90251   2
  -3 -13  -4 22.2259 3.03853   2
   3 -13   4 15.5425 2.78535   4
   3  13   4 20.0759 3.15435   3
  -3  13  -4 24.5984 3.45839   5
  -3  13  -4 23.0504 3.63137   1
   3  13   4 19.9877 3.14318   5
   4 -13   4 -0.6794 0.90724   2
   4 -13   4 3.47591 1.43997   4
  -4 -13  -4 0.93629 1.28413   2
  -4  13  -4 2.21308 1.58410   5
   4  13   4 -0.9067 1.25030   5
   4  13   4 -1.7719 0.79795   3
  -4  13  -4 0.08740 1.17725   1
   5 -13   4 1.47726 1.74142   1
   5 -13   4 4.20111 1.90972   4
  -5 -13  -4 2.68300 1.63361   2
  -5  13  -4 3.49671 1.87346   5
   5  13   4 3.15085 1.60559   5
  -5  13  -4 3.78882 2.17482   1
   5  13   4 5.68822 1.87347   3
   6 -13   4 11.9099 2.69277   4
  -6 -13  -4 14.8280 2.92426   2
   6 -13   4 11.0354 2.63340   1
  -6  13  -4 13.8898 3.00305   1
  -6  13  -4 14.8624 2.82398   5
   6  13   4 6.92184 2.51601   3
  -7 -13  -4 -0.8509 1.54795   2
   7 -13   4 -0.8543 0.95578   4
   7 -13   4 -0.4560 0.99184   1
   7  13   4 0.39087 1.55109   3
  -7  13  -4 0.48281 1.31081   4
  -7  13  -4 1.22842 1.77198   5
  -7  13  -4 2.75451 1.65727   1
   8 -13   4 5.46522 2.18772   1
  -8 -13  -4 4.87073 2.51475   2
   8 -13   4 8.11180 2.43183   4
  -8  13  -4 6.97439 2.54569   5
  -8  13  -4 9.51147 2.96361   1
   8  13   4 6.94283 2.44795   3
  -8  13  -4 6.15491 2.59572   4
   8 -14  -4 -0.4229 1.82949   4
  -8 -14   4 -0.8329 1.93759   2
   8 -14  -4 0.17207 1.90352   1
  -8  14   4 -0.9408 1.93393   3
  -8  14   4 -0.3398 1.73231   5
   7 -14  -4 0.32429 1.49143   4
  -7 -14   4 1.30264 1.44270   2
   7 -14  -4 -0.4579 1.32956   1
  -7  14   4 0.42631 1.45630   3
  -7  14   4 2.21385 1.77003   5
   7  14  -4 4.50966 2.11241   5
   6 -14  -4 1.80398 1.85284   1
  -6 -14   4 1.55399 1.78247   2
   6 -14  -4 0.18114 1.29285   4
  -6  14   4 -1.2913 0.81824   5
   6  14  -4 -1.6615 1.70527   1
   6  14  -4 -0.4623 1.54876   5
  -6  14   4 1.85450 1.95821   3
   5 -14  -4 3.48834 2.11682   4
  -5 -14   4 1.38296 1.61644   2
   5 -14  -4 6.20736 1.95093   1
   5  14  -4 0.17249 1.94485   1
  -5  14   4 4.99309 2.00368   5
   5  14  -4 1.46541 1.47280   5
  -5  14   4 1.52272 1.50695   3
   4 -14  -4 0.16872 0.99566   1
  -4 -14   4 3.13449 1.73620   2
   4 -14  -4 2.81838 1.70451   4
   4  14  -4 2.17198 2.01532   5
  -4  14   4 1.99669 1.49159   5
  -4  14   4 0.06120 1.14570   3
   4  14  -4 -2.1858 1.18140   1
  -3 -14   4 1.91101 1.26419   2
   3 -14  -4 2.71197 1.37304   4
   3 -14  -4 2.31296 1.39130   1
  -3  14   4 0.34082 1.25331   3
  -3  14   4 2.18590 1.27768   5
   3  14  -4 2.33404 1.73470   1
   3  14  -4 1.12794 1.92866   5
   2 -14  -4 33.1656 3.58645   1
   2 -14  -4 35.0857 3.98122   4
  -2 -14   4 30.7000 3.25226   4
  -2 -14   4 26.1186 3.46267   2
   2  14  -4 26.3781 3.53053   4
  -2  14   4 27.3673 3.47580   1
  -2  14   4 30.6651 3.87521   3
   2  14  -4 24.0686 3.88817   5
  -2  14   4 29.3470 3.70493   5
   2  14  -4 31.1123 4.08370   1
  -1 -14   4 50.2709 4.11585   2
  -1 -14   4 57.9429 4.10852   4
   1 -14  -4 51.7185 4.32243   4
  -1  14   4 48.0687 4.95924   3
  -1  14   4 60.4611 4.59076   5
   1  14  -4 52.5277 4.43467   4
   1  14  -4 47.6339 5.02611   5
   1  14  -4 45.6009 5.21541   1
   0 -14   4 3.09842 1.22172   4
   0 -14  -4 1.61373 1.16769   4
   0 -14   4 2.14356 1.10781   2
   0  14  -4 -1.8786 1.04749   4
   0  14   4 -0.1846 1.03879   3
   0  14  -4 0.46790 1.44819   5
   0  14  -4 3.06827 1.64430   1
   0  14   4 0.01297 1.12952   5
   1 -14   4 9.50316 2.12698   2
   1 -14   4 6.27148 1.66467   4
  -1 -14  -4 7.22513 1.89788   4
  -1 -14  -4 6.97585 1.72013   2
  -1  14  -4 7.88240 2.51913   5
   1  14   4 7.12263 2.36236   5
  -1  14  -4 6.87804 2.29603   1
  -1  14  -4 8.72675 2.32060   4
   1  14   4 7.77403 2.08761   3
   2 -14   4 2.46867 1.16323   4
   2 -14   4 1.15468 1.15547   2
  -2 -14  -4 1.70143 1.30776   2
   2  14   4 1.69091 1.56280   3
  -2  14  -4 1.22008 1.21707   5
  -2  14  -4 2.41507 1.55565   1
  -2  14  -4 0.63987 0.99202   4
   2  14   4 1.16860 1.73772   5
   3 -14   4 23.7247 3.48358   4
  -3 -14  -4 22.9937 3.15439   2
   3 -14   4 24.2412 3.13705   2
  -3  14  -4 24.6096 3.68251   5
   3  14   4 21.5415 3.43443   5
   3  14   4 16.9792 3.04548   3
  -3  14  -4 21.3747 3.45368   1
  -4 -14  -4 28.2487 3.62968   2
   4 -14   4 24.7391 3.65007   2
   4 -14   4 24.4693 3.57358   4
   4  14   4 28.6416 3.65523   5
   4  14   4 26.7486 3.74687   3
  -4  14  -4 22.6885 3.93202   1
  -4  14  -4 26.5093 3.88146   5
   5 -14   4 14.6616 3.00405   4
  -5 -14  -4 17.1641 2.88112   2
  -5  14  -4 11.7062 2.56172   5
  -5  14  -4 19.7089 3.67006   1
   5  14   4 21.9445 3.45425   3
   5  14   4 15.7710 2.86150   5
   6 -14   4 6.87047 2.41754   1
  -6 -14  -4 5.67552 2.22288   2
   6 -14   4 5.32404 2.15391   4
  -6  14  -4 4.52622 2.04959   5
   6  14   4 3.50323 2.05478   3
  -6  14  -4 5.69933 2.62975   1
  -7 -14  -4 4.40929 1.96675   2
   7 -14   4 2.78885 1.61915   4
   7 -14   4 4.83390 1.90291   1
  -7  14  -4 6.88818 2.41051   1
  -7  14  -4 4.26737 2.09872   4
   7  14   4 8.77231 2.39790   3
  -7  14  -4 3.68446 1.83171   5
  -7 -15   4 -0.4016 2.07110   2
   7 -15  -4 1.22053 2.36241   4
   7 -15  -4 4.46695 2.33003   1
  -7  15   4 2.30539 2.01768   5
   7  15  -4 4.24641 1.72970   5
  -7  15   4 -0.7211 2.00551   3
   6 -15  -4 -0.1798 1.80531   4
   6 -15  -4 0.37269 1.28828   1
  -6 -15   4 -0.7767 1.03153   2
   6  15  -4 -2.0409 2.88702   1
   6  15  -4 -1.4843 1.71066   5
  -6  15   4 -2.3442 1.60603   3
  -6  15   4 0.34632 1.67704   5
   5 -15  -4 4.23795 2.22800   4
   5 -15  -4 7.07289 2.33428   1
  -5 -15   4 3.85105 1.74216   2
   5  15  -4 7.33430 2.40425   5
   5  15  -4 7.47608 2.75366   1
  -5  15   4 4.76950 2.22712   5
  -5  15   4 4.83695 2.39882   3
   4 -15  -4 8.29928 2.40403   4
   4 -15  -4 6.73608 1.98332   1
  -4 -15   4 8.92283 2.16430   2
   4  15  -4 3.14317 2.37025   5
   4  15  -4 8.83990 2.58644   1
  -4  15   4 6.59309 2.45120   5
  -4  15   4 8.83802 2.68032   3
   3 -15  -4 1.63388 1.34333   1
   3 -15  -4 5.52415 2.17573   4
  -3 -15   4 8.54021 2.21165   2
  -3  15   4 4.88268 1.72391   1
  -3  15   4 1.47221 1.96723   3
   3  15  -4 6.18779 2.27119   1
  -3  15   4 6.31789 2.19478   5
   3  15  -4 2.09764 2.25190   5
  -2 -15   4 1.29031 1.12398   2
   2 -15  -4 2.73480 1.69192   4
  -2 -15   4 0.10583 1.07052   4
   2 -15  -4 -0.1390 1.28386   1
   2  15  -4 -0.0495 1.06014   4
  -2  15   4 1.39489 1.35822   5
   2  15  -4 -0.7955 1.58199   5
   2  15  -4 -2.1439 1.72250   1
  -2  15   4 -0.2495 1.33821   3
  -2  15   4 1.02078 1.28149   1
  -1 -15   4 31.8039 3.55643   4
  -1 -15   4 35.4509 3.83262   2
   1 -15  -4 34.4976 4.15991   4
   1  15  -4 27.3372 4.25819   5
   1  15  -4 25.0458 3.64794   4
  -1  15   4 29.0721 3.97182   5
   1  15  -4 26.1949 4.05926   1
  -1  15   4 24.9958 3.85462   3
   0 -15   4 12.3611 2.39780   2
   0 -15   4 11.3951 2.21844   4
   0 -15  -4 10.6562 2.37028   4
   0  15  -4 7.67379 2.84618   5
   0  15   4 11.0313 2.73523   5
   0  15  -4 8.37295 2.69055   1
   0  15  -4 11.2510 2.50430   4
   0  15   4 10.4965 2.49860   3
   1 -15   4 0.40639 1.00215   2
  -1 -15  -4 0.43446 1.37535   4
   1 -15   4 1.64400 1.20250   4
   1  15   4 -0.5307 1.21789   5
   1  15   4 -0.6733 1.83240   3
  -1  15  -4 -0.1220 1.06900   4
  -1  15  -4 1.95354 2.06062   5
  -1  15  -4 1.02362 1.83803   1
   2 -15   4 3.56639 1.70915   4
   2 -15   4 2.12618 1.34899   2
  -2 -15  -4 0.51273 1.23584   2
  -2  15  -4 0.20822 1.43782   5
  -2  15  -4 -0.7095 1.08584   4
   2  15   4 -3.7530 1.53098   5
   2  15   4 -2.4983 1.63873   3
  -2  15  -4 1.36346 1.74223   1
   3 -15   4 16.4695 2.74875   2
   3 -15   4 15.6243 2.74185   4
  -3 -15  -4 13.5400 2.41625   2
   3  15   4 13.2304 2.96590   5
  -3  15  -4 6.55663 2.14671   4
  -3  15  -4 7.01149 2.47543   5
  -3  15  -4 15.3003 3.32490   1
   3  15   4 11.7521 3.01676   3
   4 -15   4 6.76250 2.36917   4
  -4 -15  -4 3.38143 1.49837   2
  -4  15  -4 8.67526 2.36351   5
   4  15   4 9.21327 2.47292   3
  -4  15  -4 1.81677 1.74881   1
   4  15   4 7.87649 2.45364   5
  -5 -15  -4 4.21600 2.01045   2
   5 -15   4 6.04792 2.33906   4
   5  15   4 7.79612 2.32318   3
  -5  15  -4 7.77717 2.25841   5
  -5  15  -4 9.80295 2.94436   1
  -6 -15  -4 4.11897 2.10714   2
   6 -15   4 -0.4977 1.29521   4
  -6  15  -4 0.41869 2.33359   1
  -6  15  -4 0.97715 1.89249   5
  -6  15  -4 0.76137 1.54999   4
   6  15   4 0.98688 1.87552   3
   6 -16  -4 4.52737 2.29743   1
  -6  16   4 -1.3417 1.76730   5
   5 -16  -4 1.57640 1.42126   4
   5 -16  -4 3.94300 2.18937   1
  -5 -16   4 -2.4011 1.39486   2
  -5  16   4 -0.1486 1.37975   5
  -5  16   4 1.35135 2.22585   3
  -5  16   4 4.70063 2.23351   1
   5  16  -4 2.24975 2.28080   1
   5  16  -4 0.83941 1.57106   5
  -4 -16   4 21.7001 3.34598   2
   4 -16  -4 17.0915 3.05668   1
   4 -16  -4 15.3037 3.15693   4
  -4  16   4 20.2331 3.66981   3
   4  16  -4 14.1440 3.45809   5
   4  16  -4 16.3318 3.90370   1
  -4  16   4 18.1278 3.46709   5
  -4  16   4 22.0589 3.60746   1
  -3 -16   4 6.89878 2.07699   2
   3 -16  -4 3.92691 1.86693   4
   3 -16  -4 4.84758 1.95326   1
  -3  16   4 6.42922 2.40355   5
  -3  16   4 5.04306 2.48713   3
   3  16  -4 0.68828 1.75023   5
  -3  16   4 3.99915 1.96355   1
   3  16  -4 1.80887 2.50863   1
   2 -16  -4 2.87029 1.58837   4
  -2 -16   4 2.32054 1.60925   2
  -2 -16   4 2.29483 1.49341   4
  -2  16   4 2.24393 1.78964   3
   2  16  -4 -1.2957 2.10832   5
  -2  16   4 1.76823 1.49464   5
   2  16  -4 -0.0095 2.10468   1
  -1 -16   4 2.08382 1.35356   4
  -1 -16   4 0.61162 1.39227   2
   1 -16  -4 1.24085 1.37540   4
  -1  16   4 -0.8403 1.95282   3
   1  16  -4 -2.9925 1.86023   5
  -1  16   4 0.32023 1.62837   5
   1  16  -4 -1.1766 1.30082   1
   1  16  -4 1.42089 1.48627   4
   0 -16  -4 11.5256 2.58760   4
   0 -16   4 6.10254 1.98702   4
   0 -16   4 9.50250 2.23451   2
   0  16   4 10.1314 2.62468   3
   0  16   4 8.56455 2.57900   5
   0  16  -4 8.56063 2.49491   1
   0  16  -4 10.7221 3.17515   5
   0  16  -4 8.74241 2.41553   4
   1 -16   4 8.81096 2.20840   4
   1 -16   4 10.5545 2.31237   2
  -1 -16  -4 10.5983 2.53083   4
   1  16   4 5.33782 2.49469   5
   1  16   4 3.89018 2.57892   3
  -1  16  -4 8.41596 2.61330   4
  -1  16  -4 4.68108 2.10881   5
  -1  16  -4 4.63194 2.01519   1
  -2 -16  -4 -0.2528 1.17750   2
   2 -16   4 0.15759 0.80045   2
   2 -16   4 -0.0184 1.25618   4
   2  16   4 -1.4895 1.13806   3
   2  16   4 -3.0221 1.73096   5
  -2  16  -4 1.67529 1.83164   4
  -2  16  -4 0.54539 1.52094   1
  -2  16  -4 -0.2429 1.52734   5
  -3 -16  -4 1.10555 1.36642   2
   3 -16   4 0.60635 1.25795   4
   3  16   4 0.10346 1.41327   3
  -3  16  -4 -3.5054 1.56045   5
  -3  16  -4 0.61071 1.34206   4
  -3  16  -4 3.65459 2.31985   1
   3  16   4 -4.7946 1.63089   5
   4 -16   4 2.38198 1.63637   4
  -4 -16  -4 1.83833 1.67611   2
  -4  16  -4 4.52110 2.07926   5
  -4  16  -4 3.99542 2.01814   1
   4  16   4 1.91685 1.65472   5
  -4  16  -4 4.90793 1.89980   4
   4  16   4 8.18898 2.57998   3
   5 -16   4 1.09862 1.34783   4
  -5 -16  -4 0.90375 1.57582   2
  -5  16  -4 2.51255 1.84182   1
  -5  16  -4 0.72484 1.49072   4
   5  16   4 1.01249 1.29232   3
  -5  16  -4 -3.4838 1.83554   5
   4 -17  -4 3.47131 2.18300   4
   4 -17  -4 2.96899 1.96572   1
  -4 -17   4 -0.1014 1.75258   2
  -4  17   4 6.21681 2.29628   1
   4  17  -4 2.74295 2.60981   5
   4  17  -4 -5.5919 1.99851   1
  -4  17   4 0.29344 1.34992   5
  -4  17   4 2.58530 2.00784   3
   3 -17  -4 -0.4489 1.73969   4
  -3 -17   4 2.89976 1.58278   2
   3  17  -4 -2.5554 2.26202   1
   3  17  -4 -0.7572 1.62841   5
  -3  17   4 1.33576 1.82796   3
  -3  17   4 3.22594 1.88362   5
   2 -17  -4 2.43772 1.90257   4
  -2 -17   4 2.56259 1.79443   2
  -2  17   4 -0.9979 1.48253   3
   2  17  -4 -1.6989 2.48481   5
   2  17  -4 4.72010 2.32436   1
  -2  17   4 -2.5856 1.76104   5
  -1 -17   4 1.40534 1.51964   2
   1 -17  -4 0.84215 1.67858   4
  -1 -17   4 0.90985 1.10831   4
  -1  17   4 -2.3612 1.65097   5
   1  17  -4 1.67584 2.36354   1
  -1  17   4 -1.8069 1.37309   3
   1  17  -4 -5.6158 1.86526   5
   1  17  -4 0.60627 1.39220   4
   0 -17   4 26.1564 3.51127   4
   0 -17  -4 22.3285 3.55208   4
   0 -17   4 20.2523 3.26629   2
   0  17   4 17.4509 3.62919   5
   0  17  -4 19.7218 3.89272   1
   0  17  -4 17.1918 3.55756   5
   0  17  -4 22.1613 3.70362   4
   0  17   4 20.9243 3.94325   3
   1 -17   4 1.03526 1.40947   4
   1 -17   4 2.06273 1.56923   2
   1  17   4 -0.8078 1.62654   3
  -1  17  -4 -1.6915 2.31865   5
  -1  17  -4 0.86859 1.80028   4
  -1  17  -4 0.80503 2.03455   1
   1  17   4 -1.1479 2.24551   5
   2 -17   4 9.36427 2.25919   4
   2 -17   4 11.4316 2.46620   2
  -2  17  -4 8.22685 3.36778   5
  -2  17  -4 15.9300 3.17132   4
   2  17   4 8.29095 2.96793   3
   2  17   4 6.86614 2.95574   5
  -2  17  -4 11.9210 3.05478   1
  -3 -17  -4 -0.5799 1.33301   2
   3 -17   4 2.23785 2.00420   4
   3  17   4 0.20780 1.93388   3
   3  17   4 -2.1407 1.95874   5
  -3  17  -4 1.24621 2.03378   1
  -3  17  -4 -0.3174 1.80841   4
  -3  17  -4 1.77632 1.78730   5
  -4 -17  -4 -1.3940 1.33457   2
  -4  17  -4 0.04500 1.83502   5
   2 -18  -4 0.71262 2.02882   4
  -2 -18   4 0.55151 1.17621   2
   2  18  -4 -3.6387 2.23749   1
  -2  18   4 -0.0680 1.96857   5
  -2  18   4 -0.8042 1.77488   3
   2  18  -4 -1.7429 1.91319   5
   1 -18  -4 -0.2833 1.62245   4
  -1 -18   4 -1.7998 1.31267   4
  -1 -18   4 0.92490 1.60209   2
   1  18  -4 -2.9906 2.07312   1
  -1  18   4 -3.7865 1.85177   5
  -1  18   4 -2.4032 1.61799   3
   1  18  -4 -1.4386 1.91920   5
   1  18  -4 -1.7628 1.74631   4
   0 -18  -4 -0.6088 1.77684   4
   0 -18   4 -0.6417 1.34748   2
   0 -18   4 -0.5068 0.94437   4
   0  18  -4 2.08825 1.96835   1
   0  18  -4 -3.9208 2.30790   5
   0  18   4 -4.3009 2.04273   3
   0  18  -4 0.27971 1.23873   4
   0  18   4 -7.0558 1.87926   5
   1 -18   4 8.09863 2.32370   4
   1 -18   4 6.95427 2.14839   2
   1  18   4 5.09904 2.45625   3
  -1  18  -4 1.50467 1.89248   1
   1  18   4 2.26242 2.12340   5
  -1  18  -4 7.01900 2.30411   4
  -1  18  -4 3.21322 3.03605   5
  12   0  -5 -2.0918 1.68397   1
  12   0  -5 -0.0437 1.92694   3
 -12   0   5 1.61949 1.92159   3
  12   0  -5 0.47708 1.95543   5
  11   0  -5 2.28997 1.83855   3
  11   0  -5 -0.0111 1.72766   1
  11   0  -5 0.56085 1.26486   5
 -11   0   5 0.40529 1.63877   3
  10   0  -5 -1.3626 1.28943   1
 -10   0   5 -0.1229 1.43878   3
  10   0  -5 1.63441 1.35849   5
  10   0  -5 0.77517 1.61600   3
   9   0  -5 0.69572 1.07700   5
  -9   0   5 -0.3285 0.77968   3
   9   0  -5 1.59562 1.55731   1
   9   0  -5 -0.6944 0.76297   3
   8   0  -5 143.717 7.91455   5
   8   0  -5 149.097 8.08733   1
  -8   0   5 138.225 7.52939   3
   8   0  -5 141.341 7.66792   3
  -7   0   5 -0.5716 0.78437   3
   7   0  -5 -0.2693 0.90905   3
   7   0  -5 -0.8523 0.99590   1
   7   0  -5 -0.5513 0.41697   4
   7   0  -5 -1.3711 0.61059   5
  -6   0   5 9.43344 1.65872   3
   6   0  -5 10.7057 2.18609   1
   6   0  -5 13.8556 2.20973   5
   6   0  -5 15.3039 1.91406   4
  -6   0   5 12.4766 1.37898   2
   6   0  -5 12.6007 1.96501   3
  -5   0   5 -0.2200 0.37573   2
   5   0  -5 -0.5764 0.47590   1
   5   0  -5 -0.3220 0.53865   3
  -5   0   5 -0.3078 0.57617   3
   5   0  -5 -0.7286 0.44780   4
   4   0  -5 27.5327 2.39237   1
   4   0  -5 23.2474 2.11571   5
   4   0  -5 28.9149 2.24569   4
  -4   0   5 29.3245 1.82097   2
   4   0  -5 29.0610 2.12064   3
  -4   0   5 24.9249 1.95875   3
   3   0  -5 0.16631 0.51584   1
   3   0  -5 -0.4163 0.38759   4
  -3   0   5 0.40765 0.40667   3
   3   0  -5 -0.8749 0.35678   5
  -3   0   5 0.00692 0.35936   2
  -2   0   5 0.66464 0.35120   3
   2   0  -5 -0.0710 0.48484   1
   2   0  -5 0.13251 0.41559   5
   2   0  -5 0.13684 0.58243   4
  -2   0   5 -0.0923 0.36756   2
   1   0  -5 0.92954 0.72238   4
  -1   0   5 -0.2541 0.28180   3
   1   0  -5 -0.1609 0.25792   5
  -1   0   5 0.22319 0.43309   2
   1   0  -5 0.45793 0.49889   1
   0   0  -5 381.240 13.9173   1
   0   0   5 366.989 13.2590   3
   0   0  -5 358.969 12.7512   5
   0   0  -5 352.778 14.1568   4
   0   0   5 361.559 13.9533   2
   1   0   5 -0.0918 0.28514   3
  -1   0  -5 -0.0587 0.48972   1
  -1   0  -5 0.04649 0.52984   4
   1   0   5 0.49931 0.42879   2
  -2   0  -5 152.650 6.91071   4
   2   0   5 150.561 6.88856   2
   2   0   5 162.618 6.41174   3
  -2   0  -5 157.755 6.43061   1
  -2   0  -5 149.831 5.44569   5
  -3   0  -5 -0.2443 0.36916   4
   3   0   5 0.08210 0.46258   3
   3   0   5 -0.4176 0.34709   2
  -3   0  -5 0.07589 0.51144   1
   3   0   5 -0.3719 0.22305   5
  -3   0  -5 -0.0597 0.47217   2
  -3   0  -5 0.05523 0.25675   5
   4   0   5 348.658 14.2599   2
  -4   0  -5 358.417 13.2794   1
   4   0   5 347.534 13.0993   5
   4   0   5 347.690 13.9098   3
  -4   0  -5 355.678 13.9913   4
  -4   0  -5 355.893 14.6477   2
  -5   0  -5 -0.4506 0.68402   4
   5   0   5 -0.4224 0.68050   3
  -5   0  -5 -0.6159 0.91200   2
  -5   0  -5 0.51948 0.70832   1
   5   0   5 0.05460 0.86067   2
   5   0   5 -0.4300 0.54635   5
  -6   0  -5 207.990 8.87206   4
   6   0   5 195.364 9.33300   3
   6   0   5 198.113 8.67543   5
   6   0   5 208.539 9.52550   2
  -6   0  -5 204.138 9.78465   2
  -7   0  -5 -1.2116 0.80570   2
   7   0   5 -1.1912 0.75718   2
   7   0   5 0.03990 0.92641   3
   8   0   5 171.180 9.30593   3
  -8   0  -5 197.989 9.74171   2
  -9   0  -5 1.57539 1.15594   2
   9   0   5 0.20505 1.27258   3
 -10   0  -5 95.2966 6.38395   2
  10   0   5 82.2401 6.19989   3
  11   0   5 1.44910 1.79073   3
 -11   0  -5 -1.2580 1.42424   2
  12  -1  -5 9.26434 2.77748   3
  12  -1  -5 5.39618 2.19382   5
 -12  -1   5 6.08591 2.23694   3
  12  -1  -5 5.94766 2.48508   1
  12   1  -5 7.02892 2.58368   1
  12   1  -5 4.65857 2.19118   5
  12   1  -5 7.60470 2.84605   3
 -12   1   5 5.66149 2.50185   3
  11  -1  -5 -0.4379 0.94085   3
  11  -1  -5 0.05175 1.27559   1
  11  -1  -5 1.70052 1.54834   5
 -11  -1   5 2.10329 1.76524   3
 -11   1   5 0.18014 1.19688   3
  11   1  -5 -0.2715 1.69875   3
  11   1  -5 2.95032 1.79536   1
  11   1  -5 0.78535 1.78251   5
  10  -1  -5 0.21119 1.03038   3
 -10  -1   5 2.64297 1.42173   3
  10  -1  -5 0.11187 1.10990   1
  10  -1  -5 -0.8727 0.82229   5
  10   1  -5 -0.4997 0.93390   3
  10   1  -5 0.11362 1.02342   1
  10   1  -5 0.02487 1.35666   5
 -10   1   5 0.15350 1.37577   3
   9  -1  -5 0.02916 0.79551   5
   9  -1  -5 0.44785 0.97038   1
   9  -1  -5 -1.0331 1.27199   3
  -9  -1   5 2.41222 1.48235   3
   9   1  -5 1.33556 1.17607   1
   9   1  -5 3.60785 1.76776   3
  -9   1   5 1.38294 1.57960   3
   9   1  -5 -0.3159 0.97498   5
   8  -1  -5 0.82080 0.95251   5
   8  -1  -5 0.31253 0.79365   4
   8  -1  -5 1.69091 1.06253   3
   8  -1  -5 1.27365 1.44752   1
  -8  -1   5 1.29578 1.15591   3
   8   1  -5 -0.3714 1.01057   3
   8   1  -5 0.68938 1.00984   1
   8   1  -5 0.29873 1.16352   5
  -8   1   5 1.76618 1.33568   3
   7  -1  -5 32.3957 3.90561   1
  -7  -1   5 34.0552 3.07959   3
   7  -1  -5 35.9103 3.94748   5
   7  -1  -5 35.8117 2.79418   4
   7  -1  -5 44.7876 3.51621   3
   7   1  -5 34.7693 3.63349   3
  -7   1   5 41.8870 3.38000   3
   7   1  -5 38.3983 4.05615   5
   7   1  -5 43.0690 2.82110   4
   7   1  -5 32.9800 3.87566   1
  -6  -1   5 -0.0430 0.63689   3
   6  -1  -5 -0.8637 0.87516   1
  -6  -1   5 -0.1769 0.46308   2
   6  -1  -5 -1.4571 0.53970   3
   6  -1  -5 -1.1819 0.72655   5
   6  -1  -5 -0.3633 0.39912   4
   6   1  -5 0.64416 0.82037   1
  -6   1   5 -0.4119 0.73051   3
   6   1  -5 0.38014 0.64767   4
   6   1  -5 -0.8175 0.55058   5
   6   1  -5 0.14204 0.59166   3
   5  -1  -5 77.3125 4.21277   3
  -5  -1   5 74.6674 3.57306   2
  -5  -1   5 64.0975 3.81844   3
   5  -1  -5 73.0197 4.44556   1
   5  -1  -5 70.2747 3.99235   4
   5  -1  -5 77.8880 4.36363   5
  -5   1   5 72.0233 3.25559   2
   5   1  -5 70.0120 4.24646   5
   5   1  -5 69.7515 4.42250   1
  -5   1   5 64.3335 3.88173   3
   5   1  -5 64.8869 3.89537   3
   5   1  -5 66.0483 3.81591   4
   4  -1  -5 90.9078 5.05489   1
  -4  -1   5 98.3536 4.33621   2
  -4  -1   5 85.7791 4.38427   3
   4  -1  -5 90.2181 4.73328   4
   4  -1  -5 94.2700 4.78042   5
  -4   1   5 99.5137 4.10721   2
  -4   1   5 91.6389 4.58047   3
   4   1  -5 91.4796 4.76363   5
   4   1  -5 95.1279 5.07416   1
   4   1  -5 93.5402 4.69573   4
   4   1  -5 87.4121 4.44853   3
  -3  -1   5 2.91066 0.70403   2
   3  -1  -5 2.21453 0.99139   1
  -3  -1   5 2.13870 0.59318   3
   3  -1  -5 2.48871 0.80239   5
   3  -1  -5 2.48086 0.79626   4
   3   1  -5 1.95075 0.72761   5
   3   1  -5 2.36321 0.94307   1
  -3   1   5 2.89847 0.63650   2
  -3   1   5 1.52535 0.58455   3
   3   1  -5 2.29544 0.76603   4
   2  -1  -5 193.606 8.13587   1
  -2  -1   5 189.236 7.75549   2
   2  -1  -5 187.719 8.12016   4
   2  -1  -5 193.046 7.56627   5
  -2  -1   5 188.594 7.26187   3
   2   1  -5 192.911 8.15473   4
   2   1  -5 195.800 7.63639   5
  -2   1   5 190.008 7.51799   3
   2   1  -5 178.427 8.13267   1
  -2   1   5 194.192 7.63767   2
  -1  -1   5 458.377 17.4998   2
  -1  -1   5 477.321 16.7166   3
   1  -1  -5 451.285 16.8027   5
   1  -1  -5 476.440 17.8539   4
   1  -1  -5 463.776 17.5920   1
   1   1  -5 484.560 17.9329   4
  -1   1   5 486.997 17.0926   3
   1   1  -5 476.548 16.9506   5
  -1   1   5 455.628 17.3893   2
   1   1  -5 462.870 17.7417   1
   0  -1   5 9.04061 0.73630   3
   0  -1  -5 9.34029 1.41500   4
   0  -1  -5 12.4130 1.41845   1
   0  -1   5 8.66428 1.27960   2
   0   1   5 11.2797 1.42099   2
   0   1  -5 8.76874 1.40268   4
   0   1  -5 8.92873 0.63820   5
   0   1  -5 14.8818 1.70900   1
   0   1   5 9.85575 1.10165   3
   1  -1   5 43.7824 2.03597   3
   1  -1   5 42.0264 2.63423   2
  -1  -1  -5 43.4158 2.69466   4
  -1  -1  -5 40.8558 2.26833   1
   1   1   5 41.0363 2.25243   3
  -1   1  -5 39.8536 1.62645   5
  -1   1  -5 40.8831 2.74576   4
   1   1   5 37.2514 2.54096   2
  -1   1  -5 41.0902 2.56972   1
   2  -1   5 38.2876 2.60903   2
  -2  -1  -5 35.2356 2.76921   2
   2  -1   5 38.3329 2.15146   3
  -2  -1  -5 42.0611 2.65797   4
  -2  -1  -5 39.9829 2.14361   1
  -2   1  -5 41.2572 2.45441   1
   2   1   5 41.9763 2.74236   2
   2   1   5 37.3673 2.27473   3
  -2   1  -5 34.5359 2.56129   4
  -3  -1  -5 142.063 6.16383   4
   3  -1   5 129.922 5.18091   5
   3  -1   5 131.247 5.78807   3
   3  -1   5 135.899 6.35438   2
  -3  -1  -5 135.273 6.61838   2
   3   1   5 133.459 6.33303   2
   3   1   5 128.557 5.09434   5
   3   1   5 134.733 5.98590   3
  -3   1  -5 131.744 5.23305   5
  -3   1  -5 127.895 6.23874   4
  -3   1  -5 130.837 5.77374   1
  -4  -1  -5 255.846 10.2778   4
   4  -1   5 241.218 10.6144   2
   4  -1   5 246.263 9.57814   5
  -4  -1  -5 257.509 9.47588   1
  -4  -1  -5 249.899 11.0479   2
   4  -1   5 269.875 10.3929   3
  -4   1  -5 255.213 10.5563   4
  -4   1  -5 236.000 9.58927   5
  -4   1  -5 241.243 10.9475   2
   4   1   5 246.576 9.55255   5
  -4   1  -5 255.170 9.94811   1
   4   1   5 242.298 10.3733   3
   4   1   5 247.978 10.7304   2
   5  -1   5 10.5154 1.72641   3
  -5  -1  -5 11.9293 1.68356   4
   5  -1   5 7.22682 1.24146   5
   5  -1   5 11.6163 1.94539   2
  -5  -1  -5 10.1927 2.10603   2
  -5   1  -5 11.4664 2.08689   2
   5   1   5 8.84892 1.69903   3
  -5   1  -5 10.1415 1.48673   1
   5   1   5 10.5240 1.41017   5
   5   1   5 8.22714 1.87782   2
  -5   1  -5 10.3308 1.70561   4
   6  -1   5 5.15420 1.36722   2
  -6  -1  -5 5.22225 1.47422   2
   6  -1   5 7.86466 1.66398   3
   6  -1   5 5.83200 1.23014   5
  -6  -1  -5 5.97908 1.20323   4
  -6   1  -5 6.95776 1.70199   2
   6   1   5 6.47907 1.40717   5
  -6   1  -5 7.31229 1.49532   4
   6   1   5 7.34029 1.65494   2
   6   1   5 4.95152 1.41750   3
   7  -1   5 15.0319 2.50941   2
   7  -1   5 16.8148 2.52570   3
  -7  -1  -5 17.8054 2.77775   2
  -7   1  -5 11.9358 2.44571   2
   7   1   5 18.1652 2.75503   3
   8  -1   5 -0.4312 0.85679   3
  -8  -1  -5 -0.4601 0.66502   2
   8  -1   5 1.64282 1.03519   2
  -8   1  -5 1.31828 1.33555   2
   8   1   5 0.92863 1.26449   3
   9  -1   5 42.0132 4.70449   3
  -9  -1  -5 53.3506 5.32212   2
  -9   1  -5 46.7960 5.01433   2
   9   1   5 57.1099 4.72844   3
 -10  -1  -5 2.25549 1.85603   2
  10  -1   5 -0.0076 1.26459   3
  10   1   5 2.39988 1.71439   3
 -10   1  -5 0.88743 1.13040   2
  11  -1   5 0.39495 1.49018   3
 -11  -1  -5 1.01833 1.69631   2
  11   1   5 1.59893 1.45551   3
 -11   1  -5 1.58172 1.84470   2
  12  -2  -5 4.13964 2.05974   3
 -12  -2   5 4.28483 1.81454   3
  12  -2  -5 3.47014 1.81267   1
  12  -2  -5 4.37279 2.40582   5
  12   2  -5 3.34587 2.62555   5
  12   2  -5 3.02580 1.81404   1
 -12   2   5 -0.0281 1.45864   3
  12   2  -5 1.48012 1.54807   3
  11  -2  -5 -0.7434 1.45149   1
  11  -2  -5 0.64656 1.63979   3
 -11  -2   5 0.01384 0.98645   3
  11  -2  -5 -0.3536 1.71866   5
  11   2  -5 -0.0065 0.93831   1
  11   2  -5 -0.1768 1.45921   3
 -11   2   5 -0.1930 1.55319   3
  11   2  -5 0.53222 1.23571   5
 -10  -2   5 0.39730 1.31275   3
  10  -2  -5 -0.6069 1.62898   1
  10  -2  -5 4.52949 2.00557   5
  10  -2  -5 0.23297 1.48930   3
 -10   2   5 -1.2043 1.34906   3
  10   2  -5 -0.3758 1.45210   1
  10   2  -5 1.81683 1.72088   5
  10   2  -5 1.00427 1.59882   3
  -9  -2   5 -0.8151 0.67669   3
   9  -2  -5 0.25846 1.05888   1
   9  -2  -5 -0.8975 1.06144   3
   9  -2  -5 1.44573 1.16927   5
   9   2  -5 1.21725 1.43234   1
  -9   2   5 -0.2587 1.22146   3
   9   2  -5 -1.0567 0.56509   3
   9   2  -5 0.92068 1.17652   5
   8  -2  -5 2.57324 1.48529   5
   8  -2  -5 2.47073 1.11153   4
   8  -2  -5 1.16779 1.29229   3
   8  -2  -5 1.74557 1.44477   1
  -8  -2   5 1.15242 1.28458   3
   8   2  -5 1.52321 1.14457   1
  -8   2   5 1.83713 1.37898   3
   8   2  -5 -2.2721 0.88714   5
   8   2  -5 2.65101 1.29858   3
   7  -2  -5 5.37677 1.82472   1
  -7  -2   5 7.95738 1.70008   3
  -7  -2   5 5.86988 1.19970   2
   7  -2  -5 6.33048 1.75875   3
   7  -2  -5 5.81903 1.66280   5
   7  -2  -5 7.15242 1.46082   4
   7   2  -5 6.56288 1.57822   3
   7   2  -5 8.20128 1.90112   5
   7   2  -5 4.51986 1.13707   4
  -7   2   5 4.88553 1.49196   3
   7   2  -5 4.84034 1.69007   1
   6  -2  -5 6.65583 1.72989   5
  -6  -2   5 6.31136 1.17489   2
  -6  -2   5 3.14587 1.10781   3
   6  -2  -5 5.98999 1.64482   1
   6  -2  -5 6.94277 1.63690   3
   6  -2  -5 5.80524 1.39014   4
   6   2  -5 4.99041 1.31080   3
  -6   2   5 6.01834 1.41210   3
   6   2  -5 7.51066 1.74770   1
   6   2  -5 4.68719 1.55516   5
   6   2  -5 5.61919 1.18868   4
  -5  -2   5 134.469 5.93588   2
   5  -2  -5 132.091 6.87818   1
   5  -2  -5 133.748 6.60572   5
  -5  -2   5 127.309 6.15658   3
   5  -2  -5 133.664 6.37017   4
  -5   2   5 150.574 6.37952   2
   5   2  -5 137.054 6.89550   1
   5   2  -5 131.015 6.25929   3
   5   2  -5 129.134 6.58595   5
  -5   2   5 132.934 6.43771   3
   5   2  -5 137.076 6.18763   4
  -4  -2   5 -0.1373 0.47869   2
   4  -2  -5 -0.2465 0.52476   5
  -4  -2   5 -0.1363 0.36999   3
   4  -2  -5 0.41504 0.51126   4
   4  -2  -5 0.38883 0.77259   1
   4   2  -5 -0.0055 0.43752   3
   4   2  -5 -0.2200 0.60418   5
   4   2  -5 0.11787 0.74507   1
  -4   2   5 0.55183 0.36323   2
  -4   2   5 -0.2962 0.33259   3
   4   2  -5 -0.0645 0.61945   4
   3  -2  -5 407.657 15.9237   1
  -3  -2   5 418.553 15.3701   2
   3  -2  -5 398.936 15.7452   4
   3  -2  -5 412.035 15.4539   5
  -3  -2   5 387.919 14.9580   3
   3   2  -5 407.379 15.0486   3
   3   2  -5 411.928 15.5103   5
   3   2  -5 402.394 15.6731   4
   3   2  -5 390.786 15.9372   1
  -3   2   5 420.687 14.9351   2
  -3   2   5 405.041 15.3774   3
   2  -2  -5 46.9555 2.89541   4
   2  -2  -5 45.2326 2.80656   1
   2  -2  -5 38.8493 2.31068   5
  -2  -2   5 46.5628 2.65765   2
  -2  -2   5 42.2314 2.05173   3
  -2   2   5 43.9917 2.45599   3
   2   2  -5 47.1252 3.05878   1
  -2   2   5 44.3441 2.39957   2
   2   2  -5 47.1440 2.51646   5
   2   2  -5 48.2220 2.92362   4
   1  -2  -5 52.7712 2.90955   1
  -1  -2   5 49.4102 2.00989   3
   1  -2  -5 49.7022 3.07398   4
   1  -2  -5 47.6012 2.27509   5
  -1  -2   5 51.0093 2.86812   2
   1   2  -5 54.3051 3.23260   1
   1   2  -5 51.6737 2.49206   5
  -1   2   5 48.3723 2.69059   2
  -1   2   5 50.8873 2.63043   3
   1   2  -5 49.9491 3.08849   4
   0  -2   5 0.25593 0.42623   2
   0  -2  -5 -0.0429 0.42508   4
   0  -2   5 0.58343 0.13889   3
   0  -2  -5 0.78855 0.50687   1
   0   2  -5 0.23566 0.34775   5
   0   2   5 0.38766 0.18095   5
   0   2  -5 -0.0803 0.40619   4
   0   2  -5 -0.5948 0.70087   1
   0   2   5 0.23844 0.46677   2
   0   2   5 0.04690 0.41571   3
  -1  -2  -5 154.461 6.76318   4
  -1  -2  -5 149.560 6.91558   2
  -1  -2  -5 158.966 6.16806   1
   1  -2   5 149.314 5.77315   3
   1  -2   5 156.213 6.81248   2
   1   2   5 144.135 6.66608   2
  -1   2  -5 157.830 7.04231   4
   1   2   5 151.251 6.37681   3
  -1   2  -5 155.193 5.83627   5
  -1   2  -5 156.847 6.77286   1
  -2  -2  -5 220.548 8.11855   1
   2  -2   5 205.950 8.24543   3
  -2  -2  -5 222.242 8.98899   4
  -2  -2  -5 216.195 9.40071   2
   2  -2   5 208.601 9.07475   2
  -2   2  -5 216.143 8.88192   1
   2   2   5 203.113 7.64638   5
  -2   2  -5 212.557 8.03174   5
  -2   2  -5 219.466 9.30655   4
   2   2   5 232.661 9.24963   2
   2   2   5 224.150 8.78690   3
   3  -2   5 89.5485 4.68817   2
  -3  -2  -5 92.1277 4.44498   4
  -3  -2  -5 89.9444 3.54108   1
  -3  -2  -5 76.7256 4.74054   2
   3  -2   5 90.4999 4.16170   3
  -3   2  -5 93.2638 4.41466   1
   3   2   5 89.1886 4.73707   2
  -3   2  -5 83.2348 4.69203   4
  -3   2  -5 88.7093 3.80819   5
   3   2   5 86.7133 3.61543   5
   3   2   5 81.4136 4.34244   3
   4  -2   5 1.96295 0.72724   3
  -4  -2  -5 2.22617 0.80824   4
   4  -2   5 2.66667 0.97875   2
   4  -2   5 3.27851 0.76600   5
  -4  -2  -5 1.00178 0.84638   2
   4   2   5 2.02158 0.59139   5
  -4   2  -5 3.84183 0.82506   5
  -4   2  -5 1.16288 0.74244   4
   4   2   5 1.05328 0.75441   2
   4   2   5 3.14448 0.99261   3
  -4   2  -5 3.94707 0.98127   1
  -5  -2  -5 1043.32 39.1999   2
   5  -2   5 1044.26 38.3839   3
  -5  -2  -5 1066.43 37.9376   4
   5  -2   5 1041.21 37.7223   5
   5  -2   5 1048.34 38.7160   2
  -5   2  -5 1060.86 38.6107   4
  -5   2  -5 1076.16 38.0552   1
  -5   2  -5 1032.99 39.1163   2
   5   2   5 1066.02 38.9458   2
   5   2   5 1037.91 37.6763   5
   5   2   5 1049.33 38.7151   3
  -5   2  -5 1038.22 37.8032   5
   6  -2   5 6.84245 1.63086   3
   6  -2   5 8.21057 1.83071   2
  -6  -2  -5 12.6976 2.23525   2
   6  -2   5 10.5374 1.45445   1
   6  -2   5 10.0835 1.53086   5
  -6   2  -5 11.9717 1.77025   1
   6   2   5 11.8004 2.11551   3
  -6   2  -5 10.1093 2.15073   2
  -6   2  -5 6.75215 1.57266   4
   7  -2   5 3.31436 1.22989   2
  -7  -2  -5 3.68182 1.34990   2
   7  -2   5 4.30044 1.41157   3
   7  -2   5 3.74326 1.29290   5
  -7   2  -5 3.82277 1.39645   2
   7   2   5 4.31950 1.62135   3
  -7   2  -5 2.50415 1.01302   4
   8  -2   5 3.17770 1.30780   3
  -8  -2  -5 7.85448 2.05284   2
   8  -2   5 6.26591 1.88216   2
  -8   2  -5 5.96112 1.83137   2
   8   2   5 6.67850 2.01314   3
  -9  -2  -5 -1.5567 1.09476   2
   9  -2   5 1.78956 1.36032   3
  -9   2  -5 0.47187 1.14811   2
   9   2   5 1.02303 1.39457   3
  10  -2   5 5.59715 2.05488   3
 -10  -2  -5 4.28526 1.92637   2
 -10   2  -5 4.66987 2.02169   2
  10   2   5 6.46209 2.32661   3
  11  -2   5 12.3694 2.83029   3
 -11  -2  -5 18.2554 3.38051   2
  11   2   5 7.86891 2.43082   3
  12  -3  -5 5.09849 2.17100   1
 -12  -3   5 5.55050 2.26343   3
  12  -3  -5 3.38383 2.46906   3
 -12   3   5 1.31008 2.30608   3
  12   3  -5 1.39215 1.76108   3
  12   3  -5 4.31090 1.94771   1
  11  -3  -5 1.08051 1.93569   1
 -11  -3   5 -1.9285 0.85077   3
  11  -3  -5 4.13297 2.14694   5
  11  -3  -5 -0.8729 1.01463   3
  11   3  -5 0.78322 1.47542   1
  11   3  -5 0.70394 1.35100   3
 -11   3   5 -0.8045 0.83094   3
  11   3  -5 1.63450 1.89533   5
  10  -3  -5 27.6653 4.02390   3
  10  -3  -5 28.5611 4.08133   1
  10  -3  -5 31.2937 4.36705   5
 -10  -3   5 20.0525 3.27306   3
  10   3  -5 20.2911 3.30057   3
 -10   3   5 30.8550 4.14177   3
  10   3  -5 27.0792 3.96305   5
  10   3  -5 25.4382 3.85971   1
   9  -3  -5 2.36826 1.24546   5
   9  -3  -5 2.89337 1.41644   3
   9  -3  -5 4.23067 2.11812   1
  -9  -3   5 2.66390 1.53444   3
   9   3  -5 2.41855 1.33275   1
   9   3  -5 3.03853 1.78019   5
  -9   3   5 4.50732 1.62095   3
   9   3  -5 4.33522 1.76738   3
   8  -3  -5 0.55420 1.21263   5
   8  -3  -5 2.00560 1.51235   3
   8  -3  -5 -0.1366 0.64309   4
  -8  -3   5 1.35495 0.89692   2
   8  -3  -5 1.53512 1.20545   1
   8   3  -5 -0.4195 1.00340   1
  -8   3   5 -0.4665 1.06062   3
   8   3  -5 0.40772 0.97178   3
   8   3  -5 0.40467 1.28024   5
   7  -3  -5 4.60620 1.65998   5
  -7  -3   5 4.82000 1.16923   2
   7  -3  -5 3.98247 1.12404   4
   7  -3  -5 7.59238 2.01827   1
   7   3  -5 3.19416 1.27359   3
   7   3  -5 5.11990 1.77792   5
  -7   3   5 5.19288 1.49718   3
   7   3  -5 5.17870 1.60892   1
   6  -3  -5 0.55367 0.96103   5
  -6  -3   5 0.76675 0.71643   2
   6  -3  -5 -0.4714 0.94988   1
   6  -3  -5 -0.1785 0.51123   4
  -6   3   5 -0.4901 0.69019   3
   6   3  -5 0.43793 0.69296   4
   6   3  -5 0.46332 0.74281   3
   6   3  -5 -0.1637 0.75871   1
   6   3  -5 2.34068 1.05468   5
   5  -3  -5 0.20296 0.75275   5
   5  -3  -5 0.85190 0.73399   4
  -5  -3   5 1.65814 0.76608   2
   5  -3  -5 0.59895 0.77574   1
   5   3  -5 -0.9263 0.52431   1
   5   3  -5 -0.2774 0.51338   4
   5   3  -5 0.34264 0.81098   5
  -5   3   5 0.65713 0.77208   3
   5   3  -5 1.17995 0.79358   3
  -4  -3   5 33.8707 2.31736   2
   4  -3  -5 35.1851 2.84957   1
  -4  -3   5 32.6943 2.18297   3
   4  -3  -5 32.1570 2.58046   4
   4  -3  -5 34.3830 2.55039   5
   4   3  -5 34.5165 2.78656   1
   4   3  -5 31.4648 2.17854   3
  -4   3   5 37.4004 2.58603   3
   4   3  -5 31.4666 2.51678   5
  -4   3   5 35.4945 1.73416   2
   4   3  -5 38.2854 2.56861   4
  -3  -3   5 3.47665 0.66192   3
  -3  -3   5 2.80337 0.80638   2
   3  -3  -5 2.61579 1.00142   1
   3  -3  -5 3.71486 0.98027   4
   3  -3  -5 2.85772 0.82409   5
   3   3  -5 2.10000 0.62161   3
  -3   3   5 3.61257 0.87221   3
   3   3  -5 3.27911 1.03472   4
  -3   3   5 4.51616 0.69621   2
   3   3  -5 3.46100 0.94107   5
   3   3  -5 3.79135 1.29151   1
  -2  -3   5 281.701 11.4069   2
   2  -3  -5 298.880 11.1178   5
   2  -3  -5 293.994 11.7857   4
   2  -3  -5 292.490 11.6693   1
  -2  -3   5 284.588 10.5383   3
   2   3  -5 292.909 11.7687   4
   2   3  -5 304.153 11.3093   5
  -2   3   5 285.011 11.2725   3
  -2   3   5 287.672 10.9751   2
   2   3  -5 286.123 11.9004   1
   1  -3  -5 41.5560 2.00401   5
  -1  -3   5 36.3475 2.47613   2
   1  -3  -5 38.1847 2.61261   4
   1  -3  -5 40.0723 2.43768   2
   1  -3  -5 38.6248 2.44454   1
   1   3  -5 41.6225 2.23820   5
  -1   3   5 39.6247 2.30414   2
  -1   3   5 37.3622 2.28760   3
   1   3  -5 44.1067 2.82012   4
   1   3  -5 36.9110 2.70788   1
  -1   3   5 40.8983 2.03889   5
   0  -3  -5 84.6644 3.89541   1
   0  -3  -5 85.4803 4.32675   4
   0  -3  -5 78.1595 4.20309   2
   0  -3   5 80.6142 4.23026   2
   0   3   5 88.4301 4.16254   2
   0   3   5 84.7643 4.00302   3
   0   3  -5 84.8317 4.52023   4
   0   3  -5 84.6455 4.43146   1
   0   3   5 86.1795 3.37755   5
   0   3  -5 82.4757 3.69278   5
  -1  -3  -5 10.3704 1.06553   1
   1  -3   5 6.74829 1.26267   2
  -1  -3  -5 6.77437 1.27457   2
  -1  -3  -5 9.09330 1.37222   4
   1  -3   5 8.18056 0.50792   3
   1   3   5 8.23684 0.58829   5
  -1   3  -5 7.98812 0.50142   3
  -1   3  -5 9.38227 1.04069   5
   1   3   5 8.16359 1.20730   3
  -1   3  -5 7.92192 1.44345   4
   1   3   5 11.6118 1.53007   2
  -1   3  -5 9.42734 1.49827   1
   2  -3   5 4.60124 0.68023   3
  -2  -3  -5 4.02260 1.09068   2
   2  -3   5 3.87665 0.95861   2
  -2  -3  -5 6.43540 0.66247   1
  -2  -3  -5 5.08919 1.07067   4
  -2   3  -5 2.90933 1.04600   4
   2   3   5 6.08497 1.19420   3
   2   3   5 4.30166 0.51358   5
  -2   3  -5 6.54709 0.84985   5
  -2   3  -5 6.38881 1.25568   1
   2   3   5 3.40972 0.93730   2
  -3  -3  -5 0.75671 0.69126   2
  -3  -3  -5 0.34798 0.61026   4
   3  -3   5 1.54611 0.56195   3
   3  -3   5 0.15164 0.58326   2
   3  -3   5 0.03130 0.34328   4
   3   3   5 1.11412 0.74526   3
   3   3   5 0.43174 0.69916   2
  -3   3  -5 1.05131 0.64657   4
   3   3   5 0.99066 0.38098   5
  -3   3  -5 1.07299 0.49761   5
  -3   3  -5 1.06815 0.66938   1
   4  -3   5 133.320 5.60057   5
  -4  -3  -5 116.565 5.72309   4
   4  -3   5 129.887 5.89749   3
  -4  -3  -5 136.440 6.84242   2
   4  -3   5 131.958 6.04311   4
   4  -3   5 122.384 6.27200   2
  -4   3  -5 133.656 5.70214   5
   4   3   5 130.686 6.56308   2
   4   3   5 126.692 5.45921   5
  -4   3  -5 125.680 6.46175   4
   4   3   5 122.251 6.22050   3
  -4   3  -5 143.449 6.23837   1
  -5  -3  -5 243.385 9.52762   4
   5  -3   5 229.312 9.48393   5
   5  -3   5 223.895 10.2084   2
   5  -3   5 214.896 9.82114   3
   5  -3   5 240.177 9.56134   1
  -5  -3  -5 243.333 10.8262   2
   5  -3   5 244.637 9.82440   4
   5   3   5 234.065 10.3813   3
  -5   3  -5 231.623 10.3494   4
  -5   3  -5 247.230 9.99831   1
  -5   3  -5 222.396 9.53712   5
   5   3   5 225.450 9.41325   5
  -6  -3  -5 69.2421 4.80050   2
   6  -3   5 67.7493 3.92010   5
   6  -3   5 71.5194 4.39274   3
   6  -3   5 68.9690 3.81434   1
   6  -3   5 77.5565 4.12570   4
   6  -3   5 64.0933 4.37778   2
   6   3   5 62.0546 4.50457   3
  -6   3  -5 81.4347 4.40849   1
  -6   3  -5 71.2291 4.81394   2
  -6   3  -5 79.5481 4.64248   4
  -6   3  -5 65.6270 3.97049   5
   7  -3   5 15.6847 2.17029   5
   7  -3   5 16.5250 2.60333   2
   7  -3   5 16.0889 2.04410   4
   7  -3   5 14.0822 2.29126   3
  -7  -3  -5 18.9235 2.84167   2
  -7   3  -5 15.4362 2.31477   4
   7   3   5 16.5257 2.76854   3
  -7   3  -5 15.1890 2.63509   2
  -7   3  -5 19.6181 2.42710   5
  -8  -3  -5 36.5230 4.21715   2
   8  -3   5 28.2098 3.45731   2
   8  -3   5 31.1543 3.67039   3
   8   3   5 33.5170 4.09881   3
  -8   3  -5 23.2802 3.37868   2
  -9  -3  -5 0.21110 0.88154   2
   9  -3   5 4.07541 1.69504   3
   9  -3   5 1.76757 1.12668   2
   9   3   5 3.54570 1.58394   3
  -9   3  -5 1.26247 1.11540   2
  10  -3   5 7.11157 2.18889   3
 -10  -3  -5 5.48600 2.01725   2
 -10   3  -5 2.26074 1.85928   2
  10   3   5 2.96969 1.54207   3
 -11  -3  -5 29.2342 4.25208   2
  11  -3   5 39.0097 4.95276   3
 -11   3  -5 24.4633 4.05426   3
  11   3   5 31.5322 4.58269   3
  11  -4  -5 0.75894 1.38784   1
 -11  -4   5 1.84112 1.61543   3
  11  -4  -5 1.76692 1.71059   5
 -11   4   5 -1.2620 1.52607   3
  11   4  -5 1.27295 1.67875   3
  11   4  -5 -0.7123 1.47777   1
  11   4  -5 0.43357 1.21858   5
  10  -4  -5 2.12194 1.88579   1
  10  -4  -5 3.48640 2.06557   5
  10   4  -5 3.35310 1.63128   1
 -10   4   5 0.02796 1.43418   3
  10   4  -5 3.51599 1.85586   5
  10   4  -5 0.74595 1.27163   3
   9  -4  -5 1.91629 1.25171   5
   9  -4  -5 0.45591 1.00181   4
   9  -4  -5 2.50120 1.77515   1
   9   4  -5 4.44594 2.02264   5
   9   4  -5 2.37918 1.67493   1
  -9   4   5 0.23663 1.33388   3
   9   4  -5 1.92634 1.13425   3
   8  -4  -5 40.5654 4.42706   5
   8  -4  -5 41.1773 3.36184   4
  -8  -4   5 41.4612 3.05005   2
   8  -4  -5 36.6306 4.41803   1
   8   4  -5 43.7724 3.67743   3
   8   4  -5 42.7467 3.74218   1
  -8   4   5 42.3347 3.69910   3
   8   4  -5 36.8825 4.35588   5
   7  -4  -5 8.14777 1.71804   4
   7  -4  -5 7.83059 2.04072   1
  -7  -4   5 7.12607 1.39505   2
   7  -4  -5 6.19015 1.70088   5
   7   4  -5 7.07743 1.98403   5
   7   4  -5 9.83488 2.09432   1
  -7   4   5 6.24360 1.54888   3
   7   4  -5 10.7271 1.99262   3
   6  -4  -5 118.172 6.29359   5
   6  -4  -5 113.470 6.51483   1
  -6  -4   5 120.732 5.64834   2
   6  -4  -5 106.292 5.79371   4
   6   4  -5 113.699 6.30195   5
   6   4  -5 120.595 5.93340   3
   6   4  -5 105.279 6.24785   1
   6   4  -5 115.104 5.41091   4
  -6   4   5 101.902 5.98311   3
   5  -4  -5 0.94263 0.89180   5
   5  -4  -5 1.14630 1.00888   1
   5  -4  -5 -1.1143 0.64556   4
  -5  -4   5 -0.5086 0.55418   2
   5   4  -5 0.03843 0.52924   3
   5   4  -5 0.15051 0.73825   1
   5   4  -5 0.50074 0.59077   4
   5   4  -5 0.06186 0.62190   5
  -5   4   5 0.69610 0.87259   3
   4  -4  -5 37.7196 2.97891   1
   4  -4  -5 36.9188 2.71536   4
  -4  -4   5 34.6462 2.47309   2
   4  -4  -5 32.1459 2.48203   5
  -4   4   5 39.2571 2.74527   3
   4   4  -5 35.4911 2.49187   4
   4   4  -5 38.1589 2.36585   3
   4   4  -5 32.7283 2.62407   5
   4   4  -5 30.4891 2.75532   1
   3  -4  -5 127.556 6.34022   1
   3  -4  -5 138.951 6.04391   5
  -3  -4   5 135.207 6.07577   2
   3  -4  -5 133.614 5.37753   2
   3  -4  -5 132.288 6.38109   4
   3   4  -5 138.626 6.28084   4
   3   4  -5 132.159 6.09598   5
   3   4  -5 127.220 6.56654   1
  -3   4   5 134.044 5.28674   2
  -3   4   5 134.803 6.10047   3
   3   4  -5 132.661 5.50059   3
   2  -4  -5 2.13997 0.86646   1
  -2  -4   5 0.95298 0.57373   2
   2  -4  -5 0.83734 0.76433   4
  -2  -4   5 0.66342 0.27862   3
   2  -4  -5 0.88666 0.46998   2
   2  -4  -5 0.55319 0.49367   5
   2   4  -5 1.02601 0.53742   5
   2   4  -5 0.91213 0.73809   4
  -2   4   5 0.75596 0.45820   2
   2   4  -5 3.76834 1.11479   1
  -2   4   5 1.17840 0.54227   5
   2   4  -5 0.94321 0.31957   3
  -2   4   5 1.69647 0.73769   3
   1  -4  -5 139.998 6.54842   4
   1  -4  -5 150.588 6.25328   2
  -1  -4   5 148.213 6.48543   2
   1  -4  -5 131.066 6.17738   1
  -1   4   5 150.976 5.86853   5
   1   4  -5 148.713 6.12618   5
   1   4  -5 149.548 6.86578   1
  -1   4   5 135.015 6.00569   2
  -1   4   5 145.677 6.28321   3
   1   4  -5 138.013 6.65872   4
   0  -4  -5 496.065 18.9824   4
   0  -4  -5 510.495 18.4376   1
   0  -4   5 510.965 18.9907   2
   0  -4  -5 492.670 18.8633   2
   0   4  -5 503.486 18.3869   5
   0   4  -5 512.668 19.3709   4
   0   4   5 493.413 18.7003   3
   0   4   5 487.971 18.6750   2
   0   4   5 509.938 18.0134   5
   0   4  -5 489.028 19.1942   1
  -1  -4  -5 17.5462 2.02701   2
  -1  -4  -5 18.1047 1.22150   1
  -1  -4  -5 17.6365 1.91438   4
   1  -4   5 16.9897 1.95217   2
   1   4   5 16.7041 1.78941   3
   1   4   5 17.2494 1.93309   2
  -1   4  -5 18.2482 1.44272   5
  -1   4  -5 15.3263 1.93903   1
   1   4   5 15.7468 1.13416   5
  -1   4  -5 20.3115 2.33064   4
  -2  -4  -5 153.437 6.55668   4
   2  -4   5 143.042 6.51995   4
  -2  -4  -5 145.368 5.39191   1
   2  -4   5 135.784 6.63025   2
  -2  -4  -5 161.434 7.09002   2
   2  -4   5 152.135 5.71527   3
  -2   4  -5 141.857 6.98958   4
   2   4   5 143.796 6.58903   3
  -2   4  -5 137.085 6.67124   1
  -2   4  -5 153.553 6.08026   5
   2   4   5 141.699 6.70624   2
  -2   4  -5 141.855 5.65505   3
   3  -4   5 9.57439 1.16974   3
   3  -4   5 10.3848 1.47994   4
  -3  -4  -5 8.10775 1.60218   2
   3  -4   5 10.1776 1.67605   2
  -3  -4  -5 9.28401 1.38358   4
   3   4   5 10.8720 1.68112   3
  -3   4  -5 11.2333 1.32611   5
   3   4   5 9.32561 1.06724   5
  -3   4  -5 12.6151 1.80124   1
  -3   4  -5 10.9335 1.76817   4
  -3   4  -5 8.78977 1.13081   3
  -4  -4  -5 102.292 4.70527   4
   4  -4   5 94.9310 4.91724   4
   4  -4   5 97.2928 4.69379   3
   4  -4   5 86.2507 5.01287   2
  -4  -4  -5 91.8540 5.42268   2
   4  -4   5 104.861 4.62948   5
   4   4   5 94.2257 4.39383   5
   4   4   5 88.2796 5.08061   3
  -4   4  -5 104.416 4.71368   5
  -4   4  -5 100.112 5.50515   4
  -4   4  -5 97.3995 5.11588   1
   5  -4   5 128.346 5.86451   1
   5  -4   5 118.695 5.93437   4
  -5  -4  -5 112.531 6.56450   2
   5  -4   5 123.545 6.33661   2
  -5  -4  -5 117.871 5.47761   4
   5  -4   5 123.237 6.00873   3
   5  -4   5 118.774 5.66201   5
   5   4   5 118.724 5.71125   5
  -5   4  -5 125.855 6.59322   4
  -5   4  -5 135.698 6.34467   1
   5   4   5 121.791 6.47936   3
  -5   4  -5 127.923 5.86934   5
   6  -4   5 19.3706 2.60205   2
   6  -4   5 21.6939 2.32830   1
   6  -4   5 22.2077 2.40764   4
   6  -4   5 19.1800 2.26939   5
   6  -4   5 19.9498 2.48904   3
  -6  -4  -5 19.0287 2.77715   2
  -6   4  -5 22.6204 2.50307   5
  -6   4  -5 18.1711 2.61611   2
   6   4   5 20.5837 2.75292   3
  -6   4  -5 20.8636 2.77682   4
  -6   4  -5 20.3965 2.56770   1
   7  -4   5 54.3827 3.94051   2
   7  -4   5 55.4848 3.67644   5
   7  -4   5 56.7205 4.01305   3
   7  -4   5 54.3645 3.48012   1
  -7  -4  -5 52.2007 4.28771   2
   7  -4   5 57.1004 3.59397   4
  -7   4  -5 46.7141 3.79772   4
   7   4   5 56.6156 4.42508   3
  -7   4  -5 59.5156 3.98506   1
  -7   4  -5 48.6702 4.02382   2
  -7   4  -5 51.5363 3.65767   5
  -8  -4  -5 5.52971 1.68483   2
   8  -4   5 10.2040 2.10871   3
   8  -4   5 8.72064 1.94633   2
  -8   4  -5 7.25996 1.93393   2
  -8   4  -5 5.35339 1.71417   3
  -8   4  -5 8.81467 2.50888   4
   8   4   5 11.5609 2.51219   3
   9  -4   5 1.04042 1.20012   3
   9  -4   5 1.08682 1.20579   2
  -9  -4  -5 1.95742 1.58304   2
  -9   4  -5 -0.0277 1.15080   3
   9   4   5 1.99526 1.68688   3
  -9   4  -5 5.68438 1.85510   2
  10  -4   5 43.4643 4.87306   3
 -10  -4  -5 38.6543 4.70903   2
  10   4   5 36.0951 4.88904   3
 -10   4  -5 39.0241 4.65919   3
  11  -4   5 5.37406 2.19579   3
 -11  -4  -5 4.66544 2.26872   2
 -11   4  -5 2.70398 1.87507   3
  11   4   5 6.52251 2.10835   3
  11  -5  -5 6.78618 2.70946   1
  11  -5  -5 4.39342 2.10428   5
  11   5  -5 3.52555 2.31626   5
 -11   5   5 3.45486 1.92351   3
  11   5  -5 3.83779 2.00736   3
  11   5  -5 3.34611 2.02852   1
  10  -5  -5 16.1685 3.35308   5
  10  -5  -5 14.0659 3.03900   1
  10   5  -5 10.5752 2.39591   1
 -10   5   5 14.7530 2.93351   3
  10   5  -5 10.2856 2.69175   5
  10   5  -5 10.1374 2.53785   3
   9  -5  -5 1.83165 1.38074   1
   9  -5  -5 1.82902 1.15596   4
  -9  -5   5 1.26432 1.23441   2
   9  -5  -5 0.16476 1.29107   5
   9   5  -5 4.91656 1.65414   5
   9   5  -5 3.56134 1.46707   3
   9   5  -5 2.60385 1.63097   1
  -9   5   5 2.97221 1.43376   3
   8  -5  -5 2.37095 1.39197   1
  -8  -5   5 1.50402 1.12200   2
   8  -5  -5 1.69307 1.43056   5
   8  -5  -5 0.80873 1.11741   4
   8   5  -5 3.32662 1.32491   5
   8   5  -5 0.42353 1.07628   3
   8   5  -5 1.34014 1.40992   1
  -8   5   5 1.40487 1.05605   3
   7  -5  -5 18.8234 2.93860   5
   7  -5  -5 22.6340 2.78078   4
   7  -5  -5 21.7754 3.20176   1
  -7  -5   5 22.5154 2.52113   2
  -7   5   5 19.9609 2.84500   3
   7   5  -5 25.2154 2.97337   3
   7   5  -5 18.5655 2.92418   1
   7   5  -5 19.2693 2.87548   5
  -6  -5   5 -0.5070 0.63100   2
   6  -5  -5 -0.0197 0.96016   5
   6  -5  -5 -0.1021 0.94335   1
   6  -5  -5 1.31653 1.05451   4
   6   5  -5 -0.6129 1.00810   1
  -6   5   5 1.03010 1.00731   3
   6   5  -5 -0.6437 0.55814   3
   6   5  -5 -1.4208 0.85036   5
   6   5  -5 0.04749 0.66947   4
   5  -5  -5 73.5052 4.82135   1
   5  -5  -5 79.8631 4.68396   4
  -5  -5   5 77.2691 4.31807   2
   5  -5  -5 77.7914 4.62117   5
   5   5  -5 80.9904 4.27701   3
  -5   5   5 82.2921 4.72272   3
   5   5  -5 76.9331 4.92839   1
   5   5  -5 77.8967 4.17331   4
   5   5  -5 77.3946 4.65211   5
   4  -5  -5 27.4576 2.28320   5
   4  -5  -5 25.7116 2.95566   1
  -4  -5   5 24.1997 2.44661   2
   4  -5  -5 27.6997 2.80592   4
   4   5  -5 19.7893 2.37664   5
   4   5  -5 23.7523 1.83145   3
   4   5  -5 22.1180 2.34093   4
   4   5  -5 22.1835 2.82797   1
  -4   5   5 26.1407 2.22442   3
  -3  -5   5 94.2699 4.58984   2
   3  -5  -5 79.9799 4.68836   1
   3  -5  -5 82.2301 4.34722   5
   3  -5  -5 95.3306 4.85976   4
   3  -5  -5 78.6778 3.58639   2
  -3   5   5 85.9411 4.47248   5
  -3   5   5 91.4093 4.61033   3
   3   5  -5 87.2260 4.64186   4
   3   5  -5 88.0049 4.58833   5
   3   5  -5 86.0699 3.87958   3
   3   5  -5 94.7586 5.21082   1
  -2  -5   5 67.8557 3.71562   2
   2  -5  -5 63.2145 3.73807   1
   2  -5  -5 64.4437 3.16887   2
   2  -5  -5 65.4331 3.35148   5
   2  -5  -5 62.2770 3.80050   4
   2   5  -5 66.9453 3.64898   5
  -2   5   5 63.9801 3.58941   3
   2   5  -5 64.4338 2.74566   3
  -2   5   5 70.2668 3.50399   5
   2   5  -5 74.3239 4.01068   4
   2   5  -5 63.1177 4.05160   1
   1  -5  -5 13.1138 1.50567   2
   1  -5  -5 13.1087 1.82719   4
  -1  -5   5 15.2087 1.79200   2
   1  -5  -5 13.9216 1.69872   1
  -1   5   5 13.8485 1.68541   3
   1   5  -5 15.6453 2.17083   1
  -1   5   5 15.6357 1.28446   5
   1   5  -5 12.0400 1.60657   5
   1   5  -5 15.6984 1.98500   4
   0  -5  -5 53.7540 3.26562   4
   0  -5  -5 57.4991 3.23597   2
   0  -5   5 57.7656 3.37712   2
   0  -5  -5 56.6210 2.91976   1
   0   5  -5 52.9094 3.60468   1
   0   5  -5 53.5496 3.02634   5
   0   5  -5 52.0648 3.53993   4
   0   5   5 53.9189 3.24395   3
   0   5   5 52.9002 2.66686   5
  -1  -5  -5 84.6050 4.39638   4
  -1  -5  -5 83.7897 3.67372   1
   1  -5   5 86.2868 4.53045   2
   1  -5   5 88.4068 4.44408   4
  -1  -5  -5 89.9936 4.59650   2
  -1   5  -5 77.0924 4.56133   1
  -1   5  -5 86.3483 4.08667   5
   1   5   5 89.0309 4.46386   3
  -1   5  -5 87.0098 4.84799   4
   1   5   5 81.2459 3.75900   5
   2  -5   5 86.6731 4.65346   2
   2  -5   5 91.3052 4.59701   4
  -2  -5  -5 86.5430 4.43466   4
  -2  -5  -5 86.6776 4.78953   2
   2   5   5 87.9308 3.88638   5
  -2   5  -5 84.5041 3.59059   3
  -2   5  -5 87.8278 4.20510   5
  -2   5  -5 93.2273 4.90689   1
   2   5   5 91.6603 4.73646   3
  -2   5  -5 89.2004 5.02611   4
  -3  -5  -5 150.029 6.63616   4
   3  -5   5 142.412 6.84613   4
  -3  -5  -5 147.926 7.31561   2
   3  -5   5 146.141 7.03700   2
   3  -5   5 152.803 6.25563   3
  -3   5  -5 153.354 7.20046   1
  -3   5  -5 147.240 6.19602   3
   3   5   5 154.089 7.13468   3
   3   5   5 155.954 6.23238   5
  -3   5  -5 146.558 7.42433   4
  -3   5  -5 162.376 6.60432   5
  -4  -5  -5 12.0599 1.61115   4
   4  -5   5 15.0711 2.08778   2
   4  -5   5 11.5898 1.54060   3
  -4  -5  -5 13.4674 2.13680   2
   4  -5   5 14.0914 1.84350   4
  -4   5  -5 13.5444 1.63660   3
  -4   5  -5 14.3392 2.13472   1
   4   5   5 13.0201 2.10257   3
  -4   5  -5 11.9675 2.01670   4
  -4   5  -5 15.1076 1.83931   5
   4   5   5 13.4312 1.54221   5
   5  -5   5 7.15287 1.40757   1
  -5  -5  -5 5.65387 1.74837   2
   5  -5   5 7.12573 1.38352   3
   5  -5   5 8.76607 1.44551   5
   5  -5   5 5.88179 1.37775   2
   5  -5   5 6.41228 1.40116   4
  -5   5  -5 5.95165 1.56393   1
   5   5   5 6.81925 1.63010   3
  -5   5  -5 8.06179 1.47833   5
  -5   5  -5 5.08741 1.63586   4
  -5   5  -5 6.25836 1.24816   3
   5   5   5 5.11961 1.26427   5
  -6  -5  -5 47.0271 3.94688   2
   6  -5   5 45.6431 3.14499   5
   6  -5   5 50.2203 3.61728   2
   6  -5   5 43.9610 3.12518   4
   6  -5   5 46.1869 3.33677   3
   6  -5   5 41.6338 3.06744   1
   6   5   5 42.2137 3.68152   3
  -6   5  -5 44.4200 3.22805   5
  -6   5  -5 45.2464 3.32190   3
  -6   5  -5 49.0155 3.71740   4
  -6   5  -5 45.1377 3.52796   1
   7  -5   5 48.0506 3.73139   3
   7  -5   5 53.7884 3.56393   4
   7  -5   5 49.1294 3.44374   1
  -7  -5  -5 48.5117 4.06528   2
   7  -5   5 50.2960 3.52082   5
   7  -5   5 49.8079 3.79741   2
  -7   5  -5 47.3048 3.71577   3
  -7   5  -5 50.9359 4.01736   4
  -7   5  -5 49.3256 3.60766   5
  -7   5  -5 56.3086 4.29128   2
  -7   5  -5 49.2719 3.82026   1
   7   5   5 49.3466 4.13057   3
  -8  -5  -5 0.45167 1.01672   2
   8  -5   5 -0.1298 0.83438   4
   8  -5   5 0.57083 1.04994   3
   8  -5   5 0.38056 1.10239   2
  -8   5  -5 -0.4118 0.93300   2
  -8   5  -5 0.65103 1.07904   5
   8   5   5 -0.1268 0.87340   3
  -8   5  -5 1.45330 1.25508   4
  -8   5  -5 0.83613 1.17370   3
  -9  -5  -5 18.9898 3.11223   2
   9  -5   5 13.1801 2.70396   3
   9  -5   5 12.9982 2.49913   2
  -9   5  -5 14.8013 2.77054   3
   9   5   5 13.4275 3.05721   3
  -9   5  -5 16.8942 2.94509   2
 -10  -5  -5 0.62101 1.60106   2
  10   5   5 0.59229 1.34539   3
 -10   5  -5 1.26860 1.51577   3
  11  -6  -5 3.23850 1.83024   1
  11  -6  -5 -0.1120 1.76509   5
  11   6  -5 1.28499 1.89152   3
  11   6  -5 1.46601 1.75206   1
  11   6  -5 0.96091 1.72007   5
 -11   6   5 -0.6796 1.74572   3
  10  -6  -5 16.7606 3.60262   1
  10  -6  -5 17.0009 3.47727   5
  10   6  -5 18.0739 3.39907   5
 -10   6   5 10.3303 2.97079   3
  10   6  -5 18.2019 3.13702   3
  10   6  -5 16.3188 3.10860   1
   9  -6  -5 7.56433 1.88665   4
   9  -6  -5 8.71124 2.37680   5
  -9  -6   5 7.36958 1.82946   2
   9  -6  -5 5.68191 2.35763   1
   9   6  -5 7.48642 2.00026   3
   9   6  -5 9.17322 2.47154   5
   9   6  -5 7.04152 2.01053   1
  -9   6   5 5.42856 2.17523   3
   8  -6  -5 8.98036 2.05759   4
   8  -6  -5 14.0362 2.88076   5
   8  -6  -5 16.1024 3.11119   1
  -8  -6   5 13.9993 2.20414   2
   8   6  -5 14.7953 2.50927   3
   8   6  -5 11.6370 2.60258   5
  -8   6   5 11.7217 2.54467   3
   8   6  -5 17.1873 2.81353   1
   7  -6  -5 -0.5294 0.76910   5
   7  -6  -5 0.95461 1.02612   4
   7  -6  -5 -0.3825 0.83457   1
  -7  -6   5 -0.5870 0.47988   2
   7   6  -5 0.25597 0.84083   1
  -7   6   5 0.62688 1.16508   3
   7   6  -5 0.88524 0.95358   3
   7   6  -5 0.04764 0.74733   5
   6  -6  -5 72.4273 4.92607   1
  -6  -6   5 66.9584 4.16758   2
   6  -6  -5 65.3487 4.48932   5
   6  -6  -5 75.5055 4.73700   4
  -6   6   5 74.8003 4.71975   3
   6   6  -5 77.1518 4.42302   3
   6   6  -5 63.9179 4.61823   1
   6   6  -5 79.5514 4.97657   5
  -5  -6   5 24.6924 2.62442   2
   5  -6  -5 31.4503 3.54422   1
   5  -6  -5 29.2385 3.11295   5
   5  -6  -5 24.9761 2.83304   4
   5   6  -5 23.2639 3.02785   1
  -5   6   5 26.9732 2.93240   3
   5   6  -5 28.6757 2.27436   3
   5   6  -5 26.4181 2.55706   4
  -5   6   5 21.2344 2.84262   5
   5   6  -5 27.0764 3.01913   5
  -4  -6   5 26.4317 2.24259   2
   4  -6  -5 27.8786 2.85641   5
   4  -6  -5 29.4642 3.18994   1
   4  -6  -5 26.2603 2.81846   4
   4   6  -5 24.0286 2.51417   4
  -4   6   5 26.6747 2.35108   3
   4   6  -5 28.2605 2.89323   5
   4   6  -5 32.2376 3.49596   1
  -4   6   5 25.2807 2.78467   5
   4   6  -5 22.1128 1.84863   3
   3  -6  -5 124.770 5.93619   5
   3  -6  -5 121.802 6.31023   1
  -3  -6   5 134.644 6.22764   2
   3  -6  -5 130.260 6.43761   4
   3   6  -5 124.308 6.59595   1
  -3   6   5 119.940 6.05646   3
   3   6  -5 125.444 5.37391   3
   3   6  -5 131.846 6.26338   4
  -3   6   5 132.634 6.12573   5
   3   6  -5 134.415 6.28254   5
   2  -6  -5 2.62465 0.64978   2
   2  -6  -5 1.30344 0.65156   5
   2  -6  -5 1.71916 0.82467   4
   2  -6  -5 2.32005 0.81720   1
  -2  -6   5 3.17789 0.92060   2
   2   6  -5 1.54601 1.27425   1
  -2   6   5 3.18985 0.92995   3
   2   6  -5 2.85592 1.09514   5
   2   6  -5 2.57785 0.93476   4
   2   6  -5 1.40649 0.44221   3
  -2   6   5 2.17663 0.77281   5
   1  -6  -5 22.4892 1.88915   1
   1  -6  -5 24.2650 2.56578   4
   1  -6  -5 22.3748 1.74497   2
  -1  -6   5 22.1055 2.33330   2
  -1   6   5 22.3680 1.69637   5
   1   6  -5 21.3997 2.31021   5
   1   6  -5 21.6104 2.47924   4
   1   6  -5 25.8160 2.93962   1
  -1   6   5 23.1614 2.31941   3
   0  -6  -5 261.812 10.9696   4
   0  -6   5 256.272 10.8018   4
   0  -6  -5 255.742 10.7043   2
   0  -6   5 261.822 10.9823   2
   0  -6  -5 269.078 10.4194   1
   0   6  -5 276.505 10.7790   5
   0   6  -5 264.168 11.3899   1
   0   6   5 274.099 11.0024   3
   0   6  -5 268.981 11.4465   4
   0   6   5 276.064 10.3675   5
  -1  -6  -5 1.33196 0.51700   1
  -1  -6  -5 2.88988 0.86411   2
  -1  -6  -5 2.69325 0.82373   4
   1  -6   5 2.18857 0.86452   2
   1  -6   5 2.75652 0.86843   4
  -1   6  -5 2.60140 0.90918   5
  -1   6  -5 0.51034 0.76355   1
  -1   6  -5 0.62721 0.68240   4
   1   6   5 0.56151 0.92151   3
   1   6   5 2.49015 0.84907   5
   2  -6   5 66.2637 3.91384   4
   2  -6   5 72.6710 4.16080   2
  -2  -6  -5 69.5718 3.85000   4
  -2  -6  -5 68.7024 4.15150   2
   2   6   5 72.3938 4.23883   3
  -2   6  -5 68.1834 4.38954   4
  -2   6  -5 68.0133 3.70618   5
   2   6   5 74.1312 3.54104   5
  -2   6  -5 73.7763 4.32727   1
   3  -6   5 28.9679 2.40583   2
  -3  -6  -5 28.5271 2.97153   2
  -3  -6  -5 26.0377 2.08151   4
   3  -6   5 31.1609 2.40607   4
  -3   6  -5 26.0169 1.75669   3
  -3   6  -5 25.7320 2.94146   4
   3   6   5 25.5731 1.90839   5
  -3   6  -5 29.5204 2.17055   5
  -3   6  -5 30.2198 3.13949   1
   3   6   5 28.6329 2.95516   3
  -4  -6  -5 27.0561 3.13407   2
   4  -6   5 31.6239 2.61243   4
   4  -6   5 34.2727 2.28041   3
  -4  -6  -5 31.9584 2.24250   4
   4  -6   5 32.3259 2.64152   2
   4   6   5 31.8844 2.78549   3
   4   6   5 30.3279 2.16862   5
  -4   6  -5 28.0800 3.32688   4
  -4   6  -5 29.5561 2.36465   5
  -4   6  -5 34.0642 2.25892   3
  -4   6  -5 27.8297 3.10248   1
   5  -6   5 212.983 9.32978   1
   5  -6   5 216.400 9.18435   3
   5  -6   5 201.473 9.51701   2
  -5  -6  -5 217.754 10.1879   2
   5  -6   5 217.530 9.49286   4
   5   6   5 206.368 9.94786   3
  -5   6  -5 218.040 9.87174   1
  -5   6  -5 214.917 9.30109   5
  -5   6  -5 203.791 9.05112   3
  -5   6  -5 214.614 10.1689   4
  -6  -6  -5 2.05308 1.45366   2
   6  -6   5 0.05745 0.65894   2
   6  -6   5 2.00576 1.07900   1
   6  -6   5 -0.3317 0.86152   4
   6  -6   5 0.30024 0.71854   5
   6  -6   5 0.84378 0.94758   3
  -6   6  -5 1.39329 0.89942   3
  -6   6  -5 1.83896 1.19743   1
  -6   6  -5 0.03072 1.14424   4
  -6   6  -5 0.75908 0.87609   5
   6   6   5 1.84467 1.04476   3
   7  -6   5 -0.0893 0.94656   3
  -7  -6  -5 4.25929 1.61781   2
   7  -6   5 0.01223 0.78217   5
   7  -6   5 -1.0860 0.71856   2
   7  -6   5 -0.1331 0.68845   4
   7  -6   5 -0.0199 0.80412   1
  -7   6  -5 1.50420 1.13608   4
  -7   6  -5 0.40123 1.07328   2
  -7   6  -5 -0.0114 0.87563   5
  -7   6  -5 0.41569 1.09989   3
   7   6   5 0.28027 0.75405   3
  -7   6  -5 0.25524 1.06289   1
   8  -6   5 27.2223 3.47602   2
   8  -6   5 27.0376 3.12268   1
  -8  -6  -5 21.0699 3.33322   2
   8  -6   5 32.4456 3.30159   4
  -8   6  -5 25.6329 3.63854   3
  -8   6  -5 36.8342 4.03627   1
   8   6   5 25.1426 3.75400   3
  -8   6  -5 27.0705 3.33754   5
  -8   6  -5 27.5289 3.66113   2
  -8   6  -5 18.9251 3.07507   4
  -9  -6  -5 4.87870 1.99551   2
   9   6   5 2.83519 1.41350   3
  -9   6  -5 -0.6790 2.20299   2
 -10  -6  -5 27.4806 4.20963   2
  10   6   5 28.6985 4.46100   3
  11  -7  -5 3.16121 2.24254   1
  11  -7  -5 4.07703 2.37101   5
 -11   7   5 1.97231 2.16214   3
  11   7  -5 4.23921 2.05742   3
  11   7  -5 2.12869 1.79050   1
  11   7  -5 4.66707 2.23875   5
  10  -7  -5 -0.7708 1.53529   5
  10  -7  -5 -0.5420 1.76640   1
  10   7  -5 1.69798 1.71632   3
  10   7  -5 0.89917 1.42556   1
 -10   7   5 1.87711 1.37924   3
  10   7  -5 3.27441 1.93515   5
   9  -7  -5 -0.3579 0.79590   4
   9  -7  -5 0.05955 1.34024   5
  -9  -7   5 -0.2887 1.06914   2
   9  -7  -5 0.47453 1.55080   1
   9   7  -5 1.29365 1.07099   1
   9   7  -5 1.01125 1.44631   5
   9   7  -5 1.78721 1.46547   3
  -9   7   5 2.96640 1.77506   3
   8  -7  -5 -0.1325 0.74265   4
   8  -7  -5 1.22729 1.51769   5
  -8  -7   5 -0.4352 0.95566   2
   8  -7  -5 -0.6505 1.37165   1
   8   7  -5 1.00874 0.97019   1
   8   7  -5 -1.4168 0.91829   3
   8   7  -5 0.90616 1.01433   5
  -8   7   5 1.33962 1.12697   3
   7  -7  -5 0.44643 0.89680   4
   7  -7  -5 0.61254 1.14895   1
   7  -7  -5 -0.4171 1.14850   5
  -7  -7   5 0.64834 0.78892   2
   7   7  -5 0.68130 1.00011   5
  -7   7   5 -0.3716 0.71047   3
   7   7  -5 0.64596 0.89296   3
  -7   7   5 -1.4707 0.91677   5
   7   7  -5 -0.8265 0.65582   1
   6  -7  -5 22.9557 2.89689   4
   6  -7  -5 28.0115 3.63667   1
   6  -7  -5 28.1416 3.38059   5
  -6  -7   5 25.5801 2.83915   2
   6   7  -5 22.2301 3.02203   5
  -6   7   5 26.8014 3.37654   5
  -6   7   5 23.0763 2.98647   3
   6   7  -5 19.1020 2.84037   1
   6   7  -5 26.1868 2.81439   3
   5  -7  -5 6.34320 1.69776   1
   5  -7  -5 3.31764 1.21248   5
  -5  -7   5 3.53828 1.14829   2
   5  -7  -5 5.30165 1.47529   4
   5   7  -5 5.66100 1.24483   4
  -5   7   5 5.41720 1.44755   3
   5   7  -5 3.51208 1.08563   3
   5   7  -5 4.00896 1.74625   1
  -5   7   5 4.97106 1.46066   5
   5   7  -5 2.38346 1.33017   5
   4  -7  -5 16.4718 2.27733   5
   4  -7  -5 14.7137 2.27973   1
   4  -7  -5 16.8783 2.29474   4
  -4  -7   5 13.9350 2.04221   2
   4   7  -5 15.4542 1.75372   3
   4   7  -5 19.6583 2.53587   5
   4   7  -5 17.0519 2.62234   1
  -4   7   5 14.0418 2.17910   5
   4   7  -5 18.2431 2.23372   4
  -4   7   5 15.0955 2.25131   3
   3  -7  -5 24.5077 2.13936   5
   3  -7  -5 21.3600 2.58282   4
   3  -7  -5 22.2401 2.72470   1
  -3  -7   5 25.4628 2.62740   2
  -3   7   5 23.6862 2.56069   5
   3   7  -5 26.3627 2.75959   4
   3   7  -5 22.8202 2.69590   5
   3   7  -5 30.5708 3.46020   1
  -3   7   5 24.5201 2.66674   3
   2  -7  -5 102.575 4.56058   2
  -2  -7   5 103.812 5.36087   2
   2  -7  -5 102.062 5.34319   1
   2  -7  -5 110.102 5.61826   4
   2   7  -5 107.486 5.94179   1
  -2   7   5 111.597 5.45051   3
  -2   7   5 103.928 5.10527   5
   2   7  -5 101.256 5.40427   5
   2   7  -5 102.713 5.51213   4
   1  -7  -5 3.25822 0.80685   2
  -1  -7   5 1.96981 0.86994   2
   1  -7  -5 3.30614 0.93496   1
  -1  -7   5 2.12033 0.82392   4
   1  -7  -5 4.02661 1.07145   4
   1   7  -5 2.18037 1.18813   1
   1   7  -5 1.23560 0.95844   4
  -1   7   5 2.54456 1.16011   3
   1   7  -5 3.50137 1.32500   5
  -1   7   5 2.58411 0.85855   5
   0  -7   5 143.486 6.68771   2
   0  -7  -5 142.701 6.07417   1
   0  -7   5 142.702 6.57515   4
   0  -7  -5 138.386 6.34904   2
   0  -7  -5 142.966 6.66619   4
   0   7   5 139.665 6.64882   3
   0   7  -5 145.113 6.57884   5
   0   7  -5 134.868 7.04010   4
   0   7  -5 144.318 7.20334   1
   0   7   5 131.048 6.06905   5
  -1  -7  -5 113.014 5.63610   4
   1  -7   5 111.812 5.76524   2
  -1  -7  -5 115.568 5.68897   2
  -1  -7  -5 116.200 4.82006   1
   1  -7   5 114.101 5.66087   4
  -1   7  -5 113.817 6.17312   1
   1   7   5 119.851 5.94997   3
  -1   7  -5 116.081 6.21478   4
  -1   7  -5 112.707 5.53227   5
   2  -7   5 17.4730 2.19982   2
   2  -7   5 17.0324 2.16116   4
  -2  -7  -5 19.5318 2.09193   4
  -2  -7  -5 15.4608 2.07112   2
  -2   7  -5 15.6085 2.36042   1
  -2   7  -5 16.9573 2.50598   4
   2   7   5 17.5967 1.95877   5
  -2   7  -5 16.9248 2.06729   5
   2   7   5 19.5852 2.41399   3
   3  -7   5 4.21682 1.12082   4
  -3  -7  -5 4.52909 1.10285   4
  -3  -7  -5 7.78064 1.62220   2
   3  -7   5 6.00804 1.42001   2
  -3   7  -5 5.06764 1.18901   5
  -3   7  -5 3.46879 1.18390   1
  -3   7  -5 2.51131 1.11912   4
   3   7   5 5.20837 1.42100   3
   3   7   5 5.18695 1.09557   5
  -4  -7  -5 48.4621 2.83429   4
   4  -7   5 41.3241 3.20923   2
  -4  -7  -5 39.4250 3.30628   2
   4  -7   5 52.3171 3.45298   4
  -4   7  -5 47.2908 3.54392   1
   4   7   5 39.4082 3.31021   3
   4   7   5 43.7860 2.81973   5
  -4   7  -5 44.9025 3.75915   4
  -4   7  -5 39.1139 2.94035   5
   5  -7   5 35.4537 3.02358   4
   5  -7   5 39.5837 3.08560   1
  -5  -7  -5 32.0413 3.62062   2
   5  -7   5 32.8242 2.85706   2
   5   7   5 33.3582 3.74912   3
  -5   7  -5 37.1363 3.86989   1
  -5   7  -5 39.8941 4.15433   4
  -5   7  -5 39.8681 3.00350   5
   6  -7   5 111.937 6.10229   4
   6  -7   5 109.434 5.95662   1
   6  -7   5 108.166 6.14419   2
  -6  -7  -5 119.515 6.81920   2
  -6   7  -5 120.350 6.57426   1
  -6   7  -5 114.804 6.10846   5
  -6   7  -5 110.773 6.72361   4
   6   7   5 111.370 6.66330   3
   7  -7   5 4.47066 1.33004   2
   7  -7   5 8.35556 1.85739   1
   7  -7   5 5.22483 1.39106   4
  -7  -7  -5 7.23520 2.15290   2
   7  -7   5 5.64510 1.51553   5
  -7   7  -5 7.28956 1.74531   5
  -7   7  -5 3.78226 1.56715   4
  -7   7  -5 2.11585 1.39924   1
  -7   7  -5 0.99158 0.95609   2
   7   7   5 4.50035 1.61068   3
   8  -7   5 13.1475 2.42176   2
  -8  -7  -5 11.3538 2.76475   2
   8  -7   5 15.8858 2.46684   4
   8  -7   5 12.2420 2.25148   1
  -8   7  -5 13.9789 2.64112   2
  -8   7  -5 11.4374 2.55834   4
  -8   7  -5 10.8122 2.33524   5
  -8   7  -5 12.2752 2.55018   1
   8   7   5 16.8334 3.16888   3
  -9  -7  -5 0.61144 1.76596   2
   9   7   5 -0.1220 1.02705   3
 -10  -7  -5 3.90519 1.84978   2
  10   7   5 5.05952 2.51190   3
 -10  -8   5 2.92092 1.70191   2
  10  -8  -5 1.02782 1.56803   1
  10  -8  -5 0.53656 1.40354   4
  10  -8  -5 0.72298 1.30604   5
 -10   8   5 1.83517 1.45733   5
  10   8  -5 5.07921 2.07946   5
 -10   8   5 2.82824 2.01822   3
  10   8  -5 1.89671 1.51839   1
   9  -8  -5 -0.0888 1.52954   5
   9  -8  -5 1.41530 1.43751   1
   9  -8  -5 0.07344 1.00962   4
  -9  -8   5 -0.2736 1.24016   2
  -9   8   5 0.59664 1.55301   5
   9   8  -5 -0.6339 0.84628   1
   9   8  -5 -0.4891 1.02157   5
  -9   8   5 -0.4254 0.94478   3
   8  -8  -5 9.45594 2.13483   4
   8  -8  -5 10.8659 2.55250   5
  -8  -8   5 11.9397 2.36146   2
   8  -8  -5 17.5231 3.33290   1
   8   8  -5 8.64908 2.10927   1
   8   8  -5 18.0739 3.25490   3
  -8   8   5 13.5760 2.84170   5
  -8   8   5 9.90126 2.48070   3
   8   8  -5 15.0883 2.87564   5
   7  -8  -5 15.2225 2.83480   5
   7  -8  -5 19.1613 3.21297   1
   7  -8  -5 13.9756 2.48177   4
  -7  -8   5 17.8181 2.54439   2
  -7   8   5 15.4678 2.86433   5
   7   8  -5 17.3240 3.00499   1
   7   8  -5 14.6578 2.72206   5
  -7   8   5 11.8516 2.39382   3
   6  -8  -5 -1.0964 0.96237   4
  -6  -8   5 0.90491 0.81705   2
   6  -8  -5 -0.5269 1.10647   1
   6  -8  -5 -1.9756 0.87402   5
  -6   8   5 -1.4905 0.98053   5
   6   8  -5 1.84770 1.45060   1
   6   8  -5 -1.0171 0.94716   5
  -6   8   5 -0.9299 1.00307   3
   5  -8  -5 59.3625 4.17279   4
  -5  -8   5 52.6517 3.63474   2
   5  -8  -5 52.2965 3.81832   5
   5  -8  -5 47.8509 3.98401   1
   5   8  -5 43.0287 3.14576   4
  -5   8   5 52.0330 3.93063   3
   5   8  -5 43.3155 3.59729   5
  -5   8   5 52.1010 3.92085   5
   5   8  -5 50.8001 4.17768   1
   4  -8  -5 5.28258 1.42249   4
  -4  -8   5 3.08109 1.25377   2
   4  -8  -5 3.32097 1.24839   5
   4  -8  -5 3.18507 1.35598   1
  -4   8   5 3.74857 1.21195   3
   4   8  -5 4.11141 1.43571   5
   4   8  -5 2.62288 1.39798   1
  -4   8   5 2.56610 1.23850   5
   4   8  -5 4.13438 1.22934   4
   3  -8  -5 247.412 10.6133   1
   3  -8  -5 239.416 10.6460   4
   3  -8  -5 254.130 10.2442   5
  -3  -8   5 241.697 10.4285   2
   3   8  -5 225.800 10.3118   4
   3   8  -5 231.311 10.9924   1
  -3   8   5 230.401 10.2364   5
   3   8  -5 231.578 10.4658   5
  -3   8   5 243.127 10.4495   3
  -2  -8   5 75.9089 4.43987   2
   2  -8  -5 76.9747 4.67891   4
   2  -8  -5 80.2367 4.48304   1
   2   8  -5 71.0767 4.54403   5
  -2   8   5 83.7243 4.35213   5
  -2   8   5 87.3237 4.72567   3
   2   8  -5 75.1117 4.91635   1
   2   8  -5 65.0376 4.44107   4
   1  -8  -5 1.00815 0.63658   2
  -1  -8   5 2.01005 0.80341   4
  -1  -8   5 2.05191 1.01529   2
   1  -8  -5 3.84220 1.09137   1
   1  -8  -5 3.39609 1.12974   4
  -1   8   5 2.05664 0.89419   5
   1   8  -5 -0.2443 0.63464   4
   1   8  -5 1.32841 1.09957   1
   1   8  -5 2.69377 1.35937   5
  -1   8   5 2.01656 0.94700   3
   0  -8   5 3.61767 1.01762   4
   0  -8   5 4.79496 1.33880   2
   0  -8  -5 5.34733 1.23940   4
   0  -8  -5 6.38687 1.24579   2
   0  -8  -5 6.29771 1.07420   1
   0   8  -5 2.63175 1.28186   1
   0   8  -5 4.41298 1.26184   4
   0   8   5 3.59006 1.17850   3
   0   8  -5 8.02231 1.71328   5
   0   8   5 3.26394 1.01360   5
  -1  -8  -5 40.2210 2.97286   2
   1  -8   5 45.9927 3.24853   2
   1  -8   5 49.0315 3.22300   4
  -1  -8  -5 48.6671 3.20538   4
  -1   8  -5 49.0017 3.17795   5
  -1   8  -5 41.5094 3.44359   4
   1   8   5 43.0320 2.87140   5
   1   8   5 42.4701 3.39467   3
  -1   8  -5 47.5991 3.59524   1
  -2  -8  -5 61.4636 3.90060   2
  -2  -8  -5 65.7504 3.72251   4
   2  -8   5 62.9389 3.85912   2
   2  -8   5 50.5489 3.58199   4
  -2   8  -5 62.2039 3.69116   5
   2   8   5 55.1577 3.42809   5
  -2   8  -5 64.1757 4.34249   1
   2   8   5 57.9015 4.09346   3
  -2   8  -5 57.2804 4.27303   4
   3  -8   5 16.1691 2.22362   2
  -3  -8  -5 17.1954 2.01522   4
  -3  -8  -5 17.7176 2.46800   2
   3  -8   5 14.2702 2.04567   4
  -3   8  -5 16.8628 2.18245   5
   3   8   5 16.5109 2.02342   5
  -3   8  -5 15.1448 2.44954   4
  -3   8  -5 15.5463 2.40988   1
   3   8   5 14.8619 2.47808   3
   4  -8   5 0.30090 0.96099   2
  -4  -8  -5 1.63080 0.95495   2
   4  -8   5 -1.3543 0.68224   4
   4   8   5 0.15265 0.99842   3
  -4   8  -5 1.47986 1.27791   4
  -4   8  -5 2.47687 1.17883   1
   4   8   5 1.68506 0.92202   5
  -4   8  -5 0.86523 0.78540   5
  -5  -8  -5 198.864 9.66822   2
   5  -8   5 196.070 9.13670   2
   5  -8   5 196.093 9.14782   4
   5  -8   5 194.447 9.07811   1
  -5   8  -5 210.706 9.13920   5
   5   8   5 177.752 9.42331   3
  -5   8  -5 190.170 9.53988   1
  -5   8  -5 188.560 9.76544   4
   6  -8   5 9.27230 1.85051   4
   6  -8   5 11.2375 2.08205   2
   6  -8   5 10.0263 2.02178   1
  -6  -8  -5 12.7330 2.43874   2
   6   8   5 9.43776 2.08680   3
  -6   8  -5 12.5653 2.39765   1
  -6   8  -5 10.2342 2.20215   4
  -6   8  -5 12.2051 2.10958   5
   7  -8   5 16.9711 2.58054   2
  -7  -8  -5 15.0674 2.72032   2
   7  -8   5 14.6346 2.43990   4
   7  -8   5 12.2366 2.26334   1
  -7   8  -5 16.9560 2.66917   5
   7   8   5 16.9869 2.93070   3
  -7   8  -5 23.5403 3.39048   1
  -7   8  -5 13.5729 2.70773   4
   8  -8   5 1.13255 1.05198   1
   8  -8   5 -0.3713 0.83371   4
  -8  -8  -5 2.16793 1.50069   2
  -8   8  -5 0.87750 1.42619   1
  -8   8  -5 0.35162 1.14585   4
   8   8   5 1.03493 1.46876   3
  -8   8  -5 3.42149 1.55160   5
  -9  -8  -5 14.1204 2.86956   2
  -9   8  -5 15.7963 2.98046   4
  -9   8  -5 20.7872 3.62132   1
   9   8   5 21.5667 3.68217   3
 -10  -8  -5 1.68586 2.32849   2
  10   8   5 -0.8008 1.80363   3
  10  -9  -5 4.79598 2.24387   5
 -10  -9   5 2.52373 1.86876   2
  10  -9  -5 8.56870 3.02280   1
  10  -9  -5 6.08890 1.97948   4
 -10   9   5 5.15957 2.07416   5
  10   9  -5 7.67811 2.35381   5
 -10   9   5 2.42133 1.63134   3
  10   9  -5 6.36385 2.06213   1
   9  -9  -5 3.19813 1.97463   1
   9  -9  -5 -0.6362 1.59805   5
  -9  -9   5 1.17570 1.45377   2
   9  -9  -5 0.92001 1.10935   4
   9   9  -5 1.28408 1.08815   1
  -9   9   5 1.26875 1.71123   3
   9   9  -5 1.55477 1.31035   5
  -9   9   5 0.77551 1.58153   5
   8  -9  -5 0.29251 1.16632   4
  -8  -9   5 -1.5495 1.12387   2
   8  -9  -5 1.55036 1.28497   1
   8  -9  -5 0.12312 1.19243   5
   8   9  -5 0.48823 1.27235   5
  -8   9   5 -1.2661 1.28609   3
  -8   9   5 -0.6899 1.28464   5
   8   9  -5 -0.4169 0.98476   1
   7  -9  -5 11.5575 2.48399   4
   7  -9  -5 13.2830 2.71901   5
   7  -9  -5 14.5156 2.82876   1
  -7  -9   5 13.8334 2.43991   2
  -7   9   5 15.9122 3.01769   5
  -7   9   5 11.6605 2.52202   3
   7   9  -5 17.9514 2.98791   5
   7   9  -5 13.9295 2.66073   1
   6  -9  -5 3.45936 1.75516   1
   6  -9  -5 1.44646 1.13071   5
  -6  -9   5 1.91486 1.10261   2
   6  -9  -5 1.32869 1.25712   4
  -6   9   5 1.50796 1.07086   5
   6   9  -5 3.56904 1.59680   5
   6   9  -5 0.09219 1.40004   1
  -6   9   5 2.18013 1.26122   3
   5  -9  -5 33.2145 3.52875   5
   5  -9  -5 35.0149 3.94414   1
   5  -9  -5 28.5931 3.40053   4
  -5  -9   5 30.1552 3.25429   2
  -5   9   5 29.1468 3.56635   5
   5   9  -5 32.8102 3.70304   5
   5   9  -5 27.9369 3.75889   1
  -5   9   5 33.1153 3.56743   3
   4  -9  -5 45.8621 3.78904   1
  -4  -9   5 53.5820 3.79193   2
   4  -9  -5 47.6888 3.45384   5
   4  -9  -5 43.4007 3.62823   4
  -4   9   5 55.9912 3.96721   3
   4   9  -5 58.9840 4.13793   5
   4   9  -5 50.9074 4.06470   1
   4   9  -5 44.2280 3.36604   4
  -4   9   5 46.4539 3.56141   5
  -3  -9   5 19.2724 2.53769   2
   3  -9  -5 21.9523 2.83007   4
   3  -9  -5 20.0950 2.65477   1
   3   9  -5 19.6624 2.81388   5
   3   9  -5 21.3600 2.61119   4
  -3   9   5 17.6515 2.42344   3
   3   9  -5 22.9179 3.23060   1
  -3   9   5 18.3798 2.37892   5
  -2  -9   5 86.4931 4.58866   4
  -2  -9   5 81.4574 4.86083   2
   2  -9  -5 78.8851 4.68910   1
   2  -9  -5 76.5825 4.96598   4
   2   9  -5 82.0134 4.93409   5
   2   9  -5 80.3719 5.44947   1
  -2   9   5 79.4313 4.57123   5
  -2   9   5 97.8083 5.19417   3
   2   9  -5 82.7235 5.05270   4
   1  -9  -5 51.9495 3.38078   1
   1  -9  -5 59.0406 3.87579   4
   1  -9  -5 59.7088 3.26276   2
  -1  -9   5 57.5734 3.77380   2
  -1  -9   5 61.2779 3.64114   4
  -1   9   5 54.3976 3.47049   5
  -1   9   5 56.0837 3.79803   3
   1   9  -5 57.2874 4.02434   4
   1   9  -5 54.2331 3.80479   5
   1   9  -5 54.3795 4.34477   1
   0  -9  -5 0.07399 0.64729   1
   0  -9  -5 0.32951 0.68061   2
   0  -9   5 -0.7311 0.64283   4
   0  -9  -5 0.53568 0.82864   4
   0  -9   5 0.25625 0.66469   2
   0   9  -5 -2.4010 0.96474   5
   0   9   5 1.00834 1.14770   3
   0   9   5 1.01428 0.85423   5
   0   9  -5 -0.2862 0.94910   4
   0   9  -5 -0.0391 1.20170   1
   1  -9   5 28.2541 2.90887   2
  -1  -9  -5 25.4460 2.72324   4
  -1  -9  -5 26.8454 2.35472   2
   1  -9   5 30.1853 2.97055   4
   1   9   5 27.0156 3.11568   3
  -1   9  -5 28.4321 2.96934   5
   1   9   5 26.0747 2.67073   5
  -1   9  -5 22.6259 3.04648   1
  -1   9  -5 21.1036 2.94037   4
  -2  -9  -5 46.6651 3.30991   2
   2  -9   5 38.0111 2.99947   2
   2  -9   5 38.6860 3.03907   4
  -2  -9  -5 42.8085 2.99929   4
   2   9   5 36.9746 2.97966   5
   2   9   5 36.2686 3.77635   3
  -2   9  -5 40.1903 3.12489   5
  -2   9  -5 45.7112 3.77658   1
  -2   9  -5 35.2859 3.85147   4
   3  -9   5 45.5196 3.40082   4
   3  -9   5 33.5041 3.03870   2
  -3  -9  -5 45.9403 3.00217   4
  -3  -9  -5 35.4780 3.10489   2
   3   9   5 42.5538 3.53267   3
  -3   9  -5 39.2547 4.19293   4
  -3   9  -5 45.4289 3.28799   5
   3   9   5 42.8385 3.04925   5
  -3   9  -5 46.9405 3.73681   1
   4  -9   5 7.65396 1.81457   2
   4  -9   5 5.37398 1.44675   4
  -4  -9  -5 5.98113 1.63923   2
  -4   9  -5 3.01350 1.36777   4
   4   9   5 7.42335 1.50951   5
   4   9   5 6.70270 1.78059   3
  -4   9  -5 3.42111 1.71410   1
  -4   9  -5 5.17934 1.47654   5
  -5  -9  -5 15.0748 2.64827   2
   5  -9   5 12.3312 2.14073   4
   5  -9   5 15.1113 2.39187   1
   5  -9   5 11.3229 2.07213   2
   5   9   5 13.9548 2.54687   3
  -5   9  -5 18.1554 2.89768   1
  -5   9  -5 7.78313 2.00169   4
  -5   9  -5 13.3704 2.21035   5
  -6  -9  -5 5.54944 1.76324   2
   6  -9   5 4.45150 1.38797   4
   6  -9   5 5.71542 1.62105   2
   6  -9   5 4.97751 1.50170   1
  -6   9  -5 3.36964 1.42238   4
  -6   9  -5 3.96229 1.50607   5
   6   9   5 7.15558 1.85989   3
  -6   9  -5 6.12254 1.82298   1
  -7  -9  -5 19.1413 3.27590   2
   7  -9   5 19.8281 2.80254   2
   7  -9   5 22.9578 3.12755   4
   7  -9   5 24.7273 3.14698   1
  -7   9  -5 20.1461 3.04881   5
  -7   9  -5 20.1175 3.30764   4
  -7   9  -5 19.9360 3.18756   1
   7   9   5 17.1310 3.06265   3
   8  -9   5 2.43712 1.49833   1
   8  -9   5 0.45108 1.21938   4
  -8  -9  -5 1.25798 1.70645   2
  -8   9  -5 3.61530 1.95736   1
  -8   9  -5 2.06569 1.40901   5
   8   9   5 2.01463 1.32321   3
  -8   9  -5 2.68818 1.81362   4
   9  -9   5 10.5981 2.51220   1
  -9  -9  -5 7.58192 2.52834   2
   9  -9   5 9.36946 2.26509   4
  -9   9  -5 6.83147 2.53571   4
   9   9   5 11.8326 2.90041   3
  -9   9  -5 8.29031 2.54363   1
  10 -10  -5 0.01002 1.25422   4
  10 -10  -5 1.21041 1.84341   1
 -10 -10   5 3.26725 1.95974   2
  10 -10  -5 -0.8908 1.86000   5
  10  10  -5 3.79044 2.58952   5
 -10  10   5 -0.6906 1.53994   5
   9 -10  -5 0.59554 1.33405   5
   9 -10  -5 0.04651 1.86345   1
  -9 -10   5 -0.9785 1.37802   2
   9 -10  -5 -0.5328 1.18164   4
   9  10  -5 -0.0082 1.16459   1
  -9  10   5 1.88280 1.58663   3
   9  10  -5 1.77019 1.23043   5
  -9  10   5 0.10621 1.12141   5
   8 -10  -5 6.61981 2.23919   1
   8 -10  -5 9.62405 2.41599   4
   8 -10  -5 6.29344 2.24273   5
  -8 -10   5 6.75358 1.80180   2
   8  10  -5 6.75686 1.98014   1
  -8  10   5 7.63683 2.13548   3
  -8  10   5 9.17574 2.49934   5
   8  10  -5 8.67347 2.21938   5
   7 -10  -5 1.16949 1.56167   4
  -7 -10   5 0.74917 1.19675   2
   7 -10  -5 3.07711 1.75524   5
   7 -10  -5 0.47844 1.35841   1
  -7  10   5 2.22382 1.58204   5
   7  10  -5 4.43722 1.70575   5
  -7  10   5 1.01983 1.16171   3
   7  10  -5 1.62296 1.28352   1
   6 -10  -5 3.77952 1.79118   1
  -6 -10   5 4.68861 1.65413   2
   6 -10  -5 3.91375 1.45600   5
   6 -10  -5 4.91840 1.66975   4
   6  10  -5 7.11965 2.31849   1
  -6  10   5 4.28834 1.81428   3
   6  10  -5 4.80461 1.82493   5
  -6  10   5 4.32608 1.66293   5
   5 -10  -5 0.89312 1.05721   4
   5 -10  -5 3.01864 1.44309   5
  -5 -10   5 0.58387 1.10631   2
   5 -10  -5 0.80461 0.98129   1
   5  10  -5 2.30769 1.30738   5
   5  10  -5 1.55873 1.68851   1
  -5  10   5 -0.9276 1.01736   5
  -5  10   5 -0.0550 1.03788   3
   4 -10  -5 57.5150 4.38376   1
  -4 -10   5 66.6148 4.42248   2
   4 -10  -5 59.5436 4.49983   4
  -4  10   5 56.2572 4.11337   5
   4  10  -5 60.8962 4.07787   4
  -4  10   5 63.1445 4.49815   3
   4  10  -5 67.4718 4.55727   5
   4  10  -5 59.4964 4.84920   1
   3 -10  -5 19.3063 2.81374   4
  -3 -10   5 15.2160 2.30623   2
   3 -10  -5 18.5064 2.63237   1
   3  10  -5 17.5050 2.93748   1
   3  10  -5 11.6888 2.46013   5
  -3  10   5 18.3600 2.48918   5
  -3  10   5 15.6314 2.51934   3
   3  10  -5 11.5031 2.10831   4
   2 -10  -5 22.2618 2.96515   4
   2 -10  -5 28.6007 3.05942   1
  -2 -10   5 28.8886 2.80772   4
  -2 -10   5 25.8974 3.01240   2
   2  10  -5 23.6808 3.04506   4
  -2  10   5 26.3695 3.15319   3
   2  10  -5 27.1122 3.53774   1
  -2  10   5 25.8877 2.91445   5
   2  10  -5 30.4356 3.52415   5
   1 -10  -5 27.0249 2.38287   1
   1 -10  -5 21.2285 2.45347   2
   1 -10  -5 25.6262 2.96978   4
  -1 -10   5 19.9884 2.61794   2
  -1 -10   5 21.5378 2.52966   4
   1  10  -5 21.4631 3.12081   1
   1  10  -5 25.0083 3.09783   5
  -1  10   5 27.2827 2.84555   5
  -1  10   5 25.5497 3.02826   3
   1  10  -5 25.2067 3.15609   4
   0 -10  -5 117.894 5.44558   2
   0 -10  -5 107.701 5.86133   4
   0 -10   5 113.115 5.92397   2
   0 -10   5 102.774 5.63777   4
   0  10  -5 100.088 6.20113   4
   0  10  -5 102.042 5.89116   5
   0  10  -5 96.3015 6.22555   1
   0  10   5 99.6143 5.43678   5
   0  10   5 103.285 5.84840   3
  -1 -10  -5 79.5568 4.52068   2
   1 -10   5 82.0018 4.80681   4
  -1 -10  -5 72.8425 4.57375   4
   1 -10   5 75.1541 4.68877   2
  -1  10  -5 81.1636 5.36680   1
   1  10   5 70.3215 4.39996   5
  -1  10  -5 87.4985 5.49324   4
  -1  10  -5 74.6360 4.77827   5
   1  10   5 76.1049 4.86295   3
  -2 -10  -5 183.577 8.54672   4
   2 -10   5 173.344 8.73668   2
  -2 -10  -5 194.159 8.88508   2
   2 -10   5 189.382 8.94145   4
  -2  10  -5 198.987 9.74063   4
  -2  10  -5 188.473 8.89349   5
   2  10   5 204.315 9.41174   3
  -2  10  -5 188.708 9.51657   1
   3 -10   5 1.89173 1.00193   4
  -3 -10  -5 0.49881 1.06576   2
  -3 -10  -5 1.14816 0.81774   4
   3 -10   5 0.91468 0.91011   2
  -3  10  -5 0.75639 1.32848   1
   3  10   5 0.42221 1.10006   3
  -3  10  -5 0.73398 0.92318   4
  -3  10  -5 0.82310 1.12967   5
   3  10   5 2.58352 1.29331   5
   4 -10   5 -0.1958 0.97498   2
   4 -10   5 0.06546 1.04793   4
  -4 -10  -5 1.45577 1.25487   2
  -4  10  -5 1.33638 1.20022   5
  -4  10  -5 0.25591 0.99105   1
   4  10   5 3.31227 1.71549   3
  -4  10  -5 1.40277 1.34256   4
  -5 -10  -5 4.58246 1.76885   2
   5 -10   5 3.85315 1.28256   2
   5 -10   5 4.56160 1.58863   4
  -5  10  -5 5.76015 1.60275   5
  -5  10  -5 6.09145 1.92894   4
   5  10   5 0.75039 1.36325   3
  -5  10  -5 2.93451 1.84981   1
   6 -10   5 -0.0838 0.86285   4
   6 -10   5 -0.2671 1.15796   1
   6 -10   5 -0.2140 0.97109   2
  -6 -10  -5 0.27021 1.26502   2
  -6  10  -5 -0.2774 0.86576   4
   6  10   5 0.55844 1.30247   3
  -6  10  -5 -0.5062 1.03432   5
  -6  10  -5 0.54710 1.32695   1
   7 -10   5 3.31351 1.53836   4
   7 -10   5 1.72226 1.52193   1
  -7 -10  -5 1.71682 1.63152   2
  -7  10  -5 -0.1501 1.41028   4
  -7  10  -5 0.18526 1.15372   5
   7  10   5 1.62845 1.47181   3
  -7  10  -5 3.09074 1.67339   1
   8 -10   5 25.3393 3.34256   4
  -8 -10  -5 23.9421 3.68587   2
   8 -10   5 32.4908 3.94174   1
  -8  10  -5 27.2998 3.97123   4
  -8  10  -5 27.3663 3.80361   5
   8  10   5 27.4761 4.07604   3
  -8  10  -5 23.4218 3.71673   1
   9 -10   5 -1.5165 1.01716   4
  -9 -10  -5 0.11975 1.23642   2
   9 -10   5 0.50223 1.34980   1
  -9  10  -5 0.19898 2.06919   4
  -9  10  -5 -0.0440 1.71671   1
   9  10   5 -0.1245 1.73649   3
   9 -11  -5 2.64925 1.56971   4
   9 -11  -5 2.11622 1.78605   1
  -9 -11   5 2.39497 1.88809   2
   9 -11  -5 3.71938 1.97311   5
   9  11  -5 2.51213 1.64214   1
  -9  11   5 1.09730 1.88068   3
   9  11  -5 2.29832 1.73291   5
  -9  11   5 4.79406 1.87630   5
  -8 -11   5 0.35971 1.52389   2
   8 -11  -5 4.76619 2.27301   1
   8 -11  -5 2.81095 1.83995   5
   8 -11  -5 0.94431 1.71718   4
   8  11  -5 2.77085 1.48903   5
  -8  11   5 5.16207 2.09260   5
  -8  11   5 1.08597 1.76780   3
   8  11  -5 2.61587 1.75567   1
   7 -11  -5 6.67994 2.19200   5
   7 -11  -5 2.22889 1.39758   4
   7 -11  -5 1.25449 1.61928   1
  -7 -11   5 2.24163 1.28610   2
  -7  11   5 1.64599 1.75641   3
   7  11  -5 3.84083 1.87583   5
   7  11  -5 4.42461 1.85791   1
  -7  11   5 5.77710 2.05966   5
   6 -11  -5 -0.8437 0.78520   5
   6 -11  -5 0.99030 1.62047   1
   6 -11  -5 0.23823 1.47028   4
  -6 -11   5 0.22688 1.22726   2
   6  11  -5 -0.5942 0.74594   5
  -6  11   5 0.74377 1.07821   3
  -6  11   5 -0.0853 0.92887   5
   6  11  -5 -1.9526 0.85914   1
  -5 -11   5 -0.0679 1.19081   2
   5 -11  -5 0.17213 0.87451   1
   5 -11  -5 3.35106 1.65650   4
  -5  11   5 -0.0455 0.90179   3
  -5  11   5 1.34321 1.26391   5
   5  11  -5 1.25959 1.52112   1
   5  11  -5 1.87006 1.36596   5
   4 -11  -5 28.2713 3.47240   1
   4 -11  -5 24.7424 3.26941   4
  -4 -11   5 17.3238 2.59252   2
   4  11  -5 18.7523 3.10302   5
   4  11  -5 23.1896 3.48314   1
   4  11  -5 23.3294 2.83443   4
  -4  11   5 23.8589 3.13267   5
  -4  11   5 23.5257 3.18040   3
  -3 -11   5 -0.3708 1.00685   2
   3 -11  -5 0.84654 1.18189   4
   3 -11  -5 0.55965 0.83965   1
   3  11  -5 1.60857 1.38144   5
  -3  11   5 1.89916 1.24756   5
   3  11  -5 1.12182 1.10316   4
  -3  11   5 0.85724 1.39783   3
   3  11  -5 1.23397 1.89494   1
  -2 -11   5 34.2187 2.73520   4
   2 -11  -5 37.5556 3.06755   1
  -2 -11   5 34.3450 3.60276   2
   2 -11  -5 34.5421 3.76562   4
  -2  11   5 32.0060 2.85151   5
   2  11  -5 34.0393 4.16622   1
  -2  11   5 33.4078 3.68538   3
   2  11  -5 33.9092 3.80418   5
   2  11  -5 32.5689 3.52575   4
   1 -11  -5 49.2436 3.31179   1
  -1 -11   5 45.9944 3.30623   4
   1 -11  -5 47.7027 3.65964   4
  -1 -11   5 40.8154 3.46822   2
  -1  11   5 38.2393 3.97382   3
   1  11  -5 44.4952 3.97458   1
   1  11  -5 44.4442 3.95145   5
  -1  11   5 46.8108 3.48188   5
   1  11  -5 44.0594 4.40356   4
   0 -11  -5 25.1826 2.92947   4
   0 -11   5 20.2228 2.65169   2
   0 -11  -5 22.9948 2.44748   2
   0 -11   5 22.1978 2.66888   4
   0  11   5 19.1602 2.74619   3
   0  11  -5 17.8147 2.92010   1
   0  11  -5 19.9640 2.98425   4
   0  11   5 17.3840 2.47514   5
   0  11  -5 21.6813 3.13688   5
  -1 -11  -5 34.9862 2.86901   2
   1 -11   5 37.5407 3.06641   2
  -1 -11  -5 34.3116 3.44321   4
   1 -11   5 37.1006 3.04314   4
   1  11   5 29.8861 3.24894   5
  -1  11  -5 31.8316 3.87704   1
  -1  11  -5 27.4085 3.50025   4
  -1  11  -5 37.6725 3.90186   5
   1  11   5 36.4471 3.85220   3
  -2 -11  -5 2.67192 1.21956   2
  -2 -11  -5 3.15435 1.24798   4
   2 -11   5 2.23228 1.04963   2
   2 -11   5 3.22191 1.22555   4
   2  11   5 1.58808 1.33992   5
   2  11   5 1.98386 1.59174   3
  -2  11  -5 1.12132 1.36150   5
  -2  11  -5 4.35468 1.56999   4
  -2  11  -5 3.04389 1.59803   1
   3 -11   5 32.5881 3.48612   2
  -3 -11  -5 26.8971 3.24655   2
   3 -11   5 25.0517 3.22082   4
  -3  11  -5 18.5158 3.12208   4
   3  11   5 31.9562 3.80277   3
   3  11   5 28.4803 3.18301   5
  -3  11  -5 25.3435 3.49352   1
  -3  11  -5 31.4491 3.57140   5
   4 -11   5 65.4921 4.40497   2
  -4 -11  -5 54.5006 4.34489   2
   4 -11   5 60.3010 4.32922   4
  -4  11  -5 61.4941 4.37476   5
   4  11   5 57.6906 4.58430   3
  -4  11  -5 56.5219 4.72358   4
  -4  11  -5 55.1053 4.57913   1
  -5 -11  -5 1.32529 1.44849   2
   5 -11   5 3.22401 1.41270   2
   5 -11   5 3.74488 1.36468   4
  -5  11  -5 0.03801 0.97589   4
   5  11   5 1.69742 1.46461   3
  -5  11  -5 1.66426 1.28818   5
  -5  11  -5 3.17838 1.57322   1
   6 -11   5 7.69765 2.16385   4
  -6 -11  -5 8.30026 2.22305   2
   6 -11   5 4.34896 1.50188   2
   6 -11   5 6.95542 1.87705   1
   6  11   5 7.04848 2.10625   3
  -6  11  -5 9.37748 2.17067   5
  -6  11  -5 5.15973 1.88597   1
  -6  11  -5 6.14082 2.14915   4
   7 -11   5 4.84367 1.74627   1
  -7 -11  -5 7.95143 2.22799   2
   7 -11   5 8.52250 2.01332   4
  -7  11  -5 12.5514 2.85561   1
  -7  11  -5 6.42061 2.00010   5
  -7  11  -5 6.46737 2.05653   4
   7  11   5 4.09885 1.70720   3
  -8 -11  -5 4.90674 2.36376   2
   8 -11   5 8.73259 2.27730   4
   8 -11   5 7.14859 2.20896   1
  -8  11  -5 8.09024 2.47331   5
  -8  11  -5 4.97902 2.45781   4
  -8  11  -5 12.6472 2.96525   1
   8  11   5 6.21354 2.35651   3
   9 -12  -5 -4.3500 1.50449   5
  -9 -12   5 -1.2793 1.58624   2
   9 -12  -5 -1.5868 1.13400   4
   9  12  -5 2.42164 2.21204   5
  -9  12   5 1.56064 2.09384   5
   8 -12  -5 -0.9940 1.76951   5
   8 -12  -5 2.44554 2.34010   1
   8 -12  -5 2.16713 1.99180   4
  -8 -12   5 1.74106 1.40491   2
   8  12  -5 3.31934 1.93217   5
  -8  12   5 -2.0303 1.40112   5
  -8  12   5 -1.2406 1.02760   3
   8  12  -5 2.11862 1.66280   1
   7 -12  -5 3.40694 1.73116   4
   7 -12  -5 3.96836 2.08059   1
   7 -12  -5 2.25633 1.80782   5
  -7 -12   5 -0.8791 1.38800   2
   7  12  -5 3.38311 2.00981   1
   7  12  -5 3.86451 1.70833   5
  -7  12   5 4.10436 2.05634   5
  -7  12   5 1.81936 1.50117   3
   6 -12  -5 6.78586 2.07070   4
   6 -12  -5 2.68678 1.77826   1
  -6 -12   5 9.62844 2.23876   2
  -6  12   5 7.22789 1.93491   5
  -6  12   5 7.28364 2.35656   3
   6  12  -5 7.70644 2.26797   5
   6  12  -5 0.40097 1.85698   1
   5 -12  -5 5.92343 1.84650   4
   5 -12  -5 4.80028 1.73514   1
  -5 -12   5 3.95391 1.45684   2
  -5  12   5 6.69533 2.21200   3
  -5  12   5 5.95132 2.09272   5
   5  12  -5 4.56309 2.32910   1
   5  12  -5 6.86166 2.12190   5
  -4 -12   5 3.13831 1.27340   2
   4 -12  -5 3.00622 1.34715   1
   4 -12  -5 6.18732 1.82265   4
   4  12  -5 3.96865 2.25010   1
  -4  12   5 2.56448 1.66569   3
  -4  12   5 2.89101 1.48343   5
   4  12  -5 3.50407 1.90311   5
   3 -12  -5 90.8145 6.02070   4
  -3 -12   5 107.343 6.18706   2
  -3 -12   5 101.783 5.45030   4
   3 -12  -5 99.3644 5.93377   1
  -3  12   5 100.012 6.08410   3
   3  12  -5 95.4378 5.92954   4
  -3  12   5 108.827 6.14647   5
   3  12  -5 93.5661 6.11600   5
   3  12  -5 107.522 7.00741   1
   2 -12  -5 3.72249 1.48825   1
   2 -12  -5 7.51775 2.03374   4
  -2 -12   5 4.89598 1.43576   4
  -2 -12   5 6.21804 1.79499   2
  -2  12   5 4.83830 1.66463   5
  -2  12   5 4.81086 1.84401   3
   2  12  -5 7.60974 2.48468   1
   2  12  -5 3.91234 1.50868   4
   2  12  -5 3.89438 1.74286   5
  -1 -12   5 22.8938 3.02907   2
   1 -12  -5 26.9956 4.27873   1
  -1 -12   5 21.7620 2.74435   4
   1 -12  -5 30.4694 3.47404   4
  -1  12   5 20.7418 3.11806   3
   1  12  -5 24.8437 3.35052   5
  -1  12   5 26.6472 3.09086   5
   1  12  -5 18.4832 3.17634   1
   1  12  -5 23.8735 3.29826   4
   0 -12   5 3.57934 1.35545   2
   0 -12  -5 5.98904 1.60401   4
   0 -12   5 3.17597 1.20478   4
   0 -12  -5 3.29522 1.28407   2
   0  12  -5 3.85961 1.61450   4
   0  12   5 0.94956 1.58216   3
   0  12  -5 1.03587 1.73327   5
   0  12  -5 1.55724 1.77467   1
   0  12   5 1.25612 1.21575   5
   1 -12   5 10.7014 2.00789   4
  -1 -12  -5 11.2052 1.96781   2
  -1 -12  -5 14.6401 2.21645   4
   1 -12   5 9.48040 1.94994   2
  -1  12  -5 10.2427 2.44219   4
   1  12   5 12.6996 2.56528   3
  -1  12  -5 15.1914 2.83374   5
   1  12   5 13.1837 2.37953   5
  -1  12  -5 12.4624 2.58124   1
   2 -12   5 20.3615 2.77520   4
   2 -12   5 17.2529 2.68472   2
  -2 -12  -5 16.7540 2.43594   4
  -2 -12  -5 15.8611 2.48558   2
  -2  12  -5 19.5240 3.12661   4
  -2  12  -5 14.0416 2.73321   1
   2  12   5 22.5396 3.24512   3
   2  12   5 16.4489 2.68314   5
  -2  12  -5 16.9151 2.67038   5
  -3 -12  -5 7.25161 1.92246   2
   3 -12   5 5.90413 1.56790   2
   3 -12   5 6.08258 1.85745   4
   3  12   5 4.57120 1.69476   3
  -3  12  -5 6.33910 1.85695   5
   3  12   5 4.73591 1.79089   5
  -3  12  -5 8.63084 2.17942   1
  -3  12  -5 4.24249 1.77907   4
   4 -12   5 0.01549 1.09263   2
   4 -12   5 0.43892 0.91074   4
  -4 -12  -5 -0.5146 0.74547   2
   4  12   5 -0.3515 1.05966   3
  -4  12  -5 0.11636 1.01440   4
  -4  12  -5 -0.8529 0.70108   5
  -4  12  -5 0.62342 1.34572   1
  -5 -12  -5 19.4873 2.99851   2
   5 -12   5 13.2418 2.47531   4
   5 -12   5 14.5535 2.56027   2
  -5  12  -5 13.3181 2.45671   5
  -5  12  -5 13.9194 2.97060   1
  -5  12  -5 13.1516 2.71905   4
   5  12   5 14.4065 2.81959   3
   6 -12   5 2.17756 1.60193   4
  -6 -12  -5 -0.9750 0.88725   2
  -6  12  -5 -1.0882 1.34519   5
  -6  12  -5 2.87832 1.89226   4
   6  12   5 0.60333 1.15254   3
  -6  12  -5 0.45915 1.56215   1
   7 -12   5 16.0782 3.00045   4
   7 -12   5 15.0694 2.92317   1
  -7 -12  -5 15.3505 3.25458   2
   7  12   5 16.5154 3.44629   3
  -7  12  -5 18.7222 3.29885   5
  -7  12  -5 16.0816 3.45294   1
  -7  12  -5 21.2381 3.86532   4
  -8 -12  -5 0.75463 1.49060   2
   8 -12   5 -0.9170 1.60174   1
   8 -12   5 0.99637 1.44335   4
  -8  12  -5 1.29059 2.06329   4
   8  12   5 2.91408 2.01937   3
  -8  12  -5 0.94218 2.03713   1
  -8  12  -5 -0.6129 1.52591   5
  -8 -13   5 2.58569 1.87611   2
   8 -13  -5 4.31024 2.21212   1
   8 -13  -5 0.84529 1.92944   4
  -8  13   5 2.94813 2.01163   5
  -8  13   5 5.06661 2.43901   3
   8  13  -5 1.92717 1.95639   5
   7 -13  -5 0.39833 1.77873   4
   7 -13  -5 1.05604 1.55633   1
  -7 -13   5 2.12497 1.80804   2
   7  13  -5 3.44280 2.13326   1
  -7  13   5 5.65420 2.28118   3
  -7  13   5 3.66903 1.88215   5
   7  13  -5 3.89578 1.99622   5
  -6 -13   5 4.81371 1.95738   2
   6 -13  -5 3.43615 2.02648   1
   6 -13  -5 0.80486 1.30576   4
   6  13  -5 1.81884 1.36915   5
  -6  13   5 -0.1063 1.29297   3
  -6  13   5 1.89871 1.74186   5
   6  13  -5 -0.1193 1.79496   1
  -5 -13   5 11.0566 2.52514   2
   5 -13  -5 9.67942 2.40625   4
   5 -13  -5 11.3135 2.42132   1
   5  13  -5 10.9413 2.68804   1
  -5  13   5 10.8652 2.66891   3
   5  13  -5 10.9193 2.54263   5
  -5  13   5 13.1813 2.70812   5
  -4 -13   5 9.82150 2.28979   2
   4 -13  -5 10.2906 2.58536   4
   4 -13  -5 8.35118 2.02164   1
   4  13  -5 7.12862 2.39639   5
   4  13  -5 8.80855 2.56107   1
  -4  13   5 6.90314 2.20924   3
  -4  13   5 10.0312 2.44466   5
   3 -13  -5 19.0053 2.94171   1
  -3 -13   5 18.9856 2.82719   2
  -3 -13   5 15.1102 2.21199   4
   3 -13  -5 23.7654 3.38883   4
  -3  13   5 17.8671 2.89278   3
   3  13  -5 22.1876 3.89922   1
  -3  13   5 24.5385 3.27421   5
   3  13  -5 18.7685 3.34376   5
   3  13  -5 20.6816 3.02032   4
   2 -13  -5 10.4375 2.14824   4
   2 -13  -5 9.72842 2.04348   1
  -2 -13   5 12.9857 2.10825   4
  -2 -13   5 8.96963 2.03949   2
   2  13  -5 8.78448 2.02524   4
  -2  13   5 10.5262 2.21405   5
   2  13  -5 11.8853 2.94408   1
   2  13  -5 10.4215 2.46858   5
  -2  13   5 11.4195 2.57221   3
   1 -13  -5 19.5709 2.85583   4
  -1 -13   5 10.6147 2.17648   2
  -1 -13   5 13.8456 2.26310   4
   1  13  -5 12.9017 2.64131   5
   1  13  -5 13.2270 2.53217   4
   1  13  -5 14.8559 2.98129   1
  -1  13   5 11.1756 2.39884   3
  -1  13   5 14.4629 2.55547   5
   0 -13  -5 0.98001 1.00466   4
   0 -13   5 0.67950 0.93384   2
   0 -13   5 0.70045 1.07649   4
   0  13  -5 -0.5066 1.24596   5
   0  13  -5 -0.1032 1.69609   1
   0  13  -5 -0.7451 1.20353   4
   0  13   5 -1.4129 0.98620   3
   0  13   5 -0.6831 1.34028   5
  -1 -13  -5 0.55987 0.97640   2
  -1 -13  -5 -0.8642 0.97507   4
   1 -13   5 -0.2056 0.95963   2
   1 -13   5 0.32263 1.13943   4
  -1  13  -5 -2.1406 1.32046   5
  -1  13  -5 -0.8691 1.25119   4
   1  13   5 -1.2551 1.34613   5
  -1  13  -5 0.07882 1.58276   1
   1  13   5 0.14621 1.23007   3
  -2 -13  -5 0.42609 1.03404   4
   2 -13   5 1.43180 1.13004   4
  -2 -13  -5 -0.1789 1.04077   2
   2 -13   5 0.52357 1.25666   2
   2  13   5 -0.6555 1.11817   3
  -2  13  -5 -0.0700 1.71452   1
   2  13   5 -1.8711 1.26088   5
  -2  13  -5 1.93988 1.24113   4
  -2  13  -5 -1.1618 1.29926   5
   3 -13   5 40.1012 4.06495   2
  -3 -13  -5 36.4145 3.82905   2
   3 -13   5 40.3628 4.29420   4
   3  13   5 29.6073 3.90154   3
  -3  13  -5 38.6070 4.63448   4
  -3  13  -5 32.2787 4.10830   5
  -3  13  -5 35.3966 4.56527   1
   4 -13   5 14.7551 2.59473   2
  -4 -13  -5 9.10780 2.12733   2
   4 -13   5 16.5877 2.79535   4
  -4  13  -5 17.0597 3.19819   1
  -4  13  -5 14.9590 2.87436   5
   4  13   5 16.4479 3.03927   3
  -4  13  -5 11.4224 2.54593   4
  -5 -13  -5 -1.7870 1.20356   2
   5 -13   5 -0.4877 0.86579   4
   5 -13   5 0.79067 1.24879   2
   5  13   5 0.03472 0.96951   3
  -5  13  -5 0.22337 1.11674   4
  -5  13  -5 1.82730 1.64423   5
  -5  13  -5 0.80985 1.41955   1
   6 -13   5 13.2268 2.79914   4
  -6 -13  -5 13.4280 3.00451   2
  -6  13  -5 14.4637 2.96228   4
  -6  13  -5 13.3324 2.91327   5
  -6  13  -5 17.9566 3.37390   1
   6  13   5 14.3011 3.24266   3
  -7 -13  -5 2.73478 1.86949   2
   7 -13   5 1.70689 1.67762   4
  -7  13  -5 3.75747 2.23538   1
  -7  13  -5 2.93456 2.08766   5
  -7  13  -5 0.89683 2.15499   4
   7  13   5 6.79519 2.42865   3
   7 -14  -5 8.09605 2.72127   1
   7 -14  -5 10.2325 3.05650   4
  -7 -14   5 4.71826 2.38702   2
  -7  14   5 7.65298 2.22323   5
  -7  14   5 8.33918 2.37067   3
   7  14  -5 5.48378 2.34654   1
   7  14  -5 7.50076 2.23162   5
   6 -14  -5 3.21227 2.02355   1
  -6 -14   5 4.48326 1.82775   2
   6 -14  -5 4.78894 2.35431   4
  -6  14   5 1.44470 1.94632   3
  -6  14   5 7.20848 2.46190   5
   6  14  -5 4.53269 2.25911   5
   6  14  -5 3.18884 2.31170   1
   5 -14  -5 -1.5532 1.55061   4
   5 -14  -5 1.09112 1.31504   1
  -5 -14   5 0.21649 1.06445   2
   5  14  -5 0.97102 1.61095   1
   5  14  -5 4.40379 1.81439   5
  -5  14   5 0.17766 1.12390   5
  -5  14   5 -0.5118 1.10641   3
  -4 -14   5 18.7382 3.03139   2
   4 -14  -5 19.7590 3.16789   1
   4 -14  -5 12.9204 2.72181   4
  -4  14   5 14.2627 2.82293   3
  -4  14   5 15.1922 2.73386   5
   4  14  -5 19.5622 3.53326   1
   4  14  -5 15.9321 3.28938   5
   3 -14  -5 26.8489 3.50610   1
   3 -14  -5 23.5782 3.45585   4
  -3 -14   5 22.3285 3.30633   2
  -3 -14   5 23.1923 3.31420   4
  -3  14   5 26.8730 3.64522   5
   3  14  -5 18.4903 3.65144   1
  -3  14   5 19.8319 3.21147   3
   3  14  -5 20.8693 3.70173   5
  -2 -14   5 -0.2981 0.89196   2
   2 -14  -5 0.55393 1.13158   4
  -2 -14   5 0.67966 0.93484   4
   2  14  -5 -0.9675 1.89891   1
   2  14  -5 0.36039 1.28047   4
   2  14  -5 -0.4911 1.31128   5
  -2  14   5 -0.3835 1.33692   5
  -2  14   5 2.55824 1.98738   3
   1 -14  -5 -0.7839 1.14341   4
  -1 -14   5 0.02037 0.84795   2
  -1 -14   5 0.27299 0.92545   4
  -1  14   5 -1.5622 1.30601   5
   1  14  -5 -0.9023 0.97801   4
   1  14  -5 0.24085 1.93731   5
   1  14  -5 -0.0253 1.35314   1
  -1  14   5 -1.4791 0.98459   3
   0 -14   5 1.48055 1.35826   2
   0 -14   5 2.62348 1.41515   4
   0 -14  -5 4.82491 1.76534   4
   0  14   5 -0.8686 1.69959   3
   0  14  -5 2.42831 2.05718   1
   0  14  -5 3.88502 1.83756   4
   0  14  -5 0.35924 2.10314   5
   0  14   5 0.57134 1.66332   5
   1 -14   5 1.17098 1.18030   4
   1 -14   5 0.78294 1.19646   2
  -1 -14  -5 2.77689 1.46509   4
   1  14   5 -1.3382 1.62686   3
   1  14   5 -2.4740 1.28045   5
  -1  14  -5 -1.9740 0.91927   5
  -1  14  -5 1.50770 1.81789   1
  -1  14  -5 2.48688 1.73943   4
   2 -14   5 33.1540 3.87910   4
   2 -14   5 32.8446 3.89826   2
  -2 -14  -5 41.2945 3.54390   2
  -2  14  -5 38.5646 4.85282   1
   2  14   5 30.1599 3.86314   5
  -2  14  -5 29.8425 4.15180   4
   2  14   5 30.6542 4.27100   3
  -2  14  -5 34.5084 4.35547   5
   3 -14   5 2.07217 1.37045   2
   3 -14   5 -0.0146 1.25017   4
  -3 -14  -5 0.67638 1.35494   2
   3  14   5 1.02741 1.81183   3
  -3  14  -5 0.70823 1.23892   1
  -3  14  -5 -0.2575 1.70725   4
  -3  14  -5 1.39191 1.76674   5
   4 -14   5 3.98907 1.61018   4
   4 -14   5 2.40858 1.50379   2
  -4 -14  -5 3.08775 1.69148   2
  -4  14  -5 2.10220 1.54032   1
   4  14   5 -0.1711 1.25016   3
  -4  14  -5 2.61669 1.80606   5
  -4  14  -5 2.04285 1.47142   4
  -5 -14  -5 1.73832 1.59549   2
   5 -14   5 -0.2437 0.97374   4
  -5  14  -5 -1.2900 1.54067   5
  -5  14  -5 -0.6792 1.05265   4
  -5  14  -5 0.00377 1.83058   1
   5  14   5 1.01713 1.12572   3
  -6 -14  -5 0.37339 1.61672   2
   6 -14   5 5.04516 2.13013   4
  -6  14  -5 2.09792 2.03859   4
   6  14   5 3.60635 1.96862   3
  -6  14  -5 2.69044 1.54101   5
  -6  14  -5 2.13203 2.19024   1
   6 -15  -5 0.52930 1.51558   1
  -6 -15   5 1.30189 1.86453   2
   6 -15  -5 -1.2333 1.97825   4
  -6  15   5 1.97703 1.57404   5
   6  15  -5 -1.4414 1.95585   1
   6  15  -5 2.35445 1.96386   5
  -6  15   5 -0.6667 1.95161   3
  -5 -15   5 10.1291 2.65214   2
   5 -15  -5 3.93151 2.21013   1
   5 -15  -5 6.36516 2.25701   4
  -5  15   5 4.81300 2.42815   3
  -5  15   5 9.47470 2.56901   5
   5  15  -5 4.19132 2.51959   1
   5  15  -5 7.68359 2.56504   5
   4 -15  -5 1.11216 1.64825   1
  -4 -15   5 5.41518 2.06692   2
   4 -15  -5 3.21495 1.78210   4
  -4  15   5 3.92693 1.91383   3
  -4  15   5 2.14139 1.92848   5
   4  15  -5 0.35012 1.81185   1
   4  15  -5 2.23930 1.76746   5
  -3 -15   5 1.27641 1.23434   2
   3 -15  -5 0.03776 1.51289   4
   3 -15  -5 0.96908 1.45620   1
  -3  15   5 -1.1599 1.21665   3
  -3  15   5 0.86449 1.40612   5
   3  15  -5 -3.8219 2.06497   1
   3  15  -5 -3.5221 1.72407   5
  -2 -15   5 -1.1347 1.00907   4
  -2 -15   5 -0.8578 1.23203   2
   2 -15  -5 2.10041 1.74647   4
  -2  15   5 -1.5485 1.74961   3
   2  15  -5 -3.8309 1.54004   1
  -2  15   5 0.07800 1.63211   5
   2  15  -5 -0.6026 1.29459   4
   2  15  -5 0.67270 1.63597   5
  -1 -15   5 -0.0378 1.37732   2
   1 -15  -5 0.64720 1.43077   4
  -1 -15   5 0.60058 0.93599   4
   1  15  -5 -0.3001 0.93393   4
  -1  15   5 -0.3624 1.47893   3
  -1  15   5 3.17232 1.86726   5
   1  15  -5 -0.5985 1.98072   5
   1  15  -5 1.51817 2.26716   1
   0 -15  -5 2.15918 1.53053   4
   0 -15   5 2.89249 1.51351   4
   0 -15   5 0.57894 1.49334   2
   0  15   5 -0.8122 1.99026   3
   0  15  -5 0.04256 1.57368   5
   0  15  -5 -0.1511 1.65388   4
   0  15   5 -1.5113 1.57526   5
   0  15  -5 -0.7748 1.31701   1
   1 -15   5 17.6880 2.82618   2
   1 -15   5 19.3393 3.01902   4
  -1 -15  -5 13.0167 2.47070   4
   1  15   5 11.9167 2.77347   3
   1  15   5 6.20356 2.49712   5
  -1  15  -5 10.3320 2.64544   4
  -1  15  -5 9.99230 2.90109   5
  -1  15  -5 10.0995 2.66577   1
  -2 -15  -5 0.88341 1.27250   2
   2 -15   5 1.08097 1.43547   2
   2 -15   5 3.26897 1.54095   4
  -2  15  -5 1.92690 2.24731   5
   2  15   5 -0.1582 1.43515   3
  -2  15  -5 2.59464 2.15006   1
  -2  15  -5 3.52910 1.70863   4
   3 -15   5 29.3007 3.94723   4
  -3 -15  -5 22.7020 3.38876   2
   3 -15   5 24.0563 3.39903   2
  -3  15  -5 28.0230 4.23635   4
  -3  15  -5 43.7529 5.23361   1
  -3  15  -5 21.5421 3.78408   5
   3  15   5 27.0078 4.20027   3
  -4 -15  -5 2.10578 1.63330   2
   4 -15   5 -1.5689 1.18238   4
  -4  15  -5 0.61249 1.99001   1
   4  15   5 1.22403 1.73712   3
  -4  15  -5 -2.2499 1.55591   5
  -4  15  -5 2.14661 1.54479   4
   5 -15   5 3.74141 1.70575   4
  -5 -15  -5 0.17524 1.41701   2
  -5  15  -5 1.66125 1.47577   4
   5  15   5 1.51400 1.25014   3
  -5  15  -5 -2.0784 1.76941   1
  -5  15  -5 -1.8442 1.73721   5
  -5 -16   5 5.42462 1.91956   2
   5 -16  -5 4.05245 1.99441   4
   5 -16  -5 6.27025 2.29816   1
  -5  16   5 4.48691 2.72475   3
   5  16  -5 7.36077 2.78342   5
   5  16  -5 0.74808 2.46840   1
  -5  16   5 1.47998 1.97044   5
  -4 -16   5 7.22044 2.13248   2
   4 -16  -5 6.27159 2.67482   4
   4 -16  -5 8.95219 2.41416   1
  -4  16   5 5.05060 1.96964   5
  -4  16   5 5.10341 2.60632   3
  -4  16   5 4.41348 1.93222   1
   4  16  -5 7.06652 2.84222   1
   4  16  -5 4.49165 2.63688   5
   3 -16  -5 -0.4521 1.23689   4
  -3 -16   5 -0.5474 1.36963   2
  -3  16   5 -2.9728 1.44801   5
  -3  16   5 -1.4856 2.00493   3
   3  16  -5 -3.0219 2.05437   5
   3  16  -5 -3.7555 2.27750   1
   2 -16  -5 4.50906 1.92637   4
  -2 -16   5 2.57731 1.36303   2
  -2 -16   5 1.80055 1.39729   4
   2  16  -5 4.61019 1.86026   4
   2  16  -5 2.07403 2.63080   5
  -2  16   5 3.74226 2.13969   5
   2  16  -5 0.56360 1.77893   1
  -2  16   5 -1.6780 2.02790   3
  -1 -16   5 -1.3194 1.33719   2
   1 -16  -5 0.32865 1.21811   4
  -1 -16   5 1.22660 1.38606   4
   1  16  -5 -5.2757 1.61810   1
  -1  16   5 -0.0636 2.19380   3
   1  16  -5 -3.6689 1.29523   5
   1  16  -5 -1.3652 0.95473   4
  -1  16   5 -2.0012 1.54738   5
   0 -16   5 6.45037 1.79835   4
   0 -16   5 7.15223 2.18813   2
   0 -16  -5 8.02486 2.44665   4
   0  16   5 6.75521 2.39861   3
   0  16   5 8.59116 2.73260   5
   0  16  -5 6.19178 2.20157   4
   0  16  -5 8.79577 3.05497   1
   0  16  -5 6.60649 2.97328   5
   1 -16   5 0.96067 1.07341   4
   1 -16   5 1.14431 1.31009   2
  -1  16  -5 1.83161 1.46713   4
  -1  16  -5 -0.0944 2.38285   5
   1  16   5 -2.0132 2.21430   3
   1  16   5 -3.6652 1.66159   5
  -1  16  -5 0.66821 2.09083   1
   2 -16   5 2.21915 1.54348   2
   2 -16   5 4.51025 1.70644   4
  -2  16  -5 4.30733 2.52776   5
  -2  16  -5 6.57393 2.30566   1
  -2  16  -5 7.44408 2.19391   4
   2  16   5 4.26838 2.58874   3
   3 -16   5 6.09355 2.26080   4
  -3 -16  -5 4.36317 1.83895   2
   3 -16   5 3.65276 1.75763   2
  -3  16  -5 2.71580 2.25039   1
   3  16   5 2.00303 1.60214   3
  -3  16  -5 3.17450 2.35393   5
  -3  16  -5 4.82884 2.25698   4
   4 -16   5 2.16192 1.94503   4
  -4 -16  -5 1.05435 1.72742   2
  -4  16  -5 0.69598 1.98902   4
  -4  16  -5 -0.0708 2.17810   5
   4  16   5 4.47849 2.27771   3
  -4  16  -5 2.36620 1.74810   1
   3 -17  -5 0.24928 2.17131   4
  -3 -17   5 1.87005 1.46119   2
   3  17  -5 -4.8532 2.56853   1
  -3  17   5 -2.8202 1.92869   3
  -3  17   5 1.32618 1.97940   5
   3  17  -5 0.88089 1.92176   5
  -2 -17   5 0.10319 1.52696   2
   2 -17  -5 1.54274 2.11477   4
  -2  17   5 2.22225 2.28026   5
  -2  17   5 -1.5049 2.26263   3
   2  17  -5 -2.5774 2.27647   1
   2  17  -5 2.05310 2.81374   5
   1 -17  -5 1.99951 2.03676   4
  -1 -17   5 1.36741 1.68152   2
  -1 -17   5 -0.4783 1.51457   4
   1  17  -5 2.31581 2.05619   1
   1  17  -5 -2.9442 2.36902   5
   1  17  -5 -0.1233 1.63308   4
  -1  17   5 -1.2771 2.24390   3
  -1  17   5 0.57929 2.22587   5
   0 -17   5 0.34060 1.27323   4
   0 -17  -5 0.36853 1.80995   4
   0 -17   5 2.76464 1.74610   2
   0  17  -5 -0.9906 1.31140   4
   0  17   5 2.19457 1.95636   3
   0  17  -5 -1.4635 1.74865   5
   0  17  -5 2.19733 1.88901   1
   0  17   5 -3.2301 1.82990   5
   1 -17   5 0.73570 1.18923   4
   1 -17   5 5.04409 1.88127   2
   1  17   5 -5.6571 1.90338   3
  -1  17  -5 2.36314 1.99886   1
  -1  17  -5 -3.8541 1.45953   5
  -1  17  -5 0.67677 1.31285   4
   2 -17   5 1.82602 1.83567   4
   2 -17   5 1.44696 1.25333   2
   2  17   5 -1.6587 1.38610   3
  -2  17  -5 -0.1098 1.80544   4
  -2  17  -5 3.52716 2.60015   1
  -2  17  -5 -2.7515 1.37622   5
  -3  17  -5 12.7282 3.51022   5
  11   0  -6 2.42584 1.81612   1
  11   0  -6 1.21050 1.29997   3
  11   0  -6 3.46418 1.94986   5
 -11   0   6 -0.8918 1.47864   3
  10   0  -6 2.83323 1.90761   1
 -10   0   6 0.41016 1.41639   3
  10   0  -6 -0.1480 1.41208   3
  10   0  -6 -0.1993 1.53736   5
  -9   0   6 -0.8254 1.10243   3
   9   0  -6 1.58528 1.43630   5
   9   0  -6 0.97423 1.62137   1
   9   0  -6 0.77568 1.22627   3
   8   0  -6 134.818 7.79882   4
   8   0  -6 165.664 8.72064   5
   8   0  -6 176.519 8.54776   3
  -8   0   6 161.334 8.23720   3
   8   0  -6 153.229 8.59991   1
   7   0  -6 -0.4818 0.70049   1
   7   0  -6 -0.2041 0.80721   3
  -7   0   6 -0.3575 0.80272   3
   7   0  -6 1.26431 0.92047   4
   7   0  -6 -0.4567 1.05594   5
   6   0  -6 80.0922 4.69113   3
   6   0  -6 86.2997 5.09002   5
   6   0  -6 80.1253 5.23045   1
   6   0  -6 74.0062 4.42580   4
  -6   0   6 77.8283 4.57666   3
   5   0  -6 -1.3906 0.59806   5
  -5   0   6 -0.0073 0.52335   2
   5   0  -6 1.36221 1.14332   1
  -5   0   6 -0.2092 0.50868   3
   5   0  -6 -1.2731 0.55107   4
  -4   0   6 100.739 4.43222   2
  -4   0   6 89.3451 4.46120   3
   4   0  -6 92.2658 4.95326   4
   4   0  -6 85.2718 4.69113   5
   4   0  -6 89.1849 5.21148   1
   3   0  -6 0.42812 0.77779   4
   3   0  -6 -0.5358 0.42696   1
  -3   0   6 -0.3020 0.42476   2
  -3   0   6 0.17665 0.34256   3
   3   0  -6 0.20765 0.50415   5
   2   0  -6 0.39770 0.40239   5
  -2   0   6 0.13793 0.49839   2
   2   0  -6 -0.3368 0.63234   4
   2   0  -6 -0.2569 0.69867   1
  -2   0   6 0.07598 0.37207   3
  -1   0   6 -0.2152 0.38283   3
  -1   0   6 -0.9620 0.39108   2
   1   0  -6 0.36748 0.29162   5
   1   0  -6 -0.3507 0.58830   1
   1   0  -6 0.30789 0.52356   4
   0   0  -6 1570.68 55.4496   1
   0   0   6 1540.88 55.5739   2
   0   0   6 1595.40 54.6650   3
   0   0  -6 1521.31 55.8573   4
  -1   0  -6 0.23532 0.60932   1
  -1   0  -6 -0.3750 0.36711   4
   1   0   6 -0.1509 0.51368   2
   1   0   6 -0.1089 0.37102   3
  -2   0  -6 15.1809 2.01801   4
  -2   0  -6 17.5631 1.84070   1
   2   0   6 17.5128 1.43563   3
   2   0   6 17.5259 2.16216   2
   3   0   6 0.08635 0.53844   2
  -3   0  -6 -0.7865 0.59584   4
   3   0   6 0.46478 0.52391   3
  -3   0  -6 0.79609 0.85279   1
  -3   0  -6 0.97356 0.74209   2
   4   0   6 223.485 9.91146   2
  -4   0  -6 223.180 9.64614   4
   4   0   6 216.907 9.29400   3
  -4   0  -6 189.824 8.96474   1
  -4   0  -6 246.820 10.5314   2
  -5   0  -6 -0.3520 0.75937   2
   5   0   6 0.31533 0.74937   3
   5   0   6 -0.3464 0.76120   2
  -5   0  -6 0.87249 0.81023   4
  -6   0  -6 7.25064 1.53851   4
  -6   0  -6 9.07846 2.13811   2
   6   0   6 5.74624 1.53772   3
   6   0   6 6.43954 1.77915   2
   7   0   6 -0.2770 1.02272   3
   7   0   6 -1.1015 0.98431   2
  -7   0  -6 0.17903 1.08919   2
   8   0   6 28.2292 3.68180   3
  -8   0  -6 24.4962 3.57891   2
   9   0   6 -0.4110 1.21145   3
  -9   0  -6 -0.7744 0.94664   2
 -10   0  -6 26.3785 3.90322   2
  10   0   6 24.0834 3.71208   3
 -11  -1   6 9.59994 2.63662   3
  11  -1  -6 9.93796 2.87576   3
  11  -1  -6 13.8263 3.20665   5
  11  -1  -6 11.3805 2.87624   1
 -11   1   6 11.3472 2.64885   3
  11   1  -6 15.2164 3.22018   3
  11   1  -6 6.87856 2.55912   1
  11   1  -6 13.5282 3.01022   5
  10  -1  -6 0.74968 1.16253   1
 -10  -1   6 -0.3422 1.25583   3
  10  -1  -6 -0.1134 0.96949   3
  10  -1  -6 0.47852 1.61765   5
 -10   1   6 -1.3240 0.85631   3
  10   1  -6 1.59794 1.39494   1
  10   1  -6 -0.5287 1.31780   5
  10   1  -6 1.60876 1.67519   3
   9  -1  -6 0.54176 0.97227   3
   9  -1  -6 5.18496 1.91936   1
  -9  -1   6 -1.4279 0.68693   3
   9  -1  -6 3.11398 1.58089   5
   9   1  -6 1.91134 1.28702   3
  -9   1   6 1.52674 1.16054   3
   9   1  -6 0.13027 1.34808   5
   9   1  -6 2.65639 1.35731   1
   8  -1  -6 11.6886 2.63481   1
   8  -1  -6 7.87141 1.65746   4
  -8  -1   6 6.71329 1.81680   3
   8  -1  -6 8.37509 2.23838   5
   8  -1  -6 7.51264 1.96091   3
   8   1  -6 8.86320 2.21584   1
  -8   1   6 7.39032 1.95969   3
   8   1  -6 8.55445 2.25339   5
   8   1  -6 9.02243 2.11536   3
   7  -1  -6 24.3610 3.04376   3
   7  -1  -6 22.0111 3.02893   5
  -7  -1   6 23.3695 2.80196   3
   7  -1  -6 22.4611 2.69122   4
   7  -1  -6 23.4772 3.33747   1
   7   1  -6 20.7717 2.73002   3
   7   1  -6 19.2573 2.86310   5
   7   1  -6 23.7280 3.32107   1
  -7   1   6 26.3938 3.05859   3
   7   1  -6 26.0531 2.71841   4
  -6  -1   6 2.39653 0.89414   2
  -6  -1   6 0.71443 0.79273   3
   6  -1  -6 0.97106 0.71590   4
   6  -1  -6 4.96545 1.46241   5
   6  -1  -6 0.76964 0.98229   1
   6   1  -6 2.15497 0.99554   3
   6   1  -6 2.79418 1.45323   1
   6   1  -6 1.16367 0.75691   4
   6   1  -6 3.08928 1.13004   5
  -6   1   6 1.76575 0.92199   3
   5  -1  -6 18.5632 2.46938   5
  -5  -1   6 25.7160 1.98277   2
  -5  -1   6 22.5599 2.33853   3
   5  -1  -6 24.2951 2.64889   4
   5  -1  -6 27.6406 3.17878   1
   5   1  -6 22.0816 2.51597   4
  -5   1   6 26.9317 1.79008   2
   5   1  -6 24.6471 2.75601   5
   5   1  -6 28.1366 2.25891   3
   5   1  -6 31.5971 3.43695   1
  -5   1   6 21.0398 2.34227   3
   4  -1  -6 -0.3306 0.58699   5
   4  -1  -6 -0.1988 0.51597   1
  -4  -1   6 0.85781 0.49778   3
   4  -1  -6 -0.6036 0.38685   4
  -4  -1   6 0.06463 0.52309   2
  -4   1   6 -0.1085 0.46509   2
  -4   1   6 -0.1113 0.44118   3
   4   1  -6 0.24933 0.72879   1
   4   1  -6 -0.2890 0.58015   5
   4   1  -6 -0.5508 0.47357   4
   3  -1  -6 17.4438 2.26268   1
  -3  -1   6 22.0993 1.79371   2
  -3  -1   6 23.0411 1.57014   3
   3  -1  -6 22.2111 2.39738   4
   3  -1  -6 19.1811 1.68422   5
   3   1  -6 21.6153 2.38055   4
  -3   1   6 20.4761 1.62493   2
  -3   1   6 22.6271 1.69592   3
   3   1  -6 24.9552 2.71550   1
   3   1  -6 19.6402 1.72416   5
   2  -1  -6 10.0640 1.65931   4
  -2  -1   6 10.2672 0.89188   3
   2  -1  -6 10.1151 1.19380   5
   2  -1  -6 9.42706 1.61569   1
  -2  -1   6 11.5601 1.50562   2
  -2   1   6 10.5699 1.38058   2
   2   1  -6 11.8687 1.86131   1
  -2   1   6 9.89890 1.21951   3
   2   1  -6 9.97891 1.65700   4
   2   1  -6 12.1365 1.35783   5
  -1  -1   6 5.30664 0.68530   3
   1  -1  -6 4.79795 1.16619   4
   1  -1  -6 4.78863 0.62193   5
  -1  -1   6 2.82231 0.92940   2
   1  -1  -6 2.71562 0.96890   1
   1   1  -6 4.24719 0.67260   5
   1   1  -6 2.64700 0.91367   4
   1   1  -6 5.90725 1.33139   1
  -1   1   6 5.03123 1.05555   2
  -1   1   6 5.85400 0.93758   3
   0  -1  -6 0.39810 0.52872   1
   0  -1  -6 0.46916 0.58761   4
   0  -1   6 0.96000 0.38150   3
   0  -1   6 0.41359 0.45468   2
   0   1   6 0.59295 0.46683   2
   0   1  -6 0.70467 0.65934   4
   0   1  -6 -0.0844 0.54187   1
   0   1   6 0.34104 0.52517   3
   0   1  -6 0.53833 0.22085   5
   1  -1   6 101.815 5.21450   2
   1  -1   6 103.846 4.32794   3
  -1  -1  -6 110.442 4.84600   1
  -1  -1  -6 97.8298 5.22003   4
   1   1   6 110.448 4.70305   3
   1   1   6 103.830 5.23056   2
  -1   1  -6 107.897 5.14143   1
  -1   1  -6 96.7955 5.31687   4
  -2  -1  -6 0.26930 0.69637   4
  -2  -1  -6 1.58178 0.71099   1
   2  -1   6 1.50485 0.54361   3
   2  -1   6 2.40236 0.86401   2
  -2  -1  -6 1.53027 0.83482   2
  -2   1  -6 2.59233 1.00225   1
   2   1   6 1.88643 0.76800   2
  -2   1  -6 0.86766 0.78104   4
   2   1   6 2.02678 0.71747   3
   3  -1   6 151.054 6.74378   3
  -3  -1  -6 168.295 7.98867   2
   3  -1   6 160.327 7.55251   2
  -3  -1  -6 169.803 7.44770   4
  -3   1  -6 157.921 7.52267   4
   3   1   6 158.918 7.55857   2
  -3   1  -6 156.682 6.94076   1
   3   1   6 152.968 6.95828   3
   4  -1   6 11.8152 1.68571   3
   4  -1   6 18.1756 2.46852   2
  -4  -1  -6 8.05547 1.86688   2
  -4  -1  -6 13.1387 2.03850   4
  -4   1  -6 16.1493 2.24928   4
   4   1   6 16.3958 2.06292   3
  -4   1  -6 12.5217 1.76916   1
   4   1   6 12.6339 2.03694   2
  -4   1  -6 12.5893 2.35143   2
   5  -1   6 29.9832 3.20742   2
   5  -1   6 29.2729 2.54602   3
  -5  -1  -6 27.6422 3.41552   2
  -5  -1  -6 27.8419 2.77745   4
  -5   1  -6 32.2398 3.70556   2
  -5   1  -6 30.8123 3.15275   4
   5   1   6 31.3642 3.36221   2
   5   1   6 30.8239 2.70815   3
   6  -1   6 18.8159 2.82313   2
  -6  -1  -6 22.7336 3.23151   2
   6  -1   6 22.3244 2.74977   3
  -6  -1  -6 25.9105 2.67456   4
  -6   1  -6 19.0788 2.94920   2
   6   1   6 17.9292 2.58345   3
   6   1   6 23.6308 3.02297   2
  -6   1  -6 20.7426 2.64318   4
   7  -1   6 42.9993 3.66215   3
   7  -1   6 48.8753 3.93496   2
  -7  -1  -6 47.6181 4.12571   2
   7   1   6 51.8972 4.08563   2
   7   1   6 55.6612 4.16315   3
  -7   1  -6 43.8529 4.70360   2
   8  -1   6 17.7971 2.89042   2
   8  -1   6 11.3089 2.29773   3
  -8  -1  -6 14.4495 2.85118   2
  -8   1  -6 11.3851 2.54129   2
   8   1   6 18.0065 2.89072   3
   9  -1   6 0.56805 1.27788   3
  -9  -1  -6 -0.0217 1.44974   2
  -9   1  -6 0.06358 1.38120   2
   9   1   6 1.34078 1.29145   3
 -10  -1  -6 4.59439 2.25430   2
  10  -1   6 6.03314 1.92282   3
 -10   1  -6 6.71855 2.09711   2
  10   1   6 10.1602 2.49424   3
  11  -2  -6 7.95708 2.34107   5
 -11  -2   6 2.77451 2.00835   3
  11  -2  -6 9.06720 2.67881   3
  11  -2  -6 11.7826 2.97119   1
  11   2  -6 9.05977 2.49675   1
  11   2  -6 10.1652 3.03980   5
  11   2  -6 8.48386 2.69545   3
 -11   2   6 6.70880 2.49374   3
  10  -2  -6 1.13140 1.66008   5
  10  -2  -6 1.25219 1.88747   1
 -10  -2   6 0.45901 1.32555   3
  10  -2  -6 1.68843 1.62476   3
 -10   2   6 -0.1787 1.29106   3
  10   2  -6 0.78714 1.27319   1
  10   2  -6 1.07046 1.45764   5
  10   2  -6 1.96223 1.39409   3
   9  -2  -6 5.50351 2.02931   1
   9  -2  -6 7.24089 2.16045   3
  -9  -2   6 4.44753 1.75504   3
   9  -2  -6 5.82910 2.03683   5
   9   2  -6 4.80031 1.87256   3
   9   2  -6 11.0914 2.63517   1
  -9   2   6 3.64330 1.57003   3
   9   2  -6 5.39627 1.89729   5
   8  -2  -6 0.20226 0.91386   4
   8  -2  -6 3.27767 1.69305   1
  -8  -2   6 1.68278 1.19669   3
   8  -2  -6 0.57759 0.94529   5
   8   2  -6 -1.1131 0.98846   5
  -8   2   6 -0.5032 0.64052   3
   8   2  -6 -0.2519 1.24317   1
   8   2  -6 -0.4624 1.07653   3
   7  -2  -6 23.0197 3.17668   5
   7  -2  -6 21.4672 2.65851   4
   7  -2  -6 22.3458 3.32889   1
  -7  -2   6 22.7831 2.75265   3
   7   2  -6 26.0427 2.69400   4
   7   2  -6 24.2443 3.25247   5
   7   2  -6 22.4858 3.24648   1
   7   2  -6 21.1686 2.75114   3
  -7   2   6 21.7554 2.82281   3
  -6  -2   6 -0.7418 0.57217   3
  -6  -2   6 0.24483 0.65038   2
   6  -2  -6 -0.3065 0.57120   4
   6  -2  -6 0.94547 0.96747   5
   6  -2  -6 -0.1959 0.72619   1
   6   2  -6 -0.6736 0.42787   4
  -6   2   6 -0.8570 0.63604   3
   6   2  -6 -1.1948 0.80593   1
   6   2  -6 0.33123 0.74305   3
   6   2  -6 0.38346 0.97938   5
   5  -2  -6 2.83630 1.04701   4
   5  -2  -6 0.63078 1.14107   1
  -5  -2   6 3.13582 0.92656   2
   5  -2  -6 1.90932 1.03191   5
  -5  -2   6 3.77607 1.01045   3
   5   2  -6 2.72507 1.15442   5
  -5   2   6 4.46978 1.18920   3
   5   2  -6 2.09463 1.04899   1
   5   2  -6 3.68305 1.16506   4
   5   2  -6 2.69784 0.88588   3
  -4  -2   6 -0.3081 0.40692   3
   4  -2  -6 -0.2039 0.57985   1
  -4  -2   6 0.47930 0.54443   2
   4  -2  -6 -0.1048 0.57529   5
   4  -2  -6 -0.0149 0.68630   4
   4   2  -6 -0.2791 0.41994   3
  -4   2   6 0.26003 0.44014   2
  -4   2   6 0.98119 0.67771   3
   4   2  -6 0.21295 1.05678   1
   4   2  -6 -0.5598 0.56915   5
   4   2  -6 -0.9943 0.68005   4
  -3  -2   6 44.4103 2.77159   2
   3  -2  -6 42.1118 3.03666   4
  -3  -2   6 44.7010 2.32597   3
   3  -2  -6 48.3366 2.76129   5
   3  -2  -6 38.7600 2.96534   1
   3   2  -6 42.2222 2.98679   4
   3   2  -6 43.5032 3.31012   1
  -3   2   6 45.0800 2.49903   2
   3   2  -6 44.5530 2.79620   5
  -3   2   6 45.0718 2.65814   3
   2  -2  -6 9.73797 1.70558   4
  -2  -2   6 10.9257 1.54671   2
   2  -2  -6 5.42069 1.30037   1
   2  -2  -6 8.67477 1.12028   5
  -2  -2   6 8.98544 0.73923   3
   2   2  -6 9.68073 1.77367   1
  -2   2   6 10.0488 1.27182   3
  -2   2   6 8.02130 1.19568   2
   2   2  -6 8.76885 1.49723   4
   2   2  -6 9.16743 1.24797   5
   1  -2  -6 1.50868 0.83609   1
   1  -2  -6 3.73946 0.57705   5
   1  -2  -6 1.60257 0.82459   4
  -1  -2   6 2.82513 0.40898   3
  -1  -2   6 2.61560 0.82761   2
  -1   2   6 1.92789 0.67597   3
   1   2  -6 1.00491 0.86027   4
   1   2  -6 1.88654 1.10279   1
  -1   2   6 2.45190 0.80288   2
  -1   2   6 2.71129 0.50962   5
   1   2  -6 3.57611 0.66049   5
   0  -2  -6 50.1260 3.21924   4
   0  -2   6 47.6474 3.05159   2
   0  -2   6 47.5987 1.96547   3
   0  -2  -6 49.1093 2.81336   1
   0   2  -6 52.5983 3.39314   4
   0   2  -6 47.9205 3.14142   1
   0   2  -6 53.4335 2.29975   5
   0   2   6 44.6668 2.92379   2
   0   2   6 47.3210 2.72840   3
   1  -2   6 3.54784 0.52749   3
  -1  -2  -6 3.16562 1.04636   4
  -1  -2  -6 2.73880 0.75263   1
   1  -2   6 5.00839 1.22131   2
  -1  -2  -6 1.84633 0.83583   2
  -1   2  -6 3.48087 1.07314   4
  -1   2  -6 3.66598 0.52464   5
  -1   2  -6 2.13528 1.08839   1
   1   2   6 3.32311 0.91818   2
   1   2   6 5.36437 1.04317   3
  -2  -2  -6 3.99175 1.15210   2
  -2  -2  -6 1.06625 0.59904   1
  -2  -2  -6 4.64971 1.07066   4
   2  -2   6 4.19355 1.17525   2
   2  -2   6 2.14556 0.56932   3
  -2   2  -6 2.15655 0.88136   4
  -2   2  -6 2.63176 1.01427   1
  -2   2  -6 1.71073 0.53397   5
   2   2   6 3.72704 0.90350   3
   2   2   6 2.42054 0.84451   2
  -3  -2  -6 20.9390 2.26037   4
  -3  -2  -6 17.8887 2.46511   2
   3  -2   6 13.8895 2.10422   2
   3  -2   6 17.6306 1.53066   3
  -3   2  -6 21.1123 2.22135   1
   3   2   6 22.4105 2.26355   3
  -3   2  -6 18.1147 2.36692   4
   3   2   6 20.1873 2.46037   2
   4  -2   6 22.1807 1.83975   3
   4  -2   6 18.9909 2.51968   2
  -4  -2  -6 18.4835 2.21364   4
  -4  -2  -6 20.1736 2.70163   2
  -4   2  -6 19.4786 2.25639   1
   4   2   6 16.1930 2.17373   3
  -4   2  -6 17.7079 2.31351   4
   4   2   6 15.5730 2.29261   2
  -5  -2  -6 241.253 9.88672   4
   5  -2   6 223.683 10.3718   2
  -5  -2  -6 213.697 10.7224   2
   5  -2   6 224.468 9.91577   3
  -5   2  -6 248.467 9.84167   1
   5   2   6 216.236 10.4684   2
  -5   2  -6 231.477 10.8605   2
  -5   2  -6 236.017 10.4338   4
   5   2   6 229.311 10.2742   3
  -6  -2  -6 49.0890 4.00469   2
   6  -2   6 38.2567 3.22895   3
   6  -2   6 50.0891 3.76010   2
   6   2   6 47.0332 3.77603   2
   6   2   6 45.9513 3.67068   3
  -6   2  -6 51.3924 3.64604   4
  -6   2  -6 43.1154 3.78382   2
   7  -2   6 14.7606 2.56942   2
   7  -2   6 16.7464 2.55949   3
  -7  -2  -6 19.2407 3.07007   2
  -7   2  -6 13.5500 2.62655   2
  -7   2  -6 21.4132 2.76450   4
   7   2   6 20.7433 3.02264   3
   8  -2   6 3.86819 1.47179   2
   8  -2   6 2.12424 1.27439   3
  -8  -2  -6 3.82573 1.75842   2
  -8   2  -6 2.81716 1.39837   2
   8   2   6 2.45934 1.43398   3
  -9  -2  -6 63.5620 5.36224   2
   9  -2   6 66.2700 5.17064   3
   9   2   6 67.7917 5.38139   3
  -9   2  -6 67.2043 5.38015   2
  10  -2   6 7.52287 2.28440   3
 -10  -2  -6 3.95982 2.15143   2
 -10   2  -6 5.84834 2.36231   2
  10   2   6 8.17410 2.44247   3
 -11  -3   6 -0.1977 1.31339   3
  11  -3  -6 -0.2659 1.54859   5
  11  -3  -6 1.91060 2.00706   1
 -11   3   6 -1.6877 1.17734   3
  11   3  -6 1.76964 1.99138   1
  11   3  -6 1.46150 1.82531   3
  11   3  -6 -1.8485 1.14685   5
 -10  -3   6 15.6404 2.99787   3
  10  -3  -6 19.0170 3.41969   5
  10  -3  -6 13.3510 3.07816   1
  10   3  -6 18.3925 3.31496   3
 -10   3   6 15.8695 3.11606   3
  10   3  -6 18.2467 3.30907   1
  10   3  -6 19.1574 3.71215   5
  -9  -3   6 1.66249 1.25068   3
   9  -3  -6 2.62289 1.80641   1
   9  -3  -6 1.98956 1.61155   5
   9   3  -6 -0.1253 1.28037   3
  -9   3   6 1.92921 1.24285   3
   9   3  -6 3.52447 1.76924   1
   9   3  -6 2.73836 1.36800   5
   8  -3  -6 3.60423 1.56424   1
   8  -3  -6 2.59858 1.35442   4
   8  -3  -6 6.14834 1.97891   5
  -8  -3   6 6.27952 1.65230   3
  -8   3   6 5.68682 1.79602   3
   8   3  -6 4.77396 1.56655   3
   8   3  -6 3.67639 1.87224   5
   8   3  -6 5.33610 1.68859   1
   7  -3  -6 53.2962 3.79299   4
   7  -3  -6 50.0587 3.93624   5
   7  -3  -6 50.8876 4.32154   1
  -7  -3   6 53.0218 3.38325   2
  -7  -3   6 49.2443 3.59094   3
   7   3  -6 46.7724 4.14187   1
  -7   3   6 57.3814 4.09994   3
   7   3  -6 50.7586 4.11793   5
   7   3  -6 45.1428 3.59530   3
  -6  -3   6 15.7504 2.08295   3
  -6  -3   6 23.1939 2.30538   2
   6  -3  -6 17.9778 2.89770   1
   6  -3  -6 22.8745 2.89847   5
   6  -3  -6 18.9964 2.46492   4
   6   3  -6 16.7649 2.23202   3
   6   3  -6 20.2736 2.37652   4
   6   3  -6 12.4204 2.36712   1
  -6   3   6 17.9763 2.46327   3
   6   3  -6 22.1103 2.88761   5
   5  -3  -6 23.5109 2.77392   4
  -5  -3   6 28.9444 2.12552   2
  -5  -3   6 18.3104 2.07569   3
   5  -3  -6 23.2104 2.65376   5
   5  -3  -6 21.8013 2.92991   1
   5   3  -6 22.9803 2.53604   4
   5   3  -6 18.3196 2.45840   5
  -5   3   6 22.6710 2.53520   3
   5   3  -6 22.4795 2.32058   3
   5   3  -6 27.3789 3.20618   1
   4  -3  -6 43.7926 3.33930   1
   4  -3  -6 37.9629 2.77353   5
  -4  -3   6 44.3843 2.80369   2
  -4  -3   6 37.2087 2.35839   3
   4  -3  -6 36.9851 2.92670   4
   4   3  -6 36.6633 2.78467   4
   4   3  -6 41.3212 3.37689   1
  -4   3   6 43.2548 2.67170   2
   4   3  -6 41.6653 2.49017   3
   4   3  -6 41.0456 2.91667   5
  -4   3   6 38.9335 2.76977   3
  -3  -3   6 1.98767 0.53905   3
  -3  -3   6 1.21440 0.74894   2
   3  -3  -6 2.54467 1.09236   1
   3  -3  -6 2.34598 1.04584   4
   3  -3  -6 2.38691 0.82109   5
   3   3  -6 2.41711 1.30200   1
   3   3  -6 2.39913 0.86322   5
   3   3  -6 2.63762 1.07960   4
  -3   3   6 2.84637 0.87937   3
  -3   3   6 2.57800 0.65149   2
   2  -3  -6 25.9746 2.24928   1
  -2  -3   6 30.1411 1.47934   3
  -2  -3   6 25.7093 2.15835   2
   2  -3  -6 28.5877 1.81913   5
   2  -3  -6 29.9465 2.44330   4
   2   3  -6 27.0006 1.94223   5
  -2   3   6 26.5802 1.80360   5
  -2   3   6 28.3103 1.94110   2
  -2   3   6 23.6570 1.94143   3
   2   3  -6 28.6966 2.47689   4
   2   3  -6 29.7160 2.54519   1
  -1  -3   6 144.885 6.77911   2
   1  -3  -6 152.724 6.76650   2
   1  -3  -6 150.016 7.01646   4
   1  -3  -6 155.384 6.72173   1
   1  -3  -6 155.156 5.83727   5
   1   3  -6 144.871 7.05837   1
   1   3  -6 154.085 6.20498   5
  -1   3   6 145.300 6.42493   3
  -1   3   6 145.966 6.49894   2
  -1   3   6 149.664 5.88092   5
   1   3  -6 149.655 7.14106   4
   0  -3  -6 1.66356 0.69443   1
   0  -3  -6 1.99172 0.77900   4
   0  -3   6 1.50485 0.70668   2
   0  -3  -6 -0.1526 0.62610   2
   0   3   6 0.87455 0.30286   5
   0   3  -6 1.98622 0.58712   5
   0   3   6 1.59518 0.72926   2
   0   3   6 0.66356 0.56105   3
   0   3  -6 1.49018 1.13515   1
   0   3  -6 1.52493 0.86015   4
  -1  -3  -6 2.98657 0.96949   4
  -1  -3  -6 0.85570 0.67803   2
   1  -3   6 1.31506 0.71975   2
  -1  -3  -6 1.24822 0.54231   1
  -1   3  -6 2.10230 0.90686   1
   1   3   6 0.49414 0.56924   2
  -1   3  -6 2.96028 0.72002   5
  -1   3  -6 1.80303 0.85786   4
   1   3   6 1.74054 0.85822   3
  -2  -3  -6 154.129 5.96083   1
  -2  -3  -6 139.910 7.22245   2
  -2  -3  -6 149.456 6.94638   4
   2  -3   6 153.490 7.17795   2
   2   3   6 142.152 7.01185   2
   2   3   6 161.179 6.81338   3
  -2   3  -6 152.397 7.03491   1
  -2   3  -6 151.279 5.98026   5
  -2   3  -6 147.047 7.34231   4
   3  -3   6 1.13378 0.56896   3
  -3  -3  -6 0.87374 0.98901   2
  -3  -3  -6 1.01423 0.80883   4
   3  -3   6 1.81024 0.97594   2
   3   3   6 2.38958 1.02677   2
  -3   3  -6 0.21564 0.82435   4
  -3   3  -6 1.77377 0.57302   5
  -3   3  -6 1.14063 0.94875   1
   3   3   6 2.65346 0.95451   3
   4  -3   6 53.6503 3.84215   2
  -4  -3  -6 56.6815 3.48410   4
   4  -3   6 50.6801 3.11793   3
  -4  -3  -6 54.6389 4.09560   2
   4   3   6 52.5208 3.56430   3
  -4   3  -6 58.8212 3.69645   1
   4   3   6 61.2510 4.10060   2
  -4   3  -6 62.3667 4.09807   4
  -5  -3  -6 0.00946 0.81884   4
   5  -3   6 0.15054 0.82343   2
   5  -3   6 -0.2584 0.73599   3
  -5  -3  -6 -0.3515 0.85452   2
   5   3   6 0.64892 0.76099   3
   5   3   6 -0.4389 0.80874   2
  -5   3  -6 0.17521 1.16681   4
  -5   3  -6 1.33292 0.96330   1
   6  -3   6 0.81754 0.83169   3
  -6  -3  -6 0.44352 1.07887   2
   6  -3   6 -0.3687 0.89039   2
  -6   3  -6 1.10219 1.09542   4
  -6   3  -6 -0.1840 1.12171   2
   6   3   6 -0.1052 0.90422   3
  -7  -3  -6 0.46046 1.20477   2
   7  -3   6 0.27534 0.88675   2
   7  -3   6 0.13032 0.86105   3
  -7   3  -6 1.58427 1.08438   2
   7   3   6 -0.3361 1.02537   3
  -7   3  -6 1.23821 0.99790   4
  -8  -3  -6 4.31003 1.56102   2
   8  -3   6 6.86081 1.94892   2
   8  -3   6 3.67332 1.40026   3
  -8   3  -6 2.97931 1.68104   2
   8   3   6 2.02976 1.61136   3
  -9  -3  -6 19.8091 3.41469   2
   9  -3   6 18.5695 3.06839   2
   9   3   6 15.6141 2.89280   3
  -9   3  -6 18.6390 3.27383   2
 -10  -3  -6 6.46959 2.28685   2
  10   3   6 5.50549 2.15232   3
 -10   3  -6 3.42949 2.04141   2
  11  -4  -6 1.84652 1.63612   1
  11  -4  -6 -0.7564 1.87513   5
 -11  -4   6 0.77603 1.22284   3
 -11   4   6 0.62587 1.27749   3
  11   4  -6 -0.0168 1.68321   3
  11   4  -6 1.43514 1.77143   5
  11   4  -6 -0.5866 1.75141   1
  10  -4  -6 1.13862 1.84575   1
  10  -4  -6 2.73915 1.59735   5
 -10  -4   6 3.09763 1.70485   3
  10   4  -6 1.78080 1.68805   3
  10   4  -6 5.56161 2.23841   1
 -10   4   6 5.69227 2.18545   3
  10   4  -6 1.32175 1.28086   5
   9  -4  -6 -1.2377 0.88627   1
  -9  -4   6 -0.6293 1.02366   3
   9  -4  -6 -0.6609 1.17634   5
   9  -4  -6 0.00256 1.07024   4
   9   4  -6 0.18889 1.19950   3
   9   4  -6 -0.3503 1.22563   5
  -9   4   6 -0.1592 1.32899   3
   9   4  -6 -0.4181 0.98142   1
   8  -4  -6 65.8515 4.37441   4
   8  -4  -6 64.7945 4.96071   5
   8  -4  -6 56.5939 4.83845   1
  -8  -4   6 54.0415 4.18194   3
   8   4  -6 55.8275 4.65220   5
   8   4  -6 65.3105 5.03121   1
  -8   4   6 61.4242 4.71742   3
   8   4  -6 63.4319 4.49510   3
  -7  -4   6 14.2428 2.16209   3
   7  -4  -6 14.7309 2.54018   5
  -7  -4   6 17.5229 2.20555   2
   7  -4  -6 12.7911 2.66857   1
   7  -4  -6 13.6292 2.35563   4
   7   4  -6 16.1007 2.31993   3
   7   4  -6 15.2967 2.71424   1
  -7   4   6 15.0500 2.54013   3
   7   4  -6 15.4791 2.70094   5
  -6  -4   6 1.74850 0.89803   3
   6  -4  -6 0.78798 0.79384   4
  -6  -4   6 0.36395 0.73720   2
   6  -4  -6 0.92935 1.21710   1
   6  -4  -6 1.29449 1.03755   5
   6   4  -6 0.17523 0.87954   1
   6   4  -6 -0.2825 0.62859   3
  -6   4   6 1.10953 0.85583   3
   6   4  -6 0.32149 0.77278   4
   6   4  -6 0.12330 1.01368   5
  -5  -4   6 1.16408 0.63265   3
   5  -4  -6 0.46255 1.07962   1
   5  -4  -6 0.77126 0.90283   5
  -5  -4   6 0.94258 0.83364   2
   5  -4  -6 0.78550 1.03031   4
   5   4  -6 1.84287 1.11728   5
  -5   4   6 0.95334 0.71974   3
   5   4  -6 1.08444 0.85919   4
   5   4  -6 0.68261 0.62852   3
   5   4  -6 -0.1210 1.13543   1
  -4  -4   6 2.48901 0.75053   3
   4  -4  -6 1.63784 1.09087   1
   4  -4  -6 2.71951 1.00708   4
   4  -4  -6 2.21394 0.91453   5
  -4  -4   6 2.99947 1.03445   2
   4   4  -6 1.89242 0.73375   3
  -4   4   6 1.86320 0.82892   3
   4   4  -6 0.92814 0.71079   5
   4   4  -6 2.62558 1.06630   4
   4   4  -6 2.00611 1.43455   1
   3  -4  -6 118.927 6.26364   1
   3  -4  -6 122.738 5.71495   5
  -3  -4   6 115.213 5.86009   2
   3  -4  -6 125.099 6.32293   4
   3  -4  -6 120.197 5.38249   2
  -3   4   6 130.333 5.31753   2
   3   4  -6 127.041 6.28486   4
   3   4  -6 136.152 6.04537   5
   3   4  -6 131.932 6.71604   1
  -3   4   6 132.309 5.98513   3
  -2  -4   6 5.88626 1.21777   2
   2  -4  -6 6.85251 1.37137   1
   2  -4  -6 6.10214 1.11180   2
   2  -4  -6 5.76107 0.98220   5
   2  -4  -6 7.15027 1.43250   4
  -2   4   6 8.01692 1.32394   3
  -2   4   6 6.37248 1.04690   2
  -2   4   6 6.29257 1.05696   5
   2   4  -6 5.31120 1.35478   4
   2   4  -6 5.11835 1.09963   5
   2   4  -6 5.65494 1.50390   1
   1  -4  -6 5.77388 1.29485   4
   1  -4  -6 3.93883 0.99248   2
   1  -4  -6 5.74282 1.19892   1
  -1  -4   6 3.11110 0.90295   2
   1   4  -6 7.08100 1.10976   5
  -1   4   6 5.50424 1.18763   3
   1   4  -6 2.44443 1.14707   1
  -1   4   6 5.03828 0.78090   5
   1   4  -6 4.15856 1.15103   4
  -1   4   6 6.43595 1.13396   2
   0  -4  -6 67.9652 3.88058   2
   0  -4  -6 67.8382 3.99422   4
   0  -4   6 64.8663 3.83328   2
   0  -4  -6 71.3498 3.50289   1
   0   4  -6 69.5239 3.33413   5
   0   4   6 67.0957 3.69945   2
   0   4  -6 61.5613 4.12757   1
   0   4   6 64.3449 2.85558   5
   0   4  -6 60.5583 4.07372   4
   0   4   6 64.4025 3.64027   3
  -1  -4  -6 21.1016 2.28399   4
   1  -4   6 17.3411 2.15970   2
  -1  -4  -6 14.2334 2.05189   2
  -1  -4  -6 19.3504 1.40219   1
  -1   4  -6 17.3832 1.52080   5
   1   4   6 21.1496 2.17716   3
  -1   4  -6 16.5585 2.21762   4
   1   4   6 22.2025 2.32702   2
  -1   4  -6 20.7598 2.50698   1
  -2  -4  -6 7.87624 1.42437   4
  -2  -4  -6 10.9922 1.89106   2
   2  -4   6 6.42418 1.43672   2
  -2   4  -6 9.80960 1.84979   4
  -2   4  -6 8.00192 1.69688   1
  -2   4  -6 10.9210 1.28615   5
   2   4   6 9.77771 1.64239   2
   2   4   6 8.45516 1.53782   3
  -3  -4  -6 106.498 5.34136   4
  -3  -4  -6 109.651 5.97492   2
   3  -4   6 110.199 5.75864   2
  -3   4  -6 102.712 5.88646   4
   3   4   6 99.0327 5.62014   2
  -3   4  -6 115.501 5.72915   1
  -3   4  -6 110.085 4.76942   5
   3   4   6 98.8867 5.36172   3
  -4  -4  -6 76.2399 4.18217   4
   4  -4   6 80.0666 4.75102   2
  -4  -4  -6 65.9778 4.74762   2
   4   4   6 74.3489 4.48974   3
  -4   4  -6 80.1709 4.87300   4
  -4   4  -6 69.7641 4.32032   5
  -4   4  -6 82.2935 4.61288   1
   5  -4   6 147.673 7.60382   2
  -5  -4  -6 154.037 7.13340   4
  -5  -4  -6 144.220 7.99622   2
  -5   4  -6 157.328 7.96799   4
   5   4   6 152.143 7.73065   3
  -5   4  -6 163.394 7.52123   1
   6  -4   6 -0.6024 0.78491   2
  -6  -4  -6 -0.5436 1.02313   2
  -6   4  -6 -0.0289 0.92534   2
  -6   4  -6 0.73062 1.05737   4
   6   4   6 0.71693 0.86169   3
  -6   4  -6 0.26269 1.00192   1
  -7  -4  -6 2.44224 1.14532   2
   7  -4   6 1.97757 1.36840   2
  -7   4  -6 3.82644 1.47928   4
  -7   4  -6 0.66457 1.47276   2
   7   4   6 2.09531 1.37800   3
   8  -4   6 35.8756 4.02038   2
  -8  -4  -6 34.9064 4.33874   2
  -8   4  -6 31.2709 4.06506   2
   8   4   6 30.0190 3.92200   3
  -9  -4  -6 8.77483 2.56473   2
   9  -4   6 9.30289 2.28441   2
   9   4   6 11.8250 2.84603   3
  -9   4  -6 5.86430 2.10196   2
 -10  -4  -6 1.55336 1.43286   2
 -10   4  -6 -0.0713 1.62358   2
  10   4   6 2.54884 1.70199   3
  11  -5  -6 2.46911 2.24025   1
  11  -5  -6 7.51238 2.78552   5
  11   5  -6 3.45190 2.02369   1
  11   5  -6 3.44890 2.09883   5
 -11   5   6 5.81130 2.44093   3
  10  -5  -6 2.96509 1.83080   5
  10  -5  -6 3.18001 1.76197   1
  10   5  -6 3.29277 2.48262   3
 -10   5   6 1.84680 1.76247   3
  10   5  -6 0.26681 1.72928   5
  10   5  -6 2.38361 1.68200   1
   9  -5  -6 6.81917 1.99273   4
   9  -5  -6 9.60604 2.50581   5
  -9  -5   6 4.35903 2.08411   3
   9  -5  -6 9.42448 2.42352   1
  -9   5   6 6.14984 1.96988   3
   9   5  -6 3.09884 1.67040   5
   9   5  -6 3.16566 1.71254   1
   9   5  -6 3.48994 1.67871   3
   8  -5  -6 1.35388 1.22063   1
   8  -5  -6 5.35750 1.70305   4
   8  -5  -6 2.88116 1.58572   5
  -8  -5   6 0.42981 0.98804   2
  -8   5   6 -0.0734 0.87271   3
   8   5  -6 1.01591 1.17109   3
   8   5  -6 0.52699 1.02082   5
   8   5  -6 2.42839 1.42182   1
   7  -5  -6 17.8947 2.78405   5
   7  -5  -6 20.1745 2.76808   4
  -7  -5   6 21.3546 2.52066   2
   7  -5  -6 16.1325 3.06909   1
  -7   5   6 17.2753 2.69543   3
   7   5  -6 13.6290 2.70424   1
   7   5  -6 18.2102 2.98459   5
   7   5  -6 15.6046 2.31437   3
   6  -5  -6 -0.7738 0.83538   4
   6  -5  -6 -0.9935 0.65663   1
   6  -5  -6 1.42157 0.90407   5
  -6  -5   6 0.13795 0.74251   2
   6   5  -6 -0.0616 0.72886   4
  -6   5   6 -0.2377 0.80179   3
   6   5  -6 -0.1480 0.65796   3
   6   5  -6 -0.1561 0.93879   5
   6   5  -6 0.54566 1.25283   1
  -5  -5   6 30.3123 2.55765   2
   5  -5  -6 27.5105 2.97758   5
   5  -5  -6 28.0406 3.23108   4
   5  -5  -6 32.9205 3.72964   1
   5   5  -6 31.0557 3.33797   5
  -5   5   6 33.5044 2.85326   3
   5   5  -6 27.8717 2.83876   4
   5   5  -6 33.1328 3.68757   1
   4  -5  -6 33.5215 2.66793   5
   4  -5  -6 34.5638 3.11148   1
  -4  -5   6 40.1470 2.89981   2
   4  -5  -6 35.9701 2.96004   4
   4   5  -6 38.8290 2.97319   4
  -4   5   6 33.2529 2.75516   3
  -4   5   6 37.7844 2.83389   5
   4   5  -6 38.8728 2.96004   5
   4   5  -6 43.2192 3.43616   1
   3  -5  -6 0.83959 0.70897   5
   3  -5  -6 1.87894 0.88067   4
  -3  -5   6 0.27644 0.57327   2
   3  -5  -6 -0.0873 0.75689   1
   3   5  -6 1.22859 1.35419   1
  -3   5   6 0.03110 0.50364   3
   3   5  -6 0.34722 0.81647   4
   3   5  -6 0.66776 0.81469   5
  -3   5   6 0.37326 0.64315   5
   2  -5  -6 74.0771 3.65323   5
   2  -5  -6 72.8522 4.46029   4
  -2  -5   6 72.8493 4.22142   2
   2  -5  -6 66.0372 4.10519   1
   2  -5  -6 73.7643 3.75499   2
  -2   5   6 77.3034 3.77902   5
  -2   5   6 74.5442 4.10365   3
   2   5  -6 79.0416 4.06378   5
  -2   5   6 74.2939 3.65286   2
   2   5  -6 77.4794 4.87449   1
   2   5  -6 76.3674 4.46534   4
   1  -5  -6 123.445 5.66936   1
   1  -5  -6 118.128 5.56237   2
   1  -5  -6 119.719 6.00757   4
  -1  -5   6 111.015 5.79595   2
   1   5  -6 115.518 6.22852   1
   1   5  -6 119.955 5.45330   5
   1   5  -6 111.361 6.11014   4
  -1   5   6 113.953 5.39147   2
  -1   5   6 120.984 5.08029   5
  -1   5   6 128.314 5.74544   3
   0  -5   6 5.73800 1.39358   2
   0  -5  -6 4.23448 1.19599   4
   0  -5  -6 5.71139 1.21418   2
   0  -5  -6 6.76005 1.10897   1
   0   5   6 5.91505 1.21075   2
   0   5  -6 7.29991 1.27633   5
   0   5  -6 6.13714 1.58829   4
   0   5  -6 6.60208 1.55336   1
   0   5   6 6.76007 1.31229   3
   0   5   6 9.56466 1.08337   5
  -1  -5  -6 5.32246 0.86656   1
   1  -5   6 7.95007 1.55437   2
  -1  -5  -6 4.12939 1.20575   2
  -1  -5  -6 3.35140 1.09812   4
   1   5   6 3.69165 1.02874   2
   1   5   6 5.37219 1.29939   3
  -1   5  -6 6.93081 1.19785   5
  -1   5  -6 3.37736 1.27338   1
  -1   5  -6 4.79314 1.30161   4
   2  -5   6 -0.8667 0.62038   2
  -2  -5  -6 -0.4660 0.61278   4
  -2  -5  -6 0.74702 0.76400   2
  -2   5  -6 0.63612 0.69989   5
   2   5   6 -0.5733 0.52061   3
  -2   5  -6 0.90738 1.02177   4
  -2   5  -6 -0.2244 0.65482   1
   3  -5   6 1.32045 0.88224   4
  -3  -5  -6 2.22360 0.98495   4
   3  -5   6 1.63876 0.84381   2
  -3  -5  -6 4.01107 1.37602   2
  -3   5  -6 1.91468 0.84581   5
   3   5   6 1.89467 1.08970   3
  -3   5  -6 2.88026 1.14427   4
  -3   5  -6 2.42002 1.20839   1
   4  -5   6 0.20416 0.70724   2
   4  -5   6 3.22693 1.06531   4
  -4  -5  -6 2.20675 1.11526   2
  -4  -5  -6 1.08628 0.84074   4
  -4   5  -6 1.69269 0.85084   5
   4   5   6 0.04882 0.86243   3
  -4   5  -6 2.17822 1.22703   1
  -4   5  -6 3.64619 1.35861   4
   5  -5   6 2.62591 1.00268   4
  -5  -5  -6 2.25874 1.33389   2
   5  -5   6 3.44751 1.38466   2
   5   5   6 3.03547 1.24850   3
  -5   5  -6 4.82330 1.54060   1
  -5   5  -6 3.37001 1.44826   4
  -6  -5  -6 0.54485 1.16663   2
   6  -5   6 0.85566 0.67797   4
   6  -5   6 1.16388 0.99690   2
  -6   5  -6 1.36544 1.15324   1
   6   5   6 0.81131 1.03009   3
  -6   5  -6 2.18494 1.11956   4
   7  -5   6 33.7725 3.29949   4
  -7  -5  -6 26.9824 3.70800   2
   7  -5   6 26.7156 3.34259   2
  -7   5  -6 22.9215 3.24816   4
  -7   5  -6 25.7775 3.61998   2
   7   5   6 25.8877 3.58155   3
   8  -5   6 3.05131 1.55208   2
  -8  -5  -6 2.36905 1.67222   2
  -8   5  -6 2.78224 1.51989   2
   8   5   6 2.49963 1.31276   3
  -8   5  -6 1.20707 1.49564   4
  -9  -5  -6 3.97406 1.85161   2
   9  -5   6 2.73058 1.34967   2
  -9   5  -6 2.97177 1.75540   2
   9   5   6 0.98364 1.71317   3
 -10  -5  -6 19.2937 3.62441   2
  10   5   6 17.2666 3.38385   3
  11  -6  -6 4.23446 2.38376   1
  11  -6  -6 4.77264 2.07527   5
  11   6  -6 5.53811 2.22795   5
  11   6  -6 6.35241 2.45236   1
 -11   6   6 7.96161 2.41928   3
  10  -6  -6 4.27628 1.95634   5
  10  -6  -6 4.00441 2.36011   1
  10   6  -6 3.58169 1.73794   1
 -10   6   6 2.69177 1.56105   3
   9  -6  -6 -1.1453 1.50867   1
   9  -6  -6 -1.0687 1.23176   5
   9  -6  -6 -0.3365 0.89938   4
  -9   6   6 1.13511 1.56642   3
   9   6  -6 0.77552 1.51883   5
   9   6  -6 -0.2637 1.31965   1
   8  -6  -6 35.6988 4.54741   1
  -8  -6   6 34.1424 3.50981   2
   8  -6  -6 33.2756 3.90001   4
   8  -6  -6 37.1795 4.37464   5
   8   6  -6 38.8500 4.46129   5
   8   6  -6 31.5807 4.03955   1
  -8   6   6 33.6467 4.01926   3
   7  -6  -6 5.84352 1.73307   4
   7  -6  -6 4.12376 1.59159   1
  -7  -6   6 7.48587 1.66117   2
   7  -6  -6 2.12991 1.49618   5
  -7   6   6 8.93677 2.17544   3
   7   6  -6 4.82413 1.54428   5
   7   6  -6 2.00403 1.40005   1
   6  -6  -6 9.75428 2.19353   1
  -6  -6   6 15.4248 2.29963   2
   6  -6  -6 14.4904 2.33468   4
   6  -6  -6 13.2468 2.29514   5
  -6   6   6 14.2074 2.35362   3
   6   6  -6 15.6420 2.49014   5
   6   6  -6 12.4017 2.41010   1
   5  -6  -6 17.0930 2.35790   5
   5  -6  -6 25.1417 2.94560   4
   5  -6  -6 23.8312 3.23633   1
  -5  -6   6 19.5838 2.50006   2
   5   6  -6 14.8716 2.38868   5
  -5   6   6 19.5687 2.59314   5
   5   6  -6 20.4375 3.06443   1
  -5   6   6 16.4257 2.40669   3
   5   6  -6 19.7370 2.37237   4
  -4  -6   6 1.02996 0.74677   2
   4  -6  -6 -0.6566 0.99921   4
   4  -6  -6 0.03955 0.84872   5
   4  -6  -6 -0.1578 0.75840   1
  -4   6   6 2.06083 0.96014   3
  -4   6   6 0.40805 0.87476   5
   4   6  -6 2.01901 1.04415   4
   4   6  -6 -0.2985 0.86023   5
   4   6  -6 1.27835 1.21322   1
  -3  -6   6 9.62629 1.65679   2
   3  -6  -6 10.7740 1.62911   5
   3  -6  -6 11.8911 2.08833   4
   3  -6  -6 10.7676 1.93463   1
   3   6  -6 11.8705 1.99025   4
  -3   6   6 11.7642 1.89939   3
  -3   6   6 13.2734 1.81360   5
   3   6  -6 10.9507 2.17387   1
   3   6  -6 9.01631 1.74063   5
  -2  -6   6 152.651 7.08765   2
   2  -6  -6 137.565 6.25825   2
   2  -6  -6 145.336 6.97201   1
   2  -6  -6 155.944 7.32188   4
   2   6  -6 152.743 7.36203   4
  -2   6   6 140.420 6.41835   5
  -2   6   6 151.922 6.91718   3
   2   6  -6 144.662 6.76575   5
   2   6  -6 154.061 7.62725   1
   1  -6  -6 22.0362 1.91449   2
   1  -6  -6 20.9402 2.51367   4
  -1  -6   6 19.0660 2.28652   2
   1  -6  -6 23.9807 2.39911   1
  -1   6   6 18.8905 1.60799   5
   1   6  -6 23.8438 2.37478   5
  -1   6   6 25.2052 2.55663   3
   1   6  -6 17.5351 2.60175   1
   1   6  -6 20.5338 2.57721   4
   0  -6  -6 37.0532 2.93694   4
   0  -6  -6 39.3579 2.78723   2
   0  -6   6 41.9134 2.97075   2
   0  -6  -6 41.4536 2.49850   1
   0   6  -6 36.0774 2.63462   5
   0   6  -6 31.8639 3.39863   4
   0   6   6 40.0495 2.84627   3
   0   6  -6 39.0091 3.22502   1
   0   6   6 36.8530 2.26320   5
   1  -6   6 4.05797 1.13475   2
  -1  -6  -6 2.96359 1.07800   4
  -1  -6  -6 3.53567 1.08127   2
  -1   6  -6 4.40318 1.53334   4
  -1   6  -6 5.38537 1.47773   1
   1   6   6 4.73254 1.38542   3
  -1   6  -6 3.96707 1.09687   5
   2  -6   6 4.14228 1.16826   2
  -2  -6  -6 1.96275 1.01442   2
  -2  -6  -6 2.20422 1.10748   4
   2  -6   6 2.22829 0.88022   4
  -2   6  -6 4.64294 1.15194   5
   2   6   6 2.54586 1.21813   3
  -2   6  -6 3.70261 1.27791   4
  -2   6  -6 3.98813 1.30513   1
   3  -6   6 3.57385 1.30009   2
  -3  -6  -6 6.58775 1.38145   4
   3  -6   6 7.03866 1.43297   4
  -3  -6  -6 3.56886 1.33943   2
   3   6   6 8.22535 1.83213   3
  -3   6  -6 6.78227 1.25616   5
  -3   6  -6 3.07796 1.45150   4
  -3   6  -6 6.15806 1.72398   1
   4  -6   6 68.3821 4.41627   2
  -4  -6  -6 67.6443 3.83398   4
   4  -6   6 65.5724 4.09029   4
  -4  -6  -6 65.4732 4.54310   2
  -4   6  -6 67.0553 3.76973   5
  -4   6  -6 62.3014 4.38931   1
  -4   6  -6 63.9641 4.58705   4
   4   6   6 67.1130 4.46116   3
   5  -6   6 -1.1640 0.67015   4
   5  -6   6 0.02888 0.66446   2
  -5  -6  -6 -0.6082 0.81026   2
  -5   6  -6 -1.4406 1.24423   4
   5   6   6 -0.7095 0.49609   3
  -5   6  -6 0.97329 0.85997   1
   6  -6   6 0.20740 0.71536   2
  -6  -6  -6 -1.3077 0.94424   2
   6  -6   6 0.64939 0.93002   4
  -6   6  -6 0.32969 0.83614   4
  -6   6  -6 -1.7182 0.83485   1
   6   6   6 0.88951 0.89065   3
  -7  -6  -6 3.62885 1.75615   2
   7  -6   6 1.93597 1.06741   4
   7  -6   6 1.18338 0.88964   2
  -7   6  -6 1.65691 1.39122   1
   7   6   6 0.08803 0.79734   3
  -7   6  -6 0.10680 1.22354   4
  -7   6  -6 -1.0667 0.56960   2
   8  -6   6 27.6801 3.14010   4
  -8  -6  -6 22.4045 3.41352   2
   8  -6   6 13.4660 2.55586   2
  -8   6  -6 13.2599 2.62003   4
   8   6   6 21.9529 3.55414   3
  -8   6  -6 16.8474 2.99857   2
  -9  -6  -6 19.8928 3.41159   2
   9  -6   6 29.8031 3.80283   2
   9   6   6 20.4973 3.51180   3
  -9   6  -6 24.4888 3.77944   2
 -10  -6  -6 7.08168 2.69549   2
  10   6   6 4.25390 2.28873   3
  10  -7  -6 23.5604 4.20393   1
  10  -7  -6 19.8178 3.49052   4
  10  -7  -6 19.6387 3.77509   5
  10   7  -6 18.1090 3.26511   1
  10   7  -6 19.3638 3.58078   5
 -10   7   6 17.7970 3.50702   3
  -9  -7   6 3.23244 1.53902   2
   9  -7  -6 2.20062 1.81532   5
   9  -7  -6 3.20013 1.49200   4
   9  -7  -6 3.10960 2.14487   1
  -9   7   6 4.58281 1.76838   3
   9   7  -6 1.47748 1.27596   5
   9   7  -6 1.31794 1.58806   1
  -8  -7   6 0.04254 1.05418   2
   8  -7  -6 0.28395 1.76561   1
   8  -7  -6 1.20609 1.18833   5
   8  -7  -6 0.53631 1.00935   4
  -8   7   6 -0.1247 0.90295   3
   8   7  -6 -0.6906 0.70242   5
   8   7  -6 -0.1234 1.32464   1
  -8   7   6 1.14218 1.16515   5
  -7  -7   6 0.76206 0.99356   2
   7  -7  -6 0.92082 1.46944   1
   7  -7  -6 1.10893 0.98551   5
   7  -7  -6 1.52562 1.15519   4
  -7   7   6 1.29473 1.09499   3
   7   7  -6 0.92981 1.21995   1
  -7   7   6 3.63270 1.57355   5
   7   7  -6 -0.6551 1.00436   5
   6  -7  -6 6.76817 1.71199   4
   6  -7  -6 7.31334 1.80770   5
  -6  -7   6 5.08548 1.57142   2
   6  -7  -6 6.15446 1.88299   1
   6   7  -6 5.08432 1.61974   5
  -6   7   6 4.54106 1.67110   3
  -6   7   6 8.50356 1.94932   5
   6   7  -6 7.85531 2.02097   1
  -5  -7   6 32.6893 3.30925   2
   5  -7  -6 37.9341 4.08482   1
   5  -7  -6 33.4824 3.60116   4
   5  -7  -6 36.5378 3.07602   5
   5   7  -6 35.1952 3.74894   5
  -5   7   6 30.4712 3.46565   5
  -5   7   6 30.4882 3.31630   3
   5   7  -6 33.0810 3.86278   1
   5   7  -6 30.8515 3.09662   4
  -4  -7   6 6.63046 1.52179   2
   4  -7  -6 1.63051 0.86019   5
   4  -7  -6 3.42095 1.43149   4
   4  -7  -6 3.02876 1.39090   1
   4   7  -6 3.08895 1.22181   4
  -4   7   6 3.01300 1.12101   5
  -4   7   6 4.68627 1.44722   3
   4   7  -6 1.40902 1.29793   1
   4   7  -6 3.47010 1.41114   5
   3  -7  -6 16.7930 2.38479   1
   3  -7  -6 12.1385 2.08810   4
   3  -7  -6 14.1813 1.92375   5
  -3  -7   6 10.3343 1.93509   2
   3   7  -6 16.3750 2.65079   1
   3   7  -6 13.7029 2.17495   4
  -3   7   6 13.3149 1.88901   5
   3   7  -6 15.3395 2.20946   5
  -3   7   6 12.2046 2.04338   3
   2  -7  -6 220.865 9.89229   4
   2  -7  -6 219.832 9.53557   1
  -2  -7   6 235.736 9.78928   2
   2   7  -6 199.390 9.69592   4
   2   7  -6 209.362 10.1292   1
  -2   7   6 208.027 9.00231   5
  -2   7   6 216.195 9.49327   3
   2   7  -6 221.360 9.42378   5
  -1  -7   6 66.0423 4.06438   2
   1  -7  -6 63.5762 3.58934   2
   1  -7  -6 67.5387 3.81170   1
   1  -7  -6 68.7681 4.20165   4
   1   7  -6 64.2768 3.93515   5
  -1   7   6 60.0787 3.40840   5
   1   7  -6 62.4984 4.45648   1
   1   7  -6 67.8671 4.46012   4
  -1   7   6 70.7237 4.09024   3
   0  -7  -6 7.07339 1.44462   4
   0  -7  -6 6.43083 1.35810   2
   0  -7  -6 9.65993 1.35554   1
   0  -7   6 9.47797 1.70317   2
   0   7   6 7.33043 1.27208   5
   0   7  -6 7.80443 1.61057   5
   0   7   6 8.55775 1.62142   3
   0   7  -6 6.46245 1.68805   1
   0   7  -6 7.73969 1.85382   4
  -1  -7  -6 81.9300 4.64705   4
   1  -7   6 78.2272 4.65897   2
   1  -7   6 75.0912 4.46616   4
  -1  -7  -6 84.8251 4.68080   2
  -1   7  -6 80.6985 5.03849   1
  -1   7  -6 79.1853 5.06321   4
   1   7   6 79.3777 4.74985   3
  -1   7  -6 84.6842 4.48544   5
  -2  -7  -6 10.7590 1.92792   2
   2  -7   6 15.3574 2.22267   2
  -2  -7  -6 14.2342 1.98087   4
   2  -7   6 18.4175 2.24859   4
  -2   7  -6 12.5143 1.81294   5
   2   7   6 15.8702 2.40565   3
  -2   7  -6 13.3126 2.32361   4
  -2   7  -6 14.1746 2.47180   1
   3  -7   6 5.80049 1.34778   4
  -3  -7  -6 5.15454 1.49403   2
   3  -7   6 7.76957 1.67665   2
  -3  -7  -6 6.61347 1.37331   4
   3   7   6 6.01793 1.66253   3
  -3   7  -6 3.56076 1.16406   5
  -3   7  -6 4.46711 1.45227   4
  -3   7  -6 5.07306 1.69152   1
   4  -7   6 70.9221 4.36935   4
   4  -7   6 69.8780 4.57705   2
  -4  -7  -6 64.5391 4.01661   4
  -4  -7  -6 70.2105 4.83542   2
   4   7   6 72.8741 4.79596   3
  -4   7  -6 68.2686 4.87200   4
  -4   7  -6 68.0436 4.00936   5
  -4   7  -6 70.4857 4.77997   1
   5  -7   6 15.6814 2.36621   4
   5  -7   6 17.2142 2.56155   2
  -5  -7  -6 19.0592 2.88549   2
   5   7   6 18.5473 2.80593   3
  -5   7  -6 16.6200 2.81860   4
  -5   7  -6 18.9131 2.37537   5
  -5   7  -6 13.2406 2.36125   1
   6  -7   6 -0.0471 0.93491   4
   6  -7   6 -0.2354 0.71264   2
  -6  -7  -6 0.08778 0.77868   2
  -6   7  -6 -0.4422 1.07391   4
  -6   7  -6 -0.6743 1.00997   1
   6   7   6 -0.2649 0.73166   3
  -7  -7  -6 0.51311 0.96926   2
   7  -7   6 0.68501 0.88337   4
   7  -7   6 0.16676 0.76322   2
  -7   7  -6 1.15682 1.07137   2
  -7   7  -6 1.01672 1.46261   1
   7   7   6 0.09247 0.79875   3
  -7   7  -6 0.70095 1.33744   4
   8  -7   6 3.27937 1.43732   4
   8  -7   6 2.07616 1.42936   2
  -8  -7  -6 2.16139 1.78801   2
  -8   7  -6 2.55821 1.74448   4
  -8   7  -6 4.85130 2.00531   2
   8   7   6 1.33096 1.52062   3
  -9  -7  -6 10.9414 2.91853   2
   9   7   6 6.41037 2.09777   3
  10  -8  -6 3.21163 2.34105   5
  10  -8  -6 3.19025 1.93276   1
  10  -8  -6 0.90877 1.55248   4
  10   8  -6 5.08979 1.90480   5
 -10   8   6 1.39408 1.86995   5
  10   8  -6 7.88208 2.16521   1
 -10   8   6 -0.5913 1.12608   3
   9  -8  -6 6.32255 1.92287   4
   9  -8  -6 3.92066 1.81453   1
  -9  -8   6 2.38601 1.66048   2
   9  -8  -6 2.92439 1.92843   5
   9   8  -6 3.44757 1.66873   5
  -9   8   6 4.11977 1.99445   5
  -9   8   6 4.31983 2.11254   3
   9   8  -6 2.08694 1.75770   1
   8  -8  -6 0.72068 1.51298   5
   8  -8  -6 -0.0245 1.43898   1
  -8  -8   6 0.64768 1.24846   2
   8  -8  -6 -0.8659 0.81444   4
   8   8  -6 2.16168 1.67322   1
   8   8  -6 2.43681 1.34071   5
  -8   8   6 -0.1696 1.47270   5
  -8   8   6 -0.0485 1.40840   3
   7  -8  -6 15.6548 2.70981   4
   7  -8  -6 11.2801 2.30666   5
  -7  -8   6 11.9640 2.22428   2
   7  -8  -6 17.5129 3.33274   1
   7   8  -6 12.6869 2.58539   5
   7   8  -6 14.4846 2.84191   1
  -7   8   6 17.2974 2.98498   5
  -7   8   6 12.3566 2.52988   3
   6  -8  -6 2.80949 1.54541   5
   6  -8  -6 1.33407 1.44102   4
   6  -8  -6 0.76074 1.50554   1
  -6  -8   6 3.90108 1.50282   2
  -6   8   6 1.99538 1.39584   5
   6   8  -6 2.58988 1.26385   5
   6   8  -6 2.64637 1.46862   1
  -6   8   6 1.90512 1.09600   3
  -5  -8   6 18.7466 2.56666   2
   5  -8  -6 15.1266 2.82291   1
   5  -8  -6 15.3741 2.29659   5
   5  -8  -6 13.9633 2.50839   4
   5   8  -6 17.9907 2.70963   5
  -5   8   6 18.3491 2.64109   3
  -5   8   6 15.1240 2.42331   5
   5   8  -6 15.2405 2.19312   4
   5   8  -6 15.4605 2.85837   1
   4  -8  -6 1.10556 0.95299   4
  -4  -8   6 0.94666 0.85610   2
   4  -8  -6 0.08515 1.24828   1
   4  -8  -6 2.35931 1.14120   5
  -4   8   6 0.46787 0.94865   5
  -4   8   6 0.57698 1.10020   3
   4   8  -6 0.84157 1.24526   1
   4   8  -6 0.01467 0.97255   4
   4   8  -6 2.08640 1.22418   5
   3  -8  -6 218.362 10.0958   4
   3  -8  -6 207.987 9.78897   1
  -3  -8   6 208.599 9.71101   2
   3   8  -6 225.521 9.97344   4
   3   8  -6 194.664 10.1817   1
   3   8  -6 220.304 9.81968   5
  -3   8   6 228.303 9.94102   3
  -3   8   6 228.677 9.61283   5
   2  -8  -6 64.2029 3.96365   1
  -2  -8   6 61.1845 4.06063   2
   2  -8  -6 63.9058 4.37655   4
   2   8  -6 59.5916 4.08268   5
   2   8  -6 65.9060 4.42525   4
   2   8  -6 63.1085 4.63377   1
  -2   8   6 65.8323 3.76276   5
  -2   8   6 65.3961 4.12313   3
  -1  -8   6 102.201 5.77964   2
   1  -8  -6 107.242 5.21955   2
   1  -8  -6 123.214 6.19519   4
   1  -8  -6 113.014 5.50156   1
  -1   8   6 99.1531 5.12657   5
   1   8  -6 105.381 6.30404   1
   1   8  -6 103.541 6.05670   4
   1   8  -6 111.043 5.78115   5
  -1   8   6 116.066 5.96016   3
   0  -8   6 25.7049 2.72918   4
   0  -8  -6 30.9196 3.08488   4
   0  -8  -6 24.5813 2.56991   2
   0  -8   6 25.2772 2.89112   2
   0   8  -6 27.2808 3.33088   1
   0   8  -6 28.9392 2.97543   5
   0   8   6 29.6167 3.08995   3
   0   8   6 22.8452 2.03663   5
   0   8  -6 29.6673 3.38247   4
   1  -8   6 63.4137 4.11903   2
  -1  -8  -6 63.7705 4.01075   2
   1  -8   6 57.7923 3.88458   4
  -1  -8  -6 67.4372 4.17490   4
  -1   8  -6 65.2537 3.99195   5
   1   8   6 63.3770 4.27692   3
  -1   8  -6 65.3254 4.69644   1
  -1   8  -6 64.3780 4.54142   4
   2  -8   6 4.95878 1.36125   2
  -2  -8  -6 4.82149 1.32734   2
  -2  -8  -6 7.17494 1.45497   4
   2  -8   6 6.78760 1.47005   4
  -2   8  -6 6.40364 1.75477   1
  -2   8  -6 6.52422 1.59909   4
  -2   8  -6 4.75080 1.45423   5
   2   8   6 4.62996 1.70054   3
  -3  -8  -6 11.8979 1.84963   4
   3  -8   6 10.1463 1.90115   2
   3  -8   6 13.2845 2.03699   4
  -3  -8  -6 16.1213 2.41912   2
  -3   8  -6 14.1984 2.11727   5
  -3   8  -6 8.62797 1.97905   4
  -3   8  -6 11.7512 2.23186   1
   3   8   6 11.6994 2.12962   3
   4  -8   6 0.77180 1.06053   2
  -4  -8  -6 2.21683 1.26776   2
   4  -8   6 -0.0852 0.60844   4
  -4   8  -6 1.81646 1.21610   4
   4   8   6 -0.0224 1.04271   3
  -4   8  -6 1.14011 0.93951   5
  -4   8  -6 0.19601 1.08131   1
  -5  -8  -6 29.5648 3.59331   2
   5  -8   6 26.1489 3.22769   2
   5  -8   6 24.7693 3.03048   4
  -5   8  -6 23.8248 3.27867   1
  -5   8  -6 24.7637 3.50737   4
   5   8   6 36.8201 3.99759   3
  -5   8  -6 33.0525 2.77365   5
   6  -8   6 0.12021 0.63581   4
   6  -8   6 -0.2747 0.90369   2
  -6  -8  -6 0.07541 0.94660   2
  -6   8  -6 -0.8114 1.12234   1
  -6   8  -6 0.19011 0.93595   4
   6   8   6 -0.8814 0.56704   3
  -7  -8  -6 1.87437 1.49691   2
   7  -8   6 2.77728 1.40039   4
   7  -8   6 3.58237 1.29220   2
  -7   8  -6 1.65806 1.61380   4
  -7   8  -6 1.77039 1.55217   1
   7   8   6 4.29673 1.59913   3
   8  -8   6 2.10429 1.38686   2
  -8  -8  -6 3.50012 1.72574   2
   8  -8   6 1.17339 1.02679   4
  -8   8  -6 2.73351 1.63453   2
  -8   8  -6 1.93993 1.35267   4
   8   8   6 5.77130 2.01998   3
  -8   8  -6 1.64476 1.90500   1
  -9  -8  -6 12.7173 3.05527   2
   9   8   6 13.6266 3.04096   3
  10  -9  -6 2.05713 2.33691   5
  10  -9  -6 6.32067 2.20598   4
 -10  -9   6 5.36377 2.55039   2
  10   9  -6 4.63922 2.01727   1
  10   9  -6 2.94332 1.67161   5
 -10   9   6 3.58170 2.20174   5
 -10   9   6 4.70204 2.72588   3
   9  -9  -6 9.95775 2.48130   4
  -9  -9   6 12.5274 2.56020   2
   9  -9  -6 7.64133 2.70112   5
   9  -9  -6 7.14127 2.80721   1
   9   9  -6 12.2004 2.86215   1
  -9   9   6 4.70785 1.94104   3
   9   9  -6 5.81497 2.14563   5
  -9   9   6 9.39437 2.91029   5
   8  -9  -6 1.29193 1.49058   4
   8  -9  -6 1.91312 1.66040   1
   8  -9  -6 0.77180 1.60348   5
  -8  -9   6 1.69714 1.35472   2
   8   9  -6 1.37355 1.39238   5
  -8   9   6 -0.4968 1.02870   3
   8   9  -6 -1.5814 1.26760   1
  -8   9   6 1.07466 1.38988   5
   7  -9  -6 15.6660 2.87713   5
  -7  -9   6 8.40586 1.96718   2
   7  -9  -6 10.1965 2.62748   1
   7  -9  -6 6.36610 2.11633   4
  -7   9   6 8.23496 2.11206   5
   7   9  -6 6.27406 2.02606   1
  -7   9   6 7.32356 2.02458   3
   7   9  -6 13.9063 2.65859   5
   6  -9  -6 0.83904 1.34982   1
  -6  -9   6 0.56186 1.16658   2
   6  -9  -6 0.53667 1.07187   4
   6  -9  -6 1.50088 1.31782   5
   6   9  -6 1.13884 1.28857   5
   6   9  -6 -0.3589 1.08637   1
  -6   9   6 0.30584 1.04229   5
  -6   9   6 -1.0342 1.17315   3
  -5  -9   6 2.67222 1.34798   2
   5  -9  -6 2.19099 1.35095   5
   5  -9  -6 2.20889 1.47123   4
   5  -9  -6 1.87980 1.41879   1
   5   9  -6 3.62941 1.32744   5
  -5   9   6 5.83850 1.81542   3
  -5   9   6 6.15860 1.81578   5
   5   9  -6 4.00663 1.76436   1
  -4  -9   6 28.8204 3.17220   2
   4  -9  -6 24.8367 3.20341   1
   4  -9  -6 23.1705 2.82128   5
   4  -9  -6 25.9466 3.27708   4
  -4   9   6 22.6502 2.85413   3
   4   9  -6 23.8389 3.39725   1
  -4   9   6 24.6101 2.97112   5
   4   9  -6 17.7322 2.50985   4
   4   9  -6 30.2969 3.48729   5
  -3  -9   6 1.66799 1.23333   2
   3  -9  -6 -0.0452 0.80855   1
   3  -9  -6 -0.0884 0.85004   4
   3   9  -6 -0.7718 1.01957   1
   3   9  -6 -0.2545 0.75471   5
  -3   9   6 -0.0696 0.78068   5
  -3   9   6 -1.0940 0.92234   3
   3   9  -6 -0.0001 0.74580   4
   2  -9  -6 36.3590 3.67601   4
  -2  -9   6 30.8624 3.31454   2
   2  -9  -6 34.5244 2.82659   1
  -2   9   6 29.1569 2.51561   5
   2   9  -6 34.5408 3.57316   5
  -2   9   6 27.9360 3.15172   3
   2   9  -6 30.9270 3.77971   1
   2   9  -6 25.0644 3.20233   4
  -1  -9   6 53.1398 3.88437   2
  -1  -9   6 63.0308 3.89441   4
   1  -9  -6 58.9763 3.64791   1
   1  -9  -6 62.5559 4.16980   4
  -1   9   6 60.3690 3.62906   5
   1   9  -6 66.3018 4.27750   5
   1   9  -6 60.9080 4.78277   1
  -1   9   6 54.2789 3.93937   3
   1   9  -6 59.3137 4.29659   4
   0  -9   6 66.7290 4.44893   2
   0  -9  -6 69.5009 4.49900   4
   0  -9  -6 68.6106 4.07440   2
   0  -9   6 71.4889 4.39183   4
   0   9   6 67.2706 4.43816   3
   0   9  -6 74.1653 5.03332   1
   0   9  -6 71.1802 4.49299   5
   0   9   6 65.9964 3.95484   5
   0   9  -6 68.1542 4.85913   4
   1  -9   6 0.97225 0.84910   4
  -1  -9  -6 -0.5412 0.49099   4
   1  -9   6 0.68160 0.91316   2
  -1  -9  -6 -0.0219 0.59821   2
  -1   9  -6 0.00703 1.31654   1
   1   9   6 1.43650 1.37309   3
  -1   9  -6 -0.7083 0.92046   5
  -1   9  -6 -0.2173 0.79168   4
   2  -9   6 1.09898 0.81885   4
  -2  -9  -6 1.83107 1.04930   4
  -2  -9  -6 0.96477 1.03659   2
   2  -9   6 0.15619 0.67242   2
  -2   9  -6 0.35748 0.91975   4
   2   9   6 0.86766 1.10182   3
  -2   9  -6 1.53683 1.23770   5
  -2   9  -6 -0.2048 0.84390   1
   3  -9   6 -0.8659 0.82530   4
  -3  -9  -6 -1.2958 0.88596   2
   3  -9   6 0.74691 1.01817   2
  -3  -9  -6 0.61961 0.81145   4
   3   9   6 -0.5389 1.12893   3
  -3   9  -6 -0.7835 0.84615   5
  -3   9  -6 -0.4069 0.85425   1
  -3   9  -6 -0.1043 1.13468   4
   4  -9   6 32.8826 3.50222   4
   4  -9   6 27.5710 3.38126   2
  -4  -9  -6 32.7333 3.75085   2
  -4   9  -6 32.1687 3.36445   5
  -4   9  -6 34.0304 3.99987   4
   4   9   6 34.0572 3.76956   3
  -4   9  -6 32.7462 3.98229   1
   5  -9   6 2.40656 1.16593   4
   5  -9   6 3.61171 1.47473   2
  -5  -9  -6 -0.1397 0.89574   2
  -5   9  -6 0.43247 1.08488   4
  -5   9  -6 2.24346 1.32452   1
   5   9   6 2.39333 1.46686   3
  -5   9  -6 2.54493 1.30764   5
   6  -9   6 8.98961 1.99423   4
  -6  -9  -6 7.91466 2.32930   2
   6  -9   6 9.98480 2.06685   2
  -6   9  -6 6.07304 1.83583   1
  -6   9  -6 4.71105 1.81588   4
   6   9   6 7.30234 2.10245   3
   7  -9   6 4.14391 1.63400   4
   7  -9   6 3.96930 1.57767   2
  -7  -9  -6 4.74560 2.05864   2
   7   9   6 6.69591 2.09201   3
  -7   9  -6 5.58800 2.16201   1
  -7   9  -6 4.58791 2.08941   4
   8  -9   6 2.87221 1.62882   4
  -8  -9  -6 5.41108 2.31994   2
  -8   9  -6 7.12449 2.39342   4
   8   9   6 5.86374 1.96136   3
  -8   9  -6 4.44189 2.19175   1
  -9   9  -6 2.32124 2.17088   4
   9   9   6 5.68467 2.42750   3
   9 -10  -6 5.73733 2.19864   4
   9 -10  -6 10.0131 2.98661   1
  -9 -10   6 10.7762 2.59920   2
   9 -10  -6 8.22634 2.74111   5
  -9  10   6 8.45021 2.55111   3
   9  10  -6 8.63144 2.29507   1
  -9  10   6 10.4673 3.07273   5
   9  10  -6 13.1658 2.79122   5
  -8 -10   6 4.71829 1.69348   2
   8 -10  -6 4.24941 1.83551   1
   8 -10  -6 6.08734 2.19749   5
   8 -10  -6 4.66464 2.28785   4
   8  10  -6 8.45332 2.31542   5
   8  10  -6 6.68596 2.19845   1
  -8  10   6 5.00990 2.03397   3
  -8  10   6 6.91715 2.05084   5
   7 -10  -6 12.6367 2.92133   1
   7 -10  -6 10.3616 2.40833   4
   7 -10  -6 10.9925 2.60773   5
  -7 -10   6 12.4768 2.46462   2
  -7  10   6 13.4512 2.79515   3
  -7  10   6 9.66218 2.31341   5
   7  10  -6 14.4004 2.93548   1
   7  10  -6 12.9920 2.72292   5
   6 -10  -6 2.38998 1.58700   1
   6 -10  -6 -0.7807 1.12093   5
  -6 -10   6 0.73301 1.30272   2
   6 -10  -6 -0.1920 1.39630   4
  -6  10   6 -1.0623 0.69989   3
   6  10  -6 3.17810 1.55514   5
   6  10  -6 0.20259 1.51289   1
  -6  10   6 1.30966 1.32691   5
  -5 -10   6 5.99393 1.79060   2
   5 -10  -6 5.81554 1.79073   5
   5 -10  -6 1.44184 1.38003   1
   5 -10  -6 6.22188 1.77475   4
   5  10  -6 5.14146 2.34380   1
  -5  10   6 0.63896 1.25461   5
  -5  10   6 3.11971 1.46908   3
   5  10  -6 3.82009 1.51931   5
  -4 -10   6 20.4639 2.79407   2
   4 -10  -6 19.9634 2.97625   4
   4 -10  -6 18.8269 2.90784   1
  -4  10   6 18.8843 2.75228   3
   4  10  -6 15.2636 2.46906   4
   4  10  -6 16.5651 3.23026   1
  -4  10   6 18.4323 2.67771   5
   4  10  -6 20.4985 2.95895   5
  -3 -10   6 -0.0683 1.06478   2
   3 -10  -6 0.63828 1.34270   4
   3 -10  -6 1.08509 1.11481   1
  -3  10   6 1.94512 1.22505   3
   3  10  -6 -1.9593 1.66061   1
   3  10  -6 -0.6849 0.94145   4
   3  10  -6 0.11006 1.24627   5
  -3  10   6 -0.7902 0.83145   5
   2 -10  -6 -0.1063 0.85646   4
   2 -10  -6 0.01555 0.90609   1
  -2 -10   6 1.38466 1.19994   2
   2  10  -6 0.96143 1.13685   5
  -2  10   6 0.45851 1.35478   3
   2  10  -6 1.10446 1.72596   1
  -2  10   6 -0.3194 0.80538   5
   2  10  -6 0.17566 1.15808   4
  -1 -10   6 15.6017 2.25087   4
  -1 -10   6 12.7573 2.29999   2
   1 -10  -6 14.2900 2.33587   4
   1 -10  -6 14.3157 2.35172   1
   1  10  -6 14.4407 2.56925   5
  -1  10   6 16.3711 2.18519   5
   1  10  -6 12.6752 2.60380   1
  -1  10   6 12.8571 2.26329   3
   1  10  -6 16.6576 2.73768   4
   0 -10  -6 58.2239 4.22601   4
   0 -10   6 69.7546 4.32395   4
   0 -10  -6 60.9346 3.81782   2
   0 -10   6 56.9509 4.06885   2
   0  10  -6 58.0625 4.26666   5
   0  10   6 54.9671 4.15257   3
   0  10  -6 55.1168 4.52380   4
   0  10  -6 57.3816 4.81400   1
   0  10   6 66.9441 3.90497   5
  -1 -10  -6 6.07520 1.51554   2
   1 -10   6 3.58255 1.38359   4
  -1 -10  -6 4.17931 1.49021   4
   1 -10   6 4.61122 1.59188   2
  -1  10  -6 6.75983 1.83540   5
   1  10   6 3.74962 1.77531   3
  -1  10  -6 1.45273 1.32895   1
  -1  10  -6 4.86218 1.76385   4
  -2 -10  -6 1.13141 0.85893   2
   2 -10   6 -0.3589 0.95467   2
  -2 -10  -6 -0.8755 0.83252   4
   2 -10   6 0.76244 1.03649   4
  -2  10  -6 -0.5734 0.97367   5
   2  10   6 -0.0795 1.05770   3
  -2  10  -6 -0.1014 1.29291   4
  -2  10  -6 -0.0364 1.07863   1
  -3 -10  -6 6.36756 1.99541   4
   3 -10   6 4.02164 1.54493   2
   3 -10   6 5.21296 1.48695   4
  -3 -10  -6 6.48781 1.76961   2
  -3  10  -6 4.38653 1.67660   4
  -3  10  -6 7.30217 1.79667   5
  -3  10  -6 3.18718 1.56439   1
   3  10   6 -1.0394 1.28906   3
  -4 -10  -6 8.58178 2.09614   2
   4 -10   6 6.97206 1.81849   4
   4 -10   6 11.6825 2.22551   2
  -4  10  -6 9.45379 2.32862   1
  -4  10  -6 8.57902 2.35233   4
   4  10   6 16.3259 2.97537   3
  -4  10  -6 11.4510 2.15454   5
   5 -10   6 -0.0363 1.06458   4
  -5 -10  -6 -1.2774 0.71463   2
   5 -10   6 -0.4501 0.70013   2
  -5  10  -6 0.29541 1.25619   1
   5  10   6 0.52696 0.92361   3
  -5  10  -6 0.36248 1.12876   5
  -5  10  -6 0.52345 1.65542   4
   6 -10   6 0.39689 1.35624   4
   6 -10   6 1.11893 1.20101   2
  -6 -10  -6 0.38851 1.52897   2
   6  10   6 2.54645 1.42280   3
  -6  10  -6 -2.3046 1.39121   4
  -6  10  -6 2.41732 1.62442   1
  -7 -10  -6 2.26490 1.56248   2
   7 -10   6 2.05487 1.42364   2
   7 -10   6 0.68375 1.11376   4
  -7  10  -6 -0.1595 1.24235   4
  -7  10  -6 5.26575 2.05565   1
   7  10   6 3.17253 1.62189   3
   8 -10   6 27.8376 3.70146   4
  -8 -10  -6 27.9717 4.08116   2
  -8  10  -6 30.1726 4.30608   1
  -8  10  -6 19.4949 3.75484   4
   8  10   6 28.7448 4.38979   3
   9 -11  -6 9.14820 2.90813   5
   9 -11  -6 14.9622 3.29936   4
   9 -11  -6 9.41472 2.80056   1
  -9 -11   6 7.71543 2.20966   2
  -9  11   6 12.0946 3.08677   5
  -9  11   6 5.18322 2.40246   3
   9  11  -6 16.8178 3.37427   1
   9  11  -6 10.0618 2.54390   5
   8 -11  -6 11.8756 2.93732   4
   8 -11  -6 11.0177 2.63442   5
   8 -11  -6 8.62795 2.73539   1
  -8 -11   6 11.9626 2.62540   2
  -8  11   6 4.84479 2.21034   3
  -8  11   6 13.5452 2.98110   5
   8  11  -6 16.1789 3.20242   5
   8  11  -6 14.5681 3.16393   1
   7 -11  -6 10.7439 2.40267   4
   7 -11  -6 5.41347 2.19873   1
   7 -11  -6 6.53109 2.04585   5
  -7 -11   6 9.42487 2.29852   2
   7  11  -6 11.7258 2.76919   5
   7  11  -6 9.71206 2.47278   1
  -7  11   6 7.88096 2.32346   5
  -7  11   6 12.2462 2.59107   3
   6 -11  -6 0.10024 1.36997   1
  -6 -11   6 1.35308 1.56632   2
   6 -11  -6 -0.3381 1.24704   5
   6 -11  -6 0.71047 1.24506   4
  -6  11   6 -0.6267 1.45322   3
  -6  11   6 1.17721 1.43249   5
   6  11  -6 0.30776 0.85059   5
   6  11  -6 -3.1487 1.67257   1
   5 -11  -6 0.81993 1.53210   4
  -5 -11   6 2.76773 1.50542   2
   5 -11  -6 0.75258 1.03484   1
   5  11  -6 0.85886 1.31234   5
   5  11  -6 -1.3799 1.77627   1
  -5  11   6 1.89541 1.28848   5
  -5  11   6 0.70654 1.16099   3
   4 -11  -6 3.02495 1.65375   1
  -4 -11   6 4.36294 1.55576   2
   4 -11  -6 5.63858 1.89828   4
  -4  11   6 2.19094 1.55172   3
   4  11  -6 8.30658 2.30911   1
   4  11  -6 6.28243 2.09481   5
  -4  11   6 3.27462 1.67234   5
   4  11  -6 4.22985 1.51817   4
   3 -11  -6 0.87294 1.18909   1
  -3 -11   6 1.58955 1.25875   2
   3 -11  -6 1.69945 1.36561   4
  -3  11   6 0.48906 1.04398   5
  -3  11   6 1.55435 1.17419   3
   3  11  -6 -0.0288 0.84948   4
   3  11  -6 2.03827 1.70615   5
   3  11  -6 0.51572 1.53615   1
  -2 -11   6 33.4593 3.67747   2
   2 -11  -6 32.4473 3.74042   4
   2 -11  -6 42.6082 3.27290   1
   2  11  -6 33.0056 4.53661   1
   2  11  -6 28.6428 3.65429   4
  -2  11   6 32.6033 3.39852   5
  -2  11   6 32.7246 3.82717   3
   2  11  -6 36.6271 3.99297   5
   1 -11  -6 17.9686 2.69889   4
  -1 -11   6 23.1134 3.07733   2
  -1 -11   6 16.3638 2.35501   4
  -1  11   6 21.7654 2.68510   5
   1  11  -6 19.2788 3.32826   1
  -1  11   6 16.6898 2.78649   3
   1  11  -6 13.5836 2.62719   4
   1  11  -6 18.2366 3.00340   5
   0 -11   6 1.07567 1.15265   2
   0 -11   6 0.53453 0.71928   4
   0 -11  -6 -0.8318 0.61536   4
   0  11  -6 -1.9340 1.30766   5
   0  11   6 2.49286 1.66525   3
   0  11  -6 -1.0410 1.47725   1
   0  11   6 -1.0312 0.92294   5
   0  11  -6 -0.2058 0.80782   4
  -1 -11  -6 18.2590 2.63054   4
   1 -11   6 20.2452 2.71105   4
   1 -11   6 20.6380 2.85309   2
  -1 -11  -6 18.7276 2.51080   2
   1  11   6 16.8589 2.70336   3
  -1  11  -6 18.6346 2.86203   5
  -1  11  -6 14.0627 2.61305   4
  -1  11  -6 16.7675 2.91358   1
   2 -11   6 11.4700 2.16080   4
   2 -11   6 14.4707 2.40177   2
  -2 -11  -6 10.9565 2.15118   2
  -2 -11  -6 11.1327 1.95761   4
  -2  11  -6 10.3042 2.35596   4
  -2  11  -6 10.8875 2.34041   5
   2  11   6 13.0653 2.52792   3
  -2  11  -6 12.7384 2.67560   1
   3 -11   6 1.69812 1.31963   4
   3 -11   6 2.92813 1.32095   2
  -3 -11  -6 2.02141 1.42366   2
   3  11   6 -0.2519 1.40197   3
  -3  11  -6 0.79904 1.37134   5
  -3  11  -6 0.69425 1.46821   4
  -3  11  -6 3.83157 1.96813   1
  -4 -11  -6 11.7427 2.48369   2
   4 -11   6 5.63603 1.73553   4
   4 -11   6 6.47660 1.77270   2
  -4  11  -6 11.7814 2.34688   5
   4  11   6 7.73266 2.25625   3
  -4  11  -6 7.87034 2.31092   4
  -4  11  -6 10.9462 2.61455   1
  -5 -11  -6 25.2490 3.48215   2
   5 -11   6 24.7804 3.27225   4
   5 -11   6 27.5011 3.54483   2
  -5  11  -6 23.1653 3.22834   5
  -5  11  -6 30.9608 4.25509   1
   5  11   6 20.1728 3.50467   3
  -5  11  -6 28.8044 4.16430   4
  -6 -11  -6 -0.6503 0.94565   2
   6 -11   6 -0.4626 1.28288   4
   6 -11   6 0.61922 1.31041   2
   6  11   6 2.48933 1.63608   3
  -6  11  -6 -0.7613 1.53440   4
  -6  11  -6 2.57173 1.92971   1
   7 -11   6 12.9957 2.63632   4
  -7 -11  -6 10.0700 2.91062   2
   7  11   6 16.4938 3.06061   3
  -7  11  -6 16.2759 3.39742   1
  -7  11  -6 12.2638 3.17732   4
   8 -11   6 0.75690 1.45724   4
  -8 -11  -6 -0.7270 1.84052   2
   8  11   6 4.38002 2.10164   3
  -8  11  -6 0.64243 2.02785   4
  -8  11  -6 -0.4900 1.89403   1
  -8 -12   6 5.44193 2.20469   2
   8 -12  -6 7.24305 2.71318   1
   8 -12  -6 6.03613 2.09749   5
   8 -12  -6 3.86981 1.75535   4
  -8  12   6 8.11141 2.32360   3
   8  12  -6 5.93203 2.08810   5
  -8  12   6 3.69003 1.85446   5
   8  12  -6 4.43663 2.05500   1
  -7 -12   6 0.63403 1.27304   2
   7 -12  -6 2.59303 1.55369   5
   7 -12  -6 3.46519 1.95922   1
   7 -12  -6 -0.8246 1.62935   4
   7  12  -6 3.09481 1.88247   5
   7  12  -6 0.97896 1.27056   1
  -7  12   6 -0.9729 1.66194   3
  -7  12   6 2.02429 1.36719   5
   6 -12  -6 -0.3259 1.37203   1
   6 -12  -6 1.04975 1.40352   4
  -6 -12   6 -2.3641 1.08907   2
   6  12  -6 -1.8248 1.14947   1
  -6  12   6 -1.9217 1.05921   5
   6  12  -6 1.26388 1.47482   5
  -6  12   6 2.28960 1.81503   3
   5 -12  -6 11.0388 2.52669   4
  -5 -12   6 16.4106 2.85283   2
   5 -12  -6 6.25190 1.99668   1
   5  12  -6 11.6424 3.03766   1
   5  12  -6 14.0100 2.90096   5
  -5  12   6 11.9779 2.76908   3
  -5  12   6 15.4297 2.80160   5
  -4 -12   6 19.7150 2.92941   2
   4 -12  -6 23.4796 3.54718   4
   4 -12  -6 20.4744 3.14848   1
  -4  12   6 22.3595 3.45435   3
   4  12  -6 19.9192 3.08441   5
  -4  12   6 24.3836 3.31783   5
   4  12  -6 19.0152 3.71234   1
  -3 -12   6 36.1961 4.02492   2
   3 -12  -6 40.8067 3.57164   1
   3 -12  -6 34.3278 4.10235   4
  -3  12   6 37.7019 3.97951   5
   3  12  -6 32.5721 4.15116   5
   3  12  -6 32.8499 3.84381   4
  -3  12   6 35.0983 4.05197   3
   3  12  -6 39.3392 4.96966   1
  -2 -12   6 18.7531 2.51256   4
   2 -12  -6 25.2406 3.41330   4
  -2 -12   6 18.3011 2.78866   2
   2  12  -6 15.2586 2.60393   4
   2  12  -6 19.5440 3.45028   1
  -2  12   6 23.4677 3.43410   3
   2  12  -6 16.7058 3.10310   5
  -2  12   6 20.1096 2.81618   5
  -1 -12   6 0.32578 0.77885   4
  -1 -12   6 0.18510 0.86606   2
   1 -12  -6 -0.6437 0.70420   4
  -1  12   6 0.76465 1.30873   3
  -1  12   6 0.43948 1.15876   5
   1  12  -6 0.85406 1.73298   5
   1  12  -6 0.26844 0.93446   4
   1  12  -6 2.60855 2.08511   1
   0 -12   6 8.81925 1.89255   4
   0 -12  -6 8.49770 1.84906   4
   0 -12   6 5.82497 1.85490   2
   0  12  -6 7.49836 2.31760   4
   0  12  -6 6.26224 2.21251   1
   0  12  -6 7.16538 2.31416   5
   0  12   6 5.61977 1.88260   3
   1 -12   6 19.5983 2.89301   4
  -1 -12  -6 25.5038 3.11430   4
  -1 -12  -6 19.1021 2.60430   2
   1 -12   6 25.4908 3.24192   2
   1  12   6 23.1258 3.29307   3
  -1  12  -6 18.4640 3.21598   1
  -1  12  -6 22.2785 3.26995   5
  -1  12  -6 18.2685 3.18619   4
  -2 -12  -6 0.83672 1.08937   2
  -2 -12  -6 1.19557 1.19315   4
   2 -12   6 -1.3282 0.91226   2
   2 -12   6 -0.1369 0.76187   4
  -2  12  -6 -0.8166 0.75981   4
  -2  12  -6 1.93072 1.55635   1
   2  12   6 0.71488 1.71978   3
  -2  12  -6 -0.4350 1.05426   5
  -3 -12  -6 -0.6579 0.66957   2
   3 -12   6 0.43906 0.96295   4
   3 -12   6 -0.4383 1.15264   2
   3  12   6 0.22782 1.59697   3
  -3  12  -6 -1.8073 1.22266   5
  -3  12  -6 -3.0527 1.26788   1
  -3  12  -6 -1.2129 0.84999   4
  -4 -12  -6 -1.7937 1.02898   2
   4 -12   6 -0.1081 1.19206   2
   4 -12   6 -0.1448 0.96567   4
  -4  12  -6 0.58732 1.13377   1
  -4  12  -6 -1.0912 1.02425   4
   4  12   6 3.01315 1.85039   3
  -4  12  -6 0.21398 1.35869   5
   5 -12   6 -0.5419 1.19708   2
  -5 -12  -6 2.11696 1.58918   2
   5 -12   6 -0.3049 0.98512   4
  -5  12  -6 1.25879 1.32385   1
  -5  12  -6 1.52357 1.63549   4
  -5  12  -6 1.60922 1.57302   5
   5  12   6 3.82494 1.92214   3
   6 -12   6 5.13207 1.91287   2
  -6 -12  -6 5.48802 1.92724   2
   6 -12   6 3.69302 1.63234   4
  -6  12  -6 5.88768 2.40444   4
   6  12   6 4.19700 1.79313   3
  -6  12  -6 6.26796 2.17461   1
   7 -12   6 -1.3228 1.37642   4
  -7 -12  -6 -0.5579 1.66355   2
   7  12   6 2.84232 1.63870   3
  -7  12  -6 -0.5024 1.87288   4
  -7  12  -6 0.05041 1.85691   1
  -7 -13   6 -0.4897 1.71327   2
   7 -13  -6 0.00360 1.38062   1
   7 -13  -6 1.52520 2.02191   4
  -7  13   6 -0.2084 1.55848   5
   7  13  -6 -0.3860 1.94737   1
   7  13  -6 2.33769 1.64139   5
  -7  13   6 0.57316 1.74743   3
  -6 -13   6 5.78896 1.94484   2
   6 -13  -6 9.05273 2.71045   4
   6 -13  -6 6.48258 2.44194   1
   6  13  -6 -0.2222 2.13719   1
  -6  13   6 3.86484 2.06194   5
   6  13  -6 7.71164 2.26132   5
  -6  13   6 8.58801 2.45171   3
   5 -13  -6 2.70740 1.52331   1
  -5 -13   6 3.30262 1.54014   2
   5 -13  -6 3.75099 2.04432   4
   5  13  -6 2.45423 1.63342   5
  -5  13   6 3.40536 1.43318   5
   5  13  -6 0.76779 1.50362   1
  -5  13   6 5.28647 2.20734   3
  -4 -13   6 6.42940 1.87959   2
   4 -13  -6 3.87538 1.82467   1
   4 -13  -6 6.27346 2.26886   4
   4  13  -6 4.33066 2.04974   5
  -4  13   6 1.88330 1.88525   3
   4  13  -6 3.33381 1.98122   1
  -4  13   6 4.24191 1.68477   5
  -3 -13   6 9.58269 2.28044   2
   3 -13  -6 10.5412 2.37134   4
   3 -13  -6 8.13438 2.08575   1
   3  13  -6 8.78879 2.19057   4
  -3  13   6 4.75987 1.71468   5
   3  13  -6 3.16954 2.61540   1
   3  13  -6 5.56119 1.93066   5
  -3  13   6 6.32781 2.05200   3
  -2 -13   6 -0.3736 0.93425   4
  -2 -13   6 2.72212 1.63637   2
   2 -13  -6 1.48408 1.56742   4
   2  13  -6 3.36018 1.64609   4
   2  13  -6 0.04301 1.40100   1
  -2  13   6 0.69938 1.88063   3
  -2  13   6 -0.6109 1.15192   5
   2  13  -6 0.38403 1.76848   5
  -1 -13   6 5.96276 1.77624   2
   1 -13  -6 9.71512 2.15203   4
  -1 -13   6 7.57490 1.79340   4
  -1  13   6 12.3672 2.39817   5
  -1  13   6 8.61869 2.34016   3
   1  13  -6 13.5079 2.86842   5
   1  13  -6 12.1874 3.09976   1
   1  13  -6 8.65659 2.22275   4
   0 -13  -6 1.37981 1.15742   4
   0 -13   6 2.45735 1.46049   2
   0 -13   6 1.67969 1.31385   4
   0  13  -6 0.72167 1.59684   4
   0  13   6 4.21925 1.82710   3
   0  13  -6 2.72307 2.01569   5
   0  13  -6 2.30559 2.21465   1
   1 -13   6 9.04630 2.14344   4
   1 -13   6 6.38091 1.93470   2
  -1 -13  -6 7.05945 1.72831   4
  -1  13  -6 6.21211 2.53631   1
   1  13   6 7.70630 2.46908   3
  -1  13  -6 -0.0098 1.77317   5
  -1  13  -6 6.01905 2.22790   4
   2 -13   6 10.3878 2.46483   4
   2 -13   6 11.4436 2.35543   2
  -2 -13  -6 7.62095 1.96130   2
  -2  13  -6 7.15570 2.46067   4
  -2  13  -6 11.0273 3.05912   1
  -2  13  -6 8.80117 2.46033   5
   2  13   6 9.41502 2.70699   3
  -3 -13  -6 -2.2308 0.67183   2
   3 -13   6 -1.5614 0.90550   2
   3 -13   6 -0.9614 0.85520   4
  -3  13  -6 -0.7235 1.14588   4
  -3  13  -6 -0.6353 1.06242   1
   3  13   6 -2.6708 1.40266   3
  -3  13  -6 -1.6698 1.34464   5
   4 -13   6 9.65630 2.31194   2
  -4 -13  -6 4.96301 2.00851   2
   4 -13   6 7.73774 2.10917   4
   4  13   6 13.5143 2.96786   3
  -4  13  -6 9.66667 2.58731   5
  -4  13  -6 13.3938 3.12420   1
  -4  13  -6 7.99290 2.45654   4
   5 -13   6 -0.2686 1.21725   2
   5 -13   6 -0.5399 1.01546   4
  -5 -13  -6 0.58337 1.54007   2
  -5  13  -6 2.27943 1.94365   1
  -5  13  -6 -2.1061 1.45192   5
   5  13   6 0.98769 1.23194   3
  -5  13  -6 0.71101 2.05144   4
   6 -13   6 -0.0447 1.04361   4
  -6 -13  -6 -2.2965 1.45717   2
  -6  13  -6 1.45584 2.14630   1
   6  13   6 2.16192 1.63664   3
  -6  13  -6 1.06479 1.66605   4
   7 -14  -6 0.79579 1.95311   1
  -7 -14   6 -1.3749 1.91055   2
  -7  14   6 0.33094 1.76043   5
   7  14  -6 -0.2421 1.73938   1
   7  14  -6 2.87066 1.94012   5
   6 -14  -6 0.08480 1.81711   1
   6 -14  -6 3.72995 1.82639   4
  -6 -14   6 0.52341 1.62599   2
  -6  14   6 1.18311 1.78734   5
   6  14  -6 -3.8230 1.77730   1
  -6  14   6 -2.6447 1.55255   3
   6  14  -6 2.01929 1.89777   5
   5 -14  -6 26.8664 3.96070   4
   5 -14  -6 20.7811 3.41298   1
  -5 -14   6 22.1156 3.48983   2
  -5  14   6 24.1503 3.64218   5
   5  14  -6 15.6668 3.73031   1
   5  14  -6 13.1889 2.82335   5
  -5  14   6 14.8163 2.98618   3
  -4 -14   6 33.8546 4.26040   2
   4 -14  -6 22.9436 3.65806   4
   4 -14  -6 36.0618 4.27881   1
  -4  14   6 30.1700 3.97250   5
   4  14  -6 30.4608 4.44459   1
  -4  14   6 23.2430 3.66512   3
   4  14  -6 33.6847 4.56722   5
  -3 -14   6 -0.3974 0.92450   2
   3 -14  -6 0.06884 1.52369   4
   3  14  -6 0.13528 1.54580   4
   3  14  -6 1.10423 1.53506   5
  -3  14   6 1.71667 1.51647   5
   3  14  -6 -1.1570 2.24331   1
  -3  14   6 -1.2378 1.09163   3
  -2 -14   6 0.99054 1.64285   2
   2 -14  -6 1.66449 1.33767   4
  -2 -14   6 0.89602 1.19663   4
  -2  14   6 0.66810 1.06823   5
  -2  14   6 -1.2735 1.77219   3
   2  14  -6 2.45830 1.61719   4
   2  14  -6 -2.3175 1.71525   5
   2  14  -6 0.72110 1.62652   1
  -1 -14   6 2.42630 1.60985   2
   1 -14  -6 3.42232 1.55262   4
  -1 -14   6 4.15499 1.68541   4
   1  14  -6 -2.2630 1.80777   5
   1  14  -6 3.36165 2.40698   1
  -1  14   6 3.53373 1.91950   3
   1  14  -6 5.31654 1.93932   4
   0 -14   6 15.3904 2.72319   4
   0 -14  -6 13.6028 2.65037   4
   0 -14   6 14.9710 2.73376   2
   0  14   6 13.6953 3.14258   3
   0  14  -6 10.0077 3.12681   1
   0  14  -6 14.2294 3.05475   4
   0  14  -6 8.04555 2.79362   5
  -1 -14  -6 38.5723 4.10830   4
   1 -14   6 38.4447 4.23318   4
   1 -14   6 43.8871 4.54335   2
  -1  14  -6 39.7039 5.13625   1
  -1  14  -6 38.1246 4.71912   5
  -1  14  -6 24.1350 3.88726   4
   1  14   6 34.6560 4.33276   3
  -2 -14  -6 4.96975 1.67550   2
   2 -14   6 4.03077 1.89120   4
   2 -14   6 4.63001 1.79317   2
   2  14   6 8.44287 2.35637   3
  -2  14  -6 6.01425 2.39001   4
  -2  14  -6 4.94277 2.17932   5
  -2  14  -6 3.00905 1.90918   1
   3 -14   6 1.95216 1.35307   2
  -3 -14  -6 2.19813 1.25291   2
   3 -14   6 1.82593 1.40445   4
  -3  14  -6 6.53475 2.52435   1
  -3  14  -6 1.15392 1.86356   5
  -3  14  -6 0.39379 1.57690   4
   3  14   6 -0.3470 1.77454   3
   4 -14   6 0.13422 1.08008   4
   4 -14   6 -0.3408 0.84625   2
  -4 -14  -6 -1.1401 1.29912   2
   4  14   6 -0.7694 1.65104   3
  -4  14  -6 -2.7144 1.54172   4
  -4  14  -6 -0.6958 1.38532   1
  -4  14  -6 -2.5651 1.43717   5
   5 -14   6 -0.1439 1.44957   4
  -5 -14  -6 -1.1170 1.39221   2
  -5  14  -6 2.35617 1.66513   1
   5  14   6 1.15765 1.22580   3
  -5  14  -6 -0.3750 1.73756   5
  -5  14  -6 -0.0563 2.03519   4
  -6 -14  -6 6.96497 2.54508   2
  -6  14  -6 9.83070 2.91809   1
   6  15  -6 3.69132 1.96967   5
  -6  15   6 2.06139 1.87940   5
   6  15  -6 -0.6225 2.29279   1
   5 -15  -6 3.92740 2.28833   4
   5 -15  -6 1.45728 2.02559   1
  -5 -15   6 3.71234 2.00183   2
  -5  15   6 0.65423 1.67281   3
  -5  15   6 3.35743 2.12013   5
   5  15  -6 -0.5213 2.30372   1
   5  15  -6 4.05535 2.13300   5
   4 -15  -6 5.68138 2.54355   4
  -4 -15   6 2.04045 1.49499   2
   4  15  -6 3.84729 2.36108   5
   4  15  -6 2.29636 2.16261   1
  -4  15   6 4.36962 2.07023   5
  -4  15   6 1.53466 1.69542   3
   3 -15  -6 5.46915 1.98769   4
  -3 -15   6 6.75207 2.00533   2
  -3  15   6 4.54033 2.09759   3
   3  15  -6 3.21029 2.90759   1
   3  15  -6 1.97467 1.80038   5
  -3  15   6 7.48136 2.34259   5
  -2 -15   6 -0.2481 1.42023   2
  -2 -15   6 -0.5364 1.10060   4
   2 -15  -6 1.58681 1.67132   4
   2  15  -6 0.14849 1.68734   1
  -2  15   6 -0.8686 1.50496   5
   2  15  -6 1.06121 1.61915   4
  -2  15   6 -2.4880 1.16302   3
   2  15  -6 -1.8475 1.96450   5
   1 -15  -6 5.57373 2.07026   4
  -1 -15   6 6.62857 2.04922   4
  -1 -15   6 9.89601 2.51394   2
   1  15  -6 4.45892 1.93741   4
   1  15  -6 4.89202 2.41322   1
  -1  15   6 3.03025 2.46439   3
   1  15  -6 4.47116 2.18431   5
   0 -15  -6 0.80642 1.48467   4
   0 -15   6 4.17795 1.79255   4
   0 -15   6 3.81258 1.73170   2
   0  15  -6 -0.8956 2.13962   5
   0  15  -6 1.55879 1.68130   4
   0  15  -6 -1.5838 2.00489   1
   0  15   6 0.20096 1.60337   3
   1 -15   6 1.57472 1.31855   2
  -1 -15  -6 1.41816 1.17336   4
   1 -15   6 3.11329 1.82977   4
  -1  15  -6 2.43038 2.34671   5
   1  15   6 -0.5945 2.16915   3
  -1  15  -6 1.40411 1.79236   1
  -1  15  -6 -0.3760 1.59569   4
   2 -15   6 1.98906 1.84380   4
   2 -15   6 2.75674 1.72512   2
  -2  15  -6 2.86424 1.96607   1
  -2  15  -6 4.00145 1.85521   5
   2  15   6 2.40197 2.15520   3
  -2  15  -6 1.58064 2.01927   4
  -3 -15  -6 -0.9151 1.20238   2
   3 -15   6 1.53439 1.35772   4
   3 -15   6 1.58197 1.18881   2
  -3  15  -6 1.56258 2.22123   1
   3  15   6 -0.9789 1.15224   3
  -3  15  -6 -1.1433 1.40192   5
  -3  15  -6 -1.2119 1.19622   4
   4 -15   6 5.02113 1.92126   2
   4 -15   6 2.10754 1.47872   4
  -4 -15  -6 0.25173 1.65295   2
   4  15   6 2.34353 1.94752   3
  -4  15  -6 1.64582 1.83628   5
  -4  15  -6 4.54069 2.85394   1
  -4  15  -6 0.26851 1.67004   4
  -5 -15  -6 4.06042 1.84227   2
  -5  15  -6 1.53216 2.34338   5
   4 -16  -6 5.95349 2.13206   4
  -4 -16   6 3.15550 2.37043   2
   4  16  -6 2.98616 2.38653   5
   4  16  -6 -0.5932 1.84421   1
  -4  16   6 -1.1909 1.51895   3
  -4  16   6 2.29655 1.82430   5
   3 -16  -6 21.8936 3.83339   4
  -3 -16   6 14.2061 3.06943   2
  -3  16   6 17.6976 3.51287   3
  -3  16   6 19.0588 3.37680   5
   3  16  -6 15.6255 4.24397   1
   3  16  -6 15.9877 3.43361   5
  -2 -16   6 0.68087 1.29952   2
  -2 -16   6 -0.9906 1.31443   4
   2 -16  -6 -1.0595 1.67012   4
   2  16  -6 -4.8403 1.85583   5
  -2  16   6 -3.2258 1.23128   3
   2  16  -6 -3.2733 2.12555   1
   2  16  -6 1.00415 1.52318   4
  -1 -16   6 0.75372 1.17090   2
  -1 -16   6 0.45367 1.53684   4
   1 -16  -6 0.77346 1.77335   4
  -1  16   6 -6.0455 1.85357   3
   1  16  -6 -2.9270 2.18555   5
   1  16  -6 -1.3453 1.40473   4
   1  16  -6 -2.0359 1.41393   1
   0 -16   6 20.7762 3.33341   2
   0 -16   6 17.3664 3.06203   4
   0 -16  -6 13.9006 3.03194   4
   0  16  -6 13.1361 3.36251   1
   0  16  -6 13.4082 3.15178   4
   0  16  -6 10.9602 2.94474   5
   0  16   6 9.39493 3.20717   3
   1 -16   6 0.82521 1.18904   2
   1 -16   6 -1.4899 1.49366   4
   1  16   6 -2.0930 2.08114   3
  -1  16  -6 -1.8471 2.11096   1
  -1  16  -6 -0.7506 2.42863   5
  -1  16  -6 -0.6985 1.54348   4
   2 -16   6 2.85825 1.87020   4
   2 -16   6 3.00550 1.62045   2
  -2  16  -6 0.84063 2.02053   4
  -2  16  -6 0.52226 2.38603   5
  -2  16  -6 1.05124 2.38362   1
   2  16   6 -0.1632 2.00606   3
   3 -16   6 -0.5269 1.18916   4
   3 -16   6 -0.3289 1.12947   2
  -3  16  -6 -2.1897 1.28343   4
  -3  16  -6 4.12796 2.94913   1
   3  16   6 1.11202 2.26894   3
  -3  16  -6 -3.7987 1.97252   5
   2  17  -6 -2.7612 1.35733   5
   1 -17  -6 -0.8489 1.17854   4
  -1 -17   6 -0.5280 1.45298   4
  -1 -17   6 0.40042 1.66398   2
   1  17  -6 -6.5187 1.94287   1
   1  17  -6 -6.1449 2.20437   5
   1  17  -6 -2.7264 1.44757   4
   0 -17   6 0.97878 1.10351   2
   0 -17   6 -0.6230 1.55894   4
   0 -17  -6 -0.0592 1.87643   4
   0  17  -6 -3.4945 2.47037   5
   0  17  -6 2.67101 2.06218   4
   1 -17   6 1.62726 1.70749   2
  -1  17  -6 -0.1981 1.84839   4
  -1  17  -6 -0.6121 2.72709   5
  11   0  -7 0.95388 1.80645   3
  11   0  -7 4.76374 2.21690   5
 -11   0   7 0.18448 1.14406   3
  11   0  -7 0.54771 1.76514   1
 -10   0   7 0.40258 1.02675   3
  10   0  -7 0.93284 1.57880   3
  10   0  -7 -0.9560 1.26596   5
  10   0  -7 3.03849 1.65397   1
   9   0  -7 1.92866 1.55248   5
   9   0  -7 0.44221 1.18558   1
  -9   0   7 0.14635 1.09326   3
   9   0  -7 1.28324 1.31096   3
   8   0  -7 -1.3266 0.79947   4
   8   0  -7 2.74278 1.49134   5
   8   0  -7 0.31770 1.12561   3
   8   0  -7 0.44111 1.17496   1
  -8   0   7 0.60768 1.07847   3
   7   0  -7 2.27088 1.38430   5
   7   0  -7 0.46836 0.88518   4
  -7   0   7 -0.7709 0.73082   3
   7   0  -7 -0.5749 1.12589   1
  -6   0   7 23.8735 2.63752   3
   6   0  -7 27.9546 2.99429   4
   6   0  -7 30.8535 3.37982   5
   6   0  -7 28.5100 3.67479   1
   5   0  -7 -0.3984 0.64570   4
   5   0  -7 -0.4538 1.05158   1
   5   0  -7 -1.7309 0.56223   5
  -5   0   7 -0.3880 0.56057   3
  -5   0   7 0.17014 0.60796   2
  -4   0   7 359.412 13.7052   2
   4   0  -7 355.081 14.8261   1
  -4   0   7 339.479 13.5229   3
   4   0  -7 348.548 14.4265   4
   3   0  -7 -0.7334 0.45365   1
   3   0  -7 0.20955 0.89189   4
   3   0  -7 -0.7626 0.54038   5
  -3   0   7 -0.5294 0.51418   2
  -3   0   7 -0.0321 0.45826   3
  -2   0   7 31.8368 2.42608   2
   2   0  -7 33.4376 2.69833   1
   2   0  -7 35.8762 2.84668   4
   2   0  -7 31.7163 2.00694   5
  -2   0   7 33.4375 1.99402   3
  -1   0   7 -0.3626 0.59380   2
   1   0  -7 0.21858 0.72904   1
  -1   0   7 0.87500 0.54030   3
   1   0  -7 -0.2037 0.56327   4
   0   0   7 13.4088 1.87583   2
   0   0  -7 12.4212 1.83054   1
   0   0   7 10.0779 1.18397   3
   0   0  -7 8.56642 1.67151   4
  -1   0  -7 -1.1192 0.67509   4
  -1   0  -7 -0.2144 0.73904   1
   1   0   7 -1.0815 0.48589   2
   1   0   7 -0.0919 0.34088   3
   2   0   7 -0.0105 0.58767   2
  -2   0  -7 1.13988 0.77678   4
  -2   0  -7 1.39371 0.99970   1
   2   0   7 -0.0153 0.46281   3
  -3   0  -7 -0.4142 0.58198   2
   3   0   7 0.03274 0.44905   3
  -3   0  -7 -0.5159 0.58914   4
   3   0   7 -0.1995 0.53677   2
  -3   0  -7 -0.6679 0.93086   1
   4   0   7 1646.90 61.5855   3
  -4   0  -7 1747.65 62.2770   4
   4   0   7 1715.02 62.5492   2
  -4   0  -7 1798.09 63.2114   2
  -5   0  -7 1.45608 0.94811   4
   5   0   7 -0.4782 0.98616   2
  -5   0  -7 -0.5445 1.10105   2
   5   0   7 -0.7190 0.60016   3
   6   0   7 3.66332 1.31572   3
   6   0   7 6.31399 1.85217   2
  -6   0  -7 4.71153 1.58135   2
  -6   0  -7 3.56645 1.24447   4
  -7   0  -7 -1.3733 0.59231   2
   7   0   7 0.59860 1.08203   2
   7   0   7 -0.3657 0.90063   3
   8   0   7 1.97228 1.28487   2
   8   0   7 3.96863 1.48745   3
  -8   0  -7 3.10791 1.58355   2
  -9   0  -7 -0.7132 1.56697   2
 -10   0  -7 4.50277 2.42342   2
  11  -1  -7 8.69301 2.55591   5
 -11  -1   7 5.26524 2.26278   3
  11  -1  -7 9.19528 2.69486   1
 -11   1   7 7.55792 2.38328   3
  11   1  -7 8.11071 2.71134   5
  11   1  -7 2.65106 1.59409   3
  11   1  -7 7.88126 2.58460   1
  10  -1  -7 -1.0095 1.50400   1
 -10  -1   7 -1.3955 1.22723   3
  10  -1  -7 0.90764 1.15707   5
  10   1  -7 0.80394 1.50623   3
 -10   1   7 0.73427 1.35658   3
  10   1  -7 1.25919 1.54989   5
  10   1  -7 1.04371 1.94484   1
  -9  -1   7 6.41509 1.97245   3
   9  -1  -7 9.18611 2.59472   1
   9  -1  -7 9.87794 2.51933   5
  -9   1   7 9.67867 2.15809   3
   9   1  -7 11.6335 2.85336   1
   9   1  -7 9.10054 2.24061   3
   9   1  -7 12.0451 2.66255   5
  -8  -1   7 4.00396 1.52664   3
   8  -1  -7 6.37107 2.03435   5
   8  -1  -7 4.24742 1.33532   4
   8  -1  -7 4.88987 1.84527   1
  -8   1   7 6.30086 1.71763   3
   8   1  -7 4.51290 2.03095   1
   8   1  -7 2.77024 1.63754   5
   8   1  -7 3.57650 1.55572   3
   7  -1  -7 0.61495 0.80077   5
  -7  -1   7 -0.0167 0.75989   3
   7  -1  -7 0.76744 0.97697   4
   7  -1  -7 -0.1082 1.02183   1
   7   1  -7 -0.0270 0.91135   4
   7   1  -7 1.24786 1.06283   3
   7   1  -7 2.68841 1.52770   1
   7   1  -7 0.22591 1.12172   5
  -7   1   7 0.24462 0.96129   3
   6  -1  -7 9.38624 2.20874   1
   6  -1  -7 8.72954 1.84101   5
   6  -1  -7 9.50239 1.81336   4
  -6  -1   7 7.90668 1.47283   3
  -6   1   7 10.1350 1.80198   3
   6   1  -7 10.0790 2.01711   5
   6   1  -7 7.17913 1.56953   4
   6   1  -7 12.3571 2.51171   1
  -5  -1   7 56.5158 3.31883   3
   5  -1  -7 48.9965 4.03867   1
   5  -1  -7 51.1360 3.63294   4
  -5  -1   7 49.7574 3.12758   2
   5  -1  -7 51.8896 3.58032   5
   5   1  -7 46.5786 3.51387   5
   5   1  -7 51.8272 3.58836   4
   5   1  -7 52.5494 3.99907   1
  -5   1   7 50.2649 3.28799   3
  -4  -1   7 1.42209 0.72879   2
   4  -1  -7 -0.2317 0.72447   5
   4  -1  -7 1.14058 0.93269   1
   4  -1  -7 1.75233 1.14032   4
  -4  -1   7 1.44731 0.67936   3
   4   1  -7 0.70791 0.88274   1
   4   1  -7 0.45162 0.86107   5
   4   1  -7 1.76801 0.98678   4
  -4   1   7 1.08938 0.66327   3
  -4   1   7 1.88860 0.75522   2
  -3  -1   7 22.0905 2.31062   2
   3  -1  -7 27.0279 2.06911   5
  -3  -1   7 28.4411 1.78345   3
   3  -1  -7 28.4625 3.11896   1
   3  -1  -7 25.4742 2.79724   4
   3   1  -7 26.5597 3.13801   1
  -3   1   7 28.0744 2.11989   2
  -3   1   7 29.8454 2.01366   3
   3   1  -7 27.6204 2.92024   4
   3   1  -7 22.9110 2.02342   5
  -2  -1   7 10.1005 1.59080   2
   2  -1  -7 5.23580 0.87492   5
  -2  -1   7 6.07482 0.93837   3
   2  -1  -7 5.93819 1.35463   1
   2  -1  -7 3.13892 1.22446   4
   2   1  -7 7.13987 1.54188   1
   2   1  -7 9.37782 1.80520   4
  -2   1   7 6.60063 1.25269   2
  -2   1   7 7.32966 1.11678   3
   2   1  -7 5.29928 0.98346   5
   1  -1  -7 2.84996 1.14682   4
   1  -1  -7 2.64657 1.05218   1
  -1  -1   7 2.45257 0.96782   2
  -1   1   7 2.38038 0.93349   2
  -1   1   7 2.34064 0.71891   3
   1   1  -7 2.86284 1.24706   4
   1   1  -7 3.17309 1.21799   1
   0  -1  -7 78.2158 4.07890   1
   0  -1   7 66.8436 4.14012   2
   0  -1  -7 73.7460 4.48122   4
   0   1   7 66.8316 4.02908   2
   0   1  -7 83.1275 4.40210   1
   0   1  -7 71.5980 4.50087   4
   0   1   7 71.6057 3.55041   3
  -1  -1  -7 23.0449 2.66824   4
   1  -1   7 27.8580 2.86138   2
  -1  -1  -7 29.5431 2.14980   1
  -1   1  -7 26.8563 2.70285   1
   1   1   7 24.0900 2.63775   2
  -1   1  -7 26.8348 2.90247   4
   1   1   7 26.0421 1.90537   3
  -2  -1  -7 6.50852 1.21338   1
  -2  -1  -7 7.53418 1.55625   4
   2  -1   7 5.61871 1.41921   2
  -2  -1  -7 4.13642 1.26047   2
  -2   1  -7 8.01194 1.57319   1
   2   1   7 8.17496 1.66275   2
  -2   1  -7 8.23758 1.75813   4
   2   1   7 8.89199 1.32970   3
  -3  -1  -7 1.26823 0.91829   4
  -3  -1  -7 1.26988 1.06694   2
   3  -1   7 2.21832 1.02244   2
  -3   1  -7 3.42765 1.27609   1
   3   1   7 1.81683 0.80101   3
  -3   1  -7 3.02777 1.27767   4
   3   1   7 2.65915 1.22900   2
   4  -1   7 7.19072 1.47484   3
  -4  -1  -7 5.79322 1.91400   2
  -4   1  -7 7.85839 1.77025   4
  -4   1  -7 10.6130 2.33918   2
   4   1   7 11.5291 2.23195   2
   4   1   7 7.91295 1.49132   3
   5  -1   7 59.3529 4.16165   2
   5  -1   7 56.9208 4.02513   3
  -5  -1  -7 52.3992 3.69878   4
  -5  -1  -7 38.6767 4.42676   2
   5   1   7 53.4206 3.70477   3
   5   1   7 48.9702 4.02026   2
  -5   1  -7 55.3461 4.31465   2
  -5   1  -7 48.8747 3.80041   4
   6  -1   7 0.23015 1.12319   2
  -6  -1  -7 -0.7251 1.02854   4
  -6  -1  -7 -0.8121 0.94949   2
   6   1   7 -0.7097 0.99639   2
  -6   1  -7 -0.3505 1.09032   2
  -6   1  -7 0.10421 0.97923   4
   6   1   7 -1.5102 0.66649   3
  -7  -1  -7 -0.7282 1.03298   2
   7  -1   7 -2.4182 0.91648   2
   7   1   7 2.06026 1.19784   3
   7   1   7 0.49885 1.22677   2
  -7   1  -7 -0.1583 1.12637   2
  -8  -1  -7 1.17860 1.45092   2
   8  -1   7 0.80410 1.10571   2
  -8   1  -7 1.93211 1.24194   2
   8   1   7 0.14167 1.12364   3
  -9  -1  -7 1.55821 1.90121   2
   9   1   7 7.53763 2.11488   3
  -9   1  -7 7.74789 2.19661   2
 -10  -1  -7 7.95409 2.59640   2
  10   1   7 11.5037 3.22995   3
 -10   1  -7 8.54862 2.67582   2
  11  -2  -7 2.38773 2.18335   5
  11  -2  -7 3.10719 2.51498   1
  11   2  -7 0.93902 2.09145   3
  11   2  -7 1.55579 1.60994   5
 -11   2   7 3.50759 2.01140   3
  11   2  -7 5.03060 2.16598   1
  10  -2  -7 1.12192 1.36505   5
  10  -2  -7 0.40920 1.15765   1
 -10  -2   7 0.61138 1.43244   3
  10   2  -7 3.70789 2.08607   1
  10   2  -7 0.34742 1.43411   3
  10   2  -7 2.97306 1.78749   5
 -10   2   7 -1.5155 1.14670   3
   9  -2  -7 35.0331 4.71523   1
  -9  -2   7 33.1763 3.87344   3
   9  -2  -7 34.8555 4.39819   5
   9   2  -7 30.7571 4.24453   5
  -9   2   7 31.1329 3.79152   3
   9   2  -7 31.3741 3.88491   3
   9   2  -7 35.5759 4.62606   1
   8  -2  -7 3.87929 1.69915   5
   8  -2  -7 3.98771 1.95158   1
  -8  -2   7 1.12744 1.17360   3
   8  -2  -7 0.99007 1.16552   4
  -8   2   7 1.26033 1.26117   3
   8   2  -7 2.99275 1.33964   3
   8   2  -7 2.47032 1.41761   1
   8   2  -7 3.79317 1.82123   5
   7  -2  -7 26.2401 3.37765   5
   7  -2  -7 25.0861 2.99542   4
  -7  -2   7 24.4821 2.84266   3
   7  -2  -7 24.3522 3.58638   1
   7   2  -7 28.4362 3.72798   1
   7   2  -7 28.6810 3.52719   5
   7   2  -7 24.3125 2.81175   3
   7   2  -7 28.5548 3.10086   4
  -7   2   7 27.3035 3.24910   3
   6  -2  -7 5.92317 1.60820   4
   6  -2  -7 3.85216 1.72118   1
   6  -2  -7 8.69682 1.87543   5
  -6  -2   7 7.43238 1.41653   2
  -6  -2   7 8.33514 1.53650   3
   6   2  -7 9.88500 2.31106   1
   6   2  -7 7.51796 1.54189   3
   6   2  -7 3.70454 1.45745   5
   6   2  -7 6.87957 1.60637   4
  -6   2   7 7.29457 1.62188   3
   5  -2  -7 0.57009 0.92578   1
   5  -2  -7 1.58210 1.00961   5
  -5  -2   7 0.63870 0.73498   3
  -5  -2   7 -0.1390 0.67713   2
   5  -2  -7 0.38156 0.79460   4
  -5   2   7 0.46938 0.73743   3
   5   2  -7 1.08937 0.76641   4
   5   2  -7 0.61841 0.96695   1
   5   2  -7 1.48577 1.09756   5
   4  -2  -7 4.13698 1.19816   5
  -4  -2   7 5.48521 1.23579   2
   4  -2  -7 3.79583 1.47910   1
   4  -2  -7 5.57238 1.54562   4
  -4   2   7 3.37972 0.85939   2
   4   2  -7 2.55003 1.24241   4
   4   2  -7 3.31392 1.38460   1
   4   2  -7 4.10440 1.24315   5
  -4   2   7 4.12847 1.06737   3
   3  -2  -7 112.479 5.13147   5
  -3  -2   7 106.246 5.39406   2
   3  -2  -7 104.642 5.84127   1
   3  -2  -7 95.3431 5.64095   4
   3   2  -7 107.124 6.04137   1
   3   2  -7 109.544 5.82892   4
   3   2  -7 117.259 5.37667   5
  -3   2   7 110.401 5.14464   3
  -3   2   7 114.242 5.15434   2
   2  -2  -7 66.4193 3.95009   1
   2  -2  -7 61.3428 2.98597   5
   2  -2  -7 56.6513 3.85612   4
  -2  -2   7 61.4260 3.68915   2
  -2   2   7 62.1034 3.29046   3
   2   2  -7 59.5371 3.17457   5
   2   2  -7 61.4019 4.08648   4
   2   2  -7 59.0855 4.05138   1
  -2   2   7 57.7903 3.39601   2
   1  -2  -7 258.906 11.0006   4
   1  -2  -7 252.113 10.5376   1
  -1  -2   7 257.045 10.7062   2
   1   2  -7 252.143 9.71469   5
  -1   2   7 253.417 10.0067   3
   1   2  -7 259.644 10.9202   1
   1   2  -7 251.518 11.0370   4
  -1   2   7 238.865 10.3505   2
   0  -2  -7 3.98868 1.27486   4
   0  -2   7 4.43203 1.17138   2
   0  -2  -7 3.52396 0.98401   1
   0   2  -7 4.03322 1.26482   1
   0   2   7 2.02980 0.83654   2
   0   2   7 3.76990 0.98071   3
   0   2  -7 3.08341 1.10164   4
  -1  -2  -7 59.1176 3.76125   4
   1  -2   7 50.8065 3.55141   2
  -1  -2  -7 47.5728 3.59867   2
  -1  -2  -7 62.2029 3.20607   1
   1   2   7 59.7978 3.24127   3
  -1   2  -7 51.9026 3.85428   4
  -1   2  -7 58.5350 3.75802   1
   1   2   7 58.7063 3.66406   2
  -2  -2  -7 22.1166 2.87061   2
  -2  -2  -7 31.7658 2.69870   4
   2  -2   7 24.3668 2.79005   2
  -2   2  -7 26.6795 2.86524   1
  -2   2  -7 25.2961 2.93305   4
   2   2   7 26.9589 2.10868   3
   2   2   7 28.5765 3.01043   2
  -3  -2  -7 84.0870 4.66851   4
  -3  -2  -7 68.9638 4.86261   2
   3  -2   7 79.0581 4.77603   2
  -3   2  -7 70.8599 4.66678   4
   3   2   7 75.9816 4.24707   3
  -3   2  -7 77.2659 4.42981   1
   3   2   7 76.9256 4.81690   2
  -4  -2  -7 103.526 5.38843   4
  -4  -2  -7 90.1533 5.90107   2
   4  -2   7 99.7058 5.68399   2
  -4   2  -7 81.0409 5.42322   4
   4   2   7 100.700 5.83824   2
   4   2   7 88.4073 5.05581   3
  -4   2  -7 92.2830 5.06639   1
  -5  -2  -7 -0.7345 0.92477   2
  -5  -2  -7 0.40153 0.90994   4
   5  -2   7 0.21060 0.99014   2
  -5   2  -7 0.28943 0.78745   2
   5   2   7 -0.8001 0.60290   3
  -5   2  -7 1.25047 1.09224   4
   5   2   7 -0.4810 0.96927   2
   6  -2   7 7.66158 2.04720   2
  -6  -2  -7 7.89062 2.15100   2
  -6   2  -7 9.90256 2.35159   2
  -6   2  -7 8.66142 1.94216   4
   6   2   7 8.15176 1.86202   3
   6   2   7 9.89138 2.26630   2
   7  -2   7 30.2475 3.67697   2
  -7  -2  -7 28.5092 3.89533   2
  -7   2  -7 23.2187 3.48123   2
   7   2   7 27.2003 3.59439   3
  -7   2  -7 27.7603 3.92757   4
  -8  -2  -7 8.09850 2.24299   2
   8  -2   7 7.09585 2.10861   2
  -8   2  -7 4.12303 2.09816   2
   8   2   7 3.56076 1.63277   3
   9  -2   7 71.3445 5.51140   2
  -9  -2  -7 84.5444 6.22560   2
   9   2   7 75.3929 5.86876   3
  -9   2  -7 78.7231 6.02495   2
 -10  -2  -7 6.47333 2.56624   2
  10   2   7 3.87035 1.89034   3
 -10   2  -7 4.94420 2.37135   2
  11  -3  -7 7.07757 2.78277   5
  11  -3  -7 2.42733 2.17962   1
  11   3  -7 4.81976 2.22888   1
 -11   3   7 1.24968 1.67042   3
  11   3  -7 5.61771 2.49088   5
  10  -3  -7 2.44503 2.24325   1
  10  -3  -7 8.24479 2.55293   5
  10   3  -7 1.66521 2.00098   5
 -10   3   7 0.26256 1.13122   3
  10   3  -7 1.16321 1.44419   1
   9  -3  -7 3.83101 1.72754   1
   9  -3  -7 -0.2182 1.08035   4
   9  -3  -7 4.64434 1.81414   5
   9   3  -7 0.24990 1.05748   1
  -9   3   7 0.62825 1.43937   3
   9   3  -7 3.43460 1.81158   5
   8  -3  -7 1.36066 1.74776   1
   8  -3  -7 3.22709 1.47057   5
   8  -3  -7 0.57356 1.12680   4
  -8   3   7 1.01475 1.34628   3
   8   3  -7 1.83431 1.51934   5
   8   3  -7 1.73744 1.64789   1
   7  -3  -7 0.00356 0.71625   5
   7  -3  -7 0.55029 0.88695   1
   7  -3  -7 0.05291 0.78781   4
   7   3  -7 1.25551 1.48900   1
  -7   3   7 1.00264 1.08629   3
   7   3  -7 -0.3169 0.83086   4
   7   3  -7 1.06838 1.09273   5
  -6  -3   7 28.5808 2.84207   2
   6  -3  -7 31.7339 3.43264   5
   6  -3  -7 28.1979 3.72274   1
   6  -3  -7 33.1625 3.50600   4
   6   3  -7 31.7841 3.51106   5
   6   3  -7 28.4584 3.59897   1
  -6   3   7 31.0587 2.73415   3
   6   3  -7 29.5913 3.12102   4
   5  -3  -7 0.30189 0.76147   5
  -5  -3   7 0.48447 0.76027   2
   5  -3  -7 -0.3913 0.62613   4
   5  -3  -7 1.01383 1.23365   1
   5   3  -7 -0.0673 0.51877   4
   5   3  -7 0.76434 0.94821   5
   5   3  -7 -0.8759 1.13521   1
  -5   3   7 -0.3392 0.70071   3
   4  -3  -7 7.24763 1.47590   5
  -4  -3   7 7.52084 1.41111   2
   4  -3  -7 11.3935 2.07677   4
   4  -3  -7 8.40717 1.83198   1
   4   3  -7 6.46330 1.73318   1
  -4   3   7 8.13180 1.44404   3
   4   3  -7 9.74252 1.91561   4
   4   3  -7 7.21932 1.54996   5
   3  -3  -7 274.338 11.6623   1
   3  -3  -7 276.323 11.7395   4
   3  -3  -7 261.488 10.6600   5
  -3  -3   7 264.567 11.1416   2
   3   3  -7 272.805 10.9910   5
  -3   3   7 261.207 10.8373   3
   3   3  -7 247.876 11.4202   4
   3   3  -7 274.177 11.8709   1
  -3   3   7 278.924 10.6592   2
   2  -3  -7 15.1687 2.14968   1
  -2  -3   7 14.2010 1.98786   2
   2  -3  -7 14.0772 1.42812   5
   2  -3  -7 13.2490 2.15157   4
   2   3  -7 11.8440 1.99139   4
   2   3  -7 16.0775 1.74135   5
  -2   3   7 13.8419 1.61436   5
  -2   3   7 12.8497 1.65274   2
   2   3  -7 15.2595 2.48540   1
  -2   3   7 11.7200 1.60399   3
  -1  -3   7 10.8958 1.78980   2
   1  -3  -7 8.29418 1.55387   2
   1  -3  -7 7.60111 1.56724   4
   1  -3  -7 10.1027 1.63881   1
   1   3  -7 9.97254 1.20024   5
   1   3  -7 10.3897 2.02515   1
  -1   3   7 9.67662 1.44666   3
   1   3  -7 8.20756 1.71798   4
  -1   3   7 10.4603 1.54853   2
   0  -3  -7 67.7086 4.23585   2
   0  -3   7 71.7494 4.21776   2
   0  -3  -7 72.5453 3.81995   1
   0  -3  -7 74.5796 4.35157   4
   0   3   7 72.0745 3.80464   3
   0   3  -7 63.4662 4.31525   4
   0   3   7 65.8292 3.97225   2
   0   3  -7 70.9752 4.43888   1
   1  -3   7 1.64258 0.85716   2
  -1  -3  -7 1.01067 0.89777   2
  -1  -3  -7 0.92564 0.59760   1
  -1  -3  -7 0.40996 0.69184   4
   1   3   7 0.52478 0.83671   2
  -1   3  -7 1.80368 1.11515   4
  -1   3  -7 0.10633 0.85853   1
   1   3   7 -0.2472 0.71869   3
  -2  -3  -7 26.3976 3.10625   2
   2  -3   7 30.9629 3.19533   2
  -2  -3  -7 24.3705 2.72481   4
   2   3   7 27.7061 2.28295   3
  -2   3  -7 30.6792 3.18539   1
  -2   3  -7 28.8343 3.21162   4
   2   3   7 28.6034 3.06579   2
  -3  -3  -7 125.914 7.13331   2
   3  -3   7 144.205 7.14251   2
  -3  -3  -7 125.175 6.58001   4
   3   3   7 132.061 6.52186   3
   3   3   7 140.615 7.09888   2
  -3   3  -7 145.156 6.85980   1
  -3   3  -7 139.049 7.19181   4
  -4  -3  -7 25.7002 2.81579   4
   4  -3   7 26.3458 3.12618   2
  -4  -3  -7 19.8661 3.06900   2
  -4   3  -7 31.3891 3.60160   4
   4   3   7 31.7423 2.69381   3
   4   3   7 18.2624 2.87233   2
  -4   3  -7 29.4491 3.03881   1
  -5  -3  -7 15.9984 2.84388   2
   5  -3   7 17.2023 2.69220   2
  -5  -3  -7 18.8877 2.35082   4
   5   3   7 16.6323 2.81392   2
   5   3   7 17.4959 2.52310   3
  -5   3  -7 15.7351 2.60880   4
   6  -3   7 52.1641 4.23379   2
  -6  -3  -7 44.8422 4.87666   2
  -6   3  -7 49.7873 5.15637   2
   6   3   7 59.9262 4.33413   3
  -6   3  -7 61.9515 4.38234   4
  -7  -3  -7 -0.3181 1.25051   2
   7  -3   7 1.19588 1.25729   2
   7   3   7 1.85199 1.26010   3
  -7   3  -7 0.01189 1.16747   2
  -7   3  -7 -0.7177 0.98032   4
   8  -3   7 11.2753 2.61250   2
  -8  -3  -7 7.18742 2.37167   2
  -8   3  -7 6.12359 2.36388   2
   8   3   7 9.53229 2.29159   3
  -9  -3  -7 7.00969 2.40120   2
   9  -3   7 8.11513 2.39044   2
   9   3   7 6.01880 2.15828   3
  -9   3  -7 5.48966 2.26908   2
 -10  -3  -7 2.75322 1.65103   2
 -10   3  -7 5.06999 2.23781   2
  10   3   7 4.21676 1.80134   3
  11  -4  -7 0.70797 1.49338   5
 -11   4   7 -1.5546 1.06526   3
  11   4  -7 1.50609 1.58018   1
  11   4  -7 4.17224 2.29333   5
  10  -4  -7 -0.5819 1.19368   1
  10  -4  -7 0.50181 1.73120   5
 -10   4   7 0.86589 1.51128   3
  10   4  -7 0.63110 1.20027   1
  10   4  -7 0.58638 1.51741   5
   9  -4  -7 12.1517 2.76035   5
   9  -4  -7 13.9090 2.56454   4
   9  -4  -7 14.3184 3.41107   1
   9   4  -7 16.0436 3.19719   1
  -9   4   7 11.5506 2.63832   3
   9   4  -7 14.8457 2.91379   5
   8  -4  -7 3.55420 1.85832   1
   8  -4  -7 0.62583 1.14408   4
   8  -4  -7 0.14872 1.31662   5
  -8   4   7 1.04580 1.29853   3
   8   4  -7 2.03827 1.39031   1
   8   4  -7 2.77625 1.50221   5
   7  -4  -7 16.5073 2.71326   5
   7  -4  -7 18.8848 3.16905   1
  -7  -4   7 15.0326 2.21505   2
   7  -4  -7 16.4106 2.57396   4
   7   4  -7 16.6101 2.88034   1
  -7   4   7 13.0297 2.36045   3
   7   4  -7 17.4729 2.87522   5
  -6  -4   7 21.1626 2.46741   2
   6  -4  -7 24.0569 3.40435   1
   6  -4  -7 26.6723 3.17378   5
   6  -4  -7 21.2204 2.93008   4
   6   4  -7 18.8769 2.78031   5
   6   4  -7 21.0359 2.62356   4
  -6   4   7 16.5985 2.49738   3
   6   4  -7 24.9341 3.49416   1
   5  -4  -7 0.80437 1.18032   1
  -5  -4   7 2.13130 1.01618   2
   5  -4  -7 2.75466 1.19292   4
   5  -4  -7 2.53503 1.19732   5
  -5   4   7 2.37799 0.93278   3
   5   4  -7 0.37783 0.99071   1
   5   4  -7 0.39080 0.90710   5
   5   4  -7 2.90836 1.08573   4
   4  -4  -7 174.234 8.59829   1
  -4  -4   7 167.820 7.92446   2
   4  -4  -7 184.881 8.57491   4
   4  -4  -7 179.094 7.86201   5
  -4   4   7 179.466 7.98697   3
   4   4  -7 177.268 8.06986   5
   4   4  -7 165.413 8.62317   1
   4   4  -7 168.681 8.24709   4
   3  -4  -7 53.1038 3.06773   5
   3  -4  -7 48.0818 3.63012   1
   3  -4  -7 53.3056 3.71798   4
  -3  -4   7 42.5006 3.22738   2
   3   4  -7 50.1915 3.21607   5
  -3   4   7 50.2356 3.23559   3
  -3   4   7 46.9745 2.83524   2
   3   4  -7 52.3427 3.76152   4
   3   4  -7 54.3533 4.13318   1
  -3   4   7 49.5286 3.01239   5
   2  -4  -7 5.96547 1.44602   1
   2  -4  -7 3.80369 1.01238   2
   2  -4  -7 5.59149 0.95624   5
   2  -4  -7 5.94967 1.45464   4
  -2  -4   7 5.03458 1.28519   2
   2   4  -7 5.30119 1.36721   4
   2   4  -7 4.96724 1.80404   1
  -2   4   7 3.35566 0.97410   3
   2   4  -7 8.42869 1.34950   5
  -2   4   7 5.17960 1.09013   2
   1  -4  -7 255.273 10.9351   2
   1  -4  -7 266.387 10.8688   1
  -1  -4   7 284.671 11.3303   2
   1  -4  -7 266.317 11.3953   4
   1   4  -7 269.478 10.3347   5
   1   4  -7 252.146 11.4691   4
  -1   4   7 252.727 10.6302   3
   1   4  -7 253.173 11.4351   1
  -1   4   7 258.125 10.7202   2
   0  -4   7 89.1498 4.98307   2
   0  -4  -7 85.5957 4.91793   2
   0  -4  -7 89.4978 4.46534   1
   0  -4  -7 89.0363 5.03072   4
   0   4  -7 98.7375 4.63804   5
   0   4   7 92.0684 4.68976   3
   0   4  -7 79.6185 5.10574   4
   0   4  -7 80.3200 5.04993   1
   0   4   7 93.6077 4.85117   2
   1  -4   7 11.4695 1.90761   2
  -1  -4  -7 15.9744 2.27714   2
  -1  -4  -7 18.8249 2.45760   4
  -1   4  -7 9.17884 1.86700   4
   1   4   7 12.2977 1.87852   3
  -1   4  -7 17.5954 2.54417   1
   1   4   7 16.3563 2.16996   2
   2  -4   7 50.4862 3.70310   2
  -2  -4  -7 53.9707 3.72654   4
  -2  -4  -7 54.1358 3.91540   2
   2   4   7 53.6145 3.72490   2
   2   4   7 64.2287 3.73708   3
  -2   4  -7 59.5211 4.03778   1
  -2   4  -7 57.2697 4.08840   4
  -3  -4  -7 6.22951 1.60120   4
  -3  -4  -7 9.43818 2.05759   2
   3  -4   7 7.72095 1.86425   2
  -3   4  -7 9.82025 2.08180   4
   3   4   7 7.74563 1.83223   2
   3   4   7 15.4372 2.12555   3
  -3   4  -7 8.53270 1.74723   1
  -4  -4  -7 271.006 12.6244   2
  -4  -4  -7 279.756 11.6765   4
   4  -4   7 268.009 12.2066   2
   4   4   7 285.015 12.0474   3
  -4   4  -7 269.106 12.4077   4
  -4   4  -7 280.638 11.9738   1
   4   4   7 280.657 12.4388   2
   5  -4   7 6.07812 1.60148   2
  -5  -4  -7 8.66757 2.11435   2
   5   4   7 5.21082 1.44304   3
  -5   4  -7 3.92142 1.67930   1
  -5   4  -7 6.34268 1.82274   4
   6  -4   7 3.98299 1.36068   2
  -6  -4  -7 8.30298 2.15061   2
  -6   4  -7 6.46448 1.87047   4
  -6   4  -7 4.88129 1.75562   2
   6   4   7 7.55646 1.81584   3
  -7  -4  -7 39.7986 4.70873   2
   7  -4   7 35.8565 4.16037   2
   7   4   7 40.3691 4.38386   3
  -7   4  -7 36.6191 4.02649   4
  -7   4  -7 40.0444 4.73199   2
   8  -4   7 0.69702 0.90785   2
  -8  -4  -7 1.31291 1.15543   2
   8   4   7 3.82803 1.76106   3
  -8   4  -7 -1.8271 0.68632   2
   9  -4   7 15.9178 3.12988   2
  -9  -4  -7 20.7333 3.68212   2
   9   4   7 18.5110 3.36372   3
  -9   4  -7 18.6831 3.48443   2
  10  -5  -7 0.70748 1.73460   1
  10  -5  -7 -2.0617 1.71847   5
 -10   5   7 -1.0509 1.33321   3
  10   5  -7 1.14503 1.73925   5
  10   5  -7 0.80074 1.78331   1
   9  -5  -7 1.86889 1.76143   5
   9  -5  -7 1.96476 1.12910   4
   9  -5  -7 -0.2605 1.13995   1
   9   5  -7 -0.1205 1.44393   5
   9   5  -7 0.61484 1.50663   1
  -9   5   7 -0.0740 0.93750   3
   8  -5  -7 0.09148 1.25660   1
   8  -5  -7 1.91502 1.66201   5
   8  -5  -7 1.22813 1.46708   4
   8   5  -7 1.88673 1.45724   1
   8   5  -7 0.86463 1.15209   5
  -8   5   7 2.78352 1.31319   3
   7  -5  -7 -0.2945 0.69323   5
   7  -5  -7 0.60728 1.13256   1
   7  -5  -7 1.13673 0.97706   4
  -7  -5   7 -0.8758 0.80205   2
  -7   5   7 -1.8625 0.82630   3
   7   5  -7 0.17806 0.74972   5
   7   5  -7 0.44564 1.41467   1
  -6  -5   7 -0.9363 0.72672   2
   6  -5  -7 0.58012 0.96899   5
   6  -5  -7 -2.0854 0.52875   1
   6  -5  -7 0.05468 0.80959   4
  -6   5   7 -0.9824 0.47866   3
   6   5  -7 -0.3020 0.72524   5
   6   5  -7 -1.1688 0.77529   4
   6   5  -7 0.46583 0.99075   1
   5  -5  -7 17.4768 2.41004   5
   5  -5  -7 18.9496 2.73273   4
   5  -5  -7 17.6369 2.83485   1
  -5  -5   7 20.3495 2.49482   2
   5   5  -7 14.6373 2.20125   4
   5   5  -7 17.4822 2.48180   5
   5   5  -7 16.6878 2.79407   1
  -5   5   7 19.9227 2.56723   3
  -4  -5   7 9.71939 1.77711   2
   4  -5  -7 9.24717 1.64374   5
   4  -5  -7 8.44751 1.82280   4
   4  -5  -7 12.0033 2.26921   1
  -4   5   7 9.16188 1.64772   3
  -4   5   7 10.8844 1.77113   5
   4   5  -7 4.12619 1.89778   1
   4   5  -7 7.13653 1.75112   4
   4   5  -7 8.91917 1.71755   5
  -3  -5   7 67.8139 4.07314   2
   3  -5  -7 58.9403 4.01890   1
   3  -5  -7 61.8504 4.19882   4
   3  -5  -7 66.6849 3.57926   5
   3   5  -7 60.2510 4.39252   1
  -3   5   7 58.3944 3.78911   3
   3   5  -7 57.7708 4.02934   4
   3   5  -7 63.3753 3.80851   5
  -3   5   7 60.7798 3.55213   5
   2  -5  -7 147.678 7.18756   4
   2  -5  -7 143.546 6.77549   1
  -2  -5   7 134.230 6.71669   2
   2  -5  -7 134.475 6.23079   2
   2   5  -7 127.272 6.90804   4
  -2   5   7 130.072 6.02977   2
   2   5  -7 127.201 7.07455   1
  -2   5   7 140.163 6.51711   3
   2   5  -7 136.881 6.26302   5
   1  -5  -7 6.58837 1.40712   2
  -1  -5   7 7.52767 1.57613   2
   1  -5  -7 6.79312 1.52257   4
   1  -5  -7 9.05801 1.55393   1
   1   5  -7 9.61444 1.83864   4
  -1   5   7 10.6877 1.73010   3
   1   5  -7 13.3501 1.68807   5
   1   5  -7 8.00232 1.94566   1
  -1   5   7 9.09046 1.49656   2
   0  -5  -7 44.8399 3.29532   2
   0  -5   7 51.3969 3.58280   2
   0  -5  -7 48.7428 3.54143   4
   0  -5  -7 50.4720 2.98494   1
   0   5  -7 49.1553 2.85615   5
   0   5   7 49.3660 3.30095   3
   0   5  -7 49.7621 3.73410   4
   0   5   7 42.1673 3.09872   2
   0   5  -7 50.0127 3.98022   1
  -1  -5  -7 -0.8878 0.72036   4
  -1  -5  -7 -0.4736 0.65520   2
   1  -5   7 -0.8389 0.73170   2
   1   5   7 -1.1299 0.52864   2
   1   5   7 -1.3546 0.79292   3
  -1   5  -7 2.03419 1.43931   1
  -1   5  -7 0.20975 0.70344   4
   2  -5   7 36.7950 3.14130   2
  -2  -5  -7 31.0842 3.17870   4
  -2  -5  -7 33.2828 3.51934   2
   2   5   7 33.4133 2.83500   3
  -2   5  -7 38.8356 3.30595   1
  -2   5  -7 28.4365 3.40467   4
   2   5   7 36.0900 3.00051   2
  -3  -5  -7 107.392 6.27067   2
   3  -5   7 108.693 6.07183   2
  -3  -5  -7 116.133 5.84443   4
  -3   5  -7 106.797 6.00567   1
  -3   5  -7 102.758 6.26001   4
   3   5   7 113.411 5.93713   3
   4  -5   7 1.58794 0.95027   2
  -4  -5  -7 1.81019 0.94798   4
  -4  -5  -7 1.30041 1.11071   2
  -4   5  -7 0.07587 1.11357   1
   4   5   7 1.66290 1.02065   3
  -4   5  -7 1.26091 1.10654   4
  -5  -5  -7 18.4864 3.08385   2
   5  -5   7 21.4235 2.95245   2
  -5   5  -7 15.2297 2.56720   4
   5   5   7 21.0658 2.93558   3
  -5   5  -7 23.0570 2.99631   1
  -6  -5  -7 6.44115 1.98118   2
   6  -5   7 9.74363 2.15266   2
  -6   5  -7 9.46050 2.07322   4
   6   5   7 7.97262 2.00791   3
  -7  -5  -7 27.2492 3.75408   2
   7  -5   7 24.1235 3.42270   2
  -7   5  -7 24.9859 3.45797   4
   7   5   7 23.8550 3.55081   3
  -7   5  -7 17.2288 3.19957   2
  -8  -5  -7 0.74769 1.45308   2
   8  -5   7 -1.8719 0.71763   2
  -8   5  -7 -1.9851 0.72192   2
   8   5   7 0.23195 1.02924   3
   9  -5   7 5.29528 2.05142   2
  -9  -5  -7 -0.1990 1.21331   2
  -9   5  -7 -0.1299 1.72156   2
   9   5   7 1.56378 1.77217   3
  10  -6  -7 0.33217 1.55914   1
  10  -6  -7 3.28078 2.12377   5
  10   6  -7 3.32380 1.75380   5
 -10   6   7 1.23385 1.44417   3
  10   6  -7 1.80252 1.79605   1
   9  -6  -7 1.53225 1.19987   4
   9  -6  -7 1.93009 1.64179   1
   9  -6  -7 3.20930 2.01940   5
  -9   6   7 2.68974 1.76829   3
   9   6  -7 3.50738 1.57939   5
   9   6  -7 2.82202 1.77314   1
   8  -6  -7 0.33440 0.96526   4
   8  -6  -7 2.54893 1.62029   5
   8  -6  -7 0.92076 1.18104   1
  -8  -6   7 1.66811 1.30262   2
  -8   6   7 1.79087 1.53989   3
   8   6  -7 2.37062 1.39376   5
   8   6  -7 0.90936 1.13686   1
   7  -6  -7 6.12199 1.95498   1
   7  -6  -7 1.64229 1.43081   5
   7  -6  -7 8.17543 2.17347   4
  -7  -6   7 4.28562 1.47839   2
   7   6  -7 2.92330 1.69342   1
   7   6  -7 3.29297 1.71587   5
  -7   6   7 5.82316 1.91182   3
   6  -6  -7 6.06291 1.99790   4
   6  -6  -7 6.10876 1.94185   1
  -6  -6   7 7.90995 1.66680   2
   6  -6  -7 9.54311 2.04342   5
  -6   6   7 5.85315 1.74656   5
   6   6  -7 4.98259 1.95899   1
  -6   6   7 6.05374 1.77480   3
   6   6  -7 7.04080 1.78498   5
   6   6  -7 7.14695 1.75149   4
  -5  -6   7 13.1198 2.13665   2
   5  -6  -7 14.0902 2.43006   4
   5  -6  -7 12.8647 2.14836   5
   5  -6  -7 11.4211 2.52643   1
   5   6  -7 11.6174 2.05803   4
  -5   6   7 14.9456 2.33462   3
  -5   6   7 12.4169 2.12640   5
   5   6  -7 15.2972 2.34342   5
   5   6  -7 11.4845 2.38783   1
   4  -6  -7 82.3128 5.40658   1
   4  -6  -7 86.8195 5.46885   4
  -4  -6   7 98.1524 5.36022   2
   4  -6  -7 81.8001 4.82695   5
   4   6  -7 104.844 5.45344   5
   4   6  -7 91.6310 5.82199   1
  -4   6   7 103.270 5.44267   3
   4   6  -7 91.5746 5.32064   4
  -4   6   7 93.8998 5.09607   5
   3  -6  -7 70.5128 4.44007   1
   3  -6  -7 64.9045 3.71683   5
   3  -6  -7 69.4278 4.54981   4
  -3  -6   7 75.9767 4.44851   2
   3   6  -7 69.5201 4.13782   5
   3   6  -7 59.1673 4.22189   4
  -3   6   7 62.5993 3.81298   5
  -3   6   7 71.0788 4.27149   3
   3   6  -7 66.4235 4.92235   1
   2  -6  -7 5.73131 1.59268   4
   2  -6  -7 4.57206 1.34874   1
  -2  -6   7 2.06889 1.18176   2
   2   6  -7 2.66498 1.78186   1
  -2   6   7 2.71080 1.17479   3
   2   6  -7 5.29232 1.31912   5
   2   6  -7 4.01390 1.51565   4
  -1  -6   7 25.0430 2.86770   2
   1  -6  -7 29.7347 2.50443   1
   1  -6  -7 30.5087 3.27970   4
   1  -6  -7 29.6649 2.38704   2
   1   6  -7 26.3639 3.17228   4
   1   6  -7 25.4573 3.32311   1
   1   6  -7 27.8439 2.33061   5
  -1   6   7 31.1433 2.71751   3
   0  -6  -7 7.67526 1.67283   4
   0  -6   7 9.39392 1.90976   2
   0  -6  -7 11.3688 1.85573   2
   0   6  -7 13.1545 2.32340   1
   0   6   7 10.9469 1.91060   3
   0   6  -7 10.4678 2.12764   4
   0   6  -7 12.8998 1.72438   5
  -1  -6  -7 3.51859 1.31405   4
   1  -6   7 1.37948 0.96519   2
  -1  -6  -7 3.13161 1.16633   2
  -1   6  -7 2.00838 1.07600   5
   1   6   7 2.49531 1.10697   3
  -1   6  -7 5.06024 1.72550   1
  -1   6  -7 2.66492 1.11815   4
  -2  -6  -7 33.9545 2.98734   4
  -2  -6  -7 40.7581 3.35623   2
   2  -6   7 34.8317 3.04533   2
   2   6   7 38.0837 3.18962   3
  -2   6  -7 40.5937 3.53932   1
  -2   6  -7 33.0765 3.73879   4
   3  -6   7 16.4864 2.53034   2
  -3  -6  -7 13.4542 2.34176   2
  -3  -6  -7 21.5091 2.51459   4
  -3   6  -7 17.8550 2.71329   1
   3   6   7 16.3938 2.47736   3
  -3   6  -7 19.9281 2.96851   4
   4  -6   7 83.0680 5.31635   2
  -4  -6  -7 85.4181 4.78796   4
  -4  -6  -7 80.0248 5.47524   2
  -4   6  -7 89.0573 5.45654   1
   4   6   7 89.8291 5.32671   3
  -4   6  -7 81.6985 5.56121   4
   5  -6   7 0.90688 1.17383   2
  -5  -6  -7 1.57230 1.15251   2
   5   6   7 0.80837 0.98664   3
  -5   6  -7 0.91841 1.33013   4
  -5   6  -7 -1.3007 1.07283   1
  -6  -6  -7 25.2631 3.55847   2
   6  -6   7 22.7875 3.27756   2
   6   6   7 25.9317 3.53883   3
  -6   6  -7 26.8487 3.57777   4
  -6   6  -7 19.6513 2.95898   1
   7  -6   7 16.4419 2.81898   2
  -7  -6  -7 16.2739 3.17312   2
  -7   6  -7 21.4306 3.27201   4
   7   6   7 17.8992 3.15423   3
  -7   6  -7 15.8512 3.19288   2
   8  -6   7 -1.5346 0.71657   2
  -8  -6  -7 -0.2244 0.89517   2
   8   6   7 0.05129 0.85996   3
  -8   6  -7 3.56773 1.71815   4
  -8   6  -7 -0.0538 1.06150   2
   9  -6   7 0.15686 1.39944   2
  -9  -6  -7 -1.5965 1.41277   2
   9   6   7 0.29271 1.43308   3
  -9   6  -7 -0.1721 1.77020   2
  10  -7  -7 -1.9860 1.34629   4
  10  -7  -7 -0.0345 1.73847   5
  10  -7  -7 -1.0100 1.98133   1
 -10   7   7 -0.9036 1.51225   5
  10   7  -7 6.22155 2.14154   5
  10   7  -7 5.30532 2.03963   1
 -10   7   7 0.60892 1.71555   3
   9  -7  -7 1.05592 2.17557   1
   9  -7  -7 0.50919 1.85128   5
   9  -7  -7 1.86627 1.62700   4
  -9   7   7 3.49188 1.62992   3
  -9   7   7 4.66200 2.06058   5
   9   7  -7 2.61429 1.63714   5
   9   7  -7 2.08266 1.80796   1
   8  -7  -7 35.7680 4.35733   5
  -8  -7   7 34.5881 3.64400   2
   8  -7  -7 29.1958 3.72499   4
   8  -7  -7 38.4924 4.97793   1
   8   7  -7 28.4572 3.99255   5
   8   7  -7 26.5628 4.02807   1
  -8   7   7 36.6570 4.46521   5
  -8   7   7 24.1232 3.58232   3
   7  -7  -7 -0.1274 0.98305   4
  -7  -7   7 1.47018 1.02631   2
   7  -7  -7 0.85317 1.35617   5
   7  -7  -7 2.51249 1.45950   1
  -7   7   7 0.53125 1.03460   3
   7   7  -7 2.24937 1.42711   1
  -7   7   7 2.29649 1.49623   5
   7   7  -7 3.51558 1.43710   5
   6  -7  -7 33.5781 4.29953   1
   6  -7  -7 35.3124 3.97171   4
  -6  -7   7 35.1132 3.54959   2
   6  -7  -7 27.8481 3.42473   5
   6   7  -7 29.7145 3.64683   5
   6   7  -7 30.7422 4.20450   1
  -6   7   7 33.1558 3.69866   3
  -6   7   7 32.7122 3.85939   5
   5  -7  -7 37.8735 3.19749   5
   5  -7  -7 41.6381 4.28023   4
  -5  -7   7 30.5000 3.38440   2
   5  -7  -7 39.4368 4.30315   1
  -5   7   7 43.9198 3.41178   3
   5   7  -7 38.0294 3.26892   4
   5   7  -7 41.5645 3.41484   5
   5   7  -7 41.3521 4.55443   1
  -5   7   7 34.8655 3.14030   5
   4  -7  -7 -0.1322 0.81139   4
   4  -7  -7 0.08515 0.80314   5
   4  -7  -7 0.57862 1.10494   1
  -4  -7   7 2.31220 1.20993   2
   4   7  -7 0.33112 1.04572   4
  -4   7   7 0.73807 0.86638   5
   4   7  -7 0.30193 0.89969   5
  -4   7   7 -0.5113 0.88159   3
   4   7  -7 0.81999 1.16606   1
   3  -7  -7 13.5685 1.84932   5
  -3  -7   7 10.2911 1.96150   2
   3  -7  -7 18.1868 2.61216   1
   3  -7  -7 14.5456 2.51126   4
   3   7  -7 10.0057 2.08795   4
   3   7  -7 9.03626 2.15158   1
  -3   7   7 12.8483 2.16629   3
  -3   7   7 9.87954 1.63408   5
   3   7  -7 12.1233 2.01635   5
   2  -7  -7 149.554 6.93112   1
   2  -7  -7 138.023 7.15192   4
  -2  -7   7 135.558 6.96401   2
   2   7  -7 126.653 7.06402   4
   2   7  -7 135.034 6.58037   5
   2   7  -7 128.153 7.50453   1
  -2   7   7 131.701 6.70144   3
  -1  -7   7 38.7249 3.17872   2
   1  -7  -7 42.1757 2.93959   2
   1  -7  -7 52.0258 3.62702   4
   1  -7  -7 38.2051 2.86442   1
   1   7  -7 45.7727 3.13021   5
   1   7  -7 37.3625 4.17467   1
  -1   7   7 35.4589 3.16035   3
   1   7  -7 40.9909 3.47648   4
   0  -7  -7 57.7269 3.96935   4
   0  -7   7 56.8276 4.05405   2
   0  -7  -7 59.2102 3.80368   2
   0   7  -7 60.1296 4.44459   1
   0   7  -7 55.3292 4.32505   4
   0   7  -7 61.9608 3.70622   5
   0   7   7 58.0696 4.00926   3
  -1  -7  -7 0.79373 0.89377   2
  -1  -7  -7 -0.7744 0.56261   4
   1  -7   7 -0.6646 0.61388   2
  -1   7  -7 -0.9832 0.89832   5
  -1   7  -7 0.59649 0.77690   4
  -1   7  -7 1.47730 1.47144   1
   1   7   7 -1.9391 0.83804   3
   2  -7   7 105.158 5.92381   2
  -2  -7  -7 103.898 5.68742   4
  -2  -7  -7 113.526 6.06284   2
  -2   7  -7 93.7976 6.08038   4
  -2   7  -7 100.285 6.18806   1
   2   7   7 101.625 5.83639   3
  -3  -7  -7 3.41611 1.47362   2
   3  -7   7 5.78164 1.40445   4
  -3  -7  -7 5.94174 1.52459   4
   3  -7   7 7.28688 1.85750   2
  -3   7  -7 5.69548 1.99312   1
   3   7   7 7.55850 1.89792   3
  -3   7  -7 5.00395 1.61450   4
  -4  -7  -7 3.09539 1.53022   2
   4  -7   7 7.82023 1.96086   2
   4  -7   7 3.37741 1.42303   4
   4   7   7 5.03146 1.46754   3
  -4   7  -7 4.85387 1.63127   4
  -4   7  -7 5.49183 1.88385   1
   5  -7   7 0.68076 1.07965   4
  -5  -7  -7 1.84905 1.26221   2
   5  -7   7 -0.5057 0.95106   2
  -5   7  -7 0.25540 1.27995   4
   5   7   7 -0.9523 0.85945   3
  -5   7  -7 0.23838 1.23409   1
   6  -7   7 36.1865 3.78421   4
   6  -7   7 37.3125 4.17138   2
  -6  -7  -7 34.3619 4.17740   2
   6   7   7 35.6862 4.21824   3
  -6   7  -7 30.1969 4.03659   4
  -6   7  -7 37.8000 4.10374   1
  -7  -7  -7 2.84540 1.65972   2
   7  -7   7 2.39160 1.24811   2
   7  -7   7 1.48537 1.04573   4
   7   7   7 2.61630 1.42602   3
  -7   7  -7 2.45703 1.55726   2
  -7   7  -7 2.35731 1.26833   4
  -8  -7  -7 12.1337 3.05134   2
   8  -7   7 18.1332 3.00801   2
   8   7   7 15.4675 3.33121   3
  -8   7  -7 16.5225 3.24414   2
  -8   7  -7 14.6710 3.14147   4
   9  -7   7 -1.2083 1.17519   2
  -9  -7  -7 0.94720 1.80536   2
  -9   7  -7 0.36151 1.63867   2
   9   7   7 1.51034 1.69962   3
  10  -8  -7 -1.0437 1.44185   4
  10  -8  -7 -0.2410 1.48441   5
  10   8  -7 1.54094 1.31280   1
  10   8  -7 3.24801 1.93952   5
 -10   8   7 0.91607 1.30261   5
 -10   8   7 1.05474 2.02171   3
   9  -8  -7 4.67577 2.33102   5
   9  -8  -7 5.20274 2.12302   4
  -9  -8   7 2.00412 1.61903   2
   9  -8  -7 4.90757 2.09939   1
   9   8  -7 3.79019 2.07637   1
  -9   8   7 4.78655 2.07998   3
   9   8  -7 8.02605 2.34461   5
  -9   8   7 3.84913 2.00874   5
   8  -8  -7 8.76288 2.29327   5
   8  -8  -7 7.11536 2.67187   1
  -8  -8   7 8.25511 1.91047   2
   8  -8  -7 7.35995 2.35502   4
  -8   8   7 11.9273 2.51492   3
  -8   8   7 5.16155 1.95310   5
   8   8  -7 6.10638 2.24297   5
   8   8  -7 9.46684 2.68680   1
   7  -8  -7 7.39474 2.21704   1
   7  -8  -7 9.96477 2.50034   4
   7  -8  -7 8.02541 2.21486   5
  -7  -8   7 5.34839 1.76736   2
  -7   8   7 5.35394 1.92512   3
   7   8  -7 7.05732 2.17262   1
  -7   8   7 6.86142 2.14111   5
   7   8  -7 7.04449 2.05240   5
   6  -8  -7 21.9994 3.10388   5
   6  -8  -7 17.4182 2.85421   4
   6  -8  -7 23.0337 3.72269   1
  -6  -8   7 18.9151 2.85926   2
  -6   8   7 16.8896 2.72511   3
   6   8  -7 26.1155 3.88758   1
   6   8  -7 20.8540 3.11446   5
  -6   8   7 21.5497 3.08291   5
   5  -8  -7 5.23071 1.53524   5
   5  -8  -7 4.30377 1.83065   1
   5  -8  -7 6.11098 1.82007   4
  -5  -8   7 4.36139 1.54295   2
  -5   8   7 9.38137 1.98684   3
   5   8  -7 7.36372 1.92819   5
   5   8  -7 7.02695 1.76504   4
  -5   8   7 7.30826 1.68690   5
   5   8  -7 3.92923 2.12283   1
   4  -8  -7 -0.7198 1.03742   1
  -4  -8   7 0.30080 0.83553   2
   4  -8  -7 -0.4281 0.96679   4
   4  -8  -7 -0.0336 0.90251   5
   4   8  -7 1.12512 0.85080   5
  -4   8   7 0.48679 1.16433   3
   4   8  -7 1.12095 1.38918   1
   4   8  -7 0.60100 0.73762   4
  -4   8   7 0.61095 0.97671   5
  -3  -8   7 5.90196 1.53278   2
   3  -8  -7 4.01881 1.56973   4
   3  -8  -7 2.19006 1.36899   1
   3   8  -7 2.41661 1.43425   4
  -3   8   7 3.99179 1.27504   5
   3   8  -7 5.21541 1.52906   5
   3   8  -7 5.34866 2.07553   1
  -3   8   7 1.93396 1.29905   3
   2  -8  -7 3.82833 1.44827   4
  -2  -8   7 3.86629 1.26568   2
   2  -8  -7 4.12873 1.38787   1
   2   8  -7 2.92199 1.10623   5
   2   8  -7 1.68516 1.85304   1
  -2   8   7 6.22419 1.69250   3
   2   8  -7 4.37921 1.45421   4
   1  -8  -7 66.5567 4.41469   1
  -1  -8   7 62.7364 4.23729   2
   1  -8  -7 56.1693 4.18177   4
   1   8  -7 60.2276 4.72129   1
   1   8  -7 69.3719 4.19741   5
  -1   8   7 68.9472 4.31463   3
   1   8  -7 57.1032 4.39770   4
   0  -8  -7 22.1696 2.54405   2
   0  -8   7 19.6798 2.72591   2
   0  -8  -7 18.1659 2.62539   4
   0   8  -7 18.2502 2.80167   4
   0   8  -7 19.5050 2.54496   5
   0   8  -7 18.7703 3.18230   1
   0   8   7 20.7035 2.78839   3
  -1  -8  -7 112.379 6.05542   4
   1  -8   7 104.787 6.03437   2
  -1  -8  -7 103.457 5.83996   2
  -1   8  -7 108.820 6.52238   4
  -1   8  -7 114.381 5.76112   5
   1   8   7 102.358 6.01250   3
  -1   8  -7 108.003 6.49616   1
   2  -8   7 11.1569 2.06361   2
  -2  -8  -7 8.45467 1.78242   4
  -2  -8  -7 7.89588 1.81360   2
   2  -8   7 11.5971 2.01606   4
   2   8   7 11.5825 2.30577   3
  -2   8  -7 8.17304 2.05801   1
  -2   8  -7 10.3103 2.22846   4
   3  -8   7 -0.6676 1.02615   2
  -3  -8  -7 -0.3816 0.78275   4
   3  -8   7 0.07970 0.70604   4
  -3  -8  -7 -0.4643 0.72897   2
  -3   8  -7 0.51838 1.14992   1
  -3   8  -7 0.49285 1.05085   4
   3   8   7 1.94765 1.14612   3
   4  -8   7 15.7842 2.67146   2
   4  -8   7 12.2445 2.15417   4
  -4  -8  -7 12.8238 2.53834   2
  -4   8  -7 10.0696 2.39475   4
  -4   8  -7 9.15278 2.29326   1
   4   8   7 18.2024 2.83489   3
   5  -8   7 1.41818 1.22700   4
   5  -8   7 3.79014 1.69595   2
  -5  -8  -7 4.01406 1.59809   2
   5   8   7 3.51674 1.58587   3
  -5   8  -7 4.36807 1.57318   1
  -5   8  -7 0.26583 1.33534   4
   6  -8   7 4.06305 1.57687   4
   6  -8   7 2.40273 1.52856   2
  -6  -8  -7 3.23319 1.50132   2
  -6   8  -7 6.02257 1.92686   1
  -6   8  -7 1.46759 1.27784   4
   6   8   7 5.20827 1.80116   3
   7  -8   7 54.0574 4.52545   2
   7  -8   7 56.1807 4.22768   4
  -7  -8  -7 61.8153 5.11219   2
  -7   8  -7 53.0380 5.54155   4
   7   8   7 47.9087 5.40690   3
  -7   8  -7 61.3223 4.96052   1
   8  -8   7 0.34266 1.29965   2
   8  -8   7 -0.9439 1.15652   4
  -8  -8  -7 -1.2336 1.05191   2
   8   8   7 0.64733 1.13578   3
  -8   8  -7 -0.5450 1.58399   4
  -8   8  -7 0.49077 1.78653   2
  -9  -9   7 0.97547 1.55753   2
   9  -9  -7 -0.0091 1.61509   4
   9  -9  -7 0.05900 1.45906   1
   9  -9  -7 1.14529 2.00183   5
   9   9  -7 1.58675 1.59139   1
  -9   9   7 0.52578 1.74095   3
   9   9  -7 3.57143 2.05878   5
  -9   9   7 1.74871 1.77166   5
   8  -9  -7 6.89275 2.03435   5
   8  -9  -7 8.62843 2.56234   4
   8  -9  -7 14.5362 3.20162   1
  -8  -9   7 5.97730 1.91966   2
  -8   9   7 7.18432 2.35244   3
   8   9  -7 8.02726 2.34326   1
   8   9  -7 10.0094 2.46848   5
  -8   9   7 7.02122 2.09363   5
   7  -9  -7 0.97363 1.64359   1
   7  -9  -7 -0.0693 1.02533   5
  -7  -9   7 -0.4345 1.05392   2
   7  -9  -7 -0.7727 1.01803   4
   7   9  -7 2.99650 1.54627   5
  -7   9   7 0.38736 0.98317   3
   7   9  -7 2.02850 1.80070   1
  -7   9   7 0.54317 1.27616   5
   6  -9  -7 -0.7210 1.40263   4
   6  -9  -7 -0.1091 1.18833   5
   6  -9  -7 -0.9205 1.08064   1
  -6  -9   7 -0.2579 1.10418   2
   6   9  -7 -1.1922 1.46224   1
  -6   9   7 -0.8222 1.21488   3
   6   9  -7 0.48481 0.95677   5
  -6   9   7 -0.7506 1.02848   5
   5  -9  -7 9.16624 2.03365   5
  -5  -9   7 8.06656 2.01182   2
   5  -9  -7 9.37806 2.20784   4
   5  -9  -7 6.24441 2.08800   1
   5   9  -7 8.92212 2.05416   5
   5   9  -7 8.55964 2.40670   1
  -5   9   7 10.8135 2.38091   3
  -5   9   7 9.37405 2.15666   5
   4  -9  -7 0.73821 1.26078   1
  -4  -9   7 1.06971 0.93382   2
   4  -9  -7 2.43596 1.45914   4
   4   9  -7 1.73879 1.13361   5
   4   9  -7 -0.6722 0.59580   4
   4   9  -7 0.62325 1.31105   1
  -4   9   7 2.31400 1.19075   5
  -4   9   7 -0.0707 1.26102   3
   3  -9  -7 90.8078 5.82181   4
   3  -9  -7 87.2809 5.52973   1
  -3  -9   7 101.615 5.84078   2
   3   9  -7 101.319 5.61788   5
   3   9  -7 90.5795 5.68209   4
  -3   9   7 101.104 5.87662   5
  -3   9   7 97.3137 5.80494   3
   3   9  -7 85.4002 6.21719   1
  -2  -9   7 9.37765 2.02975   2
   2  -9  -7 7.74646 1.84182   4
   2  -9  -7 4.84009 1.46831   1
   2   9  -7 10.6507 2.10506   5
   2   9  -7 8.81146 1.95882   4
  -2   9   7 7.87200 2.09686   3
   2   9  -7 11.9522 2.68100   1
   1  -9  -7 3.92818 1.62667   4
  -1  -9   7 3.57500 1.39604   2
   1   9  -7 2.65590 1.95049   1
   1   9  -7 -0.4079 0.71358   4
   1   9  -7 1.33690 1.37504   5
  -1   9   7 1.54039 1.45418   3
   0  -9  -7 12.0244 1.99013   2
   0  -9   7 15.9430 2.51547   2
   0  -9  -7 13.1458 2.34497   4
   0   9  -7 21.6741 2.77167   5
   0   9  -7 17.4195 2.94832   1
   0   9  -7 14.0714 2.56475   4
   0   9   7 14.9727 2.40909   3
   1  -9   7 3.20823 1.56318   2
  -1  -9  -7 5.85595 1.48520   2
   1  -9   7 2.48198 1.13417   4
  -1  -9  -7 2.52054 1.35186   4
  -1   9  -7 5.73675 1.69838   4
  -1   9  -7 3.45816 1.56256   5
   1   9   7 4.33541 1.71841   3
  -1   9  -7 0.17811 1.63070   1
   2  -9   7 11.2649 2.13316   2
  -2  -9  -7 13.7758 2.28147   2
  -2  -9  -7 13.7092 2.19817   4
   2  -9   7 10.4496 1.94346   4
  -2   9  -7 7.15810 1.80211   5
  -2   9  -7 8.69504 2.41599   1
   2   9   7 13.5451 2.38694   3
  -2   9  -7 12.0319 2.45058   4
   3  -9   7 46.3649 3.77281   4
   3  -9   7 45.5780 3.76345   2
  -3  -9  -7 42.0852 3.63557   2
  -3  -9  -7 47.4437 3.49492   4
   3   9   7 46.5182 4.01993   3
  -3   9  -7 38.1698 4.50559   4
  -3   9  -7 47.0180 4.09390   1
   4  -9   7 4.40717 1.65099   2
   4  -9   7 2.55142 1.13448   4
  -4  -9  -7 3.17678 1.61019   2
   4   9   7 4.00127 1.60788   3
  -4   9  -7 1.30219 1.19453   4
  -4   9  -7 3.50983 1.94954   1
  -5  -9  -7 37.5858 4.34873   2
   5  -9   7 38.7183 4.04004   4
   5  -9   7 43.3942 4.54229   2
  -5   9  -7 47.6899 4.15879   1
   5   9   7 45.1362 4.78910   3
  -5   9  -7 40.9071 4.76340   4
   6  -9   7 16.2581 2.62305   4
  -6  -9  -7 15.1262 3.18169   2
   6  -9   7 11.3439 2.39829   2
   6   9   7 10.8816 2.64453   3
  -6   9  -7 12.7562 2.82156   4
  -6   9  -7 12.3901 2.61706   1
  -7  -9  -7 -2.0486 1.43551   2
   7  -9   7 1.37473 1.44187   2
   7  -9   7 0.39945 1.13393   4
  -7   9  -7 2.90365 1.87978   1
  -7   9  -7 -2.0085 1.63058   4
   7   9   7 1.82520 1.37951   3
   8  -9   7 18.7381 3.56666   2
  -8  -9  -7 20.2049 3.81960   2
   8  -9   7 13.1785 2.49478   4
  -8   9  -7 19.7426 3.54972   4
  -8   9  -7 21.1083 3.79557   2
   8   9   7 19.8611 3.58073   3
   9 -10  -7 1.88482 2.05199   5
   9 -10  -7 0.54935 2.17175   1
  -9 -10   7 -2.1041 1.38985   2
   9 -10  -7 -0.6541 1.81239   4
  -9  10   7 -0.6169 1.28134   3
   9  10  -7 0.04494 1.13825   1
  -9  10   7 1.12027 1.32752   5
   9  10  -7 3.79584 2.02260   5
   8 -10  -7 2.82683 1.62408   4
   8 -10  -7 4.87500 2.16482   5
  -8 -10   7 2.79044 1.75793   2
   8 -10  -7 3.78679 1.80171   1
   8  10  -7 -0.7701 1.07067   1
  -8  10   7 3.48120 1.67061   3
   8  10  -7 5.67166 1.92801   5
  -8  10   7 4.98012 2.09642   5
   7 -10  -7 2.81038 2.18351   4
   7 -10  -7 8.77179 2.64606   1
  -7 -10   7 5.25794 2.03218   2
   7 -10  -7 4.67790 1.74741   5
  -7  10   7 2.15889 1.65500   5
  -7  10   7 4.82185 1.78293   3
   7  10  -7 7.31061 2.45921   1
   7  10  -7 8.77541 2.30304   5
   6 -10  -7 32.5777 4.14197   4
  -6 -10   7 23.3148 3.30351   2
   6 -10  -7 25.8508 3.77698   1
   6 -10  -7 30.2369 3.73530   5
  -6  10   7 26.4216 3.73046   3
  -6  10   7 28.7602 3.80785   5
   6  10  -7 23.4381 3.46862   5
   6  10  -7 27.3638 4.12762   1
  -5 -10   7 2.27344 1.49293   2
   5 -10  -7 -0.4395 1.38453   4
   5 -10  -7 1.30935 1.62131   1
  -5  10   7 3.58850 1.54575   5
   5  10  -7 4.49346 1.61733   5
  -5  10   7 4.47219 1.99397   3
   5  10  -7 3.41034 1.81036   1
   4 -10  -7 32.1412 3.87335   4
  -4 -10   7 24.2831 3.20048   2
   4 -10  -7 31.1390 3.70295   1
   4  10  -7 26.4452 3.38779   4
  -4  10   7 31.5222 3.78316   3
   4  10  -7 27.6388 3.43644   5
   4  10  -7 27.6893 4.21964   1
  -4  10   7 22.4012 3.02282   5
   3 -10  -7 2.17159 1.34649   4
   3 -10  -7 3.28380 1.51324   1
  -3 -10   7 1.67432 1.10270   2
  -3  10   7 1.27586 1.43261   3
   3  10  -7 1.55288 1.15326   5
   3  10  -7 3.45272 1.79178   1
   3  10  -7 1.83460 1.08161   4
  -2 -10   7 -0.5392 0.70809   2
   2 -10  -7 0.19354 0.81265   4
   2 -10  -7 0.75750 1.14311   1
   2  10  -7 0.68056 0.86124   4
   2  10  -7 -1.7842 1.09750   5
   2  10  -7 -1.1059 1.75807   1
  -2  10   7 -1.4875 0.77428   3
  -1 -10   7 -0.7283 0.64827   2
   1 -10  -7 0.69503 1.20553   4
   1  10  -7 1.53310 1.45779   1
  -1  10   7 -0.5876 0.93203   3
   1  10  -7 -0.2713 0.79619   4
   1  10  -7 -0.2836 1.15668   5
   0 -10   7 2.93055 1.54679   2
   0 -10  -7 1.90327 1.08300   4
   0  10   7 -0.6515 1.37884   3
   0  10  -7 5.35438 2.14559   1
   0  10  -7 0.33906 1.22316   4
   0  10  -7 2.84781 1.64891   5
  -1 -10  -7 -0.9080 0.75362   2
  -1 -10  -7 0.08770 0.96819   4
   1 -10   7 -0.1787 0.67827   4
   1 -10   7 -0.0316 1.09284   2
  -1  10  -7 -0.9651 0.75927   4
  -1  10  -7 2.52584 1.90075   1
   1  10   7 -2.1292 1.15422   3
  -1  10  -7 -1.5904 1.18604   5
  -2 -10  -7 3.82963 1.51724   4
   2 -10   7 7.63841 1.96026   2
  -2 -10  -7 4.23702 1.51388   2
   2 -10   7 6.60677 1.78375   4
  -2  10  -7 2.22463 1.47647   5
   2  10   7 3.63490 1.49590   3
  -2  10  -7 3.90081 1.90910   4
  -2  10  -7 0.78155 1.69271   1
  -3 -10  -7 5.98634 1.98159   2
   3 -10   7 8.17188 1.93220   2
   3 -10   7 6.59520 1.70290   4
  -3  10  -7 10.8474 2.72301   1
   3  10   7 8.07643 2.03564   3
  -3  10  -7 4.49641 1.74147   4
  -4 -10  -7 28.0579 3.68062   2
   4 -10   7 31.2111 3.67367   4
   4 -10   7 32.4519 3.80145   2
  -4  10  -7 24.9332 3.78757   1
   4  10   7 28.9823 3.87538   3
  -4  10  -7 22.9989 3.71375   4
   5 -10   7 0.57963 1.26829   4
  -5 -10  -7 -0.6795 0.83408   2
   5 -10   7 0.05576 0.96029   2
  -5  10  -7 -0.3022 1.42738   4
  -5  10  -7 0.08366 1.04648   1
   5  10   7 1.06318 1.41061   3
  -6 -10  -7 12.7643 2.93004   2
   6 -10   7 8.26662 2.16433   4
   6 -10   7 9.35979 2.30285   2
   6  10   7 16.7905 2.93428   3
  -6  10  -7 14.4315 3.09138   4
  -6  10  -7 8.34303 2.25146   1
  -7 -10  -7 -1.6255 0.96253   2
   7 -10   7 2.80816 1.62115   2
   7 -10   7 1.49603 1.53872   4
  -7  10  -7 -1.0655 1.14183   4
  -7  10  -7 0.78231 1.87536   1
   7  10   7 1.18368 1.07331   3
   8 -10   7 0.40951 1.49979   4
   8  10   7 2.40770 1.97377   3
  -8  10  -7 -2.1036 1.84173   4
  -8 -11   7 3.92592 1.62879   2
   8 -11  -7 8.70015 2.98136   1
   8 -11  -7 7.10881 2.59500   5
   8 -11  -7 6.56665 2.07168   4
  -8  11   7 5.83825 2.04917   3
  -8  11   7 5.37869 2.40771   5
   8  11  -7 6.87979 2.49107   1
  -7 -11   7 0.11057 1.52483   2
   7 -11  -7 3.49625 1.94390   5
   7 -11  -7 6.99158 2.57740   1
   7 -11  -7 1.82311 1.98890   4
   7  11  -7 1.57012 1.40461   1
   7  11  -7 4.22586 1.85645   5
  -7  11   7 0.44424 1.77107   3
  -7  11   7 1.58698 1.69326   5
   6 -11  -7 16.4156 3.14597   4
  -6 -11   7 15.1365 2.87472   2
   6 -11  -7 18.5290 3.30229   1
   6  11  -7 13.4386 2.75879   5
  -6  11   7 14.8304 2.81001   5
   6  11  -7 8.80349 2.82882   1
  -6  11   7 14.3190 2.83303   3
   5 -11  -7 21.4382 3.29949   1
   5 -11  -7 20.8378 3.38304   4
  -5 -11   7 18.5150 3.01331   2
   5  11  -7 15.9905 3.48730   1
  -5  11   7 19.6051 3.32331   3
  -5  11   7 22.7101 3.18609   5
   5  11  -7 16.2180 2.93058   5
  -4 -11   7 32.6895 3.95277   2
   4 -11  -7 32.2159 3.94284   1
   4 -11  -7 36.9999 4.31736   4
   4  11  -7 29.9000 3.81219   5
   4  11  -7 44.7111 5.12466   1
   4  11  -7 30.0666 3.61001   4
  -4  11   7 35.1474 4.00566   3
  -4  11   7 30.2212 3.54684   5
   3 -11  -7 4.93120 1.75956   1
  -3 -11   7 8.85572 1.99647   2
   3 -11  -7 6.69038 1.92992   4
   3  11  -7 4.81937 1.88681   4
   3  11  -7 9.67337 2.93898   1
   3  11  -7 6.86237 2.10866   5
  -3  11   7 10.3288 2.26635   3
  -2 -11   7 5.03289 1.84490   2
   2 -11  -7 9.98581 2.26837   4
   2  11  -7 7.04966 1.85728   4
  -2  11   7 7.74344 2.05735   3
   2  11  -7 8.45624 2.54012   1
   2  11  -7 5.93036 2.10383   5
   1 -11  -7 2.02726 1.48565   4
  -1 -11   7 3.26408 1.58481   2
   1  11  -7 3.71636 1.75387   4
  -1  11   7 -1.6296 1.38981   3
   1  11  -7 0.13859 1.89549   1
   1  11  -7 1.66852 1.71041   5
   0 -11  -7 11.1313 2.16754   4
   0 -11   7 12.1704 2.17381   4
   0 -11   7 13.9756 2.43404   2
   0  11   7 7.42043 2.26787   3
   0  11  -7 9.96885 2.34721   5
   0  11  -7 9.04845 2.70549   1
   0  11  -7 9.52249 2.24949   4
  -1 -11  -7 -0.4014 0.75303   4
   1 -11   7 -0.5953 1.03007   4
  -1 -11  -7 0.53004 0.96654   2
   1 -11   7 0.53307 1.20531   2
  -1  11  -7 -1.0514 1.42989   5
  -1  11  -7 -1.5795 1.57053   1
  -1  11  -7 -0.3331 1.18217   4
   1  11   7 -0.3402 1.06591   3
  -2 -11  -7 18.3083 2.75364   2
   2 -11   7 12.5125 2.35233   4
   2 -11   7 19.7257 2.93743   2
  -2 -11  -7 20.8036 2.86827   4
  -2  11  -7 12.6974 3.07142   1
   2  11   7 18.4006 2.98020   3
  -2  11  -7 8.58190 2.31495   4
  -2  11  -7 20.0954 2.99734   5
   3 -11   7 25.7203 3.52977   2
  -3 -11  -7 14.4437 2.67879   2
   3 -11   7 22.5281 3.24251   4
   3  11   7 19.8939 3.11964   3
  -3  11  -7 21.5006 3.70657   1
  -3  11  -7 16.5707 2.97049   4
   4 -11   7 -0.7329 0.78227   4
  -4 -11  -7 -0.7787 1.30224   2
   4 -11   7 -0.7988 1.11930   2
  -4  11  -7 -1.0218 1.01701   4
   4  11   7 1.18033 1.06324   3
  -4  11  -7 1.82292 1.88599   1
   5 -11   7 10.4490 2.41832   2
  -5 -11  -7 10.2175 2.61983   2
   5 -11   7 12.1942 2.36988   4
  -5  11  -7 8.25114 2.47152   4
  -5  11  -7 10.5813 2.83304   1
   5  11   7 10.0641 2.44976   3
  -6 -11  -7 2.55559 1.50588   2
   6 -11   7 1.46372 1.27983   4
   6 -11   7 2.02757 1.54701   2
  -6  11  -7 2.43517 1.97039   1
  -6  11  -7 4.17489 1.84319   4
   6  11   7 2.42864 1.62178   3
   7 -11   7 0.33647 1.38762   4
  -7 -11  -7 0.99508 1.78732   2
  -7  11  -7 1.39468 2.18221   4
   7  11   7 4.98697 1.85430   3
  -7  11  -7 0.75428 2.00922   1
   7 -12  -7 6.24420 2.18465   4
  -7 -12   7 2.64370 1.94223   2
   7 -12  -7 5.21574 2.41402   1
  -7  12   7 2.41158 2.14219   3
  -7  12   7 9.34143 2.58807   5
   7  12  -7 3.51352 1.57591   5
   7  12  -7 6.86303 2.59509   1
   6 -12  -7 6.86675 2.59211   1
   6 -12  -7 7.91843 2.59185   4
  -6 -12   7 6.93176 2.36386   2
  -6  12   7 5.40794 2.08221   5
   6  12  -7 5.57916 2.67059   1
   6  12  -7 8.51533 2.26787   5
  -6  12   7 3.15295 1.76080   3
   5 -12  -7 1.96864 1.93080   4
   5 -12  -7 2.78372 1.50788   1
  -5 -12   7 5.35758 1.90898   2
  -5  12   7 1.81052 1.17170   5
  -5  12   7 2.58441 1.54381   3
   5  12  -7 3.44759 2.01577   1
   5  12  -7 5.56413 1.67905   5
   4 -12  -7 2.60769 1.72923   4
  -4 -12   7 -0.0559 1.35682   2
   4 -12  -7 -2.1739 1.19318   1
   4  12  -7 -1.3378 1.97714   1
   4  12  -7 -0.2294 1.49758   5
  -4  12   7 1.50512 1.48477   3
   3 -12  -7 3.98888 2.00648   4
  -3 -12   7 2.81220 1.43215   2
   3  12  -7 3.18311 1.61941   4
   3  12  -7 1.92417 1.38806   5
  -3  12   7 1.06868 1.39081   3
   3  12  -7 0.56711 1.62513   1
   2 -12  -7 -0.7131 0.77138   4
  -2 -12   7 1.08747 1.41125   2
   2  12  -7 -0.5382 1.34934   4
   2  12  -7 -2.1473 2.10186   1
   2  12  -7 -2.0186 1.39039   5
  -2  12   7 0.31053 1.60290   3
   1 -12  -7 37.3998 4.27583   4
  -1 -12   7 38.1463 4.29039   2
  -1  12   7 42.3705 4.63557   3
   1  12  -7 44.9529 5.37007   1
   1  12  -7 38.8624 4.40814   5
   1  12  -7 43.4453 4.66641   4
   0 -12   7 15.1507 2.81535   2
   0 -12  -7 12.3757 2.48558   4
   0 -12   7 8.75404 2.11185   4
   0  12  -7 14.6733 2.90442   4
   0  12   7 8.10407 2.19483   3
   0  12  -7 9.69985 2.66643   1
   0  12  -7 10.7349 2.66466   5
  -1 -12  -7 31.5423 3.70236   4
   1 -12   7 37.8964 3.98829   4
   1 -12   7 36.6553 4.04001   2
  -1  12  -7 37.3922 4.74462   1
  -1  12  -7 35.2738 4.40394   4
   1  12   7 34.5328 4.12974   3
  -1  12  -7 27.1496 3.71397   5
   2 -12   7 12.5070 2.60356   2
   2 -12   7 9.49124 2.35939   4
  -2 -12  -7 10.0722 2.11385   2
  -2 -12  -7 7.78971 1.89545   4
   2  12   7 8.83784 2.36043   3
  -2  12  -7 6.72012 2.30327   5
  -2  12  -7 8.51995 2.75632   1
  -2  12  -7 10.0586 2.59004   4
   3 -12   7 1.29352 1.12454   2
  -3 -12  -7 -0.5632 1.22336   2
   3 -12   7 -0.0753 0.97892   4
  -3  12  -7 -0.2749 1.28922   1
   3  12   7 1.95978 1.45139   3
  -3  12  -7 0.39264 1.16251   4
   4 -12   7 -0.0546 0.88080   2
   4 -12   7 0.50694 1.40216   4
  -4 -12  -7 0.03759 1.32414   2
  -4  12  -7 -1.2654 1.32181   4
  -4  12  -7 -2.0397 1.52259   1
   4  12   7 0.26902 1.00854   3
   5 -12   7 1.50163 1.46075   2
   5 -12   7 -0.6856 1.29406   4
  -5 -12  -7 -0.0959 1.55447   2
  -5  12  -7 0.00814 1.89932   4
  -5  12  -7 2.82244 2.10928   1
   5  12   7 4.08671 1.99902   3
   6 -12   7 0.15367 1.44779   2
   6 -12   7 0.21897 1.60861   4
  -6 -12  -7 -0.6006 1.14518   2
  -6  12  -7 0.15346 1.97432   4
  -6  12  -7 1.00492 2.02163   1
   6  12   7 1.62321 1.66006   3
   7 -13  -7 1.94550 2.21882   1
  -7 -13   7 -0.9466 1.12768   2
  -7  13   7 0.23179 1.81526   3
   7  13  -7 0.76241 1.59876   1
  -7  13   7 -0.2875 1.67669   5
   7  13  -7 4.43274 1.93805   5
   6 -13  -7 3.35869 1.88184   4
  -6 -13   7 1.37672 1.76013   2
   6 -13  -7 1.42039 2.03758   1
   6  13  -7 0.88924 1.17647   5
  -6  13   7 0.07603 1.93960   3
  -6  13   7 -1.1573 1.53094   5
   6  13  -7 0.35849 2.26320   1
   5 -13  -7 1.41020 1.48300   4
   5 -13  -7 2.52333 1.98559   1
  -5 -13   7 4.03303 2.05697   2
   5  13  -7 -0.3533 2.14881   1
  -5  13   7 0.30020 1.47059   5
   5  13  -7 -0.0630 1.56590   5
  -5  13   7 2.46046 1.76056   3
   4 -13  -7 -1.1327 1.46525   1
  -4 -13   7 1.34948 1.54074   2
   4 -13  -7 0.82977 1.33461   4
   4  13  -7 -0.2290 2.13823   1
  -4  13   7 -1.9088 1.08325   3
   4  13  -7 1.11338 1.13365   5
  -3 -13   7 -0.4493 0.96369   2
   3 -13  -7 -1.5588 1.21464   4
  -3  13   7 1.47283 1.59712   3
   3  13  -7 -0.5834 1.60142   1
   3  13  -7 0.80918 1.24924   4
   3  13  -7 -4.3164 1.13744   5
  -2 -13   7 2.23682 1.69946   2
   2 -13  -7 2.79262 1.36035   4
   2  13  -7 1.27360 1.21222   4
   2  13  -7 0.26376 1.36591   5
   2  13  -7 -1.8797 2.40568   1
  -2  13   7 -0.4797 1.80801   3
   1 -13  -7 10.5943 2.48256   4
  -1 -13   7 5.51625 1.98904   2
   1  13  -7 5.81388 2.77481   1
  -1  13   7 6.66687 2.17801   3
   1  13  -7 5.60281 2.41077   5
   1  13  -7 2.04804 1.59918   4
   0 -13  -7 1.12960 1.43851   4
   0 -13   7 1.43351 1.46308   2
   0 -13   7 0.35945 0.89767   4
   0  13  -7 -1.4253 1.83032   5
   0  13  -7 0.96489 1.66742   1
   0  13   7 -1.2900 1.73556   3
   0  13  -7 1.61804 1.41971   4
  -1 -13  -7 4.37425 1.81457   4
   1 -13   7 4.61861 1.57949   4
   1 -13   7 4.40299 1.88904   2
   1  13   7 -1.8047 1.83022   3
  -1  13  -7 2.39111 1.35193   4
  -1  13  -7 -0.6688 1.85793   5
  -1  13  -7 0.37243 2.20482   1
   2 -13   7 8.01243 2.27568   2
   2 -13   7 12.0170 2.41004   4
  -2 -13  -7 6.17258 2.05639   2
  -2  13  -7 4.22516 2.56397   1
  -2  13  -7 10.7096 2.84040   5
  -2  13  -7 5.69357 2.03362   4
   2  13   7 4.72813 2.27287   3
   3 -13   7 0.67417 1.31826   2
   3 -13   7 -1.9409 1.14247   4
  -3 -13  -7 -0.7596 1.13531   2
   3  13   7 -0.6558 1.02522   3
  -3  13  -7 -0.6781 1.36925   1
  -3  13  -7 -0.9194 1.59536   4
   4 -13   7 0.76385 1.44479   4
  -4 -13  -7 0.69016 1.57092   2
   4 -13   7 0.90301 1.49934   2
   4  13   7 6.16839 2.03175   3
  -4  13  -7 4.59210 2.10041   1
  -4  13  -7 -0.3537 1.50298   4
   5 -13   7 8.59383 2.37909   2
  -5 -13  -7 8.66235 2.45477   2
   5 -13   7 9.30461 2.48662   4
  -5  13  -7 3.29874 2.04098   4
   5  13   7 14.6595 3.23501   3
  -5  13  -7 7.46688 2.85102   1
  -6 -13  -7 15.3457 3.27659   2
  -6 -14   7 13.1543 3.27607   2
   6 -14  -7 14.0644 3.36268   1
   6  14  -7 17.5519 3.43092   5
   6  14  -7 13.1670 3.48422   1
  -6  14   7 13.7275 3.21063   5
  -5 -14   7 7.29479 2.39902   2
   5 -14  -7 4.91309 2.30169   1
   5 -14  -7 2.45149 2.22231   4
   5  14  -7 1.88901 2.40422   1
   5  14  -7 9.66961 2.57705   5
  -5  14   7 5.67347 2.18242   3
  -4 -14   7 14.0103 2.84240   2
   4 -14  -7 9.97853 2.80372   4
   4  14  -7 14.0333 3.40416   1
  -4  14   7 10.1004 2.61734   3
   4  14  -7 8.13000 2.51577   5
  -3 -14   7 -0.4102 1.03023   2
   3 -14  -7 4.15117 1.86617   4
   3  14  -7 -1.8920 2.31918   1
  -3  14   7 1.18742 1.65895   3
   3  14  -7 -1.3293 1.74846   5
   3  14  -7 1.06786 1.49881   4
  -2 -14   7 1.72058 1.66373   2
   2 -14  -7 0.22249 1.50087   4
   2  14  -7 -1.0854 1.31971   5
   2  14  -7 2.49474 1.65098   4
   2  14  -7 -3.6013 2.23582   1
  -2  14   7 -5.4967 1.54537   3
   1 -14  -7 6.70687 2.24497   4
  -1 -14   7 5.09527 2.01104   2
  -1  14   7 -0.6750 2.03532   3
   1  14  -7 7.82957 2.25056   4
   1  14  -7 1.88529 2.51483   1
   1  14  -7 0.58557 2.32809   5
   0 -14   7 0.63518 1.01328   4
   0 -14   7 -1.0806 1.30496   2
   0 -14  -7 0.84519 1.60496   4
   0  14  -7 0.24388 2.38121   1
   0  14  -7 -1.7149 1.33428   5
   0  14   7 1.67190 2.20206   3
   0  14  -7 -1.0834 0.96247   4
   1 -14   7 2.60950 1.73026   2
   1 -14   7 3.21737 1.46372   4
  -1 -14  -7 6.05811 2.03308   4
  -1  14  -7 0.50315 2.12073   5
   1  14   7 4.50866 2.10345   3
  -1  14  -7 1.45765 1.30761   4
  -1  14  -7 2.07353 2.59261   1
   2 -14   7 8.36216 2.22724   4
   2 -14   7 9.04878 2.24774   2
  -2  14  -7 3.28813 2.62336   5
  -2  14  -7 6.24040 2.10165   4
   2  14   7 6.60857 2.65897   3
  -2  14  -7 9.75967 2.87279   1
   3 -14   7 -0.9409 1.23166   2
   3 -14   7 0.12594 1.52376   4
  -3 -14  -7 0.19792 1.46258   2
  -3  14  -7 0.62814 1.78443   4
   3  14   7 -0.6938 1.58966   3
  -3  14  -7 -2.9356 2.09750   1
   4 -14   7 0.91163 1.69026   4
   4 -14   7 0.63513 1.60067   2
  -4 -14  -7 -2.0754 1.44956   2
   4  14   7 2.52204 1.50503   3
  -4  14  -7 1.09170 1.42719   4
  -4  14  -7 -0.8813 1.23942   1
   5 -14   7 0.07972 1.42888   2
  -5 -14  -7 -1.8583 1.48542   2
  -5  14  -7 1.59625 1.81603   1
   4 -15  -7 1.18780 1.47739   4
  -4 -15   7 2.32314 1.67938   2
   4  15  -7 3.42193 2.22575   5
  -4  15   7 3.00644 1.99405   3
   4  15  -7 0.95347 1.92631   1
  -3 -15   7 1.62714 1.91775   2
   3 -15  -7 4.42845 2.32972   4
  -3  15   7 0.71473 1.83343   3
   3  15  -7 0.22876 2.06647   5
   3  15  -7 -2.0171 2.51674   1
   2 -15  -7 -2.0100 1.43906   4
  -2 -15   7 -1.0705 0.93559   2
   2  15  -7 -1.3868 1.28679   5
   2  15  -7 -3.5939 2.37468   1
   2  15  -7 0.78129 1.73078   4
  -2  15   7 -4.2072 1.02043   3
  -1 -15   7 1.41843 1.59414   2
  -1 -15   7 0.18485 1.08201   4
   1 -15  -7 1.19005 1.26955   4
   1  15  -7 0.98314 1.25375   4
   1  15  -7 -2.6989 2.06822   5
   1  15  -7 -2.2530 2.22015   1
  -1  15   7 -3.1508 2.02015   3
   0 -15   7 1.72544 1.72657   2
   0 -15  -7 0.52783 1.18082   4
   0 -15   7 0.50553 1.42919   4
   0  15   7 -1.4999 1.30315   3
   0  15  -7 -4.3387 1.86049   5
   0  15  -7 -0.8754 2.45849   1
   0  15  -7 -0.1866 1.61008   4
   1 -15   7 0.53788 1.67532   4
   1 -15   7 2.45314 1.80100   2
  -1  15  -7 -2.8218 1.42126   5
  -1  15  -7 0.91909 2.64025   1
   1  15   7 -4.0013 1.83037   3
  -1  15  -7 0.47417 1.78782   4
   2 -15   7 10.4988 2.38089   4
   2 -15   7 15.2510 2.73487   2
  -2  15  -7 12.0890 2.88104   4
   2  15   7 14.7951 3.09151   3
  -2  15  -7 15.3073 3.61363   1
  -2  15  -7 5.64120 3.03520   5
   3 -15   7 12.4254 2.86361   4
   3 -15   7 6.41004 2.23066   2
  -3  15  -7 6.46719 3.31250   1
   3  15   7 7.94358 2.81657   3
  -3  15  -7 7.64798 2.76612   4
   2 -16  -7 -0.7846 1.14177   4
  -2 -16   7 -2.3863 1.53528   2
   2  16  -7 -1.5593 1.70004   5
   2  16  -7 -0.7095 1.76107   4
   2  16  -7 -5.8376 2.65707   1
  -1 -16   7 0.25726 1.09489   4
  -1 -16   7 0.75541 1.16059   2
   1 -16  -7 0.21901 1.77897   4
  -1  16   7 -2.9585 1.57123   3
   1  16  -7 -0.6495 1.13379   4
   1  16  -7 -4.9776 2.03716   5
   1  16  -7 0.49012 2.65402   1
   0 -16  -7 1.38057 1.33117   4
   0 -16   7 2.69858 1.84712   2
   0 -16   7 -0.8552 1.43644   4
   0  16   7 -2.9698 2.20639   3
   0  16  -7 -3.0478 2.50545   5
   0  16  -7 2.76053 2.04675   4
   0  16  -7 2.50359 2.90165   1
   1 -16   7 1.63433 1.61510   2
   1 -16   7 1.75459 1.56976   4
  -1  16  -7 -3.5160 2.28343   5
  -1  16  -7 -0.9561 1.72722   4
  10   0  -8 2.71718 1.98732   1
  10   0  -8 1.55486 1.59222   5
   9   0  -8 1.89464 1.73842   5
   9   0  -8 0.67008 1.72366   1
   8   0  -8 70.4830 5.68105   1
   8   0  -8 75.7454 5.05169   4
   8   0  -8 79.4352 5.54667   5
   7   0  -8 1.06296 0.96845   5
   7   0  -8 -1.5571 0.86832   4
   7   0  -8 1.48984 1.28141   1
   6   0  -8 2.82641 1.50024   4
   6   0  -8 6.50133 1.96591   1
   6   0  -8 9.40676 1.92337   5
   5   0  -8 1.61506 1.24792   4
   5   0  -8 0.90803 0.98161   5
   5   0  -8 0.04970 1.22601   1
   4   0  -8 1.11400 1.14594   1
   4   0  -8 -0.0974 0.77015   4
  -4   0   8 0.03405 0.72547   2
   4   0  -8 -0.2023 0.64483   5
   3   0  -8 1.20494 1.15928   1
  -3   0   8 0.06771 0.74157   2
   3   0  -8 -1.1832 0.52909   4
   2   0  -8 124.455 6.82388   4
   2   0  -8 132.200 6.76968   1
  -2   0   8 129.512 6.35155   2
  -1   0   8 0.00214 0.79721   2
   1   0  -8 -0.2077 0.91250   1
   1   0  -8 -0.1979 0.72162   4
   0   0  -8 29.6045 3.23145   4
   0   0  -8 28.5436 2.56383   1
   0   0   8 26.5903 2.93675   2
  -1   0  -8 -0.7593 0.77710   1
  -1   0  -8 0.31084 0.78822   4
   1   0   8 -1.5615 0.51791   2
   2   0   8 16.6456 2.52925   2
  -2   0  -8 12.9985 1.89474   1
  -2   0  -8 14.1811 2.37069   4
  -3   0  -8 1.47955 1.40383   2
   3   0   8 -2.1106 0.84953   2
  -3   0  -8 -0.1666 0.79706   4
  -4   0  -8 4.91358 1.81591   2
   4   0   8 5.83599 1.85402   2
  -4   0  -8 2.27161 1.31064   4
   5   0   8 -2.0704 1.01992   2
  -5   0  -8 0.87174 1.27163   2
  -5   0  -8 0.29728 1.09965   4
  -6   0  -8 7.86541 1.93907   4
   6   0   8 5.75229 1.82151   2
  -6   0  -8 7.44177 2.06676   2
  -7   0  -8 -1.3178 0.63401   2
   7   0   8 -0.0403 0.94435   2
   8   0   8 152.244 8.87777   2
  -8   0  -8 155.050 9.29998   2
  -9   0  -8 -2.3066 0.94326   2
  10  -1  -8 -0.0791 1.16685   1
  10  -1  -8 2.06099 1.40576   5
 -10   1   8 1.94807 1.51613   3
  10   1  -8 3.20841 1.98120   1
  10   1  -8 1.65975 1.76431   5
   9  -1  -8 0.50564 1.21426   1
   9  -1  -8 4.85893 2.01171   5
  -9   1   8 0.53216 1.27382   3
   9   1  -8 1.61932 1.74266   1
   9   1  -8 1.76431 1.61177   5
   8  -1  -8 3.79744 1.63761   4
   8  -1  -8 7.31109 2.60067   1
   8  -1  -8 10.1643 2.29746   5
   8   1  -8 8.68690 2.59278   1
   8   1  -8 4.71402 1.71605   5
  -8   1   8 1.64359 1.25549   3
   7  -1  -8 9.32254 2.13426   4
   7  -1  -8 9.20467 2.13548   5
   7  -1  -8 13.1298 2.75559   1
   7   1  -8 8.35774 2.09363   5
  -7   1   8 7.19427 1.69469   3
   7   1  -8 10.3242 2.10523   4
   7   1  -8 9.12633 2.46959   1
   6  -1  -8 4.36463 1.46369   4
   6  -1  -8 2.61043 1.16680   5
   6  -1  -8 2.97111 1.35407   1
   6   1  -8 3.14503 1.39126   5
   6   1  -8 3.21364 1.46168   4
  -6   1   8 1.63522 1.00104   3
   6   1  -8 4.06140 1.73207   1
   5  -1  -8 13.3976 2.45350   4
   5  -1  -8 21.2159 3.14048   1
   5  -1  -8 20.4168 2.56128   5
  -5  -1   8 17.4817 2.22248   2
   5   1  -8 20.5310 2.86660   4
   5   1  -8 14.9357 2.77966   1
   5   1  -8 20.4882 2.60920   5
  -5   1   8 16.3622 2.08817   3
   4  -1  -8 10.3656 2.11043   1
   4  -1  -8 11.4884 2.06257   4
  -4  -1   8 11.6259 1.76076   2
   4   1  -8 11.2174 2.07403   4
   4   1  -8 8.55415 2.11905   1
  -4   1   8 9.87465 1.58829   2
   4   1  -8 9.54174 1.73224   5
  -4   1   8 9.30575 1.48286   3
   3  -1  -8 108.233 6.05157   4
   3  -1  -8 108.248 6.04589   1
  -3  -1   8 104.118 5.51596   2
  -3   1   8 107.862 5.40314   2
   3   1  -8 107.510 6.18941   1
  -3   1   8 107.934 5.34276   3
   3   1  -8 111.320 6.16145   4
   2  -1  -8 8.29471 1.76134   4
  -2  -1   8 11.2070 1.83631   2
   2  -1  -8 14.4387 2.20403   1
  -2   1   8 12.2392 1.80423   2
   2   1  -8 9.80274 2.05391   4
   2   1  -8 11.1481 2.05593   1
  -1  -1   8 49.1298 3.52768   2
   1  -1  -8 50.8012 3.52403   1
   1  -1  -8 50.9722 3.76351   4
   1   1  -8 48.4240 3.52079   1
  -1   1   8 52.3793 3.46597   2
   1   1  -8 52.1497 3.92182   4
   0  -1  -8 3.39037 1.34003   4
   0  -1   8 4.35352 1.23779   2
   0  -1  -8 2.40592 1.16235   1
   0   1   8 6.84914 1.57246   2
   0   1  -8 4.22686 1.37476   4
   0   1  -8 2.02470 1.29492   1
   1  -1   8 4.15256 1.28880   2
  -1  -1  -8 2.67198 1.00600   1
  -1  -1  -8 1.95811 1.06042   4
  -1   1  -8 1.25255 1.19026   4
  -1   1  -8 4.15363 1.40703   1
   1   1   8 1.18201 1.01696   2
   2  -1   8 -0.6733 0.89011   2
  -2  -1  -8 -0.4906 0.65443   4
  -2  -1  -8 0.01103 1.01971   2
  -2   1  -8 -0.8381 0.92338   1
  -2   1  -8 0.68431 1.19793   4
   2   1   8 -0.1325 0.91379   2
  -3  -1  -8 0.88975 1.30452   2
   3  -1   8 2.02310 1.34691   2
  -3  -1  -8 -0.2208 1.10913   4
   3   1   8 -0.3814 1.01393   2
  -3   1  -8 -1.6863 1.00746   4
  -4  -1  -8 6.44968 1.66473   4
  -4  -1  -8 7.96242 2.15277   2
   4  -1   8 8.81916 1.95539   2
   4   1   8 4.21759 1.74163   2
  -4   1  -8 9.44688 1.94389   4
  -4   1  -8 6.35876 1.75101   2
  -5  -1  -8 1.17306 1.11281   4
   5  -1   8 0.70282 0.92984   2
  -5  -1  -8 1.78634 1.43190   2
   5   1   8 0.63482 1.33482   2
  -5   1  -8 0.47317 0.88293   2
  -5   1  -8 2.44551 1.12103   4
   6  -1   8 14.7744 2.78704   2
  -6  -1  -8 17.2810 3.09901   2
  -6   1  -8 19.2473 2.73354   4
   6   1   8 16.6586 2.99636   2
  -6   1  -8 12.6908 2.78479   2
  -7  -1  -8 2.40261 1.75719   2
   7  -1   8 1.66178 1.56158   2
   7   1   8 1.93267 1.57810   2
  -7   1  -8 1.43124 1.57298   2
   8  -1   8 0.68904 1.61635   2
  -8  -1  -8 1.63838 1.26840   2
  -8   1  -8 3.49184 1.98339   2
  -9  -1  -8 8.76617 2.57679   2
  -9   1  -8 12.5052 3.07022   2
  10  -2  -8 6.68558 2.25554   5
  10  -2  -8 1.36682 1.94954   1
  10   2  -8 3.90256 2.24078   5
 -10   2   8 3.14406 1.46172   3
  10   2  -8 2.28593 1.55638   1
   9  -2  -8 14.1694 3.31095   1
   9  -2  -8 17.6230 3.25918   5
   9   2  -8 19.6246 3.58350   1
   9   2  -8 18.6807 3.35876   5
  -9   2   8 14.5658 2.76195   3
   8  -2  -8 2.53388 1.22437   5
   8  -2  -8 -0.4425 0.76660   4
   8  -2  -8 -0.3443 1.05435   1
  -8   2   8 2.43817 1.38206   3
   8   2  -8 3.15804 1.58772   1
   8   2  -8 1.29044 1.49135   5
   7  -2  -8 -0.6976 1.29706   1
   7  -2  -8 2.97560 1.50302   5
   7  -2  -8 0.34033 1.16876   4
   7   2  -8 1.55722 1.34813   5
   7   2  -8 1.47959 1.30022   1
   7   2  -8 1.26003 0.97925   4
  -7   2   8 0.60818 1.10614   3
   6  -2  -8 -0.3911 1.19628   4
   6  -2  -8 0.84119 0.96694   5
   6  -2  -8 0.68357 1.10456   1
   6   2  -8 0.09607 0.96706   1
   6   2  -8 0.79970 1.05518   5
   6   2  -8 -0.1105 0.71886   4
  -6   2   8 0.01581 0.87600   3
   5  -2  -8 8.87087 1.71513   5
   5  -2  -8 7.23792 2.12361   1
  -5  -2   8 10.2901 1.77030   2
   5  -2  -8 7.19556 1.92460   4
   5   2  -8 8.48847 1.81484   4
  -5   2   8 9.87408 1.69643   3
   5   2  -8 9.75192 2.33687   1
   5   2  -8 11.4377 2.01511   5
   4  -2  -8 14.2703 2.35859   4
  -4  -2   8 14.2551 2.00586   2
   4  -2  -8 14.7090 2.54270   1
  -4   2   8 13.4456 1.78176   3
   4   2  -8 12.2522 2.51673   1
   4   2  -8 15.2262 2.39267   4
   4   2  -8 16.2552 2.16897   5
  -3  -2   8 19.2692 2.39075   2
   3  -2  -8 18.1420 2.65560   1
   3  -2  -8 18.3466 2.69317   4
  -3   2   8 23.3705 1.98821   3
   3   2  -8 21.1047 2.90554   1
   3   2  -8 19.6975 2.76794   4
  -3   2   8 23.1755 2.38273   2
  -2  -2   8 60.5365 3.85870   2
   2  -2  -8 57.7399 4.05675   4
   2  -2  -8 60.9272 4.01217   1
  -2   2   8 51.4820 3.17764   3
   2   2  -8 58.2806 4.19961   4
  -2   2   8 57.8663 3.58222   2
   2   2  -8 58.1486 4.07015   1
  -1  -2   8 125.580 6.27436   2
   1  -2  -8 113.463 6.34097   4
   1  -2  -8 125.923 6.09944   1
  -1   2   8 109.855 5.34179   3
   1   2  -8 119.045 6.57454   4
  -1   2   8 117.688 5.95143   2
   0  -2   8 15.6733 2.28681   2
   0  -2  -8 19.9917 2.63051   4
   0  -2  -8 16.9136 2.18410   1
   0   2   8 15.8932 2.19503   2
   0   2  -8 12.3798 2.18150   4
   0   2  -8 16.2626 2.44269   1
   0   2   8 20.1466 2.04028   3
  -1  -2  -8 9.95882 1.94065   2
  -1  -2  -8 11.9780 2.09562   4
   1  -2   8 15.5836 2.27204   2
  -1  -2  -8 13.3632 2.05087   1
   1   2   8 12.4492 1.64070   3
  -1   2  -8 8.40605 1.95085   4
  -1   2  -8 13.8574 2.29298   1
   1   2   8 10.0081 1.88668   2
   2  -2   8 56.2873 4.09109   2
  -2  -2  -8 53.8178 4.14786   2
  -2  -2  -8 55.2338 4.06993   4
  -2   2  -8 57.4165 3.91154   1
   2   2   8 55.7429 3.37504   3
  -2   2  -8 57.2261 4.30862   4
   2   2   8 61.6299 4.10836   2
  -3  -2  -8 163.789 8.86714   2
   3  -2   8 169.755 8.51271   2
  -3  -2  -8 177.878 8.38585   4
  -3   2  -8 174.692 8.06872   1
   3   2   8 167.735 8.58727   2
  -3   2  -8 177.776 8.81531   4
   3   2   8 162.061 7.69783   3
  -4  -2  -8 1.50115 1.23198   4
  -4  -2  -8 3.08789 1.61636   2
   4  -2   8 1.71983 1.03054   2
  -4   2  -8 1.79139 1.07360   4
   4   2   8 2.40819 1.41847   2
   4   2   8 3.13111 1.08588   3
   5  -2   8 13.6806 2.60628   2
  -5  -2  -8 10.0567 2.31088   2
  -5  -2  -8 16.8557 2.54585   4
   5   2   8 16.1816 2.74979   2
   5   2   8 10.4488 2.01422   3
  -5   2  -8 19.0774 2.88008   4
  -5   2  -8 13.3874 2.69141   2
  -6  -2  -8 0.80539 1.03640   2
   6  -2   8 0.49475 0.99733   2
  -6   2  -8 1.22036 1.28180   4
   6   2   8 2.38656 1.29786   3
  -6   2  -8 0.33467 1.07743   2
   6   2   8 2.29595 1.38113   2
   7  -2   8 9.36424 2.31294   2
  -7  -2  -8 17.0108 3.24869   2
  -7   2  -8 19.4277 3.36452   2
   8  -2   8 16.7075 3.27003   2
  -8  -2  -8 10.2119 2.74615   2
  -8   2  -8 18.3313 3.59121   2
   9  -2   8 2.85682 1.83753   2
  -9  -2  -8 2.26628 2.13000   2
  -9   2  -8 -0.1996 1.81698   2
  10  -3  -8 0.36883 2.03978   1
  10  -3  -8 4.11263 2.21339   5
  10   3  -8 2.22710 1.87796   5
 -10   3   8 2.60815 1.77598   3
  10   3  -8 1.45476 1.96362   1
   9  -3  -8 15.0751 3.42768   1
   9  -3  -8 6.98438 2.20426   5
   9  -3  -8 10.0778 2.55245   4
  -9   3   8 11.0893 2.40997   3
   9   3  -8 10.0310 2.82291   1
   9   3  -8 10.9908 2.74636   5
   8  -3  -8 12.6995 2.67199   5
   8  -3  -8 8.70292 2.42396   1
   8  -3  -8 5.61984 1.83873   4
   8   3  -8 13.2795 2.78377   5
   8   3  -8 8.45897 2.47995   1
  -8   3   8 10.2068 2.26745   3
   7  -3  -8 4.31821 1.62935   5
   7  -3  -8 1.73954 1.62482   1
   7  -3  -8 5.07050 1.61331   4
   7   3  -8 2.56227 1.44344   4
  -7   3   8 2.79083 1.31660   3
   7   3  -8 7.22844 2.36776   1
   7   3  -8 5.01081 1.73631   5
   6  -3  -8 3.11927 1.59250   1
   6  -3  -8 2.87548 1.37732   5
  -6  -3   8 3.17099 1.19743   2
   6  -3  -8 1.96984 1.47940   4
   6   3  -8 3.34434 1.51462   5
  -6   3   8 1.89365 1.07539   3
   6   3  -8 5.36365 1.72844   1
   6   3  -8 2.26907 1.28171   4
  -5  -3   8 9.13252 1.69493   2
   5  -3  -8 10.8505 2.35615   1
   5  -3  -8 3.57602 1.33846   4
   5  -3  -8 8.68325 1.72825   5
  -5   3   8 7.92046 1.57289   3
   5   3  -8 2.69987 1.36029   1
   5   3  -8 6.99033 1.62007   4
   5   3  -8 10.1563 1.91070   5
   4  -3  -8 20.9035 2.84705   4
  -4  -3   8 30.4517 3.00222   2
   4  -3  -8 30.6465 3.59821   1
  -4   3   8 23.0404 2.50419   3
   4   3  -8 29.7387 2.51190   5
   4   3  -8 26.6346 3.21192   4
   4   3  -8 22.3920 3.24561   1
   3  -3  -8 0.26204 1.01339   1
  -3  -3   8 0.84106 0.96908   2
   3  -3  -8 0.96602 1.00811   4
  -3   3   8 0.31496 0.76394   2
   3   3  -8 2.01328 1.22150   1
  -3   3   8 -0.0386 0.72404   3
   3   3  -8 -0.1888 0.81124   4
   2  -3  -8 53.0149 3.67583   1
  -2  -3   8 52.2990 3.62633   2
   2  -3  -8 43.3931 3.57993   4
  -2   3   8 47.7062 3.17441   2
  -2   3   8 48.5656 3.09863   3
   2   3  -8 50.4635 3.94415   4
   2   3  -8 54.3696 3.94000   1
   1  -3  -8 1.56986 0.90150   2
  -1  -3   8 0.95327 0.99417   2
   1  -3  -8 0.08602 0.90359   4
   1  -3  -8 1.74868 0.92376   1
   1   3  -8 2.80681 1.52017   1
  -1   3   8 1.75244 0.92720   3
  -1   3   8 1.97096 0.96063   2
   1   3  -8 0.18164 1.07878   4
   0  -3  -8 1.03849 0.86413   4
   0  -3   8 0.81381 0.91202   2
   0  -3  -8 1.27234 0.90451   1
   0  -3  -8 1.83864 1.02379   2
   0   3  -8 -0.3692 0.81304   1
   0   3  -8 1.21258 0.95311   4
   0   3   8 0.27020 0.82651   3
   0   3   8 1.14127 0.94758   2
  -1  -3  -8 44.4558 3.44243   4
  -1  -3  -8 46.0014 3.63599   2
   1  -3   8 42.7394 3.48283   2
  -1   3  -8 41.8418 3.52638   1
   1   3   8 42.9696 3.35385   2
  -1   3  -8 49.4006 3.91487   4
   1   3   8 37.6720 2.81235   3
  -2  -3  -8 34.7128 3.52527   4
  -2  -3  -8 41.0665 4.18193   2
   2  -3   8 34.9228 3.70896   2
   2   3   8 36.9557 2.72043   3
  -2   3  -8 38.1921 3.37839   1
   2   3   8 31.2859 3.47926   2
  -2   3  -8 35.1700 3.90393   4
   3  -3   8 47.8836 3.77882   2
  -3  -3  -8 48.1250 3.74709   4
  -3  -3  -8 42.5135 4.53994   2
  -3   3  -8 48.7148 4.16541   4
   3   3   8 50.4591 3.44788   3
   3   3   8 56.2321 4.06935   2
  -3   3  -8 47.0222 3.71673   1
   4  -3   8 1.99326 1.35968   2
  -4  -3  -8 3.42726 1.38447   4
  -4  -3  -8 0.02204 1.29023   2
  -4   3  -8 0.83913 1.02719   4
   4   3   8 1.82622 0.91771   3
   4   3   8 1.16666 1.42621   2
  -5  -3  -8 3.76709 1.55584   2
  -5  -3  -8 5.44297 1.58168   4
   5  -3   8 4.39337 1.58607   2
   5   3   8 5.46772 1.68918   2
  -5   3  -8 5.52951 1.51849   4
  -5   3  -8 1.90850 1.25607   2
   5   3   8 4.63599 1.44294   3
   6  -3   8 8.13516 2.17844   2
  -6  -3  -8 9.97773 2.64432   2
  -6   3  -8 4.55807 1.91527   2
   6   3   8 10.3630 2.12950   3
  -6   3  -8 12.8585 2.43929   4
  -7  -3  -8 4.12286 2.00068   2
   7  -3   8 4.05399 1.76733   2
   7   3   8 6.09273 1.73050   3
  -7   3  -8 5.70685 1.97614   2
  -7   3  -8 5.83863 1.95295   4
  -8  -3  -8 2.78603 1.56980   2
   8  -3   8 2.18811 1.86881   2
   8   3   8 3.71686 1.81623   3
  -8   3  -8 0.26843 1.52421   2
  -9  -3  -8 5.53761 2.42303   2
   9  -3   8 9.24630 2.55304   2
  -9   3  -8 7.19527 2.56202   2
  10  -4  -8 1.51988 2.09783   5
  10  -4  -8 -1.9586 1.88281   1
  10   4  -8 0.22882 1.75117   1
  10   4  -8 3.45565 2.03513   5
 -10   4   8 0.13135 1.51176   3
   9  -4  -8 3.31400 1.94440   5
   9  -4  -8 1.26819 1.52333   4
   9  -4  -8 1.65906 1.61462   1
   9   4  -8 5.14302 2.33968   1
   9   4  -8 3.74291 1.88112   5
  -9   4   8 1.69480 1.20206   3
   8  -4  -8 3.62911 1.47555   4
   8  -4  -8 3.62982 2.09120   1
   8  -4  -8 3.27124 1.73798   5
   8   4  -8 1.85514 1.39760   1
  -8   4   8 2.35988 1.24646   3
   8   4  -8 5.62716 1.97962   5
   7  -4  -8 4.04647 1.71184   5
   7  -4  -8 4.80220 2.01257   1
   7  -4  -8 4.79602 1.76789   4
  -7   4   8 4.92142 1.67829   3
   7   4  -8 2.99033 1.51797   1
   7   4  -8 3.44230 1.60846   5
   6  -4  -8 13.6845 2.43937   4
   6  -4  -8 10.2791 2.47317   1
   6  -4  -8 10.5824 2.11822   5
  -6  -4   8 13.5889 2.09406   2
  -6   4   8 14.9065 2.32112   3
   6   4  -8 13.2031 2.35004   5
   6   4  -8 10.6018 2.55508   1
   6   4  -8 12.4503 2.30112   4
  -5  -4   8 20.6776 2.55254   2
   5  -4  -8 17.8429 3.01248   1
   5  -4  -8 17.5617 2.40435   5
   5  -4  -8 13.9627 2.46861   4
   5   4  -8 18.8462 2.59009   5
   5   4  -8 17.0437 2.93859   1
   5   4  -8 14.0988 2.46964   4
  -5   4   8 16.3176 2.28985   3
   4  -4  -8 16.0758 2.79100   1
  -4  -4   8 15.7908 2.29140   2
   4  -4  -8 11.8531 2.24077   4
   4   4  -8 15.0099 2.65644   1
  -4   4   8 13.1000 2.03330   3
   4   4  -8 13.2780 2.11582   5
   4   4  -8 14.0046 2.48990   4
   3  -4  -8 42.1217 3.51407   1
   3  -4  -8 42.1695 3.49663   4
  -3  -4   8 42.0422 3.29907   2
   3   4  -8 46.3273 4.00609   1
  -3   4   8 45.1297 3.09766   3
   3   4  -8 40.9087 2.99861   5
   3   4  -8 35.9237 3.75279   4
   2  -4  -8 4.72040 1.56713   4
   2  -4  -8 2.76676 1.24094   1
  -2  -4   8 4.15153 1.39242   2
   2  -4  -8 2.60579 1.04430   2
  -2   4   8 3.43887 1.16303   3
   2   4  -8 2.44414 1.20276   4
   2   4  -8 3.16296 1.44559   1
  -2   4   8 1.86733 0.90340   2
  -1  -4   8 29.0341 3.09475   2
   1  -4  -8 26.9194 2.84771   1
   1  -4  -8 28.2425 2.97231   2
   1  -4  -8 27.2487 3.20273   4
   1   4  -8 25.2618 3.08209   4
  -1   4   8 27.7930 2.83989   2
  -1   4   8 27.2668 2.39113   3
   1   4  -8 32.7687 3.69364   1
   0  -4  -8 2.01104 0.88981   1
   0  -4   8 1.89203 1.25822   2
   0  -4  -8 1.09737 0.96492   4
   0  -4  -8 1.06001 0.96881   2
   0   4   8 0.32965 0.86975   3
   0   4  -8 2.09200 1.14485   4
   0   4  -8 0.69914 1.26873   1
   0   4   8 0.70879 0.94661   2
  -1  -4  -8 7.96178 1.85060   4
  -1  -4  -8 8.37555 1.99279   2
   1  -4   8 4.23677 1.53989   2
   1   4   8 5.60970 1.54564   2
  -1   4  -8 4.17488 1.46075   4
   1   4   8 5.67216 1.36703   3
  -1   4  -8 5.47558 1.93902   1
  -2  -4  -8 1.70326 1.08925   4
   2  -4   8 2.06141 1.10996   2
  -2  -4  -8 3.17737 1.39442   2
   2   4   8 2.10350 1.00784   3
   2   4   8 1.22692 1.12579   2
  -2   4  -8 3.35332 1.46228   4
  -2   4  -8 1.22974 1.47423   1
   3  -4   8 180.498 8.82189   2
  -3  -4  -8 178.106 8.42137   4
  -3  -4  -8 168.243 8.91808   2
   3   4   8 172.843 8.72299   2
   3   4   8 170.506 8.15882   3
  -3   4  -8 173.434 8.53864   1
  -3   4  -8 168.137 8.88153   4
  -4  -4  -8 112.221 6.06419   4
  -4  -4  -8 101.194 6.74405   2
   4  -4   8 102.062 6.33834   2
   4   4   8 117.759 6.26360   3
  -4   4  -8 115.964 6.36062   1
  -4   4  -8 120.092 6.95764   4
   4   4   8 112.662 6.73127   2
   5  -4   8 -0.4787 1.06913   2
  -5  -4  -8 0.59765 0.99606   2
  -5   4  -8 0.58195 1.15259   4
   5   4   8 2.35116 1.16149   3
  -6  -4  -8 20.1053 3.42572   2
   6  -4   8 20.4361 3.19078   2
  -6   4  -8 20.1696 3.18244   4
  -6   4  -8 20.8277 3.34895   2
   6   4   8 25.9128 3.42346   3
   7  -4   8 23.3594 3.50243   2
  -7  -4  -8 23.2702 3.77574   2
  -7   4  -8 16.3998 2.97111   4
  -7   4  -8 17.9853 3.44675   2
   7   4   8 32.0203 4.02218   3
   8  -4   8 36.0057 4.39808   2
  -8  -4  -8 39.8810 4.95250   2
  -8   4  -8 38.3017 4.92027   2
   8   4   8 37.1446 4.58025   3
  -9  -4  -8 0.45876 1.36548   2
   9  -4   8 -0.9711 1.33887   2
   9   4   8 1.10458 1.54700   3
  -9   4  -8 4.96146 2.43575   2
  10  -5  -8 2.34970 2.07455   5
  10  -5  -8 1.18427 2.01487   1
  10   5  -8 1.94490 1.77160   5
 -10   5   8 1.01455 1.60882   3
  10   5  -8 -0.1176 1.64839   1
   9  -5  -8 3.63764 1.89415   4
   9  -5  -8 5.63542 2.58474   1
   9  -5  -8 6.78912 2.29614   5
   9   5  -8 4.10214 2.12318   5
  -9   5   8 4.40316 1.83773   3
   9   5  -8 7.40545 2.36986   1
   8  -5  -8 -2.0795 1.56840   1
   8  -5  -8 -0.7177 0.83713   4
   8  -5  -8 0.79625 1.48575   5
   8   5  -8 2.61016 1.19617   5
  -8   5   8 0.62298 1.33767   3
   8   5  -8 -0.0022 1.10288   1
   7  -5  -8 1.25213 1.15755   4
   7  -5  -8 0.87151 1.28009   5
  -7  -5   8 0.50508 1.14012   2
   7  -5  -8 2.69891 1.84601   1
  -7   5   8 0.73815 1.26696   3
   7   5  -8 3.45031 1.79695   1
   7   5  -8 4.87130 1.64426   5
   6  -5  -8 13.2151 2.79845   1
   6  -5  -8 13.5991 2.37276   5
   6  -5  -8 14.6315 2.60969   4
  -6  -5   8 14.1218 2.27302   2
   6   5  -8 14.0843 2.24495   4
   6   5  -8 13.7832 2.45871   5
  -6   5   8 12.4108 2.24651   3
   6   5  -8 19.3970 3.42086   1
   5  -5  -8 13.1787 2.39544   5
   5  -5  -8 16.0332 2.80979   1
  -5  -5   8 15.9991 2.30024   2
   5  -5  -8 9.32042 2.04987   4
   5   5  -8 9.96477 1.97789   4
   5   5  -8 14.1624 2.26067   5
   5   5  -8 18.6854 3.00061   1
  -5   5   8 11.7115 2.08871   3
   4  -5  -8 0.38949 0.83033   1
   4  -5  -8 0.95053 0.99578   4
  -4  -5   8 1.06891 1.05476   2
   4   5  -8 0.67843 0.92478   4
   4   5  -8 0.68354 1.37232   1
   4   5  -8 3.26584 1.14027   5
  -4   5   8 1.58456 1.14149   3
   3  -5  -8 14.7040 2.37887   1
  -3  -5   8 14.7015 2.27149   2
   3  -5  -8 12.7123 2.31810   4
  -3   5   8 16.6079 2.26766   3
   3   5  -8 12.4428 2.43939   4
   3   5  -8 11.4267 2.42164   1
   3   5  -8 16.3669 2.11801   5
   2  -5  -8 35.3864 3.70875   4
  -2  -5   8 40.5796 3.29221   2
   2  -5  -8 36.5266 3.02409   1
   2   5  -8 32.7530 3.66787   4
  -2   5   8 38.5938 2.85553   3
  -2   5   8 36.8187 2.66874   2
   2   5  -8 41.9385 4.36019   1
  -1  -5   8 13.6741 2.26617   2
   1  -5  -8 12.8506 1.99516   2
   1  -5  -8 10.6525 2.09598   4
   1  -5  -8 15.3628 2.04487   1
  -1   5   8 17.6067 2.27939   3
   1   5  -8 11.0775 2.20905   4
  -1   5   8 17.6430 2.18060   2
   1   5  -8 8.43422 2.03418   1
   0  -5  -8 1.94543 1.06571   4
   0  -5   8 2.00754 1.10058   2
   0  -5  -8 2.80882 1.24394   2
   0   5   8 0.61960 0.82668   2
   0   5  -8 3.32426 1.54017   4
   0   5  -8 0.01338 1.46802   1
   0   5   8 -0.2398 0.94877   3
   1  -5   8 35.5373 3.84818   2
  -1  -5  -8 40.7580 3.43808   4
  -1  -5  -8 41.0730 3.39373   2
   1   5   8 40.6051 3.22494   2
   1   5   8 35.7087 3.02292   3
  -1   5  -8 32.6904 3.79302   4
  -1   5  -8 38.4432 4.13201   1
   2  -5   8 71.9670 4.83548   2
  -2  -5  -8 74.7969 4.80821   4
  -2  -5  -8 70.8862 4.89382   2
   2   5   8 79.8773 4.68211   3
  -2   5  -8 82.3177 5.32596   4
   2   5   8 73.4795 4.84734   2
  -2   5  -8 73.2841 5.04895   1
  -3  -5  -8 1.69193 1.17653   4
   3  -5   8 2.21288 1.38329   2
  -3  -5  -8 1.50541 1.30445   2
  -3   5  -8 3.33062 1.54064   4
  -3   5  -8 2.07695 1.50831   1
   3   5   8 1.51574 1.04057   3
   4  -5   8 -0.4954 0.79980   2
  -4  -5  -8 0.63839 1.02059   4
  -4  -5  -8 1.05733 1.35154   2
  -4   5  -8 -0.0972 1.43309   1
  -4   5  -8 3.81227 1.50254   4
   4   5   8 0.69359 0.69898   3
   5  -5   8 4.19888 1.76453   2
  -5  -5  -8 2.39334 1.57159   2
   5   5   8 2.10415 1.20702   3
  -5   5  -8 10.3131 2.43323   4
  -6  -5  -8 -0.2401 0.99391   2
   6  -5   8 3.01717 1.33287   2
   6   5   8 0.86975 1.01404   3
  -6   5  -8 1.07891 1.17160   2
  -6   5  -8 3.30055 1.55897   4
   7  -5   8 17.7661 3.12168   2
  -7  -5  -8 14.7803 3.18656   2
   7   5   8 15.9550 2.86257   3
  -7   5  -8 15.3911 2.94667   4
  -7   5  -8 20.0621 3.65089   2
  -8  -5  -8 6.77371 2.28123   2
   8  -5   8 6.30915 2.00555   2
   8   5   8 7.96711 2.32446   3
  -8   5  -8 6.18378 2.13342   2
  -9   5  -8 3.23923 2.11632   2
   9   5   8 -0.1371 1.14293   3
  10  -6  -8 8.30672 2.82031   5
 -10   6   8 6.45177 2.01617   3
  10   6  -8 4.45682 1.96649   5
  10   6  -8 6.95843 2.46933   1
   9  -6  -8 8.59262 2.40471   1
   9  -6  -8 6.22997 2.20133   4
   9  -6  -8 5.33949 2.14427   5
  -9   6   8 4.61826 1.97813   3
   9   6  -8 8.26251 2.53672   1
   9   6  -8 9.74064 2.64494   5
   8  -6  -8 2.42133 1.73091   5
   8  -6  -8 0.73100 1.56259   4
   8  -6  -8 -0.0441 1.21913   1
   8   6  -8 2.14010 1.39613   1
  -8   6   8 0.24392 1.42364   3
   8   6  -8 0.77053 1.34048   5
   7  -6  -8 2.31983 1.44817   5
   7  -6  -8 2.94274 1.71399   4
  -7  -6   8 0.81069 1.19348   2
   7  -6  -8 1.67917 1.75040   1
   7   6  -8 4.62466 2.15444   1
  -7   6   8 3.66989 1.61817   5
  -7   6   8 0.40658 1.04608   3
   7   6  -8 2.51160 1.60514   5
   6  -6  -8 2.88568 1.74351   4
  -6  -6   8 4.27732 1.50912   2
   6  -6  -8 1.12182 1.76947   1
   6  -6  -8 0.65730 1.13586   5
   6   6  -8 3.96452 1.61159   4
  -6   6   8 1.30055 1.15981   5
  -6   6   8 -0.3773 1.00083   3
   6   6  -8 3.26238 1.46689   5
   6   6  -8 0.81173 1.23004   1
  -5  -6   8 2.71620 1.14556   2
   5  -6  -8 2.30980 1.40746   1
   5  -6  -8 2.41796 1.67827   4
   5   6  -8 1.13195 1.29557   4
  -5   6   8 3.40729 1.22505   3
   5   6  -8 3.35377 1.25197   5
   5   6  -8 2.94013 1.76853   1
   4  -6  -8 13.2217 2.45416   4
  -4  -6   8 18.6974 2.66344   2
   4  -6  -8 8.70932 2.17673   1
   4   6  -8 11.8707 2.53242   1
  -4   6   8 11.9006 2.14902   3
   4   6  -8 15.9961 2.22490   5
   4   6  -8 8.41487 2.03624   4
   3  -6  -8 32.8370 3.70092   4
   3  -6  -8 37.5866 3.31214   1
  -3  -6   8 36.8717 3.70539   2
   3   6  -8 32.2971 4.04441   1
   3   6  -8 34.3819 3.69445   4
   3   6  -8 39.4676 2.96569   5
  -3   6   8 29.7903 3.21565   3
   2  -6  -8 9.06178 1.99625   4
  -2  -6   8 11.6408 2.04222   2
   2  -6  -8 10.1192 1.94671   1
   2   6  -8 10.0527 2.22826   4
  -2   6   8 13.7995 2.14331   3
   2   6  -8 11.6217 2.61802   1
   1  -6  -8 82.1152 5.22686   1
   1  -6  -8 76.2588 5.14106   4
  -1  -6   8 80.3862 5.05432   2
   1  -6  -8 76.8031 4.57333   2
  -1   6   8 81.4392 4.74658   3
   1   6  -8 77.6600 5.30060   1
   1   6  -8 77.2394 5.30322   4
   0  -6  -8 37.8064 3.16154   2
   0  -6   8 34.0721 3.67046   2
   0  -6  -8 38.9052 3.88579   4
   0   6  -8 42.3582 3.63370   4
   0   6  -8 39.5816 4.43585   1
   0   6   8 39.5635 3.23111   3
   1  -6   8 9.41310 1.99554   2
  -1  -6  -8 4.42033 1.39238   4
  -1  -6  -8 7.13999 1.67055   2
  -1   6  -8 11.0323 2.18294   4
  -1   6  -8 10.5388 2.54143   1
   1   6   8 9.45965 1.95070   3
  -2  -6  -8 26.2944 3.12304   4
  -2  -6  -8 28.8807 3.45734   2
   2  -6   8 26.2240 3.36303   2
   2   6   8 25.0283 3.03331   3
  -2   6  -8 32.4977 3.74631   1
  -2   6  -8 31.6748 3.78547   4
  -3  -6  -8 -1.0429 0.97877   2
   3  -6   8 -0.2935 0.73242   2
  -3  -6  -8 0.08461 0.73327   4
   3   6   8 -0.3183 0.84277   3
  -3   6  -8 0.07182 0.78757   4
  -3   6  -8 -0.1029 1.34555   1
  -4  -6  -8 12.0064 2.04437   4
  -4  -6  -8 6.76731 2.17154   2
   4  -6   8 14.6866 2.68509   2
  -4   6  -8 15.5865 2.92678   4
   4   6   8 12.2253 2.22398   3
  -4   6  -8 15.4596 2.77998   1
  -5  -6  -8 6.44550 2.12920   2
   5  -6   8 3.78694 1.72133   2
  -5   6  -8 7.40711 2.21426   4
  -5   6  -8 3.71586 1.92004   1
   5   6   8 4.14145 1.40449   3
  -6  -6  -8 3.05430 1.73843   2
   6  -6   8 5.95805 1.80156   2
  -6   6  -8 6.01043 2.12107   4
   6   6   8 5.95063 1.69776   3
  -7  -6  -8 9.23131 2.42270   2
   7  -6   8 12.5470 2.69903   2
  -7   6  -8 11.3689 2.43065   4
   7   6   8 16.2719 2.90498   3
  -7   6  -8 11.8974 2.97552   2
  -8  -6  -8 9.07845 2.81653   2
   8  -6   8 7.31478 2.37068   2
   8   6   8 8.68464 2.38921   3
  -8   6  -8 6.37336 2.47022   2
   9  -7  -8 0.09156 1.20798   4
   9  -7  -8 -0.2182 1.52567   1
   9  -7  -8 0.23147 1.82170   5
   9   7  -8 2.96618 1.55234   5
  -9   7   8 0.81887 1.59693   5
  -9   7   8 1.50626 1.60097   3
   9   7  -8 -0.3330 1.56451   1
   8  -7  -8 2.30892 1.50064   4
   8  -7  -8 1.43283 1.40809   1
   8  -7  -8 -0.6187 1.38028   5
  -8  -7   8 -0.9280 1.21575   2
   8   7  -8 3.41575 1.64030   5
  -8   7   8 3.67399 1.77847   5
  -8   7   8 0.53729 1.18959   3
   8   7  -8 1.49095 1.52144   1
   7  -7  -8 -1.1892 0.88793   4
   7  -7  -8 -0.7593 1.23063   5
   7  -7  -8 1.80682 1.52342   1
  -7  -7   8 -1.5528 1.02693   2
   7   7  -8 0.77757 1.60398   1
   7   7  -8 1.42565 1.40695   5
  -7   7   8 -0.8509 1.14281   3
  -7   7   8 -0.4004 1.21154   5
   6  -7  -8 0.16854 1.11442   5
   6  -7  -8 -0.2751 0.82113   4
   6  -7  -8 2.62932 1.54819   1
  -6  -7   8 0.79381 0.93552   2
  -6   7   8 0.81077 1.02034   3
  -6   7   8 1.53484 1.44308   5
   6   7  -8 1.72788 1.34389   1
   6   7  -8 2.61265 1.31060   5
  -5  -7   8 12.9962 2.36314   2
   5  -7  -8 7.71578 2.22662   1
   5  -7  -8 11.1538 2.56267   4
  -5   7   8 9.57283 2.01264   3
   5   7  -8 11.9419 2.26451   4
   5   7  -8 13.7101 2.28237   5
   5   7  -8 9.05956 2.58671   1
   4  -7  -8 29.8887 3.58589   1
  -4  -7   8 27.1778 3.28782   2
   4  -7  -8 29.5090 3.64067   4
   4   7  -8 21.8007 3.52286   1
   4   7  -8 27.1149 3.31607   4
   4   7  -8 30.8001 3.29028   5
  -4   7   8 32.0631 3.44839   3
  -3  -7   8 6.97296 1.75923   2
   3  -7  -8 7.38742 2.05325   4
   3  -7  -8 5.60442 1.66192   1
  -3   7   8 6.13591 1.74208   3
   3   7  -8 9.20452 1.77827   5
   3   7  -8 7.55716 1.93510   4
   3   7  -8 3.27401 1.96073   1
  -2  -7   8 5.82102 1.71579   2
   2  -7  -8 6.96987 1.84252   4
   2  -7  -8 7.17306 1.69430   1
   2   7  -8 4.60511 1.60628   5
  -2   7   8 4.85030 1.45814   3
   2   7  -8 4.79475 1.84252   4
   2   7  -8 4.87443 1.85342   1
   1  -7  -8 2.41677 1.19747   4
  -1  -7   8 1.28787 1.11757   2
   1   7  -8 1.10757 1.36142   4
  -1   7   8 -0.5982 1.08181   3
   1   7  -8 0.85819 1.35162   1
   0  -7   8 4.70493 1.66139   2
   0  -7  -8 6.10315 1.65088   4
   0  -7  -8 6.99460 1.61790   2
   0   7  -8 5.07275 1.61895   4
   0   7   8 4.31780 1.63823   3
   0   7  -8 2.94220 2.10620   1
   1  -7   8 2.25439 1.14632   2
  -1  -7  -8 1.78493 1.30328   4
  -1  -7  -8 2.06936 1.20660   2
  -1   7  -8 1.15721 1.31725   4
  -1   7  -8 1.74768 1.69423   1
   1   7   8 1.91149 1.18448   3
  -2  -7  -8 61.9445 4.45709   2
  -2  -7  -8 64.1870 4.30336   4
   2  -7   8 59.4350 4.54752   2
  -2   7  -8 53.8242 4.69682   1
  -2   7  -8 62.8313 4.96176   4
   2   7   8 71.9812 4.66440   3
  -3  -7  -8 2.98025 1.24663   4
  -3  -7  -8 -0.0966 1.16953   2
   3  -7   8 0.35636 0.87377   2
   3   7   8 4.14165 1.50807   3
  -3   7  -8 3.36359 1.47091   4
  -3   7  -8 2.28007 1.84976   1
   4  -7   8 13.9798 2.63786   2
  -4  -7  -8 10.6774 2.39423   2
  -4   7  -8 11.6886 2.59637   1
   4   7   8 12.7456 2.39448   3
  -4   7  -8 16.5257 3.04763   4
   5  -7   8 0.66615 1.23431   2
  -5  -7  -8 3.71093 1.82322   2
  -5   7  -8 -2.6558 1.32164   1
   5   7   8 1.21542 1.02253   3
  -5   7  -8 1.06719 1.40956   4
   6  -7   8 4.57563 1.65610   2
  -6  -7  -8 6.68174 2.27499   2
   6   7   8 6.37883 1.81028   3
  -6   7  -8 10.6403 2.64164   4
   7  -7   8 10.0416 2.45548   2
  -7  -7  -8 6.90190 2.41761   2
   7   7   8 12.2522 2.67819   3
  -7   7  -8 7.46439 2.54054   2
  -7   7  -8 6.23238 2.36715   4
  -8  -7  -8 1.65243 1.82083   2
   8  -7   8 1.45979 1.72472   2
  -8   7  -8 -0.2973 1.73363   2
   8   7   8 0.92948 1.61138   3
  -8   7  -8 1.42732 1.99359   4
   9  -8  -8 1.00151 1.31710   4
   9  -8  -8 0.75706 1.88297   5
   9  -8  -8 -0.9586 2.10742   1
  -9   8   8 0.35833 1.56845   5
  -9   8   8 0.62025 1.28190   3
   9   8  -8 2.27185 1.96563   1
   9   8  -8 2.64679 1.64248   5
  -8  -8   8 -0.8552 1.29379   2
   8  -8  -8 -1.2569 1.56677   5
   8  -8  -8 1.04524 1.20854   4
   8  -8  -8 -1.9950 1.73145   1
  -8   8   8 -0.4478 1.29395   5
  -8   8   8 -0.2586 1.03982   3
   8   8  -8 1.61814 1.34350   1
   8   8  -8 0.55197 1.05523   5
   7  -8  -8 0.31550 1.65099   1
  -7  -8   8 -1.9636 1.01955   2
   7  -8  -8 1.76620 1.68279   5
   7  -8  -8 -2.7609 1.16491   4
  -7   8   8 -0.3634 1.16744   5
   7   8  -8 0.10412 1.65483   1
  -7   8   8 1.95753 1.60272   3
   7   8  -8 1.41622 1.08510   5
   6  -8  -8 1.26981 1.71897   1
  -6  -8   8 3.98914 1.61240   2
   6  -8  -8 1.41015 1.70705   4
   6   8  -8 2.32868 1.56431   1
  -6   8   8 0.49442 1.00666   3
   6   8  -8 1.96315 1.16365   5
  -5  -8   8 14.0405 2.55508   2
   5  -8  -8 10.7629 2.58722   1
   5  -8  -8 19.0793 3.04207   4
   5   8  -8 16.6397 3.26925   1
   5   8  -8 12.7300 2.38230   4
   5   8  -8 15.0901 2.48445   5
  -5   8   8 10.6792 2.18792   3
   4  -8  -8 7.18284 1.98080   1
  -4  -8   8 5.88966 1.58595   2
   4  -8  -8 7.82350 2.11512   4
   4   8  -8 5.43199 1.53036   5
   4   8  -8 5.40004 1.80669   4
   4   8  -8 4.99430 2.01196   1
  -4   8   8 3.62966 1.61393   3
  -3  -8   8 8.97927 2.10207   2
   3  -8  -8 8.72012 2.04504   1
   3  -8  -8 8.61110 2.04777   4
  -3   8   8 10.2720 2.18336   3
   3   8  -8 11.4418 2.36124   4
   3   8  -8 8.26493 2.62857   1
   3   8  -8 12.1775 2.08931   5
  -2  -8   8 0.06660 1.07350   2
   2  -8  -8 -0.2480 0.97564   1
   2  -8  -8 -0.6507 0.79565   4
   2   8  -8 0.82324 1.03458   4
  -2   8   8 -2.3174 1.03003   3
   2   8  -8 -0.2381 1.60764   1
   2   8  -8 -0.2610 0.87724   5
  -1  -8   8 16.0112 2.62449   2
   1  -8  -8 16.5130 2.62381   4
  -1   8   8 16.0377 2.58316   3
   1   8  -8 15.8023 2.98691   1
   1   8  -8 12.9509 2.49525   4
   0  -8   8 4.34537 1.66017   2
   0  -8  -8 5.98726 1.80122   4
   0  -8  -8 5.70489 1.49453   2
   0   8  -8 6.55285 2.40625   1
   0   8   8 4.21935 1.72921   3
   0   8  -8 6.34948 1.85937   4
  -1  -8  -8 1.16103 1.08007   2
   1  -8   8 3.32859 1.35840   2
  -1  -8  -8 0.31193 0.72604   4
  -1   8  -8 -0.0448 1.21568   4
   1   8   8 -0.7215 1.24678   3
  -1   8  -8 0.59698 1.64372   1
  -2  -8  -8 0.87814 1.13286   4
  -2  -8  -8 1.49316 1.26963   2
   2  -8   8 0.92260 1.29712   2
  -2   8  -8 4.44206 2.14805   1
   2   8   8 0.20524 1.29095   3
  -2   8  -8 3.35122 1.68731   4
  -3  -8  -8 38.7636 3.29594   4
   3  -8   8 40.1963 4.25299   2
  -3  -8  -8 29.2407 3.66175   2
   3   8   8 43.0855 4.34643   3
  -3   8  -8 34.4571 4.17166   4
  -3   8  -8 34.7205 4.13841   1
  -4  -8  -8 4.82386 1.90623   2
   4  -8   8 4.48996 1.80409   2
   4   8   8 3.31319 1.36473   3
  -4   8  -8 1.09212 1.48537   4
  -4   8  -8 1.99530 1.78603   1
  -5  -8  -8 3.50203 1.82268   2
   5  -8   8 3.91412 1.80541   2
  -5   8  -8 4.66258 2.15338   1
   5   8   8 4.31390 1.65400   3
  -5   8  -8 8.18820 2.43852   4
   6  -8   8 4.76402 1.62075   2
  -6  -8  -8 2.06607 1.40650   2
   6   8   8 2.63029 1.23505   3
  -6   8  -8 1.06547 1.62674   4
  -6   8  -8 -0.4926 1.62471   1
  -7  -8  -8 15.6478 3.15569   2
   7  -8   8 11.7065 2.72903   2
  -7   8  -8 12.2304 2.70978   4
   7   8   8 14.7431 2.91643   3
   8  -8   8 0.35289 1.57400   2
   8   8   8 2.46722 1.81448   3
  -8   8  -8 1.01208 2.11461   4
  -8   8  -8 2.18833 2.06277   2
   8  -9  -8 -0.4148 1.99728   1
  -8  -9   8 0.02756 1.41640   2
   8  -9  -8 -1.4532 1.39338   4
   8  -9  -8 2.56232 1.90564   5
   8   9  -8 3.36088 1.89179   1
  -8   9   8 1.29551 1.59184   3
   8   9  -8 2.10664 1.79077   5
  -8   9   8 1.82664 1.63007   5
   7  -9  -8 -0.6605 1.16071   1
   7  -9  -8 -0.2488 1.43040   5
   7  -9  -8 -1.6847 1.59785   4
  -7  -9   8 -0.1700 1.26126   2
   7   9  -8 -0.4610 1.60759   1
  -7   9   8 -0.5639 1.44991   3
   7   9  -8 2.46277 1.56957   5
   6  -9  -8 -0.3348 1.07761   4
   6  -9  -8 -0.3852 1.00018   1
  -6  -9   8 -0.6773 1.14611   2
  -6   9   8 -1.6168 1.18335   3
   6   9  -8 0.65261 1.79387   1
   6   9  -8 4.50076 1.69688   5
   5  -9  -8 -0.7887 1.44267   4
  -5  -9   8 -1.0985 1.15046   2
   5  -9  -8 0.67541 1.40195   1
   5   9  -8 0.82509 1.33973   4
  -5   9   8 0.77698 1.43844   3
   5   9  -8 -1.3698 1.07545   1
   5   9  -8 2.96772 1.26328   5
   4  -9  -8 25.2838 3.47077   1
  -4  -9   8 29.4492 3.60375   2
   4  -9  -8 32.6423 4.13735   4
   4   9  -8 33.7571 4.52383   1
  -4   9   8 32.5027 3.78099   3
   4   9  -8 33.1763 3.63994   5
   4   9  -8 24.4897 3.40351   4
   3  -9  -8 8.17044 2.07178   4
   3  -9  -8 3.12998 1.50791   1
  -3  -9   8 7.53992 1.79571   2
  -3   9   8 3.11309 1.46741   3
   3   9  -8 4.89009 1.57819   5
   3   9  -8 5.12428 1.87321   4
   3   9  -8 6.54587 2.15883   1
  -2  -9   8 9.00291 1.95247   2
   2  -9  -8 8.75117 2.08567   4
   2   9  -8 7.81061 1.87867   5
   2   9  -8 4.89651 1.62843   4
  -2   9   8 4.98769 1.67475   3
   2   9  -8 3.65407 2.20169   1
  -1  -9   8 0.26379 0.95871   2
   1  -9  -8 1.09307 1.29579   4
   1   9  -8 -0.4184 1.30458   1
   1   9  -8 -0.4494 1.21005   4
  -1   9   8 0.07618 1.02417   3
   0  -9  -8 8.65054 2.15604   4
   0  -9   8 6.67620 1.76928   2
   0   9   8 5.88231 2.14263   3
   0   9  -8 5.24592 1.77230   4
   0   9  -8 5.98424 2.13145   1
   1  -9   8 32.0691 3.85151   2
  -1  -9  -8 31.5430 3.61749   4
  -1  -9  -8 26.8666 3.15017   2
  -1   9  -8 20.4774 3.31679   4
   1   9   8 22.1291 3.34049   3
  -1   9  -8 26.6915 3.88199   1
   2  -9   8 0.18709 0.87966   2
  -2  -9  -8 -0.5080 0.80156   2
  -2  -9  -8 -0.0709 0.83564   4
  -2   9  -8 -2.1683 0.87266   1
  -2   9  -8 -0.2605 0.84656   4
   2   9   8 0.97259 1.08823   3
  -3  -9  -8 0.97938 1.24423   4
   3  -9   8 1.64916 1.46612   2
  -3  -9  -8 1.28535 1.39648   2
  -3   9  -8 2.29250 1.45201   4
   3   9   8 0.61894 1.28112   3
  -3   9  -8 5.49544 2.22097   1
   4  -9   8 3.11511 1.43871   2
  -4  -9  -8 6.75592 2.10852   2
  -4   9  -8 2.69072 1.56913   4
   4   9   8 3.16755 1.56151   3
  -4   9  -8 0.90221 1.30360   1
   5  -9   8 0.42153 1.28443   2
  -5  -9  -8 2.74442 1.70165   2
   5   9   8 0.58187 1.27850   3
  -5   9  -8 -0.3115 1.73855   1
  -5   9  -8 0.31572 1.44196   4
  -6  -9  -8 2.75927 1.56604   2
   6  -9   8 5.78083 2.04651   2
  -6   9  -8 2.68257 2.01015   4
   6   9   8 3.45144 1.62306   3
  -6   9  -8 2.50318 1.80626   1
   7  -9   8 -0.6691 0.84817   2
  -7  -9  -8 0.18084 1.76004   2
   7   9   8 1.48810 1.21356   3
  -7   9  -8 0.22518 1.43408   4
   8 -10  -8 -1.4401 1.54894   4
  -8 -10   8 0.44948 1.59967   2
   8 -10  -8 -0.6429 1.78018   5
   8 -10  -8 0.88035 1.95318   1
   8  10  -8 4.25980 1.74789   5
  -8  10   8 -0.3285 1.55755   3
   8  10  -8 -1.4898 1.77421   1
   7 -10  -8 -0.0520 1.33860   1
   7 -10  -8 -1.1042 1.17555   4
  -7 -10   8 -0.1809 1.36074   2
  -7  10   8 -0.2760 1.16734   3
   7  10  -8 0.71117 1.38988   1
   7  10  -8 6.54667 1.95138   5
   6 -10  -8 2.56657 2.01447   4
  -6 -10   8 0.65956 1.04899   2
   6 -10  -8 -0.3891 1.14141   1
   6  10  -8 0.66289 1.86780   1
  -6  10   8 -1.1961 1.42716   3
   6  10  -8 5.55250 1.79688   5
  -5 -10   8 2.97448 1.39859   2
   5 -10  -8 2.38233 1.56985   4
   5 -10  -8 4.55374 1.79532   1
  -5  10   8 4.33237 1.96311   3
   5  10  -8 8.85919 2.06638   5
   5  10  -8 6.19055 2.37352   1
  -4 -10   8 22.6199 3.30982   2
   4 -10  -8 18.3465 3.11095   1
   4 -10  -8 23.2395 3.50541   4
   4  10  -8 14.1729 3.32342   1
   4  10  -8 23.9564 3.25687   5
   4  10  -8 19.6321 3.13534   4
  -4  10   8 18.7882 3.20832   3
   3 -10  -8 0.42998 1.06008   4
  -3 -10   8 0.09263 0.75214   2
  -3  10   8 -1.2333 0.89670   3
   3  10  -8 0.88624 1.35938   4
   3  10  -8 0.07252 1.23587   5
   3  10  -8 1.23417 2.10232   1
  -2 -10   8 3.88149 1.65049   2
   2 -10  -8 0.21263 0.98181   4
  -2  10   8 -0.9093 1.51592   3
   2  10  -8 -0.7258 1.50278   1
   2  10  -8 0.07219 0.96617   4
   2  10  -8 0.92591 1.29373   5
   1 -10  -8 2.70410 1.55388   4
  -1 -10   8 2.24506 1.55761   2
  -1  10   8 1.42501 1.70458   3
   1  10  -8 -0.9605 1.97197   1
   1  10  -8 1.54441 1.48904   4
   0 -10   8 20.1917 3.20084   2
   0 -10  -8 22.6482 3.11714   4
   0  10  -8 26.0091 3.60181   4
   0  10  -8 23.5619 3.82990   1
   0  10   8 19.1301 3.12823   3
  -1 -10  -8 0.99023 1.15442   2
   1 -10   8 1.10546 1.52366   2
  -1 -10  -8 3.75799 1.54107   4
  -1  10  -8 2.30614 1.41063   4
   1  10   8 -0.5840 1.58093   3
  -1  10  -8 1.51517 2.12489   1
  -2 -10  -8 11.2733 2.19859   2
   2 -10   8 9.26443 2.21647   2
  -2 -10  -8 6.92323 1.83507   4
   2  10   8 8.45125 2.09475   3
  -2  10  -8 8.20529 2.50044   1
  -2  10  -8 9.73591 2.32817   4
   3 -10   8 -2.0620 1.03391   2
  -3 -10  -8 -1.4776 1.14778   2
  -3  10  -8 -0.9275 1.35390   4
   3  10   8 -0.4295 0.90407   3
  -3  10  -8 -3.2101 1.34069   1
   4 -10   8 1.01196 1.43487   2
   4 -10   8 -0.7499 0.72716   4
  -4 -10  -8 0.35658 1.42476   2
   4  10   8 0.58331 0.97568   3
  -4  10  -8 1.82986 1.40169   4
  -4  10  -8 0.89534 1.45677   1
   5 -10   8 -1.1808 0.72037   2
   5 -10   8 0.04847 0.96924   4
  -5 -10  -8 -0.4634 1.10365   2
  -5  10  -8 0.53291 1.70818   1
  -5  10  -8 2.66718 1.62223   4
   5  10   8 1.09698 1.14099   3
   6 -10   8 2.73792 1.37896   4
  -6 -10  -8 1.30790 1.78436   2
   6 -10   8 0.42541 1.54856   2
  -6  10  -8 1.59024 1.59647   4
  -6  10  -8 1.05563 1.89598   1
   6  10   8 2.93554 1.60578   3
   7 -10   8 4.69236 2.00200   2
  -7  10  -8 3.60258 2.34404   4
   7  10   8 9.33563 2.52162   3
  -7 -11   8 -0.7341 1.51155   2
   7 -11  -8 4.34803 2.39373   4
   7 -11  -8 3.16796 1.86201   1
  -7  11   8 2.66423 1.64649   3
   7  11  -8 6.18600 2.09983   5
   7  11  -8 0.28811 1.63941   1
  -6 -11   8 2.60218 1.42629   2
   6 -11  -8 3.61768 1.74274   1
   6 -11  -8 2.09836 1.66698   4
  -6  11   8 1.70646 1.78932   3
   6  11  -8 6.83982 1.96141   5
   6  11  -8 2.64560 1.71538   1
  -5 -11   8 25.8363 3.65553   2
   5 -11  -8 31.5683 4.21550   4
   5 -11  -8 27.4203 3.98747   1
   5  11  -8 34.7989 4.22246   5
   5  11  -8 27.4420 4.50854   1
  -5  11   8 27.6110 3.94510   3
   4 -11  -8 3.08738 2.03371   4
   4 -11  -8 6.03800 2.08015   1
  -4 -11   8 6.68367 1.92980   2
   4  11  -8 4.20325 1.53005   4
   4  11  -8 5.97127 1.95349   5
  -4  11   8 2.72893 1.99107   3
   4  11  -8 5.24682 2.34892   1
   3 -11  -8 4.66254 1.74908   4
  -3 -11   8 2.06937 1.63649   2
  -3  11   8 4.36464 2.09280   3
   3  11  -8 0.96303 1.76256   1
   3  11  -8 3.38743 1.70446   4
   3  11  -8 4.36814 1.73967   5
   2 -11  -8 12.5198 2.56610   4
  -2 -11   8 9.99419 2.24493   2
  -2  11   8 7.89759 2.51677   3
   2  11  -8 10.6427 2.43309   5
   2  11  -8 8.67298 3.07223   1
   2  11  -8 11.8036 2.54624   4
  -1 -11   8 13.1898 2.52563   2
   1 -11  -8 10.0961 2.38218   4
   1  11  -8 4.90531 3.13650   5
   1  11  -8 11.6930 2.54187   4
   1  11  -8 6.33370 2.86481   1
  -1  11   8 9.91912 2.38998   3
   0 -11   8 -1.7196 0.71956   2
   0 -11  -8 1.42740 1.22546   4
   0  11  -8 0.48535 1.46543   4
   0  11   8 -2.4051 0.87494   3
   0  11  -8 -2.7682 1.70507   1
  -1 -11  -8 6.62585 1.94857   4
   1 -11   8 6.53626 2.05237   2
   1  11   8 3.13434 1.76440   3
  -1  11  -8 6.87344 2.66434   1
  -1  11  -8 6.93663 2.25905   4
  -2 -11  -8 -0.8176 1.11952   2
   2 -11   8 -0.6233 1.22685   2
  -2 -11  -8 1.44951 1.39285   4
  -2  11  -8 0.73624 1.58809   4
  -2  11  -8 -0.6943 1.86640   1
   2  11   8 -1.3142 0.87246   3
  -3 -11  -8 3.46782 1.76094   2
   3 -11   8 2.49500 1.26919   4
   3 -11   8 4.58342 1.66042   2
   3  11   8 2.81043 1.84082   3
  -3  11  -8 2.46092 1.60017   4
  -3  11  -8 1.98982 2.25372   1
   4 -11   8 18.0768 3.07083   4
   4 -11   8 24.0215 3.57036   2
  -4 -11  -8 20.9869 3.36145   2
  -4  11  -8 20.3712 3.65099   1
   4  11   8 22.9418 3.64299   3
  -4  11  -8 13.4128 3.22065   4
  -5 -11  -8 13.8264 2.86306   2
   5 -11   8 15.3653 2.97038   4
   5 -11   8 14.1998 2.96347   2
   5  11   8 16.0271 3.17403   3
  -5  11  -8 10.0501 2.96959   1
  -5  11  -8 11.4091 3.11101   4
   6 -11   8 -0.3628 1.41688   4
   6 -11   8 0.64963 1.10137   2
  -6 -11  -8 -1.6325 1.58310   2
  -6  11  -8 -0.7887 1.49804   1
  -6  11  -8 -1.4525 1.94394   4
   6  11   8 2.71758 1.71650   3
  -7 -12   8 1.90786 1.86824   2
   7  12  -8 3.02926 1.80677   1
   7  12  -8 4.40626 1.65347   5
  -7  12   8 0.92115 1.81449   3
  -6 -12   8 -1.8106 1.09445   2
   6 -12  -8 0.30764 1.28137   1
   6 -12  -8 -0.1509 1.69585   4
   6  12  -8 -1.8293 1.81317   1
   6  12  -8 2.06036 1.33125   5
  -6  12   8 -2.7640 1.52395   3
   5 -12  -8 0.78445 1.69365   1
   5 -12  -8 3.62687 2.21510   4
  -5 -12   8 3.18526 1.64762   2
  -5  12   8 3.41668 2.19209   3
   5  12  -8 2.24271 1.62349   5
   5  12  -8 3.36235 2.02259   1
   4 -12  -8 -0.0498 1.65005   4
  -4 -12   8 -1.0303 1.10537   2
   4  12  -8 1.77148 1.58755   5
   4  12  -8 -1.7612 2.24143   1
  -4  12   8 0.56188 1.71141   3
   3 -12  -8 -0.0374 1.48948   4
  -3 -12   8 1.98208 1.61290   2
  -3  12   8 -1.4370 1.69023   3
   3  12  -8 2.12520 1.70240   5
   3  12  -8 -0.1536 1.06035   4
   3  12  -8 -1.4647 2.15185   1
  -2 -12   8 4.49931 1.70853   2
   2 -12  -8 3.51931 1.54399   4
  -2  12   8 1.20281 1.49936   3
   2  12  -8 -0.0269 1.08125   4
   2  12  -8 1.06922 1.64231   5
   2  12  -8 0.07076 1.67224   1
   1 -12  -8 12.1346 2.68401   4
  -1 -12   8 10.9169 2.49364   2
   1  12  -8 11.0153 4.13026   5
  -1  12   8 5.59271 2.52775   3
   1  12  -8 7.15108 2.74160   1
   1  12  -8 9.31248 2.65124   4
   0 -12   8 11.2893 2.42030   2
   0 -12  -8 11.9527 2.44162   4
   0  12  -8 8.89430 2.42343   4
   0  12  -8 9.06546 2.70358   1
   0  12   8 5.09885 2.43758   3
  -1 -12  -8 0.47933 1.06633   4
   1 -12   8 0.05368 1.07566   2
  -1  12  -8 -3.8969 1.68794   1
   1  12   8 -1.0480 1.24298   3
  -1  12  -8 -1.0037 0.90673   4
   2 -12   8 8.36038 2.31703   2
  -2 -12  -8 2.59559 1.51497   2
   2 -12   8 4.15868 1.63213   4
  -2  12  -8 8.17739 3.01092   1
   2  12   8 5.96233 2.07715   3
  -2  12  -8 7.93296 2.32402   4
   3 -12   8 0.66802 1.48225   4
  -3 -12  -8 0.33199 1.42677   2
   3 -12   8 2.00385 1.71779   2
  -3  12  -8 1.96761 1.66949   4
  -3  12  -8 -0.3487 2.14791   1
   3  12   8 3.04921 1.87324   3
   4 -12   8 1.77094 1.60158   2
  -4 -12  -8 0.31430 1.53226   2
   4 -12   8 2.54144 1.39719   4
  -4  12  -8 -0.1847 1.34061   4
  -4  12  -8 1.03922 1.82434   1
   4  12   8 2.56084 1.68228   3
   5 -12   8 -0.7094 1.37588   2
  -5 -12  -8 -0.9994 1.59326   2
   5 -12   8 -0.2687 1.06388   4
  -5  12  -8 -0.4624 1.49795   1
  -5  12  -8 1.40266 1.74576   4
   5  12   8 2.52200 1.72332   3
  -6 -13   8 2.31760 1.64453   2
   6 -13  -8 -0.0798 1.51817   1
   6  13  -8 1.83633 1.95046   1
   6  13  -8 4.96971 2.00599   5
  -6  13   8 -2.6680 2.11138   3
  -5 -13   8 1.37415 1.39430   2
   5 -13  -8 3.39014 1.80844   4
   5  13  -8 2.63472 2.72534   1
  -5  13   8 0.16253 2.00925   3
   5  13  -8 4.94525 1.61012   5
  -4 -13   8 3.00887 1.64145   2
   4 -13  -8 5.00093 1.93821   4
   4  13  -8 10.7637 2.64681   5
   4  13  -8 3.58645 2.83918   1
  -4  13   8 3.81016 2.44423   3
  -3 -13   8 0.68680 1.64541   2
   3 -13  -8 0.31625 1.27326   4
   3  13  -8 0.13427 1.44196   4
  -3  13   8 -2.2364 1.85460   3
   3  13  -8 5.92057 2.46099   1
   3  13  -8 -0.5685 1.48331   5
   2 -13  -8 2.60041 1.95444   4
  -2 -13   8 0.06948 1.09225   2
  -2  13   8 0.07613 1.93193   3
   2  13  -8 1.59607 1.83552   5
   2  13  -8 -1.5864 1.66071   1
   2  13  -8 1.36997 1.78683   4
  -1 -13   8 0.77084 1.52203   2
   1 -13  -8 3.10864 1.60024   4
   1  13  -8 -0.4838 1.82484   1
  -1  13   8 -0.6392 1.46120   3
   1  13  -8 6.68709 2.11528   4
   0 -13  -8 3.26930 1.59151   4
   0 -13   8 0.85457 1.57792   2
   0  13  -8 -0.6687 1.61057   1
   0  13  -8 1.05242 1.53984   4
   0  13   8 -2.3296 1.71498   3
   1 -13   8 6.68862 2.26193   2
  -1 -13  -8 3.77673 1.55237   4
  -1  13  -8 3.14314 2.62706   1
  -1  13  -8 7.74559 2.69342   4
   1  13   8 2.41455 2.57570   3
   2 -13   8 2.58471 1.46429   2
   2 -13   8 -0.6418 1.30656   4
  -2  13  -8 1.44760 1.37282   4
   2  13   8 0.54765 1.38504   3
  -2  13  -8 2.71403 2.66066   1
   3 -13   8 0.26547 1.35078   2
  -3 -13  -8 0.05158 1.34186   2
   3 -13   8 -0.0217 1.09736   4
  -3  13  -8 -1.2696 1.29957   4
  -3  13  -8 -2.7754 2.20167   1
   3  13   8 -0.7495 1.37628   3
  -4 -13  -8 -1.4525 1.33500   2
   4 -13   8 1.15658 1.37962   4
   4 -13   8 -0.9124 1.00884   2
  -4  13  -8 0.86464 1.80896   1
  -4  13  -8 -0.2264 1.43395   4
   4  13   8 4.37731 1.88228   3
  -4 -14   8 8.41943 2.54679   2
   4 -14  -8 7.50969 2.81616   4
   4  14  -8 11.0208 2.93437   5
   4  14  -8 6.57774 2.73789   1
  -4  14   8 5.94410 2.68077   3
   3 -14  -8 -1.8004 1.13217   4
  -3 -14   8 0.80763 1.79313   2
   3  14  -8 0.34873 1.32850   5
   3  14  -8 -0.7612 0.92105   4
  -3  14   8 -3.9948 1.72651   3
   3  14  -8 -1.8227 1.58014   1
   2 -14  -8 1.03158 1.75571   4
  -2 -14   8 -0.2616 1.00281   2
   2  14  -8 -3.1980 1.58561   1
  -2  14   8 -3.9146 1.78275   3
   2  14  -8 -0.9840 0.76663   4
   2  14  -8 -0.9114 1.95242   5
  -1 -14   8 9.04206 2.51380   2
   1 -14  -8 4.54532 1.80923   4
  -1  14   8 5.71384 2.80568   3
   1  14  -8 3.37654 1.99418   4
   1  14  -8 5.63170 2.77183   1
   0 -14   8 11.0066 2.76678   2
   0 -14  -8 5.19840 1.92966   4
   0  14  -8 5.16950 2.61939   1
   0  14  -8 8.83634 2.80656   4
   0  14   8 8.59397 3.06329   3
   1 -14   8 1.44517 1.62127   2
  -1  14  -8 2.83992 1.99101   4
  -1  14  -8 -4.0938 2.05345   1
   1  14   8 -3.9379 1.79373   3
   2 -14   8 9.82322 2.52803   4
   2 -14   8 7.01800 2.30209   2
  -2  14  -8 2.44006 2.27469   1
  -2  14  -8 0.17135 2.04019   4
   2  14   8 2.84812 2.26137   3
   3 -14   8 1.50904 1.33407   2
   3 -14   8 -1.5694 0.99556   4
   3  14   8 -0.4053 1.23502   3
  -3  14  -8 0.13632 1.54602   4
  -3  14  -8 -6.4393 2.03180   1
   2 -15  -8 -1.1513 1.23963   4
  -2 -15   8 -1.2293 0.96066   2
   2  15  -8 1.92663 1.50019   4
   2  15  -8 -2.9438 1.99380   1
  -2  15   8 -3.9050 2.28115   3
   2  15  -8 -1.7919 1.96494   5
  -1 -15   8 -0.6933 1.62129   2
   1 -15  -8 0.55227 1.34854   4
   1  15  -8 -3.3742 1.85648   1
   1  15  -8 0.08476 1.76670   4
  -1  15   8 -3.9226 2.25999   3
   0 -15   8 -3.2582 1.23956   2
   0 -15  -8 2.75633 2.02515   4
   0  15  -8 -1.2547 1.77571   1
   0  15   8 -3.8323 1.98604   3
   0  15  -8 0.95270 1.34563   4
   1 -15   8 2.01111 1.81793   2
   1 -15   8 3.24557 1.64942   4
   1  15   8 0.39332 1.85369   3
  -1  15  -8 2.67911 1.51877   4
  10   0  -9 4.54871 2.11322   5
   9   0  -9 3.20077 1.76691   5
   9   0  -9 -0.3553 2.11721   1
   8   0  -9 3.72188 1.65613   4
   8   0  -9 2.39499 1.38668   5
   8   0  -9 5.39995 2.05886   1
   7   0  -9 0.17910 1.24406   4
   7   0  -9 0.31302 1.11207   1
   6   0  -9 12.4172 2.36244   4
   6   0  -9 8.77619 2.42402   1
   5   0  -9 0.28913 1.36970   4
   5   0  -9 2.32641 1.54939   1
   4   0  -9 310.604 13.6831   4
  -4   0   9 305.243 12.7615   2
   4   0  -9 303.330 13.7665   1
   3   0  -9 -1.2007 0.72620   4
  -3   0   9 -0.0296 0.84188   2
   3   0  -9 0.34236 1.10946   1
  -2   0   9 41.4548 3.12541   2
   2   0  -9 32.6389 3.78153   4
   2   0  -9 43.5176 3.58435   1
   1   0  -9 0.18627 1.15305   4
  -1   0   9 -0.3558 0.83398   2
   1   0  -9 -0.2748 0.98646   1
   0   0   9 8.95360 1.91829   2
   0   0  -9 20.9053 2.88122   4
   0   0  -9 14.2959 2.26871   1
  -1   0  -9 -0.3850 0.88405   4
   1   0   9 -0.3326 0.95893   2
  -1   0  -9 0.60572 0.93933   1
  -2   0  -9 2.73488 1.40058   4
   2   0   9 8.03526 1.95888   2
  -3   0  -9 0.76123 1.05549   2
   3   0   9 -0.0542 0.81806   2
  -3   0  -9 -2.1623 1.03044   4
  -4   0  -9 0.38267 0.95169   2
  -4   0  -9 -1.1245 0.64318   4
   4   0   9 1.06934 1.08056   2
  -5   0  -9 -0.0456 0.96993   2
  -5   0  -9 0.13460 0.97570   4
   5   0   9 -1.5634 0.73285   2
  -6   0  -9 38.9455 4.83218   2
   6   0   9 44.3874 4.95079   2
   7   0   9 0.48376 1.22690   2
  -7   0  -9 0.60219 1.23550   2
   8   0   9 3.07499 1.64332   2
  -8   0  -9 6.12370 2.49688   2
  10  -1  -9 1.54323 1.79302   5
  10   1  -9 3.48631 2.00259   5
   9  -1  -9 6.03423 2.31508   1
   9  -1  -9 6.53493 2.22963   5
   9   1  -9 6.58162 2.36861   1
   9   1  -9 4.01079 1.98838   5
   8  -1  -9 2.91810 2.00046   1
   8  -1  -9 1.57415 1.45359   4
   8   1  -9 0.99920 1.40309   5
   8   1  -9 1.77570 1.93911   1
   7  -1  -9 0.95533 1.21480   4
   7  -1  -9 4.06767 1.89637   1
   7   1  -9 2.33220 1.88359   1
   7   1  -9 2.80908 1.50022   4
   6  -1  -9 2.73298 1.73286   1
   6  -1  -9 1.41365 1.32196   4
   6   1  -9 2.73815 1.52312   4
   6   1  -9 3.78000 1.75627   1
   5  -1  -9 6.29560 1.78431   4
   5  -1  -9 8.44958 2.31161   1
   5   1  -9 7.84791 1.96117   4
   5   1  -9 4.11716 1.65533   1
   4  -1  -9 40.9476 3.68891   1
   4  -1  -9 36.0226 3.99187   4
  -4  -1   9 47.2352 3.35551   2
   4   1  -9 45.6509 3.91310   1
   4   1  -9 34.9906 4.00912   4
  -3  -1   9 10.7304 1.85408   2
   3  -1  -9 12.9441 2.38246   1
   3  -1  -9 6.86829 1.85788   4
   3   1  -9 12.6390 2.47825   4
   3   1  -9 10.5900 2.26202   1
  -3   1   9 10.2013 1.78361   2
   2  -1  -9 3.79430 1.41511   4
   2  -1  -9 8.02706 1.76310   1
  -2  -1   9 7.71978 1.75834   2
   2   1  -9 3.23314 1.55257   1
  -2   1   9 6.53976 1.53760   2
   2   1  -9 8.14442 1.99711   4
   1  -1  -9 12.7005 2.39060   4
  -1  -1   9 9.52190 1.93911   2
   1  -1  -9 10.5594 1.96642   1
   1   1  -9 11.2220 2.15050   1
  -1   1   9 13.1092 2.15920   2
   1   1  -9 14.8232 2.47765   4
   0  -1  -9 2.59856 1.53953   4
   0  -1  -9 3.13643 1.22959   1
   0  -1   9 0.90612 1.04664   2
   0   1   9 1.84180 1.12448   2
   0   1  -9 2.50591 1.30154   1
   0   1  -9 2.48900 1.37608   4
   1  -1   9 73.5598 4.88155   2
  -1  -1  -9 67.3745 4.78867   4
  -1   1  -9 72.8783 4.55930   1
  -1   1  -9 69.4973 4.92733   4
   1   1   9 74.9709 4.86160   2
  -2  -1  -9 16.8179 2.76100   4
  -2  -1  -9 18.0520 2.97783   2
   2  -1   9 23.1841 3.16648   2
   2   1   9 22.4656 3.01125   2
  -2   1  -9 15.9699 2.68614   4
  -3  -1  -9 1.28900 1.15694   2
  -3  -1  -9 2.90050 1.44697   4
   3  -1   9 2.80683 1.53195   2
  -3   1  -9 2.60493 1.59632   4
   3   1   9 0.89495 0.99585   2
  -4  -1  -9 3.37105 1.58168   4
  -4  -1  -9 5.96102 2.09215   2
   4  -1   9 2.38790 1.51435   2
  -4   1  -9 4.13686 1.54317   4
  -4   1  -9 2.44217 1.62781   2
   4   1   9 2.82705 1.36273   2
  -5  -1  -9 13.5888 2.48579   4
   5  -1   9 8.84824 2.38396   2
  -5  -1  -9 10.3025 2.51861   2
   5   1   9 7.48937 2.17127   2
  -5   1  -9 11.6235 2.34470   4
  -5   1  -9 11.8760 2.89752   2
  -6  -1  -9 3.35402 1.84288   2
   6  -1   9 3.81181 1.98446   2
  -6   1  -9 2.56103 1.45415   4
  -6   1  -9 4.90574 2.14445   2
   6   1   9 1.42513 1.74660   2
   7  -1   9 2.03219 1.88115   2
  -7  -1  -9 3.57275 1.72628   2
   7   1   9 3.29214 1.83776   2
  -7   1  -9 1.93197 1.81580   2
  -8  -1  -9 1.30488 1.51818   2
   8  -1   9 -0.1203 1.51376   2
  -8   1  -9 1.68416 1.96672   2
  10  -2  -9 7.01069 2.57826   5
  10   2  -9 5.40603 2.13404   5
   9  -2  -9 3.82855 1.97073   5
   9  -2  -9 3.32696 2.21210   1
   9   2  -9 1.47998 1.58489   1
   9   2  -9 1.71789 1.89391   5
   8  -2  -9 3.22730 1.67132   1
   8  -2  -9 1.07921 1.46361   4
   8   2  -9 0.88817 1.56889   5
   8   2  -9 -0.5681 1.21817   1
   7  -2  -9 10.8167 2.35034   4
   7  -2  -9 16.2931 3.37795   1
   7   2  -9 8.77109 2.61058   5
   7   2  -9 7.39235 2.17446   1
   7   2  -9 9.40503 2.16967   4
   6  -2  -9 1.81124 1.26490   4
   6  -2  -9 -0.4049 0.98003   1
   6   2  -9 -0.2280 0.82755   4
   6   2  -9 0.25531 1.00621   1
  -5  -2   9 95.8316 5.33755   2
   5  -2  -9 98.4897 6.37867   1
   5  -2  -9 95.6166 5.96518   4
   5   2  -9 86.6866 5.76164   4
   5   2  -9 91.6841 6.12261   1
  -4  -2   9 20.3506 2.59400   2
   4  -2  -9 25.7515 3.46993   1
   4  -2  -9 17.1517 2.76896   4
   4   2  -9 16.9224 2.96045   1
   4   2  -9 15.7972 2.56274   4
  -3  -2   9 9.71387 1.85050   2
   3  -2  -9 7.57866 1.86790   4
   3  -2  -9 12.0643 2.28294   1
   3   2  -9 12.8783 2.53654   1
  -3   2   9 7.89487 1.62527   2
   3   2  -9 10.3412 2.28639   4
   2  -2  -9 23.8957 2.98537   1
   2  -2  -9 19.8770 2.89006   4
  -2  -2   9 17.4919 2.55984   2
  -2   2   9 16.4052 2.31021   2
   2   2  -9 22.1656 3.03470   1
   2   2  -9 22.3476 3.09695   4
   1  -2  -9 17.7509 2.74563   4
  -1  -2   9 12.8303 2.32428   2
   1  -2  -9 23.0770 2.79074   1
   1   2  -9 24.8711 3.20430   1
   1   2  -9 18.9284 2.86492   4
  -1   2   9 22.6023 2.71822   2
   0  -2  -9 9.02276 2.13708   4
   0  -2   9 6.33023 1.75380   2
   0  -2  -9 13.7500 2.01346   1
   0  -2  -9 4.05795 1.55702   2
   0   2  -9 6.89465 1.92730   4
   0   2  -9 6.32144 1.81632   1
   0   2   9 10.4792 1.96503   2
   1  -2   9 23.1442 3.07604   2
  -1  -2  -9 23.0551 3.19618   4
  -1  -2  -9 19.4164 2.95881   2
   1   2   9 21.8425 2.88247   2
  -1   2  -9 26.2051 3.39004   4
  -1   2  -9 28.7175 3.25833   1
  -2  -2  -9 44.7772 4.44762   4
   2  -2   9 50.2872 4.05780   2
  -2  -2  -9 49.7305 4.29151   2
  -2   2  -9 45.4835 3.67659   1
   2   2   9 49.4633 4.02031   2
  -2   2  -9 45.1181 3.93358   4
  -3  -2  -9 226.230 10.4129   4
   3  -2   9 216.957 10.5449   2
  -3  -2  -9 200.555 10.7338   2
   3   2   9 216.774 10.5642   2
  -3   2  -9 228.469 10.8634   4
   4  -2   9 2.29694 1.31659   2
  -4  -2  -9 0.20368 1.39583   2
  -4  -2  -9 5.22227 1.68615   4
   4   2   9 5.64054 1.96653   2
  -4   2  -9 5.24930 1.63428   4
  -4   2  -9 1.80779 1.10148   2
  -5  -2  -9 23.2777 3.13998   4
   5  -2   9 21.6316 3.30296   2
  -5  -2  -9 22.6215 3.58878   2
   5   2   9 33.4247 4.16851   2
  -5   2  -9 22.6900 3.25139   4
  -5   2  -9 29.8415 4.13828   2
   6  -2   9 7.14094 2.19243   2
  -6  -2  -9 6.84443 2.18788   2
  -6   2  -9 8.11505 2.03091   4
   6   2   9 8.12533 2.23091   2
  -6   2  -9 6.65281 2.15141   2
   7  -2   9 -0.7520 1.43398   2
  -7  -2  -9 4.10412 2.23155   2
  -7   2  -9 2.34582 1.97950   2
  -8  -2  -9 -2.3564 1.29832   2
   8  -2   9 -0.7247 1.43488   2
  -8   2  -9 -2.0048 1.74870   2
   9  -3  -9 -0.2764 1.21355   1
   9  -3  -9 0.85016 1.18698   4
   9   3  -9 1.69950 1.97212   1
   9   3  -9 -0.0019 1.58684   5
   8  -3  -9 -0.2777 1.49851   1
   8  -3  -9 0.59048 1.44096   4
   8   3  -9 -0.0638 1.01909   5
   8   3  -9 1.83477 1.70726   1
   7  -3  -9 13.8184 2.99311   1
   7  -3  -9 9.87608 2.24697   4
   7   3  -9 11.4960 2.61834   5
   7   3  -9 8.76682 2.22939   4
   7   3  -9 8.31974 2.63144   1
   6  -3  -9 8.13428 1.97497   4
   6  -3  -9 5.70438 2.01541   1
   6   3  -9 9.42486 2.62283   1
   6   3  -9 7.74466 2.06081   4
   5  -3  -9 13.4660 2.67647   1
  -5  -3   9 13.3326 2.16467   2
   5  -3  -9 13.8884 2.77239   4
   5   3  -9 13.3054 2.50912   4
   5   3  -9 11.9092 2.70020   1
   4  -3  -9 43.7804 4.62053   1
  -4  -3   9 48.4192 3.59391   2
   4  -3  -9 46.1676 3.90589   4
   4   3  -9 39.6533 4.57313   1
   4   3  -9 44.3552 3.75179   4
   3  -3  -9 9.62398 2.16704   1
  -3  -3   9 10.4674 1.91547   2
   3  -3  -9 10.2146 2.17629   4
   3   3  -9 14.1019 2.44890   4
   3   3  -9 12.9380 2.65788   1
   2  -3  -9 1.05697 1.34040   4
  -2  -3   9 2.59205 1.26313   2
   2  -3  -9 2.69693 1.26843   1
   2  -3  -9 1.41621 1.08098   2
  -2   3   9 0.90945 0.91938   2
   2   3  -9 1.02263 1.49920   1
   2   3  -9 1.18861 1.18985   4
   1  -3  -9 1.95019 1.13127   4
  -1  -3   9 2.15590 1.33073   2
   1  -3  -9 0.75459 1.03401   2
   1  -3  -9 2.16221 1.20701   1
   1   3  -9 2.92573 1.56759   1
   1   3  -9 3.97285 1.48794   4
  -1   3   9 1.21307 0.95389   2
   0  -3  -9 6.17141 1.79460   2
   0  -3  -9 8.95574 2.14054   4
   0  -3   9 8.15238 1.92219   2
   0   3  -9 7.24390 2.06883   4
   0   3   9 9.48542 1.90866   2
   0   3  -9 7.25719 1.84827   1
  -1  -3  -9 -0.4618 0.80255   2
  -1  -3  -9 -2.0149 0.91047   4
   1  -3   9 0.70359 0.84878   2
   1   3   9 0.77271 0.87905   2
  -1   3  -9 -0.4041 1.19701   1
  -1   3  -9 -1.4155 1.04665   4
  -2  -3  -9 28.2130 3.78593   2
   2  -3   9 38.0996 4.12966   2
  -2  -3  -9 37.3289 3.91562   4
  -2   3  -9 36.1953 4.15863   4
  -2   3  -9 42.6986 4.13441   1
   2   3   9 41.1748 4.15786   2
  -3  -3  -9 15.5803 2.81533   2
  -3  -3  -9 27.8286 3.28194   4
   3  -3   9 21.4031 3.15348   2
   3   3   9 24.1723 3.28948   2
  -3   3  -9 17.5802 2.82787   4
  -4  -3  -9 36.7677 3.85657   4
   4  -3   9 38.1389 4.25883   2
  -4  -3  -9 32.7421 4.20716   2
  -4   3  -9 30.4889 3.96676   4
   4   3   9 38.7947 4.38373   2
  -5  -3  -9 2.37881 1.37133   2
   5  -3   9 0.16589 1.19334   2
  -5   3  -9 -2.3652 0.96670   2
  -5   3  -9 3.60634 1.62911   4
   5   3   9 1.12622 1.16754   2
   6  -3   9 -0.9781 0.75141   2
  -6  -3  -9 0.03166 1.41626   2
  -6   3  -9 -0.0918 1.37654   4
  -6   3  -9 0.87303 1.10624   2
  -7  -3  -9 19.2047 3.48249   2
   7  -3   9 15.9229 3.11004   2
  -7   3  -9 14.4240 3.08620   2
  -8  -3  -9 0.30601 1.81287   2
   8  -3   9 1.21997 1.86875   2
  -8   3  -9 -1.9827 1.72607   2
   9  -4  -9 1.97276 2.20005   1
   9  -4  -9 2.07665 1.75739   4
   9   4  -9 5.50561 2.27131   1
   9   4  -9 2.27160 1.88564   5
  -9   4   9 2.25450 1.70423   3
   8  -4  -9 2.71008 1.72472   4
   8  -4  -9 2.67759 2.19940   1
   8   4  -9 10.6064 2.48243   5
   8   4  -9 13.1352 3.07137   1
  -8   4   9 5.17451 1.92667   3
   7  -4  -9 7.66871 2.33587   1
   7  -4  -9 5.33434 2.10334   4
  -7   4   9 4.51292 1.65936   3
   7   4  -9 8.33952 2.24057   5
   7   4  -9 5.59053 2.23110   1
   6  -4  -9 8.70263 2.29136   4
  -6  -4   9 10.7476 2.13560   2
   6  -4  -9 7.47859 2.11714   1
   6   4  -9 7.75198 1.92294   4
  -6   4   9 9.40320 1.92920   3
   6   4  -9 8.36252 2.19866   1
   5  -4  -9 18.3861 3.11461   4
   5  -4  -9 22.5100 3.43144   1
  -5  -4   9 23.7196 2.92517   2
   5   4  -9 15.2783 2.64757   4
   5   4  -9 17.9725 3.16208   1
  -5   4   9 18.6413 2.51856   3
   4  -4  -9 25.2546 3.52104   4
  -4  -4   9 27.8629 3.15968   2
   4  -4  -9 20.4899 3.26172   1
   4   4  -9 29.6339 3.85863   1
  -4   4   9 27.2347 2.89556   3
   4   4  -9 18.5387 2.93912   4
   3  -4  -9 17.3234 2.76925   1
   3  -4  -9 12.2521 2.27436   4
  -3  -4   9 17.2857 2.54331   2
   3   4  -9 16.0437 2.99819   1
  -3   4   9 15.6378 2.23124   3
   3   4  -9 20.6603 3.13304   4
   2  -4  -9 117.034 6.58951   1
   2  -4  -9 128.081 7.21640   4
  -2  -4   9 131.812 6.90234   2
   2   4  -9 130.634 7.32247   4
  -2   4   9 130.786 6.96573   2
  -2   4   9 119.603 6.14468   3
  -1  -4   9 2.80702 1.21426   2
   1  -4  -9 0.81220 0.91592   2
   1  -4  -9 1.14418 1.08382   4
   1  -4  -9 1.17860 1.03960   1
  -1   4   9 -0.3187 0.96538   2
  -1   4   9 -0.9985 1.01164   3
   1   4  -9 2.95159 1.74171   1
   1   4  -9 2.33798 1.51156   4
   0  -4  -9 -0.0117 0.79197   4
   0  -4  -9 -1.0139 0.80782   2
   0  -4   9 1.01951 1.21901   2
   0   4  -9 0.82172 0.98462   4
   0   4  -9 -1.1070 1.26973   1
   0   4   9 -0.2707 0.82640   2
   0   4   9 -1.0190 0.94402   3
  -1  -4  -9 30.2599 3.64439   2
   1  -4   9 31.2074 3.67833   2
  -1  -4  -9 37.8152 3.92907   4
  -1   4  -9 37.3960 3.99349   1
   1   4   9 27.5281 3.31927   2
  -1   4  -9 32.6162 3.89523   4
   1   4   9 35.4312 3.59145   3
   2  -4   9 2.50480 1.43318   2
  -2  -4  -9 5.45815 1.75808   4
  -2  -4  -9 2.75817 1.67316   2
   2   4   9 3.98054 1.56545   2
  -2   4  -9 4.21952 1.52935   4
  -2   4  -9 3.24845 1.90123   1
  -3  -4  -9 33.0262 4.08262   2
  -3  -4  -9 37.5304 3.98502   4
   3  -4   9 42.6864 3.69000   2
  -3   4  -9 33.6822 4.08622   4
  -3   4  -9 40.5311 4.27762   1
   3   4   9 38.9771 4.25535   2
  -4  -4  -9 -0.1173 1.18668   2
   4  -4   9 0.96542 1.14081   2
  -4  -4  -9 -0.3483 0.98052   4
   4   4   9 0.74532 1.28967   2
  -4   4  -9 -0.5339 0.88015   4
  -5  -4  -9 -0.5614 1.38067   2
   5  -4   9 0.58830 1.33518   2
  -5   4  -9 -0.2125 1.50060   4
  -6  -4  -9 19.2063 3.43734   2
   6  -4   9 21.4910 3.45959   2
  -6   4  -9 24.7901 3.87606   2
  -6   4  -9 13.4925 2.99407   4
   7  -4   9 1.20970 1.45908   2
  -7  -4  -9 2.61554 1.97226   2
  -7   4  -9 2.08118 1.52565   4
  -7   4  -9 5.30447 2.22329   2
  -8  -4  -9 10.2572 2.68473   2
   8  -4   9 12.8460 2.91698   2
  -8   4  -9 8.99605 2.81535   2
   9  -5  -9 12.2932 2.78551   4
   9  -5  -9 13.8719 3.46919   1
  -9   5   9 11.9362 2.69470   3
   9   5  -9 9.01609 2.80148   1
   9   5  -9 11.7007 2.75106   5
   8  -5  -9 0.33491 1.11242   4
   8  -5  -9 1.05394 1.61255   1
   8   5  -9 1.67392 1.81277   5
   8   5  -9 1.13020 1.76551   1
  -8   5   9 1.37700 1.38475   3
   7  -5  -9 6.51580 2.14424   1
   7  -5  -9 1.90177 1.29679   4
  -7   5   9 5.34366 1.83692   3
   7   5  -9 3.60493 1.41017   5
   7   5  -9 6.78568 2.24124   1
   6  -5  -9 3.03443 1.46896   4
  -6  -5   9 0.60669 1.17973   2
   6  -5  -9 2.77384 1.42724   1
   6   5  -9 2.34913 1.53291   4
  -6   5   9 0.71130 1.16137   3
   6   5  -9 -1.0036 0.95604   1
   5  -5  -9 1.20959 1.43088   1
   5  -5  -9 -0.2441 1.06425   4
  -5  -5   9 1.05766 1.14286   2
   5   5  -9 0.70369 1.41080   4
  -5   5   9 -1.4957 0.79481   3
   5   5  -9 0.90577 1.66572   1
   4  -5  -9 3.98991 1.69427   1
  -4  -5   9 3.66830 1.51179   2
   4  -5  -9 1.80145 1.53793   4
  -4   5   9 3.00138 1.41422   3
   4   5  -9 4.89918 1.94244   1
   4   5  -9 0.46924 1.04057   4
   3  -5  -9 4.46020 1.53314   1
  -3  -5   9 4.95222 1.55504   2
   3  -5  -9 4.26467 1.54753   4
  -3   5   9 3.45667 1.38735   3
   3   5  -9 3.00436 1.43441   4
   3   5  -9 2.72338 1.81962   1
   2  -5  -9 11.0859 2.41403   4
  -2  -5   9 13.1078 2.27230   2
   2  -5  -9 15.2953 2.36584   1
  -2   5   9 13.9652 2.19194   3
   2   5  -9 9.28049 2.27035   1
   2   5  -9 12.7296 2.43255   4
   1  -5  -9 83.7543 5.00157   2
   1  -5  -9 75.8034 5.19073   4
  -1  -5   9 79.0454 5.08670   2
   1   5  -9 78.9133 5.40619   1
  -1   5   9 78.8912 4.74075   2
  -1   5   9 74.6472 4.61451   3
   1   5  -9 83.3537 5.51220   4
   0  -5   9 2.85628 1.28514   2
   0  -5  -9 1.92783 1.15655   4
   0  -5  -9 2.84830 1.42085   2
   0   5  -9 3.09849 1.46990   1
   0   5  -9 3.42299 1.68448   4
   0   5   9 3.96364 1.44381   2
   0   5   9 2.84198 1.34117   3
  -1  -5  -9 7.17107 1.95425   4
  -1  -5  -9 5.25442 1.65378   2
   1  -5   9 5.81434 1.68373   2
  -1   5  -9 4.14033 1.80638   4
   1   5   9 9.08212 1.97947   2
   1   5   9 6.52981 1.64006   3
  -1   5  -9 12.6136 2.70321   1
  -2  -5  -9 6.76341 1.80575   4
   2  -5   9 10.4696 2.39034   2
  -2  -5  -9 5.90753 1.68084   2
  -2   5  -9 9.56903 2.31551   4
   2   5   9 12.5661 2.22267   2
  -2   5  -9 10.4306 2.32831   1
   2   5   9 11.0598 2.00675   3
   3  -5   9 2.99947 1.51047   2
  -3  -5  -9 1.41840 1.12492   2
  -3  -5  -9 2.32110 1.34363   4
   3   5   9 1.77886 1.11911   3
  -3   5  -9 0.91677 1.62868   1
  -3   5  -9 2.55236 1.36389   4
   3   5   9 2.16814 1.20421   2
  -4  -5  -9 3.78736 1.54898   2
  -4  -5  -9 2.87296 1.51242   4
   4  -5   9 2.26238 1.40401   2
  -4   5  -9 1.71675 1.49742   4
   4   5   9 3.22540 1.24372   3
  -5  -5  -9 19.9237 3.49632   2
   5  -5   9 34.9912 4.33138   2
  -5   5  -9 30.8153 3.99945   4
   5   5   9 37.4525 3.94747   3
  -6  -5  -9 2.15623 1.81254   2
   6  -5   9 4.09240 1.75734   2
  -6   5  -9 7.48511 2.39343   4
   6   5   9 3.98943 1.76685   3
  -6   5  -9 2.89673 1.93818   2
   7  -5   9 2.60432 1.45330   2
  -7  -5  -9 5.29943 2.03538   2
  -7   5  -9 3.88904 2.12546   4
  -7   5  -9 4.19801 1.92270   2
   8  -5   9 2.02428 1.88366   2
  -8   5  -9 0.34482 1.80646   2
   9  -6  -9 1.86715 1.99958   4
   9  -6  -9 7.17411 2.53947   1
  -9   6   9 3.62365 1.90173   3
   9   6  -9 7.16699 2.85165   1
   9   6  -9 10.0308 2.83919   5
   8  -6  -9 4.64039 2.15737   4
   8  -6  -9 6.03442 2.27452   1
  -8   6   9 5.68825 2.07350   3
   8   6  -9 3.05027 1.51188   5
   8   6  -9 8.70340 2.48597   1
   7  -6  -9 4.05794 1.97317   1
   7  -6  -9 3.94658 1.99949   4
  -7  -6   9 4.92656 1.94838   2
   7   6  -9 6.11338 1.93106   5
  -7   6   9 2.69278 1.59788   3
   7   6  -9 4.75454 1.86233   1
  -6  -6   9 5.33885 1.53599   2
   6  -6  -9 5.23443 2.23178   1
   6  -6  -9 4.70536 2.11696   4
   6   6  -9 7.68918 2.08122   4
  -6   6   9 7.41179 2.02225   3
   6   6  -9 5.49302 2.59286   5
   6   6  -9 8.29723 2.47823   1
   5  -6  -9 20.7038 3.29513   4
   5  -6  -9 24.3710 3.74904   1
  -5  -6   9 28.5298 3.29382   2
  -5   6   9 23.3219 3.13215   3
   5   6  -9 34.6464 4.45318   1
   5   6  -9 29.5772 3.65200   4
   4  -6  -9 3.38301 1.59357   1
   4  -6  -9 5.42330 1.85568   4
  -4  -6   9 4.52372 1.58610   2
  -4   6   9 4.97207 1.64422   3
   4   6  -9 3.58318 2.04687   1
   4   6  -9 2.80568 1.70004   4
  -3  -6   9 0.34970 0.81963   2
   3  -6  -9 2.07067 1.30164   1
   3  -6  -9 1.32980 1.18485   4
   3   6  -9 -0.9886 1.13361   4
  -3   6   9 -2.0636 0.87981   3
   3   6  -9 0.58807 1.35785   1
   2  -6  -9 62.6885 5.07112   4
  -2  -6   9 83.8407 5.24594   2
   2  -6  -9 81.9839 5.74435   1
  -2   6   9 76.8856 4.76445   3
   2   6  -9 79.2443 5.50095   4
   2   6  -9 69.1010 5.25288   1
   1  -6  -9 4.58930 1.81553   4
  -1  -6   9 8.47042 1.99825   2
   1   6  -9 4.84987 1.60120   4
   1   6  -9 5.16400 2.19760   1
  -1   6   9 7.72374 1.87057   3
   0  -6  -9 7.57765 2.01029   4
   0  -6  -9 8.30847 1.90329   2
   0  -6   9 5.05261 1.76315   2
   0   6   9 6.17820 1.80660   3
   0   6  -9 12.9272 2.83295   1
   0   6  -9 8.21744 2.06644   4
  -1  -6  -9 4.11170 1.61779   2
   1  -6   9 7.19175 1.87897   2
  -1  -6  -9 9.15021 2.20214   4
   1   6   9 6.90496 1.81222   3
  -1   6  -9 4.37707 2.16528   1
  -1   6  -9 6.18593 1.88631   4
   2  -6   9 1.63705 1.22453   2
  -2  -6  -9 0.77464 0.98379   4
  -2  -6  -9 -0.0554 1.27087   2
  -2   6  -9 0.99059 1.05548   4
  -2   6  -9 -0.1504 1.60758   1
   2   6   9 0.68863 1.02333   3
  -3  -6  -9 83.0044 5.19626   4
   3  -6   9 85.3149 5.75576   2
  -3  -6  -9 77.0989 5.55815   2
  -3   6  -9 74.2206 5.74362   4
   3   6   9 82.0011 5.17812   3
  -3   6  -9 79.6329 5.68719   1
  -4  -6  -9 1.20352 1.21057   2
   4  -6   9 2.11702 1.32162   2
  -4   6  -9 1.09361 1.04881   4
  -4   6  -9 -1.2813 1.45169   1
   4   6   9 1.47819 1.12353   3
  -5  -6  -9 2.28747 1.53143   2
   5  -6   9 1.11190 1.14452   2
  -5   6  -9 2.24165 1.43833   4
   5   6   9 2.15979 1.32281   3
  -6  -6  -9 42.7305 5.07826   2
   6  -6   9 40.4165 4.70136   2
  -6   6  -9 43.0610 4.92670   4
   6   6   9 51.3495 4.37579   3
   7  -6   9 -0.4264 0.76710   2
  -7  -6  -9 1.82251 1.80480   2
  -7   6  -9 -0.8093 1.58365   4
   7   6   9 2.14740 1.41063   3
  -7   6  -9 -0.6924 1.12700   2
   8  -7  -9 -0.2501 1.62153   4
   8  -7  -9 -0.2284 1.82738   1
   8   7  -9 -1.1494 1.34636   1
  -8   7   9 -1.2447 0.78111   3
   8   7  -9 2.30828 1.54285   5
  -7  -7   9 -0.0117 1.38166   2
   7  -7  -9 -0.0621 1.05068   1
   7  -7  -9 0.14004 1.25993   4
   7   7  -9 2.98464 1.51900   5
  -7   7   9 -1.3871 1.27203   3
   7   7  -9 1.23359 1.53333   1
  -6  -7   9 26.4309 3.36724   2
   6  -7  -9 27.3050 3.98803   1
   6  -7  -9 18.3770 3.15758   4
  -6   7   9 17.0231 2.87938   3
   6   7  -9 20.2728 3.71407   1
   6   7  -9 18.9120 3.11011   5
   5  -7  -9 -0.0304 1.37381   1
  -5  -7   9 0.55947 1.15531   2
   5  -7  -9 -0.0298 1.64184   4
  -5   7   9 0.26122 1.24974   3
   5   7  -9 -0.7378 0.74458   4
   5   7  -9 3.42424 2.12970   1
   4  -7  -9 4.91659 1.83020   4
  -4  -7   9 7.64546 2.05158   2
   4  -7  -9 10.3203 2.42071   1
   4   7  -9 9.89663 2.49315   1
  -4   7   9 8.28327 2.00743   3
   4   7  -9 5.48891 2.00641   4
   3  -7  -9 2.53058 1.60254   4
   3  -7  -9 1.66958 1.39354   1
  -3  -7   9 3.50566 1.41352   2
  -3   7   9 0.41416 1.27334   3
   3   7  -9 1.36471 1.55805   1
   3   7  -9 2.11538 1.23187   4
  -2  -7   9 0.72334 0.97857   2
   2  -7  -9 -0.5616 1.14377   4
  -2   7   9 0.60622 0.97114   3
   2   7  -9 0.33700 1.09897   4
   2   7  -9 -0.5202 1.04207   1
   1  -7  -9 1.12163 1.32348   4
  -1  -7   9 -1.6465 0.97619   2
   1   7  -9 0.88045 1.46751   4
  -1   7   9 -0.9569 1.14790   3
   1   7  -9 -1.1440 1.75050   1
   0  -7  -9 8.84962 1.96913   2
   0  -7  -9 5.42973 1.86811   4
   0  -7   9 12.5103 2.52959   2
   0   7  -9 9.42645 2.25020   4
   0   7  -9 7.30995 2.63573   1
   0   7   9 15.3465 2.35931   3
  -1  -7  -9 0.94596 1.20028   2
  -1  -7  -9 1.27936 1.12891   4
   1  -7   9 -0.4256 0.78447   2
   1   7   9 0.56222 1.35063   3
  -1   7  -9 -1.3414 1.75536   1
  -1   7  -9 2.19593 1.32532   4
   2  -7   9 8.43166 2.11531   2
  -2  -7  -9 11.4094 2.31105   4
  -2  -7  -9 8.53049 2.27630   2
  -2   7  -9 9.06367 2.27357   4
  -2   7  -9 9.22715 2.42230   1
   2   7   9 11.9823 2.28997   3
  -3  -7  -9 18.8861 2.78234   4
  -3  -7  -9 15.3312 2.87675   2
   3  -7   9 15.0168 2.93623   2
  -3   7  -9 11.8618 2.81858   4
   3   7   9 16.9003 2.66003   3
  -3   7  -9 11.7329 2.78940   1
   4  -7   9 10.5547 2.41770   2
  -4  -7  -9 12.4705 2.65724   2
   4   7   9 15.6850 2.70002   3
  -4   7  -9 14.6507 3.05225   1
  -4   7  -9 11.5688 2.56252   4
   5  -7   9 28.9231 4.07784   2
  -5  -7  -9 32.7402 4.30123   2
   5   7   9 34.4818 3.97347   3
  -5   7  -9 32.8765 4.31306   4
   6  -7   9 1.24402 1.44939   2
  -6  -7  -9 1.13014 1.45555   2
  -6   7  -9 0.55945 1.30452   4
   6   7   9 4.53833 1.61224   3
   7  -7   9 0.31532 1.33832   2
  -7  -7  -9 0.10626 1.13021   2
  -7   7  -9 -1.3154 1.07546   2
  -7   7  -9 0.45677 1.81576   4
   7   7   9 1.11406 1.38322   3
   8  -8  -9 -1.5421 1.09281   4
   8  -8  -9 2.22928 2.32149   1
  -8   8   9 4.13551 1.66448   3
   8   8  -9 5.16542 2.00030   5
   8   8  -9 4.36674 2.35716   1
   7  -8  -9 7.99722 2.65330   1
  -7  -8   9 12.5176 2.55175   2
   7  -8  -9 6.28501 2.35590   4
   7   8  -9 5.86929 2.15419   1
   7   8  -9 9.77521 2.36577   5
  -7   8   9 9.02916 2.45922   3
   6  -8  -9 14.9320 3.23757   1
   6  -8  -9 25.6562 3.91684   4
  -6  -8   9 16.9050 2.82728   2
   6   8  -9 19.2085 3.51288   1
  -6   8   9 15.1972 2.87516   3
   6   8  -9 21.3701 3.23871   5
   5  -8  -9 1.44071 1.41523   4
   5  -8  -9 0.98005 1.45713   1
  -5  -8   9 3.50624 1.61708   2
   5   8  -9 0.16384 1.04167   4
   5   8  -9 2.17592 2.05489   1
  -5   8   9 0.35435 1.45854   3
   4  -8  -9 -0.5175 1.27951   1
   4  -8  -9 0.40967 1.00584   4
  -4  -8   9 0.89918 0.92114   2
   4   8  -9 0.91331 1.47277   4
  -4   8   9 0.21745 1.30696   3
   4   8  -9 -2.7124 1.47869   1
   3  -8  -9 8.71450 2.36820   4
  -3  -8   9 7.79367 2.05206   2
  -3   8   9 9.99259 2.28971   3
   3   8  -9 9.65319 2.15819   4
   3   8  -9 5.26268 2.07310   1
   2  -8  -9 6.91146 2.07765   4
  -2  -8   9 6.30153 1.76240   2
   2   8  -9 3.88980 1.56584   4
  -2   8   9 1.21632 1.56924   3
   2   8  -9 4.19907 1.91355   1
   1  -8  -9 2.18847 1.52130   4
  -1  -8   9 2.14094 1.22884   2
   1   8  -9 4.43303 1.87293   1
   1   8  -9 3.54210 1.96240   4
  -1   8   9 1.23120 1.61793   3
   0  -8  -9 -0.6485 1.11031   4
   0  -8   9 -0.3172 0.80356   2
   0   8   9 -1.4199 1.19908   3
   0   8  -9 0.70571 1.13320   4
   0   8  -9 -1.3744 1.32448   1
  -1  -8  -9 12.0920 2.43336   4
  -1  -8  -9 12.5401 2.29551   2
   1  -8   9 16.6585 2.83389   2
  -1   8  -9 12.5539 2.47058   4
   1   8   9 15.5599 2.70736   3
  -1   8  -9 13.0765 2.87913   1
  -2  -8  -9 12.5578 2.27193   4
  -2  -8  -9 15.0778 2.50699   2
   2  -8   9 15.1150 2.76962   2
  -2   8  -9 10.3901 2.85175   1
   2   8   9 14.3890 2.64509   3
  -2   8  -9 12.9983 2.56586   4
  -3  -8  -9 60.0314 4.35090   4
  -3  -8  -9 57.0860 4.81371   2
   3  -8   9 61.5380 4.98712   2
  -3   8  -9 64.7379 5.42909   4
   3   8   9 55.8335 4.58652   3
  -3   8  -9 66.5189 5.41426   1
  -4  -8  -9 3.84591 1.59467   2
   4  -8   9 2.99479 1.53979   2
   4   8   9 5.25150 1.72534   3
  -4   8  -9 2.84537 2.21573   1
  -4   8  -9 4.42020 1.80447   4
   5  -8   9 6.00976 2.19663   2
  -5  -8  -9 7.12910 2.27183   2
  -5   8  -9 2.96191 1.68668   4
   5   8   9 6.02295 1.80033   3
  -5   8  -9 1.70162 2.56093   1
   6  -8   9 3.64602 1.57908   2
  -6  -8  -9 4.43941 2.23311   2
   6   8   9 10.7993 2.46742   3
  -6   8  -9 2.21115 1.57246   4
   7  -8   9 -0.8160 1.43434   2
  -7   8  -9 1.61709 2.00580   2
  -7   8  -9 -0.8918 1.85435   4
   7   8   9 1.49050 1.53570   3
   8  -9  -9 -0.7856 1.82183   4
   8   9  -9 2.91544 1.83752   5
  -8   9   9 -1.5704 1.44022   3
   7  -9  -9 11.2468 2.99065   4
   7  -9  -9 16.8622 3.61504   1
  -7  -9   9 14.6377 2.86456   2
  -7   9   9 15.9808 3.08301   3
   7   9  -9 17.9244 3.74308   1
   7   9  -9 15.4629 2.95927   5
   6  -9  -9 17.5416 3.30915   4
  -6  -9   9 15.4652 2.67332   2
   6  -9  -9 14.2854 3.18641   1
  -6   9   9 15.4191 2.99808   3
   6   9  -9 13.8226 2.85097   5
   6   9  -9 14.8435 3.14500   1
   5  -9  -9 8.52544 2.62920   1
  -5  -9   9 12.8069 2.43953   2
   5  -9  -9 14.8579 3.18753   4
   5   9  -9 6.68027 1.89989   4
   5   9  -9 11.3755 2.78011   1
  -5   9   9 11.0900 2.67811   3
   4  -9  -9 2.96825 1.81122   4
   4  -9  -9 0.74270 1.58137   1
  -4  -9   9 0.94112 1.31925   2
   4   9  -9 -1.7535 2.00365   1
   4   9  -9 2.10500 1.61098   4
  -4   9   9 -1.5893 1.27663   3
  -3  -9   9 19.7744 3.07242   2
   3  -9  -9 23.9561 3.60087   4
   3   9  -9 22.0114 3.35140   4
  -3   9   9 17.3875 2.83158   3
   3   9  -9 22.1631 3.99880   1
   2  -9  -9 7.56793 2.32394   4
  -2  -9   9 6.27892 2.07851   2
   2   9  -9 5.42243 1.86652   4
  -2   9   9 5.44770 2.01805   3
   2   9  -9 3.96021 2.01596   1
  -1  -9   9 13.0353 2.51134   2
   1  -9  -9 8.32444 2.33093   4
  -1   9   9 4.59655 2.03702   3
   1   9  -9 8.24792 2.47811   4
   1   9  -9 8.49204 2.51177   1
   0  -9   9 10.5344 2.33201   2
   0  -9  -9 19.1067 2.94257   4
   0   9  -9 14.2077 3.11134   1
   0   9   9 14.3198 2.70036   3
   0   9  -9 15.3026 2.81512   4
  -1  -9  -9 16.9075 2.86717   4
   1  -9   9 11.7380 2.58114   2
  -1  -9  -9 15.6467 2.52607   2
   1   9   9 8.29703 2.17110   3
  -1   9  -9 14.7876 2.78022   4
  -1   9  -9 14.6521 3.40191   1
   2  -9   9 2.64816 1.85272   2
  -2  -9  -9 3.49701 1.55815   2
  -2  -9  -9 1.36800 1.34292   4
   2   9   9 2.62906 1.75975   3
  -2   9  -9 2.71953 1.55317   4
  -2   9  -9 -1.9227 1.74614   1
   3  -9   9 2.12436 1.39402   2
  -3  -9  -9 5.56571 1.99749   2
  -3   9  -9 6.55625 2.52706   1
  -3   9  -9 4.91950 2.14931   4
   3   9   9 4.77715 1.85585   3
   4  -9   9 -0.2595 1.00892   2
  -4  -9  -9 -0.6238 0.81686   2
   4   9   9 1.80474 1.32905   3
  -4   9  -9 -0.0709 1.82530   1
  -4   9  -9 0.98840 1.75346   4
  -5  -9  -9 4.79696 2.12798   2
   5  -9   9 2.57274 1.77412   2
   5   9   9 5.27276 1.89339   3
  -5   9  -9 3.90525 1.79976   4
  -5   9  -9 2.61765 2.38185   1
  -6  -9  -9 8.42415 2.52007   2
   6  -9   9 5.75883 1.97758   2
   6   9   9 10.4631 2.41425   3
  -6   9  -9 9.37512 2.85298   4
   7 -10  -9 1.81682 2.14693   1
  -7 -10   9 1.12641 1.39286   2
   7 -10  -9 1.04935 1.52336   4
   7  10  -9 3.53038 2.18710   1
  -7  10   9 -1.8089 1.68808   3
   7  10  -9 6.28775 2.02330   5
   6 -10  -9 1.25241 2.11222   4
   6 -10  -9 4.46527 2.15528   1
  -6 -10   9 0.37228 1.59900   2
   6  10  -9 1.34526 1.81760   1
   6  10  -9 3.00189 1.79287   5
  -6  10   9 -0.6072 1.66615   3
   5 -10  -9 1.33244 1.90641   4
   5 -10  -9 -0.5172 1.56086   1
  -5 -10   9 0.17925 1.47752   2
   5  10  -9 -0.7434 1.49102   1
  -5  10   9 -1.3544 0.94944   3
   4 -10  -9 -1.3246 0.83284   4
  -4 -10   9 0.44106 1.01902   2
   4  10  -9 -0.0172 1.61807   1
   4  10  -9 0.62785 1.35202   4
  -4  10   9 -1.8156 1.49056   3
   3 -10  -9 -0.2102 1.05726   4
  -3 -10   9 -1.5172 1.14526   2
   3  10  -9 0.95451 2.30085   1
   3  10  -9 1.20724 1.42154   4
  -3  10   9 -3.8345 1.25502   3
   2 -10  -9 36.3908 4.41610   4
  -2 -10   9 34.8603 4.18528   2
   2  10  -9 33.2766 4.38696   4
   2  10  -9 37.0780 5.10044   1
  -2  10   9 37.6039 4.40161   3
  -1 -10   9 2.23308 1.64260   2
   1 -10  -9 1.81482 1.59843   4
  -1  10   9 -0.3569 1.25173   3
   1  10  -9 -0.6216 2.35740   1
   1  10  -9 2.03938 1.73859   4
   0 -10  -9 11.4642 2.40025   4
   0 -10   9 10.2026 2.53553   2
   0  10  -9 15.6514 3.11541   4
   0  10   9 13.6702 2.55997   3
   0  10  -9 12.6768 3.44384   1
  -1 -10  -9 11.5390 2.44599   4
   1 -10   9 11.5212 2.58745   2
  -1  10  -9 7.02944 2.49695   4
  -1  10  -9 9.94113 2.79312   1
   1  10   9 12.6187 2.59921   3
  -2 -10  -9 14.5790 2.74600   4
  -2 -10  -9 10.3865 2.23012   2
   2 -10   9 13.3027 2.72341   2
  -2  10  -9 11.5916 3.27730   1
   2  10   9 12.4474 2.62220   3
  -2  10  -9 13.0303 3.01809   4
  -3 -10  -9 0.38762 1.35776   2
   3 -10   9 2.67743 1.49167   2
   3  10   9 1.96140 1.36775   3
  -3  10  -9 3.04429 1.73432   1
  -3  10  -9 1.25762 1.41474   4
  -4 -10  -9 5.42306 1.89429   2
   4 -10   9 7.30851 2.36512   2
  -4  10  -9 6.65017 2.63462   4
   4  10   9 7.98598 1.99150   3
  -4  10  -9 3.53545 2.63650   1
  -5 -10  -9 0.39875 1.70044   2
   5 -10   9 1.95825 1.31937   2
  -5  10  -9 0.29134 2.37365   1
  -5  10  -9 1.50559 2.14308   4
   5  10   9 1.69401 1.56894   3
  -6 -11   9 -2.6369 1.45154   2
   6 -11  -9 0.73358 1.41766   4
   6 -11  -9 3.97336 2.14705   1
  -6  11   9 -2.9385 1.44534   3
   6  11  -9 -0.1563 1.39112   1
   6  11  -9 3.71469 1.98285   5
  -5 -11   9 3.79650 1.95369   2
   5 -11  -9 2.11049 1.74140   4
   5  11  -9 2.72823 2.65532   1
  -5  11   9 2.32910 1.71108   3
  -4 -11   9 6.92493 2.20392   2
   4 -11  -9 4.86346 1.89258   4
   4  11  -9 6.08584 2.19652   4
  -4  11   9 1.95522 1.52885   3
   4  11  -9 7.73819 3.00405   1
   3 -11  -9 0.70424 1.35672   4
  -3 -11   9 0.31852 1.08683   2
   3  11  -9 0.51672 1.76466   1
  -3  11   9 0.40021 1.79550   3
   3  11  -9 1.64753 1.68820   4
   2 -11  -9 1.21066 1.29282   4
  -2 -11   9 0.58617 1.50289   2
   2  11  -9 2.47092 1.98840   1
   2  11  -9 3.28077 1.76057   4
  -2  11   9 0.24115 1.81755   3
   1 -11  -9 0.44997 1.39084   4
  -1 -11   9 2.69642 1.74619   2
   1  11  -9 -1.0006 1.71065   1
  -1  11   9 -4.7964 1.38759   3
   1  11  -9 -0.0518 0.95415   4
   0 -11  -9 0.80809 1.21711   4
   0 -11   9 1.82080 1.43515   2
   0  11  -9 -2.5152 2.19122   1
   0  11   9 0.36033 1.80563   3
   0  11  -9 1.24303 1.33494   4
  -1 -11  -9 0.89056 1.20721   4
   1 -11   9 2.60666 1.45102   2
   1  11   9 0.13764 1.37369   3
  -1  11  -9 1.02432 1.24691   4
  -1  11  -9 -1.2964 2.01346   1
  -2 -11  -9 0.71902 1.20825   4
   2 -11   9 3.86209 2.01479   2
  -2  11  -9 0.96190 1.32767   4
   2  11   9 0.66109 1.53063   3
  -2  11  -9 1.50239 1.84079   1
  -3 -11  -9 0.37513 1.43265   2
   3 -11   9 0.79006 1.49030   2
  -3  11  -9 2.03713 1.83518   4
   3  11   9 -0.9518 1.48378   3
  -3  11  -9 0.42366 2.33920   1
  -4 -11  -9 12.9844 2.67979   2
   4 -11   9 8.72537 2.35346   2
   4  11   9 11.4684 2.71495   3
  -4  11  -9 11.5054 2.79319   4
  -4  11  -9 8.83158 3.17865   1
   5 -11   9 0.98579 1.69169   2
  -5 -11  -9 2.09126 1.94523   2
  -5  11  -9 -0.3389 2.36890   1
   5  11   9 4.57964 1.98022   3
  -5  11  -9 5.33011 2.11725   4
  -5 -12   9 16.3169 3.14649   2
   5 -12  -9 14.7043 3.43929   4
   5  12  -9 10.2813 3.02266   1
  -5  12   9 12.1630 2.83692   3
   4 -12  -9 2.13078 2.16645   4
  -4 -12   9 -0.0684 1.50538   2
  -4  12   9 -1.2976 1.21218   3
   4  12  -9 1.57802 1.83883   1
   3 -12  -9 6.77202 2.54447   4
  -3 -12   9 2.96195 1.59563   2
  -3  12   9 0.13095 1.44936   3
   3  12  -9 2.28232 1.52204   4
   3  12  -9 2.12773 2.10589   1
  -2 -12   9 0.77350 1.72164   2
   2 -12  -9 0.28417 1.19222   4
   2  12  -9 1.55683 2.73375   1
  -2  12   9 -3.3016 1.76925   3
   2  12  -9 -1.5388 0.68245   4
  -1 -12   9 7.00305 2.04216   2
   1 -12  -9 4.46742 2.15334   4
   1  12  -9 8.92879 2.59819   4
  -1  12   9 2.93513 1.97475   3
   1  12  -9 9.55538 3.13420   1
   0 -12   9 4.74371 1.90379   2
   0 -12  -9 6.65523 2.00315   4
   0  12  -9 1.44883 1.90129   4
   0  12  -9 -1.2204 1.88730   1
   0  12   9 -1.9006 1.85364   3
   1 -12   9 12.3759 2.58101   2
  -1 -12  -9 8.23301 2.20782   4
  -1  12  -9 5.41679 3.03332   1
  -1  12  -9 5.63704 2.30981   4
   1  12   9 9.25955 2.85287   3
   2 -12   9 3.10529 1.52630   2
   2  12   9 1.94813 1.73628   3
  -2  12  -9 1.56224 2.17782   1
  -2  12  -9 1.85526 1.96143   4
  -3 -12  -9 6.53335 2.22484   2
   3 -12   9 7.91415 2.38857   2
  -3  12  -9 5.18822 3.11798   1
   3  12   9 6.84706 2.41209   3
  -3  12  -9 5.39789 2.16105   4
  -4 -12  -9 -1.5271 1.37079   2
   4 -12   9 1.12652 1.85297   2
  -4  12  -9 -0.9418 2.02284   4
   4  12   9 0.10106 1.45385   3
  -4  12  -9 -0.6601 2.55715   1
  -4 -13   9 2.82828 2.07376   2
   4 -13  -9 7.30641 2.43771   4
   4  13  -9 6.68296 3.77025   1
  -4  13   9 4.94702 2.74069   3
   3 -13  -9 0.56952 1.73835   4
  -3 -13   9 0.87728 1.71582   2
   3  13  -9 1.48880 1.75975   4
   3  13  -9 -3.8881 2.22676   1
  -3  13   9 -2.6686 1.93236   3
   2 -13  -9 1.22473 2.09272   4
  -2 -13   9 4.80726 2.07914   2
   2  13  -9 -0.2320 2.81256   1
   2  13  -9 3.10165 1.96293   4
  -2  13   9 -0.1630 1.69568   3
   1 -13  -9 1.10779 1.82398   4
  -1 -13   9 1.23164 1.36578   2
   1  13  -9 -3.1970 2.56557   1
   1  13  -9 1.24419 1.50641   4
  -1  13   9 -6.0522 1.64250   3
   0 -13  -9 -0.1303 1.24470   4
   0 -13   9 -0.9705 1.44553   2
   0  13  -9 -2.2200 1.89129   1
   0  13   9 -3.9630 0.99446   3
   0  13  -9 -0.4330 1.13481   4
  -1 -13  -9 13.5284 2.90709   4
   1 -13   9 11.9663 2.67653   2
  -1  13  -9 14.4570 4.03496   1
  -1  13  -9 10.7080 2.69179   4
   1  13   9 8.25438 2.99340   3
   2 -13   9 18.0703 3.43163   2
  -2  13  -9 10.0531 2.69886   4
  -2  13  -9 14.0494 3.55328   1
   2  13   9 16.5815 3.29440   3
   3 -13   9 5.32832 2.03654   2
   3  13   9 1.85606 2.02615   3
  -3  13  -9 5.13287 3.38836   1
   2 -14  -9 -0.1977 1.93950   4
  -2  14   9 1.38566 2.62857   3
   2  14  -9 8.16882 2.54069   4
   1 -14  -9 1.85118 1.66741   4
  -1  14   9 -0.4389 1.89924   3
   1  14  -9 1.71098 1.47297   4
   0 -14  -9 -1.2239 1.19564   4
   0  14   9 -8.1033 1.79492   3
   0  14  -9 -2.1200 1.62253   4
   9   0 -10 -0.1415 2.00942   1
   8   0 -10 6.16621 2.29676   1
   8   0 -10 3.52337 1.50568   4
   7   0 -10 0.56875 1.72466   1
   7   0 -10 -0.5609 1.42359   4
   6   0 -10 0.86318 1.11951   4
   6   0 -10 2.63861 1.57002   1
   5   0 -10 0.57093 1.54547   4
   5   0 -10 2.34779 1.42896   1
   4   0 -10 1.11315 1.40566   1
   4   0 -10 1.32074 1.46329   4
  -3   0  10 -0.5879 0.98102   2
   3   0 -10 0.66760 1.24121   1
   3   0 -10 1.35799 1.26205   4
   2   0 -10 50.3043 4.00257   1
  -2   0  10 45.4004 3.65784   2
   2   0 -10 34.3396 4.05635   4
  -1   0  10 -0.7065 0.91235   2
   1   0 -10 -3.6313 1.05610   4
   1   0 -10 0.13567 1.00294   1
   0   0 -10 113.035 7.00755   4
   0   0  10 117.438 6.68809   2
   0   0 -10 115.281 6.38013   1
  -1   0 -10 -0.1111 1.39956   4
   1   0  10 -0.4475 1.03773   2
  -2   0 -10 30.3319 3.88430   4
   2   0  10 33.9454 3.94876   2
  -2   0 -10 29.8936 3.89962   2
  -3   0 -10 -1.1418 0.81098   4
   3   0  10 0.79323 0.97960   2
  -3   0 -10 0.59468 1.01048   2
  -4   0 -10 10.6863 2.77571   2
  -4   0 -10 11.2829 2.65308   4
   4   0  10 9.40590 2.49570   2
  -5   0 -10 -1.8010 1.37270   4
   5   0  10 0.77289 1.57695   2
  -5   0 -10 -0.4626 1.24074   2
  -6   0 -10 8.34619 2.47817   2
   6   0  10 3.10017 1.96563   2
  -7   0 -10 0.72181 1.47711   2
   7   0  10 -1.6031 1.02315   2
   9  -1 -10 2.86190 1.88427   1
   8  -1 -10 2.50435 1.59841   4
   8  -1 -10 5.15608 2.73176   1
   8   1 -10 3.35689 2.48927   1
   7  -1 -10 -0.3531 1.46713   4
   7  -1 -10 0.53829 1.32300   1
   7   1 -10 -1.0773 0.94579   1
   7   1 -10 0.34597 1.00583   4
   6  -1 -10 -0.7752 1.37225   4
   6  -1 -10 1.14200 1.65408   1
   6   1 -10 0.27298 1.42521   4
   6   1 -10 1.46003 1.30618   1
   5  -1 -10 1.58600 1.27833   1
   5  -1 -10 1.11250 1.61856   4
   5   1 -10 1.44785 1.29428   4
   5   1 -10 0.55329 1.44660   1
   4  -1 -10 3.53043 1.71755   1
   4  -1 -10 -0.4139 1.36663   4
  -4  -1  10 2.22468 1.30455   2
   4   1 -10 6.43706 1.89458   1
   4   1 -10 4.34633 1.61345   4
   3  -1 -10 2.98434 1.50705   1
  -3  -1  10 1.95286 1.35149   2
   3  -1 -10 1.05116 1.70414   4
   3   1 -10 3.34761 1.39117   1
   3   1 -10 1.39193 1.13416   4
  -3   1  10 4.84215 2.36149   2
   2  -1 -10 6.25944 1.79428   1
  -2  -1  10 3.35628 1.49249   2
   2  -1 -10 1.16574 1.06225   4
  -2   1  10 2.56933 1.32359   2
   2   1 -10 1.61767 1.64704   4
   2   1 -10 3.42448 1.65827   1
   1  -1 -10 5.72167 1.65072   1
  -1  -1  10 7.98089 1.94727   2
   1  -1 -10 5.59457 2.01208   4
  -1   1  10 8.27588 1.93650   2
   1   1 -10 4.86631 1.74215   4
   1   1 -10 7.14097 1.94267   1
   0  -1 -10 14.3341 2.65031   4
   0  -1  10 12.9896 2.37789   2
   0   1 -10 15.3357 2.55307   1
   0   1 -10 17.8232 3.09268   4
   0   1  10 18.8123 2.71984   2
  -1  -1 -10 10.7289 2.59554   4
  -1  -1 -10 11.6995 2.62605   2
   1  -1  10 8.07042 2.15825   2
  -1   1 -10 5.80051 2.10065   4
   1   1  10 8.41650 2.16847   2
   2  -1  10 1.82609 1.45796   2
  -2  -1 -10 2.52249 1.67317   4
  -2  -1 -10 0.86554 1.17821   2
  -2   1 -10 1.51962 1.60027   4
   2   1  10 3.34772 1.39472   2
   3  -1  10 20.8953 3.19373   2
  -3  -1 -10 18.0836 3.27842   2
  -3  -1 -10 16.8893 2.84499   4
  -3   1 -10 14.9266 2.92015   2
  -3   1 -10 15.4752 2.80489   4
   3   1  10 17.8301 3.05531   2
  -4  -1 -10 6.05136 2.06968   4
  -4  -1 -10 11.4069 2.60253   2
   4  -1  10 9.47150 2.27156   2
  -4   1 -10 16.1300 3.03739   2
  -4   1 -10 13.0156 2.61869   4
   4   1  10 11.1664 2.50445   2
  -5  -1 -10 7.37744 2.29593   2
  -5  -1 -10 10.0527 2.55095   4
   5  -1  10 5.24853 2.06782   2
  -5   1 -10 8.12684 2.35123   2
  -5   1 -10 7.04075 2.36366   4
   5   1  10 7.19716 2.26540   2
  -6  -1 -10 1.01332 1.88081   2
   6  -1  10 1.23033 1.30590   2
  -6   1 -10 3.22315 1.74687   4
   6   1  10 1.02009 1.76244   2
  -6   1 -10 0.53323 1.25406   2
   7  -1  10 -0.8261 1.12382   2
  -7  -1 -10 2.06116 1.94695   2
   7   1  10 1.92621 1.82620   2
  -7   1 -10 2.48421 1.88394   2
   8  -2 -10 0.41184 1.57156   1
   8  -2 -10 0.58989 1.58743   4
   8   2 -10 1.48832 1.99836   1
   7  -2 -10 4.12517 2.28286   1
   7  -2 -10 2.39537 1.37355   4
   7   2 -10 4.44747 1.97951   4
   7   2 -10 6.11709 2.12793   1
   6  -2 -10 15.0219 2.81388   4
   6  -2 -10 14.9129 3.12872   1
   6   2 -10 14.8293 2.75953   4
   6   2 -10 10.8264 2.84786   1
   5  -2 -10 7.69738 2.16141   4
   5  -2 -10 6.01444 1.97950   1
   5   2 -10 9.16213 2.36398   4
   5   2 -10 6.94199 2.04901   1
   4  -2 -10 5.54183 1.78915   4
   4  -2 -10 4.85548 1.84511   1
  -4  -2  10 4.77639 1.63297   2
   4   2 -10 4.38280 1.98523   4
   4   2 -10 7.84604 2.10992   1
   3  -2 -10 74.8970 5.01433   1
  -3  -2  10 59.3132 4.31771   2
   3  -2 -10 60.1685 4.73059   4
   3   2 -10 55.7293 4.83854   4
   3   2 -10 58.6370 4.81749   1
   2  -2 -10 3.04498 1.37946   4
  -2  -2  10 5.60653 1.74967   2
   2  -2 -10 4.38424 1.57283   1
  -2   2  10 5.74845 1.58786   2
   2   2 -10 4.33059 1.73841   4
   2   2 -10 4.99706 1.81172   1
   1  -2 -10 13.6275 2.34900   1
  -1  -2  10 18.2037 2.75016   2
   1  -2 -10 18.8284 3.11211   4
   1   2 -10 14.2251 2.62912   4
  -1   2  10 15.6257 2.47379   2
   1   2 -10 13.1431 2.57377   1
   0  -2  10 3.09471 1.38688   2
   0  -2 -10 2.10885 1.11638   2
   0  -2 -10 -0.0426 1.07816   4
   0   2 -10 2.66942 1.53085   4
   0   2 -10 1.65439 1.46295   1
   0   2  10 2.06280 1.23806   2
   1  -2  10 1.95086 1.19707   2
  -1  -2 -10 1.80427 1.46952   4
  -1  -2 -10 3.28329 1.71205   2
  -1   2 -10 1.04303 1.27429   4
   1   2  10 2.35296 1.47279   2
  -1   2 -10 0.68847 1.60021   1
  -2  -2 -10 16.6366 3.00053   2
  -2  -2 -10 11.8100 2.52221   4
   2  -2  10 13.1122 2.50104   2
   2   2  10 12.9808 2.52967   2
  -2   2 -10 11.4592 2.53880   4
  -3  -2 -10 9.20593 2.16298   4
  -3  -2 -10 10.4857 2.50652   2
   3  -2  10 4.18700 1.80914   2
  -3   2 -10 7.81157 2.26372   4
   3   2  10 8.73621 2.32466   2
  -4  -2 -10 1.90920 1.55118   4
  -4  -2 -10 -0.3437 0.90350   2
   4  -2  10 -0.5825 1.22775   2
  -4   2 -10 0.82524 1.26366   4
  -4   2 -10 1.57255 1.60154   2
   4   2  10 -0.3010 0.96129   2
  -5  -2 -10 15.7133 3.44108   2
   5  -2  10 17.6529 3.16840   2
  -5  -2 -10 15.2162 2.89363   4
  -5   2 -10 12.2203 2.58505   4
  -5   2 -10 11.1035 2.94830   2
   5   2  10 18.0457 3.41171   2
  -6  -2 -10 2.05589 1.37565   2
   6  -2  10 1.20791 1.82001   2
  -6   2 -10 -0.1610 1.53485   4
   6   2  10 0.00871 1.22897   2
  -6   2 -10 2.50732 2.10532   2
  -7  -2 -10 21.7027 4.00182   2
   7  -2  10 21.8108 3.73280   2
  -7   2 -10 21.0580 4.01481   2
   9  -3 -10 -0.4430 1.80564   4
   8  -3 -10 0.88972 2.04109   1
   8  -3 -10 -0.6168 1.03627   4
   8   3 -10 2.77618 1.63450   1
   7  -3 -10 3.68495 1.94855   4
   7  -3 -10 1.17088 1.77251   1
   7   3 -10 1.40165 1.43051   1
   7   3 -10 0.03457 1.51209   4
   6  -3 -10 0.76454 1.51538   4
   6  -3 -10 2.69373 1.99850   1
   6   3 -10 2.58651 1.69311   4
   6   3 -10 1.54049 1.56899   1
  -5  -3  10 21.9239 2.93005   2
   5  -3 -10 16.5459 3.19747   4
   5  -3 -10 20.2150 3.27377   1
   5   3 -10 24.9385 3.74577   1
   5   3 -10 15.6421 2.94135   4
  -4  -3  10 14.6028 2.49015   2
   4  -3 -10 18.5085 3.07590   1
   4  -3 -10 14.7603 2.97820   4
   4   3 -10 10.1207 2.70694   1
   4   3 -10 16.8431 2.89719   4
   3  -3 -10 12.8998 2.52622   4
  -3  -3  10 7.08346 1.84893   2
   3  -3 -10 8.24580 2.09564   1
   3   3 -10 10.3023 2.45810   1
   3   3 -10 4.98072 1.83856   4
   2  -3 -10 27.5869 3.44049   1
  -2  -3  10 35.1043 3.74334   2
   2  -3 -10 30.2194 3.93509   4
   2   3 -10 39.4684 4.37718   1
   2   3 -10 26.3599 3.61301   4
  -2   3  10 34.1457 3.86605   2
   1  -3 -10 0.54954 1.06962   2
  -1  -3  10 3.66289 1.66260   2
   1  -3 -10 2.54447 1.69150   4
  -1   3  10 2.93230 1.28413   2
   1   3 -10 -0.8188 0.83063   1
   1   3 -10 0.91727 1.62192   4
   0  -3  10 22.1839 3.30120   2
   0  -3 -10 21.5736 3.17541   2
   0  -3 -10 20.9996 3.17020   4
   0   3 -10 22.9862 3.53193   4
   0   3 -10 21.7621 3.25685   1
   0   3  10 18.0673 2.77771   2
  -1  -3 -10 -0.2948 1.30499   2
  -1  -3 -10 -0.5797 1.23194   4
   1  -3  10 -0.0942 1.15978   2
  -1   3 -10 -1.3572 0.81191   4
   1   3  10 0.35890 1.21515   2
  -1   3 -10 -0.1332 1.36721   1
   2  -3  10 0.86848 1.27963   2
  -2  -3 -10 -0.0237 1.29138   4
  -2  -3 -10 -1.3389 1.11802   2
  -2   3 -10 -0.1020 1.39603   4
   2   3  10 0.96822 1.10256   2
   3  -3  10 11.5340 2.54838   2
  -3  -3 -10 8.64263 2.23286   4
  -3  -3 -10 4.29965 1.69512   2
   3   3  10 6.78382 2.09655   2
  -3   3 -10 9.96264 2.39296   4
  -4  -3 -10 8.87758 2.14014   4
  -4  -3 -10 15.8406 3.23967   2
   4  -3  10 20.4527 3.44738   2
   4   3  10 14.4490 2.95715   2
  -4   3 -10 16.5153 3.10852   4
  -5  -3 -10 1.48547 1.37758   2
   5  -3  10 1.14207 1.48647   2
  -5   3 -10 1.47898 1.61744   4
   5   3  10 1.58405 1.27337   2
  -5   3 -10 2.79503 1.76687   2
  -6  -3 -10 7.23410 2.65985   2
   6  -3  10 6.30256 2.35499   2
  -6   3 -10 8.40657 2.71240   2
  -6   3 -10 10.5111 2.59877   4
   7  -3  10 3.48951 2.09682   2
  -7  -3 -10 2.21320 1.71453   2
  -7   3 -10 2.01830 2.08798   2
   8  -4 -10 3.65811 1.65290   4
   8  -4 -10 5.59303 2.65729   1
   8   4 -10 6.80068 2.31804   1
   7  -4 -10 0.76919 1.31518   4
   7  -4 -10 1.17377 1.31984   1
   7   4 -10 1.24681 1.53265   1
   6  -4 -10 -0.8571 1.06050   4
   6  -4 -10 0.78366 1.08349   1
   6   4 -10 -0.4885 1.29057   4
   6   4 -10 0.47886 1.29503   1
   5  -4 -10 10.5582 2.49566   1
   5  -4 -10 4.05412 1.70843   4
  -5  -4  10 4.90333 1.67999   2
   5   4 -10 7.57347 1.99227   4
   5   4 -10 8.30208 2.29091   1
   4  -4 -10 0.48744 1.69428   4
  -4  -4  10 3.54875 1.59837   2
   4  -4 -10 3.44150 1.91157   1
   4   4 -10 4.56050 1.90508   4
   4   4 -10 2.55941 1.41931   1
  -3  -4  10 2.59851 1.21284   2
   3  -4 -10 2.73377 1.48244   4
   3  -4 -10 0.89834 1.37213   1
   3   4 -10 3.82374 1.62106   1
   3   4 -10 5.24106 1.98166   4
   2  -4 -10 7.08988 2.20459   1
  -2  -4  10 8.17952 2.13785   2
   2  -4 -10 10.0512 2.46283   4
   2   4 -10 6.39524 1.93900   4
   2   4 -10 10.8323 2.39208   1
  -1  -4  10 5.63185 1.90397   2
   1  -4 -10 5.33352 1.77023   4
   1  -4 -10 6.79730 1.76347   2
   1   4 -10 12.1902 2.43463   4
  -1   4  10 10.3798 2.04578   2
   1   4 -10 5.99042 2.23150   1
   0  -4 -10 1.59794 1.26512   2
   0  -4  10 3.95907 1.48175   2
   0  -4 -10 0.65572 0.96662   4
   0   4 -10 0.61729 1.49406   1
   0   4 -10 0.45040 1.09500   4
   0   4  10 1.52348 1.11504   2
  -1  -4 -10 1.03479 1.34863   2
   1  -4  10 1.89783 1.09608   2
  -1  -4 -10 -2.0697 1.20110   4
   1   4  10 0.44012 0.97050   2
  -1   4 -10 2.02043 1.79394   1
  -1   4 -10 0.20044 0.96399   4
  -2  -4 -10 47.3958 3.96366   4
   2  -4  10 44.7876 4.73362   2
  -2  -4 -10 39.0333 4.51956   2
  -2   4 -10 42.6320 4.55962   1
   2   4  10 44.4267 4.61618   2
  -2   4 -10 40.9767 4.61579   4
  -3  -4 -10 1.32256 1.27781   2
  -3  -4 -10 -0.0765 1.30378   4
   3  -4  10 1.76288 1.34094   2
   3   4  10 1.84997 1.28642   2
  -3   4 -10 2.99145 1.77928   4
  -4  -4 -10 12.7164 2.56003   4
  -4  -4 -10 7.04863 2.36223   2
   4  -4  10 16.9275 3.00212   2
   4   4  10 11.7923 2.68254   2
  -4   4 -10 12.0639 2.63474   4
  -5  -4 -10 0.98008 1.61638   2
   5  -4  10 0.79932 1.14025   2
  -5   4 -10 -1.4702 1.03655   4
  -5   4 -10 2.57762 1.51566   2
   6  -4  10 13.8880 2.99365   2
  -6  -4 -10 12.1954 2.89378   2
  -6   4 -10 11.6535 2.68397   4
  -6   4 -10 15.8276 3.45626   2
   7  -4  10 13.5791 3.30693   2
  -7   4 -10 16.3106 3.65809   2
   8  -5 -10 4.39695 2.30031   1
   8  -5 -10 3.10830 1.92101   4
   8   5 -10 4.23686 2.21023   1
   7  -5 -10 5.56767 2.14328   1
   7  -5 -10 5.08447 2.21196   4
   7   5 -10 5.49614 2.40696   1
   6  -5 -10 16.5676 3.17616   1
   6  -5 -10 15.6951 3.09338   4
   6   5 -10 16.9037 2.96176   4
   6   5 -10 15.5386 3.29896   1
   5  -5 -10 4.48342 1.88402   1
  -5  -5  10 0.79067 1.07073   2
   5  -5 -10 0.74029 1.64534   4
   5   5 -10 2.12357 1.69818   4
   5   5 -10 3.69981 1.98442   1
   4  -5 -10 0.61327 1.16164   4
  -4  -5  10 -0.1560 1.20465   2
   4  -5 -10 3.32723 1.64128   1
   4   5 -10 -1.5740 1.10937   1
   4   5 -10 -0.7196 1.42690   4
  -3  -5  10 0.22183 1.20275   2
   3  -5 -10 2.08506 1.32186   1
   3  -5 -10 -0.2506 1.37232   4
   3   5 -10 1.29493 1.59362   1
   3   5 -10 -0.7991 0.94253   4
  -2  -5  10 6.33837 1.92129   2
   2  -5 -10 2.26085 1.47494   4
   2   5 -10 4.42274 2.19630   1
   2   5 -10 3.83264 1.95252   4
  -1  -5  10 0.84830 0.94735   2
   1  -5 -10 1.16587 1.21794   4
   1   5 -10 -1.3036 0.92657   1
   1   5 -10 0.07990 1.14656   4
   0  -5 -10 -2.2441 0.91663   4
   0  -5 -10 0.25420 1.11143   2
   0  -5  10 -1.1546 0.58258   2
   0   5 -10 0.44766 1.26716   1
   0   5 -10 0.22770 1.49891   4
   0   5  10 -1.4954 0.90088   2
   1  -5  10 13.0494 2.70845   2
  -1  -5 -10 13.3574 2.62752   2
  -1  -5 -10 13.4369 2.70258   4
   1   5  10 7.37229 2.09822   2
  -1   5 -10 9.25045 2.60219   1
  -1   5 -10 9.79769 2.71649   4
   2  -5  10 8.95798 2.19229   2
  -2  -5 -10 10.2980 2.26063   2
  -2  -5 -10 6.94885 1.93043   4
  -2   5 -10 12.1269 2.80525   4
  -2   5 -10 7.75772 2.50344   1
   2   5  10 10.3314 2.25244   2
   3  -5  10 42.3277 4.65404   2
  -3  -5 -10 28.4111 3.90766   2
  -3  -5 -10 30.5948 3.84250   4
   3   5  10 36.7349 4.35965   2
  -3   5 -10 37.0858 4.48573   4
  -4  -5 -10 -0.2705 1.40316   4
   4  -5  10 -0.8418 1.00980   2
  -4  -5 -10 1.21793 1.33741   2
  -4   5 -10 -0.6408 1.56901   4
   5  -5  10 -1.2159 0.77751   2
  -5  -5 -10 -0.7361 1.49529   2
  -5   5 -10 -0.5338 1.76603   4
   6  -5  10 5.37856 2.05445   2
  -6  -5 -10 1.19868 1.72983   2
  -6   5 -10 1.17109 2.17398   4
  -6   5 -10 4.22495 2.29026   2
   8  -6 -10 -1.0094 1.80519   4
   8  -6 -10 2.47919 2.31355   1
   8   6 -10 1.78386 2.12706   1
   7  -6 -10 -0.0618 2.05208   1
   7  -6 -10 0.72721 1.22383   4
   7   6 -10 0.48518 1.74764   1
   6  -6 -10 6.26122 2.17780   1
   6  -6 -10 7.42813 2.28787   4
  -6  -6  10 6.57361 1.89730   2
   6   6 -10 6.42648 1.87010   4
   6   6 -10 9.81928 2.81930   1
   5  -6 -10 13.8107 2.96982   4
  -5  -6  10 14.5197 2.49674   2
   5  -6 -10 9.51880 2.74386   1
   5   6 -10 14.9062 2.91748   4
   5   6 -10 15.7292 3.31994   1
   4  -6 -10 2.48833 1.69068   1
   4  -6 -10 5.87599 2.04208   4
  -4  -6  10 5.94975 1.88728   2
   4   6 -10 3.66843 1.51872   4
   4   6 -10 4.01963 2.21601   1
   3  -6 -10 15.2793 3.00505   4
  -3  -6  10 13.1696 2.57888   2
   3   6 -10 11.4938 2.53579   4
   3   6 -10 15.4687 3.23453   1
   2  -6 -10 12.5895 2.63887   4
  -2  -6  10 10.0571 2.22187   2
   2   6 -10 10.5774 2.79721   1
   2   6 -10 8.74797 2.33218   4
  -1  -6  10 4.31766 1.59245   2
   1  -6 -10 0.00588 1.05192   4
   1   6 -10 1.05278 1.91728   1
   1   6 -10 4.45757 2.19672   4
   0  -6 -10 6.77130 1.77180   2
   0  -6 -10 6.74616 1.97451   4
   0  -6  10 8.13354 2.07998   2
   0   6 -10 8.95750 2.67853   1
   0   6 -10 3.90748 2.06438   4
  -1  -6 -10 1.41870 1.38299   2
  -1  -6 -10 -0.3205 1.37015   4
   1  -6  10 1.91549 1.62802   2
  -1   6 -10 2.61547 1.43384   4
  -1   6 -10 0.05482 1.32747   1
  -2  -6 -10 101.199 6.39676   4
   2  -6  10 115.383 6.97199   2
  -2  -6 -10 111.339 6.87208   2
  -2   6 -10 92.0877 6.82398   4
  -2   6 -10 87.3859 6.55127   1
  -3  -6 -10 4.20356 1.53199   4
   3  -6  10 9.15787 2.28872   2
  -3  -6 -10 6.71793 1.99844   2
  -3   6 -10 4.19178 1.84502   4
  -3   6 -10 7.97152 2.44010   1
  -4  -6 -10 -0.0243 1.02877   2
   4  -6  10 -0.7119 0.92966   2
  -4   6 -10 -0.4469 1.53741   4
  -5  -6 -10 7.27857 2.30760   2
   5  -6  10 10.1582 2.60488   2
  -5   6 -10 6.01560 2.35735   4
  -6  -6 -10 7.73267 2.58874   2
   6  -6  10 10.5949 2.70372   2
  -6   6 -10 11.7507 3.43668   2
  -6   6 -10 5.10183 2.60495   4
   7  -7 -10 7.14247 2.55237   1
   7  -7 -10 -0.0718 1.23073   4
  -7   7  10 0.33154 1.56355   3
   7   7 -10 1.94732 1.84466   1
   6  -7 -10 3.19949 2.01672   1
  -6  -7  10 5.52788 2.03155   2
   6  -7 -10 6.20012 2.39715   4
  -6   7  10 4.34115 1.94235   3
   6   7 -10 5.40443 2.65741   1
  -5  -7  10 3.73086 1.54587   2
   5  -7 -10 7.56642 2.29085   4
   5  -7 -10 8.80947 2.57170   1
  -5   7  10 5.84423 2.04272   3
   5   7 -10 6.55317 2.37841   1
   5   7 -10 7.86620 2.18332   4
   4  -7 -10 0.20714 1.65056   1
  -4  -7  10 1.36336 1.42936   2
   4  -7 -10 -0.1949 1.70545   4
  -4   7  10 -1.5101 1.13979   3
   4   7 -10 0.24947 1.89191   1
   4   7 -10 0.62660 1.19929   4
  -3  -7  10 -0.2137 1.11145   2
   3  -7 -10 -1.4835 0.87774   4
  -3   7  10 -1.3304 0.77622   3
   3   7 -10 -0.9890 0.90642   4
   3   7 -10 1.15042 1.90222   1
  -2  -7  10 0.63321 1.05905   2
   2  -7 -10 3.44013 1.54737   4
   2   7 -10 -0.1745 1.92258   1
   2   7 -10 2.65025 1.44111   4
  -2   7  10 0.17690 1.39437   3
  -1  -7  10 3.00717 1.39116   2
   1  -7 -10 3.20902 1.55999   4
  -1   7  10 0.13270 1.56791   3
   1   7 -10 2.89865 1.88148   4
   1   7 -10 0.39846 1.96319   1
   0  -7  10 0.74226 1.52851   2
   0  -7 -10 -0.1365 1.42663   4
   0   7 -10 4.78493 1.79448   4
   0   7  10 0.71173 1.64099   3
   0   7 -10 4.26336 2.26945   1
  -1  -7 -10 2.50134 1.45401   2
  -1  -7 -10 0.98273 1.16777   4
   1  -7  10 2.45323 1.78632   2
  -1   7 -10 3.46826 1.97552   1
  -1   7 -10 1.07840 1.33988   4
   1   7  10 2.96973 1.84409   3
   2  -7  10 6.20983 2.17452   2
  -2  -7 -10 4.81395 1.89943   2
  -2  -7 -10 3.17001 1.76961   4
  -2   7 -10 4.75034 2.20197   4
  -2   7 -10 0.50989 2.29965   1
  -3  -7 -10 3.86518 1.62873   2
   3  -7  10 6.96108 2.05549   2
  -3  -7 -10 2.03416 1.65638   4
  -3   7 -10 4.89021 2.02599   4
  -3   7 -10 1.38078 2.30669   1
  -4  -7 -10 -0.5373 0.95398   2
   4  -7  10 0.30012 1.09101   2
  -4   7 -10 3.03382 2.10703   4
  -5  -7 -10 1.77157 1.89867   2
   5  -7  10 -0.1061 1.37825   2
  -5   7 -10 -0.0299 1.77861   4
  -6  -7 -10 -2.7548 1.44601   2
   6  -7  10 2.83904 1.95666   2
  -6   7 -10 0.29571 1.98335   4
   7  -8 -10 2.60422 2.26414   4
   7  -8 -10 1.40252 2.10825   1
  -7  -8  10 1.40539 1.59278   2
  -7   8  10 -0.4977 1.65122   3
   7   8 -10 0.56461 1.50436   1
   6  -8 -10 1.33685 1.37967   4
   6  -8 -10 2.35163 1.92134   1
  -6  -8  10 4.80550 1.89710   2
  -6   8  10 0.07883 1.69469   3
   6   8 -10 2.46137 2.10091   1
   5  -8 -10 1.46017 1.99403   4
   5  -8 -10 1.43057 1.36337   1
  -5  -8  10 -1.7633 1.25945   2
   5   8 -10 3.60572 2.21202   1
  -5   8  10 -1.7836 1.31615   3
   5   8 -10 1.08110 1.62244   4
   4  -8 -10 0.91917 1.39439   4
  -4  -8  10 1.89289 1.58418   2
  -4   8  10 -2.1022 1.28767   3
   4   8 -10 0.50848 1.12512   4
   4   8 -10 0.08478 2.02873   1
  -3  -8  10 4.38616 1.64394   2
   3  -8 -10 4.78611 2.01849   4
   3   8 -10 5.43864 1.99776   4
  -3   8  10 3.60430 1.94711   3
   3   8 -10 0.50865 2.27223   1
   2  -8 -10 1.42704 1.19456   4
  -2  -8  10 -1.4542 1.27646   2
   2   8 -10 1.83001 1.33566   4
  -2   8  10 -3.6076 1.12360   3
   2   8 -10 -1.3349 1.88087   1
  -1  -8  10 17.4851 3.00094   2
   1  -8 -10 11.8055 2.47626   4
   1   8 -10 8.73001 2.94193   1
  -1   8  10 6.17243 2.21686   3
   1   8 -10 10.2648 2.84298   4
   0  -8  10 0.04368 1.06721   2
   0  -8 -10 -0.1231 1.47431   4
   0   8 -10 0.99550 1.71940   1
   0   8 -10 -0.3038 1.05982   4
   0   8  10 -1.6106 1.45884   3
  -1  -8 -10 21.9828 3.23304   4
   1  -8  10 29.6996 3.96876   2
   1   8  10 24.0581 3.34365   3
  -1   8 -10 26.7145 4.25676   1
  -1   8 -10 22.7110 3.57171   4
   2  -8  10 1.67637 1.39491   2
  -2  -8 -10 3.23028 1.72925   4
  -2  -8 -10 0.22411 1.28211   2
  -2   8 -10 -0.9510 2.22542   1
   2   8  10 1.83232 1.18481   3
  -2   8 -10 2.69834 1.94486   4
  -3  -8 -10 0.67113 1.40737   2
   3  -8  10 2.66733 1.62713   2
  -3   8 -10 -1.0109 2.11937   1
  -3   8 -10 0.61876 1.28396   4
   3   8  10 4.30735 1.65968   3
  -4  -8 -10 -0.3502 1.33358   2
   4  -8  10 -0.2972 1.17475   2
   4   8  10 4.27281 1.89626   3
  -4   8 -10 3.30750 2.21579   4
   5  -8  10 27.1671 4.13095   2
  -5  -8 -10 12.1253 2.95733   2
  -5   8 -10 17.8078 3.56866   4
   6  -9 -10 3.16949 2.23321   1
  -6  -9  10 5.24815 2.05633   2
   6  -9 -10 0.56528 2.00883   4
  -6   9  10 -0.0420 1.91067   3
   6   9 -10 2.30933 1.69530   1
  -5  -9  10 -0.4788 1.49774   2
   5  -9 -10 -1.3624 1.01653   4
   5   9 -10 -1.0617 1.29361   1
  -5   9  10 -1.0915 1.58924   3
   5   9 -10 -0.7039 1.35037   4
  -4  -9  10 -0.1786 1.12054   2
   4  -9 -10 -0.6855 1.06861   4
  -4   9  10 -2.2511 1.39856   3
   4   9 -10 0.17908 1.61322   1
   4   9 -10 0.92548 1.24255   4
  -3  -9  10 0.76645 1.45767   2
   3  -9 -10 0.92755 1.34824   4
  -3   9  10 2.83024 1.62998   3
   3   9 -10 1.48593 1.91342   1
   3   9 -10 3.17515 1.57986   4
  -2  -9  10 3.52408 1.90695   2
   2  -9 -10 1.88977 1.48950   4
   2   9 -10 2.11121 1.91754   1
  -2   9  10 0.59217 1.70427   3
   2   9 -10 -0.7960 1.14059   4
   1  -9 -10 2.35443 1.47843   4
  -1  -9  10 4.58688 2.08871   2
  -1   9  10 -0.0175 1.76020   3
   1   9 -10 4.55820 2.13286   1
   1   9 -10 5.31347 2.33653   4
   0  -9  10 -1.1102 0.91057   2
   0  -9 -10 1.22325 1.62472   4
   0   9 -10 3.07526 2.08329   4
   0   9 -10 -0.9574 2.15914   1
   0   9  10 -2.7044 1.50145   3
   1  -9  10 18.6644 3.22288   2
  -1  -9 -10 17.5385 2.87890   4
  -1   9 -10 8.75182 3.26676   1
   1   9  10 18.0848 3.07071   3
  -1   9 -10 16.6583 3.24986   4
  -2  -9 -10 4.57630 1.70038   4
  -2  -9 -10 1.65698 1.43315   2
   2  -9  10 3.82958 1.72828   2
  -2   9 -10 3.01224 1.90620   4
  -2   9 -10 -0.2815 1.89134   1
   2   9  10 4.24884 1.95794   3
   3  -9  10 3.87994 1.97160   2
  -3  -9 -10 -0.1384 1.26177   2
   3   9  10 4.78308 1.80170   3
  -3   9 -10 2.66095 1.72819   4
  -3   9 -10 4.26312 2.56583   1
  -4  -9 -10 9.01302 2.67937   2
   4  -9  10 9.61530 2.65706   2
  -4   9 -10 4.57337 2.82323   1
   4   9  10 7.08611 1.98468   3
  -4   9 -10 7.31058 2.63426   4
   5  -9  10 12.8595 3.11000   2
  -5  -9 -10 14.6113 3.16214   2
  -5   9 -10 7.84758 3.00499   4
   5   9  10 14.2067 2.72723   3
  -6 -10  10 1.91623 1.85636   2
  -6  10  10 -2.6718 1.53126   3
   5 -10 -10 1.20860 2.13155   4
  -5 -10  10 0.34497 1.64575   2
  -5  10  10 -2.4875 0.96346   3
   5  10 -10 1.17123 1.73708   1
   4 -10 -10 2.72986 2.23476   4
  -4 -10  10 3.68517 1.97584   2
   4  10 -10 -0.7750 1.53176   4
   4  10 -10 -2.1082 1.47045   1
  -4  10  10 -0.3214 1.66169   3
  -3 -10  10 -2.4862 1.29834   2
   3 -10 -10 1.81179 1.94103   4
   3  10 -10 1.54785 1.96828   1
   3  10 -10 -0.2835 1.04856   4
  -3  10  10 -3.7884 1.35446   3
   2 -10 -10 9.36908 2.63248   4
  -2 -10  10 8.08440 2.44985   2
   2  10 -10 10.4445 2.79614   4
   2  10 -10 7.73825 3.19201   1
  -2  10  10 7.03610 2.21716   3
   1 -10 -10 3.61195 1.66158   4
  -1 -10  10 8.20179 2.20987   2
  -1  10  10 2.00121 2.05942   3
   1  10 -10 3.52082 1.73574   4
   1  10 -10 3.34476 2.63949   1
   0 -10 -10 3.46375 1.94678   4
   0 -10  10 6.75271 2.35457   2
   0  10  10 4.04460 2.26461   3
   0  10 -10 4.44043 3.04490   1
   0  10 -10 5.69018 2.30795   4
   1 -10  10 1.79568 1.83230   2
  -1 -10 -10 1.79138 1.61498   4
  -1  10 -10 -0.3250 1.90951   1
   1  10  10 3.99200 2.06684   3
  -1  10 -10 0.78479 1.78483   4
   2 -10  10 17.6999 3.32748   2
  -2 -10 -10 12.6459 2.77531   4
   2  10  10 14.3205 2.94145   3
  -2  10 -10 11.5184 3.60072   1
  -2  10 -10 14.8357 3.10156   4
  -3 -10 -10 1.66580 1.55233   2
   3 -10  10 -0.5887 1.54709   2
   3  10  10 3.56433 1.69568   3
  -3  10 -10 1.84820 1.97857   4
  -3  10 -10 -1.6422 2.30376   1
  -4 -10 -10 -0.1903 1.62626   2
   4 -10  10 0.23659 1.20171   2
   4  10  10 2.05799 1.19847   3
  -4  10 -10 -4.2379 2.10977   1
  -4  10 -10 2.84211 2.01391   4
  -5 -11  10 2.66631 1.56692   2
  -5  11  10 1.44164 2.06550   3
   4 -11 -10 3.48801 2.11868   4
  -4 -11  10 1.18179 1.38811   2
   4  11 -10 5.41544 2.98904   1
   4  11 -10 2.58434 1.97051   4
  -4  11  10 -2.9794 1.62563   3
  -3 -11  10 -2.2176 1.37632   2
   3 -11 -10 1.58245 1.58230   4
   3  11 -10 0.05204 2.37662   1
   3  11 -10 0.91388 1.69274   4
  -3  11  10 0.46422 1.47748   3
   2 -11 -10 0.61380 1.92643   4
  -2 -11  10 0.26265 1.28808   2
   2  11 -10 1.03942 2.47018   1
  -2  11  10 2.26377 2.33420   3
   2  11 -10 2.61749 2.15915   4
  -1 -11  10 -0.9037 1.65900   2
   1 -11 -10 -0.2377 1.21047   4
  -1  11  10 -1.9901 1.19004   3
   1  11 -10 -3.2518 1.59798   1
   1  11 -10 -0.6882 1.41359   4
   0 -11  10 20.1973 3.33381   2
   0 -11 -10 26.9779 3.92508   4
   0  11 -10 19.3385 3.47477   4
   0  11 -10 15.7975 4.26242   1
   0  11  10 17.4815 3.49296   3
   1 -11  10 13.9341 2.82965   2
  -1 -11 -10 9.09603 2.50129   4
  -1  11 -10 6.98435 3.36626   1
  -1  11 -10 8.26935 2.44457   4
   1  11  10 9.87390 2.83889   3
   2 -11  10 0.43475 1.22532   2
  -2  11 -10 -0.9002 1.82530   4
   2  11  10 -0.3410 1.60470   3
  -2  11 -10 -1.9251 2.55603   1
   3 -11  10 4.68323 1.99550   2
  -3  11 -10 8.73391 3.11897   1
  -3  11 -10 6.71658 2.69837   4
   3  11  10 9.67433 2.39121   3
   3 -12 -10 0.47136 1.57735   4
  -3 -12  10 -1.1507 1.12576   2
  -3  12  10 -3.0920 1.89911   3
   3  12 -10 -1.2781 1.11888   4
   2 -12 -10 0.60514 1.45038   4
  -2 -12  10 2.40081 2.11419   2
  -2  12  10 -2.4709 1.29940   3
   2  12 -10 0.33460 1.44563   4
   2  12 -10 -2.7355 2.29005   1
   1 -12 -10 -0.9493 1.81891   4
  -1 -12  10 -0.2197 1.27084   2
  -1  12  10 -3.6518 1.85006   3
   1  12 -10 4.46764 2.26797   4
   1  12 -10 -5.9686 2.27276   1
   0 -12  10 1.53263 1.52446   2
   0 -12 -10 -2.3736 1.60498   4
   0  12  10 -0.9534 1.50536   3
   0  12 -10 2.26805 1.97197   4
   0  12 -10 -1.5546 1.85562   1
   1 -12  10 15.2324 3.26844   2
  -1 -12 -10 15.0148 3.20888   4
  -1  12 -10 11.4986 3.14470   4
  -1  12 -10 11.5038 4.13536   1
   1  12  10 8.53120 2.91503   3
   2  12  10 7.07424 2.39466   3
   8   0 -11 3.56501 1.94066   4
   8   0 -11 6.92434 4.51989   1
   7   0 -11 0.68442 1.75252   4
   7   0 -11 2.25063 1.82474   1
   6   0 -11 1.01649 1.35288   4
   6   0 -11 0.82880 1.84140   1
   5   0 -11 0.30728 1.27756   1
   5   0 -11 -0.6551 1.13637   4
   4   0 -11 9.53127 2.49585   1
   4   0 -11 4.56149 1.90336   4
   3   0 -11 0.86013 1.60610   4
   3   0 -11 0.85889 1.38578   1
  -2   0  11 2.06506 1.56746   2
   2   0 -11 3.21555 1.62174   1
   2   0 -11 1.93799 1.61744   4
   1   0 -11 -0.2644 1.34065   4
  -1   0  11 -0.0626 1.12713   2
   1   0 -11 0.85373 1.27302   1
   0   0  11 0.24744 0.91304   2
   0   0 -11 -1.4673 1.52805   4
  -1   0 -11 1.74646 1.77582   4
   1   0  11 2.04701 1.42793   2
  -2   0 -11 26.0222 3.82276   2
   2   0  11 34.8819 4.23472   2
  -2   0 -11 26.6222 3.74996   4
   3   0  11 1.16115 1.60758   2
  -3   0 -11 -0.0260 1.63353   2
  -3   0 -11 -1.7149 1.37906   4
  -4   0 -11 10.7726 2.82113   2
   4   0  11 16.0595 3.36681   2
  -4   0 -11 17.7518 3.21591   4
  -5   0 -11 -1.6864 1.58257   4
   5   0  11 0.31678 1.24086   2
  -5   0 -11 -0.2591 1.19578   2
  -6   0 -11 0.62326 1.81750   2
   6   0  11 0.61887 2.03167   2
   8  -1 -11 2.19842 2.51845   1
   8  -1 -11 1.24098 1.49370   4
   7  -1 -11 13.3069 3.02905   4
   7  -1 -11 18.4034 3.75998   1
   7   1 -11 14.1029 3.39405   1
   7   1 -11 17.1690 3.13589   4
   6  -1 -11 -0.2010 1.24856   1
   6  -1 -11 0.16274 1.62108   4
   6   1 -11 0.76781 1.24890   4
   6   1 -11 0.05618 1.08419   1
   5  -1 -11 6.89460 2.41820   4
   5  -1 -11 6.58001 2.38973   1
   5   1 -11 8.04072 2.45052   1
   5   1 -11 9.30723 2.58961   4
   4  -1 -11 3.61766 1.89718   1
   4  -1 -11 1.59874 1.45158   4
   4   1 -11 3.39213 1.91726   1
   4   1 -11 2.01259 1.54139   4
   3  -1 -11 0.09302 1.12901   4
   3  -1 -11 5.14866 1.84457   1
  -3  -1  11 -0.6274 1.15232   2
   3   1 -11 1.24833 1.50489   4
   3   1 -11 1.78957 1.52170   1
   2  -1 -11 13.8619 2.96749   4
  -2  -1  11 6.15994 1.88869   2
   2  -1 -11 11.3547 2.27923   1
   2   1 -11 9.67141 2.65694   4
  -2   1  11 7.99811 1.92593   2
   2   1 -11 2.77069 1.57376   1
  -1  -1  11 0.22603 0.91903   2
   1  -1 -11 -1.6221 1.43634   4
   1   1 -11 0.58886 1.11355   4
   1   1 -11 1.65176 1.42218   1
  -1   1  11 0.15323 1.14418   2
   0  -1  11 0.32677 1.28842   2
   0  -1 -11 1.15232 1.30371   2
   0  -1 -11 0.51124 1.67448   4
   0   1 -11 -0.2096 1.25733   4
   0   1  11 1.79650 1.16948   2
  -1  -1 -11 7.48389 2.37725   2
  -1  -1 -11 4.98434 2.17236   4
   1  -1  11 13.9642 2.68477   2
  -1   1 -11 11.2231 2.62189   4
   1   1  11 8.76560 2.16504   2
  -2  -1 -11 6.34355 2.33147   4
  -2  -1 -11 2.16043 1.69258   2
   2  -1  11 6.79308 2.04757   2
  -2   1 -11 4.18243 1.93904   4
   2   1  11 1.91075 1.49672   2
  -3  -1 -11 1.95147 1.93729   2
   3  -1  11 2.20744 1.34265   2
  -3  -1 -11 1.33598 1.67669   4
  -3   1 -11 -0.3317 1.03971   4
   3   1  11 2.10008 1.85052   2
  -3   1 -11 1.71058 1.45623   2
   4  -1  11 2.33407 1.53677   2
  -4  -1 -11 1.89210 1.49570   4
  -4  -1 -11 4.83025 2.19483   2
  -4   1 -11 4.99376 2.06266   2
   4   1  11 5.01044 2.14139   2
  -4   1 -11 2.44233 2.07945   4
  -5  -1 -11 2.11742 1.87861   2
  -5  -1 -11 2.76867 2.06556   4
   5  -1  11 6.89232 2.64386   2
  -5   1 -11 5.34494 2.31103   2
  -5   1 -11 2.68346 1.98389   4
   5   1  11 5.47323 2.52857   2
  -6  -1 -11 0.50885 1.28621   2
   6  -1  11 -0.8508 1.83767   2
   6   1  11 0.09973 1.42930   2
  -6   1 -11 -0.4664 2.14417   2
   8  -2 -11 1.00255 1.72211   4
   7  -2 -11 1.31411 1.66115   1
   7  -2 -11 4.22653 1.88372   4
   7   2 -11 2.71406 1.63739   4
   7   2 -11 7.50320 2.45865   1
   6  -2 -11 1.22788 1.39277   4
   6  -2 -11 0.50246 1.75781   1
   6   2 -11 3.38454 1.93010   1
   6   2 -11 1.09101 1.79294   4
   5  -2 -11 9.42585 2.59612   1
   5  -2 -11 12.1102 2.63531   4
   5   2 -11 11.3261 2.68540   1
   5   2 -11 11.6240 2.77414   4
   4  -2 -11 0.97581 1.47166   1
   4  -2 -11 0.24438 1.68845   4
   4   2 -11 0.32499 1.07493   1
   4   2 -11 1.43500 1.66182   4
  -3  -2  11 65.3605 4.83334   2
   3  -2 -11 74.9521 5.73378   4
   3  -2 -11 65.2479 5.11594   1
   3   2 -11 64.3019 5.22444   1
   3   2 -11 67.9537 5.47458   4
  -2  -2  11 7.65732 2.02251   2
   2  -2 -11 6.83740 2.37884   4
   2   2 -11 8.46579 2.14167   1
   2   2 -11 6.07221 1.93799   4
   1  -2 -11 1.62933 1.38401   4
  -1  -2  11 1.01126 1.29010   2
   1  -2 -11 -0.3626 1.05034   2
  -1   2  11 -0.2896 0.87902   2
   1   2 -11 -0.3432 1.27937   1
   1   2 -11 2.29173 1.85405   4
   0  -2 -11 0.65801 1.11034   4
   0  -2 -11 0.37330 0.93527   2
   0  -2  11 1.31771 1.41473   2
   0   2  11 0.52827 1.14988   2
   0   2 -11 0.35490 1.67126   4
   0   2 -11 1.03701 1.46621   1
  -1  -2 -11 7.88708 2.19972   4
  -1  -2 -11 7.40031 2.34236   2
   1  -2  11 10.3324 2.46473   2
   1   2  11 11.7536 2.55629   2
  -1   2 -11 7.92194 2.55082   4
  -2  -2 -11 1.99426 1.68098   4
  -2  -2 -11 0.98382 1.62525   2
   2  -2  11 2.68534 1.40478   2
   2   2  11 2.07962 1.70199   2
  -2   2 -11 3.23798 2.22474   4
   3  -2  11 0.13539 1.43035   2
  -3  -2 -11 1.02743 1.58718   4
  -3  -2 -11 -0.7403 0.91038   2
  -3   2 -11 -1.6883 0.95819   4
   3   2  11 0.17832 1.07024   2
   4  -2  11 -0.9531 1.42958   2
  -4  -2 -11 0.52938 1.13277   4
  -4  -2 -11 -0.9595 1.45871   2
  -4   2 -11 -1.1066 1.19122   4
   4   2  11 1.56559 1.77451   2
  -4   2 -11 1.07406 1.95117   2
  -5  -2 -11 42.2246 5.43468   2
   5  -2  11 29.4995 4.37415   2
   5   2  11 41.1744 5.05571   2
  -5   2 -11 31.1459 4.34029   4
  -5   2 -11 35.8954 5.01946   2
   6   2  11 -0.7842 1.94919   2
  -6   2 -11 1.51231 2.04061   4
   7  -3 -11 -0.3283 1.70842   4
   7  -3 -11 0.91222 1.97016   1
   7   3 -11 -1.3699 1.52657   4
   7   3 -11 3.48645 2.14554   1
   6  -3 -11 3.37603 2.20842   1
   6  -3 -11 2.09903 1.80540   4
   6   3 -11 3.72022 1.92549   1
   6   3 -11 1.34308 1.73779   4
   5  -3 -11 1.21692 1.84775   1
   5  -3 -11 0.74537 1.93443   4
   5   3 -11 2.12765 1.41140   4
   5   3 -11 6.92246 2.42520   1
   4  -3 -11 0.84482 1.58758   1
   4  -3 -11 -0.1737 1.13014   4
  -4  -3  11 -0.4105 1.26327   2
   4   3 -11 4.00352 1.92024   1
   4   3 -11 -0.3305 0.87694   4
  -3  -3  11 2.19776 1.57274   2
   3  -3 -11 3.22967 1.75999   1
   3  -3 -11 3.13300 1.99552   4
   3   3 -11 1.33061 1.36890   4
   3   3 -11 0.06783 1.06702   1
  -2  -3  11 9.02449 2.22142   2
   2  -3 -11 7.21663 2.14184   4
   2   3 -11 15.2060 2.97253   1
   2   3 -11 7.79166 2.53366   4
   1  -3 -11 6.39748 2.03684   2
   1  -3 -11 12.2008 2.68814   4
  -1  -3  11 11.4989 2.47558   2
  -1   3  11 9.90762 2.19866   2
   1   3 -11 5.77668 2.05157   4
   1   3 -11 11.2736 2.50716   1
   0  -3 -11 20.7301 3.28286   2
   0  -3 -11 24.0702 3.51702   4
   0  -3  11 15.7036 2.98079   2
   0   3  11 25.3931 3.42280   2
   0   3 -11 17.7709 3.13023   1
   0   3 -11 21.4312 3.48350   4
  -1  -3 -11 0.19129 1.05842   4
  -1  -3 -11 1.84202 1.38281   2
   1  -3  11 4.03253 1.61852   2
  -1   3 -11 0.83362 1.57187   4
   1   3  11 0.03202 1.36193   2
  -2  -3 -11 2.47990 1.77789   4
  -2  -3 -11 1.84789 1.72700   2
   2  -3  11 2.18522 1.67146   2
  -2   3 -11 5.29640 2.05638   4
   2   3  11 3.13941 1.80275   2
   3  -3  11 1.18231 1.64856   2
  -3  -3 -11 0.65163 1.47832   4
  -3  -3 -11 -1.1710 1.43937   2
   3   3  11 0.60409 1.55573   2
  -3   3 -11 0.82999 1.77869   4
  -4  -3 -11 9.26048 2.56279   2
  -4  -3 -11 8.19655 2.16297   4
   4  -3  11 8.63456 2.47681   2
  -4   3 -11 12.5382 3.00021   4
  -4   3 -11 6.20968 2.46017   2
   4   3  11 11.6911 2.66096   2
  -5  -3 -11 13.9912 3.19020   2
   5  -3  11 11.0939 2.65744   2
  -5   3 -11 8.14162 2.65343   2
   5   3  11 12.8246 3.10986   2
  -5   3 -11 9.73016 2.82386   4
  -6   3 -11 1.30463 2.17154   4
   7  -4 -11 2.18030 1.83338   4
   7  -4 -11 3.66632 2.35710   1
   7   4 -11 4.73034 2.50697   1
   6  -4 -11 22.9975 3.85565   4
   6  -4 -11 26.6900 4.19243   1
   6   4 -11 19.3875 3.26999   4
   6   4 -11 14.9441 3.29509   1
   5  -4 -11 3.15575 1.78314   4
   5  -4 -11 0.98315 1.68374   1
   5   4 -11 1.06841 1.66940   4
   5   4 -11 3.42004 1.67981   1
   4  -4 -11 0.17665 1.63524   1
  -4  -4  11 0.05939 1.35663   2
   4  -4 -11 -0.8935 1.80686   4
   4   4 -11 3.19851 1.69295   1
   4   4 -11 -0.1952 1.56451   4
  -3  -4  11 11.5597 2.40542   2
   3  -4 -11 5.63511 1.92720   4
   3   4 -11 11.3269 2.80278   1
   3   4 -11 5.26468 2.02621   4
   2  -4 -11 -1.2888 0.86562   4
  -2  -4  11 0.30889 1.34707   2
   2   4 -11 0.49139 1.30458   4
   2   4 -11 0.75200 1.65901   1
   1  -4 -11 -0.3423 1.67493   4
  -1  -4  11 -1.0936 0.95757   2
   1   4 -11 0.27469 1.40959   4
   1   4 -11 0.22221 1.19768   1
   0  -4  11 4.59226 1.72655   2
   0  -4 -11 7.09230 2.01871   2
   0  -4 -11 0.76966 1.77839   4
   0   4 -11 2.99575 2.17198   4
   0   4  11 6.70172 2.04803   2
   0   4 -11 2.37666 1.99457   1
   1  -4  11 2.89440 1.72493   2
  -1  -4 -11 1.84406 1.34396   4
  -1  -4 -11 1.78570 1.63444   2
   1   4  11 2.66056 1.71678   2
  -1   4 -11 1.36987 2.13010   1
  -1   4 -11 5.08551 2.28710   4
   2  -4  11 7.40209 2.26756   2
  -2  -4 -11 7.09048 2.37889   2
  -2  -4 -11 6.31614 2.15845   4
   2   4  11 6.39017 2.17534   2
  -2   4 -11 7.15001 2.36355   4
   3  -4  11 -1.7872 1.27818   2
  -3  -4 -11 1.24944 1.64794   2
  -3  -4 -11 1.18542 1.58986   4
  -3   4 -11 1.95044 1.89756   4
   3   4  11 -1.8828 1.28760   2
  -4  -4 -11 2.76368 2.05631   2
  -4  -4 -11 3.20747 1.90805   4
   4  -4  11 2.36818 1.48162   2
   4   4  11 4.76273 2.12826   2
  -4   4 -11 4.45455 1.98205   4
   5  -4  11 5.56933 2.02560   2
  -5  -4 -11 8.10066 2.57701   2
  -5   4 -11 7.50828 2.36064   2
  -5   4 -11 9.76408 2.54038   4
   7  -5 -11 2.43904 1.67637   4
   7  -5 -11 3.35072 1.97813   1
   7   5 -11 7.96987 3.21300   1
   6  -5 -11 4.47372 2.36320   1
   6  -5 -11 4.58233 2.16977   4
   6   5 -11 0.42288 1.04168   4
   6   5 -11 3.50854 2.22494   1
   5  -5 -11 14.5464 3.15676   1
  -5  -5  11 11.5145 2.52011   2
   5  -5 -11 18.2702 3.57059   4
   5   5 -11 13.4717 2.92485   4
   5   5 -11 19.5409 3.77352   1
   4  -5 -11 3.31512 1.59067   1
   4  -5 -11 2.83304 1.61466   4
  -4  -5  11 1.34785 1.45578   2
   4   5 -11 -0.1458 1.59404   4
   4   5 -11 3.99276 1.83837   1
  -3  -5  11 1.20880 1.18066   2
   3  -5 -11 3.56306 2.12494   4
   3   5 -11 2.10210 1.51415   1
   3   5 -11 5.14867 2.20288   4
  -2  -5  11 -0.7159 1.33533   2
   2  -5 -11 3.74763 2.17775   4
   2   5 -11 1.23727 1.53140   4
   2   5 -11 1.70915 1.88820   1
   1  -5 -11 0.79256 1.53461   4
  -1  -5  11 0.90197 1.08971   2
   1   5 -11 2.53121 2.34529   4
   1   5 -11 -2.5029 1.53588   1
   0  -5 -11 1.74058 1.83674   2
   0  -5 -11 3.64319 1.87790   4
   0  -5  11 3.21944 1.90646   2
   0   5 -11 3.43157 2.24310   4
   0   5 -11 -0.5380 1.66160   1
   0   5  11 1.59089 1.38125   2
   1  -5  11 4.07143 1.93945   2
  -1  -5 -11 1.34568 1.53842   2
  -1  -5 -11 4.75687 1.73998   4
  -1   5 -11 3.69802 2.35619   1
   1   5  11 1.66983 1.60501   2
  -1   5 -11 7.02975 2.41730   4
  -2  -5 -11 3.22230 1.91827   2
   2  -5  11 3.04113 1.79597   2
  -2  -5 -11 -0.0681 1.65594   4
   2   5  11 7.11836 2.14253   2
  -2   5 -11 4.27675 2.38477   4
   3  -5  11 7.48677 2.26819   2
  -3  -5 -11 7.92864 2.34732   2
  -3  -5 -11 6.04517 2.34219   4
  -3   5 -11 10.6812 2.60414   4
  -4  -5 -11 -1.0415 1.43129   2
   4  -5  11 0.72242 1.23033   2
  -4   5 -11 0.34346 1.43869   4
   5  -5  11 0.41595 1.27686   2
  -5  -5 -11 -1.4386 1.60973   2
  -5   5 -11 0.84597 2.05654   4
  -5   5 -11 -0.5250 1.30779   2
   6  -6 -11 0.49915 1.99167   4
   6  -6 -11 1.32278 2.15553   1
   6   6 -11 2.38760 1.74839   4
   6   6 -11 1.68580 1.99709   1
   5  -6 -11 8.75536 2.79056   1
  -5  -6  11 6.80498 2.17710   2
   5  -6 -11 5.21010 1.93728   4
   5   6 -11 5.19641 2.26783   4
   5   6 -11 5.71931 2.60673   1
  -4  -6  11 0.53600 1.35628   2
   4  -6 -11 1.23566 1.91398   4
   4   6 -11 5.15924 2.28144   1
   4   6 -11 -0.6493 1.52386   4
   3  -6 -11 9.07010 2.74482   4
  -3  -6  11 12.4089 2.51417   2
   3   6 -11 17.9590 3.39600   4
   3   6 -11 7.53968 2.39717   1
  -2  -6  11 3.64648 1.83843   2
   2  -6 -11 3.91213 1.87611   4
   2   6 -11 4.22998 1.98709   4
   2   6 -11 3.13099 2.31941   1
  -1  -6  11 0.59551 1.02299   2
   1  -6 -11 1.11909 1.92729   4
   1   6 -11 0.73381 2.02637   1
   1   6 -11 2.92572 2.05552   4
   0  -6 -11 9.92665 2.61701   4
   0  -6  11 8.62310 2.43205   2
   0   6 -11 7.46804 2.36702   1
   0   6 -11 11.2186 2.75278   4
   1  -6  11 0.55814 1.62225   2
  -1  -6 -11 -0.5901 1.36728   2
  -1  -6 -11 0.93653 1.31796   4
  -1   6 -11 -3.3228 1.57561   1
  -1   6 -11 -1.7809 0.96277   4
   2  -6  11 34.0038 4.46605   2
  -2  -6 -11 24.8885 3.68776   4
  -2  -6 -11 22.5212 3.57115   2
  -2   6 -11 23.1244 4.71966   1
  -2   6 -11 32.5510 4.67414   4
  -3  -6 -11 1.65169 1.75226   2
   3  -6  11 1.58700 1.47634   2
  -3  -6 -11 0.39465 1.70563   4
  -3   6 -11 0.80014 1.55393   4
  -4  -6 -11 1.06885 1.44683   2
   4  -6  11 -0.6302 1.18008   2
  -4   6 -11 1.33299 2.15188   4
  -5  -6 -11 2.05982 1.68799   2
  -5   6 -11 -1.5672 1.84110   4
  -6  -7  11 1.64392 1.69076   2
   6  -7 -11 2.82548 1.85254   4
   6  -7 -11 1.10944 2.03363   1
   6   7 -11 0.72576 2.26716   1
   5  -7 -11 7.71492 2.74547   4
  -5  -7  11 6.78789 2.10202   2
   5   7 -11 10.2633 2.90606   1
   5   7 -11 8.49214 2.64751   4
   4  -7 -11 1.34683 1.81464   4
  -4  -7  11 1.18275 1.59184   2
   4   7 -11 6.78970 2.75226   1
   4   7 -11 2.66217 2.05100   4
   3  -7 -11 9.44728 2.55516   4
  -3  -7  11 4.12804 1.61842   2
   3   7 -11 10.4669 2.84284   4
   3   7 -11 7.04598 2.33579   1
   2  -7 -11 4.94938 1.99436   4
  -2  -7  11 6.95590 2.30429   2
   2   7 -11 5.41612 2.02437   4
   2   7 -11 4.18510 2.09408   1
  -1  -7  11 0.61757 1.13864   2
   1  -7 -11 0.02373 1.25730   4
   1   7 -11 -1.3655 1.98364   1
   1   7 -11 1.10810 1.87694   4
   0  -7 -11 6.84556 2.42612   4
   0  -7  11 2.67474 1.81574   2
   0   7 -11 6.52564 2.32968   4
   0   7 -11 2.91412 2.57626   1
   1  -7  11 9.23179 2.67008   2
  -1  -7 -11 6.83574 2.08548   4
  -1   7 -11 3.06764 2.64055   1
  -1   7 -11 9.88973 2.59792   4
  -2  -7 -11 -0.8781 1.49376   4
  -2  -7 -11 -0.5056 1.45201   2
   2  -7  11 0.25116 1.57504   2
  -2   7 -11 1.43396 1.76559   1
  -2   7 -11 3.86818 2.48578   4
  -3  -7 -11 13.8268 3.09458   4
  -3  -7 -11 13.6641 2.96736   2
   3  -7  11 13.6688 2.99201   2
  -3   7 -11 19.2681 3.65593   4
   4  -7  11 5.47906 2.38213   2
  -4  -7 -11 0.35376 1.21510   2
  -4   7 -11 2.71405 2.45026   4
   5  -8 -11 1.08710 1.53310   4
  -5  -8  11 2.04337 1.32602   2
   5   8 -11 2.70354 2.32276   1
   5   8 -11 0.69934 1.88148   4
  -4  -8  11 1.57673 1.35070   2
   4  -8 -11 0.79268 1.59090   4
   4   8 -11 -0.0776 1.68216   4
   4   8 -11 -1.1631 1.44194   1
  -3  -8  11 19.6893 3.33590   2
   3  -8 -11 23.6300 3.82703   4
   3   8 -11 15.7656 3.35957   1
   3   8 -11 25.3044 3.99373   4
  -2  -8  11 2.73336 1.87580   2
   2  -8 -11 1.05544 1.42779   4
   2   8 -11 -1.9628 1.99702   1
   2   8 -11 -0.4375 1.28534   4
   1  -8 -11 -0.4734 1.23513   4
  -1  -8  11 -0.7499 0.87411   2
   1   8 -11 0.45387 1.76498   4
   1   8 -11 -3.1786 1.93292   1
   0  -8 -11 1.36741 1.73883   4
   0  -8  11 0.78309 1.30874   2
   0   8 -11 0.23356 1.66158   1
   0   8 -11 1.05800 2.10456   4
   1  -8  11 -0.3333 1.82549   2
  -1  -8 -11 0.48601 1.29679   4
  -1   8 -11 -1.7987 2.21790   1
  -1   8 -11 1.59715 2.06554   4
  -2  -8 -11 0.41290 1.57222   2
  -2  -8 -11 1.77119 1.71049   4
   2  -8  11 0.60342 1.77991   2
  -2   8 -11 -2.3771 2.17627   1
  -2   8 -11 -0.3633 2.24043   4
   3  -8  11 7.64753 2.57496   2
  -3  -8 -11 9.40410 2.37403   2
  -3   8 -11 4.80160 2.22158   4
  -4  -8 -11 1.48923 1.84857   2
  -4   8 -11 -0.6283 2.22102   4
  -4  -9  11 2.08659 1.88523   2
   4  -9 -11 5.88148 2.42691   4
   4   9 -11 1.36997 1.87162   1
   4   9 -11 0.32473 1.89568   4
  -3  -9  11 0.06031 1.76259   2
   3  -9 -11 -0.5162 1.69802   4
   3   9 -11 -3.6269 2.07789   1
   3   9 -11 -0.6288 1.67669   4
   2  -9 -11 6.64122 2.58614   4
  -2  -9  11 3.47256 1.60847   2
   2   9 -11 3.69538 2.82965   1
   2   9 -11 3.30008 1.73146   4
  -1  -9  11 -0.4170 1.72972   2
   1  -9 -11 3.74240 1.92880   4
   1   9 -11 4.88029 2.42932   4
   1   9 -11 -1.3616 1.44845   1
   0  -9 -11 1.02323 1.74617   4
   0  -9  11 0.80860 1.43851   2
   0   9 -11 -0.2164 2.36057   1
   0   9 -11 -0.4239 2.04443   4
  -1  -9 -11 0.70633 1.38967   4
   1  -9  11 0.71786 1.43310   2
  -1   9 -11 -1.4623 2.38786   1
  -1   9 -11 1.16147 2.42770   4
  -2  -9 -11 3.49084 1.67949   4
   2  -9  11 7.97114 2.64284   2
  -2   9 -11 2.45438 3.07080   1
  -2   9 -11 4.82538 2.10096   4
  -3  -9 -11 16.4491 3.18316   2
  -3   9 -11 6.12215 3.60058   1
  -3 -10  11 -0.0868 1.34519   2
   3 -10 -11 -0.6987 1.22804   4
   3  10 -11 -3.2132 2.24627   1
   3  10 -11 -0.9091 1.08461   4
   2 -10 -11 4.47375 2.30253   4
  -2 -10  11 2.58739 2.03337   2
   2  10 -11 5.57709 2.40276   4
   2  10 -11 -0.5180 1.82461   1
   1 -10 -11 -0.8100 1.86769   4
  -1 -10  11 -1.6869 1.06913   2
   1  10 -11 -2.5007 2.55334   1
   1  10 -11 -1.5846 1.13068   4
   0 -10 -11 8.80568 2.71867   4
   0 -10  11 14.2224 3.23192   2
   0  10 -11 11.3003 3.65629   1
   0  10 -11 7.14237 2.63877   4
  -1 -10 -11 4.65599 1.85087   4
   1 -10  11 11.1273 3.08339   2
  -1  10 -11 1.02814 2.94165   1
  -1  10 -11 4.51290 2.18532   4
   6   0 -12 1.66125 1.43008   1
   6   0 -12 0.16367 1.80719   4
   5   0 -12 4.52894 2.13544   1
   5   0 -12 -3.1222 1.32431   4
   4   0 -12 48.8475 5.49485   1
   4   0 -12 41.5492 4.99062   4
   3   0 -12 0.48242 1.95495   4
   3   0 -12 4.75901 1.90734   1
  -2   0  12 8.69156 2.32663   2
   2   0 -12 10.2783 2.69328   4
  -1   0  12 0.46406 1.42638   2
   1   0 -12 -2.1597 1.17683   4
   0   0 -12 0.64658 1.12787   4
   0   0  12 0.47118 1.43004   2
  -1   0 -12 -1.0564 1.40686   2
   1   0  12 3.85177 1.86680   2
  -1   0 -12 0.17943 1.54611   4
  -2   0 -12 -1.1811 1.85489   4
   2   0  12 -0.8873 1.00435   2
  -2   0 -12 1.55005 1.33455   2
  -3   0 -12 0.78137 1.88172   2
  -3   0 -12 0.54364 1.36310   4
   3   0  12 1.32914 1.93993   2
  -4   0 -12 20.2088 3.70551   2
   4   0  12 21.4475 3.78047   2
  -4   0 -12 14.8534 3.35177   4
   6  -1 -12 -0.5199 1.25965   4
   6  -1 -12 0.71545 2.08651   1
   6   1 -12 3.34487 2.20451   1
   6   1 -12 0.79082 1.85100   4
   5  -1 -12 -0.1217 1.15224   4
   5  -1 -12 2.02053 1.94332   1
   5   1 -12 -0.4822 1.67551   4
   5   1 -12 4.14528 2.05916   1
   4  -1 -12 6.78120 2.54876   4
   4  -1 -12 5.20037 2.24011   1
   4   1 -12 3.38756 2.07622   4
   4   1 -12 2.89694 1.96755   1
   3  -1 -12 6.39344 2.26786   1
   3  -1 -12 4.95073 2.21699   4
   3   1 -12 9.14353 2.62468   1
   3   1 -12 6.34093 2.14440   4
  -2  -1  12 0.71522 1.45551   2
   2  -1 -12 3.82490 2.13554   4
   2   1 -12 3.35577 2.18752   4
   2   1 -12 1.97505 1.64854   1
   1  -1 -12 7.92236 2.56353   4
   1  -1 -12 5.82716 2.13340   2
  -1  -1  12 4.30387 1.96407   2
  -1   1  12 4.79620 1.87216   2
   1   1 -12 3.83467 2.25432   4
   0  -1 -12 -0.2028 1.49559   2
   0  -1 -12 2.68024 2.24487   4
   0  -1  12 0.14454 1.34938   2
   0   1 -12 -3.1784 1.55724   4
   0   1  12 -2.4811 1.11665   2
   1  -1  12 0.34817 1.36804   2
  -1  -1 -12 1.91533 2.16658   4
  -1  -1 -12 0.18025 1.52557   2
  -1   1 -12 3.44618 2.28441   4
   1   1  12 1.12913 1.62940   2
  -2  -1 -12 11.4796 2.61200   4
  -2  -1 -12 9.15679 2.90978   2
   2  -1  12 9.61567 2.67351   2
  -2   1 -12 12.5902 2.84674   4
  -2   1 -12 9.16592 2.88756   2
   2   1  12 13.1471 2.95298   2
  -3  -1 -12 10.7781 2.74827   2
   3  -1  12 18.1677 3.34755   2
  -3  -1 -12 15.4394 3.21334   4
  -3   1 -12 16.3442 3.46623   4
  -3   1 -12 17.8503 3.50009   2
   3   1  12 19.9878 3.55178   2
   4  -1  12 -1.0618 1.89768   2
  -4  -1 -12 -1.1845 1.64749   2
  -4  -1 -12 1.10843 1.88990   4
   4   1  12 -1.6218 1.52780   2
  -4   1 -12 2.01452 2.16151   4
  -4   1 -12 0.41779 1.85828   2
   6  -2 -12 0.07190 1.43143   4
   6  -2 -12 -0.0060 2.15092   1
   6   2 -12 5.91828 2.44392   1
   6   2 -12 2.09172 1.74160   4
   5  -2 -12 0.46942 1.82050   1
   5  -2 -12 2.66047 2.11059   4
   5   2 -12 2.19452 2.12999   1
   5   2 -12 -0.2388 1.20926   4
   4  -2 -12 -1.4941 1.66350   4
   4  -2 -12 2.67202 2.05799   1
   4   2 -12 3.36458 1.90396   1
   4   2 -12 2.88822 2.03508   4
   3  -2 -12 1.56405 2.08244   4
  -3  -2  12 2.66782 1.80929   2
   3   2 -12 -0.7889 1.76735   4
   3   2 -12 3.55264 1.92018   1
   2  -2 -12 0.16760 1.37392   4
  -2  -2  12 2.01830 1.56703   2
   2   2 -12 3.36243 1.80748   1
   2   2 -12 -0.8236 1.50878   4
  -1  -2  12 15.8352 2.86327   2
   1  -2 -12 11.7431 2.82800   4
   1   2 -12 18.1378 3.33994   4
  -1   2  12 9.02291 2.56320   2
   0  -2 -12 0.08845 1.38729   2
   0  -2 -12 -0.7778 1.14748   4
   0  -2  12 -1.5301 1.33066   2
   0   2 -12 -0.1333 1.41033   4
   0   2  12 0.06902 1.51483   2
  -1  -2 -12 28.1394 4.19528   2
   1  -2  12 39.2936 4.80945   2
  -1  -2 -12 34.7927 4.57369   4
   1   2  12 31.9464 4.30844   2
  -1   2 -12 36.7972 4.73251   4
   2  -2  12 0.07045 1.57552   2
  -2  -2 -12 1.64908 1.97202   4
  -2  -2 -12 0.33278 1.44546   2
   2   2  12 1.17240 1.68853   2
  -2   2 -12 3.27203 2.26304   4
   3  -2  12 4.54117 1.89865   2
  -3  -2 -12 4.15025 2.21551   2
  -3  -2 -12 2.45537 2.21026   4
  -3   2 -12 6.97760 2.34409   4
   3   2  12 5.21652 2.35776   2
  -3   2 -12 6.99906 2.53811   2
   4  -2  12 0.43436 1.92920   2
  -4  -2 -12 0.46951 1.55768   2
  -4  -2 -12 -2.0889 1.80637   4
  -4   2 -12 -0.4483 1.74848   2
  -4   2 -12 -3.0091 1.81575   4
   4   2  12 0.70655 1.32007   2
   6  -3 -12 5.27224 2.52139   4
   6  -3 -12 3.63010 2.07698   1
   6   3 -12 3.36715 1.80914   4
   6   3 -12 6.59344 2.32008   1
   5  -3 -12 0.01904 1.91109   1
   5  -3 -12 2.30282 2.12662   4
   5   3 -12 -0.3837 1.16941   4
   5   3 -12 0.79620 1.87925   1
   4  -3 -12 2.19504 1.69040   4
   4  -3 -12 4.15151 2.50781   1
   4   3 -12 0.79890 1.74759   1
   4   3 -12 1.76630 1.52798   4
  -3  -3  12 0.55527 1.13832   2
   3  -3 -12 0.87061 1.48546   4
   3   3 -12 1.75312 2.08403   4
   3   3 -12 3.36591 2.02905   1
   2  -3 -12 0.19444 1.77085   4
  -2  -3  12 0.04494 1.37003   2
   2   3 -12 1.74383 1.84474   1
   2   3 -12 -1.5949 1.02609   4
  -1  -3  12 1.24428 1.50647   2
   1  -3 -12 0.39504 1.93633   4
   1   3 -12 0.19210 1.98059   4
   1   3 -12 -0.3047 1.52104   1
   0  -3 -12 5.06471 2.35413   4
   0  -3  12 4.88004 1.73667   2
   0  -3 -12 4.70665 1.83754   2
   0   3  12 2.81206 1.74678   2
   0   3 -12 9.32877 2.81409   4
  -1  -3 -12 2.02335 1.55654   4
   1  -3  12 2.66915 1.98828   2
  -1  -3 -12 2.26110 1.49802   2
   1   3  12 1.37679 1.58579   2
  -1   3 -12 2.15668 2.26767   4
   2  -3  12 8.55148 2.44299   2
  -2  -3 -12 6.97681 2.24335   2
  -2  -3 -12 5.17130 2.47863   4
   2   3  12 6.72199 2.46252   2
  -2   3 -12 10.5367 2.72116   4
   3  -3  12 1.11039 1.79136   2
  -3  -3 -12 0.46336 1.64558   2
  -3  -3 -12 -1.5148 1.80128   4
  -3   3 -12 -0.1904 2.06872   4
   3   3  12 0.79028 1.80933   2
   4  -3  12 1.73926 3.16471   2
  -4  -3 -12 0.36677 1.91075   4
  -4  -3 -12 4.27175 2.34098   2
  -4   3 -12 -3.6622 1.87604   4
   4   3  12 -1.1142 1.76167   2
   5  -4 -12 -0.0135 1.59709   4
   5  -4 -12 1.64172 1.59187   1
   5   4 -12 0.30589 1.27735   1
   5   4 -12 -1.0956 1.75126   4
   4  -4 -12 8.59584 2.86918   4
  -4  -4  12 12.6566 2.79838   2
   4   4 -12 8.85556 2.26618   4
   4   4 -12 16.9239 3.58663   1
  -3  -4  12 5.61719 2.03477   2
   3  -4 -12 2.84412 2.05866   4
   3   4 -12 5.80025 2.13035   4
   3   4 -12 4.99455 2.33738   1
   2  -4 -12 9.52580 2.69423   4
  -2  -4  12 7.20816 2.31164   2
   2   4 -12 8.41626 2.78932   4
   2   4 -12 12.8014 2.96950   1
   1  -4 -12 3.23356 1.92070   4
  -1  -4  12 5.80921 1.86940   2
   1   4 -12 2.98928 2.00639   1
   1   4 -12 4.91449 2.55941   4
   0  -4  12 -0.4174 1.60879   2
   0  -4 -12 -0.7931 1.62194   4
   0   4 -12 -1.6773 1.88132   4
   1  -4  12 6.41538 2.05754   2
  -1  -4 -12 4.66925 1.80403   2
  -1  -4 -12 5.14426 2.35368   4
   1   4  12 8.54515 2.45422   2
  -1   4 -12 8.84783 3.12914   4
  -2  -4 -12 1.68320 1.60200   2
  -2  -4 -12 2.59988 2.05392   4
   2  -4  12 -0.5232 1.72334   2
   2   4  12 0.52188 1.28952   2
  -2   4 -12 3.81184 2.53022   4
  -3  -4 -12 18.8468 3.47722   2
   3  -4  12 16.4515 3.46017   2
  -3  -4 -12 9.54308 2.51787   4
  -3   4 -12 13.8879 3.63891   4
   3   4  12 18.0063 3.29466   2
  -4  -4 -12 4.63805 1.98924   2
   5  -5 -12 0.73570 2.08817   4
   5   5 -12 1.26851 1.89306   1
   5   5 -12 0.78464 1.83781   4
  -4  -5  12 1.41046 1.73037   2
   4  -5 -12 0.09934 1.38381   4
   4   5 -12 -1.5919 1.29688   1
   4   5 -12 -1.1007 1.82930   4
   3  -5 -12 0.84786 1.54186   4
  -3  -5  12 0.34320 1.64938   2
   3   5 -12 5.08189 2.28712   1
   3   5 -12 -1.3693 1.13121   4
   2  -5 -12 1.00144 1.53771   4
  -2  -5  12 1.45209 1.71051   2
   2   5 -12 -0.6471 1.76206   4
   2   5 -12 3.83508 1.86982   1
   1  -5 -12 14.3117 3.05420   4
  -1  -5  12 17.4453 3.16211   2
   1   5 -12 15.1554 3.40193   1
   1   5 -12 14.7746 3.18037   4
   0  -5 -12 7.48380 2.34978   4
   0  -5  12 6.85681 2.44311   2
   0   5 -12 3.28665 2.09296   4
   0   5 -12 1.76648 2.00092   1
   1  -5  12 2.06469 1.49796   2
  -1  -5 -12 4.15922 2.28438   4
  -1  -5 -12 3.64162 1.54614   2
  -1   5 -12 3.16397 2.06204   4
   1   5  12 6.78268 2.19324   2
   2  -5  12 12.3126 3.18541   2
  -2  -5 -12 13.9317 3.05499   2
  -2  -5 -12 17.0561 3.43507   4
  -2   5 -12 13.3264 3.40601   4
   2   5  12 20.7619 3.47607   2
  -3  -5 -12 3.68922 2.17760   2
  -3  -5 -12 2.21023 1.65142   4
   3  -5  12 -0.2532 1.84456   2
  -3   5 -12 -0.6833 1.55258   4
  -4  -6  12 3.14479 1.95858   2
   4  -6 -12 2.60484 2.15715   4
   4   6 -12 2.77291 2.17225   4
   4   6 -12 3.15591 2.07405   1
  -3  -6  12 -0.4356 1.57509   2
   3  -6 -12 -0.6303 1.93274   4
   3   6 -12 1.39445 1.59230   4
   3   6 -12 0.51637 1.80572   1
   2  -6 -12 2.02929 2.27157   4
  -2  -6  12 5.32961 2.14972   2
   2   6 -12 6.46125 2.30780   1
   2   6 -12 9.15340 2.99155   4
   1  -6 -12 3.91085 2.30605   4
  -1  -6  12 2.82494 1.58401   2
   1   6 -12 0.36763 1.55974   4
   1   6 -12 1.17427 2.33381   1
   0  -6 -12 0.42282 1.44025   4
   0  -6  12 -0.2384 1.66941   2
   0   6 -12 1.15094 1.70705   4
   0   6 -12 -1.2148 1.59101   1
   1  -6  12 6.38372 2.21978   2
  -1  -6 -12 8.03046 2.75491   4
  -1   6 -12 10.0457 2.80164   4
   2  -6  12 4.39826 2.17301   2
  -2  -6 -12 5.44807 2.26059   2
  -2  -6 -12 1.61213 1.54764   4
  -2   6 -12 2.33977 2.50841   4
  -3  -6 -12 0.01593 1.76086   2
  -3  -6 -12 0.33525 1.45785   4
  -4  -7  12 1.88248 1.76419   2
   4   7 -12 0.54747 1.48872   1
   4   7 -12 0.57851 1.94159   4
   3  -7 -12 3.03860 1.86082   4
  -3  -7  12 1.98372 1.81843   2
   3   7 -12 -0.3705 1.28934   4
   3   7 -12 1.70971 2.25905   1
  -2  -7  12 6.45269 2.52565   2
   2  -7 -12 5.19327 1.96085   4
   2   7 -12 4.60849 2.23379   1
   2   7 -12 0.76561 2.27713   4
   1  -7 -12 -1.4258 1.75895   4
  -1  -7  12 1.00803 1.48008   2
   1   7 -12 -2.5212 1.15307   4
   1   7 -12 -0.8259 2.24704   1
   0  -7 -12 -1.2649 1.79015   4
   0  -7  12 3.12501 2.12073   2
   0   7 -12 -0.3214 1.65816   1
   0   7 -12 2.20403 1.93870   4
  -1  -7 -12 2.25122 2.09235   4
   1  -7  12 1.08530 1.54241   2
  -1   7 -12 0.19000 2.55565   1
  -1   7 -12 3.05330 1.96326   4
  -2  -7 -12 8.42148 2.41682   4
   2  -8 -12 0.12385 1.49889   4
  -2  -8  12 1.39251 1.89384   2
   2   8 -12 -1.3840 1.84498   4
   2   8 -12 0.20308 1.74333   1
   1  -8 -12 13.5775 3.00175   4
  -1  -8  12 11.5242 3.02278   2
   1   8 -12 13.6947 3.66124   4
   1   8 -12 8.83796 3.38183   1
   0  -8 -12 0.53110 1.92653   4
   0  -8  12 7.92367 2.79698   2
   0   8 -12 3.34730 2.44424   4
   0   8 -12 1.86793 1.98733   1
   3   0 -13 -1.1559 1.84712   4
   2   0 -13 1.02496 1.60639   4
  -1   0  13 -0.2893 1.56259   2
   1   0 -13 -0.0007 1.56426   4
   0   0 -13 2.43634 1.99357   2
   0   0  13 7.51890 2.39633   2
   0   0 -13 2.81321 2.16739   4
   1   0  13 1.86246 1.38143   2
  -1   0 -13 -1.0164 1.08771   2
  -1   0 -13 -1.9677 1.85464   4
  -2   0 -13 4.63688 2.42330   2
   3  -1 -13 -1.0961 2.15520   4
   3   1 -13 3.71116 3.25021   1
   3   1 -13 -1.9286 1.21589   4
   2  -1 -13 -0.0962 2.10633   4
   2   1 -13 -0.7694 2.09160   4
   1  -1 -13 -3.1922 1.81416   4
  -1  -1  13 3.14396 1.91352   2
   1   1 -13 -3.1313 1.78208   4
   0  -1 -13 4.17265 2.22923   2
   0  -1  13 2.14631 1.78643   2
   0  -1 -13 -0.9432 2.06090   4
   0   1  13 1.81208 1.81500   2
   0   1 -13 -0.0979 2.22995   4
  -1  -1 -13 -0.2885 1.49101   4
   1  -1  13 0.63871 1.73751   2
  -1  -1 -13 1.07186 2.04029   2
   1   1  13 3.40944 2.10120   2
  -1   1 -13 -1.7077 1.49021   4
  -1   1 -13 0.20207 1.83668   2
   3  -2 -13 2.08127 2.07716   4
   3   2 -13 6.08741 2.46863   1
   3   2 -13 7.83996 3.05156   4
   2  -2 -13 -0.2951 1.56737   4
  -2  -2  13 2.59635 1.99866   2
   2   2 -13 0.09211 2.00974   4
  -1  -2  13 -0.3510 1.63032   2
   1  -2 -13 -2.0079 1.20496   4
   1   2 -13 -1.9373 1.84766   4
   0  -2  13 1.27071 1.86153   2
   0  -2 -13 1.06601 1.64093   4
   0   2 -13 -1.4548 2.13901   4
   0   2  13 0.70008 1.90023   2
  -1  -2 -13 1.57873 2.28740   4
   1  -2  13 1.60420 1.88798   2
  -1  -2 -13 4.81474 2.24731   2
   1   2  13 4.00287 2.24792   2
  -1   2 -13 -2.0543 2.21805   4
   3   3 -13 11.8809 3.04272   1
  -2  -3  13 -0.4742 1.55439   2
   2  -3 -13 4.16144 2.89617   4
   2   3 -13 -1.0483 1.61757   4
   1  -3 -13 -3.2452 1.89916   4
  -1  -3  13 0.64272 1.79680   2
   1   3 -13 -1.5786 1.32575   4
   0  -3  13 -0.7412 1.67529   2
   0  -3 -13 -0.2198 2.15124   4
   0   3 -13 -0.7566 1.87164   4
  -1  -3 -13 2.07111 1.84069   4
   1  -3  13 0.12757 1.26293   2
  -1  -3 -13 1.82713 1.66823   2
   1   3  13 -0.2427 1.45843   2
  -2  -4  13 -0.9847 1.51865   2
   2   4 -13 0.53369 1.52436   1
  -1  -4  13 0.13330 1.29879   2
   1  -4 -13 1.52881 2.02689   4
   0  -4  13 0.85064 1.92838   2
   0  -4 -13 4.34585 2.21904   4
   0   0   0    0.00    0.00   0
 _exptl_absorpt_process_details 'SADABS 2014/5'
 _exptl_absorpt_correction_type   multi-scan
 _exptl_absorpt_correction_T_max  0.8749
 _exptl_absorpt_correction_T_min  0.8038
 _exptl_special_details
)
 The following wavelength and cell were deduced by SADABS from the
 direction cosines etc. They are given here for emergency use only:
 CELL 0.71077    9.096   13.640    9.511   89.962   94.870   89.954
)
;
_shelx_hkl_checksum              22940
_shelx_res_file
;
    mo_al18_0m.res created by SHELXL-2014/7
TITL mo_al18_0m in P2(1)/c (RT)
CELL  0.71073    9.4893   13.5903    9.0554    90.000    94.896    90.000
ZERR  4           0.0013    0.0019    0.0012     0.000     0.002     0.000
LATT   1
SYMM             - X ,    0.50000 + Y ,    0.50000 - Z
SFAC C H N O S
UNIT 40 52 12 8 4
TEMP -173.150
SIZE 0.179 0.265 0.41
L.S. 10
BOND $H
FMAP 2 1 60
PLAN 20
ACTA
CONF
WGHT    0.049200    0.445600
FVAR       0.51858
S1    5   -0.179209    0.600095   -0.563273    11.00000    0.04688    0.04601 =
         0.03183   -0.00491   -0.00814    0.00772
O1    4    0.392883    0.614701    0.461524    11.00000    0.04486    0.05448 =
         0.03082   -0.00842   -0.00317    0.01036
O2    4    0.515719    0.514744    0.255479    11.00000    0.04287    0.07676 =
         0.03995   -0.01456   -0.01010    0.02631
N1    3    0.016100    0.613034   -0.164552    11.00000    0.03839    0.03776 =
         0.03103   -0.00035   -0.00518   -0.00143
N2    3   -0.027648    0.587457   -0.308888    11.00000    0.04312    0.04016 =
         0.03249   -0.00372   -0.00810    0.00748
N3    3   -0.194218    0.708854   -0.320640    11.00000    0.04042    0.04647 =
         0.03701   -0.00974   -0.00712    0.00708
C1    1    0.119970    0.634903    0.147325    11.00000    0.03081    0.04065 =
         0.04084    0.00257    0.00145    0.00456
AFIX  43
H1A   2    0.029470    0.662934    0.121689    11.00000   -1.20000
AFIX   0
C2    1    0.184980    0.648412    0.288693    11.00000    0.03726    0.04173 =
         0.03567   -0.00271    0.00640    0.00566
AFIX  43
H2A   2    0.139114    0.685400    0.359632    11.00000   -1.20000
AFIX   0
C3    1    0.317350    0.607745    0.326410    11.00000    0.03497    0.03604 =
         0.02887   -0.00094    0.00040    0.00104
C4    1    0.384620    0.553895    0.221677    11.00000    0.03139    0.03952 =
         0.03405   -0.00129   -0.00076    0.00627
C5    1    0.318404    0.539948    0.081883    11.00000    0.03733    0.03808 =
         0.03186   -0.00396    0.00046    0.00468
AFIX  43
H5A   2    0.363616    0.502090    0.011432    11.00000   -1.20000
AFIX   0
C6    1    0.185653    0.580843    0.042722    11.00000    0.03277    0.03245 =
         0.03240    0.00235   -0.00209   -0.00192
C7    1    0.123698    0.565691   -0.108454    11.00000    0.03881    0.03584 =
         0.03488   -0.00117   -0.00320    0.00137
AFIX  43
H7A   2    0.165537    0.518213   -0.168119    11.00000   -1.20000
AFIX   0
C8    1   -0.133342    0.635333   -0.386443    11.00000    0.03235    0.03372 =
         0.03325    0.00111   -0.00244   -0.00286
C9    1   -0.304028    0.770171   -0.393468    11.00000    0.05904    0.07118 =
         0.06895   -0.02478   -0.02152    0.03155
AFIX 137
H9A   2   -0.353437    0.805267   -0.318662    11.00000   -1.50000
H9B   2   -0.371490    0.728870   -0.453436    11.00000   -1.50000
H9C   2   -0.261456    0.817863   -0.457582    11.00000   -1.50000
AFIX   0
C10   1    0.331540    0.669861    0.574084    11.00000    0.06485    0.04988 =
         0.03450   -0.00751    0.00414    0.00861
AFIX 137
H10A  2    0.393523    0.666736    0.666242    11.00000   -1.50000
H10B  2    0.238901    0.642110    0.590739    11.00000   -1.50000
H10C  2    0.320117    0.738575    0.542484    11.00000   -1.50000
AFIX   0
H1N2  2    0.013314    0.539975   -0.351888    11.00000    0.04567
H1N3  2   -0.162404    0.725088   -0.233836    11.00000    0.05117
H1O2  2    0.542411    0.528030    0.345066    11.00000    0.06943
HKLF 4 1  0.0000  0.0000 -1.0000  0.0000 -1.0000  0.0000 -1.0000  0.0000  0.0000
REM  mo_al18_0m in P2(1)/c (RT)
REM R1 =  0.0434 for    2573 Fo > 4sig(Fo)  and  0.0654 for all    3429 data
REM    159 parameters refined using      0 restraints
END
WGHT      0.0482      0.4491
REM Highest difference peak  0.332,  deepest hole -0.253,  1-sigma level  0.052
Q1    1   0.3472  0.5772  0.2744  11.00000  0.05    0.33
Q2    1   0.1533  0.5825 -0.0304  11.00000  0.05    0.30
Q3    1   0.1565  0.6028  0.0844  11.00000  0.05    0.30
Q4    1   0.1469  0.6211  0.2254  11.00000  0.05    0.28
Q5    1   0.3293  0.5334  0.1634  11.00000  0.05    0.26
Q6    1  -0.1382  0.6080 -0.4586  11.00000  0.05    0.26
Q7    1  -0.1620  0.6419 -0.4902  11.00000  0.05    0.24
Q8    1   0.3326  0.6077  0.3766  11.00000  0.05    0.23
Q9    1  -0.1941  0.5596 -0.4937  11.00000  0.05    0.23
Q10   1  -0.3202  0.8242 -0.3353  11.00000  0.05    0.21
Q11   1   0.3616  0.6376  0.3921  11.00000  0.05    0.20
Q12   1   0.2649  0.6360  0.2956  11.00000  0.05    0.20
Q13   1   0.4569  0.4744  0.2830  11.00000  0.05    0.19
Q14   1  -0.0127  0.6468 -0.1041  11.00000  0.05    0.19
Q15   1   0.0394  0.5673 -0.1223  11.00000  0.05    0.19
Q16   1   0.2313  0.5454  0.0850  11.00000  0.05    0.19
Q17   1  -0.1843  0.6592 -0.3418  11.00000  0.05    0.19
Q18   1  -0.3431  0.7330 -0.3390  11.00000  0.05    0.19
Q19   1   0.2967  0.6550  0.2889  11.00000  0.05    0.19
Q20   1   0.0039  0.6038 -0.2355  11.00000  0.05    0.19
;
_shelx_res_checksum              78557
loop_
_space_group_symop_operation_xyz
'x, y, z'
'-x, y+1/2, -z+1/2'
'-x, -y, -z'
'x, -y-1/2, z-1/2'
loop_
_atom_site_type_symbol
_atom_site_label
_atom_site_fract_x
_atom_site_fract_y
_atom_site_fract_z
_atom_site_U_iso_or_equiv
_atom_site_adp_type
_atom_site_calc_flag
_atom_site_occupancy
S S1 -0.17921(5) 0.60009(3) -0.56327(4) 0.04224(14) Uani d 1
O O1 0.39288(13) 0.61470(9) 0.46152(13) 0.0438(3) Uani d 1
O O2 0.51572(14) 0.51474(12) 0.25548(15) 0.0540(4) Uani d 1
N N1 0.01610(15) 0.61303(10) -0.16455(14) 0.0362(3) Uani d 1
N N2 -0.02765(16) 0.58746(11) -0.30889(16) 0.0392(3) Uani d 1
N N3 -0.19422(16) 0.70885(11) -0.32064(17) 0.0419(3) Uani d 1
C C1 0.11997(17) 0.63490(12) 0.14732(18) 0.0375(3) Uani d 1
H H1A 0.0295 0.6629 0.1217 0.045 Uiso calc 1
C C2 0.18498(18) 0.64841(12) 0.28869(18) 0.0380(4) Uani d 1
H H2A 0.1391 0.6854 0.3596 0.046 Uiso calc 1
C C3 0.31735(17) 0.60775(11) 0.32641(16) 0.0334(3) Uani d 1
C C4 0.38462(17) 0.55389(12) 0.22168(17) 0.0352(3) Uani d 1
C C5 0.31840(17) 0.53995(12) 0.08188(17) 0.0359(3) Uani d 1
H H5A 0.3636 0.5021 0.0114 0.043 Uiso calc 1
C C6 0.18565(16) 0.58084(11) 0.04272(17) 0.0328(3) Uani d 1
C C7 0.12370(18) 0.56569(12) -0.10845(18) 0.0369(3) Uani d 1
H H7A 0.1655 0.5182 -0.1681 0.044 Uiso calc 1
C C8 -0.13334(16) 0.63533(11) -0.38644(17) 0.0334(3) Uani d 1
C C9 -0.3040(2) 0.77017(18) -0.3935(3) 0.0679(7) Uani d 1
H H9A -0.3534 0.8053 -0.3187 0.102 Uiso calc 1
H H9B -0.3715 0.7289 -0.4534 0.102 Uiso calc 1
H H9C -0.2615 0.8179 -0.4576 0.102 Uiso calc 1
C C10 0.3315(2) 0.66986(15) 0.57408(19) 0.0497(5) Uani d 1
H H10A 0.3935 0.6667 0.6662 0.075 Uiso calc 1
H H10B 0.2389 0.6421 0.5907 0.075 Uiso calc 1
H H10C 0.3201 0.7386 0.5425 0.075 Uiso calc 1
H H1N2 0.013(2) 0.5400(15) -0.352(2) 0.046(5) Uiso d 1
H H1N3 -0.162(2) 0.7251(16) -0.234(2) 0.051(6) Uiso d 1
H H1O2 0.542(3) 0.5280(18) 0.345(3) 0.069(7) Uiso d 1
loop_
_atom_site_aniso_label
_atom_site_aniso_U_11
_atom_site_aniso_U_22
_atom_site_aniso_U_33
_atom_site_aniso_U_12
_atom_site_aniso_U_13
_atom_site_aniso_U_23
S1 0.0469(3) 0.0460(2) 0.0318(2) 0.00772(18) -0.00814(17) -0.00491(16)
O1 0.0449(7) 0.0545(7) 0.0308(6) 0.0104(6) -0.0032(5) -0.0084(5)
O2 0.0429(7) 0.0768(10) 0.0400(7) 0.0263(7) -0.0101(6) -0.0146(6)
N1 0.0384(7) 0.0378(7) 0.0310(6) -0.0014(5) -0.0052(5) -0.0004(5)
N2 0.0431(8) 0.0402(7) 0.0325(7) 0.0075(6) -0.0081(6) -0.0037(6)
N3 0.0404(8) 0.0465(8) 0.0370(7) 0.0071(6) -0.0071(6) -0.0097(6)
C1 0.0308(8) 0.0407(8) 0.0408(8) 0.0046(6) 0.0014(6) 0.0026(7)
C2 0.0373(8) 0.0417(8) 0.0357(8) 0.0057(7) 0.0064(6) -0.0027(6)
C3 0.0350(8) 0.0360(8) 0.0289(7) 0.0010(6) 0.0004(6) -0.0009(6)
C4 0.0314(8) 0.0395(8) 0.0340(8) 0.0063(6) -0.0008(6) -0.0013(6)
C5 0.0373(8) 0.0381(8) 0.0319(7) 0.0047(6) 0.0005(6) -0.0040(6)
C6 0.0328(8) 0.0324(7) 0.0324(7) -0.0019(6) -0.0021(6) 0.0023(6)
C7 0.0388(8) 0.0358(8) 0.0349(8) 0.0014(6) -0.0032(6) -0.0012(6)
C8 0.0323(8) 0.0337(7) 0.0333(7) -0.0029(6) -0.0024(6) 0.0011(6)
C9 0.0590(13) 0.0712(14) 0.0689(14) 0.0316(11) -0.0215(11) -0.0248(11)
C10 0.0649(12) 0.0499(10) 0.0345(8) 0.0086(9) 0.0041(8) -0.0075(7)
loop_
_atom_type_symbol
_atom_type_description
_atom_type_scat_dispersion_real
_atom_type_scat_dispersion_imag
_atom_type_scat_source
C C 0.0033 0.0016 'International Tables Vol C Tables 4.2.6.8 and 6.1.1.4'
H H 0.0000 0.0000 'International Tables Vol C Tables 4.2.6.8 and 6.1.1.4'
N N 0.0061 0.0033 'International Tables Vol C Tables 4.2.6.8 and 6.1.1.4'
O O 0.0106 0.0060 'International Tables Vol C Tables 4.2.6.8 and 6.1.1.4'
S S 0.1246 0.1234 'International Tables Vol C Tables 4.2.6.8 and 6.1.1.4'
loop_
_geom_angle_atom_site_label_1
_geom_angle_atom_site_label_2
_geom_angle_atom_site_label_3
_geom_angle
C3 O1 C10 117.40(13)
C4 O2 H1O2 108.9(17)
C7 N1 N2 114.56(14)
C8 N2 N1 121.58(14)
C8 N2 H1N2 118.1(13)
N1 N2 H1N2 120.3(13)
C8 N3 C9 123.71(15)
C8 N3 H1N3 118.7(14)
C9 N3 H1N3 117.3(14)
C2 C1 C6 120.69(15)
C2 C1 H1A 119.7
C6 C1 H1A 119.7
C1 C2 C3 119.80(15)
C1 C2 H2A 120.1
C3 C2 H2A 120.1
O1 C3 C2 125.93(14)
O1 C3 C4 114.16(14)
C2 C3 C4 119.91(14)
O2 C4 C5 119.24(14)
O2 C4 C3 120.91(14)
C5 C4 C3 119.85(14)
C4 C5 C6 120.67(14)
C4 C5 H5A 119.7
C6 C5 H5A 119.7
C1 C6 C5 119.07(14)
C1 C6 C7 123.17(14)
C5 C6 C7 117.75(14)
N1 C7 C6 123.22(15)
N1 C7 H7A 118.4
C6 C7 H7A 118.4
N3 C8 N2 117.80(14)
N3 C8 S1 123.62(12)
N2 C8 S1 118.57(13)
N3 C9 H9A 109.5
N3 C9 H9B 109.5
H9A C9 H9B 109.5
N3 C9 H9C 109.5
H9A C9 H9C 109.5
H9B C9 H9C 109.5
O1 C10 H10A 109.5
O1 C10 H10B 109.5
H10A C10 H10B 109.5
O1 C10 H10C 109.5
H10A C10 H10C 109.5
H10B C10 H10C 109.5
loop_
_geom_bond_atom_site_label_1
_geom_bond_atom_site_label_2
_geom_bond_distance
S1 C8 1.6923(16)
O1 C3 1.3675(18)
O1 C10 1.429(2)
O2 C4 1.3636(19)
O2 H1O2 0.85(2)
N1 C7 1.275(2)
N1 N2 1.3816(18)
N2 C8 1.342(2)
N2 H1N2 0.86(2)
N3 C8 1.321(2)
N3 C9 1.448(2)
N3 H1N3 0.85(2)
C1 C2 1.385(2)
C1 C6 1.388(2)
C1 H1A 0.9500
C2 C3 1.388(2)
C2 H2A 0.9500
C3 C4 1.395(2)
C4 C5 1.377(2)
C5 C6 1.395(2)
C5 H5A 0.9500
C6 C7 1.458(2)
C7 H7A 0.9500
C9 H9A 0.9800
C9 H9B 0.9800
C9 H9C 0.9800
C10 H10A 0.9800
C10 H10B 0.9800
C10 H10C 0.9800
loop_
_geom_hbond_atom_site_label_D
_geom_hbond_atom_site_label_H
_geom_hbond_atom_site_label_A
_geom_hbond_site_symmetry_A
_geom_hbond_distance_DH
_geom_hbond_distance_HA
_geom_hbond_distance_DA
_geom_hbond_angle_DHA
O2 H1O2 O1 . 0.85(3) 2.18(3) 2.6564(19) 115(2)
N3 H1N3 N1 . 0.847(19) 2.32(2) 2.682(2) 106.1(16)
N2 H1N2 S1 3_564 0.86(2) 2.63(2) 3.4753(16) 167.8(16)
N3 H1N3 S1 4_576 0.847(19) 2.85(2) 3.4839(16) 133.5(17)
loop_
_geom_torsion_atom_site_label_1
_geom_torsion_atom_site_label_2
_geom_torsion_atom_site_label_3
_geom_torsion_atom_site_label_4
_geom_torsion
C7 N1 N2 C8 -175.40(16)
C6 C1 C2 C3 0.1(3)
C10 O1 C3 C2 -0.9(2)
C10 O1 C3 C4 179.23(15)
C1 C2 C3 O1 -179.53(15)
C1 C2 C3 C4 0.3(3)
O1 C3 C4 O2 -1.3(2)
C2 C3 C4 O2 178.84(16)
O1 C3 C4 C5 178.83(15)
C2 C3 C4 C5 -1.0(2)
O2 C4 C5 C6 -178.58(15)
C3 C4 C5 C6 1.3(3)
C2 C1 C6 C5 0.1(2)
C2 C1 C6 C7 -178.82(15)
C4 C5 C6 C1 -0.8(2)
C4 C5 C6 C7 178.14(15)
N2 N1 C7 C6 -179.36(15)
C1 C6 C7 N1 11.6(3)
C5 C6 C7 N1 -167.35(16)
C9 N3 C8 N2 176.56(19)
C9 N3 C8 S1 -2.2(3)
N1 N2 C8 N3 0.5(2)
N1 N2 C8 S1 179.36(12)

_cod_database_fobs_code 1544395
