#------------------------------------------------------------------------------
#$Date: 2016-12-14 04:45:57 +0200 (Wed, 14 Dec 2016) $
#$Revision: 189107 $
#$URL: file:///home/coder/svn-repositories/cod/cif/1/54/47/1544778.cif $
#------------------------------------------------------------------------------
#
# This file is available in the Crystallography Open Database (COD),
# http://www.crystallography.net/. The original data for this entry
# were provided by IUCr Journals, http://journals.iucr.org/.
#
# The file may be used within the scientific community so long as
# proper attribution is given to the journal article from which the
# data were obtained.
#
data_1544778
loop_
_publ_author_name
'Mague, Joel T.'
'Mohamed, Shaaban K.'
'Akkurt, Mehmet'
'El-Kashef, Hussein'
'Lebegue, Nicolas'
'Albayati, Mustafa R.'
_publ_section_title
;
 (5<i>Z</i>)-3-(2-Oxopropyl)-5-(3,4,5-trimethoxybenzylidene)-1,3-thiazolidine-2,4-dione
;
_journal_coeditor_code           HG4018
_journal_issue                   12
_journal_name_full               IUCrData
_journal_page_first              x161959
_journal_paper_doi               10.1107/S2414314616019593
_journal_volume                  1
_journal_year                    2016
_chemical_formula_iupac          'C16 H17 N O6 S'
_chemical_formula_moiety         'C16 H17 N O6 S'
_chemical_formula_sum            'C16 H17 N O6 S'
_chemical_formula_weight         351.36
_chemical_name_systematic
(5<i>Z</i>)-3-(2-Oxopropyl)-5-(3,4,5-trimethoxybenzylidene)-1,3-thiazolidine-2,4-dione
_space_group_crystal_system      triclinic
_space_group_IT_number           2
_space_group_name_Hall           '-P 1'
_space_group_name_H-M_alt        'P -1'
_symmetry_space_group_name_Hall  '-P 1'
_symmetry_space_group_name_H-M   'P -1'
_atom_sites_solution_hydrogens   difmap
_atom_sites_solution_primary     direct
_atom_sites_solution_secondary   difmap
_audit_creation_method           SHELXL-2014/7
_cell_angle_alpha                78.7780(10)
_cell_angle_beta                 75.6160(10)
_cell_angle_gamma                72.8290(10)
_cell_formula_units_Z            2
_cell_length_a                   7.2771(5)
_cell_length_b                   9.9612(7)
_cell_length_c                   11.9257(8)
_cell_measurement_reflns_used    9211
_cell_measurement_temperature    100(2)
_cell_measurement_theta_max      29.2614
_cell_measurement_theta_min      2.6110
_cell_volume                     793.16(9)
_computing_cell_refinement
;
<i>SAINT</i> (Bruker, 2016)
;
_computing_data_collection
;
<i>APEX3</i> (Bruker, 2016)
;
_computing_data_reduction
;
<i>SAINT</i> (Bruker, 2016)
;
_computing_molecular_graphics
;
<i>DIAMOND</i> (Brandenburg & Putz, 2012)
;
_computing_publication_material
;
<i>SHELXTL</i> (Sheldrick, 2008)
;
_computing_structure_refinement
;
<i>SHELXL2014</i> (Sheldrick, 2015<i>b</i>)
;
_computing_structure_solution
;
<i>SHELXT</i> (Sheldrick, 2015<i>a</i>)
;
_diffrn_ambient_temperature      100(2)
_diffrn_detector_area_resol_mean 8.3333
_diffrn_measured_fraction_theta_full 0.992
_diffrn_measured_fraction_theta_max 0.978
_diffrn_measurement_device_type  'Bruker SMART APEX CCD'
_diffrn_measurement_method       '\f and \w scans'
_diffrn_radiation_monochromator  graphite
_diffrn_radiation_type           MoK\a
_diffrn_radiation_wavelength     0.71073
_diffrn_reflns_av_R_equivalents  0.0256
_diffrn_reflns_limit_h_max       9
_diffrn_reflns_limit_h_min       -10
_diffrn_reflns_limit_k_max       13
_diffrn_reflns_limit_k_min       -13
_diffrn_reflns_limit_l_max       16
_diffrn_reflns_limit_l_min       -16
_diffrn_reflns_number            15337
_diffrn_reflns_theta_full        28.500
_diffrn_reflns_theta_max         29.280
_diffrn_reflns_theta_min         1.778
_exptl_absorpt_coefficient_mu    0.237
_exptl_absorpt_correction_T_max  0.95
_exptl_absorpt_correction_T_min  0.88
_exptl_absorpt_correction_type   multi-scan
_exptl_absorpt_process_details
;
(<i>SADABS</i>; Bruker, 2016)
;
_exptl_crystal_colour            colourless
_exptl_crystal_density_diffrn    1.471
_exptl_crystal_density_method    'not measured'
_exptl_crystal_description       block
_exptl_crystal_F_000             368
_exptl_crystal_size_max          0.330
_exptl_crystal_size_mid          0.220
_exptl_crystal_size_min          0.210
_refine_diff_density_max         0.526
_refine_diff_density_min         -0.237
_refine_ls_extinction_method     none
_refine_ls_goodness_of_fit_ref   1.124
_refine_ls_hydrogen_treatment    refall
_refine_ls_matrix_type           full
_refine_ls_number_parameters     285
_refine_ls_number_reflns         4235
_refine_ls_number_restraints     0
_refine_ls_restrained_S_all      1.124
_refine_ls_R_factor_all          0.0416
_refine_ls_R_factor_gt           0.0371
_refine_ls_shift/su_max          0.000
_refine_ls_shift/su_mean         0.000
_refine_ls_structure_factor_coef Fsqd
_refine_ls_weighting_details
'w=1/[\s^2^(Fo^2^)+(0.0762P)^2^+0.0197P] where P=(Fo^2^+2Fc^2^)/3'
_refine_ls_weighting_scheme      calc
_refine_ls_wR_factor_gt          0.1085
_refine_ls_wR_factor_ref         0.1110
_reflns_number_gt                3660
_reflns_number_total             4235
_reflns_threshold_expression     'I > 2\s(I)'
_cod_data_source_file            hg4018sup1.cif
_cod_data_source_block           I
_cod_database_code               1544778
_shelx_space_group_comment
;
The symmetry employed for this shelxl refinement is uniquely defined
by the following loop, which should always be used as a source of
symmetry information in preference to the above space-group names.
They are only intended as comments.
;
_shelx_estimated_absorpt_t_min   0.926
_shelx_estimated_absorpt_t_max   0.952
_shelx_hkl_file
;
  -1   0   0    8.17    0.26
  -1   0   0    7.74    0.26
   1   0   0    8.05    0.26
   1   0   0    8.39    0.26
  -2   0   0    0.10    0.02
  -2   0   0    0.15    0.02
   2   0   0    0.08    0.01
   2   0   0    0.10    0.02
  -3   0   0    1.08    0.06
  -3   0   0    1.20    0.06
  -3   0   0    1.11    0.06
   3   0   0    1.14    0.05
   3   0   0    1.14    0.07
  -4   0   0   32.96    1.12
  -4   0   0   36.87    1.11
  -4   0   0   34.93    1.11
   4   0   0   33.35    1.10
   4   0   0   32.82    1.12
  -5   0   0    1.90    0.11
  -5   0   0    1.99    0.11
   5   0   0    1.97    0.11
   5   0   0    1.82    0.09
  -6   0   0   36.56    1.22
  -6   0   0   34.59    1.21
   6   0   0   37.62    1.20
   6   0   0   38.34    1.22
  -7   0   0    1.32    0.13
  -7   0   0    1.29    0.13
   7   0   0    1.45    0.13
   7   0   0    1.36    0.10
  -8   0   0   -0.02    0.09
  -8   0   0   -0.01    0.09
  -8   0   0   -0.02    0.11
   8   0   0    0.02    0.06
   8   0   0   -0.01    0.10
  -9   0   0    0.51    0.15
   9   0   0    0.33    0.08
   8  -1   0   -0.01    0.07
  -8   1   0   -0.05    0.09
   7  -1   0    2.61    0.17
   7  -1   0    2.30    0.13
  -7   1   0    2.17    0.17
  -7   1   0    2.53    0.17
   6  -1   0    1.74    0.12
   6  -1   0    1.41    0.10
  -6   1   0    1.47    0.12
  -6   1   0    1.65    0.12
   5  -1   0    9.03    0.33
   5  -1   0    8.75    0.32
  -5   1   0    8.96    0.34
  -5   1   0    9.42    0.33
   4  -1   0   21.81    0.70
   4  -1   0   21.53    0.69
   4  -1   0   20.54    0.70
  -4   1   0   20.71    0.69
  -4   1   0   21.61    0.68
  -4   1   0   20.43    0.70
  -4   1   0   20.40    0.70
   3  -1   0   32.89    1.08
   3  -1   0   34.39    1.08
   3  -1   0   31.78    1.08
  -3   1   0   34.16    1.08
  -3   1   0   34.69    1.07
  -3   1   0   33.63    1.08
  -3   1   0   32.44    1.09
   2  -1   0   10.12    0.33
   2  -1   0    9.70    0.33
   2  -1   0    9.78    0.33
  -2   1   0   10.18    0.33
  -2   1   0    9.82    0.33
  -2   1   0   10.23    0.33
  -2   1   0    9.97    0.33
   1  -1   0    1.72    0.06
   1  -1   0    1.69    0.06
   1  -1   0    1.67    0.07
  -1   1   0    1.80    0.07
  -1   1   0    1.68    0.07
  -1   1   0    1.62    0.06
  -1   1   0    1.76    0.06
   0  -1   0   42.89    1.35
   0  -1   0   41.36    1.35
   0   1   0   44.36    1.35
   0   1   0   41.36    1.35
  -1  -1   0   80.93    2.64
  -1  -1   0   80.45    2.64
  -1  -1   0   85.61    2.64
   1   1   0   83.14    2.64
   1   1   0   81.88    2.64
   1   1   0   85.29    2.64
  -2  -1   0   44.12    1.40
  -2  -1   0   44.34    1.40
   2   1   0   43.02    1.39
   2   1   0   43.55    1.40
  -3  -1   0   40.88    1.36
  -3  -1   0   41.66    1.36
   3   1   0   44.59    1.35
   3   1   0   42.12    1.37
  -4  -1   0    1.38    0.08
  -4  -1   0    1.30    0.07
  -4  -1   0    1.41    0.08
   4   1   0    1.45    0.09
   4   1   0    1.38    0.07
  -5  -1   0    0.05    0.04
  -5  -1   0    0.04    0.04
   5   1   0    0.05    0.03
   5   1   0    0.02    0.05
  -6  -1   0   12.89    0.46
  -6  -1   0   13.31    0.46
   6   1   0   12.27    0.44
   6   1   0   13.19    0.47
  -7  -1   0    9.13    0.36
  -7  -1   0    8.83    0.35
   7   1   0    9.74    0.37
   7   1   0    9.38    0.33
  -8  -1   0    0.00    0.08
  -8  -1   0    0.01    0.11
  -8  -1   0    0.00    0.08
   8   1   0    0.03    0.06
   8   1   0    0.01    0.10
  -9  -1   0    0.29    0.15
  -9  -1   0    0.35    0.12
  -9  -1   0    0.27    0.13
   9   1   0    0.35    0.08
   9   1   0    0.32    0.14
   8  -2   0    0.18    0.09
  -8   2   0    0.13    0.11
   7  -2   0   19.34    0.68
  -7   2   0   20.97    0.72
   6  -2   0    1.46    0.11
   6  -2   0    1.60    0.12
  -6   2   0    1.51    0.12
  -6   2   0    1.40    0.13
   5  -2   0    8.97    0.33
   5  -2   0    9.00    0.32
  -5   2   0    8.89    0.34
  -5   2   0    9.21    0.34
   4  -2   0    0.02    0.04
   4  -2   0    0.01    0.03
   4  -2   0    0.08    0.07
  -4   2   0    0.02    0.04
  -4   2   0    0.01    0.04
  -4   2   0    0.01    0.03
  -4   2   0    0.01    0.04
   3  -2   0   21.82    0.73
   3  -2   0   22.15    0.73
   3  -2   0   21.68    0.74
  -3   2   0   22.46    0.73
  -3   2   0   23.07    0.74
  -3   2   0   22.46    0.73
  -3   2   0   22.53    0.74
   2  -2   0    0.14    0.03
   2  -2   0    0.00    0.02
   2  -2   0    0.01    0.02
  -2   2   0    0.00    0.02
  -2   2   0    0.01    0.02
  -2   2   0    0.01    0.02
  -2   2   0    0.01    0.02
   1  -2   0  156.57    4.99
   1  -2   0  160.73    4.99
   1  -2   0  157.06    4.97
  -1   2   0  159.25    4.97
  -1   2   0  146.75    4.97
  -1   2   0  158.52    4.98
   0  -2   0  248.61    7.87
   0   2   0  245.74    7.86
   0   2   0  245.11    7.88
   0   2   0  249.45    7.86
  -1  -2   0    3.65    0.12
  -1  -2   0    3.53    0.13
  -1  -2   0    3.47    0.12
  -1  -2   0    3.70    0.12
   1   2   0    3.71    0.12
   1   2   0    3.48    0.12
   1   2   0    3.68    0.12
  -2  -2   0    8.42    0.29
  -2  -2   0    8.38    0.29
  -2  -2   0    8.69    0.29
  -2  -2   0    8.94    0.30
   2   2   0    8.90    0.30
   2   2   0    8.99    0.29
   2   2   0    8.82    0.28
  -3  -2   0    4.08    0.15
  -3  -2   0    4.49    0.17
  -3  -2   0    4.19    0.16
   3   2   0    4.56    0.15
   3   2   0    4.56    0.15
   3   2   0    3.99    0.17
   3   2   0    4.47    0.15
  -4  -2   0    1.41    0.08
  -4  -2   0    1.46    0.07
   4   2   0    1.45    0.07
   4   2   0    1.30    0.06
   4   2   0    1.32    0.08
  -5  -2   0    5.89    0.23
  -5  -2   0    6.24    0.22
   5   2   0    5.94    0.21
   5   2   0    5.71    0.24
  -6  -2   0    3.49    0.16
  -6  -2   0    3.12    0.18
  -6  -2   0    3.47    0.17
   6   2   0    3.45    0.18
   6   2   0    3.43    0.14
  -7  -2   0    3.66    0.18
  -7  -2   0    3.74    0.19
  -7  -2   0    3.61    0.21
   7   2   0    3.51    0.20
   7   2   0    3.67    0.15
  -8  -2   0    0.87    0.12
  -8  -2   0    0.82    0.11
  -8  -2   0    0.90    0.14
   8   2   0    0.87    0.08
   8   2   0    1.00    0.14
  -9  -2   0    7.77    0.35
  -9  -2   0    7.37    0.37
  -9  -2   0    7.15    0.33
   9   2   0    6.94    0.27
   9   2   0    7.45    0.36
   8  -3   0    0.41    0.10
  -8   3   0    0.53    0.14
   7  -3   0   11.28    0.41
  -7   3   0   11.36    0.45
   6  -3   0    7.92    0.30
  -6   3   0    7.87    0.32
   5  -3   0    2.64    0.14
   5  -3   0    2.62    0.13
  -5   3   0    2.84    0.15
  -5   3   0    3.04    0.16
   4  -3   0   44.85    1.47
   4  -3   0   45.47    1.47
  -4   3   0   46.05    1.46
  -4   3   0   45.03    1.48
  -4   3   0   45.66    1.47
  -4   3   0   44.48    1.48
   3  -3   0    2.64    0.12
   3  -3   0    3.02    0.13
   3  -3   0    2.56    0.12
  -3   3   0    2.75    0.12
  -3   3   0    2.95    0.13
  -3   3   0    2.64    0.12
  -3   3   0    2.76    0.12
   2  -3   0    1.32    0.07
   2  -3   0    1.34    0.07
   2  -3   0    1.58    0.08
  -2   3   0    1.47    0.07
  -2   3   0    1.52    0.07
  -2   3   0    1.30    0.08
  -2   3   0    1.49    0.07
   1  -3   0    0.00    0.02
   1  -3   0    0.00    0.02
   1  -3   0    0.02    0.02
  -1   3   0    0.01    0.02
  -1   3   0    0.00    0.02
  -1   3   0    0.00    0.02
  -1   3   0    0.01    0.02
   0  -3   0   10.95    0.36
   0  -3   0   10.95    0.36
   0   3   0   10.69    0.37
   0   3   0   10.62    0.36
   0   3   0   11.64    0.36
  -1  -3   0    4.53    0.16
  -1  -3   0    4.53    0.16
  -1  -3   0    4.70    0.17
   1   3   0    4.61    0.15
   1   3   0    4.92    0.15
   1   3   0    4.69    0.15
   1   3   0    4.68    0.17
  -2  -3   0    9.31    0.30
  -2  -3   0    9.57    0.30
  -2  -3   0    8.79    0.30
  -2  -3   0    9.44    0.32
   2   3   0    9.03    0.30
   2   3   0    9.21    0.31
   2   3   0    9.08    0.30
   2   3   0    9.36    0.32
  -3  -3   0    0.15    0.03
  -3  -3   0    0.15    0.03
  -3  -3   0    0.14    0.02
  -3  -3   0    0.16    0.04
   3   3   0    0.18    0.02
   3   3   0    0.13    0.04
   3   3   0    0.17    0.02
   3   3   0    0.18    0.03
  -4  -3   0    9.96    0.35
  -4  -3   0   10.63    0.37
  -4  -3   0    9.76    0.35
  -4  -3   0   10.31    0.36
   4   3   0    9.94    0.37
   4   3   0   11.03    0.34
   4   3   0   10.47    0.34
   4   3   0   11.05    0.34
  -5  -3   0    9.43    0.36
  -5  -3   0    9.63    0.34
  -5  -3   0    9.57    0.34
   5   3   0    9.64    0.32
   5   3   0    9.52    0.35
  -6  -3   0    1.25    0.11
  -6  -3   0    1.42    0.10
  -6  -3   0    1.50    0.11
   6   3   0    1.49    0.07
   6   3   0    1.40    0.11
  -7  -3   0    0.07    0.08
  -7  -3   0    0.11    0.08
  -7  -3   0    0.12    0.06
   7   3   0    0.11    0.04
   7   3   0    0.04    0.07
  -8  -3   0    2.65    0.17
  -8  -3   0    2.63    0.18
  -8  -3   0    2.68    0.20
   8   3   0    2.68    0.19
   8   3   0    2.49    0.11
  -9  -3   0    0.42    0.12
  -9  -3   0    0.69    0.13
  -9  -3   0    0.50    0.16
   9   3   0    0.52    0.15
   9   3   0    0.41    0.06
   8  -4   0    8.89    0.36
  -8   4   0    7.89    0.39
   7  -4   0    0.93    0.11
  -7   4   0    0.86    0.14
   6  -4   0    2.47    0.15
  -6   4   0    2.48    0.16
   5  -4   0    1.80    0.12
  -5   4   0    1.96    0.13
   4  -4   0    3.71    0.16
   4  -4   0    3.68    0.16
  -4   4   0    3.64    0.16
  -4   4   0    3.91    0.17
  -4   4   0    3.59    0.16
   3  -4   0    8.75    0.31
   3  -4   0    8.62    0.32
   3  -4   0    8.62    0.31
  -3   4   0    8.86    0.31
  -3   4   0    8.87    0.32
  -3   4   0    8.91    0.32
  -3   4   0    8.66    0.31
   2  -4   0    0.39    0.05
   2  -4   0    0.42    0.05
   2  -4   0    0.34    0.04
  -2   4   0    0.31    0.05
  -2   4   0    0.32    0.04
  -2   4   0    0.40    0.05
  -2   4   0    0.40    0.05
   1  -4   0    0.92    0.06
   1  -4   0    0.98    0.06
   1  -4   0    1.07    0.06
  -1   4   0    1.00    0.06
  -1   4   0    0.88    0.06
   0  -4   0    0.40    0.04
   0   4   0    0.60    0.03
   0   4   0    0.35    0.04
   0   4   0    0.40    0.03
  -1  -4   0    6.34    0.24
  -1  -4   0    6.68    0.23
  -1  -4   0    6.49    0.24
   1   4   0    6.98    0.22
   1   4   0    6.87    0.22
   1   4   0    6.66    0.22
   1   4   0    6.73    0.24
  -2  -4   0    2.87    0.10
  -2  -4   0    2.68    0.10
  -2  -4   0    2.80    0.10
  -2  -4   0    2.68    0.12
   2   4   0    2.75    0.11
   2   4   0    2.97    0.09
   2   4   0    2.79    0.09
  -3  -4   0   76.20    2.39
  -3  -4   0   76.20    2.38
  -3  -4   0   72.48    2.40
  -3  -4   0   72.08    2.38
   3   4   0   77.54    2.39
   3   4   0   74.04    2.40
  -4  -4   0    6.12    0.25
  -4  -4   0    6.74    0.24
  -4  -4   0    6.06    0.23
   4   4   0    6.81    0.23
   4   4   0    6.25    0.25
   4   4   0    6.86    0.21
   4   4   0    6.67    0.21
  -5  -4   0    0.82    0.09
  -5  -4   0    0.82    0.07
  -5  -4   0    0.68    0.07
   5   4   0    0.66    0.08
   5   4   0    0.80    0.04
   5   4   0    0.87    0.04
  -6  -4   0   10.72    0.38
  -6  -4   0   10.72    0.41
  -6  -4   0   10.74    0.39
   6   4   0   10.79    0.35
   6   4   0   10.45    0.40
  -7  -4   0    2.33    0.14
  -7  -4   0    1.70    0.15
  -7  -4   0    1.86    0.12
   7   4   0    1.89    0.08
   7   4   0    1.89    0.14
  -8  -4   0    3.28    0.22
  -8  -4   0    3.79    0.21
  -8  -4   0    3.74    0.20
   8   4   0    3.54    0.21
   8   4   0    3.64    0.13
  -9  -4   0    0.02    0.10
  -9  -4   0   -0.04    0.11
  -9  -4   0    0.01    0.14
   9   4   0    0.10    0.13
   7  -5   0    2.16    0.17
  -7   5   0    2.19    0.21
   6  -5   0    1.20    0.13
  -6   5   0    1.13    0.14
   5  -5   0    0.02    0.06
  -5   5   0    0.06    0.07
  -5   5   0    0.05    0.07
   4  -5   0    2.68    0.14
  -4   5   0    2.59    0.14
  -4   5   0    2.61    0.14
  -4   5   0    2.60    0.14
   3  -5   0    0.06    0.05
   3  -5   0    0.03    0.04
   3  -5   0    0.05    0.05
  -3   5   0    0.01    0.05
  -3   5   0    0.06    0.05
  -3   5   0    0.05    0.04
   2  -5   0    0.10    0.04
   2  -5   0    0.11    0.04
   2  -5   0    0.10    0.05
  -2   5   0    0.09    0.04
  -2   5   0    0.07    0.03
  -2   5   0    0.08    0.04
   1  -5   0    5.71    0.21
   1  -5   0    6.10    0.22
   1  -5   0    5.86    0.21
  -1   5   0    5.94    0.21
  -1   5   0    5.72    0.22
  -1   5   0    5.65    0.21
   0  -5   0    7.91    0.28
   0  -5   0    8.16    0.28
   0   5   0    8.47    0.27
   0   5   0    7.94    0.29
   0   5   0    6.95    0.27
  -1  -5   0    4.76    0.17
  -1  -5   0    4.71    0.18
   1   5   0    4.66    0.16
   1   5   0    5.00    0.16
   1   5   0    4.91    0.16
   1   5   0    4.65    0.18
  -2  -5   0   12.98    0.40
  -2  -5   0   11.75    0.41
  -2  -5   0   12.47    0.41
  -2  -5   0   12.34    0.42
   2   5   0   12.27    0.39
   2   5   0   11.98    0.42
  -3  -5   0    0.64    0.07
  -3  -5   0    0.74    0.05
  -3  -5   0    0.65    0.05
  -3  -5   0    0.60    0.05
   3   5   0    0.85    0.06
  -4  -5   0    2.37    0.10
  -4  -5   0    2.10    0.10
  -4  -5   0    2.19    0.13
   4   5   0    2.43    0.11
  -5  -5   0    2.82    0.15
  -5  -5   0    2.75    0.12
  -5  -5   0    2.88    0.13
   5   5   0    2.63    0.15
  -6  -5   0    5.96    0.27
  -6  -5   0    6.42    0.24
  -6  -5   0    6.00    0.25
   6   5   0    5.99    0.26
  -7  -5   0    2.40    0.15
  -7  -5   0    2.50    0.17
  -7  -5   0    2.61    0.14
   7   5   0    2.25    0.16
  -8  -5   0    3.07    0.17
  -8  -5   0    2.63    0.21
   8   5   0    2.80    0.21
  -9  -5   0    2.90    0.21
  -9  -5   0    3.11    0.26
   9   5   0    2.84    0.24
  -7   6   0    1.00    0.16
  -6   6   0    0.25    0.11
  -5   6   0    8.71    0.36
  -5   6   0    9.07    0.35
  -4   6   0    0.06    0.06
  -4   6   0    0.15    0.07
  -4   6   0    0.13    0.08
   3  -6   0    0.00    0.06
  -3   6   0   -0.02    0.05
  -3   6   0   -0.02    0.05
  -3   6   0    0.00    0.05
   2  -6   0    0.21    0.06
   2  -6   0    0.21    0.05
  -2   6   0    0.20    0.05
  -2   6   0    0.14    0.04
  -2   6   0    0.17    0.06
   1  -6   0    6.51    0.24
   1  -6   0    6.70    0.25
  -1   6   0    6.16    0.23
  -1   6   0    6.33    0.25
  -1   6   0    6.61    0.23
   0  -6   0    0.29    0.05
   0  -6   0    0.20    0.04
   0   6   0    0.26    0.03
   0   6   0    0.19    0.05
   0   6   0    0.19    0.03
  -1  -6   0   19.12    0.65
  -1  -6   0   19.46    0.65
   1   6   0   19.15    0.66
   1   6   0   19.16    0.64
   1   6   0   20.37    0.64
   1   6   0   20.52    0.63
  -2  -6   0    1.86    0.09
  -2  -6   0    2.01    0.11
   2   6   0    2.10    0.07
   2   6   0    2.05    0.11
   2   6   0    1.92    0.09
   2   6   0    2.27    0.07
  -3  -6   0   19.24    0.65
  -3  -6   0   18.55    0.62
   3   6   0   19.39    0.64
  -4  -6   0   15.11    0.51
  -4  -6   0   15.62    0.54
   4   6   0   15.40    0.52
  -5  -6   0   20.22    0.72
  -5  -6   0   21.08    0.69
  -6  -6   0    0.03    0.05
  -6  -6   0    0.06    0.08
  -7  -6   0    4.86    0.21
  -7  -6   0    5.17    0.25
   7   6   0    4.58    0.24
  -8  -6   0    3.45    0.24
  -8  -6   0    3.68    0.19
  -9  -6   0    1.29    0.19
  -9  -6   0    1.12    0.13
  -6   7   0    0.32    0.14
  -5   7   0    0.09    0.10
  -5   7   0    0.09    0.08
  -4   7   0    2.63    0.16
  -4   7   0    2.55    0.15
  -4   7   0    2.40    0.16
   3  -7   0    0.02    0.07
  -3   7   0    0.02    0.06
  -3   7   0    0.03    0.06
  -3   7   0   -0.01    0.05
   2  -7   0    0.60    0.08
  -2   7   0    0.60    0.09
  -2   7   0    0.55    0.06
  -2   7   0    0.51    0.07
   1  -7   0    2.22    0.12
   1  -7   0    2.35    0.13
  -1   7   0    2.51    0.11
  -1   7   0    2.41    0.14
  -1   7   0    2.25    0.11
   0  -7   0    5.46    0.22
   0  -7   0    5.35    0.21
   0   7   0    5.45    0.19
   0   7   0    5.45    0.22
  -1  -7   0    6.41    0.25
  -1  -7   0    6.64    0.24
   1   7   0    6.58    0.22
   1   7   0    6.62    0.26
  -2  -7   0    5.34    0.21
  -2  -7   0    5.36    0.22
   2   7   0    5.76    0.18
   2   7   0    5.31    0.22
   2   7   0    5.80    0.18
  -3  -7   0    3.79    0.15
  -3  -7   0    3.76    0.17
   3   7   0    4.00    0.17
  -4  -7   0    0.31    0.07
  -4  -7   0    0.34    0.05
   4   7   0    0.35    0.06
  -5  -7   0   16.89    0.59
  -5  -7   0   18.51    0.63
  -6  -7   0    0.82    0.12
  -6  -7   0    0.79    0.08
  -7  -7   0    0.58    0.08
  -7  -7   0    0.69    0.12
  -8  -7   0    0.00    0.10
  -8  -7   0    0.00    0.08
  -9  -7   0    0.32    0.15
  -9  -7   0    0.29    0.11
  -6   8   0    2.04    0.23
  -5   8   0    0.08    0.12
  -5   8   0    0.07    0.08
  -4   8   0    0.70    0.09
  -3   8   0    0.08    0.06
  -3   8   0    0.11    0.09
   2  -8   0    8.27    0.33
  -2   8   0    8.42    0.31
  -2   8   0    8.41    0.34
   1  -8   0    9.85    0.38
  -1   8   0   10.59    0.36
  -1   8   0   10.77    0.39
   0  -8   0    2.74    0.14
   0  -8   0    2.57    0.13
   0   8   0    2.42    0.15
   0   8   0    2.47    0.11
  -1  -8   0    2.42    0.13
  -1  -8   0    2.48    0.14
   1   8   0    2.70    0.10
   1   8   0    2.60    0.14
  -2  -8   0   56.76    1.89
  -2  -8   0   59.24    1.91
   2   8   0   60.31    1.86
   2   8   0   58.85    1.86
   2   8   0   58.11    1.91
  -3  -8   0    2.32    0.14
  -3  -8   0    2.44    0.12
   3   8   0    2.49    0.14
  -4  -8   0    0.09    0.04
  -4  -8   0    0.03    0.06
   4   8   0    0.05    0.06
  -5  -8   0    3.69    0.20
  -5  -8   0    3.91    0.17
  -6  -8   0    6.77    0.29
  -6  -8   0    6.10    0.25
  -7  -8   0    0.07    0.06
  -7  -8   0    0.07    0.11
  -8  -8   0    1.90    0.15
  -8  -8   0    1.71    0.19
  -5   9   0    0.73    0.13
  -4   9   0   -0.02    0.07
  -3   9   0    0.54    0.08
  -3   9   0    0.66    0.12
   2  -9   0   11.86    0.45
  -2   9   0   11.66    0.42
  -2   9   0   12.30    0.46
   1  -9   0    1.82    0.14
  -1   9   0    1.99    0.15
  -1   9   0    2.11    0.11
   0  -9   0    3.60    0.18
   0   9   0    3.46    0.14
   0   9   0    3.46    0.18
  -1  -9   0    1.05    0.10
  -1  -9   0    1.02    0.12
   1   9   0    1.08    0.06
   1   9   0    1.01    0.12
  -2  -9   0    5.84    0.25
  -2  -9   0    5.54    0.23
   2   9   0    5.59    0.25
  -3  -9   0    0.76    0.10
  -3  -9   0    0.87    0.08
   3   9   0    0.86    0.10
  -4  -9   0   13.43    0.49
  -4  -9   0   13.58    0.47
   4   9   0   13.04    0.48
  -5  -9   0    2.84    0.18
  -5  -9   0    3.20    0.15
  -6  -9   0    0.01    0.09
  -6  -9   0   -0.01    0.06
  -7  -9   0    0.15    0.08
  -7  -9   0    0.13    0.11
  -8  -9   0    4.48    0.29
  -8  -9   0    4.73    0.23
  -4  10   0    0.26    0.10
  -3  10   0    0.25    0.07
  -3  10   0    0.19    0.11
   2 -10   0    0.34    0.12
  -2  10   0    0.35    0.06
  -2  10   0    0.46    0.12
   1 -10   0    2.14    0.17
  -1  10   0    2.31    0.16
  -1  10   0    2.23    0.12
   0 -10   0    2.72    0.17
   0  10   0    2.40    0.11
   0  10   0    2.50    0.18
  -1 -10   0    5.19    0.23
   1  10   0    4.95    0.24
   1  10   0    4.79    0.18
  -2 -10   0    7.05    0.28
  -2 -10   0    7.49    0.32
   2  10   0    6.80    0.30
  -3 -10   0    2.38    0.14
  -3 -10   0    2.45    0.17
   3  10   0    2.19    0.15
  -4 -10   0    0.01    0.09
  -4 -10   0   -0.01    0.05
   4  10   0   -0.01    0.08
  -5 -10   0   12.38    0.48
  -5 -10   0   12.22    0.44
  -6 -10   0   -0.01    0.07
  -6 -10   0    0.05    0.12
  -7 -10   0    0.21    0.08
  -7 -10   0    0.27    0.15
  -3  11   0    0.45    0.15
  -3  11   0    0.68    0.13
  -2  11   0    0.08    0.12
  -2  11   0    0.04    0.07
   1 -11   0    0.23    0.11
  -1  11   0    0.29    0.06
  -1  11   0    0.34    0.12
   0 -11   0    0.01    0.08
   0  11   0    0.00    0.09
   0  11   0    0.01    0.04
  -1 -11   0    4.28    0.22
   1  11   0    4.37    0.16
   1  11   0    4.30    0.24
  -2 -11   0    0.58    0.09
   2  11   0    0.67    0.12
  -3 -11   0    2.91    0.17
   3  11   0    2.88    0.18
  -4 -11   0    0.22    0.12
  -4 -11   0    0.27    0.08
   4  11   0    0.23    0.10
  -5 -11   0    0.90    0.11
  -5 -11   0    1.12    0.16
  -6 -11   0    0.02    0.13
  -6 -11   0    0.08    0.08
  -7 -11   0    0.17    0.14
  -7 -11   0    0.13    0.10
   1 -12   0    0.13    0.14
  -1  12   0    0.21    0.07
  -1  12   0    0.23    0.13
   0 -12   0    0.08    0.12
   0  12   0    0.14    0.12
   0  12   0    0.12    0.05
  -1 -12   0    0.30    0.10
   1  12   0    0.27    0.12
  -2 -12   0    1.83    0.16
   2  12   0    1.44    0.17
  -3 -12   0    0.36    0.10
   3  12   0    0.35    0.12
  -4 -12   0    2.96    0.19
   4  12   0    2.85    0.22
  -5 -12   0    0.87    0.12
  -5 -12   0    1.17    0.18
  -6 -12   0   -0.02    0.14
  -6 -12   0    0.05    0.12
  -1 -13   0    0.46    0.13
  -2 -13   0    0.22    0.12
   2  13   0    0.13    0.14
  -3 -13   0    0.05    0.10
   3  13   0    0.10    0.14
  -4 -13   0    6.68    0.36
   4  13   0    6.64    0.35
   4  13  -1    4.17    0.29
   3  13  -1    0.07    0.14
  -3 -13   1    0.02    0.12
   2  13  -1    0.09    0.15
  -2 -13   1    0.14    0.12
  -1 -13   1    0.10    0.13
  -6 -12   1    0.19    0.15
  -5 -12   1   -0.01    0.13
  -5 -12   1    0.07    0.09
   4  12  -1    3.58    0.24
  -4 -12   1    3.45    0.25
  -4 -12   1    3.07    0.21
   3  12  -1    5.44    0.29
  -3 -12   1    4.74    0.25
   2  12  -1    0.43    0.12
  -2 -12   1    0.42    0.11
   1  12  -1    0.55    0.14
   1  12  -1    0.70    0.07
  -1 -12   1    0.55    0.11
   0  12  -1    0.59    0.14
   0  12  -1    0.74    0.07
   0 -12   1    0.83    0.14
  -1  12  -1    0.86    0.16
  -1  12  -1    0.96    0.10
   1 -12   1    0.83    0.16
  -7 -11   1    6.66    0.40
  -6 -11   1    0.51    0.11
  -6 -11   1    0.56    0.16
  -5 -11   1    1.79    0.18
  -5 -11   1    1.55    0.15
   4  11  -1    1.52    0.17
  -4 -11   1    1.57    0.18
  -4 -11   1    1.59    0.14
   3  11  -1    6.49    0.31
  -3 -11   1    6.64    0.28
  -3 -11   1    6.66    0.31
   2  11  -1    0.09    0.09
  -2 -11   1    0.15    0.08
   1  11  -1    6.32    0.23
   1  11  -1    7.18    0.31
  -1 -11   1    6.51    0.29
   0  11  -1    1.88    0.11
   0  11  -1    2.34    0.20
   0 -11   1    2.14    0.17
  -1  11  -1    0.44    0.12
  -1  11  -1    0.21    0.06
   1 -11   1    0.26    0.12
  -2  11  -1   -0.02    0.07
  -2  11  -1   -0.03    0.12
  -3  11  -1    1.49    0.20
  -7 -10   1    0.32    0.10
  -7 -10   1    0.34    0.14
  -6 -10   1    2.04    0.16
  -6 -10   1    2.05    0.21
  -5 -10   1    4.85    0.25
  -5 -10   1    4.69    0.22
   4  10  -1    8.05    0.33
  -4 -10   1    7.75    0.34
  -4 -10   1    8.00    0.31
   3  10  -1    0.67    0.11
  -3 -10   1    0.63    0.08
  -3 -10   1    0.62    0.10
   2  10  -1    3.14    0.11
   2  10  -1    3.08    0.19
  -2 -10   1    2.88    0.17
  -2 -10   1    3.21    0.19
   1  10  -1    5.55    0.21
   1  10  -1    6.15    0.27
  -1 -10   1    5.64    0.25
   0  10  -1    0.96    0.08
   0  10  -1    0.89    0.11
   0 -10   1    0.63    0.09
  -1  10  -1    1.25    0.14
  -1  10  -1    1.31    0.10
   1 -10   1    1.12    0.13
  -2  10  -1    2.31    0.14
  -2  10  -1    2.69    0.20
   2 -10   1    2.28    0.21
  -3  10  -1    0.42    0.09
  -3  10  -1    0.71    0.14
  -4  10  -1    0.42    0.10
  -8  -9   1    0.23    0.11
  -8  -9   1    0.15    0.16
  -7  -9   1    1.00    0.12
  -7  -9   1    1.01    0.16
  -6  -9   1    0.16    0.10
  -6  -9   1    0.17    0.07
  -5  -9   1    0.03    0.06
  -5  -9   1    0.11    0.09
   4   9  -1    6.46    0.27
  -4  -9   1    6.38    0.26
  -4  -9   1    6.55    0.29
   3   9  -1    2.36    0.15
  -3  -9   1    2.28    0.13
  -3  -9   1    2.50    0.16
   2   9  -1    2.00    0.08
   2   9  -1    1.89    0.14
  -2  -9   1    2.07    0.13
  -2  -9   1    2.15    0.15
   1   9  -1    0.06    0.03
   1   9  -1    0.09    0.07
  -1  -9   1    0.06    0.07
  -1  -9   1    0.09    0.06
   0   9  -1    0.28    0.09
   0   9  -1    0.19    0.04
   0  -9   1    0.17    0.07
  -1   9  -1    0.15    0.05
  -1   9  -1    0.11    0.08
   1  -9   1    0.08    0.07
  -2   9  -1    1.22    0.10
  -2   9  -1    0.93    0.12
   2  -9   1    1.02    0.12
  -3   9  -1    0.29    0.10
  -3   9  -1    0.25    0.08
  -4   9  -1    0.04    0.09
  -5   9  -1    0.91    0.13
  -8  -8   1    1.74    0.17
  -8  -8   1    2.22    0.24
  -7  -8   1    5.99    0.26
  -7  -8   1    6.34    0.31
  -6  -8   1    0.19    0.10
  -6  -8   1    0.30    0.07
  -5  -8   1    1.27    0.10
  -5  -8   1    1.23    0.14
   4   8  -1    5.38    0.23
  -4  -8   1    5.41    0.22
  -4  -8   1    5.59    0.25
   3   8  -1    0.01    0.06
  -3  -8   1    0.01    0.04
  -3  -8   1    0.01    0.06
   2   8  -1    1.17    0.10
  -2  -8   1    1.30    0.09
  -2  -8   1    1.17    0.11
   1   8  -1    3.52    0.18
  -1  -8   1    3.87    0.17
  -1  -8   1    3.57    0.17
   0   8  -1    0.24    0.04
   0   8  -1    0.21    0.06
   0  -8   1    0.24    0.06
   0  -8   1    0.20    0.06
  -1   8  -1    2.30    0.15
  -1   8  -1    2.42    0.12
   1  -8   1    2.23    0.15
  -2   8  -1    0.04    0.05
  -2   8  -1    0.11    0.08
   2  -8   1    0.22    0.08
  -3   8  -1    1.33    0.13
  -3   8  -1    1.46    0.11
  -4   8  -1    2.24    0.15
  -4   8  -1    2.23    0.17
  -5   8  -1    0.17    0.09
  -8  -7   1    0.13    0.13
  -8  -7   1    0.06    0.08
  -7  -7   1    0.41    0.11
  -7  -7   1    0.34    0.08
  -6  -7   1    4.95    0.24
  -6  -7   1    4.94    0.21
  -5  -7   1    1.00    0.09
  -5  -7   1    0.84    0.11
   4   7  -1    0.26    0.06
  -4  -7   1    0.30    0.05
  -4  -7   1    0.21    0.07
   3   7  -1    1.70    0.06
   3   7  -1    1.58    0.06
   3   7  -1    1.64    0.11
  -3  -7   1    1.69    0.09
  -3  -7   1    1.67    0.12
   2   7  -1    3.77    0.14
   2   7  -1    3.59    0.17
  -2  -7   1    3.75    0.18
  -2  -7   1    4.03    0.16
   1   7  -1    1.18    0.10
   1   7  -1    1.25    0.07
  -1  -7   1    1.31    0.09
  -1  -7   1    1.14    0.09
   0   7  -1    2.14    0.12
   0   7  -1    2.12    0.10
   0  -7   1    1.94    0.12
   0  -7   1    1.91    0.11
  -1   7  -1   19.01    0.66
   1  -7   1   19.46    0.65
   1  -7   1   19.08    0.66
  -2   7  -1    0.57    0.06
  -2   7  -1    0.75    0.09
  -2   7  -1    0.65    0.08
   2  -7   1    0.49    0.08
   2  -7   1    0.60    0.08
  -3   7  -1    1.99    0.13
  -3   7  -1    1.74    0.14
  -3   7  -1    2.22    0.12
   3  -7   1    2.19    0.24
  -4   7  -1    0.75    0.10
  -4   7  -1    0.89    0.10
  -4   7  -1    0.88    0.11
  -5   7  -1    0.08    0.10
  -5   7  -1    0.07    0.08
  -6   7  -1    2.34    0.19
  -9  -6   1    7.54    0.38
  -9  -6   1    7.90    0.35
  -8  -6   1    5.78    0.30
  -8  -6   1    5.29    0.26
  -7  -6   1    0.08    0.10
  -7  -6   1    0.04    0.06
  -6  -6   1    0.04    0.08
  -6  -6   1    0.05    0.05
  -5  -6   1    0.00    0.04
  -5  -6   1   -0.02    0.06
   4   6  -1    5.91    0.22
  -4  -6   1    5.56    0.22
  -4  -6   1    6.15    0.25
   3   6  -1    0.75    0.04
   3   6  -1    0.73    0.04
   3   6  -1    0.78    0.07
  -3  -6   1    0.60    0.08
  -3  -6   1    0.77    0.06
   2   6  -1   78.34    2.50
   2   6  -1   84.47    2.50
   2   6  -1   78.22    2.53
  -2  -6   1   77.59    2.52
  -2  -6   1   74.29    2.53
   1   6  -1    0.51    0.04
   1   6  -1    0.62    0.05
   1   6  -1    0.62    0.06
  -1  -6   1    0.50    0.06
  -1  -6   1    0.50    0.06
   0   6  -1   -0.01    0.04
   0   6  -1    0.00    0.02
   0   6  -1    0.02    0.02
   0  -6   1    0.01    0.03
   0  -6   1    0.02    0.04
  -1   6  -1   28.15    0.89
  -1   6  -1   27.16    0.92
  -1   6  -1   26.72    0.90
   1  -6   1   28.18    0.91
   1  -6   1   27.05    0.91
  -2   6  -1    0.10    0.05
  -2   6  -1    0.09    0.05
   2  -6   1    0.03    0.05
   2  -6   1    0.08    0.05
  -3   6  -1    2.15    0.12
  -3   6  -1    2.20    0.13
  -3   6  -1    2.08    0.13
   3  -6   1    2.09    0.13
   3  -6   1    2.19    0.14
  -4   6  -1    1.90    0.12
  -4   6  -1    1.80    0.14
  -5   6  -1    5.18    0.25
  -5   6  -1    4.80    0.24
  -6   6  -1    0.31    0.11
  -7   6  -1    7.20    0.36
  -9  -5   1    0.01    0.10
  -9  -5   1    0.02    0.15
  -8  -5   1    0.59    0.10
  -8  -5   1    0.63    0.13
   7   5  -1    0.01    0.02
  -7  -5   1    0.03    0.08
  -7  -5   1   -0.01    0.06
   6   5  -1    6.25    0.21
  -6  -5   1    6.39    0.28
  -6  -5   1    6.54    0.25
   5   5  -1   17.97    0.57
   5   5  -1   16.85    0.57
  -5  -5   1   18.46    0.60
  -5  -5   1   17.41    0.59
  -5  -5   1   17.82    0.62
   4   5  -1    3.64    0.13
   4   5  -1    3.69    0.15
  -4  -5   1    3.30    0.14
  -4  -5   1    3.85    0.15
  -4  -5   1    3.59    0.17
   3   5  -1    0.26    0.05
   3   5  -1    0.26    0.03
   3   5  -1    0.29    0.03
  -3  -5   1    0.28    0.04
  -3  -5   1    0.22    0.05
  -3  -5   1    0.29    0.03
   2   5  -1    5.00    0.17
   2   5  -1    4.89    0.17
   2   5  -1    4.94    0.19
  -2  -5   1    5.13    0.20
  -2  -5   1    4.95    0.18
   1   5  -1   33.19    1.08
   1   5  -1   32.51    1.06
   1   5  -1   33.84    1.06
  -1  -5   1   33.09    1.07
  -1  -5   1   32.98    1.08
   0   5  -1   29.40    0.91
   0   5  -1   28.31    0.92
   0  -5   1   27.69    0.92
   0  -5   1   28.36    0.93
   0  -5   1   28.14    0.93
  -1   5  -1    2.13    0.10
  -1   5  -1    2.20    0.09
  -1   5  -1    2.13    0.11
  -1   5  -1    2.31    0.11
   1  -5   1    2.15    0.10
   1  -5   1    2.06    0.10
   1  -5   1    2.38    0.11
  -2   5  -1   26.28    0.88
  -2   5  -1   27.69    0.89
  -2   5  -1   25.74    0.90
   2  -5   1   26.37    0.90
   2  -5   1   28.01    0.89
   2  -5   1   28.21    0.89
  -3   5  -1    1.32    0.09
  -3   5  -1    1.27    0.09
  -3   5  -1    1.32    0.10
   3  -5   1    1.25    0.11
   3  -5   1    1.14    0.09
   3  -5   1    1.17    0.09
  -4   5  -1   13.36    0.48
  -4   5  -1   13.53    0.47
  -4   5  -1   13.53    0.47
   4  -5   1   13.34    0.47
   4  -5   1   13.35    0.47
  -5   5  -1    5.17    0.24
   5  -5   1    5.65    0.23
  -6   5  -1    1.61    0.16
   6  -5   1    1.60    0.14
  -7   5  -1    0.77    0.15
   7  -5   1    0.90    0.12
   9   4  -1   12.27    0.41
   9   4  -1   12.44    0.52
  -9  -4   1   12.82    0.50
  -9  -4   1   12.89    0.53
   8   4  -1    0.57    0.12
   8   4  -1    0.51    0.05
  -8  -4   1    0.87    0.12
  -8  -4   1    0.46    0.10
  -8  -4   1    0.41    0.11
   7   4  -1    0.46    0.05
   7   4  -1    0.44    0.09
  -7  -4   1    0.35    0.09
  -7  -4   1    0.49    0.09
  -7  -4   1    0.57    0.08
   6   4  -1    5.84    0.21
   6   4  -1    5.80    0.26
  -6  -4   1    6.04    0.26
  -6  -4   1    5.77    0.23
  -6  -4   1    5.85    0.24
   5   4  -1    4.76    0.21
   5   4  -1    4.70    0.16
  -5  -4   1    4.67    0.18
  -5  -4   1    4.24    0.19
  -5  -4   1    4.62    0.21
   4   4  -1    1.45    0.06
   4   4  -1    1.33    0.06
   4   4  -1    1.45    0.07
  -4  -4   1    1.18    0.07
  -4  -4   1    1.29    0.09
  -4  -4   1    1.27    0.07
   3   4  -1    0.43    0.05
   3   4  -1    0.44    0.03
   3   4  -1    0.47    0.03
  -3  -4   1    0.42    0.04
  -3  -4   1    0.38    0.04
  -3  -4   1    0.41    0.06
  -3  -4   1    0.33    0.05
   2   4  -1    0.84    0.06
   2   4  -1    0.86    0.04
   2   4  -1    0.87    0.04
  -2  -4   1    0.96    0.04
  -2  -4   1    0.75    0.06
  -2  -4   1    0.85    0.05
   1   4  -1    5.15    0.17
   1   4  -1    4.86    0.17
  -1  -4   1    5.21    0.18
  -1  -4   1    4.77    0.18
   0   4  -1   42.62    1.39
   0   4  -1   43.66    1.39
   0  -4   1   45.35    1.39
   0  -4   1   43.68    1.40
   0  -4   1   41.95    1.40
  -1   4  -1   82.31    2.69
  -1   4  -1   85.33    2.69
  -1   4  -1   88.22    2.70
   1  -4   1   82.23    2.70
   1  -4   1   83.90    2.70
  -2   4  -1   55.79    1.75
  -2   4  -1   52.80    1.74
  -2   4  -1   54.09    1.74
   2  -4   1   53.33    1.75
   2  -4   1   54.46    1.74
   2  -4   1   54.35    1.74
  -3   4  -1    0.22    0.05
  -3   4  -1    0.19    0.05
  -3   4  -1    0.24    0.05
   3  -4   1    0.14    0.05
   3  -4   1    0.17    0.06
   3  -4   1    0.12    0.04
  -4   4  -1    7.69    0.30
  -4   4  -1    8.27    0.30
  -4   4  -1    7.46    0.28
  -4   4  -1    7.70    0.29
   4  -4   1    7.51    0.29
   4  -4   1    7.53    0.28
  -5   4  -1    5.12    0.23
   5  -4   1    5.30    0.22
   5  -4   1    5.34    0.23
  -6   4  -1    5.22    0.25
   6  -4   1    5.65    0.23
  -7   4  -1    4.41    0.23
   7  -4   1    3.97    0.21
  -8   4  -1    1.44    0.19
   8  -4   1    1.27    0.14
   9   3  -1    5.05    0.28
   9   3  -1    4.57    0.19
  -9  -3   1    5.28    0.28
  -9  -3   1    5.10    0.28
  -9  -3   1    4.46    0.28
   8   3  -1    5.24    0.21
   8   3  -1    6.04    0.28
  -8  -3   1    5.72    0.26
  -8  -3   1    5.77    0.27
  -8  -3   1    5.31    0.28
   7   3  -1    1.63    0.14
   7   3  -1    1.56    0.09
  -7  -3   1    1.37    0.14
  -7  -3   1    1.93    0.13
  -7  -3   1    1.76    0.14
   6   3  -1   15.56    0.56
   6   3  -1   15.30    0.51
  -6  -3   1   15.31    0.56
  -6  -3   1   15.59    0.54
  -6  -3   1   15.68    0.54
   5   3  -1   59.51    1.94
   5   3  -1   58.18    1.97
  -5  -3   1   61.32    1.96
  -5  -3   1   61.80    1.98
  -5  -3   1   62.24    1.95
   4   3  -1    2.98    0.15
   4   3  -1    3.25    0.12
   4   3  -1    3.42    0.12
  -4  -3   1    3.17    0.15
  -4  -3   1    3.18    0.13
  -4  -3   1    3.06    0.13
   3   3  -1    0.04    0.02
   3   3  -1    0.01    0.03
   3   3  -1    0.05    0.03
   3   3  -1    0.04    0.02
  -3  -3   1    0.07    0.02
  -3  -3   1    0.04    0.03
  -3  -3   1    0.04    0.03
   2   3  -1   13.26    0.43
   2   3  -1   13.01    0.44
   2   3  -1   13.73    0.43
  -2  -3   1   12.86    0.45
  -2  -3   1   12.87    0.43
  -2  -3   1   13.39    0.43
   1   3  -1   45.67    1.41
   1   3  -1   43.80    1.40
  -1  -3   1   42.51    1.41
  -1  -3   1   43.34    1.40
   0   3  -1    8.77    0.30
   0   3  -1    9.31    0.29
   0   3  -1    8.37    0.29
   0  -3   1    8.88    0.30
   0  -3   1    8.62    0.30
   0  -3   1    8.78    0.30
  -1   3  -1  244.19    7.84
  -1   3  -1  246.61    7.86
  -1   3  -1  253.97    7.86
  -1   3  -1  250.17    7.83
   1  -3   1  248.99    7.87
   1  -3   1  233.40    7.85
   1  -3   1  249.71    7.87
  -2   3  -1    8.67    0.29
  -2   3  -1    8.59    0.30
  -2   3  -1    8.69    0.29
   2  -3   1    8.17    0.29
   2  -3   1    8.48    0.29
   2  -3   1    8.37    0.30
  -3   3  -1    7.37    0.27
  -3   3  -1    7.47    0.27
  -3   3  -1    7.63    0.26
   3  -3   1    7.37    0.27
   3  -3   1    7.25    0.26
   3  -3   1    6.85    0.26
  -4   3  -1    3.74    0.16
  -4   3  -1    3.88    0.17
  -4   3  -1    3.44    0.15
   4  -3   1    3.77    0.16
   4  -3   1    3.77    0.16
  -5   3  -1    6.80    0.27
  -5   3  -1    6.89    0.27
   5  -3   1    6.34    0.26
   5  -3   1    6.99    0.26
  -6   3  -1    0.10    0.07
   6  -3   1    0.10    0.08
   6  -3   1    0.12    0.06
  -7   3  -1    0.15    0.09
   7  -3   1    0.16    0.07
  -8   3  -1    7.17    0.34
   8  -3   1    7.12    0.30
   9   2  -1    0.68    0.09
   9   2  -1    0.69    0.16
  -9  -2   1    0.76    0.17
  -9  -2   1    0.72    0.14
  -9  -2   1    1.00    0.16
   8   2  -1    6.58    0.30
   8   2  -1    6.18    0.24
  -8  -2   1    6.72    0.29
  -8  -2   1    5.92    0.28
  -8  -2   1    6.23    0.31
   7   2  -1    0.14    0.09
   7   2  -1    0.14    0.05
  -7  -2   1    0.12    0.07
  -7  -2   1    0.08    0.06
  -7  -2   1    0.14    0.09
   6   2  -1    2.00    0.14
   6   2  -1    1.94    0.10
  -6  -2   1    1.96    0.14
  -6  -2   1    1.92    0.12
  -6  -2   1    1.78    0.12
   5   2  -1   57.64    1.84
   5   2  -1   58.61    1.87
  -5  -2   1   56.42    1.86
  -5  -2   1   56.32    1.87
  -5  -2   1   58.56    1.86
   4   2  -1   22.52    0.73
   4   2  -1   21.83    0.75
   4   2  -1   22.33    0.72
  -4  -2   1   22.42    0.74
  -4  -2   1   23.18    0.74
  -4  -2   1   22.52    0.75
   3   2  -1  100.68    3.02
   3   2  -1   89.20    3.04
   3   2  -1   97.31    3.03
   3   2  -1   95.81    3.03
  -3  -2   1   93.22    3.04
  -3  -2   1   95.29    3.03
  -3  -2   1   94.20    3.03
   2   2  -1   25.41    0.82
   2   2  -1   27.53    0.82
   2   2  -1   24.61    0.83
  -2  -2   1   25.12    0.82
  -2  -2   1   25.47    0.83
  -2  -2   1   25.16    0.82
   1   2  -1   10.47    0.34
   1   2  -1   11.08    0.35
  -1  -2   1   10.38    0.34
  -1  -2   1   10.02    0.35
   0   2  -1    5.83    0.20
   0   2  -1    6.14    0.21
   0   2  -1    6.54    0.21
   0  -2   1    6.24    0.21
   0  -2   1    6.51    0.21
  -1   2  -1  981.24   30.33
  -1   2  -1 1000.00   30.33
  -1   2  -1  957.08   30.30
   1  -2   1  896.70   30.33
   1  -2   1  930.13   30.30
   1  -2   1  960.09   30.32
  -2   2  -1    4.60    0.17
  -2   2  -1    4.54    0.17
  -2   2  -1    4.82    0.17
   2  -2   1    4.56    0.17
   2  -2   1    4.68    0.16
   2  -2   1    4.45    0.17
  -3   2  -1    0.01    0.03
  -3   2  -1   -0.01    0.03
  -3   2  -1   -0.01    0.03
  -3   2  -1    0.02    0.02
   3  -2   1    0.00    0.03
   3  -2   1    0.00    0.02
   3  -2   1    0.01    0.03
  -4   2  -1    0.27    0.06
  -4   2  -1    0.15    0.04
  -4   2  -1    0.29    0.05
  -4   2  -1    0.22    0.04
   4  -2   1    0.19    0.04
   4  -2   1    0.16    0.05
  -5   2  -1    2.04    0.13
  -5   2  -1    2.10    0.12
   5  -2   1    1.91    0.12
   5  -2   1    2.25    0.11
  -6   2  -1    0.25    0.07
  -6   2  -1    0.16    0.07
   6  -2   1    0.22    0.06
   6  -2   1    0.16    0.07
  -7   2  -1    0.06    0.08
  -7   2  -1    0.04    0.09
   7  -2   1    0.14    0.06
   7  -2   1    0.17    0.09
  -8   2  -1   -0.01    0.12
   8  -2   1    0.00    0.08
   9   1  -1    0.10    0.08
  -9  -1   1    0.05    0.17
  -9  -1   1    0.10    0.14
  -9  -1   1    0.05    0.14
   8   1  -1    5.46    0.22
   8   1  -1    5.03    0.27
  -8  -1   1    5.66    0.27
  -8  -1   1    5.31    0.28
  -8  -1   1    5.07    0.26
   7   1  -1    0.03    0.05
   7   1  -1    0.01    0.08
  -7  -1   1    0.02    0.06
  -7  -1   1    0.02    0.07
  -7  -1   1    0.01    0.08
   6   1  -1    0.13    0.06
   6   1  -1    0.23    0.05
  -6  -1   1    0.18    0.07
  -6  -1   1    0.26    0.06
  -6  -1   1    0.18    0.06
   5   1  -1    7.19    0.26
   5   1  -1    6.96    0.28
  -5  -1   1    7.58    0.28
  -5  -1   1    7.52    0.27
  -5  -1   1    7.33    0.28
   4   1  -1    7.99    0.30
   4   1  -1    8.28    0.28
  -4  -1   1    8.67    0.29
  -4  -1   1    8.43    0.30
  -4  -1   1    8.09    0.30
  -4  -1   1    8.56    0.30
   3   1  -1    2.93    0.11
   3   1  -1    3.05    0.10
   3   1  -1    3.01    0.12
  -3  -1   1    2.97    0.12
  -3  -1   1    3.01    0.13
  -3  -1   1    3.00    0.12
  -3  -1   1    2.97    0.11
   2   1  -1  169.55    5.41
   2   1  -1  172.79    5.41
   2   1  -1  169.04    5.40
  -2  -1   1  166.95    5.41
  -2  -1   1  172.82    5.42
  -2  -1   1  169.59    5.41
   1   1  -1    8.42    0.27
   1   1  -1    8.09    0.27
  -1  -1   1    8.23    0.27
  -1  -1   1    8.39    0.27
  -1  -1   1    8.13    0.27
   0   1  -1    0.98    0.04
   0   1  -1    1.00    0.04
   0  -1   1    0.99    0.04
  -1   1  -1    5.09    0.17
  -1   1  -1    5.16    0.17
  -1   1  -1    4.79    0.17
  -1   1  -1    5.21    0.17
   1  -1   1    4.82    0.17
   1  -1   1    4.82    0.17
  -2   1  -1   25.75    0.88
  -2   1  -1   26.35    0.88
  -2   1  -1   29.27    0.87
   2  -1   1   26.41    0.88
   2  -1   1   27.51    0.88
   2  -1   1   27.57    0.87
  -3   1  -1    1.86    0.09
  -3   1  -1    1.86    0.07
  -3   1  -1    1.59    0.08
  -3   1  -1    1.55    0.08
   3  -1   1    1.86    0.09
   3  -1   1    1.68    0.08
   3  -1   1    1.73    0.09
  -4   1  -1    0.60    0.06
  -4   1  -1    0.48    0.06
  -4   1  -1    0.66    0.05
   4  -1   1    0.55    0.05
   4  -1   1    0.54    0.06
   4  -1   1    0.78    0.08
  -5   1  -1    0.04    0.04
  -5   1  -1    0.07    0.06
   5  -1   1    0.04    0.05
   5  -1   1    0.05    0.04
  -6   1  -1    0.27    0.07
  -6   1  -1    0.30    0.07
   6  -1   1    0.27    0.07
   6  -1   1    0.19    0.05
  -7   1  -1   -0.03    0.07
  -7   1  -1   -0.01    0.07
   7  -1   1    0.03    0.05
   7  -1   1    0.01    0.08
  -8   1  -1    0.53    0.11
  -8   1  -1    0.50    0.11
   8  -1   1    0.48    0.12
   8  -1   1    0.58    0.08
  -9   1  -1    0.02    0.12
   9  -1   1    0.02    0.08
   9   0  -1    3.72    0.22
  -9   0   1    4.58    0.29
   8   0  -1    0.03    0.06
   8   0  -1    0.02    0.11
  -8   0   1    0.01    0.09
  -8   0   1    0.04    0.11
  -8   0   1    0.03    0.11
   7   0  -1    4.70    0.23
   7   0  -1    4.48    0.19
  -7   0   1    4.65    0.24
  -7   0   1    4.54    0.22
  -7   0   1    4.28    0.22
   6   0  -1   24.04    0.81
   6   0  -1   25.08    0.84
  -6   0   1   24.27    0.83
  -6   0   1   24.66    0.83
   5   0  -1    0.77    0.08
   5   0  -1    0.81    0.07
  -5   0   1    0.88    0.08
  -5   0   1    0.91    0.09
   4   0  -1    1.12    0.09
   4   0  -1    1.00    0.07
   4   0  -1    0.94    0.06
  -4   0   1    1.04    0.07
  -4   0   1    1.19    0.07
  -4   0   1    1.16    0.08
   3   0  -1    7.27    0.26
   3   0  -1    7.89    0.25
   3   0  -1    7.36    0.27
   3   0  -1    8.33    0.27
  -3   0   1    7.80    0.27
  -3   0   1    7.55    0.27
  -3   0   1    8.01    0.27
   2   0  -1    3.85    0.14
   2   0  -1    4.10    0.14
   2   0  -1    3.93    0.14
   2   0  -1    4.08    0.13
  -2   0   1    3.89    0.14
  -2   0   1    4.13    0.14
  -2   0   1    3.84    0.14
   1   0  -1   27.58    0.86
   1   0  -1   26.48    0.86
   1   0  -1   27.07    0.86
   1   0  -1   26.86    0.86
  -1   0   1   25.90    0.86
  -1   0   1   27.37    0.86
  -1   0   1   27.13    0.86
  -1   0   1   27.21    0.86
   0   0  -1    0.48    0.02
   0   0  -1    0.57    0.02
   0   0   1    0.48    0.02
   0   0   1    0.52    0.02
   0   0   1    0.49    0.02
  -1   0  -1   44.42    1.40
  -1   0  -1   43.03    1.40
   1   0   1   42.12    1.39
   1   0   1   45.66    1.40
   1   0   1   44.21    1.40
  -2   0  -1   60.18    1.86
  -2   0  -1   58.92    1.87
  -2   0  -1   57.35    1.86
   2   0   1   57.50    1.87
   2   0   1   58.16    1.86
  -3   0  -1    6.36    0.19
  -3   0  -1    6.07    0.21
  -3   0  -1    5.91    0.21
  -3   0  -1    5.37    0.21
   3   0   1    5.62    0.20
   3   0   1    5.57    0.21
  -4   0  -1   30.69    0.97
  -4   0  -1   30.43    0.97
  -4   0  -1   30.53    0.95
  -4   0  -1   28.79    0.98
   4   0   1   28.44    0.96
   4   0   1   29.28    0.98
  -5   0  -1    1.00    0.08
  -5   0  -1    0.69    0.07
   5   0   1    0.66    0.07
   5   0   1    0.80    0.06
  -6   0  -1   23.48    0.80
  -6   0  -1   24.25    0.81
   6   0   1   23.11    0.78
   6   0   1   24.52    0.81
  -7   0  -1    6.79    0.28
  -7   0  -1    6.76    0.29
   7   0   1    7.26    0.30
   7   0   1    6.70    0.26
  -8   0  -1    0.13    0.10
  -8   0  -1    0.05    0.09
   8   0   1    0.06    0.06
   8   0   1    0.04    0.10
  -9   0  -1    0.42    0.14
  -9   0  -1    0.54    0.14
   9   0   1    0.60    0.09
   9   0   1    0.64    0.16
   8  -1  -1    1.98    0.14
  -8   1   1    2.13    0.18
   7  -1  -1    1.05    0.10
   7  -1  -1    1.35    0.14
  -7   1   1    1.30    0.14
  -7   1   1    1.16    0.13
   6  -1  -1    0.80    0.09
   6  -1  -1    0.80    0.10
  -6   1   1    0.80    0.09
  -6   1   1    0.81    0.10
   5  -1  -1    0.01    0.04
   5  -1  -1    0.01    0.05
  -5   1   1    0.01    0.05
  -5   1   1    0.03    0.05
   4  -1  -1   16.72    0.56
   4  -1  -1   17.12    0.56
   4  -1  -1   15.80    0.55
   4  -1  -1   17.69    0.54
  -4   1   1   14.51    0.55
  -4   1   1   16.75    0.57
  -4   1   1   17.54    0.56
   3  -1  -1   33.76    1.10
   3  -1  -1   33.76    1.10
   3  -1  -1   33.28    1.10
  -3   1   1   31.98    1.10
  -3   1   1   35.16    1.10
  -3   1   1   35.08    1.09
  -3   1   1   34.65    1.10
   2  -1  -1    0.02    0.02
   2  -1  -1    0.02    0.02
   2  -1  -1    0.05    0.02
  -2   1   1    0.00    0.02
  -2   1   1    0.02    0.02
  -2   1   1    0.00    0.02
  -2   1   1    0.01    0.02
   1  -1  -1  141.47    4.42
   1  -1  -1  137.92    4.41
   1  -1  -1  131.79    4.40
  -1   1   1  140.16    4.41
  -1   1   1  138.39    4.40
  -1   1   1  143.84    4.41
  -1   1   1  135.89    4.40
   0  -1  -1   65.91    2.12
   0   1   1   66.97    2.11
   0   1   1   64.24    2.11
   0   1   1   68.64    2.12
   1   1   1   44.58    1.43
   1   1   1   45.04    1.43
  -2  -1  -1    0.47    0.02
  -2  -1  -1    0.48    0.03
  -2  -1  -1    0.47    0.03
   2   1   1    0.48    0.04
   2   1   1    0.51    0.02
   2   1   1    0.48    0.02
  -3  -1  -1   59.37    1.92
  -3  -1  -1   60.25    1.93
   3   1   1   58.55    1.91
   3   1   1   62.62    1.91
   3   1   1   59.72    1.93
  -4  -1  -1    4.18    0.17
  -4  -1  -1    4.40    0.17
   4   1   1    4.19    0.18
   4   1   1    4.51    0.16
   4   1   1    4.65    0.16
  -5  -1  -1   34.12    1.08
  -5  -1  -1   32.40    1.08
   5   1   1   32.53    1.09
   5   1   1   32.67    1.06
  -6  -1  -1   14.07    0.51
  -6  -1  -1   14.36    0.51
   6   1   1   15.45    0.49
   6   1   1   14.26    0.52
  -7  -1  -1    7.36    0.30
  -7  -1  -1    7.77    0.31
   7   1   1    7.98    0.32
   7   1   1    7.13    0.27
  -8  -1  -1    1.32    0.14
  -8  -1  -1    1.39    0.14
   8   1   1    1.19    0.09
   8   1   1    1.23    0.16
  -9  -1  -1    4.76    0.30
  -9  -1  -1    4.96    0.27
  -9  -1  -1    5.07    0.28
   9   1   1    4.94    0.29
   9   1   1    4.45    0.20
   8  -2  -1    1.28    0.13
  -8   2   1    1.41    0.17
   7  -2  -1   22.31    0.75
  -7   2   1   21.97    0.78
   6  -2  -1    3.89    0.18
   6  -2  -1    4.41    0.20
  -6   2   1    4.05    0.20
  -6   2   1    4.23    0.21
   5  -2  -1    2.90    0.13
   5  -2  -1    2.83    0.14
  -5   2   1    2.73    0.15
  -5   2   1    2.90    0.15
   4  -2  -1    0.15    0.04
   4  -2  -1    0.28    0.06
   4  -2  -1    0.28    0.05
  -4   2   1    0.19    0.04
  -4   2   1    0.18    0.05
  -4   2   1    0.22    0.05
  -4   2   1    0.15    0.05
   3  -2  -1    0.71    0.06
   3  -2  -1    0.82    0.06
   3  -2  -1    0.72    0.06
  -3   2   1    0.72    0.06
  -3   2   1    0.80    0.06
  -3   2   1    0.66    0.06
  -3   2   1    0.71    0.05
   2  -2  -1   19.93    0.65
   2  -2  -1   19.96    0.66
   2  -2  -1   20.65    0.65
  -2   2   1   20.47    0.66
  -2   2   1   19.98    0.65
  -2   2   1   19.65    0.66
  -2   2   1   19.87    0.65
   1  -2  -1    8.84    0.30
   1  -2  -1    9.20    0.29
   1  -2  -1    8.87    0.29
  -1   2   1    8.70    0.29
  -1   2   1    8.96    0.30
  -1   2   1    8.55    0.30
   0  -2  -1   54.02    1.74
   0  -2  -1   54.53    1.74
   0   2   1   51.70    1.74
   0   2   1   57.79    1.74
   0   2   1   55.20    1.74
  -1  -2  -1   24.79    0.81
   1   2   1   24.59    0.81
   1   2   1   26.28    0.80
   1   2   1   24.76    0.81
  -2  -2  -1   34.91    1.16
  -2  -2  -1   37.82    1.17
  -2  -2  -1   36.73    1.16
   2   2   1   36.33    1.17
   2   2   1   37.31    1.17
   2   2   1   35.55    1.16
  -3  -2  -1   43.53    1.43
  -3  -2  -1   44.30    1.44
  -3  -2  -1   43.70    1.43
   3   2   1   44.89    1.45
   3   2   1   45.97    1.43
   3   2   1   45.80    1.42
   3   2   1   45.05    1.42
  -4  -2  -1    9.53    0.35
  -4  -2  -1   10.28    0.34
   4   2   1   10.29    0.33
   4   2   1   10.81    0.33
   4   2   1    9.71    0.36
  -5  -2  -1    2.77    0.12
  -5  -2  -1    2.92    0.14
   5   2   1    3.02    0.11
   5   2   1    2.81    0.14
  -6  -2  -1    0.30    0.06
  -6  -2  -1    0.28    0.05
   6   2   1    0.24    0.04
   6   2   1    0.33    0.07
  -7  -2  -1   12.40    0.46
  -7  -2  -1   12.52    0.45
   7   2   1   12.80    0.47
   7   2   1   12.62    0.42
  -8  -2  -1    1.46    0.16
  -8  -2  -1    1.76    0.14
  -8  -2  -1    1.67    0.18
   8   2   1    1.63    0.10
   8   2   1    2.08    0.17
  -9  -2  -1    8.54    0.37
  -9  -2  -1    8.75    0.37
  -9  -2  -1    8.91    0.40
   9   2   1    8.29    0.30
   9   2   1    8.33    0.38
   8  -3  -1    0.62    0.12
  -8   3   1    0.64    0.15
   7  -3  -1    0.12    0.08
  -7   3   1    0.04    0.11
   6  -3  -1    6.34    0.26
  -6   3   1    6.44    0.28
   5  -3  -1    1.28    0.12
   5  -3  -1    1.58    0.10
  -5   3   1    1.44    0.11
   4  -3  -1   46.11    1.56
   4  -3  -1   47.11    1.56
  -4   3   1   49.54    1.58
  -4   3   1   49.51    1.58
  -4   3   1   49.06    1.57
  -4   3   1   48.73    1.56
   3  -3  -1    5.22    0.19
   3  -3  -1    5.06    0.20
   3  -3  -1    5.46    0.21
  -3   3   1    5.22    0.21
  -3   3   1    5.47    0.20
  -3   3   1    5.31    0.20
   2  -3  -1   38.45    1.20
   2  -3  -1   37.74    1.20
   2  -3  -1   37.93    1.21
  -2   3   1   37.10    1.21
  -2   3   1   35.39    1.20
  -2   3   1   36.74    1.20
  -2   3   1   37.06    1.20
   1  -3  -1    0.16    0.03
   1  -3  -1    0.15    0.02
   1  -3  -1    0.14    0.03
  -1   3   1    0.09    0.02
  -1   3   1    0.17    0.03
  -1   3   1    0.10    0.02
  -1   3   1    0.11    0.03
   0  -3  -1   37.71    1.18
   0  -3  -1   36.57    1.18
   0   3   1   36.77    1.19
   0   3   1   37.40    1.18
   0   3   1   36.26    1.18
  -1  -3  -1    0.46    0.03
  -1  -3  -1    0.55    0.04
  -1  -3  -1    0.44    0.02
   1   3   1    0.53    0.04
   1   3   1    0.47    0.03
  -2  -3  -1   85.99    2.82
  -2  -3  -1   88.37    2.83
  -2  -3  -1   90.80    2.82
  -2  -3  -1   87.45    2.81
   2   3   1   90.11    2.82
   2   3   1   88.45    2.82
   2   3   1   88.97    2.83
  -3  -3  -1   10.06    0.32
  -3  -3  -1    9.41    0.32
  -3  -3  -1    9.88    0.33
  -3  -3  -1    9.29    0.34
   3   3   1   10.30    0.32
   3   3   1    9.62    0.34
  -4  -3  -1    9.78    0.35
  -4  -3  -1   10.55    0.37
  -4  -3  -1   10.49    0.36
   4   3   1   10.95    0.38
   4   3   1   11.30    0.35
  -5  -3  -1    5.31    0.20
  -5  -3  -1    4.60    0.20
   5   3   1    5.48    0.18
   5   3   1    5.60    0.18
   5   3   1    4.88    0.22
  -6  -3  -1   15.62    0.54
  -6  -3  -1   15.56    0.55
   6   3   1   15.68    0.56
   6   3   1   16.39    0.52
  -7  -3  -1    0.74    0.11
  -7  -3  -1    0.66    0.08
  -7  -3  -1    0.78    0.10
   7   3   1    0.75    0.10
   7   3   1    0.80    0.05
  -8  -3  -1    0.01    0.09
  -8  -3  -1    0.01    0.07
  -8  -3  -1    0.05    0.10
   8   3   1    0.04    0.03
   8   3   1    0.00    0.09
  -9  -3  -1    0.09    0.12
  -9  -3  -1    0.12    0.11
   9   3   1    0.08    0.04
   9   3   1    0.06    0.11
   8  -4  -1    0.40    0.13
   7  -4  -1   15.20    0.54
  -7   4   1   14.65    0.57
   6  -4  -1    0.06    0.07
  -6   4   1    0.01    0.08
   5  -4  -1    1.33    0.11
  -5   4   1    1.18    0.10
  -5   4   1    1.31    0.12
   4  -4  -1   21.52    0.71
  -4   4   1   20.80    0.72
  -4   4   1   21.56    0.71
  -4   4   1   20.50    0.70
   3  -4  -1    9.93    0.34
   3  -4  -1    9.34    0.35
   3  -4  -1    9.55    0.34
  -3   4   1    9.49    0.35
  -3   4   1   10.02    0.34
  -3   4   1    9.39    0.34
  -3   4   1   10.32    0.35
   2  -4  -1    1.18    0.08
   2  -4  -1    1.12    0.07
   2  -4  -1    1.21    0.06
  -2   4   1    1.24    0.08
  -2   4   1    1.04    0.07
  -2   4   1    1.08    0.07
  -2   4   1    1.21    0.08
   1  -4  -1   18.80    0.60
   1  -4  -1   18.43    0.60
   1  -4  -1   18.28    0.61
  -1   4   1   19.13    0.61
  -1   4   1   18.28    0.61
  -1   4   1   17.72    0.60
   0  -4  -1    4.68    0.18
   0  -4  -1    5.24    0.18
   0   4   1    4.81    0.18
   0   4   1    5.30    0.18
   0   4   1    5.06    0.17
  -1  -4  -1   23.08    0.78
  -1  -4  -1   24.99    0.78
  -1  -4  -1   24.07    0.79
   1   4   1   24.99    0.78
   1   4   1   23.19    0.80
   1   4   1   24.76    0.78
   1   4   1   25.48    0.78
  -2  -4  -1   77.81    2.48
  -2  -4  -1   78.73    2.46
  -2  -4  -1   75.40    2.46
   2   4   1   75.08    2.48
   2   4   1   79.05    2.48
   2   4   1   79.14    2.47
  -3  -4  -1    0.09    0.02
  -3  -4  -1    0.10    0.03
  -3  -4  -1    0.12    0.02
  -3  -4  -1    0.09    0.03
   3   4   1    0.10    0.03
   3   4   1    0.09    0.03
  -4  -4  -1   10.68    0.38
  -4  -4  -1   10.88    0.37
  -4  -4  -1   10.84    0.39
  -4  -4  -1   10.76    0.37
   4   4   1   12.04    0.37
   4   4   1   11.18    0.39
  -5  -4  -1   11.50    0.38
  -5  -4  -1   10.74    0.37
  -5  -4  -1   10.41    0.40
   5   4   1   10.53    0.39
  -6  -4  -1    7.89    0.32
  -6  -4  -1    8.06    0.29
  -6  -4  -1    7.80    0.30
   6   4   1    7.75    0.32
  -7  -4  -1    3.12    0.18
  -7  -4  -1    3.00    0.16
  -7  -4  -1    2.96    0.15
   7   4   1    2.98    0.18
  -8  -4  -1    2.34    0.15
  -8  -4  -1    2.38    0.18
  -8  -4  -1    2.77    0.18
   8   4   1    2.61    0.18
  -9  -4  -1    0.19    0.10
  -9  -4  -1    0.36    0.13
  -9  -4  -1    0.31    0.14
   9   4   1    0.31    0.13
   7  -5  -1    8.06    0.34
  -7   5   1    7.52    0.36
   6  -5  -1    0.30    0.09
  -6   5   1    0.23    0.09
   5  -5  -1    0.80    0.10
  -5   5   1    0.75    0.09
  -5   5   1    0.84    0.11
   4  -5  -1    0.33    0.07
  -4   5   1    0.43    0.08
  -4   5   1    0.27    0.06
  -4   5   1    0.33    0.07
   3  -5  -1   25.00    0.80
   3  -5  -1   23.19    0.81
  -3   5   1   24.29    0.81
  -3   5   1   23.91    0.80
  -3   5   1   24.38    0.80
   2  -5  -1    0.55    0.06
   2  -5  -1    0.66    0.07
   2  -5  -1    0.61    0.07
  -2   5   1    0.81    0.07
  -2   5   1    0.69    0.06
  -2   5   1    0.56    0.07
   1  -5  -1    0.33    0.04
   1  -5  -1    0.22    0.04
   1  -5  -1    0.35    0.05
  -1   5   1    0.29    0.04
  -1   5   1    0.37    0.04
  -1   5   1    0.27    0.05
   0  -5  -1   27.14    0.90
   0  -5  -1   27.33    0.89
   0   5   1   27.99    0.88
   0   5   1   28.12    0.90
   0   5   1   26.89    0.88
   0   5   1   27.55    0.89
  -1  -5  -1    1.06    0.06
  -1  -5  -1    1.05    0.06
  -1  -5  -1    1.04    0.07
   1   5   1    1.32    0.06
   1   5   1    1.22    0.07
   1   5   1    1.23    0.05
   1   5   1    1.24    0.05
  -2  -5  -1    1.68    0.07
  -2  -5  -1    1.59    0.09
  -2  -5  -1    1.82    0.07
   2   5   1    1.90    0.09
   2   5   1    1.88    0.07
  -3  -5  -1   43.27    1.36
  -3  -5  -1   43.51    1.36
  -3  -5  -1   40.61    1.38
  -3  -5  -1   43.06    1.37
   3   5   1   43.36    1.38
   3   5   1   41.45    1.37
  -4  -5  -1    5.16    0.19
  -4  -5  -1    5.69    0.20
  -4  -5  -1    5.36    0.19
  -4  -5  -1    5.56    0.22
   4   5   1    5.64    0.20
   4   5   1    4.97    0.21
  -5  -5  -1    1.45    0.11
  -5  -5  -1    1.33    0.08
  -5  -5  -1    1.37    0.09
   5   5   1    1.54    0.10
  -6  -5  -1    0.74    0.08
  -6  -5  -1    0.71    0.10
  -6  -5  -1    0.81    0.07
   6   5   1    0.68    0.09
  -7  -5  -1    0.27    0.09
  -7  -5  -1    0.37    0.09
  -7  -5  -1    0.32    0.06
   7   5   1    0.32    0.08
  -8  -5  -1   -0.04    0.09
  -8  -5  -1    0.02    0.09
  -8  -5  -1    0.00    0.07
   8   5   1    0.00    0.08
  -9  -5  -1    0.16    0.10
  -9  -5  -1    0.02    0.14
   9   5   1    0.03    0.13
  -7   6   1    0.16    0.13
  -6   6   1    3.70    0.23
  -5   6   1    2.98    0.19
  -5   6   1    2.93    0.17
  -4   6   1    0.13    0.08
  -4   6   1    0.07    0.06
   3  -6  -1    1.84    0.13
  -3   6   1    2.03    0.12
  -3   6   1    1.80    0.11
  -3   6   1    1.85    0.12
   2  -6  -1    1.74    0.11
  -2   6   1    1.80    0.10
  -2   6   1    1.77    0.11
  -2   6   1    1.85    0.10
   1  -6  -1   11.21    0.37
   1  -6  -1   10.98    0.39
  -1   6   1   10.68    0.37
  -1   6   1   11.11    0.38
  -1   6   1   10.99    0.39
   0  -6  -1   21.24    0.68
   0  -6  -1   20.86    0.69
   0   6   1   20.60    0.70
   0   6   1   20.68    0.68
   0   6   1   20.92    0.67
   0   6   1   20.45    0.68
  -1  -6  -1    1.13    0.07
  -1  -6  -1    1.30    0.08
   1   6   1    1.32    0.06
   1   6   1    1.34    0.05
   1   6   1    1.24    0.08
   1   6   1    1.30    0.05
  -2  -6  -1    0.03    0.03
  -2  -6  -1    0.03    0.04
  -2  -6  -1    0.02    0.02
   2   6   1    0.02    0.02
   2   6   1    0.00    0.03
  -3  -6  -1   44.43    1.48
  -3  -6  -1   44.11    1.50
  -3  -6  -1   46.61    1.48
  -3  -6  -1   45.44    1.48
   3   6   1   47.80    1.49
   3   6   1   48.03    1.48
  -4  -6  -1    0.13    0.04
  -4  -6  -1    0.05    0.05
  -4  -6  -1    0.05    0.03
   4   6   1    0.09    0.04
  -5  -6  -1    3.15    0.17
  -5  -6  -1    2.92    0.14
  -5  -6  -1    2.91    0.12
   5   6   1    2.95    0.16
  -6  -6  -1    0.01    0.06
  -6  -6  -1    0.02    0.04
   6   6   1    0.05    0.06
  -7  -6  -1    0.50    0.11
  -7  -6  -1    0.74    0.08
   7   6   1    0.53    0.11
  -8  -6  -1    0.80    0.10
  -8  -6  -1    0.69    0.14
   8   6   1    0.69    0.13
  -9  -6  -1    0.13    0.13
  -9  -6  -1    0.07    0.09
   9   6   1    0.07    0.12
  -6   7   1    0.03    0.13
  -5   7   1    4.79    0.23
  -5   7   1    4.95    0.25
  -4   7   1    0.24    0.09
  -4   7   1    0.21    0.06
   3  -7  -1    0.64    0.09
  -3   7   1    0.64    0.07
  -3   7   1    0.51    0.08
  -3   7   1    0.53    0.09
   2  -7  -1    0.00    0.05
  -2   7   1    0.00    0.05
  -2   7   1    0.03    0.05
  -2   7   1    0.00    0.04
   1  -7  -1   15.55    0.54
  -1   7   1   15.19    0.55
  -1   7   1   16.68    0.53
  -1   7   1   15.42    0.52
   0  -7  -1    5.49    0.21
   0  -7  -1    5.26    0.21
   0   7   1    5.14    0.22
   0   7   1    5.71    0.20
   0   7   1    5.30    0.19
  -1  -7  -1    7.44    0.27
  -1  -7  -1    6.85    0.26
   1   7   1    7.59    0.28
   1   7   1    7.62    0.24
   1   7   1    7.68    0.24
   1   7   1    6.75    0.27
  -2  -7  -1    4.14    0.17
  -2  -7  -1    4.07    0.16
   2   7   1    4.13    0.18
  -3  -7  -1    0.09    0.05
  -3  -7  -1    0.07    0.03
   3   7   1    0.08    0.05
  -4  -7  -1    0.04    0.03
  -4  -7  -1    0.02    0.05
   4   7   1    0.04    0.04
  -5  -7  -1    0.00    0.06
  -5  -7  -1    0.01    0.03
  -6  -7  -1    3.34    0.15
  -6  -7  -1    3.33    0.19
  -7  -7  -1    1.46    0.11
  -7  -7  -1    1.29    0.14
  -8  -7  -1    2.69    0.21
  -8  -7  -1    2.59    0.16
  -9  -7  -1    0.03    0.13
  -9  -7  -1    0.01    0.09
  -5   8   1    0.15    0.12
  -5   8   1    0.49    0.11
  -4   8   1   10.36    0.40
  -4   8   1   10.41    0.39
   3  -8  -1    0.73    0.11
  -3   8   1    0.63    0.10
  -3   8   1    0.75    0.10
  -3   8   1    0.64    0.07
   2  -8  -1    0.96    0.12
  -2   8   1    0.98    0.08
  -2   8   1    1.02    0.11
  -2   8   1    1.10    0.12
   1  -8  -1    4.54    0.20
  -1   8   1    4.45    0.21
  -1   8   1    4.73    0.18
   0  -8  -1    0.08    0.05
   0   8   1    0.05    0.06
   0   8   1    0.05    0.03
  -1  -8  -1    0.45    0.07
  -1  -8  -1    0.47    0.06
   1   8   1    0.52    0.04
   1   8   1    0.39    0.07
  -2  -8  -1    0.68    0.09
  -2  -8  -1    0.77    0.07
   2   8   1    0.64    0.08
  -3  -8  -1    8.19    0.32
  -3  -8  -1    8.29    0.30
   3   8   1    8.80    0.32
  -4  -8  -1   20.08    0.66
  -4  -8  -1   19.75    0.69
   4   8   1   19.94    0.68
  -5  -8  -1    7.20    0.30
  -5  -8  -1    6.82    0.26
   5   8   1    7.26    0.28
  -6  -8  -1    4.11    0.17
  -6  -8  -1    3.79    0.21
  -7  -8  -1   -0.01    0.09
  -7  -8  -1    0.02    0.05
  -8  -8  -1    8.22    0.38
  -8  -8  -1    8.00    0.32
  -5   9   1    0.48    0.12
  -4   9   1    6.06    0.27
  -3   9   1    0.08    0.06
  -3   9   1    0.04    0.09
   2  -9  -1    0.70    0.11
  -2   9   1    0.86    0.09
  -2   9   1    0.79    0.11
   1  -9  -1    0.29    0.08
  -1   9   1    0.29    0.09
  -1   9   1    0.34    0.05
   0  -9  -1    8.73    0.33
   0   9   1    8.67    0.34
   0   9   1    8.45    0.30
  -1  -9  -1   10.88    0.40
   1   9   1   11.07    0.42
   1   9   1   11.26    0.36
  -2  -9  -1    0.02    0.04
  -2  -9  -1    0.00    0.06
   2   9   1    0.01    0.06
  -3  -9  -1   -0.02    0.06
  -3  -9  -1    0.04    0.04
   3   9   1    0.04    0.07
  -4  -9  -1   15.04    0.54
  -4  -9  -1   14.41    0.50
   4   9   1   14.75    0.53
  -5  -9  -1    2.00    0.15
  -5  -9  -1    1.77    0.11
   5   9   1    2.06    0.14
  -6  -9  -1   12.40    0.43
  -6  -9  -1   12.30    0.48
  -7  -9  -1    1.63    0.13
  -7  -9  -1    1.82    0.18
  -8  -9  -1    2.48    0.17
  -8  -9  -1    2.90    0.25
  -4  10   1    0.85    0.12
  -3  10   1   -0.04    0.11
  -3  10   1    0.00    0.08
   2 -10  -1    1.00    0.13
  -2  10   1    0.84    0.09
  -2  10   1    0.78    0.12
   1 -10  -1    0.36    0.10
  -1  10   1    0.45    0.06
  -1  10   1    0.40    0.09
   0 -10  -1    0.23    0.08
   0  10   1    0.18    0.09
   0  10   1    0.19    0.04
  -1 -10  -1    2.67    0.15
   1  10   1    2.42    0.16
   1  10   1    2.67    0.10
  -2 -10  -1    0.25    0.06
   2  10   1    0.21    0.08
  -3 -10  -1    0.76    0.09
  -3 -10  -1    0.99    0.12
   3  10   1    0.80    0.10
  -4 -10  -1    0.98    0.12
  -4 -10  -1    0.91    0.09
   4  10   1    1.00    0.11
  -5 -10  -1    0.29    0.11
  -5 -10  -1    0.22    0.06
   5  10   1    0.17    0.09
  -6 -10  -1    3.45    0.21
  -6 -10  -1    3.05    0.16
  -7 -10  -1    2.78    0.16
  -7 -10  -1    2.82    0.24
  -8 -10  -1    0.37    0.17
  -8 -10  -1    0.46    0.11
  -3  11   1    0.05    0.14
  -3  11   1    0.03    0.10
   2 -11  -1    2.28    0.22
  -2  11   1    2.14    0.20
  -2  11   1    1.89    0.14
   1 -11  -1    6.52    0.30
  -1  11   1    6.58    0.31
  -1  11   1    5.94    0.24
   0 -11  -1    1.02    0.12
   0  11   1    0.86    0.13
   0  11   1    1.05    0.07
  -1 -11  -1    2.88    0.17
   1  11   1    2.73    0.20
  -2 -11  -1    0.23    0.08
   2  11   1    0.34    0.10
  -3 -11  -1    0.49    0.08
   3  11   1    0.35    0.10
  -4 -11  -1    1.33    0.12
  -4 -11  -1    1.39    0.16
   4  11   1    1.20    0.15
  -5 -11  -1    9.09    0.39
  -5 -11  -1    9.26    0.34
   5  11   1    8.49    0.37
  -6 -11  -1    0.23    0.12
  -6 -11  -1    0.16    0.08
  -7 -11  -1    0.79    0.18
  -7 -11  -1    0.84    0.11
   1 -12  -1    2.68    0.23
  -1  12   1    2.81    0.24
  -1  12   1    2.78    0.14
   0 -12  -1    3.77    0.23
   0  12   1    3.79    0.15
   0  12   1    4.32    0.26
  -1 -12  -1    2.66    0.19
   1  12   1    2.55    0.21
  -2 -12  -1    8.42    0.35
   2  12   1    8.81    0.38
  -3 -12  -1    0.46    0.09
   3  12   1    0.68    0.13
  -4 -12  -1    0.52    0.10
   4  12   1    0.45    0.12
  -5 -12  -1    4.03    0.20
   5  12   1    3.62    0.26
  -6 -12  -1    1.70    0.16
  -6 -12  -1    1.89    0.21
   0 -13  -1    0.24    0.14
  -1 -13  -1    0.45    0.14
   1  13   1    0.57    0.15
  -2 -13  -1    3.78    0.23
   2  13   1    3.89    0.27
  -3 -13  -1    3.95    0.24
   3  13   1    4.38    0.28
  -4 -13  -1    0.55    0.11
   4  13   1    0.60    0.15
  -2 -13   2    0.03    0.15
  -5 -12   2    0.17    0.15
  -5 -12   2    0.14    0.11
   4  12  -2    0.39    0.14
  -4 -12   2    0.41    0.15
  -4 -12   2    0.27    0.11
   3  12  -2    0.51    0.14
  -3 -12   2    0.59    0.12
   2  12  -2    4.42    0.28
  -2 -12   2    4.89    0.26
   1  12  -2    0.14    0.12
   1  12  -2    0.07    0.05
  -1 -12   2    0.13    0.11
   0  12  -2    0.31    0.15
   0  12  -2    0.18    0.06
   0 -12   2    0.24    0.13
  -1  12  -2    0.37    0.12
  -1  12  -2    0.28    0.16
  -6 -11   2    0.66    0.16
  -6 -11   2    0.63    0.12
  -5 -11   2    1.37    0.18
  -5 -11   2    0.96    0.13
   4  11  -2    4.62    0.25
  -4 -11   2    4.26    0.22
  -4 -11   2    4.14    0.25
   3  11  -2    0.10    0.10
  -3 -11   2    0.11    0.08
  -3 -11   2    0.12    0.11
   2  11  -2    0.04    0.04
   2  11  -2    0.00    0.09
  -2 -11   2   -0.03    0.10
  -2 -11   2    0.02    0.08
   1  11  -2    1.24    0.09
   1  11  -2    1.13    0.14
  -1 -11   2    1.12    0.13
   0  11  -2    1.81    0.19
   0  11  -2    1.99    0.12
   0 -11   2    1.40    0.16
  -1  11  -2    0.73    0.09
  -1  11  -2    0.66    0.14
   1 -11   2    0.56    0.14
  -2  11  -2    0.46    0.09
  -2  11  -2    0.46    0.15
  -3  11  -2    3.27    0.27
  -7 -10   2    0.56    0.16
  -7 -10   2    0.44    0.11
  -6 -10   2    0.42    0.13
  -6 -10   2    0.42    0.10
  -5 -10   2    0.14    0.08
  -5 -10   2    0.12    0.10
   4  10  -2    4.23    0.22
  -4 -10   2    4.09    0.21
  -4 -10   2    4.27    0.24
   3  10  -2    0.12    0.08
  -3 -10   2    0.17    0.10
  -3 -10   2    0.12    0.07
   2  10  -2   12.81    0.43
   2  10  -2   12.44    0.49
  -2 -10   2   13.05    0.49
  -2 -10   2   13.25    0.48
   1  10  -2    0.07    0.08
   1  10  -2    0.05    0.04
  -1 -10   2    0.08    0.09
  -1 -10   2    0.06    0.07
   0  10  -2    6.81    0.31
   0  10  -2    6.90    0.26
   0 -10   2    6.97    0.30
  -1  10  -2    1.65    0.11
  -1  10  -2    1.72    0.17
   1 -10   2    1.84    0.17
  -2  10  -2    4.09    0.19
  -2  10  -2    4.26    0.25
  -3  10  -2    0.43    0.09
  -3  10  -2    0.28    0.13
  -4  10  -2    2.05    0.19
  -7  -9   2    5.45    0.26
  -7  -9   2    5.62    0.32
  -6  -9   2    0.09    0.11
  -6  -9   2    0.03    0.07
  -5  -9   2    0.31    0.11
  -5  -9   2    0.30    0.08
   4   9  -2    0.34    0.09
  -4  -9   2    0.27    0.09
  -4  -9   2    0.39    0.08
   3   9  -2    5.79    0.26
  -3  -9   2    6.24    0.25
  -3  -9   2    6.36    0.27
   2   9  -2    0.83    0.11
   2   9  -2    0.64    0.06
  -2  -9   2    0.80    0.10
  -2  -9   2    0.80    0.09
   1   9  -2   15.70    0.57
   1   9  -2   15.50    0.53
  -1  -9   2   15.94    0.56
  -1  -9   2   15.83    0.56
   0   9  -2    0.07    0.07
   0  -9   2    0.07    0.08
   0  -9   2    0.10    0.07
  -1   9  -2    3.48    0.20
  -1   9  -2    3.30    0.16
   1  -9   2    3.49    0.20
  -2   9  -2   14.58    0.55
  -2   9  -2   14.42    0.51
   2  -9   2   15.03    0.55
  -3   9  -2    0.06    0.07
  -3   9  -2    0.01    0.09
  -4   9  -2    1.50    0.15
  -4   9  -2    1.20    0.16
  -5   9  -2    0.01    0.11
  -8  -8   2    4.59    0.31
  -8  -8   2    4.04    0.24
  -7  -8   2   13.73    0.55
  -7  -8   2   13.32    0.50
  -6  -8   2    0.89    0.10
  -6  -8   2    0.88    0.13
  -5  -8   2    2.17    0.16
  -5  -8   2    1.88    0.13
   4   8  -2    3.95    0.19
  -4  -8   2    3.45    0.19
  -4  -8   2    3.82    0.17
   3   8  -2    7.53    0.30
   3   8  -2    7.44    0.25
  -3  -8   2    8.00    0.31
  -3  -8   2    7.32    0.29
   2   8  -2    0.78    0.09
   2   8  -2    0.74    0.06
  -2  -8   2    0.90    0.10
  -2  -8   2    0.87    0.09
   1   8  -2   27.13    0.91
   1   8  -2   26.53    0.88
  -1  -8   2   26.92    0.90
  -1  -8   2   26.85    0.91
   0   8  -2    0.05    0.04
   0   8  -2    0.00    0.06
   0  -8   2    0.05    0.06
   0  -8   2    0.03    0.06
  -1   8  -2    0.14    0.07
  -1   8  -2    0.15    0.05
   1  -8   2    0.20    0.07
   1  -8   2    0.18    0.07
  -2   8  -2    7.45    0.32
   2  -8   2    7.98    0.32
  -3   8  -2    0.07    0.08
  -3   8  -2    0.03    0.06
  -4   8  -2    0.22    0.10
  -4   8  -2    0.29    0.09
  -5   8  -2    1.17    0.14
  -8  -7   2    5.84    0.27
  -8  -7   2    5.43    0.31
  -7  -7   2    0.46    0.12
  -7  -7   2    0.48    0.09
  -6  -7   2    7.48    0.29
  -6  -7   2    7.56    0.33
  -5  -7   2    5.00    0.24
  -5  -7   2    4.59    0.20
   4   7  -2   19.96    0.66
   4   7  -2   21.24    0.69
  -4  -7   2   20.40    0.71
  -4  -7   2   19.97    0.68
   3   7  -2    7.12    0.29
   3   7  -2    7.61    0.26
  -3  -7   2    7.85    0.28
  -3  -7   2    7.64    0.30
   2   7  -2    1.03    0.06
   2   7  -2    1.05    0.09
  -2  -7   2    0.85    0.09
  -2  -7   2    1.02    0.08
   1   7  -2    0.77    0.08
   1   7  -2    0.75    0.06
  -1  -7   2    0.64    0.08
  -1  -7   2    0.64    0.08
   0   7  -2   13.76    0.47
   0   7  -2   13.27    0.44
   0  -7   2   13.03    0.46
   0  -7   2   12.49    0.46
  -1   7  -2   12.01    0.42
  -1   7  -2   12.59    0.44
   1  -7   2   11.42    0.43
   1  -7   2   12.31    0.43
  -2   7  -2   13.77    0.46
  -2   7  -2   13.72    0.49
   2  -7   2   12.68    0.48
   2  -7   2   13.10    0.48
  -3   7  -2    7.46    0.29
  -3   7  -2    7.32    0.30
  -4   7  -2    0.89    0.11
  -4   7  -2    0.81    0.11
  -4   7  -2    0.76    0.09
  -5   7  -2    2.22    0.18
  -6   7  -2    0.04    0.12
  -9  -6   2   -0.02    0.12
  -8  -6   2   14.00    0.58
  -8  -6   2   14.84    0.54
  -7  -6   2    2.78    0.19
  -7  -6   2    2.33    0.15
   6   6  -2    0.43    0.04
  -6  -6   2    0.51    0.11
  -6  -6   2    0.40    0.07
   5   6  -2    3.50    0.13
  -5  -6   2    3.65    0.16
  -5  -6   2    3.08    0.18
   4   6  -2    4.85    0.20
   4   6  -2    4.58    0.17
  -4  -6   2    4.70    0.21
  -4  -6   2    4.80    0.19
   3   6  -2    8.43    0.28
  -3  -6   2    8.55    0.32
  -3  -6   2    8.45    0.30
   2   6  -2    6.51    0.23
  -2  -6   2    6.27    0.25
  -2  -6   2    6.88    0.24
   1   6  -2    1.53    0.10
   1   6  -2    1.57    0.08
  -1  -6   2    1.55    0.09
  -1  -6   2    1.69    0.10
   0   6  -2    5.43    0.22
   0   6  -2    5.32    0.20
   0  -6   2    5.64    0.21
   0  -6   2    5.14    0.21
  -1   6  -2    6.02    0.24
  -1   6  -2    6.26    0.22
  -1   6  -2    5.66    0.22
   1  -6   2    6.16    0.24
   1  -6   2    5.98    0.24
  -2   6  -2    5.71    0.22
  -2   6  -2    5.90    0.22
  -2   6  -2    5.89    0.24
   2  -6   2    6.19    0.24
   2  -6   2    5.74    0.24
  -3   6  -2    3.25    0.15
  -3   6  -2    3.42    0.16
  -3   6  -2    3.49    0.17
   3  -6   2    3.21    0.19
   3  -6   2    3.36    0.17
  -4   6  -2    2.04    0.14
  -4   6  -2    1.99    0.13
  -4   6  -2    2.08    0.15
  -5   6  -2    0.01    0.08
  -6   6  -2    1.84    0.18
   6  -6   2    1.97    0.18
  -7   6  -2    0.03    0.15
   7  -6   2   -0.03    0.12
  -9  -5   2    2.00    0.21
  -9  -5   2    2.06    0.25
   8   5  -2    1.96    0.09
  -8  -5   2    2.21    0.18
  -8  -5   2    2.07    0.21
   7   5  -2    5.50    0.20
  -7  -5   2    5.69    0.25
  -7  -5   2    5.68    0.27
   6   5  -2    1.58    0.08
  -6  -5   2    1.77    0.15
  -6  -5   2    1.52    0.12
   5   5  -2    1.64    0.08
  -5  -5   2    1.65    0.10
  -5  -5   2    1.70    0.13
   4   5  -2   26.93    0.94
   4   5  -2   29.96    0.93
  -4  -5   2   28.53    0.94
  -4  -5   2   29.40    0.97
   3   5  -2    1.43    0.09
   3   5  -2    1.51    0.07
   3   5  -2    1.55    0.07
  -3  -5   2    1.51    0.10
  -3  -5   2    1.26    0.08
   2   5  -2    0.04    0.02
   2   5  -2    0.07    0.04
   2   5  -2    0.05    0.03
  -2  -5   2    0.02    0.03
  -2  -5   2    0.03    0.04
   1   5  -2    1.22    0.08
   1   5  -2    1.13    0.06
  -1  -5   2    1.43    0.07
  -1  -5   2    1.03    0.08
  -1  -5   2    1.24    0.08
   0   5  -2    0.17    0.05
   0   5  -2    0.20    0.03
   0   5  -2    0.27    0.03
   0  -5   2    0.18    0.03
   0  -5   2    0.18    0.04
   0  -5   2    0.13    0.04
  -1   5  -2   32.58    1.07
  -1   5  -2   33.30    1.08
  -1   5  -2   31.17    1.09
  -1   5  -2   33.88    1.07
   1  -5   2   32.94    1.08
   1  -5   2   34.56    1.08
   1  -5   2   32.78    1.08
  -2   5  -2   65.72    2.04
  -2   5  -2   61.76    2.05
  -2   5  -2   61.81    2.04
   2  -5   2   62.44    2.05
   2  -5   2   66.84    2.04
   2  -5   2   61.92    2.05
  -3   5  -2    0.24    0.06
  -3   5  -2    0.23    0.06
  -3   5  -2    0.15    0.05
   3  -5   2    0.14    0.05
   3  -5   2    0.18    0.06
   3  -5   2    0.16    0.06
  -4   5  -2   13.72    0.47
  -4   5  -2   13.15    0.47
   4  -5   2   13.20    0.47
   4  -5   2   13.06    0.47
  -5   5  -2    7.40    0.31
   5  -5   2    7.97    0.30
  -6   5  -2    1.45    0.15
   6  -5   2    1.46    0.13
  -7   5  -2    0.07    0.12
   7  -5   2    0.08    0.09
   9   4  -2    6.74    0.24
  -9  -4   2    6.76    0.33
  -9  -4   2    6.18    0.36
   8   4  -2    2.13    0.11
  -8  -4   2    2.16    0.19
  -8  -4   2    2.23    0.17
   7   4  -2    3.87    0.16
  -7  -4   2    3.66    0.20
  -7  -4   2    4.10    0.23
  -7  -4   2    3.98    0.20
   6   4  -2    0.94    0.07
  -6  -4   2    1.08    0.11
  -6  -4   2    1.04    0.10
  -6  -4   2    1.01    0.10
   5   4  -2    9.42    0.31
  -5  -4   2    9.02    0.35
  -5  -4   2    9.13    0.33
  -5  -4   2    9.00    0.33
   4   4  -2   16.62    0.55
   4   4  -2   16.12    0.56
  -4  -4   2   17.04    0.57
  -4  -4   2   17.18    0.56
  -4  -4   2   16.95    0.58
   3   4  -2    3.73    0.14
   3   4  -2    3.89    0.15
   3   4  -2    4.00    0.14
  -3  -4   2    3.84    0.15
  -3  -4   2    3.71    0.14
  -3  -4   2    3.24    0.16
   2   4  -2   19.93    0.67
   2   4  -2   20.46    0.66
   2   4  -2   21.12    0.68
  -2  -4   2   20.02    0.67
  -2  -4   2   20.06    0.69
  -2  -4   2   21.57    0.66
   1   4  -2   12.20    0.41
   1   4  -2   12.70    0.43
  -1  -4   2   12.49    0.42
  -1  -4   2   12.25    0.43
  -1  -4   2   12.89    0.42
   0   4  -2    1.18    0.07
   0   4  -2    0.95    0.05
   0   4  -2    1.11    0.09
   0   4  -2    0.95    0.04
   0  -4   2    0.98    0.06
   0  -4   2    1.05    0.06
   0  -4   2    0.86    0.06
  -1   4  -2   28.53    0.96
  -1   4  -2   29.59    0.98
  -1   4  -2   30.03    0.97
  -1   4  -2   30.18    0.96
   1  -4   2   29.67    0.97
   1  -4   2   29.76    0.97
   1  -4   2   30.35    0.97
  -2   4  -2   12.67    0.43
  -2   4  -2   12.81    0.44
  -2   4  -2   12.34    0.44
  -2   4  -2   13.21    0.43
   2  -4   2   13.57    0.44
   2  -4   2   12.74    0.44
   2  -4   2   12.30    0.43
  -3   4  -2    0.48    0.06
  -3   4  -2    0.32    0.05
  -3   4  -2    0.47    0.06
  -3   4  -2    0.36    0.06
   3  -4   2    0.42    0.06
   3  -4   2    0.47    0.07
   3  -4   2    0.48    0.07
  -4   4  -2    0.32    0.06
  -4   4  -2    0.39    0.06
  -4   4  -2    0.25    0.06
  -4   4  -2    0.24    0.07
   4  -4   2    0.31    0.06
   4  -4   2    0.32    0.07
  -5   4  -2    3.99    0.19
   5  -4   2    3.90    0.18
   5  -4   2    3.88    0.19
  -6   4  -2    5.80    0.26
   6  -4   2    5.32    0.23
  -7   4  -2    2.41    0.18
   7  -4   2    2.44    0.16
  -8   4  -2    2.75    0.25
   8  -4   2    3.42    0.20
   9   3  -2    0.51    0.08
  -9  -3   2    0.77    0.16
  -9  -3   2    0.61    0.16
  -9  -3   2    0.70    0.15
   8   3  -2    0.05    0.11
   8   3  -2    0.01    0.05
  -8  -3   2    0.09    0.12
  -8  -3   2    0.07    0.09
  -8  -3   2    0.14    0.11
   7   3  -2    6.49    0.30
   7   3  -2    6.79    0.25
  -7  -3   2    6.44    0.30
  -7  -3   2    6.89    0.28
  -7  -3   2    7.13    0.29
   6   3  -2   10.43    0.41
   6   3  -2   10.56    0.37
  -6  -3   2   11.15    0.40
  -6  -3   2   10.82    0.42
  -6  -3   2   11.17    0.40
   5   3  -2    0.06    0.03
   5   3  -2    0.05    0.06
  -5  -3   2    0.07    0.05
  -5  -3   2    0.06    0.06
  -5  -3   2    0.08    0.04
   4   3  -2    1.15    0.06
   4   3  -2    1.19    0.07
  -4  -3   2    1.26    0.09
  -4  -3   2    1.15    0.07
  -4  -3   2    1.24    0.08
   3   3  -2    1.85    0.08
   3   3  -2    1.57    0.07
   3   3  -2    1.85    0.08
  -3  -3   2    1.67    0.08
  -3  -3   2    1.74    0.09
  -3  -3   2    1.61    0.10
   2   3  -2    4.96    0.17
   2   3  -2    5.37    0.18
  -2  -3   2    4.73    0.19
  -2  -3   2    4.83    0.18
  -2  -3   2    4.98    0.17
   1   3  -2   19.67    0.65
   1   3  -2   20.05    0.64
  -1  -3   2   19.00    0.65
  -1  -3   2   20.21    0.64
  -1  -3   2   19.31    0.64
   0   3  -2    2.43    0.09
   0   3  -2    2.38    0.10
   0   3  -2    2.60    0.10
   0   3  -2    2.53    0.09
   0  -3   2    2.34    0.10
   0  -3   2    2.41    0.09
   0  -3   2    2.35    0.10
  -1   3  -2    5.67    0.19
  -1   3  -2    5.34    0.20
  -1   3  -2    5.67    0.19
  -1   3  -2    5.11    0.19
   1  -3   2    5.06    0.19
   1  -3   2    4.94    0.19
   1  -3   2    5.25    0.19
  -2   3  -2    0.46    0.05
  -2   3  -2    0.49    0.05
  -2   3  -2    0.48    0.06
  -2   3  -2    0.47    0.05
   2  -3   2    0.43    0.05
   2  -3   2    0.52    0.06
   2  -3   2    0.53    0.05
  -3   3  -2   11.51    0.39
  -3   3  -2   11.60    0.39
  -3   3  -2   11.32    0.38
  -3   3  -2   11.15    0.39
   3  -3   2   10.64    0.39
   3  -3   2   11.28    0.39
   3  -3   2   10.94    0.38
  -4   3  -2    0.04    0.04
  -4   3  -2    0.04    0.05
  -4   3  -2    0.03    0.04
  -4   3  -2    0.08    0.06
   4  -3   2    0.04    0.04
   4  -3   2    0.04    0.05
  -5   3  -2   10.28    0.39
  -5   3  -2   10.65    0.39
   5  -3   2   10.38    0.39
   5  -3   2   10.56    0.37
  -6   3  -2    2.01    0.16
  -6   3  -2    2.26    0.15
   6  -3   2    2.18    0.13
   6  -3   2    2.41    0.15
  -7   3  -2    2.21    0.18
   7  -3   2    1.97    0.14
  -8   3  -2    0.12    0.12
   8  -3   2    0.14    0.08
   9   2  -2    0.02    0.07
   9   2  -2   -0.01    0.13
  -9  -2   2    0.02    0.14
  -9  -2   2    0.04    0.15
  -9  -2   2    0.01    0.13
   8   2  -2    0.11    0.06
   8   2  -2    0.16    0.11
  -8  -2   2    0.14    0.10
  -8  -2   2    0.26    0.10
  -8  -2   2    0.12    0.11
   7   2  -2    0.60    0.07
   7   2  -2    0.56    0.10
  -7  -2   2    0.55    0.10
  -7  -2   2    0.52    0.11
  -7  -2   2    0.41    0.09
   6   2  -2   40.18    1.29
   6   2  -2   39.91    1.32
  -6  -2   2   39.88    1.31
  -6  -2   2   38.99    1.31
  -6  -2   2   39.42    1.32
   5   2  -2    2.42    0.11
   5   2  -2    2.16    0.13
  -5  -2   2    2.16    0.12
  -5  -2   2    2.30    0.12
  -5  -2   2    2.43    0.13
   4   2  -2    2.23    0.10
   4   2  -2    2.69    0.10
   4   2  -2    2.49    0.12
  -4  -2   2    2.30    0.11
  -4  -2   2    2.55    0.11
  -4  -2   2    2.43    0.13
   3   2  -2    5.79    0.21
   3   2  -2    6.46    0.21
  -3  -2   2    6.00    0.22
  -3  -2   2    6.15    0.23
  -3  -2   2    6.20    0.22
  -3  -2   2    6.25    0.22
   2   2  -2   24.49    0.80
   2   2  -2   25.45    0.79
  -2  -2   2   24.71    0.79
  -2  -2   2   23.95    0.81
  -2  -2   2   26.08    0.79
  -2  -2   2   22.97    0.80
   1   2  -2    7.16    0.24
   1   2  -2    6.91    0.24
  -1  -2   2    6.75    0.24
  -1  -2   2    7.31    0.23
  -1  -2   2    7.32    0.25
  -1  -2   2    6.89    0.23
   0   2  -2  342.96   10.48
   0   2  -2  327.15   10.52
   0   2  -2  341.40   10.51
   0   2  -2  319.57   10.49
   0  -2   2  352.59   10.50
   0  -2   2  329.31   10.52
   0  -2   2  336.68   10.48
   0  -2   2  289.69   10.49
  -1   2  -2   58.47    1.89
  -1   2  -2   57.67    1.88
  -1   2  -2   60.27    1.88
  -1   2  -2   56.79    1.88
   1  -2   2   61.27    1.88
   1  -2   2   58.32    1.89
   1  -2   2   59.70    1.89
  -2   2  -2   17.98    0.58
  -2   2  -2   17.28    0.59
  -2   2  -2   18.31    0.59
  -2   2  -2   18.69    0.59
   2  -2   2   17.91    0.59
   2  -2   2   17.79    0.59
   2  -2   2   17.00    0.58
  -3   2  -2    6.39    0.23
  -3   2  -2    6.54    0.23
  -3   2  -2    6.42    0.23
  -3   2  -2    6.21    0.23
   3  -2   2    6.20    0.23
   3  -2   2    6.06    0.22
  -4   2  -2    5.79    0.20
  -4   2  -2    5.89    0.22
  -4   2  -2    5.37    0.21
   4  -2   2    5.14    0.21
   4  -2   2    5.18    0.20
  -5   2  -2    5.37    0.22
  -5   2  -2    5.57    0.22
   5  -2   2    4.93    0.22
   5  -2   2    5.33    0.20
  -6   2  -2   13.16    0.47
  -6   2  -2   13.10    0.48
   6  -2   2   12.56    0.45
   6  -2   2   13.24    0.48
  -7   2  -2    3.59    0.20
  -7   2  -2    3.43    0.20
   7  -2   2    3.95    0.21
   7  -2   2    3.57    0.17
  -8   2  -2    1.95    0.19
   8  -2   2    1.92    0.14
  -9  -1   2   -0.01    0.14
   8   1  -2    1.28    0.15
   8   1  -2    1.48    0.12
  -8  -1   2    1.47    0.17
  -8  -1   2    1.23    0.15
  -8  -1   2    1.38    0.16
   7   1  -2    0.83    0.09
   7   1  -2    1.10    0.12
  -7  -1   2    0.70    0.10
  -7  -1   2    0.91    0.12
  -7  -1   2    1.04    0.13
   6   1  -2    6.59    0.27
   6   1  -2    6.22    0.24
  -6  -1   2    6.46    0.27
  -6  -1   2    6.50    0.26
  -6  -1   2    6.68    0.27
   5   1  -2   16.38    0.57
   5   1  -2   15.91    0.55
  -5  -1   2   17.02    0.56
  -5  -1   2   16.54    0.57
  -5  -1   2   15.81    0.56
   4   1  -2   27.41    0.94
   4   1  -2   28.73    0.95
  -4  -1   2   28.94    0.95
  -4  -1   2   28.98    0.95
  -4  -1   2   29.07    0.94
  -4  -1   2   29.90    0.95
   3   1  -2    8.57    0.31
   3   1  -2    9.10    0.29
   3   1  -2    7.61    0.33
   3   1  -2    8.69    0.29
  -3  -1   2    8.14    0.30
  -3  -1   2    9.34    0.31
  -3  -1   2    8.91    0.30
  -3  -1   2    8.95    0.30
   2   1  -2   10.91    0.35
   2   1  -2   10.49    0.36
   2   1  -2   10.63    0.35
  -2  -1   2   10.80    0.35
  -2  -1   2   10.70    0.36
  -2  -1   2   11.01    0.36
  -2  -1   2   10.73    0.36
   1   1  -2    1.41    0.06
   1   1  -2    1.35    0.06
   1   1  -2    1.33    0.06
  -1  -1   2    1.35    0.06
  -1  -1   2    1.29    0.05
  -1  -1   2    1.42    0.06
   0   1  -2   66.30    2.18
   0   1  -2   69.25    2.18
   0   1  -2   67.13    2.17
   0  -1   2   70.18    2.18
   0  -1   2   71.86    2.17
   0  -1   2   65.30    2.18
  -1   1  -2  257.37    8.66
  -1   1  -2  271.66    8.69
  -1   1  -2  275.73    8.70
  -1   1  -2  279.34    8.68
   1  -1   2  272.83    8.71
   1  -1   2  275.70    8.67
   1  -1   2  278.13    8.69
   1  -1   2  270.89    8.69
  -2   1  -2  138.83    4.40
  -2   1  -2  138.12    4.40
  -2   1  -2  140.78    4.40
  -2   1  -2  133.15    4.40
   2  -1   2  139.29    4.40
   2  -1   2  139.41    4.40
   2  -1   2  138.84    4.40
  -3   1  -2    0.63    0.05
  -3   1  -2    0.62    0.05
  -3   1  -2    0.53    0.05
  -3   1  -2    0.59    0.05
   3  -1   2    0.57    0.06
   3  -1   2    0.67    0.04
   3  -1   2    0.69    0.06
  -4   1  -2   68.50    2.09
  -4   1  -2   69.32    2.10
  -4   1  -2   65.62    2.10
  -4   1  -2   61.09    2.10
   4  -1   2   62.20    2.10
   4  -1   2   64.68    2.09
  -5   1  -2    3.07    0.14
  -5   1  -2    3.03    0.15
   5  -1   2    3.17    0.13
   5  -1   2    2.65    0.14
  -6   1  -2   10.64    0.40
  -6   1  -2   10.92    0.41
   6  -1   2   10.87    0.38
   6  -1   2   11.11    0.41
  -7   1  -2    6.01    0.26
  -7   1  -2    6.01    0.27
   7  -1   2    5.85    0.23
   7  -1   2    6.00    0.27
  -8   1  -2    5.62    0.28
  -8   1  -2    6.25    0.28
   8  -1   2    5.54    0.23
   8  -1   2    5.20    0.27
  -9   1  -2    0.38    0.14
   9  -1   2    0.46    0.09
   8   0  -2    2.77    0.16
  -8   0   2    3.06    0.22
   7   0  -2    1.90    0.16
   7   0  -2    2.05    0.12
  -7   0   2    1.86    0.15
  -7   0   2    1.68    0.16
  -7   0   2    2.02    0.15
   6   0  -2   40.09    1.29
   6   0  -2   39.86    1.27
  -6   0   2   37.54    1.29
  -6   0   2   38.53    1.30
  -6   0   2   38.85    1.29
   5   0  -2   12.14    0.45
   5   0  -2   12.29    0.43
  -5   0   2   13.13    0.45
  -5   0   2   13.40    0.45
  -5   0   2   12.09    0.44
   4   0  -2    3.16    0.14
   4   0  -2    3.26    0.13
  -4   0   2    3.26    0.14
  -4   0   2    3.07    0.14
  -4   0   2    3.61    0.15
  -4   0   2    3.52    0.15
   3   0  -2   32.48    1.03
   3   0  -2   31.26    1.01
   3   0  -2   31.65    1.02
   3   0  -2   31.20    1.02
  -3   0   2   31.16    1.03
  -3   0   2   31.26    1.03
  -3   0   2   31.69    1.03
  -3   0   2   31.48    1.02
   2   0  -2    2.57    0.09
   2   0  -2    2.39    0.09
   2   0  -2    2.60    0.10
   2   0  -2    2.42    0.10
  -2   0   2    2.40    0.10
  -2   0   2    2.43    0.10
  -2   0   2    2.48    0.09
   1   0  -2    5.52    0.20
   1   0  -2    5.74    0.20
   1   0  -2    5.85    0.20
  -1   0   2    5.99    0.20
  -1   0   2    6.13    0.20
  -1   0   2    6.26    0.20
  -1   0   2    6.20    0.20
   0   0  -2   48.49    1.54
   0   0  -2   47.68    1.53
   0   0   2   48.11    1.54
   0   0   2   46.95    1.53
   0   0   2   49.65    1.53
  -1   0  -2  109.42    3.52
  -1   0  -2  109.68    3.52
   1   0   2  107.98    3.52
   1   0   2  111.01    3.52
   1   0   2  115.30    3.53
  -2   0  -2    7.97    0.27
  -2   0  -2    8.40    0.27
  -2   0  -2    8.14    0.28
   2   0   2    7.80    0.28
   2   0   2    8.22    0.27
  -3   0  -2    2.35    0.10
  -3   0  -2    2.19    0.10
  -3   0  -2    2.42    0.09
   3   0   2    2.16    0.10
   3   0   2    2.21    0.09
  -4   0  -2   12.62    0.42
  -4   0  -2   11.62    0.43
  -4   0  -2   12.77    0.42
  -4   0  -2   12.80    0.40
   4   0   2   12.06    0.43
   4   0   2   12.07    0.41
  -5   0  -2    1.14    0.09
  -5   0  -2    1.08    0.08
   5   0   2    0.98    0.08
   5   0   2    0.99    0.06
  -6   0  -2    0.10    0.06
  -6   0  -2    0.13    0.06
   6   0   2    0.07    0.04
   6   0   2    0.18    0.06
  -7   0  -2    3.32    0.18
  -7   0  -2    3.36    0.18
   7   0   2    3.51    0.19
   7   0   2    3.53    0.15
  -8   0  -2    0.58    0.12
  -8   0  -2    0.53    0.10
   8   0   2    0.62    0.12
   8   0   2    0.70    0.07
  -9   0  -2    0.31    0.13
  -9   0  -2    0.46    0.13
   9   0   2    0.20    0.07
   9   0   2    0.30    0.14
   8  -1  -2    2.38    0.16
  -8   1   2    2.04    0.19
   7  -1  -2    7.01    0.28
  -7   1   2    6.78    0.30
   6  -1  -2   16.21    0.57
   6  -1  -2   16.04    0.56
  -6   1   2   16.45    0.58
  -6   1   2   16.34    0.58
   5  -1  -2    3.98    0.16
   5  -1  -2    3.69    0.17
  -5   1   2    3.89    0.18
  -5   1   2    4.03    0.18
  -5   1   2    3.82    0.18
   4  -1  -2    0.74    0.07
   4  -1  -2    0.85    0.07
  -4   1   2    0.94    0.08
  -4   1   2    0.91    0.07
  -4   1   2    0.70    0.08
   3  -1  -2   96.20    3.11
   3  -1  -2  101.17    3.10
   3  -1  -2   99.20    3.11
  -3   1   2   94.99    3.12
  -3   1   2  101.36    3.10
  -3   1   2   95.25    3.11
  -3   1   2   93.88    3.12
   2  -1  -2    9.54    0.33
   2  -1  -2   10.08    0.33
   2  -1  -2    9.97    0.33
   2  -1  -2    9.76    0.34
  -2   1   2    9.94    0.33
  -2   1   2    9.64    0.34
  -2   1   2   10.23    0.33
  -2   1   2    9.91    0.33
  -2   1   2   10.40    0.34
   1  -1  -2   30.54    0.98
   1  -1  -2   29.58    0.98
   1  -1  -2   30.90    0.98
  -1   1   2   31.29    0.98
  -1   1   2   30.39    0.98
  -1   1   2   29.83    0.98
  -1   1   2   30.93    0.97
   0  -1  -2    0.01    0.01
   0  -1  -2    0.02    0.01
   0   1   2    0.04    0.01
   0   1   2    0.02    0.01
   0   1   2    0.02    0.01
   0   1   2    0.02    0.01
  -1  -1  -2    4.68    0.16
  -1  -1  -2    4.54    0.15
   1   1   2    4.81    0.16
   1   1   2    4.79    0.16
   1   1   2    4.59    0.16
  -2  -1  -2   46.47    1.44
  -2  -1  -2   43.59    1.45
  -2  -1  -2   44.69    1.44
  -2  -1  -2   43.88    1.44
   2   1   2   45.24    1.43
   2   1   2   44.58    1.45
   2   1   2   46.71    1.43
   2   1   2   45.86    1.45
  -3  -1  -2   11.62    0.38
  -3  -1  -2   11.42    0.39
  -3  -1  -2   11.29    0.38
   3   1   2   11.30    0.37
   3   1   2   11.76    0.37
   3   1   2   11.83    0.39
  -4  -1  -2   30.91    1.02
  -4  -1  -2   32.68    1.00
  -4  -1  -2   29.87    1.01
   4   1   2   31.06    1.00
   4   1   2   32.52    1.00
   4   1   2   29.83    1.02
  -5  -1  -2    2.50    0.13
  -5  -1  -2    2.56    0.11
   5   1   2    2.11    0.12
   5   1   2    2.41    0.10
  -6  -1  -2    2.93    0.15
  -6  -1  -2    3.33    0.15
   6   1   2    3.13    0.16
   6   1   2    3.08    0.13
  -7  -1  -2    3.27    0.18
  -7  -1  -2    3.42    0.17
   7   1   2    3.38    0.14
   7   1   2    3.66    0.19
  -8  -1  -2    0.11    0.07
  -8  -1  -2    0.11    0.09
   8   1   2    0.09    0.10
   8   1   2    0.06    0.04
  -9  -1  -2    2.35    0.20
  -9  -1  -2    2.30    0.20
   9   1   2    2.50    0.13
   9   1   2    2.48    0.20
   8  -2  -2    6.21    0.27
  -8   2   2    6.19    0.32
   7  -2  -2    2.18    0.14
  -7   2   2    2.36    0.18
   6  -2  -2   49.10    1.57
  -6   2   2   46.89    1.59
   5  -2  -2    4.27    0.18
   5  -2  -2    3.99    0.19
  -5   2   2    4.70    0.20
  -5   2   2    4.38    0.20
   4  -2  -2    1.85    0.10
   4  -2  -2    1.83    0.10
  -4   2   2    2.04    0.11
  -4   2   2    1.72    0.10
  -4   2   2    1.84    0.11
   3  -2  -2   27.03    0.93
   3  -2  -2   27.96    0.92
  -3   2   2   29.16    0.93
  -3   2   2   28.15    0.91
  -3   2   2   28.82    0.93
  -3   2   2   28.55    0.92
   2  -2  -2   82.09    2.60
   2  -2  -2   81.96    2.61
   2  -2  -2   83.36    2.60
  -2   2   2   81.90    2.61
  -2   2   2   80.31    2.61
  -2   2   2   79.70    2.60
  -2   2   2   81.28    2.60
   1  -2  -2    7.51    0.26
   1  -2  -2    7.59    0.25
   1  -2  -2    7.41    0.25
  -1   2   2    7.78    0.26
  -1   2   2    7.54    0.26
  -1   2   2    7.45    0.25
  -1   2   2    7.63    0.26
   0  -2  -2    0.36    0.02
   0   2   2    0.26    0.03
   0   2   2    0.32    0.03
   0   2   2    0.33    0.02
   1   2   2    8.69    0.29
   1   2   2    8.64    0.29
   1   2   2    8.74    0.29
  -2  -2  -2   49.41    1.61
   2   2   2   48.63    1.61
   2   2   2   50.72    1.61
   2   2   2   52.55    1.61
  -3  -2  -2   66.91    2.14
  -3  -2  -2   69.55    2.15
  -3  -2  -2   66.05    2.14
  -3  -2  -2   66.70    2.16
   3   2   2   66.22    2.16
   3   2   2   68.76    2.14
  -4  -2  -2    0.42    0.05
  -4  -2  -2    0.39    0.04
  -4  -2  -2    0.37    0.05
  -4  -2  -2    0.42    0.03
   4   2   2    0.48    0.03
   4   2   2    0.44    0.03
   4   2   2    0.42    0.05
  -5  -2  -2    0.43    0.05
  -5  -2  -2    0.27    0.05
   5   2   2    0.33    0.06
   5   2   2    0.37    0.03
   5   2   2    0.39    0.04
  -6  -2  -2    3.16    0.16
  -6  -2  -2    3.31    0.14
   6   2   2    3.08    0.12
   6   2   2    3.15    0.16
  -7  -2  -2    0.35    0.07
  -7  -2  -2    0.58    0.10
   7   2   2    0.40    0.09
   7   2   2    0.42    0.04
  -8  -2  -2    1.18    0.12
  -8  -2  -2    1.27    0.14
   8   2   2    1.20    0.15
   8   2   2    1.33    0.08
  -9  -2  -2    0.03    0.12
  -9  -2  -2    0.10    0.10
   9   2   2    0.05    0.12
   9   2   2    0.07    0.05
   8  -3  -2    2.31    0.18
  -8   3   2    2.44    0.24
   7  -3  -2    0.61    0.10
  -7   3   2    0.72    0.13
   6  -3  -2    1.43    0.12
  -6   3   2    1.23    0.14
   5  -3  -2    5.01    0.20
  -5   3   2    4.61    0.21
   4  -3  -2    1.97    0.10
   4  -3  -2    1.85    0.11
  -4   3   2    1.83    0.11
  -4   3   2    1.94    0.12
  -4   3   2    1.84    0.11
   3  -3  -2    1.76    0.10
   3  -3  -2    1.36    0.09
   3  -3  -2    1.63    0.08
  -3   3   2    1.60    0.08
  -3   3   2    1.63    0.10
  -3   3   2    1.73    0.09
  -3   3   2    1.68    0.09
   2  -3  -2    4.56    0.17
   2  -3  -2    4.69    0.17
   2  -3  -2    4.19    0.16
  -2   3   2    4.33    0.16
  -2   3   2    4.33    0.17
  -2   3   2    4.53    0.17
  -2   3   2    4.82    0.17
   1  -3  -2    1.54    0.06
  -1   3   2    1.55    0.07
  -1   3   2    1.48    0.07
  -1   3   2    1.55    0.07
   0  -3  -2    1.55    0.06
   0  -3  -2    1.54    0.06
   0   3   2    1.64    0.06
   0   3   2    1.49    0.07
   0   3   2    1.53    0.06
   0   3   2    1.41    0.07
  -1  -3  -2  131.80    4.22
  -1  -3  -2  129.30    4.23
  -1  -3  -2  137.05    4.23
   1   3   2  135.33    4.23
   1   3   2  134.12    4.23
   1   3   2  130.60    4.23
   2   3   2   65.05    2.02
   2   3   2   62.44    2.03
   2   3   2   62.76    2.03
  -3  -3  -2    0.23    0.02
  -3  -3  -2    0.39    0.02
  -3  -3  -2    0.29    0.04
   3   3   2    0.19    0.03
   3   3   2    0.39    0.04
   3   3   2    0.25    0.03
  -4  -3  -2   13.09    0.43
  -4  -3  -2   12.49    0.43
  -4  -3  -2   12.66    0.44
   4   3   2   13.01    0.45
   4   3   2   13.73    0.43
  -5  -3  -2   13.81    0.46
  -5  -3  -2   14.14    0.48
   5   3   2   13.67    0.49
  -6  -3  -2    8.60    0.32
  -6  -3  -2    8.60    0.31
   6   3   2    8.37    0.33
  -7  -3  -2    4.75    0.21
  -7  -3  -2    4.81    0.20
   7   3   2    4.24    0.22
   7   3   2    4.57    0.16
  -8  -3  -2    2.52    0.18
  -8  -3  -2    2.17    0.15
   8   3   2    2.35    0.17
  -9  -3  -2   -0.01    0.11
  -9  -3  -2    0.02    0.10
  -9  -3  -2    0.01    0.09
   9   3   2    0.04    0.11
   7  -4  -2    5.27    0.26
  -7   4   2    5.27    0.28
   6  -4  -2    0.59    0.09
  -6   4   2    0.51    0.11
   5  -4  -2    0.13    0.07
  -5   4   2    0.16    0.07
  -5   4   2    0.08    0.07
   4  -4  -2    3.09    0.15
  -4   4   2    3.00    0.15
  -4   4   2    3.44    0.16
   3  -4  -2   13.93    0.47
   3  -4  -2   13.27    0.46
  -3   4   2   13.08    0.45
  -3   4   2   13.01    0.46
  -3   4   2   13.49    0.47
   2  -4  -2    4.94    0.18
   2  -4  -2    4.80    0.19
   2  -4  -2    5.18    0.20
  -2   4   2    4.97    0.18
  -2   4   2    5.14    0.20
  -2   4   2    4.92    0.19
  -2   4   2    5.22    0.19
   1  -4  -2   22.52    0.71
   1  -4  -2   22.00    0.72
   1  -4  -2   22.54    0.70
  -1   4   2   21.84    0.71
  -1   4   2   21.29    0.71
  -1   4   2   20.19    0.72
   0  -4  -2    7.52    0.24
   0  -4  -2    7.01    0.25
   0   4   2    7.34    0.24
   0   4   2    7.12    0.26
   0   4   2    7.60    0.25
   0   4   2    6.98    0.24
  -1  -4  -2    0.04    0.02
  -1  -4  -2    0.04    0.02
  -1  -4  -2    0.06    0.02
   1   4   2    0.08    0.03
   1   4   2    0.09    0.02
  -2  -4  -2    0.01    0.03
   2   4   2    0.03    0.02
   2   4   2    0.01    0.02
   2   4   2    0.01    0.02
  -3  -4  -2   54.93    1.79
  -3  -4  -2   53.78    1.78
  -3  -4  -2   55.68    1.77
   3   4   2   54.91    1.79
   3   4   2   56.91    1.78
   3   4   2   57.42    1.78
  -4  -4  -2    1.07    0.05
  -4  -4  -2    1.13    0.05
  -4  -4  -2    1.14    0.07
   4   4   2    1.13    0.06
   4   4   2    1.14    0.08
  -5  -4  -2    8.44    0.32
  -5  -4  -2    8.81    0.30
   5   4   2    9.10    0.33
  -6  -4  -2    2.18    0.13
  -6  -4  -2    2.29    0.11
   6   4   2    2.26    0.14
  -7  -4  -2    4.82    0.22
  -7  -4  -2    4.97    0.20
  -7  -4  -2    4.95    0.25
   7   4   2    4.89    0.24
  -8  -4  -2    4.07    0.23
  -8  -4  -2    4.04    0.22
  -8  -4  -2    3.78    0.19
   8   4   2    4.00    0.22
  -9  -4  -2    2.12    0.20
  -9  -4  -2    2.34    0.20
  -9  -4  -2    2.06    0.17
   9   4   2    2.18    0.20
  -7   5   2    0.16    0.12
  -6   5   2    0.22    0.11
  -5   5   2    0.03    0.08
  -5   5   2    0.04    0.07
  -4   5   2    0.15    0.07
  -4   5   2    0.25    0.06
   3  -5  -2    1.29    0.10
  -3   5   2    1.16    0.10
  -3   5   2    1.52    0.10
  -3   5   2    1.26    0.09
   2  -5  -2    7.08    0.26
   2  -5  -2    7.16    0.27
  -2   5   2    7.40    0.26
  -2   5   2    6.88    0.25
  -2   5   2    7.22    0.27
   1  -5  -2   11.14    0.39
   1  -5  -2   11.36    0.38
   1  -5  -2   11.72    0.39
  -1   5   2   11.49    0.38
  -1   5   2   11.36    0.40
  -1   5   2   11.26    0.39
   0  -5  -2    0.00    0.02
   0  -5  -2   -0.01    0.03
   0   5   2    0.01    0.02
   0   5   2    0.01    0.03
   0   5   2    0.01    0.03
   0   5   2    0.03    0.02
  -1  -5  -2    2.36    0.09
  -1  -5  -2    2.38    0.10
  -1  -5  -2    2.33    0.10
   1   5   2    2.39    0.10
   1   5   2    2.41    0.11
  -2  -5  -2    0.20    0.02
  -2  -5  -2    0.20    0.04
  -2  -5  -2    0.25    0.02
   2   5   2    0.23    0.04
   2   5   2    0.27    0.03
  -3  -5  -2   23.21    0.78
  -3  -5  -2   23.38    0.75
  -3  -5  -2   22.82    0.77
  -3  -5  -2   22.18    0.75
   3   5   2   24.46    0.78
   3   5   2   24.17    0.77
   3   5   2   24.32    0.77
  -4  -5  -2    0.59    0.04
  -4  -5  -2    0.54    0.07
  -4  -5  -2    0.55    0.04
  -4  -5  -2    0.70    0.06
   4   5   2    0.66    0.07
   4   5   2    0.74    0.06
  -5  -5  -2   11.59    0.38
  -5  -5  -2   11.77    0.42
  -5  -5  -2   10.84    0.40
   5   5   2   11.71    0.42
  -6  -5  -2   16.99    0.61
  -6  -5  -2   17.43    0.63
  -6  -5  -2   18.07    0.59
   6   5   2   18.03    0.62
  -7  -5  -2    1.45    0.12
  -7  -5  -2    1.48    0.10
  -7  -5  -2    1.44    0.14
   7   5   2    1.32    0.13
  -8  -5  -2    0.59    0.08
  -8  -5  -2    0.59    0.12
  -8  -5  -2    0.70    0.12
   8   5   2    0.51    0.11
  -9  -5  -2    7.27    0.32
  -9  -5  -2    6.85    0.34
  -9  -5  -2    6.56    0.30
   9   5   2    6.83    0.33
  -6   6   2   -0.02    0.11
  -5   6   2    0.11    0.09
  -5   6   2    0.14    0.08
  -4   6   2   14.62    0.50
  -4   6   2   13.80    0.51
   3  -6  -2   16.68    0.59
  -3   6   2   16.71    0.58
  -3   6   2   16.79    0.58
  -3   6   2   17.08    0.57
   2  -6  -2    2.72    0.14
  -2   6   2    2.82    0.12
  -2   6   2    2.74    0.14
  -2   6   2    2.87    0.13
   1  -6  -2    1.36    0.09
  -1   6   2    1.28    0.09
  -1   6   2    1.33    0.07
  -1   6   2    1.39    0.08
   0  -6  -2   55.41    1.75
   0  -6  -2   52.91    1.76
   0   6   2   57.02    1.76
   0   6   2   54.87    1.75
   0   6   2   53.46    1.77
   0   6   2   54.92    1.75
  -1  -6  -2    0.53    0.05
  -1  -6  -2    0.52    0.06
  -1  -6  -2    0.62    0.05
   1   6   2    0.64    0.05
   1   6   2    0.63    0.03
   1   6   2    0.60    0.03
   1   6   2    0.57    0.06
  -2  -6  -2   17.59    0.58
  -2  -6  -2   17.52    0.59
  -2  -6  -2   17.13    0.58
   2   6   2   17.92    0.60
   2   6   2   18.70    0.58
  -3  -6  -2    0.87    0.06
  -3  -6  -2    0.79    0.04
  -3  -6  -2    0.73    0.07
  -3  -6  -2    0.86    0.05
   3   6   2    0.86    0.07
   3   6   2    0.90    0.06
  -4  -6  -2    3.01    0.15
  -4  -6  -2    3.05    0.12
  -4  -6  -2    3.44    0.12
  -4  -6  -2    3.13    0.14
   4   6   2    3.39    0.14
   4   6   2    3.57    0.16
  -5  -6  -2   15.28    0.53
  -5  -6  -2   15.11    0.49
  -5  -6  -2   14.64    0.51
   5   6   2   14.94    0.53
   5   6   2   13.99    0.54
  -6  -6  -2   15.36    0.57
  -6  -6  -2   16.25    0.55
  -6  -6  -2   16.00    0.53
   6   6   2   15.86    0.57
  -7  -6  -2    0.56    0.07
  -7  -6  -2    0.44    0.10
  -7  -6  -2    0.39    0.10
   7   6   2    0.43    0.09
  -8  -6  -2    0.30    0.07
  -8  -6  -2    0.33    0.11
   8   6   2    0.19    0.10
  -9  -6  -2    4.11    0.22
  -9  -6  -2    4.16    0.27
   9   6   2    4.08    0.26
  -6   7   2    0.00    0.13
  -5   7   2    1.28    0.14
  -5   7   2    1.55    0.17
  -4   7   2    0.95    0.10
  -4   7   2    0.94    0.11
   3  -7  -2    0.49    0.09
  -3   7   2    0.49    0.08
  -3   7   2    0.61    0.09
  -3   7   2    0.51    0.07
   2  -7  -2    2.71    0.15
  -2   7   2    2.94    0.15
  -2   7   2    2.74    0.13
  -2   7   2    2.76    0.14
   1  -7  -2    3.31    0.15
  -1   7   2    2.81    0.15
  -1   7   2    3.10    0.13
  -1   7   2    2.91    0.14
   0  -7  -2    1.34    0.09
   0   7   2    1.35    0.08
   0   7   2    1.35    0.10
   0   7   2    1.20    0.06
  -1  -7  -2   41.29    1.33
  -1  -7  -2   41.44    1.33
   1   7   2   40.42    1.34
   1   7   2   42.04    1.32
   1   7   2   40.44    1.30
   1   7   2   40.07    1.30
  -2  -7  -2   19.83    0.65
  -2  -7  -2   19.07    0.67
   2   7   2   21.05    0.65
   2   7   2   19.75    0.67
  -3  -7  -2   17.95    0.62
  -3  -7  -2   17.44    0.59
   3   7   2   18.54    0.61
   3   7   2   18.83    0.62
  -4  -7  -2    2.04    0.12
  -4  -7  -2    2.07    0.09
   4   7   2    2.06    0.12
  -5  -7  -2   11.17    0.44
  -5  -7  -2   12.07    0.40
   5   7   2   12.36    0.42
   5   7   2   11.91    0.44
  -6  -7  -2    0.91    0.07
  -6  -7  -2    1.09    0.12
   6   7   2    0.92    0.11
  -7  -7  -2   10.15    0.42
  -7  -7  -2   10.14    0.36
   7   7   2   10.27    0.41
  -8  -7  -2    0.87    0.14
  -8  -7  -2    1.03    0.11
   8   7   2    0.76    0.13
  -9  -7  -2    0.64    0.11
  -9  -7  -2    0.55    0.15
   9   7   2    0.62    0.15
  -5   8   2    0.64    0.11
  -5   8   2    0.64    0.14
  -4   8   2    0.77    0.12
  -4   8   2    0.77    0.10
   3  -8  -2    3.77    0.21
  -3   8   2    4.01    0.21
  -3   8   2    4.20    0.20
  -3   8   2    4.14    0.18
   2  -8  -2    2.22    0.15
  -2   8   2    2.14    0.13
  -2   8   2    1.92    0.13
  -2   8   2    2.02    0.11
   1  -8  -2   15.04    0.54
  -1   8   2   15.33    0.54
  -1   8   2   15.85    0.53
  -1   8   2   14.92    0.51
   0  -8  -2    0.07    0.05
   0   8   2    0.05    0.03
   0   8   2    0.06    0.06
  -1  -8  -2    0.21    0.05
   1   8   2    0.13    0.02
   1   8   2    0.15    0.02
   1   8   2    0.12    0.05
  -2  -8  -2    8.64    0.31
  -2  -8  -2    8.79    0.32
   2   8   2    8.80    0.33
  -3  -8  -2    0.31    0.07
  -3  -8  -2    0.37    0.04
   3   8   2    0.33    0.07
  -4  -8  -2    0.35    0.04
  -4  -8  -2    0.55    0.09
   4   8   2    0.51    0.07
  -5  -8  -2    2.52    0.11
  -5  -8  -2    2.75    0.16
   5   8   2    2.65    0.15
  -6  -8  -2    3.93    0.16
  -6  -8  -2    3.87    0.22
  -7  -8  -2    3.00    0.15
  -7  -8  -2    3.01    0.20
  -8  -8  -2    0.01    0.07
  -8  -8  -2    0.01    0.12
  -9  -8  -2    0.02    0.09
  -9  -8  -2   -0.06    0.13
  -5   9   2    2.42    0.19
  -4   9   2   10.84    0.41
  -3   9   2    0.65    0.12
  -3   9   2    0.65    0.08
   2  -9  -2    0.22    0.08
  -2   9   2    0.27    0.06
  -2   9   2    0.24    0.09
   1  -9  -2    0.49    0.09
  -1   9   2    0.48    0.09
  -1   9   2    0.40    0.05
   0  -9  -2   13.43    0.48
   0   9   2   13.67    0.45
   0   9   2   13.48    0.50
  -1  -9  -2    0.86    0.09
   1   9   2    0.82    0.10
  -2  -9  -2    4.11    0.18
   2   9   2    4.32    0.20
  -3  -9  -2    3.07    0.16
  -3  -9  -2    3.17    0.14
   3   9   2    3.24    0.17
  -4  -9  -2    1.22    0.12
  -4  -9  -2    1.04    0.08
   4   9   2    1.07    0.11
  -5  -9  -2    0.14    0.08
  -5  -9  -2    0.19    0.05
   5   9   2    0.26    0.08
  -6  -9  -2    1.80    0.17
  -6  -9  -2    1.68    0.10
  -7  -9  -2    0.02    0.06
  -7  -9  -2    0.00    0.11
  -8  -9  -2    0.12    0.12
  -8  -9  -2    0.06    0.07
  -4  10   2    7.99    0.33
  -3  10   2   13.98    0.50
  -3  10   2   13.86    0.54
   2 -10  -2    1.33    0.14
  -2  10   2    0.97    0.13
  -2  10   2    1.34    0.10
   1 -10  -2    0.42    0.09
  -1  10   2    0.51    0.06
  -1  10   2    0.43    0.10
   0 -10  -2    2.79    0.16
   0  10   2    2.97    0.17
   0  10   2    2.90    0.12
  -1 -10  -2    4.36    0.20
   1  10   2    4.55    0.22
  -2 -10  -2    0.90    0.10
   2  10   2    0.96    0.11
  -3 -10  -2    5.14    0.21
   3  10   2    5.05    0.24
  -4 -10  -2    0.65    0.10
  -4 -10  -2    0.72    0.08
   4  10   2    0.61    0.09
  -5 -10  -2    0.22    0.10
  -5 -10  -2    0.19    0.05
   5  10   2    0.22    0.09
  -6 -10  -2    0.86    0.13
  -6 -10  -2    0.88    0.09
  -7 -10  -2    1.10    0.16
  -7 -10  -2    1.01    0.11
  -8 -10  -2   -0.01    0.08
  -8 -10  -2    0.06    0.16
  -3  11   2    0.98    0.17
   2 -11  -2   -0.02    0.11
  -2  11   2    0.03    0.11
  -2  11   2    0.00    0.06
   1 -11  -2    2.30    0.19
  -1  11   2    2.23    0.12
  -1  11   2    2.38    0.18
   0 -11  -2    0.01    0.08
   0  11   2    0.00    0.03
   0  11   2   -0.04    0.08
  -1 -11  -2    0.21    0.08
   1  11   2    0.34    0.09
  -2 -11  -2    1.80    0.13
   2  11   2    1.39    0.14
  -3 -11  -2    6.47    0.25
   3  11   2    5.43    0.28
  -4 -11  -2    0.36    0.07
   4  11   2    0.33    0.10
  -5 -11  -2    0.03    0.06
  -5 -11  -2    0.05    0.10
   5  11   2    0.00    0.10
  -6 -11  -2    1.65    0.20
  -6 -11  -2    1.61    0.13
  -7 -11  -2    0.36    0.15
  -7 -11  -2    0.27    0.08
   1 -12  -2    0.17    0.12
  -1  12   2    0.14    0.06
  -1  12   2    0.10    0.13
   0 -12  -2    3.09    0.21
   0  12   2    3.15    0.22
   0  12   2    3.28    0.12
  -1 -12  -2    1.75    0.17
   1  12   2    1.62    0.19
  -2 -12  -2    1.44    0.14
   2  12   2    1.53    0.16
  -3 -12  -2    1.00    0.11
   3  12   2    0.76    0.13
  -4 -12  -2    4.90    0.22
   4  12   2    4.57    0.26
  -5 -12  -2    1.60    0.14
   5  12   2    1.37    0.16
  -6 -12  -2    4.84    0.23
   0 -13  -2    0.25    0.14
  -1 -13  -2    1.39    0.16
   1  13   2    1.38    0.17
  -2 -13  -2    2.45    0.19
   2  13   2    2.22    0.23
  -3 -13  -2    0.08    0.10
   3  13   2    0.02    0.13
  -4 -13  -2    0.31    0.10
   4  13   2    0.22    0.14
  -5 -13  -2    4.69    0.31
   5  13   2    4.95    0.30
   4  12  -3    1.80    0.22
  -4 -12   3    1.74    0.19
  -4 -12   3    1.97    0.22
   3  12  -3    0.20    0.14
  -3 -12   3    0.31    0.12
  -3 -12   3    0.29    0.15
   2  12  -3    2.20    0.10
   2  12  -3    1.96    0.20
  -2 -12   3    1.97    0.20
   1  12  -3    3.77    0.17
   1  12  -3    3.75    0.25
  -1 -12   3    4.43    0.27
   0  12  -3    1.38    0.19
   0  12  -3    0.93    0.10
   0 -12   3    0.93    0.16
  -6 -11   3    5.61    0.40
  -6 -11   3    6.01    0.36
  -5 -11   3    0.12    0.15
  -5 -11   3    0.16    0.11
   4  11  -3    3.40    0.23
  -4 -11   3    3.41    0.23
  -4 -11   3    3.06    0.20
   3  11  -3    1.25    0.06
   3  11  -3    1.15    0.15
  -3 -11   3    1.37    0.17
  -3 -11   3    1.39    0.16
   2  11  -3    3.04    0.14
   2  11  -3    3.16    0.22
  -2 -11   3    3.19    0.20
   1  11  -3    0.32    0.06
   1  11  -3    0.32    0.12
  -1 -11   3    0.31    0.11
   0  11  -3    8.17    0.31
   0  11  -3    8.10    0.36
   0 -11   3    8.07    0.36
  -1  11  -3    0.00    0.07
  -1  11  -3    0.01    0.12
  -2  11  -3    0.00    0.14
  -2  11  -3    0.04    0.08
  -6 -10   3    2.36    0.22
  -6 -10   3    2.23    0.19
  -5 -10   3    1.12    0.13
  -5 -10   3    1.49    0.18
   4  10  -3    0.01    0.10
  -4 -10   3    0.16    0.09
  -4 -10   3    0.10    0.10
   3  10  -3    3.71    0.20
   3  10  -3    3.44    0.13
  -3 -10   3    3.16    0.19
  -3 -10   3    3.42    0.22
   2  10  -3    0.50    0.10
   2  10  -3    0.42    0.06
  -2 -10   3    0.48    0.09
  -2 -10   3    0.57    0.12
   1  10  -3    2.01    0.16
   1  10  -3    2.31    0.12
  -1 -10   3    2.12    0.16
  -1 -10   3    2.30    0.18
   0  10  -3    0.08    0.05
   0  10  -3    0.15    0.10
   0 -10   3    0.06    0.09
   0 -10   3    0.05    0.11
  -1  10  -3    0.03    0.10
   1 -10   3    0.01    0.10
  -2  10  -3    0.01    0.11
  -2  10  -3   -0.01    0.07
  -3  10  -3    0.00    0.12
  -3  10  -3    0.00    0.08
  -4  10  -3    1.17    0.14
  -7  -9   3    2.63    0.25
  -7  -9   3    2.23    0.20
  -6  -9   3    0.59    0.10
  -6  -9   3    0.77    0.14
  -5  -9   3    1.83    0.17
  -5  -9   3    1.84    0.15
   4   9  -3    2.06    0.16
   4   9  -3    2.23    0.09
  -4  -9   3    1.98    0.15
  -4  -9   3    1.94    0.16
   3   9  -3    0.35    0.04
   3   9  -3    0.28    0.09
  -3  -9   3    0.34    0.08
  -3  -9   3    0.29    0.10
   2   9  -3    4.43    0.17
   2   9  -3    4.04    0.21
  -2  -9   3    4.69    0.23
  -2  -9   3    4.52    0.21
   1   9  -3    1.51    0.09
   1   9  -3    1.44    0.14
  -1  -9   3    1.46    0.14
  -1  -9   3    1.24    0.12
   0   9  -3    0.28    0.05
   0   9  -3    0.14    0.08
   0  -9   3    0.30    0.09
   0  -9   3    0.34    0.09
  -1   9  -3    0.41    0.07
  -1   9  -3    0.41    0.10
   1  -9   3    0.47    0.10
   1  -9   3    0.31    0.09
  -2   9  -3    3.90    0.23
  -3   9  -3   15.25    0.57
  -3   9  -3   14.80    0.54
  -4   9  -3    0.50    0.10
  -4   9  -3    0.45    0.13
  -5   9  -3    0.11    0.12
  -8  -8   3    0.08    0.12
  -7  -8   3    2.24    0.18
  -7  -8   3    2.44    0.23
  -6  -8   3    2.36    0.16
  -6  -8   3    2.66    0.21
   5   8  -3    0.09    0.03
  -5  -8   3    0.09    0.07
  -5  -8   3    0.11    0.10
   4   8  -3    0.05    0.03
   4   8  -3    0.02    0.07
  -4  -8   3    0.06    0.08
  -4  -8   3    0.04    0.06
   3   8  -3    0.64    0.09
   3   8  -3    0.76    0.06
  -3  -8   3    0.77    0.09
  -3  -8   3    0.79    0.10
   2   8  -3    0.21    0.08
   2   8  -3    0.19    0.04
  -2  -8   3    0.17    0.06
  -2  -8   3    0.29    0.08
   1   8  -3   11.84    0.39
   1   8  -3   11.11    0.43
  -1  -8   3   11.35    0.43
  -1  -8   3   11.32    0.42
   0   8  -3    1.17    0.09
   0   8  -3    1.26    0.13
   0  -8   3    1.33    0.12
   0  -8   3    1.35    0.12
  -1   8  -3    0.07    0.05
  -1   8  -3    0.10    0.07
   1  -8   3    0.10    0.07
   1  -8   3    0.07    0.08
  -2   8  -3    1.14    0.10
   2  -8   3    1.04    0.12
   2  -8   3    1.11    0.13
  -3   8  -3    0.61    0.11
  -4   8  -3    0.05    0.08
  -4   8  -3    0.04    0.11
  -8  -7   3    0.44    0.12
  -8  -7   3    0.29    0.16
  -7  -7   3    0.11    0.11
  -7  -7   3    0.11    0.09
   6   7  -3    0.90    0.06
  -6  -7   3    1.00    0.11
  -6  -7   3    1.02    0.13
   5   7  -3    5.32    0.19
  -5  -7   3    5.18    0.22
  -5  -7   3    4.93    0.25
   4   7  -3   24.95    0.81
   4   7  -3   24.16    0.77
  -4  -7   3   23.15    0.80
  -4  -7   3   22.77    0.82
   3   7  -3    2.02    0.09
   3   7  -3    2.05    0.13
  -3  -7   3    1.98    0.12
  -3  -7   3    2.11    0.14
   2   7  -3    3.57    0.14
   2   7  -3    3.30    0.17
  -2  -7   3    3.44    0.17
  -2  -7   3    3.62    0.16
   1   7  -3    0.21    0.04
   1   7  -3    0.30    0.07
  -1  -7   3    0.28    0.06
  -1  -7   3    0.24    0.07
   0   7  -3   14.44    0.53
   0   7  -3   14.74    0.50
   0  -7   3   14.97    0.52
   0  -7   3   14.58    0.52
  -1   7  -3    0.00    0.06
  -1   7  -3    0.04    0.04
   1  -7   3    0.09    0.07
   1  -7   3    0.06    0.06
  -2   7  -3   34.97    1.19
  -2   7  -3   37.21    1.22
   2  -7   3   37.80    1.21
   2  -7   3   35.46    1.21
  -3   7  -3    6.34    0.28
  -3   7  -3    6.52    0.26
   3  -7   3    6.99    0.28
  -4   7  -3    0.31    0.10
   8   6  -3    1.06    0.07
  -8  -6   3    1.04    0.13
  -8  -6   3    1.14    0.17
   7   6  -3    0.43    0.05
  -7  -6   3    0.30    0.13
  -7  -6   3    0.32    0.09
   6   6  -3    0.70    0.06
  -6  -6   3    0.67    0.09
  -6  -6   3    0.96    0.12
   5   6  -3    0.69    0.06
  -5  -6   3    0.68    0.08
  -5  -6   3    0.66    0.10
   4   6  -3   10.22    0.37
   4   6  -3   10.22    0.35
  -4  -6   3    9.96    0.39
  -4  -6   3   10.81    0.37
   3   6  -3    1.19    0.10
   3   6  -3    1.25    0.07
  -3  -6   3    1.09    0.10
  -3  -6   3    1.16    0.09
   2   6  -3    0.07    0.05
   2   6  -3    0.19    0.04
  -2  -6   3    0.33    0.06
  -2  -6   3    0.20    0.06
   1   6  -3    2.15    0.12
   1   6  -3    1.91    0.09
  -1  -6   3    1.96    0.11
  -1  -6   3    1.91    0.11
   0   6  -3    0.05    0.05
   0   6  -3    0.07    0.03
   0  -6   3    0.09    0.05
   0  -6   3    0.10    0.05
  -1   6  -3    0.25    0.06
  -1   6  -3    0.33    0.05
   1  -6   3    0.31    0.06
   1  -6   3    0.47    0.07
  -2   6  -3   13.80    0.47
  -2   6  -3   13.64    0.47
  -2   6  -3   13.53    0.50
   2  -6   3   14.22    0.49
  -3   6  -3    6.33    0.26
  -3   6  -3    6.27    0.24
  -3   6  -3    5.99    0.24
   3  -6   3    6.07    0.26
  -4   6  -3    0.26    0.08
  -4   6  -3    0.38    0.08
  -4   6  -3    0.31    0.08
   4  -6   3    0.30    0.08
   4  -6   3    0.34    0.08
  -5   6  -3    0.31    0.10
   5  -6   3    0.27    0.08
  -6   6  -3    7.31    0.33
   6  -6   3    6.99    0.30
  -7   6  -3    0.23    0.13
   7  -6   3    0.27    0.12
   8   5  -3    5.73    0.22
  -8  -5   3    6.41    0.33
  -8  -5   3    6.33    0.30
   7   5  -3    1.21    0.09
  -7  -5   3    1.31    0.17
  -7  -5   3    1.28    0.14
   6   5  -3    1.88    0.10
  -6  -5   3    1.92    0.15
  -6  -5   3    2.01    0.13
   5   5  -3   71.14    2.30
  -5  -5   3   73.00    2.33
  -5  -5   3   71.70    2.35
   4   5  -3    1.33    0.10
   4   5  -3    1.41    0.07
  -4  -5   3    1.32    0.11
  -4  -5   3    1.41    0.09
   3   5  -3    0.00    0.05
   3   5  -3    0.01    0.02
  -3  -5   3    0.01    0.05
  -3  -5   3    0.02    0.04
   2   5  -3    1.96    0.09
   2   5  -3    2.31    0.12
  -2  -5   3    2.11    0.11
  -2  -5   3    2.02    0.11
   1   5  -3   13.20    0.46
   1   5  -3   12.79    0.44
  -1  -5   3   13.07    0.46
  -1  -5   3   13.14    0.46
  -1  -5   3   14.34    0.45
   0   5  -3    1.83    0.10
   0   5  -3    1.64    0.09
   0   5  -3    1.97    0.07
   0  -5   3    1.84    0.11
   0  -5   3    1.82    0.09
   0  -5   3    1.87    0.10
  -1   5  -3    9.62    0.32
  -1   5  -3    9.90    0.35
  -1   5  -3    9.17    0.33
  -1   5  -3    8.36    0.36
   1  -5   3    9.80    0.34
  -2   5  -3    8.56    0.31
  -2   5  -3    9.09    0.33
   2  -5   3    8.65    0.32
   2  -5   3    9.03    0.33
   2  -5   3    8.70    0.31
  -3   5  -3    1.14    0.09
  -3   5  -3    1.15    0.09
  -3   5  -3    1.06    0.10
   3  -5   3    1.00    0.09
   3  -5   3    0.97    0.10
  -4   5  -3    7.36    0.28
  -4   5  -3    6.82    0.27
  -4   5  -3    6.59    0.28
   4  -5   3    7.30    0.27
   4  -5   3    7.18    0.29
  -5   5  -3    0.29    0.08
   5  -5   3    0.19    0.07
   5  -5   3    0.15    0.08
  -6   5  -3    3.97    0.22
   6  -5   3    3.75    0.20
  -7   5  -3    0.13    0.11
   7  -5   3    0.28    0.10
   9   4  -3    0.76    0.09
  -9  -4   3    0.81    0.19
   8   4  -3    5.47    0.22
  -8  -4   3    6.26    0.29
  -8  -4   3    5.23    0.29
   7   4  -3    0.75    0.07
  -7  -4   3    0.79    0.11
  -7  -4   3    0.77    0.13
   6   4  -3    1.27    0.09
  -6  -4   3    1.33    0.14
  -6  -4   3    1.24    0.11
   5   4  -3   43.14    1.40
  -5  -4   3   45.52    1.41
  -5  -4   3   43.50    1.44
  -5  -4   3   41.27    1.42
   4   4  -3   19.54    0.65
   4   4  -3   21.27    0.66
  -4  -4   3   19.87    0.68
  -4  -4   3   19.47    0.67
  -4  -4   3   19.26    0.66
   3   4  -3   17.85    0.61
   3   4  -3   18.86    0.62
  -3  -4   3   19.09    0.61
  -3  -4   3   18.47    0.63
  -3  -4   3   18.57    0.62
   2   4  -3    4.00    0.16
   2   4  -3    3.57    0.15
  -2  -4   3    4.20    0.15
  -2  -4   3    4.12    0.16
  -2  -4   3    3.78    0.17
  -2  -4   3    4.32    0.14
   1   4  -3    2.49    0.11
   1   4  -3    2.53    0.10
  -1  -4   3    2.56    0.10
  -1  -4   3    2.49    0.12
  -1  -4   3    2.28    0.11
   0   4  -3    2.20    0.11
   0   4  -3    2.27    0.10
   0   4  -3    2.51    0.09
   0   4  -3    2.47    0.11
   0  -4   3    2.24    0.10
   0  -4   3    2.17    0.11
  -1   4  -3  118.33    3.97
  -1   4  -3  129.00    3.97
  -1   4  -3  128.80    3.95
  -1   4  -3  125.33    3.96
   1  -4   3  125.61    3.96
   1  -4   3  122.50    3.97
   1  -4   3  120.04    3.97
  -2   4  -3   38.51    1.22
  -2   4  -3   39.09    1.21
  -2   4  -3   34.16    1.22
  -2   4  -3   37.54    1.22
   2  -4   3   37.95    1.22
   2  -4   3   37.66    1.23
   2  -4   3   37.21    1.21
  -3   4  -3    5.32    0.22
  -3   4  -3    5.57    0.21
  -3   4  -3    5.40    0.22
  -3   4  -3    5.67    0.21
   3  -4   3    4.96    0.21
   3  -4   3    5.55    0.22
   3  -4   3    5.29    0.22
  -4   4  -3    0.53    0.07
  -4   4  -3    0.66    0.08
  -4   4  -3    0.55    0.09
  -4   4  -3    0.73    0.09
   4  -4   3    0.55    0.08
   4  -4   3    0.65    0.07
  -5   4  -3    0.09    0.07
   5  -4   3    0.05    0.07
   5  -4   3    0.11    0.06
  -6   4  -3    0.13    0.08
   6  -4   3    0.17    0.09
   6  -4   3    0.16    0.06
  -7   4  -3    2.03    0.19
   7  -4   3    2.08    0.15
  -8   4  -3    0.04    0.14
   8  -4   3    0.08    0.10
  -9  -3   3    1.88    0.23
  -9  -3   3    1.79    0.22
   8   3  -3    2.28    0.14
  -8  -3   3    2.25    0.19
  -8  -3   3    2.84    0.20
  -8  -3   3    2.53    0.20
   7   3  -3    3.79    0.16
  -7  -3   3    3.70    0.22
  -7  -3   3    3.79    0.20
  -7  -3   3    3.67    0.20
   6   3  -3    0.04    0.04
  -6  -3   3    0.00    0.06
  -6  -3   3    0.04    0.06
  -6  -3   3    0.00    0.07
   5   3  -3   24.09    0.79
  -5  -3   3   24.39    0.81
  -5  -3   3   24.07    0.83
  -5  -3   3   24.37    0.81
   4   3  -3   34.06    1.10
   4   3  -3   33.85    1.11
  -4  -3   3   33.56    1.11
  -4  -3   3   34.56    1.12
  -4  -3   3   34.83    1.13
   3   3  -3   49.77    1.64
   3   3  -3   51.99    1.65
  -3  -3   3   51.14    1.67
  -3  -3   3   51.49    1.65
  -3  -3   3   52.68    1.65
  -3  -3   3   50.67    1.65
   2   3  -3   17.40    0.57
   2   3  -3   16.19    0.56
  -2  -3   3   17.52    0.56
  -2  -3   3   17.79    0.56
  -2  -3   3   17.27    0.58
  -2  -3   3   17.20    0.57
   1   3  -3   58.60    1.89
   1   3  -3   59.86    1.88
   1   3  -3   60.74    1.89
  -1  -3   3   58.17    1.88
  -1  -3   3   61.29    1.87
  -1  -3   3   56.52    1.89
  -1  -3   3   56.99    1.90
   0   3  -3   22.22    0.74
   0   3  -3   23.49    0.75
   0   3  -3   22.50    0.75
   0   3  -3   23.56    0.74
   0  -3   3   22.00    0.75
   0  -3   3   23.06    0.74
   0  -3   3   22.82    0.75
   0  -3   3   23.50    0.74
  -1   3  -3    0.07    0.03
  -1   3  -3    0.16    0.03
  -1   3  -3    0.08    0.03
  -1   3  -3    0.06    0.03
   1  -3   3    0.14    0.04
   1  -3   3    0.08    0.04
   1  -3   3    0.08    0.03
  -2   3  -3  150.32    4.95
  -2   3  -3  158.11    4.96
  -2   3  -3  140.64    4.95
  -2   3  -3  157.55    4.95
   2  -3   3  159.41    4.96
   2  -3   3  164.74    4.96
   2  -3   3  157.38    4.95
  -3   3  -3   21.60    0.71
  -3   3  -3   22.11    0.71
  -3   3  -3   20.47    0.71
  -3   3  -3   21.62    0.71
   3  -3   3   22.26    0.72
   3  -3   3   21.15    0.72
   3  -3   3   20.57    0.70
  -4   3  -3    0.13    0.05
  -4   3  -3    0.15    0.05
  -4   3  -3    0.21    0.06
  -4   3  -3    0.14    0.06
   4  -3   3    0.13    0.04
   4  -3   3    0.23    0.06
  -5   3  -3    7.27    0.29
  -5   3  -3    7.74    0.30
   5  -3   3    7.64    0.28
   5  -3   3    7.25    0.30
  -6   3  -3    1.07    0.12
  -6   3  -3    1.17    0.13
   6  -3   3    1.19    0.10
   6  -3   3    1.28    0.12
  -7   3  -3    0.01    0.09
   7  -3   3    0.01    0.10
   7  -3   3   -0.01    0.06
  -8   3  -3    0.70    0.15
   8  -3   3    0.56    0.10
  -9  -2   3    0.49    0.17
   8   2  -3    3.02    0.16
  -8  -2   3    2.98    0.21
  -8  -2   3    3.01    0.23
  -8  -2   3    3.12    0.20
   7   2  -3    3.87    0.17
  -7  -2   3    3.77    0.21
  -7  -2   3    3.76    0.21
  -7  -2   3    3.77    0.22
   6   2  -3    9.57    0.34
  -6  -2   3   10.33    0.37
  -6  -2   3    9.17    0.37
  -6  -2   3    9.69    0.38
   5   2  -3   23.55    0.76
  -5  -2   3   22.78    0.78
  -5  -2   3   23.58    0.78
  -5  -2   3   22.50    0.79
   4   2  -3    2.61    0.11
   4   2  -3    2.32    0.11
  -4  -2   3    2.36    0.12
  -4  -2   3    2.56    0.12
  -4  -2   3    2.48    0.13
   3   2  -3    0.10    0.03
   3   2  -3    0.04    0.03
  -3  -2   3    0.06    0.03
  -3  -2   3    0.10    0.04
  -3  -2   3    0.06    0.03
  -3  -2   3    0.09    0.04
   2   2  -3    5.07    0.18
   2   2  -3    5.27    0.18
   2   2  -3    4.65    0.17
  -2  -2   3    4.70    0.19
  -2  -2   3    4.77    0.17
  -2  -2   3    5.29    0.18
  -2  -2   3    4.93    0.18
   1   2  -3    6.68    0.23
   1   2  -3    6.65    0.24
  -1  -2   3    6.95    0.23
  -1  -2   3    6.79    0.24
  -1  -2   3    7.00    0.23
  -1  -2   3    6.58    0.24
   0   2  -3    6.54    0.23
   0   2  -3    6.35    0.23
   0   2  -3    6.52    0.22
   0  -2   3    6.79    0.22
   0  -2   3    6.66    0.23
   0  -2   3    6.62    0.22
  -1   2  -3   11.73    0.39
  -1   2  -3   11.94    0.39
  -1   2  -3   11.47    0.39
  -1   2  -3   11.80    0.39
   1  -2   3   11.89    0.39
   1  -2   3   11.23    0.40
   1  -2   3   11.38    0.39
   1  -2   3   12.08    0.39
  -2   2  -3    0.03    0.03
  -2   2  -3    0.02    0.03
  -2   2  -3    0.00    0.03
  -2   2  -3    0.04    0.03
   2  -2   3    0.07    0.02
   2  -2   3    0.03    0.03
   2  -2   3    0.09    0.03
  -3   2  -3    2.75    0.12
  -3   2  -3    2.37    0.11
  -3   2  -3    2.51    0.11
  -3   2  -3    2.50    0.12
   3  -2   3    2.57    0.11
   3  -2   3    2.53    0.12
   3  -2   3    2.85    0.13
  -4   2  -3    2.29    0.11
  -4   2  -3    2.34    0.12
  -4   2  -3    2.28    0.11
  -4   2  -3    2.37    0.12
   4  -2   3    2.27    0.12
   4  -2   3    2.20    0.10
  -5   2  -3    1.21    0.10
  -5   2  -3    0.97    0.10
   5  -2   3    1.07    0.10
   5  -2   3    1.02    0.08
  -6   2  -3    3.31    0.17
  -6   2  -3    3.42    0.18
   6  -2   3    3.19    0.15
   6  -2   3    3.41    0.18
  -7   2  -3    0.08    0.09
  -7   2  -3    0.04    0.08
   7  -2   3    0.05    0.06
   7  -2   3    0.03    0.09
  -8   2  -3    0.92    0.15
   8  -2   3    1.07    0.11
   8  -2   3    1.03    0.15
   8   1  -3    2.42    0.15
  -8  -1   3    2.89    0.21
   7   1  -3    4.36    0.19
   7   1  -3    4.25    0.23
  -7  -1   3    4.24    0.22
  -7  -1   3    4.69    0.24
  -7  -1   3    4.33    0.23
   6   1  -3    2.13    0.14
   6   1  -3    2.07    0.12
  -6  -1   3    2.12    0.14
  -6  -1   3    1.86    0.14
  -6  -1   3    2.01    0.14
   5   1  -3   17.69    0.61
   5   1  -3   17.79    0.59
  -5  -1   3   17.45    0.61
  -5  -1   3   17.26    0.61
  -5  -1   3   18.14    0.61
   4   1  -3    3.69    0.16
   4   1  -3    3.65    0.15
  -4  -1   3    3.93    0.16
  -4  -1   3    4.03    0.17
  -4  -1   3    4.30    0.17
  -4  -1   3    3.80    0.16
   3   1  -3    1.27    0.08
   3   1  -3    1.05    0.06
   3   1  -3    1.30    0.06
  -3  -1   3    1.24    0.07
  -3  -1   3    1.31    0.08
  -3  -1   3    1.21    0.07
  -3  -1   3    1.26    0.08
   2   1  -3   19.33    0.64
   2   1  -3   19.73    0.64
   2   1  -3   20.17    0.65
  -2  -1   3   18.79    0.65
  -2  -1   3   19.92    0.65
  -2  -1   3   19.55    0.65
  -2  -1   3   20.66    0.64
   1   1  -3    2.58    0.10
   1   1  -3    2.47    0.10
   1   1  -3    2.34    0.09
  -1  -1   3    2.47    0.10
  -1  -1   3    2.38    0.09
  -1  -1   3    2.53    0.09
  -1  -1   3    2.59    0.10
   0   1  -3    2.31    0.09
   0   1  -3    2.23    0.09
   0   1  -3    2.32    0.09
   0  -1   3    2.16    0.08
   0  -1   3    2.18    0.09
   0  -1   3    2.19    0.08
  -1   1  -3   37.82    1.26
  -1   1  -3   36.74    1.26
  -1   1  -3   41.09    1.26
  -1   1  -3   38.56    1.25
   1  -1   3   38.41    1.26
   1  -1   3   40.35    1.25
   1  -1   3   40.51    1.26
   1  -1   3   39.66    1.25
  -2   1  -3   41.41    1.35
  -2   1  -3   39.80    1.35
  -2   1  -3   43.22    1.35
  -2   1  -3   41.89    1.34
   2  -1   3   41.63    1.35
   2  -1   3   42.69    1.35
   2  -1   3   42.37    1.34
  -3   1  -3    5.20    0.20
  -3   1  -3    5.31    0.19
  -3   1  -3    5.56    0.19
  -3   1  -3    5.59    0.20
   3  -1   3    5.47    0.19
   3  -1   3    5.12    0.20
  -4   1  -3    0.85    0.06
  -4   1  -3    0.71    0.07
  -4   1  -3    0.84    0.07
  -4   1  -3    0.87    0.07
   4  -1   3    0.82    0.06
   4  -1   3    0.78    0.07
  -5   1  -3   24.87    0.87
  -5   1  -3   26.69    0.86
   5  -1   3   26.22    0.85
   5  -1   3   25.82    0.87
  -6   1  -3   11.01    0.41
  -6   1  -3   10.70    0.40
   6  -1   3   10.87    0.41
   6  -1   3   10.74    0.38
  -7   1  -3    1.47    0.14
  -7   1  -3    1.27    0.13
   7  -1   3    1.40    0.13
   7  -1   3    1.38    0.09
  -8   1  -3    0.07    0.09
  -8   1  -3    0.02    0.10
   8  -1   3   -0.02    0.10
   8  -1   3    0.06    0.06
  -9   1  -3   -0.06    0.14
   9  -1   3   -0.01    0.08
   9  -1   3   -0.03    0.13
   8   0  -3    3.82    0.20
  -8   0   3    4.07    0.25
   7   0  -3    9.29    0.35
  -7   0   3    9.67    0.38
   6   0  -3    1.31    0.10
   6   0  -3    1.38    0.13
  -6   0   3    1.40    0.13
  -6   0   3    1.33    0.13
  -6   0   3    1.28    0.12
   5   0  -3   32.50    1.05
   5   0  -3   32.62    1.06
  -5   0   3   32.10    1.06
  -5   0   3   31.75    1.06
  -5   0   3   30.91    1.06
   4   0  -3    5.54    0.21
   4   0  -3    5.92    0.22
  -4   0   3    5.92    0.23
  -4   0   3    5.59    0.22
  -4   0   3    5.98    0.22
  -4   0   3    5.63    0.22
   3   0  -3   10.99    0.37
   3   0  -3   10.27    0.36
   3   0  -3   10.20    0.36
   3   0  -3   10.81    0.35
  -3   0   3   10.85    0.36
  -3   0   3   10.23    0.37
  -3   0   3   10.42    0.37
  -3   0   3   10.93    0.37
   2   0  -3   52.02    1.68
   2   0  -3   52.20    1.67
   2   0  -3   51.88    1.67
  -2   0   3   53.32    1.67
  -2   0   3   51.40    1.68
  -2   0   3   52.04    1.68
  -2   0   3   52.78    1.68
   1   0  -3   64.47    2.04
   1   0  -3   63.10    2.04
   1   0  -3   61.38    2.04
  -1   0   3   64.90    2.04
  -1   0   3   63.25    2.04
  -1   0   3   65.12    2.04
  -1   0   3   64.67    2.03
   0   0  -3   30.70    1.01
   0   0  -3   32.62    1.00
   0   0  -3   30.58    1.00
   0   0   3   31.29    1.00
   0   0   3   32.12    1.00
   0   0   3   31.64    1.00
   0   0   3   29.95    1.00
  -1   0  -3  198.30    6.20
  -1   0  -3  200.54    6.21
   1   0   3  188.86    6.18
   1   0   3  191.73    6.21
  -2   0  -3    1.27    0.05
  -2   0  -3    1.19    0.06
  -2   0  -3    1.07    0.06
   2   0   3    1.17    0.06
   2   0   3    1.20    0.05
   2   0   3    1.04    0.06
  -3   0  -3    4.71    0.19
  -3   0  -3    4.99    0.17
  -3   0  -3    5.01    0.18
   3   0   3    4.91    0.17
   3   0   3    4.83    0.19
  -4   0  -3   12.53    0.44
  -4   0  -3   13.61    0.43
  -4   0  -3   13.21    0.45
   4   0   3   12.65    0.45
   4   0   3   13.32    0.43
   4   0   3   12.12    0.43
  -5   0  -3    2.15    0.11
  -5   0  -3    1.97    0.12
   5   0   3    2.20    0.12
   5   0   3    2.17    0.09
  -6   0  -3    0.24    0.07
  -6   0  -3    0.30    0.06
   6   0   3    0.39    0.08
   6   0   3    0.33    0.05
  -7   0  -3   20.11    0.72
  -7   0  -3   19.91    0.71
   7   0   3   21.28    0.72
   7   0   3   20.51    0.68
  -8   0  -3    2.94    0.20
  -8   0  -3    3.05    0.19
   8   0   3    2.83    0.14
   8   0   3    2.40    0.19
  -9   0  -3    1.04    0.14
  -9   0  -3    1.52    0.18
   9   0   3    1.37    0.11
   9   0   3    1.18    0.17
   8  -1  -3    0.16    0.09
  -8   1   3    0.25    0.14
   7  -1  -3    0.79    0.10
  -7   1   3    0.73    0.12
   6  -1  -3    0.07    0.06
  -6   1   3    0.10    0.08
   5  -1  -3    0.55    0.08
   5  -1  -3    0.60    0.07
  -5   1   3    0.66    0.09
  -5   1   3    0.58    0.08
  -5   1   3    0.89    0.09
   4  -1  -3    0.42    0.06
   4  -1  -3    0.46    0.05
  -4   1   3    0.43    0.06
  -4   1   3    0.36    0.06
  -4   1   3    0.42    0.06
  -4   1   3    0.37    0.05
   3  -1  -3    2.76    0.12
   3  -1  -3    2.79    0.12
   3  -1  -3    2.86    0.12
   3  -1  -3    2.71    0.11
  -3   1   3    2.68    0.11
  -3   1   3    2.46    0.12
  -3   1   3    2.74    0.12
  -3   1   3    2.45    0.12
   2  -1  -3   23.13    0.77
   2  -1  -3   23.06    0.77
   2  -1  -3   24.23    0.77
  -2   1   3   24.22    0.77
  -2   1   3   22.65    0.77
  -2   1   3   23.16    0.77
  -2   1   3   24.51    0.77
  -2   1   3   24.19    0.77
   1  -1  -3    9.28    0.30
   1  -1  -3    8.92    0.30
   1  -1  -3    8.76    0.30
  -1   1   3    8.43    0.30
  -1   1   3    9.04    0.30
  -1   1   3    9.15    0.30
  -1   1   3    8.89    0.29
  -1   1   3    8.76    0.29
   0  -1  -3   13.98    0.46
   0  -1  -3   14.09    0.45
   0   1   3   14.03    0.45
   0   1   3   14.01    0.45
   0   1   3   13.68    0.46
  -1  -1  -3   14.29    0.47
  -1  -1  -3   13.51    0.46
   1   1   3   14.21    0.46
   1   1   3   13.62    0.46
   1   1   3   14.34    0.45
   1   1   3   15.02    0.45
  -2  -1  -3    1.80    0.08
  -2  -1  -3    2.02    0.08
  -2  -1  -3    1.97    0.09
  -2  -1  -3    1.91    0.07
   2   1   3    2.14    0.07
   2   1   3    2.05    0.09
   2   1   3    2.06    0.07
   2   1   3    2.01    0.08
  -3  -1  -3   16.28    0.52
  -3  -1  -3   16.08    0.52
  -3  -1  -3   15.91    0.52
  -3  -1  -3   14.99    0.53
   3   1   3   15.53    0.53
   3   1   3   15.60    0.53
   3   1   3   15.88    0.51
   3   1   3   16.36    0.51
  -4  -1  -3   25.99    0.87
  -4  -1  -3   26.69    0.85
  -4  -1  -3   25.39    0.85
   4   1   3   26.48    0.84
   4   1   3   27.55    0.85
   4   1   3   25.33    0.87
  -5  -1  -3    2.12    0.12
  -5  -1  -3    2.25    0.11
   5   1   3    2.21    0.13
   5   1   3    2.46    0.09
  -6  -1  -3    0.76    0.09
  -6  -1  -3    0.73    0.08
   6   1   3    0.76    0.06
   6   1   3    0.87    0.10
  -7  -1  -3    0.80    0.10
  -7  -1  -3    0.75    0.09
   7   1   3    0.84    0.11
   7   1   3    0.81    0.07
  -8  -1  -3   14.90    0.54
  -8  -1  -3   15.02    0.56
   8   1   3   14.91    0.50
   8   1   3   15.05    0.56
  -9  -1  -3    0.50    0.14
  -9  -1  -3    0.47    0.11
   9   1   3    0.56    0.07
   9   1   3    0.44    0.13
   8  -2  -3    0.37    0.11
  -8   2   3    0.28    0.14
   7  -2  -3    0.11    0.08
  -7   2   3    0.09    0.10
   6  -2  -3    0.42    0.08
  -6   2   3    0.50    0.10
   5  -2  -3    5.18    0.21
  -5   2   3    4.92    0.22
   4  -2  -3    8.64    0.31
   4  -2  -3    8.42    0.31
  -4   2   3    8.68    0.32
  -4   2   3    8.38    0.31
  -4   2   3    8.90    0.32
  -4   2   3    8.34    0.31
   3  -2  -3    0.32    0.04
   3  -2  -3    0.28    0.04
   3  -2  -3    0.27    0.04
   3  -2  -3    0.32    0.05
  -3   2   3    0.21    0.05
  -3   2   3    0.26    0.05
  -3   2   3    0.31    0.04
  -3   2   3    0.24    0.04
  -3   2   3    0.35    0.04
   2  -2  -3  118.39    3.77
   2  -2  -3  116.06    3.78
   2  -2  -3  117.68    3.78
   2  -2  -3  118.56    3.78
  -2   2   3  118.83    3.78
  -2   2   3  119.86    3.78
  -2   2   3  121.30    3.78
  -2   2   3  119.87    3.77
  -2   2   3  116.25    3.77
   1  -2  -3   16.08    0.51
   1  -2  -3   15.55    0.52
  -1   2   3   15.14    0.51
  -1   2   3   16.05    0.50
  -1   2   3   15.53    0.52
  -1   2   3   15.37    0.52
  -1   2   3   15.90    0.52
   0  -2  -3  214.98    6.83
   0   2   3  217.77    6.84
   0   2   3  211.89    6.80
   0   2   3  210.95    6.81
   0   2   3  214.78    6.80
  -1  -2  -3    7.36    0.25
  -1  -2  -3    7.37    0.24
  -1  -2  -3    7.63    0.24
   1   2   3    7.28    0.25
   1   2   3    7.32    0.25
   1   2   3    7.41    0.25
  -2  -2  -3   15.87    0.48
  -2  -2  -3   14.18    0.49
   2   2   3   15.03    0.49
   2   2   3   14.50    0.49
   2   2   3   15.11    0.49
  -3  -2  -3    2.45    0.10
  -3  -2  -3    2.35    0.09
  -3  -2  -3    2.39    0.09
  -3  -2  -3    2.30    0.09
   3   2   3    2.46    0.10
   3   2   3    2.36    0.11
  -4  -2  -3   58.90    1.89
  -4  -2  -3   59.19    1.89
  -4  -2  -3   59.48    1.89
  -4  -2  -3   57.45    1.90
   4   2   3   60.25    1.91
  -5  -2  -3    6.40    0.27
  -5  -2  -3    7.18    0.26
   5   2   3    7.95    0.24
   5   2   3    7.42    0.24
   5   2   3    7.30    0.28
  -6  -2  -3    7.71    0.30
  -6  -2  -3    7.42    0.28
   6   2   3    7.78    0.30
   6   2   3    7.33    0.25
  -7  -2  -3    3.65    0.17
  -7  -2  -3    3.47    0.18
   7   2   3    3.65    0.19
   7   2   3    3.54    0.13
  -8  -2  -3    4.30    0.21
  -8  -2  -3    4.75    0.22
   8   2   3    3.88    0.22
   8   2   3    4.07    0.15
  -9  -2  -3    0.49    0.13
  -9  -2  -3    0.47    0.10
   9   2   3    0.52    0.06
   9   2   3    0.52    0.13
   8  -3  -3    0.23    0.12
   7  -3  -3    1.63    0.15
  -7   3   3    1.82    0.19
   6  -3  -3    3.92    0.20
  -6   3   3    3.90    0.21
   5  -3  -3    0.31    0.07
  -5   3   3    0.21    0.07
  -5   3   3    0.35    0.09
   4  -3  -3    0.38    0.06
  -4   3   3    0.62    0.08
  -4   3   3    0.53    0.06
   3  -3  -3   63.00    1.99
   3  -3  -3   62.13    2.00
   3  -3  -3   62.08    1.98
  -3   3   3   59.60    1.99
  -3   3   3   60.48    2.00
  -3   3   3   64.93    1.98
  -3   3   3   61.04    1.99
  -3   3   3   61.07    1.99
   2  -3  -3    0.29    0.03
   2  -3  -3    0.31    0.04
   2  -3  -3    0.22    0.04
  -2   3   3    0.28    0.03
  -2   3   3    0.30    0.05
  -2   3   3    0.20    0.04
  -2   3   3    0.26    0.05
  -2   3   3    0.28    0.04
   1  -3  -3    5.72    0.20
   1  -3  -3    6.04    0.20
  -1   3   3    5.64    0.21
  -1   3   3    5.43    0.20
  -1   3   3    5.66    0.20
   0  -3  -3    4.33    0.15
   0   3   3    4.31    0.15
   0   3   3    4.38    0.16
   0   3   3    4.18    0.16
   0   3   3    4.41    0.15
  -1  -3  -3  126.83    3.94
  -1  -3  -3  122.87    3.95
   1   3   3  126.23    3.95
   1   3   3  119.98    3.95
   1   3   3  124.44    3.94
   2   3   3    6.52    0.23
   2   3   3    6.60    0.23
   2   3   3    6.79    0.23
  -3  -3  -3   44.10    1.41
  -3  -3  -3   42.60    1.42
   3   3   3   43.54    1.42
   3   3   3   45.51    1.42
   3   3   3   44.40    1.41
  -4  -3  -3    2.25    0.09
  -4  -3  -3    2.10    0.09
  -4  -3  -3    2.19    0.09
  -4  -3  -3    2.06    0.10
   4   3   3    2.33    0.09
   4   3   3    2.31    0.11
  -5  -3  -3    5.46    0.20
  -5  -3  -3    5.01    0.21
   5   3   3    5.58    0.22
  -6  -3  -3    4.85    0.19
  -6  -3  -3    4.93    0.21
   6   3   3    4.60    0.21
  -7  -3  -3   29.56    0.96
  -7  -3  -3   29.05    0.98
   7   3   3   28.45    0.99
  -8  -3  -3    4.17    0.23
  -8  -3  -3    4.29    0.20
   8   3   3    4.60    0.24
  -9  -3  -3    0.27    0.09
  -9  -3  -3    0.33    0.12
   9   3   3    0.26    0.13
   7  -4  -3    3.60    0.21
  -7   4   3    3.57    0.24
   6  -4  -3    1.12    0.12
  -6   4   3    0.90    0.13
   5  -4  -3    3.05    0.16
  -5   4   3    3.13    0.17
  -5   4   3    3.01    0.16
   4  -4  -3    0.85    0.09
  -4   4   3    1.05    0.10
  -4   4   3    0.89    0.08
   3  -4  -3   21.02    0.70
   3  -4  -3   20.00    0.70
  -3   4   3   20.19    0.69
  -3   4   3   21.72    0.71
  -3   4   3   21.44    0.69
   2  -4  -3    0.13    0.04
   2  -4  -3    0.17    0.04
  -2   4   3    0.21    0.05
  -2   4   3    0.23    0.04
  -2   4   3    0.15    0.03
   1  -4  -3    3.67    0.14
   1  -4  -3    3.65    0.14
  -1   4   3    3.54    0.14
  -1   4   3    3.36    0.13
  -1   4   3    3.32    0.14
   0  -4  -3    4.47    0.16
   0   4   3    4.75    0.17
   0   4   3    4.52    0.16
   0   4   3    4.26    0.15
  -1  -4  -3   17.35    0.56
  -1  -4  -3   18.09    0.56
  -1  -4  -3   16.61    0.56
   1   4   3   17.35    0.57
   1   4   3   16.48    0.57
   1   4   3   18.01    0.56
   2   4   3   12.52    0.42
   2   4   3   12.55    0.42
   2   4   3   12.75    0.42
  -3  -4  -3   15.31    0.52
   3   4   3   16.09    0.52
   3   4   3   15.89    0.51
   3   4   3   14.61    0.52
  -4  -4  -3   30.16    1.00
  -4  -4  -3   29.85    1.03
  -4  -4  -3   31.82    1.02
  -4  -4  -3   31.27    1.00
   4   4   3   30.99    1.03
   4   4   3   32.32    1.03
   4   4   3   33.03    1.02
  -5  -4  -3    3.97    0.17
  -5  -4  -3    4.13    0.15
   5   4   3    4.28    0.19
  -6  -4  -3    4.01    0.18
  -6  -4  -3    3.94    0.16
   6   4   3    4.14    0.20
  -7  -4  -3    0.27    0.06
  -7  -4  -3    0.28    0.08
   7   4   3    0.42    0.09
  -8  -4  -3    0.27    0.07
  -8  -4  -3    0.22    0.10
   8   4   3    0.21    0.09
  -9  -4  -3    0.05    0.13
  -9  -4  -3    0.02    0.12
  -9  -4  -3    0.17    0.08
   9   4   3    0.10    0.12
  -7   5   3    0.35    0.13
  -6   5   3    0.65    0.12
  -5   5   3    0.64    0.09
  -5   5   3    0.64    0.10
  -4   5   3   10.44    0.38
  -4   5   3   10.76    0.40
   3  -5  -3    0.05    0.05
  -3   5   3    0.07    0.04
  -3   5   3    0.10    0.06
  -3   5   3    0.07    0.05
   2  -5  -3   14.24    0.48
  -2   5   3   13.35    0.47
  -2   5   3   13.45    0.46
  -2   5   3   13.92    0.47
   1  -5  -3    4.70    0.18
  -1   5   3    4.44    0.18
  -1   5   3    4.62    0.19
  -1   5   3    4.56    0.17
   0  -5  -3   49.71    1.64
   0  -5  -3   52.87    1.62
   0   5   3   51.27    1.64
   0   5   3   50.85    1.62
   0   5   3   50.01    1.65
   0   5   3   50.48    1.62
  -1  -5  -3    1.58    0.07
  -1  -5  -3    1.63    0.07
  -1  -5  -3    1.62    0.07
   1   5   3    1.76    0.08
   1   5   3    1.72    0.09
  -2  -5  -3    7.57    0.26
  -2  -5  -3    7.79    0.26
  -2  -5  -3    8.20    0.28
   2   5   3    8.16    0.28
   2   5   3    8.44    0.28
   2   5   3    7.84    0.28
  -3  -5  -3    2.03    0.11
   3   5   3    2.11    0.10
   3   5   3    2.14    0.10
   3   5   3    2.28    0.11
  -4  -5  -3   39.63    1.31
  -4  -5  -3   39.51    1.27
  -4  -5  -3   40.50    1.27
  -4  -5  -3   38.77    1.29
   4   5   3   39.73    1.29
   4   5   3   40.07    1.29
   4   5   3   40.24    1.30
  -5  -5  -3    0.01    0.05
  -5  -5  -3    0.01    0.02
   5   5   3    0.04    0.06
   5   5   3    0.02    0.04
  -6  -5  -3    0.87    0.06
  -6  -5  -3    0.91    0.10
   6   5   3    0.75    0.10
  -7  -5  -3    0.88    0.10
  -7  -5  -3    0.98    0.12
  -7  -5  -3    0.78    0.08
   7   5   3    0.74    0.11
  -8  -5  -3    0.98    0.12
  -8  -5  -3    0.91    0.10
  -8  -5  -3    0.97    0.14
   8   5   3    0.91    0.13
  -9  -5  -3    0.19    0.12
  -9  -5  -3    0.15    0.08
  -9  -5  -3    0.07    0.12
   9   5   3    0.18    0.12
  -6   6   3    2.09    0.20
  -5   6   3    1.81    0.14
  -5   6   3    1.60    0.14
  -4   6   3    1.66    0.12
  -4   6   3    1.35    0.11
   3  -6  -3    1.52    0.12
  -3   6   3    1.55    0.10
  -3   6   3    1.59    0.12
  -3   6   3    1.88    0.12
   2  -6  -3    1.12    0.10
  -2   6   3    1.12    0.07
  -2   6   3    0.95    0.09
  -2   6   3    1.23    0.09
   1  -6  -3    7.53    0.28
  -1   6   3    7.72    0.29
  -1   6   3    7.61    0.27
  -1   6   3    8.11    0.28
   0  -6  -3    4.34    0.17
   0   6   3    4.13    0.18
   0   6   3    4.56    0.17
   0   6   3    4.38    0.15
   0   6   3    4.19    0.15
  -1  -6  -3   19.85    0.67
  -1  -6  -3   20.46    0.67
  -1  -6  -3   20.84    0.67
   1   6   3   19.96    0.68
   1   6   3   20.73    0.67
  -2  -6  -3    2.08    0.10
  -2  -6  -3    2.12    0.08
  -2  -6  -3    2.00    0.08
   2   6   3    2.01    0.11
   2   6   3    2.30    0.10
  -3  -6  -3   11.95    0.44
  -3  -6  -3   12.61    0.41
   3   6   3   12.63    0.44
   3   6   3   13.03    0.43
   3   6   3   13.31    0.44
  -4  -6  -3   16.19    0.56
  -4  -6  -3   15.80    0.57
  -4  -6  -3   16.69    0.53
   4   6   3   16.64    0.56
   4   6   3   17.19    0.56
   4   6   3   16.85    0.57
  -5  -6  -3    0.04    0.06
  -5  -6  -3    0.10    0.03
  -5  -6  -3    0.10    0.05
   5   6   3    0.11    0.05
   5   6   3    0.07    0.05
  -6  -6  -3    0.22    0.08
  -6  -6  -3    0.18    0.04
  -6  -6  -3    0.09    0.06
   6   6   3    0.18    0.08
  -7  -6  -3    7.58    0.33
  -7  -6  -3    7.85    0.28
  -7  -6  -3    7.78    0.31
   7   6   3    7.25    0.32
  -8  -6  -3    0.25    0.09
  -8  -6  -3    0.51    0.07
  -8  -6  -3    0.31    0.12
   8   6   3    0.31    0.11
  -9  -6  -3    0.85    0.16
  -9  -6  -3    0.93    0.11
   9   6   3    0.79    0.15
  -6   7   3    0.02    0.12
  -6   7   3   -0.01    0.10
  -5   7   3    0.70    0.12
  -5   7   3    0.87    0.11
  -4   7   3    3.36    0.19
  -4   7   3    3.54    0.17
   3  -7  -3   12.28    0.46
  -3   7   3   12.26    0.45
  -3   7   3   12.31    0.43
  -3   7   3   12.88    0.46
   2  -7  -3    1.43    0.12
  -2   7   3    1.56    0.11
  -2   7   3    1.53    0.09
  -2   7   3    1.62    0.12
   1  -7  -3    0.72    0.08
  -1   7   3    0.59    0.07
  -1   7   3    0.58    0.05
  -1   7   3    0.63    0.08
   0  -7  -3   10.21    0.36
   0   7   3   10.55    0.34
   0   7   3    9.85    0.37
   0   7   3   10.15    0.36
  -1  -7  -3    0.04    0.05
  -1  -7  -3    0.02    0.03
   1   7   3   -0.01    0.05
   1   7   3    0.04    0.04
  -2  -7  -3    0.62    0.05
  -2  -7  -3    0.54    0.06
   2   7   3    0.70    0.06
   2   7   3    0.57    0.07
  -3  -7  -3    0.90    0.08
  -3  -7  -3    0.85    0.05
  -3  -7  -3    0.88    0.05
   3   7   3    0.93    0.07
   3   7   3    0.85    0.08
  -4  -7  -3    6.70    0.25
  -4  -7  -3    6.22    0.22
  -4  -7  -3    6.85    0.22
  -4  -7  -3    6.55    0.26
   4   7   3    6.80    0.25
   4   7   3    6.67    0.25
   4   7   3    6.85    0.26
  -5  -7  -3    6.43    0.27
  -5  -7  -3    6.90    0.28
  -5  -7  -3    6.82    0.23
   5   7   3    6.73    0.27
   5   7   3    6.95    0.26
  -6  -7  -3   10.52    0.42
  -6  -7  -3   11.17    0.37
   6   7   3   11.30    0.42
  -7  -7  -3    0.72    0.12
  -7  -7  -3    0.72    0.08
   7   7   3    0.69    0.11
  -8  -7  -3    0.25    0.11
  -8  -7  -3    0.36    0.07
   8   7   3    0.32    0.11
  -9  -7  -3    1.93    0.15
  -9  -7  -3    1.81    0.21
   9   7   3    1.76    0.20
  -5   8   3    0.14    0.13
  -5   8   3    0.22    0.09
  -4   8   3    0.20    0.10
  -4   8   3    0.14    0.07
   3  -8  -3    5.13    0.24
  -3   8   3    4.46    0.23
  -3   8   3    4.92    0.23
  -3   8   3    4.86    0.20
   2  -8  -3   18.16    0.67
  -2   8   3   19.07    0.65
  -2   8   3   20.39    0.68
  -2   8   3   19.98    0.67
   1  -8  -3    0.80    0.09
  -1   8   3    0.59    0.07
  -1   8   3    0.57    0.06
  -1   8   3    0.70    0.09
   0  -8  -3    0.84    0.08
   0   8   3    0.90    0.10
   0   8   3    0.82    0.08
   0   8   3    0.84    0.05
  -1  -8  -3    0.50    0.06
   1   8   3    0.52    0.06
   1   8   3    0.45    0.08
  -2  -8  -3    0.20    0.04
  -2  -8  -3    0.19    0.06
   2   8   3    0.10    0.06
  -3  -8  -3    4.90    0.20
  -3  -8  -3    4.70    0.18
   3   8   3    4.80    0.21
  -4  -8  -3    0.11    0.03
  -4  -8  -3    0.09    0.06
   4   8   3    0.11    0.06
  -5  -8  -3    0.67    0.10
  -5  -8  -3    0.69    0.06
   5   8   3    0.69    0.08
  -6  -8  -3    2.28    0.11
  -6  -8  -3    2.46    0.16
   6   8   3    2.16    0.15
  -7  -8  -3    1.78    0.16
  -7  -8  -3    1.60    0.10
   7   8   3    1.47    0.15
  -8  -8  -3    4.14    0.19
  -8  -8  -3    4.27    0.26
   8   8   3    4.29    0.26
  -9  -8  -3    2.77    0.18
  -9  -8  -3    2.97    0.25
   9   8   3    2.78    0.24
  -4   9   3    1.58    0.18
  -4   9   3    1.63    0.14
  -3   9   3    0.08    0.09
  -3   9   3    0.08    0.06
  -3   9   3    0.05    0.09
   2  -9  -3    0.05    0.07
  -2   9   3    0.08    0.05
  -2   9   3    0.13    0.09
   1  -9  -3    2.19    0.15
  -1   9   3    2.60    0.16
  -1   9   3    2.11    0.11
   0  -9  -3    0.22    0.07
   0   9   3    0.24    0.03
   0   9   3    0.20    0.07
  -1  -9  -3    1.09    0.09
   1   9   3    1.07    0.11
  -2  -9  -3    7.86    0.29
   2   9   3    8.02    0.32
  -3  -9  -3    8.52    0.33
  -3  -9  -3    8.33    0.30
   3   9   3    8.56    0.33
  -4  -9  -3    0.51    0.06
  -4  -9  -3    0.55    0.09
   4   9   3    0.43    0.08
  -5  -9  -3    9.43    0.36
  -5  -9  -3    8.60    0.31
   5   9   3    9.38    0.35
  -6  -9  -3    1.41    0.09
  -6  -9  -3    1.75    0.16
  -7  -9  -3    0.09    0.05
  -7  -9  -3    0.08    0.10
  -8  -9  -3    0.02    0.13
  -8  -9  -3    0.13    0.07
  -3  10   3    3.93    0.19
  -3  10   3    3.81    0.24
   2 -10  -3    0.45    0.11
  -2  10   3    0.31    0.06
  -2  10   3    0.54    0.12
   1 -10  -3    3.71    0.21
  -1  10   3    3.81    0.16
  -1  10   3    3.84    0.22
   0 -10  -3    0.99    0.11
   0  10   3    0.86    0.12
   0  10   3    0.76    0.06
  -1 -10  -3    8.34    0.32
   1  10   3    8.51    0.34
  -2 -10  -3   17.22    0.58
   2  10   3   16.42    0.60
  -3 -10  -3    1.53    0.10
   3  10   3    1.37    0.14
  -4 -10  -3    3.66    0.16
   4  10   3    3.55    0.20
  -5 -10  -3    2.70    0.13
  -5 -10  -3    2.87    0.19
   5  10   3    2.98    0.18
  -6 -10  -3    8.16    0.29
  -6 -10  -3    7.95    0.36
  -7 -10  -3    8.94    0.40
  -7 -10  -3    9.12    0.33
  -8 -10  -3    2.18    0.15
  -8 -10  -3    2.34    0.25
  -3  11   3    1.35    0.18
   2 -11  -3    1.82    0.20
  -2  11   3    1.97    0.20
  -2  11   3    1.70    0.12
   1 -11  -3    0.25    0.10
  -1  11   3    0.27    0.05
  -1  11   3    0.19    0.10
   0 -11  -3    1.36    0.15
   0  11   3    1.52    0.17
   0  11   3    1.45    0.07
  -1 -11  -3    0.74    0.10
   1  11   3    0.68    0.11
  -2 -11  -3    3.03    0.16
   2  11   3    2.99    0.19
  -3 -11  -3   28.61    0.97
   3  11   3   29.55    1.00
  -4 -11  -3    1.88    0.12
   4  11   3    1.96    0.17
  -5 -11  -3    3.48    0.16
   5  11   3    3.08    0.20
  -6 -11  -3    4.45    0.25
  -6 -11  -3    4.40    0.19
  -7 -11  -3    1.76    0.20
  -7 -11  -3    1.65    0.13
  -8 -11  -3    2.47    0.25
   1 -12  -3    0.08    0.12
  -1  12   3    0.18    0.14
  -1  12   3    0.07    0.05
   0 -12  -3    0.40    0.11
   0  12   3    0.31    0.12
  -1 -12  -3    1.23    0.14
   1  12   3    1.57    0.18
  -2 -12  -3    0.15    0.08
   2  12   3    0.22    0.10
  -3 -12  -3    2.06    0.15
   3  12   3    2.19    0.19
  -4 -12  -3    2.42    0.15
   4  12   3    2.62    0.21
  -5 -12  -3    2.23    0.15
   5  12   3    2.42    0.20
  -6 -12  -3    1.63    0.13
  -7 -12  -3    0.80    0.20
  -7 -12  -3    0.44    0.14
   0 -13  -3   -0.01    0.13
  -1 -13  -3    0.12    0.12
   1  13   3    0.06    0.12
  -2 -13  -3   10.37    0.41
   2  13   3    9.71    0.44
  -3 -13  -3    0.52    0.10
   3  13   3    0.39    0.14
  -4 -13  -3    0.93    0.12
   4  13   3    0.87    0.16
  -5 -13  -3    0.20    0.09
   5  13   3    0.09    0.13
   3  12  -4    0.13    0.14
  -3 -12   4    0.19    0.14
  -3 -12   4    0.10    0.13
   2  12  -4    0.64    0.17
   2  12  -4    0.51    0.07
  -2 -12   4    0.37    0.14
  -2 -12   4    0.51    0.17
   1  12  -4    0.13    0.13
   1  12  -4    0.06    0.07
  -1 -12   4    0.03    0.13
  -5 -11   4    1.07    0.15
  -5 -11   4    0.99    0.17
   4  11  -4    1.47    0.17
  -4 -11   4    1.47    0.17
  -4 -11   4    1.39    0.18
   3  11  -4    0.05    0.12
  -3 -11   4   -0.02    0.13
  -3 -11   4   -0.01    0.10
   2  11  -4    1.92    0.18
   2  11  -4    2.09    0.12
  -2 -11   4    2.34    0.20
  -2 -11   4    2.27    0.21
   1  11  -4    0.09    0.10
   1  11  -4    0.01    0.06
  -1 -11   4    0.02    0.12
  -1 -11   4    0.07    0.10
   0  11  -4    3.07    0.24
   0 -11   4    3.12    0.24
  -1  11  -4    1.36    0.14
  -1  11  -4    1.82    0.22
  -2  11  -4    6.82    0.36
  -2  11  -4    6.51    0.29
  -6 -10   4   -0.03    0.11
  -6 -10   4    0.04    0.16
  -5 -10   4    1.33    0.17
  -5 -10   4    1.03    0.13
   4  10  -4    0.48    0.05
   4  10  -4    0.52    0.12
  -4 -10   4    0.36    0.10
  -4 -10   4    0.53    0.14
   3  10  -4    5.50    0.21
   3  10  -4    5.89    0.28
  -3 -10   4    5.66    0.29
  -3 -10   4    5.64    0.27
   2  10  -4   -0.01    0.05
   2  10  -4    0.04    0.10
  -2 -10   4    0.00    0.08
  -2 -10   4    0.10    0.11
   1  10  -4    6.46    0.31
   1  10  -4    6.29    0.25
  -1 -10   4    6.78    0.31
  -1 -10   4    6.57    0.30
   0  10  -4    2.06    0.13
   0  10  -4    2.05    0.17
   0 -10   4    2.24    0.19
   0 -10   4    2.42    0.18
  -1  10  -4    2.00    0.14
  -1  10  -4    2.01    0.18
  -2  10  -4    0.10    0.12
  -3  10  -4    7.97    0.38
  -3  10  -4    7.55    0.33
  -7  -9   4    0.44    0.20
  -7  -9   4    0.53    0.13
  -6  -9   4    4.66    0.25
  -6  -9   4    5.16    0.30
   5   9  -4    3.95    0.14
  -5  -9   4    3.66    0.23
  -5  -9   4    3.85    0.21
   4   9  -4    1.31    0.08
   4   9  -4    1.47    0.15
  -4  -9   4    1.42    0.17
  -4  -9   4    1.25    0.14
   3   9  -4   29.98    1.01
   3   9  -4   32.25    1.06
  -3  -9   4   31.16    1.05
  -3  -9   4   31.28    1.07
   2   9  -4    1.16    0.13
   2   9  -4    1.26    0.09
  -2  -9   4    1.18    0.15
  -2  -9   4    1.17    0.13
   1   9  -4    0.17    0.08
   1   9  -4    0.20    0.05
  -1  -9   4    0.30    0.10
  -1  -9   4    0.23    0.08
   0   9  -4    5.94    0.24
   0   9  -4    6.28    0.29
   0  -9   4    6.81    0.29
   0  -9   4    6.13    0.28
  -1   9  -4    4.68    0.24
  -1   9  -4    4.67    0.20
   1  -9   4    5.07    0.25
   1  -9   4    4.27    0.25
  -2   9  -4    0.28    0.08
  -2   9  -4    0.22    0.10
  -3   9  -4    9.53    0.41
  -4   9  -4   -0.01    0.10
  -4   9  -4    0.03    0.13
  -7  -8   4    0.55    0.12
  -7  -8   4    0.65    0.16
   6   8  -4    5.42    0.19
  -6  -8   4    5.62    0.29
  -6  -8   4    5.36    0.26
   5   8  -4    0.06    0.04
  -5  -8   4    0.05    0.09
  -5  -8   4    0.02    0.07
   4   8  -4    7.56    0.31
   4   8  -4    7.30    0.26
  -4  -8   4    7.56    0.32
  -4  -8   4    7.19    0.30
   3   8  -4    5.52    0.25
   3   8  -4    5.45    0.21
  -3  -8   4    5.62    0.26
  -3  -8   4    5.63    0.24
   2   8  -4    4.93    0.20
   2   8  -4    5.45    0.24
  -2  -8   4    5.15    0.23
  -2  -8   4    5.34    0.24
   1   8  -4    0.06    0.08
   1   8  -4    0.09    0.04
  -1  -8   4    0.06    0.08
  -1  -8   4    0.08    0.07
   0   8  -4    3.42    0.19
   0   8  -4    3.56    0.16
   0  -8   4    3.35    0.18
   0  -8   4    3.64    0.20
  -1   8  -4    0.38    0.10
  -1   8  -4    0.56    0.07
   1  -8   4    0.58    0.10
   1  -8   4    0.59    0.10
  -2   8  -4    0.03    0.06
  -2   8  -4    0.02    0.09
   2  -8   4    0.03    0.07
  -3   8  -4    0.39    0.08
  -3   8  -4    0.37    0.10
  -4   8  -4    2.39    0.20
  -8  -7   4    2.55    0.31
  -8  -7   4    2.31    0.22
   7   7  -4   12.25    0.43
  -7  -7   4   13.53    0.53
  -7  -7   4   13.68    0.50
   6   7  -4    0.03    0.04
  -6  -7   4    0.08    0.11
  -6  -7   4    0.01    0.08
   5   7  -4    0.39    0.05
  -5  -7   4    0.40    0.08
  -5  -7   4    0.47    0.10
   4   7  -4   50.81    1.63
   4   7  -4   49.01    1.60
  -4  -7   4   50.08    1.65
  -4  -7   4   48.45    1.62
   3   7  -4    0.03    0.04
   3   7  -4    0.05    0.07
  -3  -7   4   -0.02    0.05
  -3  -7   4    0.02    0.07
   2   7  -4    0.85    0.07
   2   7  -4    0.64    0.09
  -2  -7   4    0.73    0.09
  -2  -7   4    0.88    0.10
   1   7  -4    1.04    0.10
   1   7  -4    1.02    0.08
  -1  -7   4    1.28    0.10
  -1  -7   4    1.41    0.12
   0   7  -4    0.07    0.06
   0   7  -4    0.17    0.05
   0  -7   4    0.13    0.07
   0  -7   4    0.07    0.06
  -1   7  -4    3.68    0.19
  -1   7  -4    3.55    0.16
   1  -7   4    3.51    0.19
   1  -7   4    3.60    0.19
  -2   7  -4    2.03    0.12
  -2   7  -4    2.24    0.15
   2  -7   4    2.06    0.15
  -3   7  -4    1.93    0.13
  -3   7  -4    2.19    0.15
   3  -7   4    1.98    0.15
  -4   7  -4    0.02    0.08
  -4   7  -4   -0.01    0.08
   4  -7   4    0.01    0.10
   8   6  -4    4.62    0.18
  -8  -6   4    4.97    0.27
  -8  -6   4    4.57    0.30
   7   6  -4    8.62    0.31
  -7  -6   4    8.83    0.37
  -7  -6   4    9.33    0.40
   6   6  -4    3.21    0.15
  -6  -6   4    3.85    0.19
  -6  -6   4    3.64    0.21
   5   6  -4    1.21    0.08
  -5  -6   4    1.21    0.12
  -5  -6   4    1.24    0.13
   4   6  -4   13.15    0.45
   4   6  -4   13.06    0.47
  -4  -6   4   14.12    0.49
  -4  -6   4   12.74    0.47
   3   6  -4   13.57    0.49
   3   6  -4   13.69    0.47
  -3  -6   4   13.67    0.48
  -3  -6   4   14.45    0.50
   2   6  -4   18.10    0.62
   2   6  -4   19.74    0.64
  -2  -6   4   18.38    0.63
  -2  -6   4   18.12    0.64
   1   6  -4    1.00    0.07
   1   6  -4    0.94    0.10
  -1  -6   4    0.86    0.09
  -1  -6   4    0.80    0.08
   0   6  -4    0.40    0.07
   0   6  -4    0.55    0.06
   0  -6   4    0.54    0.07
   0  -6   4    0.43    0.07
  -1   6  -4    2.62    0.15
  -1   6  -4    2.60    0.13
   1  -6   4    2.75    0.15
   1  -6   4    2.84    0.15
  -2   6  -4    7.54    0.30
  -2   6  -4    8.07    0.32
   2  -6   4    8.42    0.32
  -3   6  -4    7.87    0.29
  -3   6  -4    8.05    0.32
   3  -6   4    7.29    0.30
   3  -6   4    7.14    0.31
  -4   6  -4    0.52    0.10
  -4   6  -4    0.64    0.10
  -4   6  -4    0.35    0.08
   4  -6   4    0.43    0.09
   4  -6   4    0.43    0.08
  -5   6  -4    5.27    0.25
   5  -6   4    5.70    0.25
   5  -6   4    5.44    0.27
  -6   6  -4    1.02    0.14
   6  -6   4    1.32    0.13
  -7   6  -4    0.33    0.16
   7  -6   4    0.44    0.12
   8   5  -4    0.90    0.10
  -8  -5   4    0.73    0.16
  -8  -5   4    0.78    0.13
   7   5  -4    2.85    0.14
  -7  -5   4    2.74    0.19
  -7  -5   4    2.72    0.22
   6   5  -4   11.09    0.39
  -6  -5   4   11.15    0.43
  -6  -5   4   11.83    0.45
   5   5  -4    0.87    0.07
  -5  -5   4    0.99    0.12
  -5  -5   4    0.93    0.10
   4   5  -4   34.45    1.07
   4   5  -4   31.82    1.06
  -4  -5   4   31.82    1.08
  -4  -5   4   32.13    1.09
   3   5  -4    1.56    0.08
   3   5  -4    1.44    0.11
  -3  -5   4    1.53    0.10
  -3  -5   4    1.80    0.11
   2   5  -4   16.93    0.57
   2   5  -4   16.58    0.56
  -2  -5   4   16.54    0.58
  -2  -5   4   16.88    0.57
   1   5  -4   17.18    0.58
   1   5  -4   16.69    0.56
  -1  -5   4   17.14    0.57
  -1  -5   4   16.08    0.58
   0   5  -4   16.88    0.58
   0   5  -4   16.69    0.56
   0  -5   4   17.36    0.56
   0  -5   4   17.10    0.58
   0  -5   4   16.35    0.58
  -1   5  -4   13.64    0.50
  -1   5  -4   13.94    0.48
  -1   5  -4   15.07    0.47
   1  -5   4   14.57    0.50
   1  -5   4   13.47    0.50
   1  -5   4   14.60    0.49
  -2   5  -4    0.69    0.07
  -2   5  -4    0.86    0.09
  -2   5  -4    0.86    0.07
   2  -5   4    0.75    0.08
   2  -5   4    0.72    0.09
  -3   5  -4   11.58    0.42
  -3   5  -4   11.78    0.44
  -3   5  -4   12.25    0.42
   3  -5   4   12.31    0.44
   3  -5   4   11.47    0.42
  -4   5  -4    0.49    0.09
  -4   5  -4    0.37    0.08
  -4   5  -4    0.60    0.09
   4  -5   4    0.56    0.08
   4  -5   4    0.42    0.09
  -5   5  -4    4.03    0.20
   5  -5   4    4.04    0.21
   5  -5   4    3.43    0.18
  -6   5  -4    0.55    0.12
   6  -5   4    0.45    0.11
   6  -5   4    0.35    0.09
  -7   5  -4    2.38    0.20
   7  -5   4    2.48    0.17
   8   4  -4    1.05    0.12
  -8  -4   4    1.16    0.16
  -8  -4   4    0.96    0.17
   7   4  -4    0.10    0.06
  -7  -4   4    0.13    0.09
  -7  -4   4    0.12    0.10
   6   4  -4    1.11    0.09
  -6  -4   4    1.08    0.13
  -6  -4   4    0.81    0.10
   5   4  -4    8.79    0.31
  -5  -4   4    8.19    0.33
  -5  -4   4    8.70    0.34
   4   4  -4   18.20    0.61
   4   4  -4   17.67    0.60
  -4  -4   4   17.93    0.63
  -4  -4   4   18.36    0.62
   3   4  -4    0.11    0.05
   3   4  -4    0.11    0.03
  -3  -4   4    0.15    0.05
  -3  -4   4    0.13    0.03
  -3  -4   4    0.15    0.05
   2   4  -4   25.22    0.86
   2   4  -4   27.30    0.87
  -2  -4   4   25.25    0.88
  -2  -4   4   27.12    0.85
  -2  -4   4   26.88    0.86
  -2  -4   4   26.60    0.87
   1   4  -4    0.16    0.04
   1   4  -4    0.10    0.03
   1   4  -4    0.13    0.04
  -1  -4   4    0.10    0.04
  -1  -4   4    0.09    0.03
  -1  -4   4    0.10    0.04
  -1  -4   4    0.14    0.02
   0   4  -4    0.19    0.05
   0   4  -4    0.14    0.04
   0   4  -4    0.21    0.03
   0   4  -4    0.11    0.03
   0  -4   4    0.12    0.04
   0  -4   4    0.17    0.04
   0  -4   4    0.14    0.03
  -1   4  -4    0.11    0.03
  -1   4  -4    0.07    0.03
  -1   4  -4    0.09    0.05
  -1   4  -4    0.07    0.04
   1  -4   4    0.07    0.04
   1  -4   4    0.08    0.03
   1  -4   4    0.06    0.04
  -2   4  -4    9.00    0.31
  -2   4  -4    8.95    0.30
  -2   4  -4    7.51    0.31
  -2   4  -4    7.97    0.30
   2  -4   4    8.58    0.30
   2  -4   4    8.90    0.32
  -3   4  -4    9.11    0.34
  -3   4  -4    9.92    0.35
  -3   4  -4    9.80    0.34
  -3   4  -4    9.46    0.33
   3  -4   4    8.81    0.34
   3  -4   4    8.72    0.33
  -4   4  -4    1.45    0.11
  -4   4  -4    1.80    0.13
  -4   4  -4    1.52    0.12
   4  -4   4    1.80    0.12
   4  -4   4    1.95    0.11
  -5   4  -4    0.16    0.07
   5  -4   4    0.30    0.08
   5  -4   4    0.18    0.06
  -6   4  -4    2.33    0.17
   6  -4   4    2.38    0.17
   6  -4   4    2.33    0.14
  -7   4  -4    5.80    0.28
   7  -4   4    5.53    0.25
   7  -4   4    5.43    0.28
  -8   4  -4    0.01    0.14
   8  -4   4    0.03    0.10
   8   3  -4    0.09    0.07
  -8  -3   4    0.06    0.13
  -8  -3   4    0.07    0.12
   7   3  -4    0.41    0.07
  -7  -3   4    0.32    0.11
  -7  -3   4    0.41    0.10
  -7  -3   4    0.42    0.10
   6   3  -4    3.46    0.15
  -6  -3   4    3.31    0.18
  -6  -3   4    3.19    0.19
  -6  -3   4    3.40    0.19
   5   3  -4   13.94    0.49
  -5  -3   4   15.36    0.52
  -5  -3   4   14.45    0.53
  -5  -3   4   14.55    0.51
   4   3  -4    0.22    0.04
   4   3  -4    0.25    0.05
  -4  -3   4    0.25    0.05
  -4  -3   4    0.21    0.06
  -4  -3   4    0.17    0.05
   3   3  -4    1.48    0.08
   3   3  -4    1.57    0.08
  -3  -3   4    1.33    0.07
  -3  -3   4    1.22    0.09
  -3  -3   4    1.41    0.09
   2   3  -4    3.54    0.14
   2   3  -4    3.70    0.15
   2   3  -4    3.69    0.15
  -2  -3   4    3.64    0.14
  -2  -3   4    3.49    0.13
  -2  -3   4    3.77    0.16
  -2  -3   4    3.39    0.15
   1   3  -4    4.89    0.19
   1   3  -4    5.02    0.18
   1   3  -4    4.80    0.19
  -1  -3   4    5.20    0.18
  -1  -3   4    5.00    0.19
  -1  -3   4    5.08    0.17
  -1  -3   4    4.75    0.19
   0   3  -4   19.13    0.67
   0   3  -4   20.24    0.68
   0   3  -4   18.71    0.67
   0  -3   4   21.66    0.66
   0  -3   4   21.25    0.68
   0  -3   4   21.31    0.67
  -1   3  -4   17.60    0.61
  -1   3  -4   18.20    0.59
  -1   3  -4   18.60    0.60
  -1   3  -4   17.52    0.60
   1  -3   4   18.26    0.59
   1  -3   4   18.01    0.60
   1  -3   4   18.26    0.61
  -2   3  -4   79.55    2.63
  -2   3  -4   83.62    2.62
  -2   3  -4   82.14    2.62
  -2   3  -4   81.95    2.63
   2  -3   4   82.62    2.63
   2  -3   4   82.62    2.62
   2  -3   4   80.38    2.63
  -3   3  -4   19.54    0.65
  -3   3  -4   19.69    0.65
  -3   3  -4   19.30    0.65
   3  -3   4   20.13    0.66
   3  -3   4   19.01    0.66
   3  -3   4   18.77    0.64
  -4   3  -4    5.57    0.24
  -4   3  -4    6.41    0.24
  -4   3  -4    6.34    0.25
   4  -3   4    6.32    0.23
   4  -3   4    6.01    0.25
  -5   3  -4    0.00    0.06
  -5   3  -4    0.00    0.06
   5  -3   4    0.03    0.06
   5  -3   4    0.00    0.05
  -6   3  -4    8.16    0.35
  -6   3  -4    8.91    0.35
   6  -3   4    8.89    0.33
   6  -3   4    9.18    0.36
  -7   3  -4    4.01    0.23
   7  -3   4    4.15    0.19
   7  -3   4    4.07    0.23
  -8   3  -4    6.91    0.35
   8  -3   4    7.26    0.29
   8  -3   4    6.81    0.34
   8   2  -4    0.58    0.09
  -8  -2   4    0.67    0.14
  -8  -2   4    0.57    0.12
   7   2  -4    0.13    0.06
  -7  -2   4    0.17    0.11
  -7  -2   4    0.11    0.08
  -7  -2   4    0.06    0.09
   6   2  -4   11.04    0.39
  -6  -2   4   11.11    0.41
  -6  -2   4   10.54    0.42
  -6  -2   4   11.10    0.41
   5   2  -4    0.02    0.04
  -5  -2   4    0.01    0.05
  -5  -2   4    0.08    0.06
  -5  -2   4   -0.02    0.05
   4   2  -4    1.76    0.09
  -4  -2   4    1.94    0.11
  -4  -2   4    1.94    0.11
  -4  -2   4    1.77    0.10
   3   2  -4    4.80    0.17
   3   2  -4    4.65    0.17
  -3  -2   4    4.55    0.19
  -3  -2   4    4.45    0.18
  -3  -2   4    4.67    0.17
  -3  -2   4    4.54    0.18
   2   2  -4   15.28    0.50
   2   2  -4   14.75    0.50
   2   2  -4   14.49    0.49
  -2  -2   4   14.41    0.49
  -2  -2   4   15.26    0.49
  -2  -2   4   15.22    0.50
  -2  -2   4   14.92    0.51
   1   2  -4    5.93    0.21
   1   2  -4    6.15    0.22
   1   2  -4    6.09    0.22
  -1  -2   4    5.76    0.22
  -1  -2   4    6.09    0.21
  -1  -2   4    6.17    0.22
  -1  -2   4    6.02    0.21
   0   2  -4    1.40    0.07
   0   2  -4    1.20    0.07
   0   2  -4    1.27    0.06
   0  -2   4    1.08    0.06
   0  -2   4    1.24    0.06
   0  -2   4    1.20    0.07
   0  -2   4    1.27    0.07
  -1   2  -4    0.30    0.04
  -1   2  -4    0.41    0.04
  -1   2  -4    0.34    0.04
  -1   2  -4    0.36    0.04
   1  -2   4    0.47    0.04
   1  -2   4    0.35    0.05
   1  -2   4    0.39    0.04
   1  -2   4    0.30    0.03
  -2   2  -4   72.23    2.35
  -2   2  -4   74.17    2.35
  -2   2  -4   75.40    2.35
  -2   2  -4   74.62    2.35
   2  -2   4   71.83    2.34
   2  -2   4   67.94    2.35
   2  -2   4   77.11    2.35
  -3   2  -4    4.24    0.17
  -3   2  -4    4.10    0.17
  -3   2  -4    4.19    0.16
  -3   2  -4    4.17    0.17
   3  -2   4    3.69    0.15
   3  -2   4    3.88    0.17
   3  -2   4    4.65    0.17
  -4   2  -4    8.48    0.30
  -4   2  -4    8.63    0.30
  -4   2  -4    8.04    0.29
   4  -2   4    7.64    0.28
   4  -2   4    7.58    0.30
  -5   2  -4    3.23    0.16
  -5   2  -4    3.27    0.16
   5  -2   4    3.09    0.16
   5  -2   4    3.24    0.14
  -6   2  -4    0.36    0.09
  -6   2  -4    0.21    0.08
   6  -2   4    0.13    0.07
   6  -2   4    0.22    0.05
  -7   2  -4    0.19    0.09
  -7   2  -4    0.18    0.09
   7  -2   4    0.21    0.09
   7  -2   4    0.18    0.06
  -8   2  -4    2.25    0.19
   8  -2   4    2.40    0.15
   8  -2   4    2.39    0.20
   8   1  -4    4.75    0.23
  -8  -1   4    4.68    0.27
   7   1  -4    2.75    0.16
  -7  -1   4    3.15    0.20
  -7  -1   4    3.08    0.19
   6   1  -4    2.92    0.15
  -6  -1   4    2.94    0.17
  -6  -1   4    2.90    0.18
  -6  -1   4    2.88    0.17
   5   1  -4    0.03    0.05
  -5  -1   4    0.02    0.05
  -5  -1   4    0.03    0.05
  -5  -1   4    0.03    0.06
   4   1  -4    8.09    0.29
  -4  -1   4    7.92    0.30
  -4  -1   4    8.09    0.30
  -4  -1   4    8.68    0.31
   3   1  -4   13.15    0.44
   3   1  -4   13.16    0.44
   3   1  -4   13.94    0.45
  -3  -1   4   13.22    0.44
  -3  -1   4   12.94    0.45
  -3  -1   4   12.61    0.45
  -3  -1   4   13.42    0.46
   2   1  -4    0.01    0.03
   2   1  -4    0.00    0.03
   2   1  -4    0.02    0.03
  -2  -1   4    0.08    0.03
  -2  -1   4    0.02    0.03
  -2  -1   4    0.02    0.03
  -2  -1   4    0.00    0.03
   1   1  -4  130.92    4.22
   1   1  -4  134.46    4.21
   1   1  -4  134.42    4.21
  -1  -1   4  132.35    4.21
  -1  -1   4  136.30    4.22
  -1  -1   4  128.47    4.21
  -1  -1   4  129.64    4.22
   0   1  -4    4.87    0.18
   0   1  -4    4.61    0.17
   0   1  -4    5.05    0.18
   0  -1   4    5.11    0.17
   0  -1   4    5.01    0.18
   0  -1   4    5.05    0.17
   0  -1   4    5.14    0.18
  -1   1  -4    0.23    0.03
  -1   1  -4    0.27    0.03
  -1   1  -4    0.32    0.04
   1  -1   4    0.29    0.04
   1  -1   4    0.32    0.04
   1  -1   4    0.20    0.02
   1  -1   4    0.25    0.03
  -2   1  -4    3.65    0.14
  -2   1  -4    3.66    0.14
  -2   1  -4    3.95    0.15
  -2   1  -4    3.63    0.15
   2  -1   4    3.47    0.15
   2  -1   4    4.32    0.15
   2  -1   4    3.57    0.14
   2  -1   4    3.84    0.14
  -3   1  -4    4.78    0.18
  -3   1  -4    4.76    0.18
  -3   1  -4    4.74    0.18
  -3   1  -4    4.68    0.18
   3  -1   4    4.63    0.19
   3  -1   4    4.60    0.17
  -4   1  -4    2.84    0.13
  -4   1  -4    2.90    0.13
   4  -1   4    2.92    0.14
   4  -1   4    2.86    0.12
  -5   1  -4    9.60    0.37
  -5   1  -4   10.05    0.36
   5  -1   4   10.12    0.37
   5  -1   4   10.07    0.34
  -6   1  -4    0.06    0.06
  -6   1  -4    0.07    0.06
   6  -1   4    0.07    0.04
   6  -1   4    0.03    0.07
  -7   1  -4    0.00    0.08
  -7   1  -4   -0.03    0.07
   7  -1   4    0.04    0.09
   7  -1   4    0.02    0.05
  -8   1  -4    0.05    0.10
  -8   1  -4    0.00    0.09
   8  -1   4    0.07    0.11
   8  -1   4   -0.01    0.06
  -9   1  -4    4.31    0.27
  -9   1  -4    3.99    0.27
   9  -1   4    4.77    0.29
   9  -1   4    4.09    0.20
   8   0  -4    5.08    0.24
  -8   0   4    4.46    0.26
   7   0  -4    1.86    0.14
  -7   0   4    2.10    0.17
   6   0  -4    0.98    0.10
  -6   0   4    1.02    0.13
  -6   0   4    0.94    0.11
  -6   0   4    1.03    0.13
   5   0  -4   29.65    0.95
  -5   0   4   27.80    0.96
  -5   0   4   29.48    0.97
  -5   0   4   28.22    0.96
   4   0  -4   14.61    0.50
  -4   0   4   14.48    0.50
  -4   0   4   15.07    0.50
  -4   0   4   14.27    0.51
  -4   0   4   14.60    0.51
   3   0  -4   22.84    0.73
   3   0  -4   21.94    0.72
   3   0  -4   22.24    0.72
  -3   0   4   22.00    0.73
  -3   0   4   20.02    0.72
  -3   0   4   22.04    0.73
  -3   0   4   21.89    0.72
   2   0  -4   45.63    1.47
   2   0  -4   47.21    1.47
   2   0  -4   47.45    1.47
  -2   0   4   46.20    1.47
  -2   0   4   44.25    1.47
  -2   0   4   43.92    1.47
  -2   0   4   45.15    1.47
   1   0  -4   90.90    2.85
   1   0  -4   89.68    2.85
   1   0  -4   85.05    2.84
  -1   0   4   88.77    2.85
  -1   0   4   89.94    2.84
  -1   0   4   90.80    2.85
  -1   0   4   89.72    2.85
   0   0  -4    2.12    0.08
   0   0  -4    2.10    0.09
   0   0  -4    2.19    0.09
   0   0   4    2.07    0.08
   0   0   4    2.11    0.09
   0   0   4    1.98    0.08
   0   0   4    2.30    0.09
  -1   0  -4   45.90    1.47
  -1   0  -4   44.39    1.46
   1   0   4   46.15    1.47
   1   0   4   46.29    1.46
   1   0   4   45.72    1.46
  -2   0  -4   37.27    1.18
  -2   0  -4   34.63    1.18
  -2   0  -4   36.11    1.18
   2   0   4   37.25    1.19
   2   0   4   37.19    1.18
   2   0   4   37.13    1.17
  -3   0  -4    1.40    0.07
  -3   0  -4    1.41    0.08
  -3   0  -4    1.46    0.07
   3   0   4    1.24    0.07
   3   0   4    1.46    0.07
   3   0   4    1.36    0.08
   3   0   4    1.30    0.06
  -4   0  -4    0.68    0.06
  -4   0  -4    0.72    0.07
  -4   0  -4    0.75    0.06
   4   0   4    0.71    0.07
   4   0   4    0.65    0.07
   4   0   4    0.62    0.05
  -5   0  -4    0.46    0.06
  -5   0  -4    0.34    0.06
   5   0   4    0.34    0.06
   5   0   4    0.38    0.04
  -6   0  -4    3.71    0.17
  -6   0  -4    3.83    0.19
   6   0   4    3.76    0.15
   6   0   4    3.57    0.18
  -7   0  -4    1.85    0.14
  -7   0  -4    1.72    0.13
   7   0   4    1.75    0.10
   7   0   4    2.16    0.15
  -8   0  -4    7.10    0.33
  -8   0  -4    7.31    0.31
   8   0   4    6.95    0.27
   8   0   4    7.63    0.32
  -9   0  -4    0.03    0.10
  -9   0  -4    0.03    0.12
   9   0   4    0.05    0.06
   9   0   4    0.05    0.13
   8  -1  -4    0.77    0.12
  -8   1   4    1.03    0.16
   7  -1  -4    1.94    0.14
  -7   1   4    1.70    0.16
   6  -1  -4    5.82    0.24
  -6   1   4    5.71    0.26
   5  -1  -4   11.71    0.41
  -5   1   4   11.69    0.43
  -5   1   4   11.24    0.43
  -5   1   4   11.63    0.42
   4  -1  -4    0.29    0.05
  -4   1   4    0.30    0.06
  -4   1   4    0.26    0.06
  -4   1   4    0.30    0.05
  -4   1   4    0.27    0.06
   3  -1  -4    1.61    0.09
   3  -1  -4    1.56    0.08
   3  -1  -4    1.53    0.08
  -3   1   4    1.61    0.09
  -3   1   4    1.45    0.08
  -3   1   4    1.22    0.08
  -3   1   4    1.55    0.08
   2  -1  -4  182.81    5.80
   2  -1  -4  184.17    5.80
   2  -1  -4  176.64    5.80
  -2   1   4  189.03    5.81
  -2   1   4  180.03    5.80
  -2   1   4  184.06    5.80
  -2   1   4  179.98    5.81
   1  -1  -4    2.72    0.11
   1  -1  -4    2.52    0.11
   1  -1  -4    2.66    0.11
  -1   1   4    2.66    0.10
  -1   1   4    2.76    0.10
  -1   1   4    2.70    0.11
  -1   1   4    2.73    0.11
   0  -1  -4   14.58    0.48
   0  -1  -4   14.27    0.47
   0   1   4   14.26    0.47
   0   1   4   14.67    0.48
   0   1   4   14.41    0.47
  -1  -1  -4    2.25    0.09
  -1  -1  -4    2.31    0.09
   1   1   4    2.15    0.09
   1   1   4    2.25    0.08
   1   1   4    2.42    0.08
   1   1   4    2.21    0.09
  -2  -1  -4   48.12    1.48
  -2  -1  -4   45.72    1.48
  -2  -1  -4   45.14    1.47
   2   1   4   44.97    1.48
   2   1   4   45.70    1.47
   2   1   4   47.42    1.47
   2   1   4   45.91    1.49
  -3  -1  -4    3.41    0.14
  -3  -1  -4    3.77    0.15
  -3  -1  -4    3.67    0.14
   3   1   4    3.98    0.13
   3   1   4    3.39    0.15
   3   1   4    3.95    0.13
   3   1   4    3.74    0.15
  -4  -1  -4   12.92    0.43
  -4  -1  -4   12.49    0.45
  -4  -1  -4   12.69    0.43
   4   1   4   12.49    0.45
   4   1   4   12.94    0.42
   4   1   4   13.57    0.42
  -5  -1  -4    2.18    0.10
  -5  -1  -4    1.85    0.11
   5   1   4    1.99    0.08
   5   1   4    1.86    0.11
  -6  -1  -4    0.02    0.06
  -6  -1  -4    0.03    0.05
   6   1   4    0.00    0.03
   6   1   4    0.02    0.06
  -7  -1  -4    0.33    0.07
  -7  -1  -4    0.35    0.08
   7   1   4    0.33    0.04
   7   1   4    0.34    0.09
  -8  -1  -4    0.85    0.12
  -8  -1  -4    0.70    0.10
   8   1   4    0.60    0.11
   8   1   4    0.68    0.07
  -9  -1  -4    1.11    0.14
  -9  -1  -4    1.10    0.16
   9   1   4    1.28    0.17
   9   1   4    1.18    0.09
   8  -2  -4    0.66    0.12
  -8   2   4    0.70    0.18
   7  -2  -4    2.02    0.15
  -7   2   4    1.73    0.18
   6  -2  -4    5.40    0.23
  -6   2   4    5.21    0.25
   5  -2  -4    3.42    0.16
  -5   2   4    2.98    0.17
   4  -2  -4    3.98    0.17
  -4   2   4    4.79    0.25
  -4   2   4    4.05    0.17
  -4   2   4    4.06    0.17
  -4   2   4    4.00    0.18
   3  -2  -4    5.33    0.20
   3  -2  -4    5.28    0.20
   3  -2  -4    5.50    0.21
  -3   2   4    4.70    0.20
  -3   2   4    5.45    0.19
  -3   2   4    5.00    0.19
  -3   2   4    5.41    0.21
  -3   2   4    4.66    0.19
   2  -2  -4    0.05    0.03
   2  -2  -4    0.06    0.04
   2  -2  -4    0.06    0.03
  -2   2   4    0.06    0.04
  -2   2   4    0.04    0.03
  -2   2   4    0.05    0.03
  -2   2   4    0.05    0.03
  -2   2   4    0.06    0.03
   1  -2  -4   18.65    0.63
   1  -2  -4   18.83    0.63
  -1   2   4   18.92    0.63
  -1   2   4   20.19    0.63
  -1   2   4   19.83    0.62
  -1   2   4   19.18    0.63
  -1   2   4   18.94    0.62
   0  -2  -4    6.52    0.23
   0  -2  -4    6.45    0.22
   0   2   4    6.66    0.22
   0   2   4    6.47    0.23
   0   2   4    6.50    0.23
   0   2   4    6.56    0.22
  -1  -2  -4    5.62    0.19
  -1  -2  -4    5.25    0.20
  -1  -2  -4    5.50    0.19
   1   2   4    5.79    0.19
   1   2   4    5.49    0.20
   1   2   4    5.56    0.18
   1   2   4    5.71    0.20
   1   2   4    5.62    0.18
  -2  -2  -4    8.33    0.25
  -2  -2  -4    7.55    0.25
  -2  -2  -4    7.27    0.27
   2   2   4    7.67    0.27
   2   2   4    7.57    0.27
  -3  -2  -4    0.46    0.04
  -3  -2  -4    0.42    0.03
  -3  -2  -4    0.48    0.05
  -3  -2  -4    0.55    0.04
   3   2   4    0.51    0.05
   3   2   4    0.45    0.05
  -4  -2  -4    0.68    0.06
  -4  -2  -4    0.70    0.05
  -4  -2  -4    0.76    0.05
  -4  -2  -4    0.73    0.06
   4   2   4    0.77    0.07
   4   2   4    0.77    0.06
  -5  -2  -4   23.63    0.77
  -5  -2  -4   22.35    0.78
   5   2   4   24.25    0.74
   5   2   4   22.71    0.79
  -6  -2  -4   10.39    0.38
  -6  -2  -4    9.88    0.39
   6   2   4   10.69    0.35
   6   2   4   11.19    0.35
   6   2   4   10.83    0.40
  -7  -2  -4    0.01    0.07
  -7  -2  -4   -0.01    0.05
   7   2   4    0.00    0.07
   7   2   4    0.01    0.02
  -8  -2  -4    5.30    0.26
  -8  -2  -4    5.27    0.24
   8   2   4    5.33    0.18
   8   2   4    5.28    0.26
  -9  -2  -4    0.02    0.08
  -9  -2  -4    0.02    0.12
   9   2   4    0.02    0.12
   7  -3  -4    1.57    0.17
  -7   3   4    1.66    0.19
   6  -3  -4    0.89    0.11
  -6   3   4    0.80    0.11
   5  -3  -4    0.16    0.07
  -5   3   4    0.19    0.07
  -5   3   4    0.30    0.08
   4  -3  -4    5.91    0.23
  -4   3   4    5.93    0.23
  -4   3   4    5.71    0.24
   3  -3  -4    2.61    0.12
   3  -3  -4    2.91    0.14
   3  -3  -4    2.68    0.13
  -3   3   4    2.51    0.13
  -3   3   4    2.56    0.12
  -3   3   4    2.51    0.12
   2  -3  -4    2.05    0.10
   2  -3  -4    2.20    0.10
   2  -3  -4    1.86    0.10
  -2   3   4    2.06    0.11
  -2   3   4    1.82    0.09
  -2   3   4    2.10    0.08
  -2   3   4    2.16    0.11
  -2   3   4    1.95    0.10
   1  -3  -4    2.01    0.09
   1  -3  -4    1.83    0.09
  -1   3   4    2.01    0.08
  -1   3   4    1.94    0.09
  -1   3   4    1.94    0.09
   0  -3  -4    6.45    0.22
   0   3   4    6.66    0.22
   0   3   4    6.49    0.23
   0   3   4    6.26    0.23
   0   3   4    6.58    0.22
  -1  -3  -4   44.96    1.44
  -1  -3  -4   42.83    1.45
  -1  -3  -4   46.76    1.44
   1   3   4   44.50    1.45
   1   3   4   45.61    1.44
   1   3   4   45.61    1.45
  -2  -3  -4   11.32    0.40
   2   3   4   12.08    0.40
   2   3   4   12.16    0.40
   2   3   4   12.44    0.40
  -3  -3  -4   69.27    2.30
  -3  -3  -4   70.40    2.32
  -3  -3  -4   75.45    2.31
   3   3   4   75.33    2.33
   3   3   4   73.49    2.33
   3   3   4   71.93    2.32
  -4  -3  -4    0.21    0.04
  -4  -3  -4    0.26    0.03
  -4  -3  -4    0.21    0.02
  -4  -3  -4    0.20    0.05
   4   3   4    0.26    0.05
   4   3   4    0.18    0.04
  -5  -3  -4    0.04    0.03
  -5  -3  -4    0.02    0.04
   5   3   4    0.04    0.05
  -6  -3  -4    1.53    0.09
  -6  -3  -4    1.42    0.11
   6   3   4    1.45    0.11
  -7  -3  -4    5.00    0.23
  -7  -3  -4    5.27    0.21
   7   3   4    5.24    0.24
  -8  -3  -4    0.88    0.11
  -8  -3  -4    1.10    0.13
   8   3   4    0.94    0.13
  -9  -3  -4    2.48    0.19
  -9  -3  -4    2.91    0.18
   9   3   4    2.75    0.21
  -7   4   4    0.16    0.12
  -6   4   4    0.00    0.10
  -5   4   4    0.41    0.09
  -5   4   4    0.36    0.08
  -4   4   4    0.02    0.06
  -4   4   4    0.02    0.05
   3  -4  -4    4.68    0.20
  -3   4   4    4.59    0.18
  -3   4   4    4.57    0.19
  -3   4   4    4.44    0.19
   2  -4  -4    1.59    0.09
   2  -4  -4    1.72    0.10
  -2   4   4    1.65    0.08
  -2   4   4    1.88    0.10
  -2   4   4    1.58    0.09
   1  -4  -4    9.10    0.31
   1  -4  -4    9.07    0.31
  -1   4   4    8.63    0.31
  -1   4   4    8.99    0.31
  -1   4   4    8.35    0.30
   0  -4  -4    1.06    0.06
   0   4   4    1.05    0.07
   0   4   4    1.18    0.05
   0   4   4    0.93    0.06
   0   4   4    1.11    0.05
  -1  -4  -4    7.81    0.26
  -1  -4  -4    7.60    0.26
   1   4   4    7.16    0.27
   1   4   4    7.97    0.27
   1   4   4    8.16    0.26
   2   4   4   16.02    0.54
   2   4   4   17.00    0.54
   2   4   4   15.86    0.54
  -3  -4  -4    0.07    0.04
   3   4   4    0.09    0.03
   3   4   4    0.06    0.03
   3   4   4    0.06    0.03
  -4  -4  -4    0.94    0.07
  -4  -4  -4    1.00    0.04
  -4  -4  -4    0.80    0.07
   4   4   4    0.89    0.07
   4   4   4    1.15    0.08
   4   4   4    1.06    0.07
  -5  -4  -4   17.23    0.59
  -5  -4  -4   17.10    0.56
  -5  -4  -4   17.22    0.58
   5   4   4   17.68    0.60
  -6  -4  -4   10.17    0.35
  -6  -4  -4   10.22    0.38
   6   4   4   10.64    0.39
  -7  -4  -4    0.94    0.11
  -7  -4  -4    1.11    0.09
   7   4   4    1.28    0.13
  -8  -4  -4    0.35    0.10
  -8  -4  -4    0.47    0.07
   8   4   4    0.29    0.09
  -9  -4  -4    0.83    0.11
  -9  -4  -4    1.00    0.14
   9   4   4    1.00    0.16
 -10  -4  -4    3.50    0.25
  -6   5   4    0.42    0.12
  -5   5   4    0.04    0.07
  -5   5   4    0.01    0.07
  -4   5   4    3.61    0.19
  -4   5   4    4.11    0.18
   3  -5  -4    0.37    0.07
  -3   5   4    0.41    0.06
  -3   5   4    0.30    0.06
  -3   5   4    0.31    0.06
   2  -5  -4    0.17    0.05
  -2   5   4    0.18    0.05
  -2   5   4    0.12    0.05
  -2   5   4    0.13    0.04
   1  -5  -4    8.98    0.32
  -1   5   4    9.22    0.33
  -1   5   4    8.78    0.31
  -1   5   4    9.53    0.33
   0  -5  -4    9.97    0.34
   0   5   4    9.84    0.33
   0   5   4    9.66    0.36
   0   5   4   10.31    0.35
   0   5   4   10.56    0.33
  -1  -5  -4  102.21    3.38
  -1  -5  -4  105.79    3.38
  -1  -5  -4  106.93    3.38
   1   5   4  107.08    3.40
   1   5   4  109.24    3.39
  -2  -5  -4   42.07    1.38
  -2  -5  -4   43.16    1.40
  -2  -5  -4   45.51    1.38
   2   5   4   44.01    1.40
   2   5   4   42.81    1.40
   2   5   4   42.36    1.40
   3   5   4    0.11    0.04
   3   5   4    0.08    0.04
   3   5   4    0.07    0.04
  -4  -5  -4   22.94    0.75
   4   5   4   22.51    0.75
   4   5   4   22.12    0.74
   4   5   4   22.64    0.76
  -5  -5  -4    3.98    0.14
  -5  -5  -4    4.04    0.17
  -5  -5  -4    3.89    0.18
   5   5   4    4.19    0.16
   5   5   4    4.17    0.19
  -6  -5  -4    9.25    0.35
  -6  -5  -4    9.28    0.32
   6   5   4    9.39    0.36
  -7  -5  -4   16.36    0.58
  -7  -5  -4   16.12    0.55
   7   5   4   16.37    0.59
  -8  -5  -4    0.72    0.12
  -8  -5  -4    0.64    0.08
   8   5   4    0.62    0.11
  -9  -5  -4    0.10    0.08
  -9  -5  -4    0.04    0.12
  -9  -5  -4    0.05    0.10
   9   5   4    0.03    0.11
  -6   6   4    0.60    0.14
  -5   6   4    1.11    0.12
  -5   6   4    1.26    0.14
  -4   6   4    0.44    0.09
  -4   6   4    0.26    0.07
   3  -6  -4    9.61    0.36
  -3   6   4    9.16    0.36
  -3   6   4    9.74    0.35
  -3   6   4    9.15    0.34
   2  -6  -4    0.24    0.06
  -2   6   4    0.28    0.06
  -2   6   4    0.16    0.05
  -2   6   4    0.22    0.04
   1  -6  -4    0.21    0.05
  -1   6   4    0.17    0.05
  -1   6   4    0.23    0.04
  -1   6   4    0.14    0.05
   0  -6  -4    2.30    0.11
   0   6   4    2.07    0.10
   0   6   4    2.23    0.09
   0   6   4    2.09    0.11
   0   6   4    2.18    0.09
  -1  -6  -4    8.29    0.27
  -1  -6  -4    7.65    0.28
   1   6   4    7.94    0.28
   1   6   4    8.18    0.30
  -2  -6  -4    2.41    0.10
  -2  -6  -4    2.40    0.10
  -2  -6  -4    2.60    0.11
   2   6   4    2.56    0.11
   2   6   4    2.77    0.13
   2   6   4    2.98    0.11
  -3  -6  -4   36.51    1.19
   3   6   4   36.49    1.19
   3   6   4   35.73    1.19
   3   6   4   37.07    1.18
  -4  -6  -4    3.42    0.16
  -4  -6  -4    3.28    0.15
   4   6   4    3.42    0.15
   4   6   4    3.43    0.15
   4   6   4    3.57    0.16
  -5  -6  -4   11.09    0.37
  -5  -6  -4   11.27    0.42
  -5  -6  -4   11.55    0.37
  -5  -6  -4   11.24    0.40
   5   6   4   11.30    0.39
   5   6   4   11.61    0.42
   5   6   4   11.12    0.40
  -6  -6  -4    0.42    0.08
  -6  -6  -4    0.42    0.09
  -6  -6  -4    0.41    0.05
   6   6   4    0.37    0.08
  -7  -6  -4    8.85    0.32
  -7  -6  -4    9.34    0.38
  -7  -6  -4    9.29    0.36
   7   6   4    9.25    0.38
  -8  -6  -4    0.87    0.12
  -8  -6  -4    0.71    0.08
  -8  -6  -4    0.87    0.14
   8   6   4    0.73    0.12
  -9  -6  -4    4.63    0.22
  -9  -6  -4    4.42    0.25
  -9  -6  -4    4.54    0.27
   9   6   4    4.15    0.26
  -6   7   4    1.81    0.22
  -6   7   4    1.72    0.16
  -5   7   4    0.03    0.08
  -5   7   4    0.02    0.11
  -4   7   4    0.15    0.07
  -4   7   4    0.24    0.09
   3  -7  -4    4.49    0.22
  -3   7   4    4.60    0.21
  -3   7   4    4.44    0.19
  -3   7   4    4.63    0.22
   2  -7  -4    3.39    0.18
  -2   7   4    3.78    0.15
  -2   7   4    3.55    0.17
  -2   7   4    3.99    0.19
   1  -7  -4    0.01    0.04
  -1   7   4    0.00    0.04
  -1   7   4   -0.01    0.05
  -1   7   4    0.01    0.03
   0  -7  -4   26.66    0.87
   0   7   4   25.94    0.86
   0   7   4   26.00    0.88
   0   7   4   25.90    0.84
  -1  -7  -4    0.05    0.03
   1   7   4    0.09    0.05
   1   7   4    0.06    0.04
  -2  -7  -4    7.41    0.26
  -2  -7  -4    7.68    0.27
   2   7   4    7.92    0.27
   2   7   4    7.48    0.29
  -3  -7  -4    3.25    0.16
  -3  -7  -4    3.44    0.13
  -3  -7  -4    3.68    0.13
   3   7   4    3.77    0.15
   3   7   4    3.40    0.16
   3   7   4    4.02    0.16
  -4  -7  -4    5.11    0.21
  -4  -7  -4    4.97    0.22
   4   7   4    5.11    0.21
   4   7   4    5.22    0.20
   4   7   4    5.42    0.21
  -5  -7  -4    0.92    0.06
  -5  -7  -4    0.94    0.11
  -5  -7  -4    1.04    0.10
  -5  -7  -4    1.19    0.05
   5   7   4    1.03    0.09
   5   7   4    1.10    0.09
   5   7   4    1.08    0.11
  -6  -7  -4    6.58    0.27
  -6  -7  -4    6.52    0.23
  -6  -7  -4    6.74    0.29
   6   7   4    7.08    0.29
  -7  -7  -4    0.94    0.08
  -7  -7  -4    1.01    0.13
   7   7   4    0.94    0.13
  -8  -7  -4    4.28    0.24
  -8  -7  -4    3.96    0.17
   8   7   4    3.49    0.22
  -9  -7  -4    0.07    0.08
  -9  -7  -4    0.04    0.13
   9   7   4    0.01    0.12
  -5   8   4    0.59    0.15
  -5   8   4    0.71    0.11
  -4   8   4    2.77    0.15
  -4   8   4    2.29    0.17
   3  -8  -4   16.71    0.60
  -3   8   4   16.02    0.59
  -3   8   4   16.86    0.59
  -3   8   4   16.14    0.56
   2  -8  -4   20.64    0.73
  -2   8   4   21.70    0.74
  -2   8   4   21.62    0.73
  -2   8   4   20.50    0.70
   1  -8  -4    0.03    0.05
  -1   8   4    0.05    0.06
  -1   8   4    0.02    0.06
  -1   8   4    0.00    0.03
   0  -8  -4    9.76    0.35
   0   8   4    9.66    0.34
   0   8   4    9.55    0.36
   0   8   4    9.00    0.31
  -1  -8  -4    0.41    0.06
   1   8   4    0.30    0.07
   1   8   4    0.35    0.06
  -2  -8  -4   10.27    0.35
   2   8   4    9.74    0.37
   2   8   4   10.40    0.36
  -3  -8  -4   19.10    0.65
  -3  -8  -4   18.74    0.63
   3   8   4   19.52    0.64
   3   8   4   19.78    0.66
  -4  -8  -4   10.87    0.40
  -4  -8  -4   10.94    0.36
   4   8   4   11.12    0.40
  -5  -8  -4   15.46    0.53
  -5  -8  -4   16.88    0.58
   5   8   4   16.65    0.56
   5   8   4   16.22    0.58
  -6  -8  -4    0.00    0.08
  -6  -8  -4    0.02    0.03
   6   8   4    0.00    0.08
  -7  -8  -4    0.86    0.08
  -7  -8  -4    0.92    0.13
   7   8   4    0.80    0.12
  -8  -8  -4    3.28    0.23
  -8  -8  -4    3.46    0.16
   8   8   4    3.06    0.22
  -9  -8  -4    0.04    0.08
  -9  -8  -4   -0.03    0.15
   9   8   4   -0.06    0.14
  -4   9   4    1.35    0.16
  -4   9   4    1.38    0.14
   3  -9  -4    6.88    0.35
  -3   9   4    6.92    0.28
  -3   9   4    7.60    0.32
  -3   9   4    7.19    0.32
   2  -9  -4    0.58    0.10
  -2   9   4    0.52    0.06
  -2   9   4    0.51    0.09
  -2   9   4    0.56    0.10
   1  -9  -4   16.67    0.60
  -1   9   4   16.94    0.56
  -1   9   4   17.32    0.59
  -1   9   4   16.78    0.61
   0  -9  -4    0.39    0.07
   0   9   4    0.36    0.08
   0   9   4    0.36    0.04
  -1  -9  -4    6.88    0.26
   1   9   4    6.54    0.28
  -2  -9  -4    0.52    0.06
   2   9   4    0.46    0.08
  -3  -9  -4    2.28    0.11
   3   9   4    1.95    0.14
  -4  -9  -4   29.77    0.98
  -4  -9  -4   30.48    1.02
   4   9   4   31.06    1.02
  -5  -9  -4    3.53    0.19
  -5  -9  -4    3.73    0.14
   5   9   4    3.86    0.19
  -6  -9  -4    1.23    0.15
  -6  -9  -4    1.22    0.08
  -7  -9  -4    1.08    0.15
  -7  -9  -4    1.01    0.08
   7   9   4    1.11    0.15
  -8  -9  -4    0.17    0.07
  -8  -9  -4    0.12    0.13
   8   9   4    0.03    0.12
  -9  -9  -4   -0.04    0.11
  -9  -9  -4    0.05    0.16
  -3  10   4    0.01    0.11
  -3  10   4    0.00    0.07
   2 -10  -4    0.07    0.10
  -2  10   4    0.07    0.10
  -2  10   4    0.07    0.06
   1 -10  -4    0.43    0.09
  -1  10   4    0.35    0.05
  -1  10   4    0.42    0.11
   0 -10  -4    0.44    0.08
   0  10   4    0.47    0.04
   0  10   4    0.45    0.10
  -1 -10  -4    0.69    0.08
   1  10   4    0.67    0.10
  -2 -10  -4    0.32    0.06
   2  10   4    0.36    0.08
  -3 -10  -4    0.14    0.05
   3  10   4    0.10    0.08
  -4 -10  -4    0.03    0.04
   4  10   4    0.11    0.08
  -5 -10  -4    0.04    0.04
  -5 -10  -4    0.02    0.09
   5  10   4    0.05    0.08
  -6 -10  -4    0.06    0.05
  -6 -10  -4    0.05    0.10
  -7 -10  -4    1.00    0.14
  -7 -10  -4    1.20    0.10
  -8 -10  -4    0.39    0.14
  -8 -10  -4    0.21    0.07
   2 -11  -4    1.17    0.16
  -2  11   4    1.15    0.10
  -2  11   4    1.11    0.16
   1 -11  -4    0.05    0.09
  -1  11   4    0.04    0.10
  -1  11   4    0.00    0.04
   0 -11  -4    0.15    0.08
   0  11   4    0.18    0.10
  -1 -11  -4    4.38    0.21
   1  11   4    4.10    0.23
  -2 -11  -4    5.03    0.22
   2  11   4    4.62    0.24
  -3 -11  -4   12.22    0.44
   3  11   4   12.69    0.48
  -4 -11  -4    1.70    0.11
   4  11   4    1.68    0.16
  -5 -11  -4    3.75    0.16
   5  11   4    3.77    0.22
  -6 -11  -4    4.11    0.18
  -7 -11  -4    1.45    0.18
  -7 -11  -4    1.79    0.12
  -8 -11  -4    7.51    0.31
  -8 -11  -4    8.43    0.41
   1 -12  -4    1.07    0.15
  -1  12   4    1.45    0.18
  -1  12   4    1.15    0.09
   0 -12  -4    2.02    0.18
   0  12   4    1.96    0.20
  -1 -12  -4    0.19    0.09
   1  12   4    0.21    0.12
  -2 -12  -4    1.24    0.13
   2  12   4    1.43    0.17
  -3 -12  -4    0.06    0.07
   3  12   4   -0.01    0.10
  -4 -12  -4    2.45    0.15
   4  12   4    2.20    0.20
  -5 -12  -4    0.10    0.07
   5  12   4    0.08    0.11
  -6 -12  -4    0.56    0.08
  -7 -12  -4    5.30    0.23
  -1 -13  -4    0.31    0.11
   1  13   4    0.28    0.14
  -2 -13  -4    1.28    0.14
   2  13   4    1.13    0.16
  -3 -13  -4   12.26    0.46
   3  13   4   11.72    0.50
  -4 -13  -4    0.29    0.09
   4  13   4    0.37    0.14
  -5 -13  -4    0.01    0.08
   5  13   4    0.04    0.13
   4  11  -5    2.53    0.23
   4  11  -5    2.12    0.11
  -4 -11   5    2.07    0.21
  -4 -11   5    2.53    0.23
   3  11  -5    0.59    0.15
   3  11  -5    0.51    0.07
  -3 -11   5    0.53    0.14
  -3 -11   5    0.55    0.13
   2  11  -5    8.63    0.38
   2  11  -5    8.06    0.31
  -2 -11   5    8.95    0.40
  -2 -11   5    8.90    0.39
   1  11  -5    0.15    0.11
   1  11  -5    0.13    0.07
  -1 -11   5    0.08    0.12
  -1 -11   5    0.05    0.13
   0  11  -5    0.11    0.08
   0  11  -5    0.19    0.13
   0 -11   5    0.07    0.26
  -1  11  -5    2.85    0.24
  -1  11  -5    3.04    0.19
  -6 -10   5    3.25    0.26
   5  10  -5    0.72    0.07
  -5 -10   5    0.90    0.16
  -5 -10   5    0.72    0.13
   4  10  -5    0.00    0.11
   4  10  -5    0.02    0.05
  -4 -10   5   -0.02    0.11
  -4 -10   5    0.00    0.11
   3  10  -5    2.77    0.14
   3  10  -5    3.14    0.21
  -3 -10   5    2.72    0.21
  -3 -10   5    2.97    0.20
   2  10  -5    2.83    0.15
   2  10  -5    2.78    0.21
  -2 -10   5    3.19    0.22
  -2 -10   5    3.10    0.21
   1  10  -5    0.07    0.06
   1  10  -5    0.03    0.10
  -1 -10   5    0.13    0.11
  -1 -10   5    0.06    0.10
   0  10  -5    0.09    0.12
   0  10  -5    0.00    0.06
   0 -10   5    0.04    0.12
   0 -10   5    0.03    0.10
  -1  10  -5    0.57    0.13
  -1  10  -5    0.51    0.09
   1 -10   5    0.58    0.14
  -2  10  -5    0.57    0.11
  -2  10  -5    0.61    0.15
  -3  10  -5    0.46    0.16
   6   9  -5    2.23    0.10
  -6  -9   5    2.42    0.25
  -6  -9   5    2.34    0.21
   5   9  -5    0.28    0.06
  -5  -9   5    0.53    0.15
  -5  -9   5    0.51    0.12
   4   9  -5    1.16    0.09
   4   9  -5    1.39    0.15
  -4  -9   5    1.03    0.13
  -4  -9   5    1.32    0.16
   3   9  -5   10.47    0.36
   3   9  -5    9.47    0.41
  -3  -9   5   10.30    0.40
  -3  -9   5   10.32    0.42
   2   9  -5    1.46    0.10
   2   9  -5    1.40    0.15
  -2  -9   5    1.39    0.14
   1   9  -5    0.05    0.05
   1   9  -5    0.04    0.08
  -1  -9   5   -0.02    0.08
  -1  -9   5    0.03    0.10
   0   9  -5    2.42    0.19
   0   9  -5    2.64    0.14
   0  -9   5    2.55    0.18
   0  -9   5    2.51    0.18
  -1   9  -5    1.17    0.11
  -1   9  -5    1.33    0.17
   1  -9   5    1.11    0.14
  -2   9  -5    0.57    0.12
  -2   9  -5    0.42    0.09
   2  -9   5    0.38    0.12
  -3   9  -5    0.06    0.10
  -3   9  -5    0.04    0.09
  -4   9  -5    1.03    0.17
   7   8  -5    3.56    0.14
  -7  -8   5    3.71    0.29
  -7  -8   5    3.69    0.25
   6   8  -5    1.35    0.09
  -6  -8   5    1.55    0.19
  -6  -8   5    1.47    0.17
   5   8  -5    0.61    0.06
  -5  -8   5    0.71    0.11
  -5  -8   5    0.41    0.12
   4   8  -5    4.66    0.18
   4   8  -5    4.35    0.23
  -4  -8   5    4.32    0.22
  -4  -8   5    4.41    0.24
   3   8  -5    0.11    0.05
   3   8  -5    0.13    0.08
  -3  -8   5    0.06    0.08
  -3  -8   5    0.15    0.08
   2   8  -5    0.09    0.09
   2   8  -5    0.07    0.05
  -2  -8   5    0.12    0.08
  -2  -8   5    0.08    0.07
   1   8  -5    2.88    0.14
   1   8  -5    2.52    0.17
  -1  -8   5    2.79    0.17
   0   8  -5    3.39    0.16
   0   8  -5    2.87    0.20
   0  -8   5    3.70    0.20
   0  -8   5    3.60    0.19
  -1   8  -5    0.02    0.06
  -1   8  -5   -0.02    0.08
   1  -8   5    0.08    0.09
   1  -8   5    0.03    0.08
  -2   8  -5    8.23    0.35
  -2   8  -5    7.58    0.31
  -3   8  -5    1.27    0.15
  -3   8  -5    1.30    0.13
   3  -8   5    1.26    0.16
  -4   8  -5    0.23    0.11
  -4   8  -5    0.27    0.10
   7   7  -5    2.23    0.12
  -7  -7   5    2.01    0.21
  -7  -7   5    1.98    0.22
   6   7  -5    1.58    0.10
  -6  -7   5    1.80    0.18
  -6  -7   5    1.83    0.16
   5   7  -5    0.15    0.05
  -5  -7   5    0.18    0.08
  -5  -7   5    0.22    0.11
   4   7  -5    4.33    0.19
   4   7  -5    5.15    0.23
  -4  -7   5    5.08    0.23
  -4  -7   5    4.91    0.25
   3   7  -5   35.70    1.21
   3   7  -5   37.24    1.18
  -3  -7   5   36.07    1.20
  -3  -7   5   35.90    1.22
   2   7  -5    0.23    0.08
   2   7  -5    0.31    0.05
  -2  -7   5    0.34    0.08
  -2  -7   5    0.22    0.08
   1   7  -5    0.43    0.06
   1   7  -5    0.45    0.08
  -1  -7   5    0.51    0.08
  -1  -7   5    0.39    0.08
   0   7  -5    2.87    0.17
   0   7  -5    2.65    0.14
   0  -7   5    2.99    0.16
   0  -7   5    2.92    0.17
  -1   7  -5    0.43    0.07
  -1   7  -5    0.41    0.08
   1  -7   5    0.37    0.09
   1  -7   5    0.46    0.09
  -2   7  -5    1.08    0.13
  -2   7  -5    1.00    0.11
   2  -7   5    1.11    0.11
  -3   7  -5    1.73    0.13
  -3   7  -5    1.56    0.16
   3  -7   5    1.58    0.14
  -4   7  -5    0.00    0.09
   4  -7   5   -0.01    0.10
   8   6  -5    0.23    0.07
  -8  -6   5    0.14    0.19
  -8  -6   5    0.28    0.14
   7   6  -5    6.12    0.24
  -7  -6   5    6.47    0.31
  -7  -6   5    6.18    0.33
   6   6  -5    9.35    0.34
  -6  -6   5    9.54    0.39
  -6  -6   5   10.32    0.42
   5   6  -5    3.69    0.16
  -5  -6   5    3.85    0.20
  -5  -6   5    4.10    0.22
   4   6  -5    3.47    0.18
   4   6  -5    3.25    0.14
  -4  -6   5    3.06    0.18
  -4  -6   5    3.12    0.17
   3   6  -5    5.82    0.21
   3   6  -5    5.41    0.24
  -3  -6   5    5.85    0.25
  -3  -6   5    5.27    0.24
   2   6  -5    1.78    0.13
   2   6  -5    1.81    0.10
  -2  -6   5    2.02    0.13
  -2  -6   5    2.20    0.14
   1   6  -5   12.28    0.42
   1   6  -5   11.66    0.44
  -1  -6   5   12.23    0.43
   0   6  -5    3.51    0.15
   0   6  -5    3.35    0.17
   0  -6   5    3.05    0.17
   0  -6   5    3.45    0.17
  -1   6  -5    2.46    0.16
  -1   6  -5    2.63    0.13
   1  -6   5    2.57    0.15
   1  -6   5    2.98    0.16
  -2   6  -5    5.28    0.22
  -2   6  -5    5.11    0.24
   2  -6   5    5.48    0.24
  -3   6  -5    1.87    0.13
  -3   6  -5    1.28    0.13
   3  -6   5    1.79    0.13
   3  -6   5    2.05    0.14
  -4   6  -5    5.58    0.27
   4  -6   5    5.78    0.27
   4  -6   5    5.86    0.25
   5  -6   5    0.25    0.09
   5  -6   5    0.26    0.10
   6  -6   5    0.08    0.09
   7  -6   5    1.71    0.19
   8   5  -5    2.07    0.14
  -8  -5   5    2.34    0.26
  -8  -5   5    2.31    0.23
   7   5  -5    0.18    0.07
  -7  -5   5    0.21    0.13
  -7  -5   5    0.23    0.11
   6   5  -5    1.58    0.11
  -6  -5   5    1.56    0.15
  -6  -5   5    1.44    0.15
   5   5  -5    2.77    0.13
  -5  -5   5    2.78    0.17
  -5  -5   5    2.79    0.17
   4   5  -5   47.03    1.51
   4   5  -5   45.62    1.49
  -4  -5   5   46.36    1.51
  -4  -5   5   45.61    1.53
   3   5  -5    4.29    0.19
   3   5  -5    4.68    0.18
  -3  -5   5    4.14    0.20
  -3  -5   5    4.67    0.20
   2   5  -5    1.78    0.12
   2   5  -5    1.92    0.10
  -2  -5   5    2.01    0.12
  -2  -5   5    1.81    0.11
   1   5  -5   18.44    0.63
   1   5  -5   19.53    0.65
  -1  -5   5   19.23    0.64
  -1  -5   5   18.51    0.65
   0   5  -5    4.85    0.20
   0   5  -5    4.32    0.18
   0  -5   5    4.44    0.18
   0  -5   5    4.79    0.19
   0  -5   5    4.23    0.20
  -1   5  -5    4.55    0.20
  -1   5  -5    4.12    0.17
   1  -5   5    3.90    0.19
   1  -5   5    4.29    0.18
   1  -5   5    4.42    0.20
  -2   5  -5   12.64    0.45
  -2   5  -5   12.55    0.44
  -2   5  -5   12.60    0.43
   2  -5   5   12.64    0.45
   2  -5   5   12.26    0.45
   2  -5   5   12.34    0.44
  -3   5  -5   32.31    1.01
  -3   5  -5   28.40    1.02
  -3   5  -5   31.94    1.01
   3  -5   5   29.89    1.03
   3  -5   5   30.24    1.01
  -4   5  -5    8.17    0.34
  -4   5  -5    8.89    0.33
   4  -5   5    9.05    0.33
   4  -5   5    8.30    0.34
  -5   5  -5    5.69    0.25
   5  -5   5    5.26    0.26
   5  -5   5    5.44    0.23
  -6   5  -5    0.68    0.13
   6  -5   5    0.55    0.12
   6  -5   5    0.44    0.09
  -7   5  -5   -0.04    0.13
   7  -5   5    0.00    0.09
   8   4  -5    2.60    0.16
  -8  -4   5    2.64    0.23
  -8  -4   5    2.45    0.26
   7   4  -5    7.83    0.31
  -7  -4   5    8.94    0.36
  -7  -4   5    8.07    0.38
   6   4  -5    1.63    0.11
  -6  -4   5    1.81    0.15
  -6  -4   5    1.77    0.17
   5   4  -5    1.68    0.10
  -5  -4   5    1.52    0.13
  -5  -4   5    1.41    0.12
   4   4  -5   15.62    0.54
   4   4  -5   15.57    0.53
  -4  -4   5   15.48    0.55
  -4  -4   5   15.94    0.56
   3   4  -5   15.73    0.54
   3   4  -5   15.65    0.53
  -3  -4   5   16.05    0.55
  -3  -4   5   15.80    0.56
   2   4  -5    6.24    0.24
   2   4  -5    6.79    0.25
  -2  -4   5    6.44    0.25
  -2  -4   5    6.77    0.26
   1   4  -5    5.83    0.21
   1   4  -5    5.34    0.22
  -1  -4   5    5.71    0.22
  -1  -4   5    5.61    0.22
  -1  -4   5    5.44    0.21
   0   4  -5    1.02    0.06
   0   4  -5    0.92    0.08
   0   4  -5    0.85    0.07
   0   4  -5    0.86    0.08
   0  -4   5    0.92    0.06
   0  -4   5    0.86    0.08
   0  -4   5    0.95    0.07
   0  -4   5    1.09    0.08
  -1   4  -5    7.33    0.26
  -1   4  -5    7.20    0.24
  -1   4  -5    6.44    0.26
  -1   4  -5    6.83    0.25
   1  -4   5    7.04    0.25
   1  -4   5    7.00    0.26
   1  -4   5    6.28    0.26
  -2   4  -5    0.41    0.06
  -2   4  -5    0.45    0.07
  -2   4  -5    0.36    0.05
  -2   4  -5    0.51    0.06
   2  -4   5    0.39    0.06
   2  -4   5    0.48    0.07
  -3   4  -5    9.62    0.36
  -3   4  -5   10.40    0.36
  -3   4  -5    9.43    0.35
   3  -4   5   10.02    0.37
   3  -4   5    9.61    0.35
  -4   4  -5    0.70    0.09
  -4   4  -5    0.42    0.08
   4  -4   5    0.48    0.07
   4  -4   5    0.56    0.09
  -5   4  -5    1.66    0.14
   5  -4   5    1.66    0.14
   5  -4   5    1.92    0.12
  -6   4  -5    2.34    0.16
   6  -4   5    2.23    0.14
   6  -4   5    2.27    0.18
  -7   4  -5    0.04    0.10
   7  -4   5    0.01    0.10
   7  -4   5    0.01    0.08
  -8   4  -5    0.06    0.13
   8  -4   5    0.05    0.12
   8   3  -5    0.64    0.10
  -8  -3   5    0.81    0.18
   7   3  -5    4.55    0.21
  -7  -3   5    4.56    0.27
  -7  -3   5    4.96    0.26
   6   3  -5   14.47    0.52
  -6  -3   5   15.62    0.57
  -6  -3   5   15.78    0.62
  -6  -3   5   15.62    0.56
   5   3  -5    3.40    0.15
  -5  -3   5    3.31    0.18
  -5  -3   5    3.46    0.19
  -5  -3   5    3.44    0.16
   4   3  -5    0.01    0.04
  -4  -3   5    0.00    0.05
  -4  -3   5    0.02    0.06
  -4  -3   5    0.00    0.05
   3   3  -5    2.12    0.10
   3   3  -5    2.34    0.12
  -3  -3   5    2.28    0.13
  -3  -3   5    2.23    0.10
  -3  -3   5    2.17    0.12
   2   3  -5   16.53    0.58
   2   3  -5   15.63    0.61
   2   3  -5   18.01    0.59
  -2  -3   5   18.15    0.58
  -2  -3   5   17.59    0.60
  -2  -3   5   18.32    0.58
  -2  -3   5   18.17    0.59
   1   3  -5   10.35    0.36
   1   3  -5   10.11    0.35
   1   3  -5    9.86    0.35
  -1  -3   5   10.07    0.36
  -1  -3   5   10.20    0.34
  -1  -3   5   10.15    0.35
  -1  -3   5    9.94    0.34
   0   3  -5   45.45    1.46
   0   3  -5   45.01    1.45
   0   3  -5   46.66    1.46
   0  -3   5   45.16    1.44
   0  -3   5   45.96    1.46
   0  -3   5   44.05    1.45
   0  -3   5   42.58    1.46
  -1   3  -5    3.97    0.17
  -1   3  -5    4.03    0.15
  -1   3  -5    3.71    0.16
   1  -3   5    3.90    0.17
   1  -3   5    4.47    0.17
   1  -3   5    4.17    0.15
  -2   3  -5    0.94    0.07
  -2   3  -5    0.77    0.08
  -2   3  -5    0.79    0.07
  -2   3  -5    0.85    0.07
   2  -3   5    0.60    0.07
   2  -3   5    0.81    0.08
   2  -3   5    0.81    0.06
  -3   3  -5    0.01    0.05
  -3   3  -5    0.02    0.04
  -3   3  -5    0.10    0.05
  -3   3  -5   -0.02    0.04
   3  -3   5    0.02    0.04
   3  -3   5    0.11    0.04
  -4   3  -5   -0.01    0.05
  -4   3  -5    0.00    0.05
  -4   3  -5   -0.01    0.05
   4  -3   5    0.00    0.04
   4  -3   5   -0.01    0.05
  -5   3  -5   12.35    0.46
  -5   3  -5   12.91    0.46
   5  -3   5   12.46    0.47
   5  -3   5   12.80    0.44
  -6   3  -5    0.05    0.09
  -6   3  -5    0.18    0.09
   6  -3   5    0.05    0.06
   6  -3   5    0.14    0.09
  -7   3  -5    0.08    0.10
   7  -3   5    0.12    0.11
   7  -3   5    0.02    0.07
  -8   3  -5    0.33    0.14
   8  -3   5    0.35    0.09
   8  -3   5    0.40    0.13
   8   2  -5    4.54    0.22
  -8  -2   5    4.21    0.25
   7   2  -5    5.63    0.25
  -7  -2   5    5.98    0.30
  -7  -2   5    6.41    0.28
   6   2  -5    4.02    0.18
  -6  -2   5    4.04    0.20
  -6  -2   5    3.99    0.22
  -6  -2   5    4.01    0.22
   5   2  -5    2.47    0.13
  -5  -2   5    2.37    0.15
  -5  -2   5    2.54    0.14
  -5  -2   5    2.40    0.16
   4   2  -5   51.61    1.70
  -4  -2   5   54.85    1.71
  -4  -2   5   51.63    1.72
  -4  -2   5   52.71    1.72
   3   2  -5    2.67    0.12
   3   2  -5    2.42    0.11
  -3  -2   5    2.40    0.13
  -3  -2   5    2.60    0.12
  -3  -2   5    2.66    0.13
   2   2  -5    7.92    0.30
   2   2  -5    8.24    0.30
   2   2  -5    8.16    0.29
  -2  -2   5    8.60    0.29
  -2  -2   5    8.82    0.30
  -2  -2   5    8.65    0.31
  -2  -2   5    8.58    0.29
   1   2  -5   37.22    1.20
   1   2  -5   36.97    1.20
   1   2  -5   34.84    1.19
  -1  -2   5   38.90    1.20
  -1  -2   5   35.93    1.20
  -1  -2   5   37.90    1.19
  -1  -2   5   36.63    1.19
   0   2  -5   36.50    1.13
   0   2  -5   34.44    1.13
   0   2  -5   34.13    1.13
   0  -2   5   34.20    1.12
   0  -2   5   34.15    1.12
   0  -2   5   35.04    1.14
   0  -2   5   35.11    1.13
  -1   2  -5    6.92    0.26
  -1   2  -5    7.19    0.26
  -1   2  -5    7.41    0.25
   1  -2   5    6.90    0.26
   1  -2   5    7.26    0.25
   1  -2   5    7.16    0.26
   1  -2   5    7.38    0.25
  -2   2  -5   12.63    0.40
  -2   2  -5   11.75    0.40
  -2   2  -5   12.15    0.41
  -2   2  -5   11.35    0.41
   2  -2   5   12.26    0.41
   2  -2   5   10.99    0.41
   2  -2   5   11.95    0.40
   2  -2   5   11.52    0.40
  -3   2  -5    0.08    0.04
  -3   2  -5    0.06    0.04
  -3   2  -5    0.09    0.04
  -3   2  -5    0.05    0.04
   3  -2   5    0.06    0.03
   3  -2   5    0.05    0.04
  -4   2  -5    0.35    0.05
  -4   2  -5    0.53    0.07
  -4   2  -5    0.58    0.07
   4  -2   5    0.49    0.07
   4  -2   5    0.43    0.05
  -5   2  -5    0.06    0.06
  -5   2  -5    0.03    0.06
   5  -2   5    0.00    0.06
   5  -2   5    0.02    0.04
  -6   2  -5    2.48    0.15
  -6   2  -5    2.42    0.16
   6  -2   5    2.68    0.17
   6  -2   5    2.44    0.13
  -7   2  -5    2.08    0.16
   7  -2   5    1.88    0.12
   7  -2   5    2.01    0.17
  -8   2  -5    4.15    0.33
  -8   2  -5    5.39    0.28
   8  -2   5    5.41    0.29
   8  -2   5    5.50    0.23
   8   1  -5    3.73    0.21
  -8  -1   5    3.80    0.25
   7   1  -5    5.60    0.25
  -7  -1   5    6.16    0.28
   6   1  -5    1.23    0.11
  -6  -1   5    1.49    0.16
  -6  -1   5    1.21    0.13
  -6  -1   5    1.09    0.14
   5   1  -5    6.73    0.26
  -5  -1   5    7.05    0.29
  -5  -1   5    6.88    0.28
  -5  -1   5    7.07    0.28
   4   1  -5    3.11    0.14
  -4  -1   5    3.23    0.16
  -4  -1   5    3.21    0.16
  -4  -1   5    3.06    0.15
   3   1  -5    0.61    0.06
   3   1  -5    0.64    0.08
   3   1  -5    0.62    0.06
  -3  -1   5    0.65    0.07
  -3  -1   5    0.52    0.06
  -3  -1   5    0.58    0.06
  -3  -1   5    0.71    0.07
   2   1  -5   21.54    0.70
   2   1  -5   20.92    0.70
   2   1  -5   19.93    0.70
  -2  -1   5   22.09    0.71
  -2  -1   5   20.35    0.70
  -2  -1   5   22.01    0.70
  -2  -1   5   22.11    0.71
   1   1  -5   69.39    2.12
   1   1  -5   63.82    2.11
   1   1  -5   64.36    2.12
  -1  -1   5   66.46    2.11
  -1  -1   5   65.05    2.12
  -1  -1   5   67.12    2.12
  -1  -1   5   65.75    2.11
   0   1  -5    6.57    0.23
   0   1  -5    6.55    0.23
   0   1  -5    6.61    0.24
   0  -1   5    6.54    0.23
   0  -1   5    6.39    0.22
   0  -1   5    6.62    0.24
   0  -1   5    6.23    0.23
  -1   1  -5    0.09    0.03
  -1   1  -5    0.07    0.03
  -1   1  -5    0.07    0.03
   1  -1   5    0.07    0.03
   1  -1   5    0.06    0.03
   1  -1   5    0.09    0.04
   1  -1   5    0.10    0.02
  -2   1  -5    4.98    0.19
  -2   1  -5    5.03    0.19
  -2   1  -5    5.22    0.19
  -2   1  -5    5.02    0.18
   2  -1   5    5.01    0.18
   2  -1   5    5.00    0.19
   2  -1   5    5.19    0.20
   2  -1   5    4.99    0.19
  -3   1  -5    0.90    0.07
  -3   1  -5    0.79    0.07
  -3   1  -5    0.93    0.07
  -3   1  -5    1.03    0.07
   3  -1   5    0.86    0.07
   3  -1   5    0.80    0.05
   3  -1   5    0.88    0.07
  -4   1  -5    0.94    0.08
  -4   1  -5    0.96    0.07
  -4   1  -5    0.79    0.08
   4  -1   5    0.68    0.08
   4  -1   5    0.81    0.06
  -5   1  -5    0.23    0.06
  -5   1  -5    0.29    0.06
   5  -1   5    0.28    0.06
   5  -1   5    0.15    0.04
  -6   1  -5    1.73    0.12
  -6   1  -5    1.63    0.13
   6  -1   5    1.73    0.10
   6  -1   5    1.91    0.13
  -7   1  -5    0.12    0.08
  -7   1  -5    0.14    0.09
   7  -1   5    0.09    0.08
   7  -1   5    0.14    0.05
  -8   1  -5    1.79    0.16
  -8   1  -5    1.83    0.19
   8  -1   5    1.71    0.19
   8  -1   5    1.74    0.12
  -9   1  -5    2.32    0.22
  -9   1  -5    2.75    0.22
   9  -1   5    2.75    0.22
   9  -1   5    2.22    0.15
   8   0  -5    0.57    0.11
  -8   0   5    0.75    0.15
   7   0  -5    0.16    0.08
  -7   0   5    0.10    0.09
   6   0  -5    0.03    0.06
  -6   0   5    0.01    0.08
   5   0  -5    0.00    0.05
  -5   0   5    0.06    0.07
  -5   0   5   -0.01    0.06
  -5   0   5   -0.01    0.06
   4   0  -5    0.42    0.06
  -4   0   5    0.44    0.07
  -4   0   5    0.51    0.07
  -4   0   5    0.61    0.08
  -4   0   5    0.49    0.07
   3   0  -5    0.07    0.04
   3   0  -5    0.03    0.05
   3   0  -5    0.02    0.04
  -3   0   5    0.03    0.04
  -3   0   5    0.04    0.04
  -3   0   5    0.00    0.04
  -3   0   5    0.03    0.05
   2   0  -5   54.10    1.77
   2   0  -5   56.56    1.78
   2   0  -5   54.83    1.77
  -2   0   5   55.41    1.77
  -2   0   5   56.27    1.77
  -2   0   5   53.68    1.77
  -2   0   5   54.75    1.78
   1   0  -5   21.61    0.69
   1   0  -5   20.41    0.69
   1   0  -5   20.97    0.70
  -1   0   5   20.85    0.69
  -1   0   5   22.01    0.70
  -1   0   5   20.63    0.69
  -1   0   5   21.24    0.69
   0   0  -5    0.44    0.05
   0   0  -5    0.42    0.04
   0   0  -5    0.42    0.04
   0   0   5    0.38    0.04
   0   0   5    0.44    0.03
   0   0   5    0.55    0.05
   0   0   5    0.34    0.04
  -1   0  -5   39.89    1.31
  -1   0  -5   40.93    1.31
  -1   0  -5   40.84    1.32
   1   0   5   40.86    1.31
   1   0   5   40.93    1.30
   1   0   5   40.87    1.32
  -2   0  -5    1.77    0.09
  -2   0  -5    2.05    0.09
   2   0   5    1.78    0.09
   2   0   5    2.15    0.10
   2   0   5    1.88    0.08
  -3   0  -5    2.70    0.12
  -3   0  -5    2.81    0.13
  -3   0  -5    2.63    0.12
   3   0   5    2.84    0.11
   3   0   5    3.18    0.11
   3   0   5    2.87    0.13
   3   0   5    2.62    0.12
  -4   0  -5   13.60    0.45
  -4   0  -5   12.97    0.45
  -4   0  -5   13.20    0.46
   4   0   5   13.09    0.46
   4   0   5   12.97    0.44
  -5   0  -5    3.54    0.20
  -5   0  -5    4.42    0.18
  -5   0  -5    4.39    0.19
   5   0   5    4.17    0.19
   5   0   5    4.03    0.15
  -6   0  -5    0.06    0.05
  -6   0  -5    0.03    0.06
   6   0   5    0.06    0.06
   6   0   5    0.09    0.04
  -7   0  -5    1.23    0.13
  -7   0  -5    1.51    0.13
   7   0   5    1.51    0.14
   7   0   5    1.44    0.09
  -8   0  -5    1.93    0.18
  -8   0  -5    1.78    0.15
   8   0   5    1.67    0.11
   8   0   5    2.03    0.18
  -9   0  -5    4.65    0.28
  -9   0  -5    3.72    0.24
   9   0   5    4.12    0.27
   9   0   5    3.64    0.17
   8  -1  -5    7.61    0.32
  -8   1   5    7.15    0.36
   7  -1  -5    0.05    0.09
  -7   1   5    0.04    0.10
   6  -1  -5    0.01    0.07
  -6   1   5    0.01    0.08
   5  -1  -5    3.06    0.15
  -5   1   5    2.86    0.17
   4  -1  -5    2.05    0.12
  -4   1   5    2.02    0.13
  -4   1   5    2.04    0.12
  -4   1   5    2.18    0.11
  -4   1   5    2.24    0.12
   3  -1  -5    1.23    0.09
   3  -1  -5    1.04    0.08
   3  -1  -5    1.16    0.08
  -3   1   5    1.18    0.09
  -3   1   5    0.97    0.08
  -3   1   5    1.06    0.08
  -3   1   5    1.12    0.08
   2  -1  -5    0.23    0.04
   2  -1  -5    0.23    0.04
   2  -1  -5    0.28    0.04
  -2   1   5    0.20    0.04
  -2   1   5    0.21    0.04
  -2   1   5    0.27    0.04
  -2   1   5    0.27    0.05
   1  -1  -5   24.01    0.81
   1  -1  -5   24.91    0.81
   1  -1  -5   25.80    0.81
  -1   1   5   24.95    0.81
  -1   1   5   24.39    0.80
  -1   1   5   24.42    0.80
  -1   1   5   24.89    0.81
   0  -1  -5   41.15    1.29
   0  -1  -5   38.71    1.30
   0  -1  -5   41.79    1.29
   0   1   5   38.69    1.29
   0   1   5   39.01    1.28
   0   1   5   41.19    1.29
  -1  -1  -5   11.20    0.40
  -1  -1  -5   11.83    0.39
   1   1   5   11.44    0.39
   1   1   5   11.43    0.40
   1   1   5   12.50    0.39
   1   1   5   11.77    0.38
  -2  -1  -5    7.12    0.26
  -2  -1  -5    7.48    0.25
   2   1   5    7.79    0.25
   2   1   5    7.09    0.26
   2   1   5    7.44    0.25
   2   1   5    7.52    0.26
  -3  -1  -5    0.10    0.03
  -3  -1  -5    0.12    0.03
  -3  -1  -5    0.16    0.04
   3   1   5    0.12    0.04
   3   1   5    0.11    0.02
   3   1   5    0.14    0.02
   3   1   5    0.09    0.03
  -4  -1  -5   52.69    1.69
  -4  -1  -5   51.15    1.68
  -4  -1  -5   52.92    1.70
   4   1   5   51.29    1.70
   4   1   5   54.10    1.67
   4   1   5   50.83    1.70
   4   1   5   53.53    1.67
  -5  -1  -5    1.92    0.10
  -5  -1  -5    1.72    0.11
  -5  -1  -5    1.61    0.10
   5   1   5    1.92    0.12
   5   1   5    1.74    0.07
  -6  -1  -5    2.83    0.16
  -6  -1  -5    2.55    0.13
   6   1   5    2.70    0.16
   6   1   5    2.77    0.11
  -7  -1  -5   10.84    0.40
  -7  -1  -5   10.44    0.41
   7   1   5   10.69    0.36
   7   1   5   10.67    0.42
  -8  -1  -5    1.19    0.14
  -8  -1  -5    1.25    0.13
   8   1   5    1.17    0.07
   8   1   5    1.15    0.14
  -9  -1  -5    1.97    0.18
  -9  -1  -5    2.07    0.19
   9   1   5    1.95    0.10
   9   1   5    1.99    0.19
   7  -2  -5    0.41    0.10
  -7   2   5    0.36    0.11
   6  -2  -5    0.33    0.08
  -6   2   5    0.30    0.09
   5  -2  -5    2.37    0.14
  -5   2   5    1.95    0.14
   4  -2  -5   14.34    0.50
  -4   2   5   14.84    0.49
  -4   2   5   13.75    0.50
   3  -2  -5    3.47    0.16
   3  -2  -5    3.11    0.14
   3  -2  -5    3.30    0.14
  -3   2   5    3.10    0.15
  -3   2   5    3.27    0.14
  -3   2   5    3.18    0.14
   2  -2  -5    0.20    0.04
   2  -2  -5    0.27    0.05
   2  -2  -5    0.33    0.05
  -2   2   5    0.22    0.04
  -2   2   5    0.24    0.05
  -2   2   5    0.31    0.04
  -2   2   5    0.32    0.06
   1  -2  -5    0.39    0.04
   1  -2  -5    0.36    0.05
   1  -2  -5    0.41    0.05
  -1   2   5    0.35    0.04
  -1   2   5    0.37    0.04
  -1   2   5    0.30    0.04
  -1   2   5    0.28    0.04
  -1   2   5    0.36    0.04
   0  -2  -5    0.53    0.05
   0  -2  -5    0.53    0.04
   0   2   5    0.40    0.04
   0   2   5    0.48    0.03
   0   2   5    0.40    0.04
   0   2   5    0.51    0.04
  -1  -2  -5   10.54    0.36
  -1  -2  -5   10.41    0.35
   1   2   5   10.79    0.36
   1   2   5   10.89    0.35
   1   2   5   10.73    0.34
   1   2   5   10.37    0.36
  -2  -2  -5   47.31    1.53
  -2  -2  -5   49.62    1.53
  -2  -2  -5   46.39    1.54
   2   2   5   47.16    1.54
   2   2   5   48.52    1.54
  -3  -2  -5    0.09    0.03
  -3  -2  -5    0.07    0.03
  -3  -2  -5    0.07    0.02
   3   2   5    0.06    0.03
   3   2   5    0.07    0.03
  -4  -2  -5    0.01    0.03
  -4  -2  -5    0.04    0.02
  -4  -2  -5    0.01    0.04
  -4  -2  -5    0.02    0.03
   4   2   5    0.07    0.04
   4   2   5    0.04    0.04
  -5  -2  -5   13.57    0.44
  -5  -2  -5   12.88    0.46
  -5  -2  -5   13.10    0.44
   5   2   5   12.74    0.47
  -6  -2  -5    3.89    0.16
  -6  -2  -5    3.55    0.18
   6   2   5    3.51    0.18
  -7  -2  -5    6.95    0.28
  -7  -2  -5    7.03    0.30
   7   2   5    7.28    0.30
  -8  -2  -5    1.10    0.12
  -8  -2  -5    0.88    0.12
   8   2   5    1.02    0.13
  -9  -2  -5    0.00    0.09
  -9  -2  -5    0.03    0.12
   9   2   5    0.01    0.10
   7  -3  -5    1.23    0.14
  -7   3   5    0.96    0.16
   6  -3  -5    1.78    0.16
  -6   3   5    1.39    0.15
   5  -3  -5    0.25    0.08
  -5   3   5    0.16    0.07
  -5   3   5    0.17    0.07
   4  -3  -5    1.01    0.10
  -4   3   5    0.83    0.09
  -4   3   5    0.92    0.09
   3  -3  -5   15.31    0.53
   3  -3  -5   15.96    0.53
   3  -3  -5   15.28    0.54
  -3   3   5   15.60    0.52
  -3   3   5   15.23    0.52
  -3   3   5   15.09    0.54
   2  -3  -5   36.82    1.18
   2  -3  -5   36.55    1.18
  -2   3   5   35.79    1.18
  -2   3   5   35.86    1.18
  -2   3   5   35.90    1.17
   1  -3  -5    2.45    0.11
   1  -3  -5    2.26    0.10
   1  -3  -5    2.20    0.10
  -1   3   5    2.37    0.11
  -1   3   5    2.50    0.09
  -1   3   5    2.23    0.11
  -1   3   5    2.16    0.09
   0  -3  -5    4.15    0.16
   0  -3  -5    4.26    0.17
   0   3   5    4.21    0.16
   0   3   5    3.89    0.16
   0   3   5    4.32    0.15
   0   3   5    4.21    0.15
   0   3   5    4.34    0.14
  -1  -3  -5    0.07    0.02
  -1  -3  -5    0.08    0.03
   1   3   5    0.14    0.01
   1   3   5    0.10    0.03
   1   3   5    0.07    0.03
   1   3   5    0.07    0.01
   1   3   5    0.10    0.02
  -2  -3  -5  213.19    6.96
  -2  -3  -5  227.08    6.97
  -2  -3  -5  213.79    6.97
   2   3   5  222.12    6.97
   2   3   5  219.03    6.96
   2   3   5  219.40    6.97
  -3  -3  -5    7.94    0.28
  -3  -3  -5    7.81    0.26
   3   3   5    8.07    0.29
   3   3   5    8.40    0.29
  -4  -3  -5    8.51    0.31
  -4  -3  -5    8.45    0.28
  -4  -3  -5    8.36    0.28
  -4  -3  -5    7.98    0.30
   4   3   5    8.84    0.31
   4   3   5    8.44    0.31
  -5  -3  -5    5.14    0.19
  -5  -3  -5    5.31    0.20
  -5  -3  -5    4.74    0.21
   5   3   5    5.29    0.22
  -6  -3  -5    4.95    0.22
  -6  -3  -5    4.97    0.19
   6   3   5    4.71    0.22
  -7  -3  -5   -0.01    0.06
  -7  -3  -5   -0.01    0.05
   7   3   5   -0.01    0.06
  -8  -3  -5    7.86    0.32
  -8  -3  -5    8.57    0.35
   8   3   5    8.60    0.36
  -9  -3  -5    2.46    0.21
  -9  -3  -5    2.30    0.17
   9   3   5    2.50    0.22
  -7   4   5    0.78    0.16
  -6   4   5    3.44    0.22
  -5   4   5    2.40    0.16
  -5   4   5    2.74    0.16
  -4   4   5    0.03    0.05
  -4   4   5    0.00    0.06
   3  -4  -5    0.97    0.10
   3  -4  -5    1.04    0.10
  -3   4   5    1.01    0.10
  -3   4   5    0.98    0.09
  -3   4   5    1.12    0.08
   2  -4  -5    3.83    0.17
   2  -4  -5    3.99    0.17
  -2   4   5    3.93    0.17
  -2   4   5    4.04    0.16
  -2   4   5    4.25    0.17
   1  -4  -5   16.85    0.55
  -1   4   5   16.23    0.55
  -1   4   5   15.63    0.55
  -1   4   5   16.10    0.53
   0  -4  -5   13.59    0.46
   0   4   5   13.26    0.47
   0   4   5   13.66    0.46
   0   4   5   14.04    0.45
   0   4   5   13.80    0.45
  -1  -4  -5   15.83    0.53
  -1  -4  -5   16.20    0.55
  -1  -4  -5   15.49    0.53
   1   4   5   17.03    0.53
   1   4   5   15.78    0.54
   1   4   5   16.69    0.54
  -2  -4  -5    3.11    0.14
  -2  -4  -5    3.50    0.12
  -2  -4  -5    3.47    0.12
   2   4   5    3.67    0.14
   2   4   5    3.22    0.13
   2   4   5    3.43    0.14
  -3  -4  -5   12.25    0.44
   3   4   5   13.32    0.44
   3   4   5   13.14    0.44
   3   4   5   12.89    0.44
  -4  -4  -5   13.81    0.43
  -4  -4  -5   13.22    0.45
  -4  -4  -5   13.09    0.46
  -4  -4  -5   12.90    0.43
   4   4   5   13.18    0.46
   4   4   5   13.17    0.46
   4   4   5   13.45    0.45
  -5  -4  -5    0.62    0.07
  -5  -4  -5    0.50    0.04
  -5  -4  -5    0.51    0.07
   5   4   5    0.65    0.07
   5   4   5    0.60    0.07
  -6  -4  -5    1.39    0.11
  -6  -4  -5    1.33    0.08
   6   4   5    1.35    0.12
  -7  -4  -5    0.64    0.07
  -7  -4  -5    0.47    0.09
   7   4   5    0.54    0.10
  -8  -4  -5    1.40    0.13
  -8  -4  -5    1.10    0.10
   8   4   5    0.95    0.13
  -9  -4  -5    0.23    0.12
  -9  -4  -5    0.18    0.08
   9   4   5    0.14    0.12
  -6   5   5    0.74    0.13
  -5   5   5   13.71    0.53
  -5   5   5   14.20    0.50
  -4   5   5    1.17    0.11
  -4   5   5    1.20    0.10
   3  -5  -5    2.51    0.15
  -3   5   5    2.57    0.14
  -3   5   5    2.71    0.15
  -3   5   5    2.39    0.13
   2  -5  -5    2.14    0.12
  -2   5   5    1.96    0.12
  -2   5   5    2.01    0.12
  -2   5   5    2.10    0.10
   1  -5  -5    8.06    0.29
  -1   5   5    8.53    0.30
  -1   5   5    7.78    0.30
  -1   5   5    7.99    0.28
   0  -5  -5   17.43    0.59
   0   5   5   17.72    0.57
   0   5   5   18.19    0.60
   0   5   5   17.55    0.60
  -1  -5  -5   51.80    1.66
  -1  -5  -5   53.64    1.66
  -1  -5  -5   50.56    1.67
   1   5   5   50.64    1.68
   1   5   5   52.05    1.68
   1   5   5   53.05    1.66
  -2  -5  -5    4.72    0.17
  -2  -5  -5    4.91    0.17
   2   5   5    4.69    0.19
   2   5   5    5.13    0.18
   2   5   5    4.92    0.19
   3   5   5    6.71    0.25
   3   5   5    6.66    0.25
   3   5   5    6.78    0.25
  -4  -5  -5    0.45    0.06
  -4  -5  -5    0.49    0.06
   4   5   5    0.66    0.07
   4   5   5    0.55    0.06
   4   5   5    0.54    0.06
  -5  -5  -5    0.68    0.04
  -5  -5  -5    0.66    0.04
  -5  -5  -5    0.64    0.08
  -5  -5  -5    0.78    0.08
   5   5   5    0.69    0.08
   5   5   5    0.67    0.08
   5   5   5    0.66    0.07
  -6  -5  -5   11.13    0.38
  -6  -5  -5   11.73    0.42
   6   5   5   10.88    0.42
  -7  -5  -5    0.25    0.09
  -7  -5  -5    0.27    0.05
   7   5   5    0.27    0.08
  -8  -5  -5    0.05    0.05
  -8  -5  -5    0.06    0.08
   8   5   5    0.02    0.09
  -9  -5  -5    4.29    0.24
  -9  -5  -5    4.13    0.21
   9   5   5    4.24    0.27
  -6   6   5    2.01    0.20
  -6   6   5    2.20    0.19
  -5   6   5    1.23    0.13
  -5   6   5    1.13    0.14
  -4   6   5    0.47    0.07
  -4   6   5    0.51    0.10
   3  -6  -5    0.66    0.09
  -3   6   5    0.60    0.07
  -3   6   5    0.53    0.09
  -3   6   5    0.54    0.08
   2  -6  -5   61.39    1.93
  -2   6   5   57.67    1.93
  -2   6   5   58.43    1.91
  -2   6   5   60.13    1.93
   1  -6  -5    6.93    0.25
  -1   6   5    6.78    0.26
  -1   6   5    6.35    0.23
  -1   6   5    6.38    0.25
   0  -6  -5    0.04    0.03
   0   6   5    0.03    0.02
   0   6   5    0.00    0.04
   0   6   5    0.03    0.04
  -1  -6  -5    2.19    0.10
   1   6   5    2.16    0.12
   1   6   5    2.24    0.11
  -2  -6  -5    0.03    0.03
  -2  -6  -5    0.02    0.02
  -2  -6  -5    0.03    0.02
   2   6   5    0.01    0.04
   2   6   5    0.02    0.04
   2   6   5    0.05    0.03
  -3  -6  -5    4.18    0.18
   3   6   5    4.51    0.18
   3   6   5    4.25    0.17
   3   6   5    4.51    0.18
   4   6   5    1.66    0.10
   4   6   5    1.54    0.10
   4   6   5    1.59    0.10
  -5  -6  -5    0.62    0.08
  -5  -6  -5    0.62    0.07
   5   6   5    0.72    0.08
   5   6   5    0.73    0.07
   5   6   5    0.62    0.08
  -6  -6  -5    5.43    0.24
  -6  -6  -5    5.93    0.20
   6   6   5    5.60    0.25
  -7  -6  -5    8.56    0.30
  -7  -6  -5    8.44    0.34
   7   6   5    8.81    0.35
  -8  -6  -5    0.87    0.13
  -8  -6  -5    0.94    0.09
   8   6   5    0.87    0.14
  -9  -6  -5    1.11    0.15
  -9  -6  -5    1.14    0.12
  -9  -6  -5    0.96    0.16
   9   6   5    1.10    0.16
  -5   7   5    0.12    0.09
  -5   7   5    0.06    0.12
  -4   7   5    0.57    0.10
  -4   7   5    0.66    0.09
   3  -7  -5    0.12    0.07
  -3   7   5    0.30    0.06
  -3   7   5    0.27    0.08
  -3   7   5    0.20    0.07
   2  -7  -5    3.22    0.17
  -2   7   5    3.34    0.17
  -2   7   5    3.05    0.16
  -2   7   5    3.21    0.14
   1  -7  -5    0.18    0.05
  -1   7   5    0.16    0.06
  -1   7   5    0.23    0.07
  -1   7   5    0.15    0.04
   0  -7  -5    9.87    0.35
   0   7   5    9.77    0.35
   0   7   5    9.73    0.36
   0   7   5   10.11    0.33
  -1  -7  -5    0.03    0.03
   1   7   5    0.01    0.05
   1   7   5    0.04    0.04
  -2  -7  -5    1.65    0.08
   2   7   5    1.61    0.09
   2   7   5    1.75    0.11
  -3  -7  -5    0.29    0.03
  -3  -7  -5    0.24    0.03
  -3  -7  -5    0.27    0.06
   3   7   5    0.27    0.06
   3   7   5    0.31    0.05
   3   7   5    0.25    0.05
  -4  -7  -5    4.21    0.19
   4   7   5    4.29    0.19
   4   7   5    4.15    0.18
   4   7   5    4.29    0.18
  -5  -7  -5    8.86    0.35
  -5  -7  -5    8.95    0.34
   5   7   5    9.40    0.35
   5   7   5    9.54    0.34
   5   7   5    9.12    0.34
  -6  -7  -5    0.04    0.07
  -6  -7  -5    0.08    0.08
  -6  -7  -5    0.15    0.03
   6   7   5    0.13    0.07
  -7  -7  -5    0.02    0.04
  -7  -7  -5    0.01    0.08
  -7  -7  -5    0.02    0.10
   7   7   5   -0.01    0.09
  -8  -7  -5    0.41    0.06
  -8  -7  -5    0.45    0.13
  -8  -7  -5    0.32    0.13
   8   7   5    0.40    0.12
  -9  -7  -5    0.05    0.07
  -9  -7  -5    0.06    0.14
   9   7   5    0.02    0.13
  -5   8   5    0.14    0.10
  -5   8   5    0.18    0.14
  -4   8   5    1.11    0.12
  -4   8   5    1.01    0.14
   3  -8  -5   -0.02    0.07
  -3   8   5    0.06    0.08
  -3   8   5    0.11    0.08
  -3   8   5    0.05    0.06
   2  -8  -5    1.43    0.13
  -2   8   5    1.55    0.14
  -2   8   5    1.22    0.12
  -2   8   5    1.36    0.09
   1  -8  -5    0.41    0.07
  -1   8   5    0.52    0.09
  -1   8   5    0.52    0.08
  -1   8   5    0.43    0.05
   0  -8  -5   12.54    0.44
   0   8   5   12.59    0.41
   0   8   5   12.75    0.44
   0   8   5   12.37    0.46
  -1  -8  -5    1.11    0.08
   1   8   5    1.21    0.10
   1   8   5    0.99    0.09
  -2  -8  -5    1.02    0.07
   2   8   5    1.03    0.08
   2   8   5    0.98    0.09
  -3  -8  -5    6.25    0.22
   3   8   5    6.41    0.26
   3   8   5    6.32    0.24
  -4  -8  -5    2.31    0.08
  -4  -8  -5    1.97    0.13
   4   8   5    2.04    0.13
   4   8   5    2.22    0.12
   4   8   5    2.17    0.13
  -5  -8  -5    0.42    0.09
   5   8   5    0.45    0.07
   5   8   5    0.38    0.07
   5   8   5    0.45    0.09
  -6  -8  -5    9.37    0.32
  -6  -8  -5    9.90    0.39
   6   8   5   10.25    0.39
  -7  -8  -5    2.43    0.18
  -7  -8  -5    2.28    0.11
   7   8   5    1.91    0.16
  -8  -8  -5    0.03    0.05
  -8  -8  -5    0.09    0.11
   8   8   5    0.00    0.11
  -9  -8  -5    0.42    0.09
  -9  -8  -5    0.30    0.15
   9   8   5    0.41    0.14
  -4   9   5    0.04    0.11
  -4   9   5    0.12    0.09
   3  -9  -5   12.00    0.55
  -3   9   5   11.88    0.43
  -3   9   5   12.23    0.47
  -3   9   5   12.32    0.47
   2  -9  -5    0.95    0.12
  -2   9   5    0.73    0.08
  -2   9   5    0.65    0.11
  -2   9   5    0.78    0.12
   1  -9  -5    0.75    0.10
  -1   9   5    0.78    0.10
  -1   9   5    0.79    0.10
  -1   9   5    0.80    0.07
   0  -9  -5   -0.02    0.05
   0   9   5    0.00    0.02
   0   9   5   -0.01    0.06
   0   9   5    0.02    0.07
  -1  -9  -5    5.17    0.22
   1   9   5    5.29    0.25
   1   9   5    5.94    0.23
  -2  -9  -5    8.69    0.31
   2   9   5    8.99    0.35
  -3  -9  -5   58.80    1.85
   3   9   5   56.18    1.88
  -4  -9  -5    8.67    0.29
   4   9   5    8.58    0.34
  -5  -9  -5    8.42    0.28
  -5  -9  -5    9.05    0.35
   5   9   5    8.06    0.33
  -6  -9  -5    6.35    0.28
  -6  -9  -5    5.85    0.20
   6   9   5    5.44    0.26
  -7  -9  -5    7.68    0.27
  -7  -9  -5    8.20    0.36
   7   9   5    7.55    0.34
  -8  -9  -5    1.91    0.12
  -8  -9  -5    1.89    0.21
   8   9   5    1.87    0.20
  -9  -9  -5   18.81    0.74
  -9  -9  -5   18.74    0.65
   9   9   5   19.11    0.76
  -3  10   5    0.27    0.13
  -3  10   5    0.13    0.07
   2 -10  -5    5.77    0.28
  -2  10   5    5.79    0.23
  -2  10   5    5.99    0.29
   1 -10  -5    1.30    0.14
  -1  10   5    1.40    0.09
  -1  10   5    1.48    0.16
   0 -10  -5    0.09    0.06
   0  10   5    0.03    0.08
  -1 -10  -5    0.81    0.10
   1  10   5    0.66    0.10
  -2 -10  -5    3.02    0.15
   2  10   5    2.95    0.17
  -3 -10  -5    1.61    0.10
   3  10   5    1.52    0.14
  -4 -10  -5   19.65    0.66
   4  10   5   20.50    0.70
  -5 -10  -5    4.27    0.17
   5  10   5    4.69    0.23
  -6 -10  -5    1.06    0.14
  -6 -10  -5    0.94    0.07
  -7 -10  -5    4.22    0.17
  -7 -10  -5    4.27    0.26
  -8 -10  -5    3.84    0.17
  -8 -10  -5    3.31    0.27
   2 -11  -5    0.82    0.14
  -2  11   5    0.68    0.08
  -2  11   5    0.71    0.15
   1 -11  -5    0.48    0.11
  -1  11   5    0.53    0.12
  -1  11   5    0.48    0.05
   0 -11  -5    5.75    0.26
   0  11   5    5.82    0.29
  -1 -11  -5    0.14    0.07
   1  11   5    0.08    0.09
  -2 -11  -5    3.16    0.16
   2  11   5    2.93    0.19
  -3 -11  -5    3.02    0.15
   3  11   5    2.77    0.19
  -4 -11  -5   22.39    0.75
   4  11   5   22.58    0.79
  -5 -11  -5    0.33    0.06
   5  11   5    0.25    0.10
  -6 -11  -5    0.00    0.05
  -7 -11  -5    0.45    0.07
  -8 -11  -5    1.21    0.21
  -8 -11  -5    1.02    0.12
   1 -12  -5    3.25    0.24
  -1  12   5    3.35    0.24
  -1  12   5    3.12    0.14
   0 -12  -5    1.59    0.17
   0  12   5    1.48    0.17
  -1 -12  -5    2.08    0.17
   1  12   5    2.57    0.19
  -2 -12  -5    1.95    0.15
   2  12   5    1.81    0.19
  -3 -12  -5    5.55    0.24
   3  12   5    5.30    0.27
  -4 -12  -5    0.12    0.07
   4  12   5    0.07    0.10
  -5 -12  -5    0.91    0.10
   5  12   5    1.01    0.14
  -6 -12  -5    2.06    0.13
  -7 -12  -5    0.96    0.11
  -1 -13  -5    3.00    0.22
  -2 -13  -5    0.09    0.10
   2  13   5    0.01    0.11
  -3 -13  -5    9.58    0.37
   3  13   5    8.66    0.40
  -4 -13  -5    0.06    0.08
   4  13   5    0.19    0.14
  -5 -13  -5    0.29    0.08
   5  13   5    0.22    0.14
   3  11  -6    6.10    0.25
   3  11  -6    6.90    0.35
  -3 -11   6    5.97    0.33
   2  11  -6   -0.01    0.14
   2  11  -6    0.04    0.07
  -2 -11   6    0.00    0.14
  -2 -11   6    0.00    0.15
   1  11  -6    1.24    0.17
   1  11  -6    1.49    0.14
  -1 -11   6    1.49    0.19
   0  11  -6    0.02    0.08
   0  11  -6   -0.01    0.15
   0 -11   6   -0.01    0.16
   5  10  -6    0.04    0.06
  -5 -10   6    0.02    0.13
   4  10  -6    2.42    0.14
   4  10  -6    2.50    0.30
  -4 -10   6    2.32    0.23
  -4 -10   6    2.61    0.25
   3  10  -6    0.05    0.13
   3  10  -6   -0.05    0.06
  -3 -10   6   -0.01    0.11
  -3 -10   6    0.05    0.12
   2  10  -6   11.20    0.41
   2  10  -6   11.33    0.47
  -2 -10   6   11.58    0.46
  -2 -10   6   10.90    0.47
   1  10  -6    2.18    0.14
   1  10  -6    2.03    0.21
  -1 -10   6    2.21    0.21
  -1 -10   6    2.04    0.20
   0  10  -6    0.21    0.13
   0  10  -6    0.16    0.08
   0 -10   6    0.22    0.12
  -1  10  -6    0.33    0.14
  -1  10  -6    0.22    0.09
   1 -10   6    0.20    0.13
  -2  10  -6    0.10    0.14
  -2  10  -6    0.18    0.10
  -3  10  -6    0.89    0.18
  -3  10  -6    0.83    0.14
   6   9  -6    2.82    0.14
  -6  -9   6    3.14    0.25
   5   9  -6    0.36    0.07
  -5  -9   6    0.36    0.13
  -5  -9   6    0.37    0.14
   4   9  -6    5.61    0.23
   4   9  -6    6.29    0.31
  -4  -9   6    6.20    0.29
  -4  -9   6    5.94    0.32
   3   9  -6    0.32    0.12
   3   9  -6    0.54    0.07
  -3  -9   6    0.21    0.11
  -3  -9   6    0.53    0.11
   2   9  -6    9.27    0.34
   2   9  -6    8.25    0.38
  -2  -9   6    9.17    0.38
  -2  -9   6    9.54    0.40
   1   9  -6    2.69    0.15
   1   9  -6    2.41    0.20
  -1  -9   6    2.49    0.19
  -1  -9   6    2.67    0.19
   0   9  -6    0.17    0.10
   0   9  -6    0.18    0.07
   0  -9   6    0.18    0.11
  -1   9  -6    0.24    0.08
  -1   9  -6    0.23    0.11
   1  -9   6    0.48    0.12
  -2   9  -6    0.40    0.14
  -2   9  -6    0.43    0.10
   2  -9   6    0.59    0.13
  -3   9  -6    0.00    0.09
  -3   9  -6    0.01    0.13
  -4   9  -6   -0.01    0.12
  -4   9  -6   -0.04    0.15
   6   8  -6    6.27    0.25
  -6  -8   6    6.76    0.33
  -6  -8   6    6.89    0.36
   5   8  -6    6.17    0.24
  -5  -8   6    6.39    0.30
  -5  -8   6    6.21    0.32
   4   8  -6    0.55    0.12
   4   8  -6    0.48    0.07
  -4  -8   6    0.45    0.11
  -4  -8   6    0.50    0.13
   3   8  -6   22.63    0.75
   3   8  -6   21.58    0.79
  -3  -8   6   21.95    0.78
  -3  -8   6   22.97    0.80
   2   8  -6    0.48    0.10
   2   8  -6    0.62    0.07
  -2  -8   6    0.51    0.09
   1   8  -6    0.74    0.12
   1   8  -6    0.76    0.08
  -1  -8   6    0.72    0.11
  -1  -8   6    0.53    0.10
   0   8  -6    0.58    0.11
   0   8  -6    0.86    0.09
   0  -8   6    1.02    0.12
   0  -8   6    0.70    0.11
  -1   8  -6    0.17    0.07
  -1   8  -6    0.07    0.08
   1  -8   6    0.21    0.09
  -2   8  -6    0.68    0.13
  -2   8  -6    0.67    0.10
   2  -8   6    0.73    0.12
  -3   8  -6    3.88    0.20
  -3   8  -6    3.46    0.24
   3  -8   6    3.58    0.23
  -4   8  -6    0.00    0.12
   4  -8   6    0.02    0.13
   7   7  -6    2.15    0.13
  -7  -7   6    2.32    0.22
  -7  -7   6    2.25    0.25
   6   7  -6    6.03    0.24
  -6  -7   6    6.04    0.30
  -6  -7   6    6.02    0.32
   5   7  -6    0.97    0.09
  -5  -7   6    1.02    0.12
  -5  -7   6    1.20    0.16
   4   7  -6    0.08    0.05
   4   7  -6    0.19    0.10
  -4  -7   6    0.12    0.09
  -4  -7   6    0.26    0.09
   3   7  -6    3.75    0.17
   3   7  -6    3.86    0.20
  -3  -7   6    3.99    0.21
  -3  -7   6    3.71    0.20
   2   7  -6    9.07    0.32
   2   7  -6    7.97    0.34
  -2  -7   6    8.70    0.34
  -2  -7   6    8.28    0.35
   1   7  -6    1.06    0.09
   1   7  -6    0.95    0.12
  -1  -7   6    1.12    0.12
  -1  -7   6    0.99    0.13
   0   7  -6   20.90    0.70
   0   7  -6   19.96    0.73
   0  -7   6   21.02    0.73
   0  -7   6   21.00    0.72
  -1   7  -6    2.53    0.14
   1  -7   6    2.21    0.17
  -2   7  -6    1.11    0.13
  -2   7  -6    1.07    0.11
  -3   7  -6    0.14    0.08
  -3   7  -6    0.11    0.10
   3  -7   6    0.14    0.10
  -4   7  -6    6.55    0.31
   4  -7   6    6.22    0.30
   5  -7   6    0.14    0.13
   7   6  -6    0.25    0.08
  -7  -6   6    0.28    0.14
  -7  -6   6    0.20    0.15
   6   6  -6    2.49    0.14
  -6  -6   6    2.65    0.20
  -6  -6   6    2.88    0.20
   5   6  -6    9.37    0.34
  -5  -6   6    9.69    0.37
  -5  -6   6    8.54    0.38
   4   6  -6    1.43    0.10
   4   6  -6    1.58    0.16
  -4  -6   6    1.63    0.14
  -4  -6   6    1.57    0.16
   3   6  -6   17.50    0.62
   3   6  -6   17.16    0.59
  -3  -6   6   17.11    0.61
  -3  -6   6   18.64    0.64
   2   6  -6    2.61    0.16
   2   6  -6    2.83    0.13
  -2  -6   6    2.79    0.16
  -2  -6   6    2.77    0.16
   1   6  -6    2.75    0.15
   1   6  -6    2.63    0.13
  -1  -6   6    2.87    0.16
   0   6  -6    0.59    0.09
   0   6  -6    0.70    0.07
   0  -6   6    0.59    0.08
   0  -6   6    0.67    0.10
  -1   6  -6    5.43    0.25
  -1   6  -6    5.86    0.23
   1  -6   6    5.62    0.25
   1  -6   6    5.69    0.26
  -2   6  -6    0.08    0.06
  -2   6  -6    0.04    0.08
   2  -6   6    0.07    0.07
  -3   6  -6    0.59    0.09
  -3   6  -6    0.26    0.09
   3  -6   6    0.41    0.08
   3  -6   6    0.51    0.10
  -4   6  -6    0.16    0.10
   4  -6   6    0.27    0.10
   4  -6   6    0.21    0.08
   5  -6   6   -0.03    0.08
   5  -6   6    0.01    0.09
   6  -6   6    0.33    0.14
   6  -6   6    0.27    0.10
   7   5  -6    0.54    0.09
  -7  -5   6    0.33    0.13
  -7  -5   6    0.61    0.16
   6   5  -6    0.08    0.06
  -6  -5   6    0.13    0.10
  -6  -5   6    0.15    0.10
   5   5  -6    9.83    0.36
  -5  -5   6   10.03    0.41
  -5  -5   6   10.71    0.40
   4   5  -6    2.10    0.12
  -4  -5   6    1.95    0.15
  -4  -5   6    2.03    0.14
   3   5  -6    0.18    0.05
   3   5  -6    0.22    0.07
  -3  -5   6    0.24    0.07
  -3  -5   6    0.16    0.07
   2   5  -6    0.65    0.09
   2   5  -6    0.68    0.07
  -2  -5   6    0.68    0.09
  -2  -5   6    0.59    0.08
   1   5  -6    4.62    0.18
   1   5  -6    4.50    0.20
  -1  -5   6    4.36    0.20
  -1  -5   6    4.46    0.21
   0   5  -6   23.85    0.78
   0   5  -6   22.60    0.76
   0  -5   6   21.52    0.77
   0  -5   6   22.95    0.76
   0  -5   6   23.53    0.78
  -1   5  -6    1.17    0.10
  -1   5  -6    1.01    0.09
   1  -5   6    1.06    0.10
   1  -5   6    0.98    0.10
   1  -5   6    1.10    0.09
  -2   5  -6   16.11    0.57
  -2   5  -6   15.93    0.55
  -3   5  -6    2.86    0.18
  -3   5  -6    3.33    0.18
  -3   5  -6    3.22    0.16
   3  -5   6    3.13    0.17
   3  -5   6    3.69    0.16
  -4   5  -6    0.86    0.10
  -4   5  -6    0.62    0.11
   4  -5   6    0.87    0.09
   4  -5   6    0.58    0.10
  -5   5  -6    1.06    0.12
   5  -5   6    1.09    0.11
   5  -5   6    0.86    0.12
  -6   5  -6    6.34    0.30
   6  -5   6    6.25    0.31
   6  -5   6    6.26    0.27
  -7   5  -6    1.19    0.18
   7  -5   6    1.48    0.19
   7  -5   6    1.55    0.16
  -8  -4   6    1.69    0.23
   7   4  -6    0.09    0.08
  -7  -4   6    0.06    0.12
  -7  -4   6    0.04    0.12
   6   4  -6    3.71    0.18
  -6  -4   6    3.81    0.22
  -6  -4   6    3.82    0.23
   5   4  -6    0.17    0.06
  -5  -4   6    0.10    0.08
  -5  -4   6    0.13    0.08
   4   4  -6    5.10    0.20
  -4  -4   6    5.25    0.23
  -4  -4   6    4.55    0.22
   3   4  -6    1.60    0.10
   3   4  -6    1.57    0.11
  -3  -4   6    1.35    0.11
  -3  -4   6    1.58    0.13
   2   4  -6    0.05    0.04
   2   4  -6    0.04    0.05
  -2  -4   6    0.01    0.05
  -2  -4   6    0.01    0.05
   1   4  -6    7.70    0.28
   1   4  -6    7.25    0.29
  -1  -4   6    7.51    0.29
  -1  -4   6    7.79    0.27
   0   4  -6   10.27    0.37
   0   4  -6   10.22    0.37
   0   4  -6   11.04    0.39
   0  -4   6   11.27    0.37
   0  -4   6   11.31    0.39
   0  -4   6   10.33    0.39
  -1   4  -6    0.54    0.07
  -1   4  -6    0.47    0.06
  -1   4  -6    0.53    0.06
  -1   4  -6    0.39    0.07
   1  -4   6    0.36    0.07
   1  -4   6    0.60    0.08
   1  -4   6    0.42    0.05
  -2   4  -6    3.03    0.16
  -2   4  -6    2.97    0.15
  -2   4  -6    2.95    0.14
  -2   4  -6    2.82    0.14
   2  -4   6    2.79    0.13
   2  -4   6    2.77    0.15
  -3   4  -6   60.80    1.96
  -3   4  -6   61.13    1.95
  -3   4  -6   57.93    1.95
  -3   4  -6   60.70    1.96
   3  -4   6   60.31    1.95
   3  -4   6   60.86    1.97
  -4   4  -6    3.44    0.19
  -4   4  -6    3.32    0.18
  -4   4  -6    3.71    0.18
   4  -4   6    3.80    0.17
   4  -4   6    3.81    0.19
  -5   4  -6    0.24    0.08
   5  -4   6    0.10    0.06
   5  -4   6    0.22    0.09
  -6   4  -6    0.02    0.10
   6  -4   6    0.04    0.09
   6  -4   6    0.01    0.06
  -7   4  -6    3.07    0.23
   7  -4   6    2.83    0.21
   7  -4   6    2.84    0.17
   7   3  -6   10.16    0.39
  -7  -3   6   11.24    0.45
   6   3  -6    1.29    0.11
  -6  -3   6    1.26    0.15
  -6  -3   6    1.51    0.17
   5   3  -6    0.04    0.05
  -5  -3   6    0.01    0.08
  -5  -3   6    0.07    0.07
   4   3  -6    0.52    0.06
  -4  -3   6    0.54    0.07
  -4  -3   6    0.58    0.09
  -4  -3   6    0.47    0.08
   3   3  -6    1.83    0.11
   3   3  -6    1.99    0.10
  -3  -3   6    1.72    0.10
  -3  -3   6    1.85    0.12
  -3  -3   6    2.19    0.13
   2   3  -6    0.15    0.04
   2   3  -6    0.16    0.05
  -2  -3   6    0.16    0.05
  -2  -3   6    0.21    0.06
  -2  -3   6    0.12    0.04
  -2  -3   6    0.18    0.04
   1   3  -6   38.88    1.26
   1   3  -6   37.75    1.26
   1   3  -6   37.09    1.25
  -1  -3   6   40.57    1.24
  -1  -3   6   40.12    1.25
  -1  -3   6   37.42    1.27
  -1  -3   6   38.02    1.26
   0   3  -6    3.48    0.15
   0   3  -6    3.74    0.16
   0   3  -6    3.93    0.16
   0  -3   6    3.98    0.16
   0  -3   6    3.69    0.15
   0  -3   6    3.67    0.17
   0  -3   6    3.72    0.14
  -1   3  -6    8.20    0.29
  -1   3  -6    8.13    0.28
  -1   3  -6    7.82    0.30
   1  -3   6    7.95    0.28
   1  -3   6    8.36    0.30
   1  -3   6    7.59    0.30
  -2   3  -6    0.24    0.05
  -2   3  -6    0.23    0.05
  -2   3  -6    0.19    0.06
  -2   3  -6    0.19    0.05
   2  -3   6    0.24    0.05
   2  -3   6    0.14    0.04
  -3   3  -6    3.15    0.21
  -3   3  -6    3.74    0.17
  -3   3  -6    3.55    0.17
  -3   3  -6    3.68    0.16
   3  -3   6    3.66    0.15
   3  -3   6    3.95    0.18
  -4   3  -6    4.96    0.22
  -4   3  -6    5.33    0.22
   4  -3   6    5.40    0.21
   4  -3   6    4.97    0.23
  -5   3  -6    0.56    0.09
  -5   3  -6    0.52    0.09
  -5   3  -6    0.63    0.09
   5  -3   6    0.66    0.10
   5  -3   6    0.52    0.07
  -6   3  -6    3.41    0.21
  -6   3  -6    3.44    0.19
   6  -3   6    3.91    0.21
   6  -3   6    3.78    0.17
  -7   3  -6    0.63    0.12
   7  -3   6    0.66    0.09
   7  -3   6    0.69    0.13
  -8   3  -6    0.00    0.14
   8  -3   6    0.04    0.08
   8  -3   6    0.01    0.12
   7   2  -6    2.22    0.15
  -7  -2   6    2.13    0.18
   6   2  -6    2.03    0.14
  -6  -2   6    2.58    0.17
  -6  -2   6    2.41    0.18
   5   2  -6    3.03    0.15
  -5  -2   6    2.98    0.18
  -5  -2   6    3.12    0.17
  -5  -2   6    3.21    0.18
   4   2  -6   16.56    0.55
  -4  -2   6   15.39    0.55
  -4  -2   6   15.77    0.56
  -4  -2   6   16.01    0.56
   3   2  -6    2.29    0.12
   3   2  -6    2.31    0.12
  -3  -2   6    2.45    0.12
  -3  -2   6    2.38    0.12
  -3  -2   6    2.53    0.14
  -3  -2   6    2.66    0.14
   2   2  -6   12.68    0.44
   2   2  -6   12.41    0.43
   2   2  -6   13.00    0.44
  -2  -2   6   12.16    0.44
  -2  -2   6   12.65    0.42
  -2  -2   6   12.26    0.44
   1   2  -6   16.30    0.55
   1   2  -6   16.29    0.56
  -1  -2   6   16.88    0.57
  -1  -2   6   16.93    0.56
  -1  -2   6   16.08    0.55
  -1  -2   6   17.27    0.55
   0   2  -6   31.56    1.07
   0   2  -6   33.53    1.07
   0   2  -6   32.82    1.06
   0  -2   6   32.68    1.06
   0  -2   6   31.93    1.08
   0  -2   6   32.43    1.07
   0  -2   6   34.19    1.06
  -1   2  -6   19.77    0.71
  -1   2  -6   21.49    0.70
  -1   2  -6   21.70    0.70
   1  -2   6   21.07    0.69
   1  -2   6   21.25    0.69
   1  -2   6   21.74    0.71
   1  -2   6   20.74    0.70
  -2   2  -6   33.68    1.15
  -2   2  -6   35.06    1.14
  -2   2  -6   35.97    1.14
  -2   2  -6   35.38    1.14
   2  -2   6   33.84    1.15
   2  -2   6   34.93    1.14
   2  -2   6   34.54    1.13
   2  -2   6   36.45    1.15
  -3   2  -6    6.35    0.25
  -3   2  -6    6.58    0.25
  -3   2  -6    6.66    0.25
   3  -2   6    6.47    0.24
   3  -2   6    6.76    0.26
  -4   2  -6    0.32    0.07
  -4   2  -6    0.24    0.06
  -4   2  -6    0.30    0.06
   4  -2   6    0.25    0.04
   4  -2   6    0.36    0.07
  -5   2  -6    3.86    0.19
  -5   2  -6    4.35    0.20
  -5   2  -6    4.01    0.19
   5  -2   6    3.68    0.16
   5  -2   6    4.36    0.20
  -6   2  -6    2.74    0.17
  -6   2  -6    2.64    0.17
   6  -2   6    2.83    0.14
   6  -2   6    2.90    0.18
  -7   2  -6    0.06    0.10
  -7   2  -6    0.03    0.09
   7  -2   6    0.07    0.06
   7  -2   6    0.02    0.10
  -8   2  -6    0.14    0.12
  -8   2  -6    0.25    0.12
   8  -2   6    0.23    0.08
   8  -2   6    0.28    0.13
  -8  -1   6    0.46    0.15
   7   1  -6    0.05    0.08
  -7  -1   6    0.06    0.10
   6   1  -6    1.60    0.13
  -6  -1   6    1.68    0.15
   5   1  -6    4.09    0.18
  -5  -1   6    3.83    0.20
  -5  -1   6    4.22    0.20
   4   1  -6    9.35    0.34
  -4  -1   6   10.06    0.36
  -4  -1   6    9.04    0.34
  -4  -1   6    9.21    0.35
   3   1  -6   30.12    0.96
   3   1  -6   29.37    0.96
  -3  -1   6   28.29    0.97
  -3  -1   6   28.82    0.97
  -3  -1   6   29.50    0.96
  -3  -1   6   29.87    0.98
   2   1  -6    2.32    0.12
   2   1  -6    2.17    0.11
   2   1  -6    2.31    0.12
  -2  -1   6    2.38    0.12
  -2  -1   6    2.19    0.11
  -2  -1   6    2.55    0.12
  -2  -1   6    2.46    0.11
   1   1  -6   28.17    0.95
   1   1  -6   29.62    0.94
   1   1  -6   29.97    0.94
  -1  -1   6   29.03    0.95
  -1  -1   6   27.46    0.93
  -1  -1   6   28.18    0.94
  -1  -1   6   28.85    0.94
   0   1  -6    3.80    0.15
   0   1  -6    3.44    0.14
   0   1  -6    4.00    0.16
   0  -1   6    3.93    0.16
   0  -1   6    3.51    0.14
   0  -1   6    4.04    0.16
   0  -1   6    3.34    0.14
  -1   1  -6   22.43    0.71
  -1   1  -6   21.47    0.71
  -1   1  -6   20.11    0.72
   1  -1   6   21.50    0.72
   1  -1   6   22.03    0.71
   1  -1   6   21.11    0.70
   1  -1   6   22.02    0.71
  -2   1  -6   13.21    0.44
  -2   1  -6   12.81    0.44
  -2   1  -6   13.58    0.44
  -2   1  -6   13.00    0.45
   2  -1   6   12.13    0.43
   2  -1   6   12.32    0.44
   2  -1   6   13.39    0.45
   2  -1   6   12.64    0.44
  -3   1  -6    3.50    0.15
  -3   1  -6    3.73    0.16
  -3   1  -6    3.50    0.15
   3  -1   6    3.52    0.16
   3  -1   6    3.49    0.14
   3  -1   6    3.57    0.15
  -4   1  -6    4.45    0.19
  -4   1  -6    4.50    0.18
  -4   1  -6    4.27    0.18
   4  -1   6    4.36    0.20
   4  -1   6    4.17    0.16
  -5   1  -6    6.36    0.25
  -5   1  -6    6.56    0.27
  -5   1  -6    6.91    0.26
   5  -1   6    6.26    0.27
   5  -1   6    6.42    0.24
  -6   1  -6    0.06    0.06
  -6   1  -6    0.12    0.08
   6  -1   6    0.01    0.07
   6  -1   6    0.11    0.04
  -7   1  -6    1.63    0.15
  -7   1  -6    1.40    0.15
   7  -1   6    1.53    0.16
   7  -1   6    1.42    0.10
  -8   1  -6    2.18    0.18
  -8   1  -6    2.20    0.20
   8  -1   6    2.42    0.19
   8  -1   6    2.21    0.13
  -9   1  -6   -0.01    0.13
   9  -1   6    0.00    0.13
   7   0  -6    1.78    0.16
  -7   0   6    1.65    0.18
   6   0  -6    4.58    0.22
  -6   0   6    4.90    0.24
   5   0  -6    0.02    0.06
  -5   0   6    0.04    0.06
   4   0  -6    6.80    0.26
  -4   0   6    7.19    0.27
  -4   0   6    6.50    0.27
  -4   0   6    7.09    0.26
   3   0  -6    9.67    0.35
   3   0  -6    9.71    0.36
   3   0  -6    9.74    0.35
  -3   0   6   10.04    0.36
  -3   0   6   10.03    0.35
  -3   0   6    9.81    0.35
  -3   0   6    9.98    0.36
   2   0  -6    0.25    0.05
   2   0  -6    0.36    0.05
   2   0  -6    0.29    0.05
  -2   0   6    0.23    0.05
  -2   0   6    0.21    0.04
  -2   0   6    0.20    0.04
  -2   0   6    0.21    0.05
   1   0  -6   10.90    0.37
   1   0  -6   10.24    0.38
   1   0  -6   11.48    0.38
  -1   0   6   11.04    0.38
  -1   0   6   10.59    0.37
  -1   0   6   11.53    0.38
  -1   0   6   10.42    0.37
   0   0  -6    3.86    0.14
   0   0  -6    3.70    0.15
   0   0  -6    3.22    0.14
   0   0   6    3.60    0.13
   0   0   6    3.42    0.14
   0   0   6    3.57    0.14
   0   0   6    3.89    0.15
  -1   0  -6    1.28    0.08
  -1   0  -6    1.66    0.08
  -1   0  -6    1.60    0.08
   1   0   6    1.41    0.07
   1   0   6    1.52    0.08
   1   0   6    1.59    0.08
  -2   0  -6    0.98    0.07
  -2   0  -6    0.92    0.06
  -2   0  -6    1.05    0.06
   2   0   6    0.77    0.06
   2   0   6    1.06    0.07
   2   0   6    0.96    0.05
  -3   0  -6   33.17    1.12
  -3   0  -6   33.17    1.12
  -3   0  -6   32.59    1.12
   3   0   6   38.67    1.11
   3   0   6   34.05    1.13
   3   0   6   35.95    1.11
   3   0   6   32.60    1.12
  -4   0  -6    0.00    0.04
  -4   0  -6    0.03    0.04
  -4   0  -6    0.00    0.03
   4   0   6    0.01    0.04
   4   0   6    0.03    0.05
   4   0   6    0.03    0.02
  -5   0  -6    1.39    0.10
  -5   0  -6    1.42    0.11
  -5   0  -6    1.47    0.10
   5   0   6    1.35    0.07
   5   0   6    1.42    0.11
  -6   0  -6    2.14    0.13
  -6   0  -6    2.29    0.14
   6   0   6    2.21    0.10
   6   0   6    2.26    0.15
  -7   0  -6    0.33    0.09
  -7   0  -6    0.29    0.08
   7   0   6    0.37    0.05
   7   0   6    0.20    0.08
  -8   0  -6    0.00    0.08
  -8   0  -6    0.00    0.09
   8   0   6    0.01    0.05
   8   0   6    0.02    0.10
  -9   0  -6    0.68    0.14
  -9   0  -6    0.82    0.15
   9   0   6    0.79    0.08
   9   0   6    0.86    0.17
   7  -1  -6    4.97    0.25
  -7   1   6    5.20    0.27
   6  -1  -6   13.22    0.46
  -6   1   6   12.09    0.48
   5  -1  -6    5.25    0.23
  -5   1   6    5.39    0.24
   4  -1  -6    0.58    0.07
  -4   1   6    0.50    0.08
  -4   1   6    0.53    0.07
   3  -1  -6    0.11    0.05
   3  -1  -6    0.12    0.05
   3  -1  -6    0.13    0.05
  -3   1   6    0.15    0.04
  -3   1   6    0.14    0.05
  -3   1   6    0.14    0.05
   2  -1  -6    7.34    0.27
   2  -1  -6    7.08    0.27
   2  -1  -6    6.84    0.26
  -2   1   6    7.84    0.27
  -2   1   6    6.88    0.26
  -2   1   6    7.67    0.26
  -2   1   6    7.02    0.27
   1  -1  -6    9.81    0.33
   1  -1  -6    9.90    0.34
   1  -1  -6    9.98    0.34
  -1   1   6    9.72    0.34
  -1   1   6    9.15    0.33
  -1   1   6    9.75    0.33
  -1   1   6    9.76    0.34
   0  -1  -6    4.75    0.17
   0  -1  -6    4.48    0.18
   0  -1  -6    4.81    0.18
   0   1   6    4.58    0.18
   0   1   6    4.51    0.17
   0   1   6    4.97    0.18
  -1  -1  -6    0.48    0.04
  -1  -1  -6    0.48    0.06
   1   1   6    0.49    0.03
   1   1   6    0.44    0.04
   1   1   6    0.56    0.05
  -2  -1  -6    1.06    0.06
  -2  -1  -6    0.96    0.07
   2   1   6    0.97    0.07
   2   1   6    1.17    0.07
   2   1   6    1.00    0.05
   2   1   6    1.15    0.05
  -3  -1  -6   25.23    0.86
  -3  -1  -6   25.79    0.87
  -3  -1  -6   26.29    0.87
   3   1   6   26.49    0.85
   3   1   6   24.95    0.87
   3   1   6   28.76    0.85
   3   1   6   26.31    0.87
  -4  -1  -6    0.75    0.08
  -4  -1  -6    0.89    0.06
  -4  -1  -6    0.82    0.08
   4   1   6    0.85    0.04
   4   1   6    0.63    0.07
   4   1   6    0.86    0.05
   4   1   6    0.72    0.08
  -5  -1  -6    0.39    0.06
  -5  -1  -6    0.35    0.07
  -5  -1  -6    0.41    0.05
   5   1   6    0.49    0.07
   5   1   6    0.36    0.04
  -6  -1  -6    0.16    0.06
  -6  -1  -6    0.12    0.07
   6   1   6    0.13    0.03
   6   1   6    0.15    0.07
  -7  -1  -6    0.07    0.07
  -7  -1  -6    0.02    0.07
   7   1   6    0.06    0.03
   7   1   6    0.03    0.07
  -8  -1  -6    0.31    0.09
  -8  -1  -6    0.47    0.11
   8   1   6    0.39    0.12
   8   1   6    0.52    0.06
  -9  -1  -6    0.24    0.11
  -9  -1  -6    0.05    0.13
   9   1   6    0.14    0.13
   7  -2  -6    3.80    0.22
  -7   2   6    3.43    0.23
   6  -2  -6    1.06    0.11
  -6   2   6    1.19    0.14
   5  -2  -6    2.04    0.14
  -5   2   6    2.04    0.15
   4  -2  -6    9.22    0.34
  -4   2   6    9.11    0.34
  -4   2   6    9.26    0.35
   3  -2  -6    2.17    0.11
   3  -2  -6    1.98    0.11
   3  -2  -6    2.01    0.12
  -3   2   6    1.92    0.11
  -3   2   6    2.07    0.12
   2  -2  -6    0.04    0.04
   2  -2  -6    0.04    0.04
   2  -2  -6    0.04    0.04
  -2   2   6    0.05    0.04
  -2   2   6    0.04    0.04
  -2   2   6    0.01    0.03
   1  -2  -6    3.23    0.13
   1  -2  -6    3.12    0.14
   1  -2  -6    3.29    0.14
  -1   2   6    3.49    0.13
  -1   2   6    3.03    0.13
  -1   2   6    3.66    0.14
  -1   2   6    2.97    0.14
   0  -2  -6   44.12    1.38
   0  -2  -6   41.90    1.39
   0  -2  -6   40.47    1.37
   0   2   6   43.99    1.37
   0   2   6   41.72    1.37
   0   2   6   43.76    1.38
  -1  -2  -6    0.34    0.04
  -1  -2  -6    0.27    0.04
   1   2   6    0.31    0.04
   1   2   6    0.34    0.04
   1   2   6    0.39    0.05
   1   2   6    0.34    0.03
  -2  -2  -6   16.71    0.56
  -2  -2  -6   17.63    0.57
  -2  -2  -6   16.73    0.58
   2   2   6   17.94    0.55
   2   2   6   17.86    0.55
   2   2   6   17.27    0.58
   2   2   6   16.36    0.57
  -3  -2  -6    0.04    0.03
  -3  -2  -6    0.03    0.03
  -3  -2  -6    0.02    0.02
   3   2   6    0.04    0.03
   3   2   6    0.09    0.04
  -4  -2  -6    2.06    0.09
  -4  -2  -6    2.05    0.10
  -4  -2  -6    1.97    0.12
   4   2   6    2.22    0.11
   4   2   6    2.18    0.12
  -5  -2  -6   -0.01    0.04
  -5  -2  -6    0.02    0.05
  -5  -2  -6    0.01    0.03
   5   2   6    0.03    0.05
   5   2   6    0.03    0.05
  -6  -2  -6    1.86    0.11
  -6  -2  -6    2.27    0.14
   6   2   6    2.13    0.13
  -7  -2  -6    2.59    0.14
  -7  -2  -6    2.44    0.16
   7   2   6    2.35    0.16
  -8  -2  -6    0.03    0.08
  -8  -2  -6    0.06    0.07
   8   2   6    0.02    0.10
  -9  -2  -6    0.44    0.11
  -9  -2  -6    0.28    0.12
   9   2   6    0.43    0.14
  -7   3   6    5.86    0.31
  -6   3   6    0.52    0.11
  -5   3   6    6.29    0.26
  -5   3   6    6.08    0.27
  -4   3   6    6.49    0.25
  -4   3   6    5.95    0.26
   3  -3  -6    0.34    0.06
   3  -3  -6    0.30    0.07
  -3   3   6    0.30    0.06
  -3   3   6    0.43    0.06
   2  -3  -6   -0.01    0.04
   2  -3  -6    0.03    0.05
  -2   3   6    0.02    0.03
  -2   3   6    0.00    0.04
  -2   3   6    0.00    0.04
   1  -3  -6    2.11    0.11
   1  -3  -6    2.36    0.11
   1  -3  -6    2.25    0.12
  -1   3   6    1.92    0.11
  -1   3   6    2.05    0.09
  -1   3   6    1.94    0.10
  -1   3   6    2.16    0.09
   0  -3  -6    0.51    0.06
   0  -3  -6    0.46    0.05
   0   3   6    0.47    0.04
   0   3   6    0.41    0.04
   0   3   6    0.52    0.05
   0   3   6    0.41    0.05
   0   3   6    0.48    0.06
  -1  -3  -6   47.44    1.56
  -1  -3  -6   49.18    1.56
  -1  -3  -6   48.12    1.58
   1   3   6   48.09    1.58
   1   3   6   46.15    1.57
   1   3   6   50.57    1.56
   1   3   6   50.30    1.55
   1   3   6   49.79    1.55
  -2  -3  -6    0.07    0.04
  -2  -3  -6    0.09    0.02
  -2  -3  -6    0.10    0.03
   2   3   6    0.09    0.03
   2   3   6    0.12    0.03
  -3  -3  -6    3.02    0.11
  -3  -3  -6    2.70    0.10
  -3  -3  -6    2.67    0.13
   3   3   6    2.90    0.13
   3   3   6    2.59    0.12
  -4  -3  -6    4.18    0.16
  -4  -3  -6    4.15    0.18
  -4  -3  -6    4.77    0.17
  -4  -3  -6    4.32    0.19
   4   3   6    4.49    0.19
   4   3   6    4.64    0.18
  -5  -3  -6    0.48    0.05
  -5  -3  -6    0.35    0.06
  -5  -3  -6    0.55    0.06
   5   3   6    0.47    0.07
   5   3   6    0.61    0.08
  -6  -3  -6    3.32    0.14
  -6  -3  -6    3.30    0.18
   6   3   6    3.14    0.17
  -7  -3  -6    8.29    0.31
  -7  -3  -6    8.98    0.35
   7   3   6    8.18    0.34
  -8  -3  -6   11.39    0.44
  -8  -3  -6   11.12    0.40
   8   3   6   10.15    0.43
  -9  -3  -6    0.18    0.09
  -9  -3  -6    0.09    0.10
   9   3   6    0.09    0.12
  -6   4   6    1.09    0.14
  -5   4   6    4.43    0.23
  -5   4   6    4.42    0.21
  -4   4   6    0.99    0.10
  -4   4   6    1.03    0.12
   3  -4  -6    3.20    0.17
   3  -4  -6    3.15    0.16
  -3   4   6    3.29    0.16
  -3   4   6    3.25    0.14
  -3   4   6    2.81    0.15
   2  -4  -6    1.00    0.09
  -2   4   6    0.93    0.09
  -2   4   6    0.90    0.08
  -2   4   6    0.91    0.07
   1  -4  -6   30.76    0.97
   1  -4  -6   29.30    0.96
  -1   4   6   28.42    0.96
  -1   4   6   29.09    0.96
  -1   4   6   28.09    0.94
   0  -4  -6    1.09    0.07
   0  -4  -6    0.80    0.07
   0   4   6    0.94    0.05
   0   4   6    1.05    0.06
   0   4   6    0.76    0.07
   0   4   6    1.07    0.07
  -1  -4  -6    1.25    0.07
  -1  -4  -6    1.19    0.08
  -1  -4  -6    1.20    0.06
   1   4   6    1.41    0.07
   1   4   6    1.41    0.05
   1   4   6    1.22    0.08
   1   4   6    1.30    0.05
   1   4   6    1.18    0.08
  -2  -4  -6   27.71    0.90
  -2  -4  -6   29.63    0.90
  -2  -4  -6   25.96    0.92
   2   4   6   27.45    0.92
   2   4   6   29.46    0.91
   2   4   6   27.71    0.92
  -3  -4  -6   11.19    0.35
  -3  -4  -6    9.97    0.38
  -3  -4  -6   10.46    0.35
   3   4   6   11.08    0.38
   3   4   6   11.48    0.38
   3   4   6   10.63    0.38
  -4  -4  -6    8.66    0.30
  -4  -4  -6    8.09    0.27
  -4  -4  -6    8.35    0.28
  -4  -4  -6    8.02    0.31
   4   4   6    8.08    0.30
   4   4   6    8.46    0.31
  -5  -4  -6   39.61    1.25
  -5  -4  -6   37.89    1.23
  -5  -4  -6   37.48    1.26
   5   4   6   38.29    1.26
   5   4   6   37.74    1.26
  -6  -4  -6    0.00    0.03
  -6  -4  -6    0.06    0.06
   6   4   6    0.04    0.07
  -7  -4  -6    2.16    0.12
  -7  -4  -6    2.29    0.15
   7   4   6    2.24    0.16
  -8  -4  -6    5.40    0.23
  -8  -4  -6    5.53    0.27
   8   4   6    5.47    0.27
  -9  -4  -6    5.44    0.25
  -9  -4  -6    5.89    0.30
   9   4   6    5.96    0.31
  -6   5   6    0.12    0.13
  -5   5   6    4.08    0.20
  -5   5   6    4.33    0.24
  -4   5   6    0.59    0.08
  -4   5   6    0.67    0.10
   3  -5  -6    1.49    0.12
   3  -5  -6    1.64    0.13
  -3   5   6    1.55    0.10
  -3   5   6    1.19    0.11
  -3   5   6    1.56    0.12
   2  -5  -6    2.06    0.13
   2  -5  -6    2.12    0.13
  -2   5   6    2.30    0.13
  -2   5   6    2.10    0.11
  -2   5   6    2.13    0.13
   1  -5  -6    0.01    0.05
   1  -5  -6    0.04    0.04
  -1   5   6    0.01    0.05
  -1   5   6    0.02    0.03
  -1   5   6    0.03    0.04
   0  -5  -6    0.03    0.05
   0  -5  -6    0.03    0.03
   0   5   6    0.03    0.04
   0   5   6    0.03    0.02
   0   5   6    0.03    0.04
  -1  -5  -6    4.91    0.21
  -1  -5  -6    5.05    0.18
   1   5   6    4.94    0.20
   1   5   6    5.24    0.20
  -2  -5  -6    3.06    0.12
  -2  -5  -6    3.23    0.12
  -2  -5  -6    3.20    0.15
   2   5   6    3.34    0.13
   2   5   6    3.18    0.15
   2   5   6    3.29    0.14
  -3  -5  -6    0.68    0.04
  -3  -5  -6    0.61    0.03
  -3  -5  -6    0.59    0.07
   3   5   6    0.72    0.07
   3   5   6    0.66    0.07
   3   5   6    0.67    0.07
  -4  -5  -6    0.71    0.08
   4   5   6    0.92    0.08
   4   5   6    0.84    0.07
   4   5   6    0.72    0.07
  -5  -5  -6   18.46    0.63
  -5  -5  -6   19.13    0.64
  -5  -5  -6   19.37    0.60
  -5  -5  -6   16.54    0.61
   5   5   6   19.11    0.64
   5   5   6   18.94    0.64
  -6  -5  -6    0.86    0.10
  -6  -5  -6    0.79    0.06
   6   5   6    0.83    0.10
  -7  -5  -6    5.40    0.21
  -7  -5  -6    5.43    0.25
   7   5   6    5.28    0.25
  -8  -5  -6    0.56    0.07
  -8  -5  -6    0.47    0.10
   8   5   6    0.66    0.13
  -9  -5  -6    1.15    0.16
  -9  -5  -6    1.04    0.12
   9   5   6    0.82    0.16
  -6   6   6    0.41    0.12
  -5   6   6    2.38    0.18
  -5   6   6    2.72    0.16
  -4   6   6    0.48    0.08
  -4   6   6    0.21    0.09
   3  -6  -6    3.41    0.19
   3  -6  -6    3.20    0.18
  -3   6   6    2.99    0.17
  -3   6   6    3.35    0.18
  -3   6   6    2.95    0.15
   2  -6  -6   21.44    0.74
  -2   6   6   21.13    0.71
  -2   6   6   21.86    0.74
  -2   6   6   21.76    0.74
   1  -6  -6    0.51    0.07
  -1   6   6    0.44    0.05
  -1   6   6    0.58    0.08
  -1   6   6    0.53    0.07
   0  -6  -6    6.31    0.24
   0   6   6    6.28    0.24
   0   6   6    6.38    0.22
   0   6   6    6.39    0.25
  -1  -6  -6    8.20    0.28
   1   6   6    7.34    0.29
   1   6   6    7.92    0.29
  -2  -6  -6   10.02    0.36
   2   6   6   11.29    0.37
   2   6   6   11.51    0.38
   2   6   6   10.78    0.39
  -3  -6  -6    1.74    0.07
  -3  -6  -6    1.52    0.11
  -3  -6  -6    1.78    0.07
   3   6   6    1.99    0.11
   3   6   6    1.77    0.10
   3   6   6    1.80    0.10
  -4  -6  -6   72.71    2.35
   4   6   6   74.09    2.34
   4   6   6   71.03    2.34
   4   6   6   72.63    2.34
  -5  -6  -6   45.12    1.51
  -5  -6  -6   47.05    1.51
   5   6   6   46.39    1.50
   5   6   6   44.99    1.51
   5   6   6   47.20    1.52
  -6  -6  -6    0.25    0.07
  -6  -6  -6    0.36    0.04
   6   6   6    0.22    0.07
   6   6   6    0.25    0.07
  -7  -6  -6    2.36    0.17
  -7  -6  -6    2.89    0.12
   7   6   6    2.55    0.17
  -8  -6  -6    7.88    0.29
  -8  -6  -6    8.20    0.35
   8   6   6    7.73    0.35
  -9  -6  -6   -0.05    0.12
  -9  -6  -6    0.05    0.07
   9   6   6    0.03    0.12
  -5   7   6    0.65    0.13
  -5   7   6    0.55    0.10
  -4   7   6    0.49    0.10
  -4   7   6    0.57    0.09
   3  -7  -6    0.99    0.12
  -3   7   6    0.87    0.11
  -3   7   6    0.71    0.10
  -3   7   6    0.84    0.09
   2  -7  -6   39.07    1.28
  -2   7   6   39.65    1.29
  -2   7   6   38.52    1.26
  -2   7   6   37.29    1.28
   1  -7  -6   19.67    0.67
  -1   7   6   19.41    0.64
  -1   7   6   19.38    0.67
  -1   7   6   19.34    0.67
   0  -7  -6    6.62    0.25
   0   7   6    6.60    0.26
   0   7   6    6.79    0.22
   0   7   6    6.14    0.26
  -1  -7  -6    1.86    0.10
   1   7   6    1.80    0.10
   1   7   6    1.94    0.12
  -2  -7  -6    1.88    0.09
   2   7   6    1.74    0.10
   2   7   6    1.75    0.11
  -3  -7  -6    5.06    0.18
  -3  -7  -6    4.87    0.18
  -3  -7  -6    5.38    0.21
   3   7   6    5.52    0.22
   3   7   6    5.18    0.21
   3   7   6    5.58    0.21
  -4  -7  -6   78.58    2.54
   4   7   6   78.32    2.53
   4   7   6   78.65    2.54
   4   7   6   78.74    2.53
  -5  -7  -6    0.30    0.07
  -5  -7  -6    0.35    0.08
   5   7   6    0.32    0.08
   5   7   6    0.41    0.07
   5   7   6    0.26    0.07
  -6  -7  -6    2.50    0.10
  -6  -7  -6    2.50    0.10
  -6  -7  -6    2.76    0.16
   6   7   6    2.56    0.15
   6   7   6    2.42    0.17
  -7  -7  -6    0.98    0.13
  -7  -7  -6    1.19    0.14
  -7  -7  -6    1.03    0.07
   7   7   6    1.11    0.13
  -8  -7  -6    0.20    0.10
  -8  -7  -6    0.22    0.06
  -8  -7  -6    0.14    0.12
   8   7   6    0.29    0.11
  -9  -7  -6    0.65    0.15
  -9  -7  -6    0.71    0.16
  -9  -7  -6    0.77    0.09
   9   7   6    0.65    0.15
  -4   8   6    0.08    0.07
  -4   8   6    0.02    0.11
   3  -8  -6    0.93    0.13
  -3   8   6    0.73    0.12
  -3   8   6    0.98    0.13
  -3   8   6    0.87    0.09
   2  -8  -6    0.87    0.11
  -2   8   6    0.97    0.11
  -2   8   6    0.87    0.08
  -2   8   6    0.83    0.11
   1  -8  -6   20.38    0.70
  -1   8   6   21.63    0.67
  -1   8   6   19.39    0.71
  -1   8   6   20.07    0.70
   0  -8  -6    0.49    0.07
   0   8   6    0.45    0.08
   0   8   6    0.39    0.04
   0   8   6    0.43    0.08
  -1  -8  -6    8.92    0.31
   1   8   6    8.53    0.34
   1   8   6    8.62    0.32
  -2  -8  -6    1.06    0.07
   2   8   6    0.99    0.10
   2   8   6    0.86    0.09
  -3  -8  -6    4.92    0.18
   3   8   6    4.99    0.21
   3   8   6    4.61    0.20
  -4  -8  -6    2.54    0.17
  -4  -8  -6    2.70    0.10
   4   8   6    2.77    0.15
   4   8   6    2.82    0.15
   4   8   6    2.69    0.14
  -5  -8  -6   43.68    1.43
  -5  -8  -6   43.74    1.43
  -5  -8  -6   43.24    1.43
   5   8   6   43.30    1.42
   5   8   6   43.76    1.42
   5   8   6   41.90    1.43
  -6  -8  -6    1.20    0.14
  -6  -8  -6    1.15    0.14
   6   8   6    1.38    0.12
   6   8   6    1.11    0.13
  -7  -8  -6    2.58    0.11
  -7  -8  -6    2.41    0.18
   7   8   6    2.27    0.19
  -8  -8  -6    1.68    0.10
  -8  -8  -6    1.49    0.18
   8   8   6    1.48    0.17
  -9  -8  -6    0.02    0.16
  -9  -8  -6    0.11    0.07
   9   8   6    0.07    0.13
  -4   9   6    0.86    0.16
  -4   9   6    0.92    0.11
  -3   9   6    8.75    0.33
  -3   9   6    8.89    0.38
  -3   9   6    9.09    0.40
   2  -9  -6    1.92    0.16
  -2   9   6    1.70    0.11
  -2   9   6    1.82    0.16
  -2   9   6    1.88    0.16
   1  -9  -6    0.39    0.08
  -1   9   6    0.39    0.05
  -1   9   6    0.39    0.09
  -1   9   6    0.29    0.09
   0  -9  -6    2.82    0.15
   0   9   6    2.68    0.10
   0   9   6    2.56    0.17
   0   9   6    2.73    0.16
  -1  -9  -6    0.04    0.05
   1   9   6    0.07    0.06
   1   9   6    0.05    0.07
  -2  -9  -6    0.18    0.05
   2   9   6    0.15    0.07
   2   9   6    0.21    0.07
  -3  -9  -6    0.29    0.05
   3   9   6    0.28    0.07
   3   9   6    0.27    0.07
  -4  -9  -6    1.13    0.06
   4   9   6    0.96    0.11
   5   9   6    3.13    0.18
   5   9   6    3.08    0.18
  -6  -9  -6   -0.01    0.09
   6   9   6    0.05    0.09
  -7  -9  -6    4.10    0.25
  -7  -9  -6    4.29    0.16
   7   9   6    4.39    0.24
  -8  -9  -6    0.04    0.05
  -8  -9  -6    0.00    0.13
   8   9   6   -0.03    0.12
  -9  -9  -6    0.42    0.09
  -9  -9  -6    0.32    0.16
   9   9   6    0.30    0.15
  -3  10   6    0.04    0.08
  -3  10   6    0.07    0.13
   2 -10  -6    5.72    0.29
  -2  10   6    5.89    0.29
  -2  10   6    5.80    0.23
  -2  10   6    6.33    0.29
   1 -10  -6    0.18    0.08
  -1  10   6    0.16    0.10
  -1  10   6    0.11    0.04
   0 -10  -6    1.35    0.13
   0  10   6    1.49    0.14
  -1 -10  -6    0.39    0.07
   1  10   6    0.41    0.10
  -2 -10  -6    0.76    0.09
   2  10   6    0.61    0.10
  -3 -10  -6    0.26    0.06
   3  10   6    0.23    0.08
  -4 -10  -6    0.31    0.05
   4  10   6    0.30    0.09
  -5 -10  -6    0.22    0.04
   5  10   6    0.30    0.09
  -6 -10  -6    0.66    0.06
  -7 -10  -6    0.05    0.12
  -7 -10  -6    0.07    0.04
   7  10   6    0.09    0.12
  -8 -10  -6    8.53    0.31
  -8 -10  -6    8.89    0.41
   8  10   6    9.37    0.41
   2 -11  -6    5.24    0.28
  -2  11   6    5.10    0.29
  -2  11   6    4.69    0.20
   1 -11  -6    1.06    0.13
  -1  11   6    1.09    0.08
  -1  11   6    1.08    0.14
   0 -11  -6    0.30    0.09
   0  11   6    0.25    0.10
  -1 -11  -6    3.43    0.18
   1  11   6    3.33    0.20
  -2 -11  -6    0.17    0.07
   2  11   6    0.21    0.09
  -3 -11  -6    1.09    0.10
   3  11   6    0.91    0.13
  -4 -11  -6    1.08    0.09
   4  11   6    0.89    0.12
  -5 -11  -6    1.12    0.09
   5  11   6    1.02    0.13
  -6 -11  -6    5.71    0.21
  -7 -11  -6    0.46    0.06
  -8 -11  -6    1.23    0.24
  -8 -11  -6    1.23    0.11
   1 -12  -6    1.47    0.17
  -1  12   6    1.64    0.22
   0 -12  -6    0.10    0.10
   0  12   6    0.19    0.13
  -1 -12  -6    0.05    0.08
   1  12   6    0.05    0.12
  -2 -12  -6    0.29    0.08
   2  12   6    0.46    0.12
  -3 -12  -6    6.63    0.27
   3  12   6    6.57    0.32
  -4 -12  -6    0.06    0.07
   4  12   6    0.04    0.11
  -5 -12  -6    3.01    0.15
   5  12   6    3.06    0.22
  -6 -12  -6    0.23    0.06
  -7 -12  -6    3.73    0.17
  -2 -13  -6    1.39    0.16
   2  13   6    1.54    0.19
  -3 -13  -6    2.86    0.18
   3  13   6    2.78    0.24
  -4 -13  -6    2.02    0.16
   4  13   6    2.13    0.23
  -5 -13  -6    1.32    0.14
   5  13   6    1.37    0.18
  -1 -11   7    0.24    0.16
   4  10  -7    0.19    0.12
  -4 -10   7    0.29    0.14
   3  10  -7   -0.02    0.07
   3  10  -7   -0.05    0.14
  -3 -10   7   -0.06    0.12
  -3 -10   7    0.02    0.13
   2  10  -7    6.43    0.28
   2  10  -7    7.16    0.36
  -2 -10   7    7.15    0.36
   1  10  -7    0.07    0.08
   1  10  -7    0.05    0.14
  -1 -10   7   -0.04    0.14
   0  10  -7    0.88    0.17
   0  10  -7    0.90    0.11
   0 -10   7    1.04    0.17
  -1  10  -7    0.14    0.10
  -1  10  -7    0.19    0.14
   1 -10   7    0.06    0.14
  -2  10  -7    3.12    0.22
  -2  10  -7    2.50    0.30
   2 -10   7    3.12    0.27
   5   9  -7    3.25    0.17
  -5  -9   7    2.94    0.25
   4   9  -7    1.01    0.10
  -4  -9   7    0.63    0.13
  -4  -9   7    0.99    0.17
   3   9  -7    1.73    0.13
   3   9  -7    1.80    0.20
  -3  -9   7    1.67    0.19
   2   9  -7    3.04    0.16
   2   9  -7    2.56    0.20
  -2  -9   7    3.15    0.22
   1   9  -7    0.07    0.11
   1   9  -7    0.22    0.08
  -1  -9   7    0.17    0.12
   0   9  -7    0.85    0.15
   0   9  -7    1.11    0.12
   0  -9   7    1.16    0.16
  -1   9  -7    1.58    0.15
  -1   9  -7    1.35    0.17
   1  -9   7    1.77    0.19
  -2   9  -7    3.13    0.19
  -2   9  -7    2.79    0.25
   2  -9   7    3.35    0.24
  -3   9  -7    0.08    0.15
  -3   9  -7    0.18    0.11
   3  -9   7    0.24    0.14
   6   8  -7    1.61    0.16
  -6  -8   7    1.42    0.18
   5   8  -7    1.09    0.12
  -5  -8   7    1.08    0.17
  -5  -8   7    1.78    0.18
   4   8  -7    4.98    0.21
  -4  -8   7    4.44    0.27
  -4  -8   7    4.86    0.27
   3   8  -7    2.66    0.15
  -3  -8   7    2.54    0.19
  -3  -8   7    2.69    0.20
   2   8  -7    8.11    0.31
   2   8  -7    7.17    0.34
  -2  -8   7    8.82    0.35
   1   8  -7    2.96    0.16
  -1  -8   7    2.36    0.24
  -1  -8   7    2.82    0.19
   0   8  -7    0.42    0.12
   0   8  -7    0.37    0.08
   0  -8   7    0.32    0.11
  -1   8  -7    4.30    0.20
   1  -8   7    3.82    0.23
  -2   8  -7    1.36    0.14
  -2   8  -7    1.08    0.15
   2  -8   7    1.53    0.17
  -3   8  -7    2.20    0.17
  -3   8  -7    1.97    0.21
   3  -8   7    2.12    0.20
  -4   8  -7    0.04    0.13
   4  -8   7    0.07    0.12
   6   7  -7    0.68    0.09
  -6  -7   7    0.78    0.18
  -6  -7   7    0.71    0.14
   5   7  -7    2.31    0.14
  -5  -7   7    2.46    0.21
  -5  -7   7    2.11    0.20
   4   7  -7    0.43    0.07
  -4  -7   7    0.41    0.11
  -4  -7   7    0.34    0.11
   3   7  -7    5.69    0.23
   3   7  -7    5.36    0.26
  -3  -7   7    5.87    0.27
  -3  -7   7    5.49    0.27
   2   7  -7    6.25    0.24
   2   7  -7    5.27    0.27
  -2  -7   7    5.32    0.27
  -2  -7   7    6.06    0.27
   1   7  -7    0.38    0.10
   1   7  -7    0.42    0.08
  -1  -7   7    0.51    0.10
  -1  -7   7    0.43    0.10
   0   7  -7    2.63    0.15
   0   7  -7    2.23    0.17
   0  -7   7    2.82    0.18
  -1   7  -7    3.29    0.21
  -1   7  -7    4.02    0.19
   1  -7   7    4.38    0.22
  -2   7  -7    3.87    0.19
  -2   7  -7    2.87    0.20
  -3   7  -7    3.78    0.21
  -3   7  -7    3.51    0.22
   3  -7   7    3.79    0.23
  -4   7  -7    7.38    0.36
   4  -7   7    8.24    0.36
   5  -7   7    0.64    0.14
  -7  -6   7    0.26    0.16
   6   6  -7    4.10    0.20
  -6  -6   7    4.47    0.26
  -6  -6   7    4.00    0.26
   5   6  -7    0.02    0.06
  -5  -6   7   -0.01    0.10
  -5  -6   7    0.00    0.09
   4   6  -7    0.81    0.09
  -4  -6   7    0.85    0.12
  -4  -6   7    0.68    0.11
   3   6  -7    0.01    0.08
   3   6  -7    0.01    0.05
  -3  -6   7    0.01    0.09
  -3  -6   7   -0.01    0.08
   2   6  -7    3.83    0.21
   2   6  -7    4.11    0.18
  -2  -6   7    3.89    0.20
  -2  -6   7    4.29    0.21
   1   6  -7    1.77    0.11
   1   6  -7    1.98    0.15
  -1  -6   7    2.17    0.15
   0   6  -7   12.57    0.46
   0   6  -7   11.98    0.44
   0  -6   7   12.68    0.47
  -1   6  -7    0.41    0.09
  -1   6  -7    0.72    0.08
   1  -6   7    0.71    0.10
  -2   6  -7    0.20    0.07
  -2   6  -7    0.16    0.08
   2  -6   7    0.24    0.09
  -3   6  -7    1.66    0.16
   3  -6   7    1.64    0.16
   3  -6   7    1.56    0.13
  -4   6  -7   22.62    0.85
   4  -6   7   25.61    0.86
   4  -6   7   24.50    0.83
   5  -6   7    3.52    0.20
   5  -6   7    3.93    0.24
   6  -6   7    0.12    0.14
   6  -6   7    0.17    0.10
   7   5  -7    0.55    0.10
  -7  -5   7    0.47    0.15
   6   5  -7    7.40    0.30
  -6  -5   7    7.56    0.37
  -6  -5   7    7.90    0.36
   5   5  -7    2.87    0.15
  -5  -5   7    2.80    0.21
  -5  -5   7    2.54    0.18
   4   5  -7    0.64    0.08
  -4  -5   7    0.61    0.10
  -4  -5   7    0.58    0.11
   3   5  -7    0.24    0.06
   3   5  -7    0.18    0.08
  -3  -5   7    0.21    0.08
  -3  -5   7    0.32    0.09
   2   5  -7    2.99    0.17
   2   5  -7    3.18    0.15
  -2  -5   7    3.38    0.18
  -2  -5   7    3.47    0.19
   1   5  -7    1.63    0.10
   1   5  -7    1.71    0.12
  -1  -5   7    1.39    0.12
  -1  -5   7    1.50    0.13
   0   5  -7   10.07    0.37
   0   5  -7   10.84    0.40
   0  -5   7   10.13    0.40
   0  -5   7   10.92    0.39
  -1   5  -7   17.16    0.60
  -1   5  -7   17.03    0.62
   1  -5   7   18.34    0.63
  -2   5  -7    3.05    0.18
  -2   5  -7    2.97    0.16
   2  -5   7    3.46    0.16
   2  -5   7    3.12    0.17
  -3   5  -7    0.31    0.09
   3  -5   7    0.30    0.07
   3  -5   7    0.49    0.10
  -4   5  -7   -0.01    0.09
   4  -5   7    0.03    0.06
   4  -5   7    0.00    0.07
  -5   5  -7    0.54    0.20
   5  -5   7    0.32    0.10
   5  -5   7    0.43    0.09
  -6   5  -7    0.00    0.11
   6  -5   7   -0.03    0.08
   6  -5   7   -0.04    0.10
  -7   5  -7    2.26    0.24
   7  -5   7    2.38    0.25
   7  -5   7    2.25    0.18
   7   4  -7    6.18    0.27
  -7  -4   7    6.49    0.35
   6   4  -7    5.49    0.24
  -6  -4   7    5.87    0.29
   5   4  -7    0.64    0.08
  -5  -4   7    0.72    0.12
  -5  -4   7    0.73    0.13
   4   4  -7   15.89    0.56
  -4  -4   7   16.61    0.59
  -4  -4   7   16.75    0.60
   3   4  -7    9.35    0.35
   3   4  -7    9.55    0.34
  -3  -4   7    9.90    0.36
  -3  -4   7    8.69    0.37
   2   4  -7   18.61    0.70
   2   4  -7   21.25    0.69
  -2  -4   7   21.20    0.72
  -2  -4   7   21.58    0.71
   1   4  -7    1.40    0.09
   1   4  -7    1.52    0.12
  -1  -4   7    1.47    0.10
  -1  -4   7    1.55    0.12
  -1  -4   7    1.64    0.12
   0   4  -7    2.42    0.13
   0   4  -7    2.18    0.12
   0  -4   7    2.08    0.11
   0  -4   7    2.14    0.13
   0  -4   7    2.31    0.13
  -1   4  -7    1.34    0.09
  -1   4  -7    1.19    0.11
   1  -4   7    1.33    0.11
   1  -4   7    1.14    0.09
  -2   4  -7   11.17    0.42
  -2   4  -7   11.53    0.43
  -2   4  -7   11.36    0.41
  -2   4  -7   11.74    0.41
   2  -4   7   11.68    0.43
  -3   4  -7    1.22    0.11
  -3   4  -7    1.27    0.13
  -3   4  -7    1.20    0.10
   3  -4   7    1.31    0.12
   3  -4   7    1.25    0.10
  -4   4  -7    3.23    0.19
  -4   4  -7    3.09    0.17
   4  -4   7    3.12    0.16
   4  -4   7    3.60    0.19
  -5   4  -7    0.51    0.10
  -5   4  -7    0.76    0.12
   5  -4   7    0.75    0.12
   5  -4   7    0.58    0.08
  -6   4  -7    0.22    0.10
   6  -4   7    0.15    0.11
   6  -4   7    0.18    0.07
  -7   4  -7    0.25    0.13
   7  -4   7    0.39    0.14
   7  -4   7    0.30    0.09
   7   3  -7    1.17    0.12
  -7  -3   7    1.31    0.18
   6   3  -7    4.92    0.22
  -6  -3   7    5.13    0.27
   5   3  -7    6.80    0.27
  -5  -3   7    6.50    0.29
   4   3  -7    2.33    0.13
  -4  -3   7    2.53    0.16
  -4  -3   7    2.30    0.15
   3   3  -7    6.03    0.24
   3   3  -7    6.41    0.25
  -3  -3   7    5.81    0.25
  -3  -3   7    5.86    0.25
   2   3  -7   13.32    0.48
   2   3  -7   13.94    0.47
  -2  -3   7   13.87    0.49
  -2  -3   7   14.00    0.47
  -2  -3   7   13.88    0.47
  -2  -3   7   13.68    0.49
   1   3  -7   13.48    0.48
   1   3  -7   13.54    0.46
  -1  -3   7   13.17    0.48
  -1  -3   7   13.74    0.46
  -1  -3   7   13.55    0.47
  -1  -3   7   13.19    0.45
   0   3  -7   20.74    0.69
   0   3  -7   20.53    0.67
   0   3  -7   21.02    0.68
   0  -3   7   20.61    0.69
   0  -3   7   19.72    0.66
   0  -3   7   19.81    0.69
   0  -3   7   18.82    0.67
  -1   3  -7    0.47    0.06
  -1   3  -7    0.56    0.06
  -1   3  -7    0.51    0.08
  -1   3  -7    0.47    0.06
   1  -3   7    0.39    0.07
   1  -3   7    0.52    0.06
   1  -3   7    0.37    0.05
  -2   3  -7    0.00    0.06
  -2   3  -7    0.01    0.04
  -2   3  -7    0.03    0.04
  -2   3  -7    0.02    0.04
   2  -3   7    0.02    0.04
   2  -3   7    0.00    0.04
   2  -3   7   -0.01    0.05
  -3   3  -7   -0.01    0.05
  -3   3  -7   -0.01    0.05
  -3   3  -7   -0.01    0.05
   3  -3   7    0.02    0.05
   3  -3   7    0.00    0.04
  -4   3  -7    0.92    0.11
  -4   3  -7    0.96    0.10
  -4   3  -7    0.90    0.10
   4  -3   7    0.72    0.10
   4  -3   7    0.83    0.08
  -5   3  -7    0.65    0.10
  -5   3  -7    0.43    0.09
  -5   3  -7    0.41    0.08
   5  -3   7    0.53    0.07
   5  -3   7    0.58    0.10
  -6   3  -7    0.07    0.09
  -6   3  -7    0.06    0.08
   6  -3   7    0.13    0.06
   6  -3   7    0.13    0.09
  -7   3  -7   -0.01    0.12
   7  -3   7    0.02    0.06
   7  -3   7    0.04    0.12
  -8   3  -7   -0.02    0.14
   8  -3   7    0.03    0.09
   8  -3   7    0.08    0.14
   7   2  -7    0.09    0.09
   6   2  -7    0.00    0.07
  -6  -2   7    0.08    0.11
   5   2  -7    8.69    0.33
  -5  -2   7    8.57    0.33
  -5  -2   7    8.38    0.35
   4   2  -7    0.31    0.06
  -4  -2   7    0.48    0.09
  -4  -2   7    0.63    0.08
  -4  -2   7    0.33    0.08
   3   2  -7    5.59    0.22
   3   2  -7    5.98    0.23
  -3  -2   7    5.41    0.22
  -3  -2   7    5.58    0.24
  -3  -2   7    5.79    0.24
   2   2  -7    6.51    0.25
   2   2  -7    7.28    0.27
  -2  -2   7    6.82    0.25
  -2  -2   7    6.96    0.27
  -2  -2   7    6.72    0.25
  -2  -2   7    7.07    0.27
   1   2  -7    2.99    0.13
   1   2  -7    2.83    0.14
   1   2  -7    2.96    0.14
  -1  -2   7    3.00    0.14
  -1  -2   7    2.95    0.14
  -1  -2   7    2.81    0.13
  -1  -2   7    2.86    0.13
   0   2  -7    4.43    0.19
   0   2  -7    4.46    0.18
   0   2  -7    4.92    0.19
   0  -2   7    4.44    0.18
   0  -2   7    4.80    0.18
   0  -2   7    4.51    0.20
   0  -2   7    4.88    0.20
  -1   2  -7    0.66    0.08
  -1   2  -7    0.68    0.07
  -1   2  -7    0.80    0.08
   1  -2   7    0.75    0.08
   1  -2   7    0.68    0.07
   1  -2   7    0.76    0.06
   1  -2   7    0.78    0.09
  -2   2  -7    1.97    0.11
  -2   2  -7    1.69    0.11
  -2   2  -7    2.04    0.11
   2  -2   7    1.88    0.09
   2  -2   7    2.07    0.12
   2  -2   7    1.76    0.10
  -3   2  -7    6.71    0.26
  -3   2  -7    6.28    0.25
  -3   2  -7    6.57    0.26
   3  -2   7    6.60    0.25
   3  -2   7    6.88    0.24
   3  -2   7    6.69    0.27
  -4   2  -7    1.27    0.11
  -4   2  -7    1.38    0.10
  -4   2  -7    0.92    0.10
   4  -2   7    1.34    0.11
   4  -2   7    1.29    0.08
  -5   2  -7   -0.01    0.07
  -5   2  -7    0.00    0.06
  -5   2  -7   -0.01    0.05
   5  -2   7   -0.01    0.04
   5  -2   7   -0.02    0.06
  -6   2  -7    0.11    0.09
  -6   2  -7    0.12    0.08
   6  -2   7    0.12    0.05
   6  -2   7    0.12    0.08
  -7   2  -7    0.07    0.09
  -7   2  -7    0.12    0.10
   7  -2   7    0.03    0.06
   7  -2   7   -0.01    0.09
  -8   2  -7    0.28    0.13
  -8   2  -7    0.35    0.14
   8  -2   7    0.32    0.08
   8  -2   7    0.27    0.14
   7   1  -7    0.43    0.11
  -7  -1   7    0.28    0.13
   6   1  -7    2.44    0.15
  -6  -1   7    2.30    0.16
   5   1  -7    2.16    0.14
  -5  -1   7    2.09    0.15
  -5  -1   7    2.26    0.16
   4   1  -7    0.94    0.10
  -4  -1   7    0.90    0.10
  -4  -1   7    0.86    0.10
   3   1  -7    0.96    0.09
   3   1  -7    0.85    0.09
  -3  -1   7    0.86    0.08
  -3  -1   7    0.80    0.10
  -3  -1   7    0.79    0.08
  -3  -1   7    0.77    0.09
   2   1  -7    2.07    0.11
   2   1  -7    1.80    0.10
   2   1  -7    1.85    0.11
  -2  -1   7    1.72    0.10
  -2  -1   7    1.93    0.11
  -2  -1   7    1.71    0.10
  -2  -1   7    2.14    0.12
   1   1  -7   12.75    0.44
   1   1  -7   13.28    0.45
   1   1  -7   13.22    0.45
  -1  -1   7   12.46    0.43
  -1  -1   7   12.37    0.44
  -1  -1   7   13.46    0.45
  -1  -1   7   12.40    0.45
   0   1  -7    9.89    0.33
   0   1  -7    9.76    0.35
   0   1  -7   10.01    0.34
   0  -1   7    9.67    0.33
   0  -1   7    9.68    0.34
   0  -1   7    9.22    0.33
   0  -1   7    9.08    0.34
  -1   1  -7    3.09    0.15
  -1   1  -7    3.06    0.14
   1  -1   7    3.29    0.13
   1  -1   7    3.48    0.15
   1  -1   7    3.10    0.15
   1  -1   7    3.11    0.13
  -2   1  -7    0.01    0.04
  -2   1  -7    0.04    0.03
  -2   1  -7    0.01    0.04
   2  -1   7    0.05    0.04
   2  -1   7    0.05    0.03
   2  -1   7    0.04    0.04
  -3   1  -7    3.49    0.15
  -3   1  -7    3.35    0.16
  -3   1  -7    3.56    0.15
   3  -1   7    3.34    0.15
   3  -1   7    3.09    0.13
   3  -1   7    3.41    0.16
  -4   1  -7    0.51    0.07
  -4   1  -7    0.67    0.07
  -4   1  -7    0.58    0.07
   4  -1   7    0.64    0.06
   4  -1   7    0.50    0.08
  -5   1  -7    5.79    0.25
  -5   1  -7    6.43    0.27
  -5   1  -7    6.08    0.26
   5  -1   7    6.34    0.23
   5  -1   7    6.66    0.27
  -6   1  -7   -0.01    0.07
  -6   1  -7   -0.03    0.07
   6  -1   7    0.00    0.04
   6  -1   7    0.03    0.08
  -7   1  -7    2.08    0.16
  -7   1  -7    2.15    0.17
   7  -1   7    2.18    0.17
   7  -1   7    2.17    0.12
  -8   1  -7    0.90    0.15
  -8   1  -7    0.87    0.15
   8  -1   7    1.00    0.15
   8  -1   7    0.69    0.08
  -9   1  -7    0.92    0.16
   7   0  -7    0.82    0.13
  -7   0   7    1.09    0.16
   6   0  -7    1.42    0.14
  -6   0   7    1.75    0.16
   5   0  -7    0.44    0.08
  -5   0   7    0.57    0.10
   4   0  -7    8.90    0.33
  -4   0   7    8.54    0.34
  -4   0   7    8.38    0.33
  -4   0   7    9.17    0.34
   3   0  -7    2.13    0.12
   3   0  -7    2.35    0.13
  -3   0   7    2.01    0.11
  -3   0   7    2.41    0.12
  -3   0   7    2.02    0.12
   2   0  -7    0.91    0.08
   2   0  -7    0.91    0.08
   2   0  -7    0.95    0.09
  -2   0   7    0.88    0.08
  -2   0   7    0.94    0.07
  -2   0   7    1.10    0.13
  -2   0   7    0.89    0.08
   1   0  -7    1.80    0.11
   1   0  -7    1.83    0.10
  -1   0   7    1.62    0.09
  -1   0   7    1.62    0.09
  -1   0   7    1.99    0.11
  -1   0   7    1.90    0.10
   0   0  -7   19.47    0.67
   0   0  -7   20.07    0.66
   0   0  -7   20.14    0.65
   0   0   7   21.19    0.66
   0   0   7   19.56    0.66
   0   0   7   18.22    0.65
   0   0   7   20.02    0.66
  -1   0  -7    9.53    0.37
  -1   0  -7   10.55    0.36
  -1   0  -7   10.60    0.36
   1   0   7   10.75    0.37
   1   0   7   10.85    0.36
   1   0   7   10.35    0.35
  -2   0  -7   29.11    0.94
  -2   0  -7   27.54    0.94
   2   0   7   29.53    0.95
   2   0   7   28.28    0.93
   2   0   7   28.48    0.94
  -3   0  -7    2.81    0.12
  -3   0  -7    3.15    0.14
  -3   0  -7    2.57    0.13
   3   0   7    2.46    0.13
   3   0   7    2.99    0.14
   3   0   7    2.63    0.11
  -4   0  -7    0.74    0.08
  -4   0  -7    0.76    0.09
  -4   0  -7    0.85    0.07
   4   0   7    0.76    0.08
   4   0   7    0.84    0.08
   4   0   7    0.97    0.06
  -5   0  -7    7.61    0.31
  -5   0  -7    7.85    0.30
  -5   0  -7    7.88    0.30
   5   0   7    7.99    0.32
   5   0   7    7.81    0.27
  -6   0  -7    0.26    0.06
  -6   0  -7    0.43    0.09
   6   0   7    0.27    0.04
   6   0   7    0.30    0.08
  -7   0  -7    6.27    0.27
  -7   0  -7    6.87    0.29
   7   0   7    6.19    0.23
   7   0   7    6.82    0.30
  -8   0  -7    1.86    0.17
  -8   0  -7    2.00    0.17
   8   0   7    1.93    0.11
   8   0   7    2.03    0.18
  -9   0  -7    1.06    0.18
  -9   0  -7    0.85    0.14
   9   0   7    1.12    0.09
   9   0   7    1.00    0.17
   7  -1  -7    2.83    0.20
  -7   1   7    2.90    0.23
   6  -1  -7    0.04    0.09
  -6   1   7    0.05    0.09
   5  -1  -7    1.04    0.12
  -5   1   7    1.16    0.13
   4  -1  -7   15.20    0.51
  -4   1   7   14.06    0.52
  -4   1   7   14.46    0.51
   3  -1  -7    0.64    0.08
   3  -1  -7    0.74    0.08
  -3   1   7    0.61    0.08
  -3   1   7    0.73    0.07
  -3   1   7    0.74    0.08
   2  -1  -7    6.11    0.24
   2  -1  -7    6.50    0.24
   2  -1  -7    6.07    0.23
  -2   1   7    5.78    0.23
  -2   1   7    6.45    0.23
  -2   1   7    5.80    0.22
   1  -1  -7    3.08    0.14
   1  -1  -7    3.33    0.15
   1  -1  -7    3.19    0.15
  -1   1   7    3.66    0.14
  -1   1   7    3.52    0.14
  -1   1   7    3.12    0.13
   0  -1  -7    0.09    0.03
   0  -1  -7    0.06    0.04
   0  -1  -7    0.08    0.04
   0   1   7    0.08    0.04
   0   1   7    0.06    0.03
   0   1   7    0.05    0.04
  -1  -1  -7    1.81    0.09
  -1  -1  -7    1.70    0.10
  -1  -1  -7    1.89    0.09
   1   1   7    1.84    0.09
   1   1   7    1.75    0.08
   1   1   7    2.06    0.10
  -2  -1  -7   39.41    1.32
  -2  -1  -7   40.79    1.33
   2   1   7   40.91    1.31
   2   1   7   38.08    1.32
   2   1   7   41.11    1.33
   2   1   7   44.62    1.31
  -3  -1  -7   13.21    0.46
  -3  -1  -7   12.52    0.47
   3   1   7   13.61    0.47
   3   1   7   13.94    0.48
   3   1   7   14.60    0.45
   3   1   7   14.10    0.45
  -4  -1  -7    7.08    0.26
  -4  -1  -7    6.94    0.27
  -4  -1  -7    6.72    0.25
   4   1   7    6.56    0.27
   4   1   7    6.86    0.23
   4   1   7    6.42    0.26
  -5  -1  -7    3.24    0.17
  -5  -1  -7    2.96    0.15
  -5  -1  -7    3.39    0.15
   5   1   7    3.46    0.12
   5   1   7    3.30    0.17
  -6  -1  -7    4.09    0.20
  -6  -1  -7    4.07    0.19
   6   1   7    4.22    0.15
   6   1   7    4.52    0.21
  -7  -1  -7    0.91    0.11
  -7  -1  -7    0.69    0.10
   7   1   7    0.81    0.06
   7   1   7    0.97    0.12
  -8  -1  -7    4.96    0.25
  -8  -1  -7    4.27    0.23
   8   1   7    4.73    0.16
   8   1   7    4.60    0.25
  -9  -1  -7    2.01    0.20
  -9  -1  -7    1.64    0.18
   9   1   7    1.72    0.22
   7  -2  -7    9.62    0.40
  -7   2   7    9.90    0.43
   6  -2  -7    0.03    0.15
  -6   2   7    0.00    0.10
  -5   2   7    2.58    0.17
  -4   2   7    2.89    0.14
  -4   2   7    2.41    0.15
   3  -2  -7   14.39    0.50
   3  -2  -7   14.53    0.51
  -3   2   7   14.26    0.51
  -3   2   7   14.11    0.49
   2  -2  -7    9.59    0.34
   2  -2  -7    9.20    0.34
  -2   2   7    9.53    0.34
  -2   2   7    9.38    0.33
   1  -2  -7   12.47    0.41
   1  -2  -7   11.94    0.41
   1  -2  -7   10.80    0.41
  -1   2   7   12.57    0.40
  -1   2   7   10.98    0.41
  -1   2   7   11.39    0.39
   0  -2  -7    0.20    0.05
   0  -2  -7    0.27    0.05
   0  -2  -7    0.32    0.05
   0   2   7    0.36    0.04
   0   2   7    0.16    0.04
   0   2   7    0.23    0.03
  -1  -2  -7    7.89    0.28
  -1  -2  -7    7.98    0.29
   1   2   7    8.29    0.28
   1   2   7    8.32    0.27
   1   2   7    7.81    0.27
   1   2   7    7.58    0.28
  -2  -2  -7    2.02    0.09
  -2  -2  -7    1.84    0.10
   2   2   7    1.85    0.10
   2   2   7    2.13    0.08
   2   2   7    2.35    0.08
   2   2   7    1.96    0.10
  -3  -2  -7   45.06    1.47
  -3  -2  -7   44.26    1.46
   3   2   7   45.49    1.44
   3   2   7   45.50    1.47
   3   2   7   46.72    1.44
   3   2   7   44.25    1.47
  -4  -2  -7   12.36    0.43
  -4  -2  -7   11.99    0.42
  -4  -2  -7   13.14    0.44
   4   2   7   11.55    0.43
   4   2   7   12.77    0.44
  -5  -2  -7    0.13    0.06
  -5  -2  -7    0.10    0.05
  -5  -2  -7    0.12    0.04
   5   2   7    0.12    0.05
   5   2   7    0.14    0.06
  -6  -2  -7   59.56    1.95
  -6  -2  -7   59.95    1.92
   6   2   7   58.94    1.95
  -7  -2  -7    0.77    0.09
  -7  -2  -7    0.61    0.10
   7   2   7    0.64    0.11
  -8  -2  -7    0.10    0.10
  -8  -2  -7    0.21    0.08
   8   2   7    0.09    0.11
  -9  -2  -7    0.75    0.14
  -9  -2  -7    0.77    0.12
   9   2   7    0.94    0.15
  -6   3   7    1.40    0.16
  -5   3   7    6.50    0.26
  -5   3   7    5.86    0.28
  -4   3   7   -0.02    0.06
  -4   3   7    0.10    0.08
   3  -3  -7    0.51    0.08
   3  -3  -7    0.61    0.08
  -3   3   7    0.49    0.06
  -3   3   7    0.49    0.08
   2  -3  -7    8.23    0.32
   2  -3  -7    8.89    0.32
  -2   3   7    8.72    0.32
  -2   3   7    8.54    0.30
   1  -3  -7   12.43    0.43
   1  -3  -7   12.58    0.43
  -1   3   7   12.06    0.41
  -1   3   7   11.92    0.43
   0  -3  -7    0.88    0.08
   0  -3  -7    0.92    0.07
   0   3   7    0.80    0.07
   0   3   7    0.96    0.06
   0   3   7    0.76    0.05
  -1  -3  -7    5.53    0.20
  -1  -3  -7    5.32    0.21
   1   3   7    5.46    0.18
   1   3   7    5.50    0.19
   1   3   7    5.06    0.21
   1   3   7    5.61    0.20
  -2  -3  -7   14.45    0.48
  -2  -3  -7   14.35    0.50
  -2  -3  -7   14.50    0.48
   2   3   7   15.08    0.49
   2   3   7   14.14    0.50
  -3  -3  -7   18.39    0.60
  -3  -3  -7   15.85    0.63
  -3  -3  -7   18.87    0.62
   3   3   7   18.79    0.62
   3   3   7   19.65    0.62
  -4  -3  -7    0.13    0.06
  -4  -3  -7    0.13    0.05
  -4  -3  -7    0.15    0.03
   4   3   7    0.15    0.05
   4   3   7    0.19    0.06
  -5  -3  -7    0.29    0.06
  -5  -3  -7    0.25    0.04
  -5  -3  -7    0.13    0.05
   5   3   7    0.26    0.06
   5   3   7    0.25    0.06
  -6  -3  -7    0.33    0.08
  -6  -3  -7    0.29    0.05
   6   3   7    0.28    0.07
  -7  -3  -7   -0.01    0.05
  -7  -3  -7   -0.01    0.08
   7   3   7    0.02    0.08
  -8  -3  -7    0.19    0.09
  -8  -3  -7    0.28    0.08
   8   3   7    0.15    0.09
  -9  -3  -7    3.21    0.22
  -9  -3  -7    2.73    0.19
   9   3   7    3.12    0.22
  -6   4   7    3.65    0.23
  -5   4   7    0.89    0.11
  -5   4   7    0.76    0.12
  -4   4   7   10.73    0.42
  -4   4   7   11.63    0.41
   3  -4  -7    0.36    0.08
   3  -4  -7    0.27    0.08
  -3   4   7    0.28    0.06
  -3   4   7    0.21    0.07
   2  -4  -7    2.52    0.14
   2  -4  -7    2.28    0.14
  -2   4   7    2.14    0.13
  -2   4   7    2.53    0.11
  -2   4   7    2.57    0.13
   1  -4  -7   67.82    2.18
   1  -4  -7   69.91    2.19
  -1   4   7   67.40    2.19
  -1   4   7   67.30    2.17
  -1   4   7   66.02    2.19
   0  -4  -7    0.67    0.07
   0  -4  -7    0.61    0.06
   0   4   7    0.48    0.06
   0   4   7    0.49    0.04
   0   4   7    0.54    0.06
  -1  -4  -7    0.47    0.05
  -1  -4  -7    0.48    0.07
   1   4   7    0.45    0.06
   1   4   7    0.51    0.03
   1   4   7    0.50    0.05
   1   4   7    0.56    0.03
   1   4   7    0.39    0.06
  -2  -4  -7    0.74    0.07
  -2  -4  -7    0.73    0.05
   2   4   7    0.67    0.06
   2   4   7    0.97    0.07
   2   4   7    0.90    0.07
  -3  -4  -7    0.30    0.06
  -3  -4  -7    0.35    0.04
  -3  -4  -7    0.33    0.04
   3   4   7    0.34    0.05
   3   4   7    0.35    0.05
  -4  -4  -7    0.20    0.06
  -4  -4  -7    0.20    0.03
   4   4   7    0.26    0.06
   4   4   7    0.18    0.06
  -5  -4  -7   57.10    1.79
  -5  -4  -7   55.38    1.77
  -5  -4  -7   55.04    1.80
   5   4   7   55.66    1.80
   5   4   7   52.57    1.80
  -6  -4  -7   46.58    1.50
  -6  -4  -7   45.92    1.54
   6   4   7   46.23    1.53
   6   4   7   47.24    1.54
  -7  -4  -7    5.65    0.26
  -7  -4  -7    5.21    0.21
   7   4   7    5.25    0.25
  -8  -4  -7    0.10    0.09
  -8  -4  -7    0.16    0.07
   8   4   7    0.09    0.10
  -9  -4  -7    0.20    0.11
  -9  -4  -7    0.26    0.09
   9   4   7    0.27    0.12
  -6   5   7    6.99    0.39
  -5   5   7    0.01    0.09
  -5   5   7    0.05    0.10
  -4   5   7    9.24    0.34
  -4   5   7    8.36    0.35
   3  -5  -7    1.81    0.14
   3  -5  -7    1.73    0.15
  -3   5   7    1.92    0.13
  -3   5   7    1.71    0.11
  -3   5   7    1.68    0.13
   2  -5  -7    0.04    0.06
  -2   5   7    0.03    0.06
  -2   5   7   -0.01    0.04
  -2   5   7    0.03    0.06
   1  -5  -7   30.46    0.99
   1  -5  -7   29.44    1.00
  -1   5   7   30.25    1.00
  -1   5   7   29.89    0.97
  -1   5   7   29.71    1.00
   0  -5  -7   53.90    1.75
   0  -5  -7   53.88    1.74
   0   5   7   53.24    1.72
   0   5   7   52.95    1.74
   0   5   7   54.72    1.75
  -1  -5  -7    4.96    0.21
  -1  -5  -7    4.83    0.18
   1   5   7    4.93    0.20
   1   5   7    4.83    0.20
  -2  -5  -7    4.64    0.21
   2   5   7    5.04    0.21
   2   5   7    5.33    0.20
   2   5   7    5.46    0.19
  -3  -5  -7   10.88    0.40
  -3  -5  -7   10.55    0.36
  -3  -5  -7   11.32    0.37
   3   5   7   11.25    0.39
   3   5   7   11.07    0.39
   3   5   7   11.06    0.39
  -4  -5  -7    0.11    0.02
  -4  -5  -7    0.13    0.03
  -4  -5  -7    0.06    0.05
   4   5   7    0.07    0.04
   4   5   7    0.16    0.05
   4   5   7    0.37    0.06
  -5  -5  -7   14.27    0.51
  -5  -5  -7   14.34    0.48
  -5  -5  -7   15.16    0.52
   5   5   7   15.45    0.52
   5   5   7   13.96    0.52
  -6  -5  -7    5.04    0.22
  -6  -5  -7    4.85    0.18
   6   5   7    4.51    0.21
   6   5   7    4.18    0.21
  -7  -5  -7    0.37    0.05
  -7  -5  -7    0.34    0.10
   7   5   7    0.31    0.09
  -8  -5  -7    0.69    0.08
  -8  -5  -7    0.60    0.11
   8   5   7    0.67    0.13
  -9  -5  -7    2.59    0.20
  -9  -5  -7    2.18    0.15
   9   5   7    1.95    0.20
  -5   6   7    2.93    0.19
  -5   6   7    3.12    0.21
  -4   6   7    1.34    0.12
  -4   6   7    1.25    0.14
   3  -6  -7    0.07    0.09
  -3   6   7    0.04    0.08
  -3   6   7    0.01    0.05
  -3   6   7    0.02    0.07
   2  -6  -7    4.76    0.23
   2  -6  -7    4.73    0.22
  -2   6   7    5.21    0.22
  -2   6   7    4.82    0.22
  -2   6   7    4.80    0.19
   1  -6  -7    5.72    0.26
   1  -6  -7    5.98    0.24
  -1   6   7    6.07    0.25
  -1   6   7    5.91    0.24
  -1   6   7    6.08    0.22
   0  -6  -7    0.58    0.09
   0  -6  -7    0.56    0.06
   0   6   7    0.60    0.08
   0   6   7    0.57    0.07
   0   6   7    0.61    0.05
  -1  -6  -7    0.14    0.04
  -1  -6  -7    0.16    0.06
   1   6   7    0.05    0.05
   1   6   7    0.13    0.05
  -2  -6  -7    8.34    0.29
  -2  -6  -7    8.29    0.32
   2   6   7    8.38    0.32
   2   6   7    8.78    0.31
  -3  -6  -7    0.05    0.02
  -3  -6  -7    0.03    0.05
   3   6   7    0.03    0.05
   3   6   7    0.05    0.05
   3   6   7    0.04    0.05
  -4  -6  -7    0.10    0.02
  -4  -6  -7    0.08    0.02
  -4  -6  -7    0.05    0.06
   4   6   7    0.07    0.05
   4   6   7    0.10    0.05
   4   6   7    0.06    0.05
  -5  -6  -7    6.09    0.25
  -5  -6  -7    5.26    0.24
  -5  -6  -7    5.72    0.19
   5   6   7    5.53    0.24
   5   6   7    5.52    0.23
   5   6   7    5.64    0.24
  -6  -6  -7    4.96    0.18
  -6  -6  -7    5.53    0.24
   6   6   7    5.18    0.23
   6   6   7    4.87    0.23
  -7  -6  -7    1.23    0.09
  -7  -6  -7    1.44    0.15
   7   6   7    1.51    0.15
  -8  -6  -7    0.24    0.06
  -8  -6  -7    0.14    0.10
   8   6   7    0.20    0.10
  -9  -6  -7    0.76    0.09
  -9  -6  -7    0.56    0.15
   9   6   7    0.48    0.15
  -5   7   7    2.90    0.24
  -5   7   7    3.13    0.21
  -4   7   7    0.20    0.12
  -4   7   7    0.16    0.08
   3  -7  -7    0.06    0.09
   3  -7  -7    0.07    0.10
  -3   7   7    0.05    0.09
  -3   7   7    0.05    0.06
  -3   7   7    0.07    0.08
   2  -7  -7    1.15    0.12
   2  -7  -7    1.05    0.12
  -2   7   7    1.25    0.13
  -2   7   7    1.30    0.12
  -2   7   7    1.10    0.09
   1  -7  -7    6.38    0.26
   1  -7  -7    6.48    0.28
  -1   7   7    6.70    0.26
  -1   7   7    6.23    0.23
  -1   7   7    6.61    0.27
   0  -7  -7    1.58    0.10
   0   7   7    1.73    0.11
   0   7   7    1.80    0.08
   0   7   7    1.94    0.13
  -1  -7  -7    2.60    0.12
   1   7   7    2.50    0.14
   1   7   7    2.39    0.14
  -2  -7  -7   12.22    0.41
   2   7   7   12.29    0.43
   2   7   7   12.24    0.44
  -3  -7  -7    7.39    0.25
  -3  -7  -7    7.83    0.30
   3   7   7    7.21    0.28
   3   7   7    7.69    0.29
  -4  -7  -7    0.28    0.03
  -4  -7  -7    0.29    0.07
   4   7   7    0.34    0.06
   4   7   7    0.21    0.07
   4   7   7    0.20    0.06
  -5  -7  -7    3.21    0.17
  -5  -7  -7    3.04    0.17
   5   7   7    2.91    0.17
   5   7   7    2.99    0.16
   5   7   7    3.10    0.16
  -6  -7  -7    0.00    0.03
  -6  -7  -7    0.05    0.08
   6   7   7   -0.01    0.07
   6   7   7    0.02    0.08
  -7  -7  -7    5.11    0.19
  -7  -7  -7    5.03    0.24
   7   7   7    5.02    0.26
  -8  -7  -7    4.32    0.25
  -8  -7  -7    4.56    0.19
   8   7   7    4.53    0.26
  -9  -7  -7    3.43    0.25
  -9  -7  -7    3.55    0.28
  -9  -7  -7    3.26    0.17
   9   7   7    3.15    0.26
  -4   8   7    2.15    0.16
  -4   8   7    2.17    0.20
   3  -8  -7    0.42    0.12
   3  -8  -7    0.38    0.12
  -3   8   7    0.31    0.07
  -3   8   7    0.33    0.11
   2  -8  -7   12.05    0.45
  -2   8   7   11.97    0.45
  -2   8   7   11.55    0.41
  -2   8   7   11.23    0.44
   1  -8  -7    0.02    0.06
  -1   8   7    0.02    0.04
  -1   8   7    0.02    0.08
  -1   8   7   -0.01    0.07
   0  -8  -7    0.49    0.07
   0   8   7    0.51    0.04
   0   8   7    0.53    0.09
   0   8   7    0.42    0.09
  -1  -8  -7    1.75    0.10
   1   8   7    1.65    0.12
   1   8   7    1.55    0.13
  -2  -8  -7    0.02    0.04
   2   8   7   -0.01    0.06
   2   8   7    0.03    0.06
  -3  -8  -7    4.32    0.16
   3   8   7    4.51    0.20
   3   8   7    4.43    0.19
  -4  -8  -7   14.67    0.52
  -4  -8  -7   14.69    0.46
   4   8   7   13.87    0.50
   4   8   7   13.59    0.51
  -5  -8  -7    6.69    0.30
  -5  -8  -7    7.37    0.30
  -5  -8  -7    7.47    0.30
   5   8   7    7.41    0.30
   5   8   7    7.23    0.29
   5   8   7    6.82    0.29
  -6  -8  -7    0.01    0.09
  -6  -8  -7    0.04    0.08
   6   8   7   -0.03    0.07
   6   8   7    0.00    0.08
  -7  -8  -7   14.54    0.53
  -7  -8  -7   14.47    0.55
  -7  -8  -7   13.91    0.47
   7   8   7   13.92    0.54
  -8  -8  -7    0.45    0.14
  -8  -8  -7    0.35    0.06
   8   8   7    0.25    0.12
  -9  -8  -7   11.58    0.51
  -9  -8  -7   11.95    0.42
   9   8   7   11.38    0.50
  -3   9   7    0.34    0.08
  -3   9   7    0.43    0.13
   2  -9  -7   11.27    0.43
  -2   9   7   10.94    0.43
  -2   9   7   10.11    0.38
  -2   9   7   10.98    0.43
   1  -9  -7    3.42    0.18
  -1   9   7    3.11    0.13
  -1   9   7    3.19    0.19
  -1   9   7    2.81    0.18
   0  -9  -7    2.84    0.16
   0   9   7    2.93    0.17
   0   9   7    3.02    0.18
  -1  -9  -7    0.08    0.05
   1   9   7    0.15    0.07
   1   9   7    0.15    0.07
  -2  -9  -7    0.11    0.05
   2   9   7    0.15    0.07
   2   9   7    0.14    0.08
  -3  -9  -7    1.29    0.08
   3   9   7    1.26    0.11
   3   9   7    1.55    0.13
  -4  -9  -7    9.42    0.31
   4   9   7    9.05    0.35
   4   9   7    9.07    0.36
  -5  -9  -7    0.17    0.09
   5   9   7    0.08    0.08
  -6  -9  -7    8.50    0.36
   6   9   7    8.93    0.36
  -7  -9  -7    1.70    0.19
  -7  -9  -7    1.69    0.08
   7   9   7    2.05    0.18
  -8  -9  -7    1.66    0.21
   8   9   7    1.59    0.21
  -9  -9  -7    0.24    0.08
  -9  -9  -7    0.31    0.16
  -3  10   7    2.43    0.23
   2 -10  -7   -0.04    0.11
  -2  10   7    0.02    0.12
  -2  10   7    0.01    0.06
  -2  10   7    0.08    0.12
   1 -10  -7    1.13    0.12
  -1  10   7    0.97    0.07
  -1  10   7    1.04    0.13
  -1  10   7    0.88    0.12
   0 -10  -7    8.67    0.35
   0  10   7    9.04    0.37
   0  10   7    9.15    0.36
  -1 -10  -7    0.46    0.08
   1  10   7    0.52    0.15
   1  10   7    0.40    0.10
  -2 -10  -7    1.25    0.10
   2  10   7    1.20    0.13
  -3 -10  -7    2.44    0.12
   3  10   7    2.34    0.16
  -4 -10  -7    6.77    0.24
   4  10   7    6.70    0.29
  -5 -10  -7    2.28    0.10
   5  10   7    2.35    0.17
  -8 -10  -7    4.24    0.17
  -8 -10  -7    4.27    0.27
   8  10   7    4.21    0.26
   2 -11  -7    0.99    0.17
  -2  11   7    1.01    0.17
   1 -11  -7    2.82    0.20
  -1  11   7    2.65    0.11
  -1  11   7    2.96    0.23
   0 -11  -7    3.51    0.21
   0  11   7    3.97    0.23
  -1 -11  -7   12.92    0.47
   1  11   7   12.91    0.51
  -2 -11  -7   -0.01    0.06
   2  11   7    0.00    0.08
  -3 -11  -7    5.44    0.22
   3  11   7    5.24    0.27
  -4 -11  -7    7.45    0.28
   4  11   7    7.77    0.34
  -5 -11  -7    3.05    0.13
   5  11   7    3.15    0.21
   0 -12  -7    0.20    0.11
   0  12   7    0.27    0.13
  -1 -12  -7    2.91    0.19
   1  12   7    3.02    0.22
  -2 -12  -7    1.48    0.14
   2  12   7    1.46    0.17
  -3 -12  -7    1.61    0.13
   3  12   7    1.65    0.19
  -4 -12  -7    2.29    0.14
   4  12   7    2.34    0.20
  -5 -12  -7    0.41    0.07
   5  12   7    0.52    0.14
  -6 -12  -7    0.04    0.06
  -3 -13  -7    0.41    0.12
   3  13   7    0.33    0.14
  -4 -13  -7    0.04    0.08
   4  13   7    0.03    0.12
  -5 -13  -7    0.02    0.07
   5  13   7   -0.02    0.14
   3  10  -8   -0.01    0.16
   2  10  -8    0.41    0.17
   2  10  -8    0.38    0.13
  -2 -10   8    0.43    0.17
   1  10  -8    4.24    0.28
   1  10  -8    4.17    0.23
  -1 -10   8    4.25    0.29
   0  10  -8    2.52    0.25
   0  10  -8    3.20    0.20
   0 -10   8    3.70    0.29
  -1  10  -8   -0.02    0.11
   1 -10   8    0.06    0.16
   4   9  -8    3.95    0.21
  -4  -9   8    4.71    0.31
   3   9  -8    1.44    0.14
   3   9  -8    1.02    0.16
  -3  -9   8    1.25    0.17
   2   9  -8    4.41    0.22
   2   9  -8    3.89    0.27
  -2  -9   8    5.04    0.28
   1   9  -8    1.71    0.19
   1   9  -8    2.21    0.16
  -1  -9   8    2.56    0.23
   0   9  -8    0.78    0.11
   0  -9   8    1.05    0.17
  -1   9  -8    1.33    0.18
  -1   9  -8    1.90    0.16
   1  -9   8    2.18    0.22
  -2   9  -8    0.28    0.16
  -2   9  -8    0.27    0.11
   2  -9   8    0.26    0.13
  -3   9  -8    0.56    0.14
  -3   9  -8    0.38    0.16
   3  -9   8    0.54    0.18
   5   8  -8    8.67    0.34
  -5  -8   8    8.76    0.43
   4   8  -8    0.83    0.10
  -4  -8   8    0.56    0.16
   3   8  -8    2.77    0.16
   3   8  -8    2.66    0.22
  -3  -8   8    3.31    0.22
   2   8  -8    0.94    0.10
   2   8  -8    0.91    0.13
   1   8  -8    0.52    0.13
   1   8  -8    0.92    0.10
  -1  -8   8    0.74    0.13
   0   8  -8    0.44    0.12
   0   8  -8    0.68    0.10
   0  -8   8    0.48    0.13
  -1   8  -8    4.99    0.24
   1  -8   8    5.09    0.27
  -2   8  -8    2.51    0.23
  -2   8  -8    3.51    0.19
  -3   8  -8    0.76    0.15
   3  -8   8    1.01    0.17
  -4   8  -8    0.01    0.15
   4  -8   8    0.05    0.15
   5   7  -8    3.76    0.19
  -5  -7   8    3.71    0.26
   4   7  -8    1.59    0.13
  -4  -7   8    1.59    0.18
   3   7  -8    0.68    0.13
   3   7  -8    0.49    0.08
  -3  -7   8    0.55    0.13
   2   7  -8    1.53    0.16
   2   7  -8    1.63    0.12
   1   7  -8    0.03    0.06
   1   7  -8    0.02    0.08
  -1  -7   8    0.02    0.09
   0   7  -8    0.12    0.09
   0   7  -8    0.37    0.08
   0  -7   8    0.31    0.10
  -1   7  -8    0.78    0.10
  -1   7  -8    0.92    0.13
   1  -7   8    0.82    0.12
  -2   7  -8    0.36    0.12
  -2   7  -8    0.44    0.09
   2  -7   8    0.34    0.10
  -3   7  -8    0.17    0.12
   3  -7   8    0.26    0.11
  -4   7  -8    0.00    0.12
   4  -7   8    0.03    0.11
   5  -7   8    0.15    0.15
   6   6  -8    4.81    0.23
  -6  -6   8    4.77    0.30
   5   6  -8    0.36    0.08
  -5  -6   8    0.42    0.13
   4   6  -8    0.18    0.07
  -4  -6   8    0.29    0.12
   3   6  -8    2.48    0.18
   3   6  -8    2.90    0.15
  -3  -6   8    2.31    0.19
   2   6  -8    0.27    0.07
   2   6  -8    0.35    0.10
  -2  -6   8    0.38    0.10
   1   6  -8    3.81    0.21
   1   6  -8    4.36    0.19
  -1  -6   8    3.90    0.21
   0   6  -8    0.05    0.06
   0   6  -8    0.10    0.08
   0  -6   8    0.07    0.09
  -1   6  -8    0.87    0.09
  -1   6  -8    0.77    0.11
   1  -6   8    0.70    0.11
  -2   6  -8    0.05    0.08
  -2   6  -8    0.03    0.09
   2  -6   8    0.10    0.09
  -3   6  -8    1.07    0.13
   3  -6   8    1.34    0.14
   3  -6   8    1.44    0.13
   4  -6   8    1.48    0.14
   4  -6   8    1.43    0.16
   5  -6   8    2.82    0.19
   5  -6   8    2.73    0.21
   6  -6   8    0.38    0.16
   6  -6   8    0.43    0.12
   6   5  -8    1.56    0.15
  -6  -5   8    1.57    0.20
   5   5  -8    1.72    0.13
  -5  -5   8    1.50    0.17
   4   5  -8    5.66    0.24
  -4  -5   8    5.65    0.27
   3   5  -8    0.06    0.08
   3   5  -8    0.08    0.06
  -3  -5   8    0.03    0.08
   2   5  -8    1.75    0.14
   2   5  -8    1.87    0.12
  -2  -5   8    1.76    0.14
   1   5  -8    0.68    0.08
   1   5  -8    0.77    0.10
  -1  -5   8    0.83    0.11
   0   5  -8    1.30    0.10
   0   5  -8    1.05    0.11
   0  -5   8    1.09    0.13
  -1   5  -8    0.89    0.11
  -1   5  -8    0.80    0.09
   1  -5   8    1.01    0.09
   1  -5   8    1.02    0.12
  -2   5  -8    0.45    0.09
  -2   5  -8    0.34    0.09
   2  -5   8    0.34    0.07
   2  -5   8    0.27    0.08
  -3   5  -8    2.31    0.17
   3  -5   8    2.23    0.17
   3  -5   8    2.32    0.14
  -4   5  -8    3.36    0.21
   4  -5   8    3.62    0.18
   4  -5   8    3.47    0.21
  -5   5  -8    0.99    0.14
   5  -5   8    1.40    0.13
   5  -5   8    1.41    0.17
   6  -5   8    0.05    0.13
   6  -5   8    0.07    0.09
  -7  -4   8    0.55    0.19
   6   4  -8   10.42    0.40
  -6  -4   8   10.85    0.46
   5   4  -8    1.97    0.14
  -5  -4   8    2.03    0.19
   4   4  -8    0.07    0.06
  -4  -4   8    0.12    0.10
   3   4  -8    5.72    0.23
   3   4  -8    5.47    0.25
  -3  -4   8    5.50    0.26
   2   4  -8    3.29    0.15
   2   4  -8    2.85    0.17
  -2  -4   8    2.73    0.17
   1   4  -8    8.53    0.33
   1   4  -8    8.54    0.31
  -1  -4   8    8.44    0.34
  -1  -4   8    8.18    0.32
   0   4  -8   15.30    0.53
   0   4  -8   15.45    0.55
   0  -4   8   14.95    0.55
   0  -4   8   15.41    0.52
  -1   4  -8    0.08    0.05
  -1   4  -8    0.10    0.06
   1  -4   8    0.07    0.07
   1  -4   8    0.11    0.05
  -2   4  -8    8.34    0.32
   2  -4   8    7.49    0.32
   2  -4   8    7.96    0.30
  -3   4  -8    1.19    0.11
  -3   4  -8    1.05    0.13
   3  -4   8    1.03    0.10
   3  -4   8    1.18    0.13
  -4   4  -8    9.98    0.38
  -4   4  -8    9.62    0.39
   4  -4   8    9.36    0.39
   4  -4   8    9.95    0.36
  -5   4  -8    0.04    0.10
  -5   4  -8    0.12    0.09
   5  -4   8    0.09    0.06
   5  -4   8    0.08    0.09
  -6   4  -8    0.30    0.11
   6  -4   8    0.39    0.08
   6  -4   8    0.36    0.11
  -7   4  -8    0.33    0.15
   7  -4   8    0.36    0.15
   7  -4   8    0.12    0.09
   7   3  -8    4.33    0.23
   6   3  -8    3.34    0.19
  -6  -3   8    3.66    0.25
   5   3  -8    0.54    0.09
  -5  -3   8    0.50    0.12
   4   3  -8    2.15    0.14
  -4  -3   8    2.26    0.17
   3   3  -8   13.09    0.44
   3   3  -8   11.53    0.44
  -3  -3   8   11.96    0.45
   2   3  -8    2.50    0.15
   2   3  -8    2.52    0.13
  -2  -3   8    2.65    0.16
  -2  -3   8    2.36    0.14
   1   3  -8    0.75    0.08
   1   3  -8    0.82    0.09
  -1  -3   8    0.87    0.08
   0   3  -8   19.63    0.63
   0   3  -8   17.54    0.64
   0   3  -8   18.91    0.64
   0  -3   8   18.05    0.65
   0  -3   8   18.79    0.62
   0  -3   8   18.57    0.62
  -1   3  -8   29.48    0.94
  -1   3  -8   28.18    0.93
  -1   3  -8   27.75    0.95
   1  -3   8   27.92    0.95
   1  -3   8   27.16    0.93
   1  -3   8   28.64    0.93
  -2   3  -8    4.13    0.18
  -2   3  -8    4.10    0.19
  -2   3  -8    3.98    0.19
   2  -3   8    4.04    0.19
   2  -3   8    3.77    0.17
   2  -3   8    4.01    0.17
  -3   3  -8    1.78    0.12
  -3   3  -8    1.92    0.13
  -3   3  -8    1.98    0.13
   3  -3   8    1.98    0.14
  -4   3  -8    0.87    0.10
  -4   3  -8    1.04    0.12
  -4   3  -8    0.97    0.12
   4  -3   8    0.89    0.09
   4  -3   8    0.98    0.11
  -5   3  -8    4.02    0.22
  -5   3  -8    4.05    0.21
  -5   3  -8    4.01    0.21
   5  -3   8    4.06    0.18
   5  -3   8    3.94    0.21
  -6   3  -8    3.10    0.20
  -6   3  -8    2.57    0.22
   6  -3   8    3.01    0.20
   6  -3   8    3.04    0.16
  -7   3  -8    0.21    0.13
   7  -3   8    0.15    0.08
   7  -3   8    0.12    0.11
  -8   3  -8    1.27    0.19
   7   2  -8    3.00    0.20
   6   2  -8    0.55    0.10
   5   2  -8    0.41    0.08
  -5  -2   8    0.38    0.12
   4   2  -8    1.45    0.11
  -4  -2   8    1.48    0.14
  -4  -2   8    1.49    0.12
   3   2  -8   62.19    1.98
   3   2  -8   61.77    1.97
  -3  -2   8   61.54    1.97
  -3  -2   8   58.16    1.99
   2   2  -8   -0.01    0.05
   2   2  -8    0.02    0.06
  -2  -2   8   -0.01    0.06
  -2  -2   8    0.01    0.05
  -2  -2   8    0.03    0.05
   1   2  -8    1.67    0.11
   1   2  -8    1.47    0.10
   1   2  -8    1.62    0.11
  -1  -2   8    1.63    0.10
  -1  -2   8    1.50    0.09
  -1  -2   8    1.70    0.11
   0   2  -8    0.79    0.09
   0   2  -8    0.92    0.09
   0  -2   8    0.74    0.07
   0  -2   8    0.83    0.09
   0  -2   8    0.75    0.07
  -1   2  -8   21.03    0.70
  -1   2  -8   20.33    0.71
  -1   2  -8   20.49    0.69
   1  -2   8   20.68    0.69
   1  -2   8   21.20    0.69
   1  -2   8   20.93    0.71
  -2   2  -8    0.38    0.07
  -2   2  -8    0.53    0.07
  -2   2  -8    0.24    0.05
   2  -2   8    0.45    0.07
   2  -2   8    0.32    0.05
   2  -2   8    0.47    0.06
  -3   2  -8   26.85    0.90
  -3   2  -8   26.71    0.90
  -3   2  -8   28.42    0.91
   3  -2   8   26.42    0.89
   3  -2   8   27.10    0.91
   3  -2   8   26.10    0.90
  -4   2  -8    2.70    0.16
  -4   2  -8    2.87    0.16
  -4   2  -8    2.63    0.15
   4  -2   8    2.61    0.16
   4  -2   8    2.67    0.13
  -5   2  -8    3.03    0.17
  -5   2  -8    2.60    0.16
  -5   2  -8    2.71    0.16
   5  -2   8    2.68    0.13
   5  -2   8    2.76    0.17
  -6   2  -8    9.26    0.37
  -6   2  -8    8.62    0.36
   6  -2   8    9.14    0.38
   6  -2   8    9.30    0.33
  -7   2  -8   -0.01    0.09
  -7   2  -8   -0.05    0.09
   7  -2   8    0.00    0.10
   7  -2   8    0.00    0.06
  -8   2  -8    1.40    0.17
  -8   2  -8    1.18    0.24
   8  -2   8    1.52    0.13
   8  -2   8    1.55    0.19
   7   1  -8    1.76    0.18
   6   1  -8    5.63    0.25
  -6  -1   8    4.96    0.25
   5   1  -8    1.74    0.14
  -5  -1   8    1.85    0.15
   4   1  -8    3.29    0.17
  -4  -1   8    3.49    0.19
  -4  -1   8    3.41    0.17
   3   1  -8    0.89    0.10
   3   1  -8    0.99    0.10
  -3  -1   8    0.92    0.10
  -3  -1   8    0.88    0.09
  -3  -1   8    1.02    0.11
   2   1  -8   19.99    0.67
   2   1  -8   19.90    0.68
  -2  -1   8   19.30    0.66
  -2  -1   8   20.32    0.67
  -2  -1   8   19.58    0.68
   1   1  -8    0.60    0.07
   1   1  -8    0.73    0.09
   1   1  -8    0.73    0.09
  -1  -1   8    0.73    0.08
  -1  -1   8    0.63    0.07
  -1  -1   8    0.59    0.07
   0   1  -8   11.65    0.39
   0   1  -8   11.47    0.39
   0   1  -8   11.69    0.40
   0  -1   8   10.81    0.39
   0  -1   8   10.51    0.38
   0  -1   8   10.63    0.40
  -1   1  -8    0.13    0.05
  -1   1  -8    0.22    0.05
   1  -1   8    0.22    0.05
   1  -1   8    0.20    0.04
   1  -1   8    0.17    0.05
  -2   1  -8    0.23    0.05
  -2   1  -8    0.15    0.05
   2  -1   8    0.17    0.05
   2  -1   8    0.19    0.04
   2  -1   8    0.12    0.05
  -3   1  -8    2.29    0.13
  -3   1  -8    2.33    0.12
  -3   1  -8    2.20    0.13
   3  -1   8    2.32    0.13
   3  -1   8    2.24    0.12
  -4   1  -8   13.26    0.49
  -4   1  -8   14.71    0.50
  -4   1  -8   13.93    0.49
   4  -1   8   13.43    0.50
   4  -1   8   13.28    0.49
   4  -1   8   14.55    0.47
  -5   1  -8    0.95    0.10
  -5   1  -8    0.68    0.08
  -5   1  -8    0.76    0.10
   5  -1   8    0.80    0.07
   5  -1   8    0.66    0.09
  -6   1  -8    0.30    0.08
  -6   1  -8    0.40    0.09
   6  -1   8    0.32    0.09
   6  -1   8    0.39    0.06
  -7   1  -8    3.48    0.20
  -7   1  -8    3.23    0.20
   7  -1   8    3.62    0.23
   7  -1   8    3.55    0.16
  -8   1  -8    0.21    0.12
  -8   1  -8    0.20    0.13
   8  -1   8    0.22    0.06
   8  -1   8    0.25    0.12
   7   0  -8    1.31    0.16
  -7   0   8    1.24    0.18
   6   0  -8   19.93    0.70
  -6   0   8   19.90    0.71
   5   0  -8    1.73    0.14
  -5   0   8    1.63    0.15
   4   0  -8   18.19    0.62
  -4   0   8   17.66    0.63
   3   0  -8    0.18    0.07
   3   0  -8    0.24    0.07
  -3   0   8    0.25    0.07
  -3   0   8    0.17    0.06
  -3   0   8    0.21    0.07
   2   0  -8    6.80    0.26
   2   0  -8    6.54    0.26
   2   0  -8    6.49    0.25
  -2   0   8    6.63    0.25
  -2   0   8    6.72    0.26
  -2   0   8    6.38    0.25
   1   0  -8    4.49    0.19
   1   0  -8    4.35    0.18
   1   0  -8    4.47    0.18
  -1   0   8    4.19    0.18
  -1   0   8    3.93    0.17
  -1   0   8    3.91    0.16
   0   0  -8    9.21    0.33
   0   0  -8    9.03    0.31
   0   0  -8    8.27    0.31
   0   0   8    8.93    0.31
   0   0   8    8.58    0.30
   0   0   8    8.59    0.32
  -1   0  -8    9.80    0.35
  -1   0  -8    9.92    0.36
   1   0   8    9.66    0.35
   1   0   8    9.77    0.33
   1   0   8    9.80    0.35
  -2   0  -8    0.05    0.05
  -2   0  -8    0.03    0.04
   2   0   8    0.06    0.04
   2   0   8    0.07    0.04
   2   0   8    0.02    0.03
  -3   0  -8    0.42    0.06
  -3   0  -8    0.27    0.06
  -3   0  -8    0.30    0.06
   3   0   8    0.30    0.06
   3   0   8    0.30    0.05
   3   0   8    0.43    0.04
  -4   0  -8   16.57    0.56
  -4   0  -8   16.22    0.56
  -4   0  -8   15.95    0.57
   4   0   8   16.24    0.54
   4   0   8   16.25    0.56
   4   0   8   16.09    0.57
  -5   0  -8    1.43    0.12
  -5   0  -8    1.52    0.12
  -5   0  -8    1.40    0.11
   5   0   8    1.54    0.12
   5   0   8    1.34    0.08
  -6   0  -8    5.76    0.25
  -6   0  -8    5.76    0.26
   6   0   8    5.75    0.27
   6   0   8    5.72    0.21
  -7   0  -8   14.64    0.54
  -7   0  -8   14.72    0.52
   7   0   8   14.20    0.54
   7   0   8   13.33    0.47
  -8   0  -8    1.95    0.18
  -8   0  -8    2.06    0.18
   8   0   8    2.03    0.18
   8   0   8    1.93    0.11
  -9   0  -8    0.44    0.14
   9   0   8    0.42    0.06
   7  -1  -8    6.87    0.33
  -7   1   8    7.21    0.36
   6  -1  -8    1.16    0.13
  -6   1   8    1.02    0.14
   5  -1  -8    1.59    0.15
  -5   1   8    1.35    0.13
   4  -1  -8    2.49    0.24
  -4   1   8    2.83    0.17
  -4   1   8    3.05    0.15
   3  -1  -8    2.76    0.15
  -3   1   8    3.01    0.14
  -3   1   8    2.66    0.15
   2  -1  -8    0.55    0.07
   2  -1  -8    0.60    0.08
  -2   1   8    0.67    0.07
  -2   1   8    0.64    0.08
  -2   1   8    0.57    0.07
   1  -1  -8    6.23    0.24
   1  -1  -8    6.28    0.24
  -1   1   8    5.48    0.23
  -1   1   8    6.04    0.23
  -1   1   8    5.84    0.22
   0  -1  -8    2.79    0.13
   0  -1  -8    2.47    0.13
   0   1   8    2.70    0.12
   0   1   8    2.48    0.12
   0   1   8    2.49    0.11
  -1  -1  -8    0.53    0.06
  -1  -1  -8    0.45    0.06
   1   1   8    0.38    0.05
   1   1   8    0.51    0.06
   1   1   8    0.45    0.04
  -2  -1  -8    0.28    0.04
  -2  -1  -8    0.22    0.05
   2   1   8    0.20    0.05
   2   1   8    0.18    0.04
   2   1   8    0.20    0.03
  -3  -1  -8    1.31    0.08
  -3  -1  -8    1.11    0.10
   3   1   8    1.26    0.09
   3   1   8    1.46    0.07
   3   1   8    1.61    0.10
  -4  -1  -8    2.56    0.12
  -4  -1  -8    2.81    0.14
  -4  -1  -8    2.24    0.13
   4   1   8    2.33    0.14
   4   1   8    2.66    0.10
   4   1   8    2.33    0.13
  -5  -1  -8    1.61    0.10
  -5  -1  -8    1.40    0.12
  -5  -1  -8    1.62    0.12
   5   1   8    1.44    0.11
   5   1   8    1.54    0.12
   5   1   8    1.51    0.07
  -6  -1  -8    0.63    0.09
  -6  -1  -8    0.44    0.07
   6   1   8    0.53    0.05
   6   1   8    0.53    0.09
  -7  -1  -8    2.79    0.17
  -7  -1  -8    3.16    0.19
   7   1   8    2.77    0.19
   7   1   8    2.94    0.11
  -8  -1  -8    3.86    0.23
  -8  -1  -8    3.65    0.21
   8   1   8    3.89    0.23
  -9  -1  -8    0.10    0.11
  -9  -1  -8    0.06    0.13
   9   1   8    0.07    0.15
  -6   2   8    1.77    0.19
  -5   2   8    1.99    0.17
  -4   2   8    0.00    0.07
  -4   2   8    0.01    0.06
   3  -2  -8    1.88    0.13
  -3   2   8    1.94    0.11
  -3   2   8    1.71    0.13
   2  -2  -8    0.00    0.05
   2  -2  -8    0.02    0.05
  -2   2   8    0.03    0.06
  -2   2   8   -0.01    0.04
   1  -2  -8    5.66    0.23
   1  -2  -8    5.96    0.23
  -1   2   8    5.53    0.22
  -1   2   8    5.55    0.21
  -1   2   8    5.57    0.21
   0  -2  -8   54.41    1.79
   0  -2  -8   56.19    1.78
   0   2   8   56.07    1.79
   0   2   8   55.28    1.78
   0   2   8   54.08    1.77
  -1  -2  -8    0.35    0.05
  -1  -2  -8    0.24    0.05
   1   2   8    0.31    0.05
   1   2   8    0.34    0.03
   1   2   8    0.30    0.05
  -2  -2  -8    1.31    0.08
  -2  -2  -8    1.41    0.10
   2   2   8    1.21    0.09
   2   2   8    1.54    0.07
   2   2   8    1.28    0.08
   2   2   8    1.34    0.06
  -3  -2  -8   21.36    0.71
  -3  -2  -8   20.74    0.73
   3   2   8   23.27    0.69
   3   2   8   21.47    0.69
   3   2   8   20.65    0.72
   3   2   8   21.55    0.73
  -4  -2  -8    2.88    0.15
  -4  -2  -8    3.30    0.16
  -4  -2  -8    3.17    0.13
   4   2   8    3.25    0.15
   4   2   8    3.15    0.16
  -5  -2  -8    8.15    0.29
  -5  -2  -8    7.52    0.30
  -5  -2  -8    7.29    0.28
   5   2   8    7.46    0.30
   5   2   8    7.41    0.30
  -6  -2  -8    8.33    0.34
  -6  -2  -8    8.00    0.31
   6   2   8    8.83    0.34
  -7  -2  -8   15.10    0.57
  -7  -2  -8   14.86    0.54
   7   2   8   16.24    0.57
  -8  -2  -8    5.95    0.26
   8   2   8    6.20    0.31
  -9  -2  -8    2.82    0.20
  -9  -2  -8    2.93    0.22
   9   2   8    2.86    0.23
  -6   3   8    0.37    0.12
  -5   3   8    2.67    0.16
  -5   3   8    2.36    0.18
  -4   3   8    0.67    0.09
  -4   3   8    0.43    0.09
   3  -3  -8   12.73    0.51
   3  -3  -8   13.41    0.48
  -3   3   8   13.10    0.48
  -3   3   8   14.09    0.47
   2  -3  -8    0.96    0.09
   2  -3  -8    0.89    0.10
  -2   3   8    0.90    0.09
  -2   3   8    0.98    0.08
   1  -3  -8    3.27    0.16
   1  -3  -8    3.26    0.15
  -1   3   8    3.07    0.13
  -1   3   8    3.45    0.16
   0  -3  -8    2.00    0.12
   0  -3  -8    2.04    0.10
   0   3   8    1.77    0.12
   0   3   8    1.84    0.11
   0   3   8    1.84    0.09
  -1  -3  -8   14.03    0.47
  -1  -3  -8   14.21    0.49
   1   3   8   14.33    0.47
   1   3   8   14.11    0.46
   1   3   8   12.74    0.48
  -2  -3  -8    0.07    0.03
  -2  -3  -8    0.07    0.05
   2   3   8    0.15    0.05
   2   3   8    0.14    0.02
   2   3   8    0.10    0.04
   2   3   8    0.11    0.02
  -3  -3  -8    0.03    0.03
  -3  -3  -8    0.02    0.04
   3   3   8    0.03    0.05
  -4  -3  -8   16.83    0.58
  -4  -3  -8   16.29    0.56
   4   3   8   16.85    0.58
   4   3   8   17.26    0.58
  -5  -3  -8   10.50    0.40
  -5  -3  -8   10.83    0.39
  -5  -3  -8   10.29    0.37
   5   3   8   10.43    0.39
   5   3   8   10.82    0.40
  -6  -3  -8    0.41    0.06
  -6  -3  -8    0.49    0.09
   6   3   8    0.43    0.09
   6   3   8    0.51    0.09
  -7  -3  -8    0.02    0.05
  -7  -3  -8   -0.03    0.08
   7   3   8   -0.02    0.08
  -8  -3  -8    0.05    0.09
  -8  -3  -8    0.02    0.07
   8   3   8    0.03    0.10
  -9  -3  -8    3.81    0.27
  -9  -3  -8    4.07    0.22
   9   3   8    4.17    0.26
  -6   4   8    1.37    0.20
  -5   4   8    0.09    0.11
  -5   4   8    0.01    0.08
  -4   4   8    0.03    0.08
  -4   4   8    0.08    0.06
   3  -4  -8    0.01    0.08
   3  -4  -8    0.05    0.07
  -3   4   8    0.02    0.06
  -3   4   8    0.00    0.05
   2  -4  -8    4.37    0.21
   2  -4  -8    4.35    0.20
  -2   4   8    4.76    0.20
  -2   4   8    4.46    0.18
   1  -4  -8   13.83    0.47
   1  -4  -8   13.42    0.48
  -1   4   8   13.53    0.45
  -1   4   8   12.92    0.47
   0  -4  -8   22.04    0.74
   0  -4  -8   22.10    0.75
   0   4   8   21.78    0.75
   0   4   8   22.52    0.72
  -1  -4  -8    7.69    0.30
  -1  -4  -8    8.30    0.29
   1   4   8    7.94    0.27
   1   4   8    8.31    0.27
   1   4   8    7.74    0.30
  -2  -4  -8    6.80    0.25
  -2  -4  -8    6.78    0.27
   2   4   8    7.24    0.25
   2   4   8    6.86    0.26
  -3  -4  -8    1.48    0.07
  -3  -4  -8    1.30    0.10
   3   4   8    1.61    0.10
   3   4   8    1.37    0.10
  -4  -4  -8    3.42    0.17
  -4  -4  -8    3.65    0.14
   4   4   8    3.54    0.16
   4   4   8    3.53    0.16
  -5  -4  -8    0.32    0.04
  -5  -4  -8    0.38    0.07
  -5  -4  -8    0.28    0.07
   5   4   8    0.20    0.07
   5   4   8    0.22    0.06
  -6  -4  -8    5.67    0.25
  -6  -4  -8    5.83    0.22
   6   4   8    5.77    0.26
   6   4   8    5.51    0.25
  -7  -4  -8    0.02    0.09
  -7  -4  -8    0.04    0.05
   7   4   8    0.05    0.08
  -8  -4  -8    0.07    0.07
  -8  -4  -8    0.07    0.11
   8   4   8    0.01    0.09
  -9  -4  -8    0.93    0.16
  -9  -4  -8    1.17    0.14
   9   4   8    1.00    0.15
  -5   5   8    0.10    0.12
  -5   5   8    0.18    0.09
  -4   5   8    0.00    0.09
  -4   5   8   -0.02    0.06
   3  -5  -8    5.72    0.26
   3  -5  -8    6.06    0.26
  -3   5   8    5.61    0.23
  -3   5   8    5.44    0.25
   2  -5  -8    8.17    0.33
   2  -5  -8    7.73    0.32
  -2   5   8    8.57    0.32
  -2   5   8    8.41    0.30
  -2   5   8    8.33    0.33
   1  -5  -8   18.46    0.63
   1  -5  -8   18.15    0.62
  -1   5   8   17.84    0.60
  -1   5   8   17.92    0.63
  -1   5   8   17.70    0.62
   0  -5  -8   14.13    0.50
   0  -5  -8   13.65    0.48
   0   5   8   14.56    0.50
   0   5   8   14.01    0.46
   0   5   8   13.50    0.49
  -1  -5  -8    0.06    0.05
  -1  -5  -8    0.05    0.04
   1   5   8    0.04    0.02
   1   5   8    0.05    0.05
   1   5   8    0.01    0.04
   1   5   8    0.04    0.02
  -2  -5  -8   24.16    0.78
  -2  -5  -8   23.71    0.81
   2   5   8   24.55    0.80
   2   5   8   23.43    0.81
  -3  -5  -8   16.13    0.54
  -3  -5  -8   15.91    0.57
   3   5   8   16.27    0.57
   3   5   8   16.89    0.57
   3   5   8   16.76    0.56
  -4  -5  -8   22.60    0.74
  -4  -5  -8   20.69    0.70
   4   5   8   21.64    0.73
   4   5   8   21.72    0.73
  -5  -5  -8    2.17    0.14
  -5  -5  -8    2.56    0.15
  -5  -5  -8    2.43    0.10
   5   5   8    2.19    0.14
   5   5   8    2.39    0.14
  -6  -5  -8    2.42    0.11
  -6  -5  -8    2.33    0.15
   6   5   8    2.30    0.16
   6   5   8    2.23    0.14
  -7  -5  -8    0.92    0.12
  -7  -5  -8    0.91    0.08
   7   5   8    0.90    0.12
  -8  -5  -8    5.48    0.23
  -8  -5  -8    5.29    0.27
   8   5   8    5.33    0.27
  -9  -5  -8    0.06    0.08
  -9  -5  -8    0.05    0.11
   9   5   8    0.06    0.12
  -5   6   8    3.15    0.20
  -5   6   8    2.87    0.22
  -4   6   8    0.03    0.07
  -4   6   8    0.07    0.09
   3  -6  -8    0.36    0.11
   3  -6  -8    0.37    0.10
  -3   6   8    0.25    0.09
  -3   6   8    0.41    0.07
  -3   6   8    0.42    0.09
   2  -6  -8    2.63    0.16
   2  -6  -8    2.47    0.17
  -2   6   8    2.58    0.15
  -2   6   8    2.75    0.13
  -2   6   8    2.44    0.15
   1  -6  -8   73.48    2.42
  -1   6   8   73.41    2.38
  -1   6   8   75.49    2.41
  -1   6   8   75.27    2.42
   0  -6  -8    7.85    0.31
   0  -6  -8    7.75    0.29
   0   6   8    7.41    0.29
   0   6   8    7.44    0.30
   0   6   8    7.70    0.26
  -1  -6  -8    1.06    0.10
  -1  -6  -8    0.87    0.07
   1   6   8    1.01    0.09
   1   6   8    1.04    0.10
  -2  -6  -8    2.59    0.15
   2   6   8    2.37    0.13
   2   6   8    2.53    0.14
  -3  -6  -8    3.06    0.16
  -3  -6  -8    2.83    0.11
   3   6   8    2.81    0.14
   3   6   8    2.57    0.14
  -4  -6  -8    1.35    0.07
  -4  -6  -8    1.42    0.12
   4   6   8    1.38    0.11
   4   6   8    1.46    0.10
   4   6   8    1.47    0.11
  -5  -6  -8   43.55    1.38
  -5  -6  -8   41.35    1.38
  -5  -6  -8   42.08    1.33
   5   6   8   41.02    1.38
   5   6   8   40.24    1.37
  -6  -6  -8    4.17    0.21
  -6  -6  -8    3.72    0.15
   6   6   8    3.74    0.20
   6   6   8    3.80    0.20
  -7  -6  -8    1.54    0.14
  -7  -6  -8    1.54    0.09
   7   6   8    1.55    0.15
  -8  -6  -8    9.28    0.40
  -8  -6  -8    9.51    0.34
   8   6   8    8.73    0.39
  -9  -6  -8    0.18    0.13
  -9  -6  -8    0.14    0.08
   9   6   8    0.04    0.14
  -4   7   8    2.98    0.18
  -4   7   8    3.06    0.21
   3  -7  -8    1.84    0.19
   3  -7  -8    1.82    0.19
  -3   7   8    1.94    0.12
  -3   7   8    1.65    0.15
   2  -7  -8    0.83    0.12
   2  -7  -8    0.76    0.11
  -2   7   8    0.97    0.09
  -2   7   8    0.85    0.11
  -2   7   8    0.98    0.12
   1  -7  -8    3.08    0.17
   1  -7  -8    3.24    0.19
  -1   7   8    3.44    0.14
  -1   7   8    3.35    0.18
  -1   7   8    3.36    0.18
   0  -7  -8    0.14    0.08
   0  -7  -8    0.19    0.05
   0   7   8    0.19    0.03
   0   7   8    0.20    0.07
   0   7   8    0.16    0.07
  -1  -7  -8    9.18    0.35
  -1  -7  -8    8.72    0.32
   1   7   8    8.68    0.33
   1   7   8    8.73    0.34
  -2  -7  -8    0.02    0.06
  -2  -7  -8    0.04    0.03
   2   7   8    0.01    0.06
   2   7   8    0.02    0.05
  -3  -7  -8    1.05    0.07
  -3  -7  -8    1.10    0.11
   3   7   8    0.82    0.10
   3   7   8    1.02    0.10
  -4  -7  -8    3.84    0.14
  -4  -7  -8    4.14    0.20
   4   7   8    3.70    0.19
   4   7   8    3.90    0.18
  -5  -7  -8    3.05    0.11
  -5  -7  -8    2.89    0.17
   5   7   8    2.81    0.16
   5   7   8    3.12    0.16
   5   7   8    2.89    0.17
  -6  -7  -8    4.22    0.15
  -6  -7  -8    3.99    0.22
   6   7   8    4.25    0.22
   6   7   8    4.22    0.21
  -7  -7  -8    2.72    0.19
  -7  -7  -8    2.43    0.11
   7   7   8    2.51    0.18
   7   7   8    2.61    0.19
  -8  -7  -8    0.10    0.06
  -8  -7  -8    0.11    0.12
   8   7   8    0.07    0.10
  -9  -7  -8    1.43    0.13
  -9  -7  -8    1.31    0.18
   9   7   8    1.51    0.20
  -4   8   8    7.85    0.34
  -4   8   8    7.95    0.37
  -3   8   8    0.12    0.07
  -3   8   8    0.04    0.11
   2  -8  -8   18.54    0.67
   2  -8  -8   18.25    0.65
  -2   8   8   17.62    0.65
  -2   8   8   17.87    0.61
  -2   8   8   18.88    0.66
   1  -8  -8    0.43    0.08
   1  -8  -8    0.37    0.10
  -1   8   8    0.32    0.09
  -1   8   8    0.42    0.10
  -1   8   8    0.37    0.05
   0  -8  -8    0.67    0.10
   0  -8  -8    0.64    0.08
   0   8   8    0.65    0.04
   0   8   8    0.66    0.09
   0   8   8    0.69    0.10
  -1  -8  -8    3.28    0.16
  -1  -8  -8    3.66    0.20
   1   8   8    3.48    0.19
   1   8   8    3.08    0.17
  -2  -8  -8    4.07    0.16
  -2  -8  -8    3.88    0.21
   2   8   8    3.88    0.20
   2   8   8    3.72    0.18
  -3  -8  -8    0.03    0.03
  -3  -8  -8    0.01    0.07
   3   8   8   -0.01    0.07
   3   8   8    0.01    0.06
  -4  -8  -8    0.09    0.08
  -4  -8  -8    0.10    0.03
   4   8   8    0.06    0.07
   4   8   8    0.05    0.06
  -5  -8  -8    0.03    0.08
   5   8   8    0.04    0.06
   5   8   8    0.00    0.07
  -6  -8  -8    4.44    0.23
   6   8   8    4.31    0.23
   6   8   8    4.42    0.22
  -7  -8  -8    0.31    0.04
  -7  -8  -8    0.40    0.11
   7   8   8    0.37    0.11
   7   8   8    0.28    0.11
  -8  -8  -8    5.46    0.28
  -8  -8  -8    5.23    0.30
  -8  -8  -8    5.53    0.21
   8   8   8    5.76    0.29
  -9  -8  -8   -0.03    0.16
  -9  -8  -8    0.01    0.07
   9   8   8   -0.04    0.13
  -3   9   8    0.01    0.13
  -3   9   8    0.01    0.07
   2  -9  -8    8.12    0.35
   2  -9  -8    8.14    0.37
  -2   9   8    7.19    0.29
  -2   9   8    8.51    0.36
  -2   9   8    7.68    0.34
   1  -9  -8    0.24    0.08
   1  -9  -8    0.18    0.10
  -1   9   8    0.13    0.09
  -1   9   8    0.22    0.05
  -1   9   8    0.13    0.09
   0  -9  -8    0.33    0.08
   0   9   8    0.17    0.08
   0   9   8    0.36    0.09
  -1  -9  -8    8.23    0.32
   1   9   8    8.22    0.34
   1   9   8    8.95    0.34
  -2  -9  -8    6.71    0.26
   2   9   8    6.64    0.27
   2   9   8    7.02    0.30
  -3  -9  -8   -0.02    0.09
  -3  -9  -8    0.00    0.04
   3   9   8    0.02    0.07
   3   9   8    0.03    0.07
  -4  -9  -8    0.19    0.04
  -4  -9  -8    0.21    0.09
   4   9   8    0.15    0.08
   4   9   8    0.18    0.08
  -5  -9  -8    6.48    0.29
   5   9   8    6.27    0.28
   5   9   8    6.43    0.28
   6   9   8    1.43    0.15
  -7  -9  -8    0.03    0.12
   7   9   8   -0.04    0.11
  -8  -9  -8    0.11    0.05
  -8  -9  -8    0.19    0.15
   8   9   8    0.11    0.14
   2 -10  -8    0.36    0.15
   2 -10  -8    0.55    0.13
  -2  10   8    0.41    0.13
  -2  10   8    0.64    0.15
  -2  10   8    0.44    0.07
   1 -10  -8    3.06    0.20
  -1  10   8    3.28    0.22
  -1  10   8    3.03    0.21
  -1  10   8    2.97    0.12
   0 -10  -8    0.13    0.07
   0  10   8    0.14    0.10
   0  10   8    0.11    0.09
  -1 -10  -8    0.59    0.08
   1  10   8    0.47    0.10
   1  10   8    0.58    0.10
  -2 -10  -8    3.10    0.16
   2  10   8    3.28    0.18
   2  10   8    3.25    0.20
  -3 -10  -8    0.03    0.05
   3  10   8   -0.01    0.08
  -4 -10  -8   -0.01    0.10
  -4 -10  -8    0.01    0.04
   4  10   8    0.03    0.08
  -5 -10  -8    0.13    0.04
  -5 -10  -8    0.10    0.10
   5  10   8    0.16    0.09
   1 -11  -8    0.21    0.12
  -1  11   8    0.12    0.13
   0 -11  -8    0.59    0.10
   0  11   8    0.86    0.14
  -1 -11  -8    4.38    0.22
   1  11   8    4.61    0.26
  -2 -11  -8    0.51    0.08
   2  11   8    0.54    0.11
  -3 -11  -8    4.50    0.19
   3  11   8    4.30    0.25
  -4 -11  -8    0.30    0.06
   4  11   8    0.20    0.10
  -5 -11  -8    3.33    0.24
  -5 -11  -8    3.52    0.14
   5  11   8    3.44    0.22
  -1 -12  -8    1.32    0.15
   1  12   8    1.48    0.18
  -2 -12  -8    5.11    0.24
   2  12   8    5.52    0.29
  -3 -12  -8    3.23    0.17
   3  12   8    3.10    0.22
  -4 -12  -8    6.05    0.25
   4  12   8    6.59    0.32
  -5 -12  -8    1.03    0.18
  -5 -12  -8    0.78    0.08
   5  12   8    0.61    0.15
  -6 -12  -8    1.24    0.09
   3   9  -9    0.07    0.16
   2   9  -9    1.41    0.16
   2   9  -9    0.88    0.17
  -2  -9   9    1.45    0.20
   1   9  -9    1.99    0.24
   1   9  -9    2.40    0.18
  -1  -9   9    2.74    0.26
   0   9  -9    0.10    0.15
   0   9  -9    0.04    0.10
   0  -9   9    0.00    0.15
  -1   9  -9    0.61    0.12
  -1   9  -9    0.47    0.16
   1  -9   9    0.66    0.17
  -2   9  -9    1.31    0.16
   2  -9   9    0.94    0.17
   4   8  -9    0.33    0.10
  -4  -8   9    0.31    0.15
   3   8  -9    0.07    0.13
   3   8  -9    0.03    0.09
  -3  -8   9    0.17    0.13
   2   8  -9    1.43    0.14
   2   8  -9    1.41    0.18
  -2  -8   9    1.80    0.21
   1   8  -9    1.16    0.12
   1   8  -9    0.88    0.16
  -1  -8   9    1.08    0.17
   0   8  -9    0.65    0.11
   0   8  -9    0.69    0.15
   0  -8   9    0.76    0.15
  -1   8  -9    0.16    0.12
  -1   8  -9    0.27    0.10
   1  -8   9    0.21    0.12
  -2   8  -9    1.11    0.13
  -3   8  -9    0.05    0.16
   3  -8   9    0.06    0.15
   5   7  -9    0.14    0.10
  -5  -7   9    0.14    0.16
   4   7  -9    0.37    0.09
  -4  -7   9    0.38    0.15
   3   7  -9    0.00    0.10
   3   7  -9   -0.03    0.07
  -3  -7   9   -0.01    0.10
   2   7  -9    3.05    0.17
   2   7  -9    2.66    0.21
  -2  -7   9    3.40    0.23
   1   7  -9    0.26    0.08
   1   7  -9    0.24    0.12
  -1  -7   9    0.25    0.11
   0   7  -9    3.19    0.18
   0   7  -9    2.47    0.21
   0  -7   9    3.06    0.21
  -1   7  -9    5.09    0.28
  -1   7  -9    5.73    0.26
   1  -7   9    5.72    0.29
  -2   7  -9    0.04    0.11
   2  -7   9    0.13    0.10
  -3   7  -9    0.24    0.14
   3  -7   9    0.10    0.11
  -4   7  -9    0.03    0.14
   4  -7   9    0.06    0.12
   5   6  -9   11.56    0.43
  -5  -6   9   11.28    0.50
   4   6  -9    6.60    0.28
  -4  -6   9    6.48    0.32
   3   6  -9    4.12    0.24
   3   6  -9    4.24    0.20
   2   6  -9    1.30    0.15
   2   6  -9    1.18    0.12
   1   6  -9    4.81    0.22
   1   6  -9    4.78    0.25
  -1  -6   9    5.04    0.25
   0   6  -9    1.62    0.13
   0   6  -9    1.60    0.16
   0  -6   9    1.49    0.15
  -1   6  -9    3.24    0.18
  -1   6  -9    3.22    0.20
   1  -6   9    3.71    0.22
  -2   6  -9    2.48    0.20
   2  -6   9    2.75    0.20
  -3   6  -9    4.02    0.25
   3  -6   9    4.05    0.24
   3  -6   9    4.63    0.21
  -4   6  -9    1.60    0.18
   4  -6   9    1.78    0.18
   4  -6   9    1.86    0.16
  -5   6  -9    0.82    0.17
   5  -6   9    1.06    0.13
   5  -6   9    0.83    0.17
   6   5  -9    0.30    0.12
  -6  -5   9    0.39    0.17
   5   5  -9    2.61    0.17
  -5  -5   9    2.65    0.24
   4   5  -9    6.27    0.26
  -4  -5   9    5.55    0.30
   3   5  -9    1.84    0.16
   3   5  -9    1.62    0.13
  -3  -5   9    1.66    0.16
   2   5  -9   29.74    1.01
   2   5  -9   29.79    1.03
  -2  -5   9   31.24    1.05
   1   5  -9    1.25    0.11
   1   5  -9    0.96    0.12
  -1  -5   9    1.13    0.13
   0   5  -9    9.84    0.36
   0   5  -9    9.01    0.38
   0  -5   9    9.97    0.39
  -1   5  -9    1.69    0.16
  -1   5  -9    1.95    0.14
   1  -5   9    2.03    0.13
   1  -5   9    1.80    0.16
  -2   5  -9   10.89    0.43
   2  -5   9   10.81    0.43
  -3   5  -9    0.05    0.08
   3  -5   9    0.00    0.06
   3  -5   9   -0.03    0.09
  -4   5  -9    2.09    0.19
   4  -5   9    2.48    0.15
   4  -5   9    2.16    0.18
  -5   5  -9    1.51    0.18
   5  -5   9    1.29    0.15
   5  -5   9    1.30    0.17
   6  -5   9    0.77    0.15
   6  -5   9    0.69    0.11
   6   4  -9    1.82    0.17
  -6  -4   9    1.91    0.21
   5   4  -9    1.06    0.12
  -5  -4   9    0.77    0.15
   4   4  -9    0.39    0.08
  -4  -4   9    0.55    0.11
   3   4  -9    0.07    0.09
   3   4  -9    0.00    0.06
  -3  -4   9    0.00    0.09
   2   4  -9   24.54    0.82
   2   4  -9   24.09    0.84
  -2  -4   9   24.61    0.85
   1   4  -9    1.96    0.15
   1   4  -9    1.95    0.13
  -1  -4   9    1.91    0.14
   0   4  -9    0.01    0.06
   0   4  -9    0.02    0.07
   0  -4   9    0.05    0.08
   0  -4   9   -0.01    0.06
  -1   4  -9    3.64    0.20
   1  -4   9    3.97    0.17
   1  -4   9    3.75    0.20
  -2   4  -9    1.37    0.14
   2  -4   9    1.33    0.11
  -3   4  -9    0.93    0.11
   3  -4   9    0.85    0.12
  -4   4  -9    0.22    0.10
   4  -4   9    0.12    0.06
   4  -4   9    0.17    0.09
  -5   4  -9    0.56    0.13
  -5   4  -9    0.43    0.17
   5  -4   9    0.49    0.09
   5  -4   9    0.41    0.12
  -6   4  -9    0.15    0.12
   6  -4   9    0.14    0.08
   6  -4   9    0.15    0.11
  -7   4  -9    2.81    0.25
   7  -4   9    2.60    0.23
   6   3  -9    0.17    0.10
   5   3  -9   15.26    0.55
  -5  -3   9   15.55    0.59
   4   3  -9    1.44    0.14
  -4  -3   9    1.37    0.15
   3   3  -9    0.16    0.07
   3   3  -9    0.04    0.08
  -3  -3   9    0.08    0.09
   2   3  -9    0.40    0.08
   2   3  -9    0.56    0.08
  -2  -3   9    0.27    0.08
   1   3  -9    5.87    0.24
   1   3  -9    5.47    0.26
  -1  -3   9    6.05    0.26
  -1  -3   9    6.39    0.24
   0   3  -9    1.06    0.10
   0   3  -9    1.34    0.12
   0  -3   9    1.28    0.12
   0  -3   9    1.13    0.09
  -1   3  -9    0.02    0.07
  -1   3  -9    0.00    0.07
   1  -3   9    0.02    0.04
   1  -3   9    0.01    0.06
  -2   3  -9    0.27    0.07
  -2   3  -9    0.21    0.07
  -2   3  -9    0.15    0.08
   2  -3   9    0.12    0.07
   2  -3   9    0.16    0.06
   2  -3   9    0.16    0.05
  -3   3  -9    2.41    0.16
  -3   3  -9    2.60    0.16
  -3   3  -9    2.75    0.16
   3  -3   9    2.28    0.15
  -4   3  -9    0.02    0.08
  -4   3  -9    0.03    0.07
  -4   3  -9    0.07    0.08
   4  -3   9    0.02    0.07
   4  -3   9    0.05    0.05
  -5   3  -9    1.19    0.13
  -5   3  -9    1.44    0.15
   5  -3   9    1.20    0.11
   5  -3   9    1.19    0.15
  -6   3  -9    0.06    0.09
   6  -3   9    0.04    0.10
   6  -3   9    0.10    0.07
  -7   3  -9    5.95    0.31
   7  -3   9    5.90    0.32
   7  -3   9    5.86    0.25
   6   2  -9    1.03    0.13
   5   2  -9    3.86    0.20
   4   2  -9    4.24    0.20
  -4  -2   9    4.03    0.23
   3   2  -9    4.39    0.20
   3   2  -9    4.79    0.22
  -3  -2   9    4.18    0.22
   2   2  -9    0.01    0.07
   2   2  -9    0.01    0.06
  -2  -2   9    0.03    0.06
  -2  -2   9   -0.02    0.07
  -2  -2   9    0.03    0.05
   1   2  -9    2.85    0.15
   1   2  -9    2.85    0.15
  -1  -2   9    2.75    0.13
  -1  -2   9    2.69    0.16
  -1  -2   9    2.79    0.13
   0   2  -9    0.67    0.09
   0   2  -9    0.50    0.08
   0   2  -9    0.74    0.09
   0  -2   9    0.67    0.07
   0  -2   9    0.65    0.09
   0  -2   9    0.61    0.07
  -1   2  -9    0.81    0.09
  -1   2  -9    0.56    0.08
   1  -2   9    0.73    0.08
   1  -2   9    0.77    0.09
   1  -2   9    0.74    0.07
  -2   2  -9    2.17    0.13
  -2   2  -9    2.06    0.13
  -2   2  -9    1.92    0.12
   2  -2   9    1.93    0.12
   2  -2   9    2.05    0.11
  -3   2  -9    8.59    0.34
  -3   2  -9    9.35    0.34
  -3   2  -9    9.26    0.35
   3  -2   9    8.90    0.33
   3  -2   9   10.03    0.34
   3  -2   9    8.56    0.35
  -4   2  -9   -0.01    0.06
  -4   2  -9   -0.03    0.07
  -4   2  -9   -0.01    0.07
   4  -2   9    0.04    0.07
   4  -2   9    0.02    0.04
  -5   2  -9    0.00    0.08
  -5   2  -9    0.02    0.07
  -5   2  -9    0.05    0.08
   5  -2   9    0.02    0.05
   5  -2   9    0.01    0.08
  -6   2  -9    0.05    0.09
  -6   2  -9   -0.02    0.08
   6  -2   9   -0.01    0.09
   6  -2   9   -0.01    0.05
  -7   2  -9    8.35    0.37
   7  -2   9    8.14    0.37
   7  -2   9    7.73    0.30
  -8   2  -9    0.68    0.17
   8  -2   9    0.65    0.16
   6   1  -9    3.78    0.22
   5   1  -9    0.00    0.08
  -5  -1   9    0.08    0.09
   4   1  -9    1.91    0.14
  -4  -1   9    1.82    0.14
   3   1  -9    0.00    0.07
   3   1  -9    0.04    0.06
  -3  -1   9    0.01    0.07
  -3  -1   9   -0.02    0.07
  -3  -1   9   -0.01    0.06
   2   1  -9    0.18    0.07
   2   1  -9    0.15    0.06
  -2  -1   9    0.16    0.06
  -2  -1   9    0.19    0.06
  -2  -1   9    0.13    0.07
   1   1  -9    1.74    0.12
   1   1  -9    1.39    0.12
   1   1  -9    1.49    0.12
  -1  -1   9    1.52    0.12
  -1  -1   9    1.30    0.10
  -1  -1   9    1.46    0.09
   0   1  -9   14.75    0.51
   0   1  -9   14.50    0.52
   0  -1   9   15.36    0.52
   0  -1   9   14.53    0.50
   0  -1   9   13.84    0.49
  -1   1  -9    2.55    0.13
  -1   1  -9    2.35    0.14
   1  -1   9    2.04    0.12
   1  -1   9    2.52    0.11
   1  -1   9    2.46    0.14
  -2   1  -9    2.51    0.15
  -2   1  -9    2.39    0.13
   2  -1   9    2.32    0.13
   2  -1   9    2.55    0.11
   2  -1   9    2.43    0.14
  -3   1  -9    0.03    0.06
  -3   1  -9    0.02    0.04
  -3   1  -9    0.01    0.06
   3  -1   9    0.04    0.06
   3  -1   9   -0.01    0.05
   3  -1   9    0.03    0.04
  -4   1  -9    7.55    0.31
  -4   1  -9    7.89    0.32
  -4   1  -9    8.12    0.32
   4  -1   9    7.95    0.31
   4  -1   9    8.26    0.33
   4  -1   9    8.24    0.29
  -5   1  -9    0.04    0.08
  -5   1  -9    0.03    0.08
  -5   1  -9    0.03    0.06
   5  -1   9    0.03    0.07
   5  -1   9    0.05    0.04
  -6   1  -9    8.62    0.35
  -6   1  -9    8.17    0.35
   6  -1   9    8.66    0.36
   6  -1   9    8.62    0.31
  -7   1  -9    1.91    0.17
  -7   1  -9    1.76    0.18
   7  -1   9    1.82    0.19
   7  -1   9    1.77    0.11
  -8   1  -9    6.32    0.31
  -8   1  -9    6.14    0.33
   8  -1   9    5.95    0.24
   8  -1   9    6.06    0.32
   6   0  -9    0.10    0.11
  -6   0   9    0.19    0.13
   5   0  -9    0.50    0.11
  -5   0   9    0.39    0.10
   4   0  -9    0.01    0.09
  -4   0   9    0.09    0.08
   3   0  -9    6.82    0.29
  -3   0   9    7.59    0.29
  -3   0   9    7.02    0.27
   2   0  -9    1.34    0.12
  -2   0   9    1.62    0.10
  -2   0   9    1.49    0.11
  -2   0   9    1.36    0.10
   1   0  -9    1.16    0.10
   1   0  -9    1.34    0.10
  -1   0   9    1.14    0.09
  -1   0   9    1.44    0.09
  -1   0   9    1.03    0.10
   0   0  -9   26.05    0.84
   0   0  -9   24.93    0.83
   0   0   9   24.36    0.82
   0   0   9   24.69    0.83
   0   0   9   24.18    0.82
  -1   0  -9    5.79    0.22
  -1   0  -9    5.88    0.24
   1   0   9    5.16    0.22
   1   0   9    5.54    0.23
   1   0   9    5.50    0.21
  -2   0  -9    0.68    0.08
  -2   0  -9    0.40    0.06
   2   0   9    0.49    0.08
   2   0   9    0.38    0.04
   2   0   9    0.45    0.07
  -3   0  -9    7.56    0.28
  -3   0  -9    7.60    0.30
   3   0   9    7.66    0.29
   3   0   9    7.54    0.27
   3   0   9    7.58    0.30
  -4   0  -9   15.00    0.55
  -4   0  -9   15.79    0.55
  -4   0  -9   15.58    0.54
   4   0   9   15.58    0.54
   4   0   9   15.33    0.51
   4   0   9   15.13    0.55
  -5   0  -9    2.83    0.16
  -5   0  -9    2.44    0.14
  -5   0  -9    2.51    0.16
   5   0   9    2.57    0.11
   5   0   9    2.84    0.16
   5   0   9    2.46    0.15
  -6   0  -9   17.82    0.66
  -6   0  -9   18.32    0.64
   6   0   9   18.14    0.60
   6   0   9   18.76    0.66
  -7   0  -9    0.05    0.07
  -7   0  -9    0.10    0.10
   7   0   9    0.07    0.09
   7   0   9    0.08    0.04
  -8   0  -9    1.13    0.14
  -8   0  -9    1.20    0.17
   8   0   9    1.19    0.08
   8   0   9    1.04    0.15
  -6   1   9    1.97    0.19
  -5   1   9    7.13    0.31
  -4   1   9    0.22    0.09
  -4   1   9    0.18    0.07
   3  -1  -9    0.50    0.09
  -3   1   9    0.46    0.08
  -3   1   9    0.55    0.08
   2  -1  -9    7.13    0.29
   2  -1  -9    7.39    0.29
  -2   1   9    6.66    0.26
  -2   1   9    7.31    0.28
   1  -1  -9   32.71    1.10
   1  -1  -9   33.48    1.11
  -1   1   9   33.33    1.10
  -1   1   9   33.21    1.10
  -1   1   9   33.66    1.09
   0  -1  -9    0.19    0.05
   0  -1  -9    0.22    0.06
   0   1   9    0.17    0.04
   0   1   9    0.17    0.06
   0   1   9    0.17    0.05
  -1  -1  -9   10.55    0.37
  -1  -1  -9    9.94    0.38
   1   1   9   10.40    0.37
   1   1   9   10.37    0.37
   1   1   9   10.65    0.35
  -2  -1  -9    0.44    0.07
  -2  -1  -9    0.36    0.05
   2   1   9    0.41    0.05
   2   1   9    0.35    0.06
   2   1   9    0.43    0.07
  -3  -1  -9    6.35    0.24
  -3  -1  -9    6.41    0.26
   3   1   9    6.39    0.25
   3   1   9    6.22    0.25
   3   1   9    6.10    0.22
  -4  -1  -9    0.42    0.06
  -4  -1  -9    0.27    0.07
  -4  -1  -9    0.38    0.08
   4   1   9    0.30    0.04
   4   1   9    0.32    0.07
   4   1   9    0.36    0.08
  -5  -1  -9   10.30    0.37
  -5  -1  -9   10.75    0.38
  -5  -1  -9    9.81    0.39
   5   1   9   10.00    0.38
   5   1   9    9.63    0.33
   5   1   9    9.50    0.38
  -6  -1  -9    1.07    0.11
  -6  -1  -9    1.05    0.12
   6   1   9    1.01    0.06
   6   1   9    1.10    0.14
  -7  -1  -9    8.66    0.36
  -7  -1  -9    7.54    0.32
   7   1   9    8.30    0.36
   7   1   9    7.81    0.26
  -8  -1  -9    0.21    0.11
  -8  -1  -9    0.17    0.10
   8   1   9    0.21    0.12
  -9  -1  -9    0.07    0.13
  -6   2   9    5.14    0.30
  -5   2   9    0.50    0.11
  -4   2   9    3.70    0.18
  -4   2   9    3.48    0.19
   3  -2  -9    1.69    0.14
  -3   2   9    1.86    0.14
  -3   2   9    1.72    0.12
   2  -2  -9    4.29    0.20
   2  -2  -9    3.93    0.19
  -2   2   9    3.98    0.17
  -2   2   9    3.87    0.18
   1  -2  -9    9.48    0.37
   1  -2  -9    9.76    0.36
  -1   2   9   10.02    0.36
  -1   2   9    9.97    0.34
   0  -2  -9    3.60    0.17
   0  -2  -9    3.68    0.16
   0   2   9    3.88    0.17
   0   2   9    3.87    0.16
   0   2   9    3.66    0.15
  -1  -2  -9   12.05    0.44
  -1  -2  -9   12.55    0.42
   1   2   9   12.23    0.41
   1   2   9   12.10    0.42
   1   2   9   11.81    0.43
  -2  -2  -9    8.72    0.31
  -2  -2  -9    8.71    0.33
   2   2   9    8.73    0.32
   2   2   9    8.71    0.30
   2   2   9    9.19    0.33
  -3  -2  -9    2.01    0.10
  -3  -2  -9    2.04    0.12
   3   2   9    1.84    0.12
   3   2   9    1.97    0.08
   3   2   9    1.90    0.11
  -4  -2  -9    1.25    0.09
  -4  -2  -9    1.52    0.12
   4   2   9    1.36    0.11
   4   2   9    1.28    0.11
   4   2   9    1.36    0.05
   4   2   9    1.41    0.06
  -5  -2  -9    6.16    0.27
  -5  -2  -9    6.89    0.27
  -5  -2  -9    6.37    0.25
   5   2   9    6.55    0.27
   5   2   9    6.32    0.27
  -6  -2  -9    2.83    0.17
  -6  -2  -9    2.81    0.14
   6   2   9    2.73    0.16
   6   2   9    2.62    0.17
  -7  -2  -9    0.17    0.09
  -7  -2  -9    0.09    0.06
   7   2   9    0.16    0.10
  -8  -2  -9    0.21    0.09
  -8  -2  -9    0.29    0.11
   8   2   9    0.21    0.11
  -9  -2  -9    0.12    0.12
  -9  -2  -9    0.02    0.13
   9   2   9    0.12    0.13
  -5   3   9    0.41    0.11
  -5   3   9    0.40    0.10
  -4   3   9    2.30    0.17
  -4   3   9    2.26    0.15
   3  -3  -9    2.61    0.17
  -3   3   9    2.74    0.16
  -3   3   9    2.67    0.14
   2  -3  -9    6.61    0.28
   2  -3  -9    6.80    0.28
  -2   3   9    6.92    0.28
  -2   3   9    6.58    0.25
   1  -3  -9    9.39    0.35
   1  -3  -9    8.60    0.34
  -1   3   9    8.95    0.32
  -1   3   9    9.31    0.34
   0  -3  -9   78.29    2.51
   0  -3  -9   77.07    2.52
   0   3   9   77.91    2.51
   0   3   9   78.09    2.49
  -1  -3  -9   14.18    0.51
  -1  -3  -9   14.65    0.49
   1   3   9   14.52    0.49
   1   3   9   14.16    0.47
   1   3   9   14.04    0.50
  -2  -3  -9    0.84    0.07
  -2  -3  -9    0.67    0.08
   2   3   9    0.77    0.04
   2   3   9    0.72    0.08
   2   3   9    0.74    0.08
  -3  -3  -9    5.60    0.24
  -3  -3  -9    5.74    0.21
   3   3   9    5.81    0.23
   3   3   9    5.80    0.23
  -4  -3  -9    0.53    0.06
  -4  -3  -9    0.44    0.07
   4   3   9    0.44    0.07
   4   3   9    0.47    0.07
  -5  -3  -9    5.94    0.26
  -5  -3  -9    6.30    0.23
  -5  -3  -9    6.65    0.26
   5   3   9    6.10    0.26
   5   3   9    5.75    0.25
  -6  -3  -9    7.19    0.31
  -6  -3  -9    6.95    0.27
   6   3   9    7.54    0.30
   6   3   9    7.07    0.31
  -7  -3  -9    0.38    0.11
  -7  -3  -9    0.32    0.07
   7   3   9    0.36    0.09
  -8  -3  -9    2.58    0.17
  -8  -3  -9    2.79    0.20
   8   3   9    2.65    0.20
  -9  -3  -9    0.13    0.11
  -9  -3  -9    0.14    0.14
   9   3   9    0.10    0.14
  -5   4   9    7.33    0.31
  -5   4   9    6.91    0.33
  -4   4   9    7.44    0.32
  -4   4   9    7.17    0.29
   3  -4  -9    4.35    0.22
  -3   4   9    4.23    0.19
  -3   4   9    3.98    0.21
   2  -4  -9    0.05    0.06
   2  -4  -9    0.03    0.07
  -2   4   9   -0.01    0.07
  -2   4   9    0.01    0.05
   1  -4  -9   10.81    0.40
   1  -4  -9   10.83    0.42
  -1   4   9   11.48    0.38
  -1   4   9   11.27    0.41
   0  -4  -9   79.18    2.55
   0  -4  -9   79.55    2.57
   0   4   9   79.82    2.53
   0   4   9   78.54    2.56
  -1  -4  -9   16.30    0.58
  -1  -4  -9   16.15    0.56
   1   4   9   16.82    0.54
   1   4   9   16.98    0.58
  -2  -4  -9    1.64    0.09
  -2  -4  -9    1.72    0.12
   2   4   9    1.59    0.10
   2   4   9    1.74    0.10
  -3  -4  -9    2.23    0.10
  -3  -4  -9    2.05    0.13
   3   4   9    2.27    0.12
   3   4   9    2.09    0.12
  -4  -4  -9    0.07    0.06
  -4  -4  -9    0.08    0.04
   4   4   9    0.04    0.05
   4   4   9    0.06    0.06
  -5  -4  -9    0.18    0.04
  -5  -4  -9    0.12    0.07
  -5  -4  -9    0.16    0.07
   5   4   9    0.11    0.06
   5   4   9    0.19    0.07
  -6  -4  -9    9.22    0.33
  -6  -4  -9    9.12    0.37
   6   4   9    8.74    0.36
   6   4   9    9.42    0.36
  -7  -4  -9    1.10    0.10
  -7  -4  -9    1.03    0.13
   7   4   9    1.05    0.13
  -8  -4  -9    0.57    0.09
  -8  -4  -9    0.69    0.14
   8   4   9    0.68    0.14
  -9  -4  -9    2.85    0.19
   9   4   9    2.63    0.24
  -5   5   9   -0.04    0.12
  -5   5   9    0.03    0.10
  -4   5   9    2.74    0.19
  -4   5   9    2.99    0.17
   3  -5  -9    6.58    0.30
  -3   5   9    6.76    0.30
  -3   5   9    6.96    0.27
   2  -5  -9    4.05    0.21
   2  -5  -9    4.19    0.21
  -2   5   9    3.88    0.17
  -2   5   9    4.36    0.21
   1  -5  -9    6.90    0.26
   1  -5  -9    6.05    0.27
  -1   5   9    6.15    0.27
  -1   5   9    6.33    0.23
   0  -5  -9    0.63    0.07
   0  -5  -9    0.75    0.10
   0   5   9    0.77    0.09
   0   5   9    0.50    0.05
   0   5   9    0.71    0.09
  -1  -5  -9    1.30    0.09
  -1  -5  -9    1.41    0.11
   1   5   9    1.19    0.10
   1   5   9    1.19    0.10
   1   5   9    1.32    0.06
  -2  -5  -9    0.02    0.06
  -2  -5  -9    0.03    0.03
   2   5   9    0.09    0.05
  -3  -5  -9    0.68    0.06
  -3  -5  -9    0.57    0.08
   3   5   9    0.65    0.08
   3   5   9    0.74    0.09
  -4  -5  -9    0.20    0.07
  -4  -5  -9    0.12    0.03
   4   5   9    0.18    0.06
   4   5   9    0.10    0.06
  -5  -5  -9    6.41    0.24
  -5  -5  -9    6.71    0.28
  -5  -5  -9    6.70    0.28
   5   5   9    6.86    0.28
   5   5   9    6.60    0.27
  -6  -5  -9    0.23    0.09
  -6  -5  -9    0.34    0.05
   6   5   9    0.24    0.08
   6   5   9    0.16    0.08
  -7  -5  -9    3.33    0.20
  -7  -5  -9    3.46    0.15
   7   5   9    3.33    0.21
   7   5   9    3.31    0.19
  -8  -5  -9    0.40    0.12
  -8  -5  -9    0.17    0.07
   8   5   9    0.37    0.12
  -9  -5  -9    2.01    0.22
  -9  -5  -9    2.05    0.16
   9   5   9    1.82    0.22
  -4   6   9    2.82    0.21
  -4   6   9    3.10    0.18
  -3   6   9    3.26    0.16
  -3   6   9    3.16    0.19
   2  -6  -9    1.73    0.15
   2  -6  -9    1.78    0.16
  -2   6   9    1.70    0.11
  -2   6   9    1.83    0.15
  -2   6   9    1.71    0.15
   1  -6  -9   15.26    0.56
   1  -6  -9   14.99    0.54
  -1   6   9   15.68    0.56
  -1   6   9   15.35    0.55
  -1   6   9   15.47    0.51
   0  -6  -9    5.43    0.22
   0  -6  -9    5.47    0.25
   0   6   9    5.18    0.19
   0   6   9    4.88    0.23
   0   6   9    5.06    0.23
  -1  -6  -9    5.69    0.25
  -1  -6  -9    5.53    0.22
   1   6   9    5.50    0.24
   1   6   9    5.51    0.24
  -2  -6  -9    0.06    0.04
  -2  -6  -9    0.02    0.06
   2   6   9    0.08    0.06
   2   6   9    0.05    0.05
  -3  -6  -9    0.07    0.06
  -3  -6  -9    0.04    0.03
   3   6   9    0.06    0.05
   3   6   9    0.07    0.05
  -4  -6  -9    2.24    0.15
  -4  -6  -9    2.25    0.10
   4   6   9    2.32    0.14
   4   6   9    2.48    0.14
  -5  -6  -9   17.11    0.58
  -5  -6  -9   17.72    0.62
   5   6   9   18.64    0.62
   5   6   9   16.79    0.61
  -6  -6  -9    0.14    0.09
  -6  -6  -9    0.19    0.04
   6   6   9    0.13    0.08
   6   6   9    0.20    0.09
  -7  -6  -9   -0.05    0.09
  -7  -6  -9    0.01    0.04
   7   6   9    0.00    0.09
   7   6   9   -0.02    0.09
  -8  -6  -9    0.55    0.08
  -8  -6  -9    0.55    0.13
   8   6   9    0.55    0.12
  -9  -6  -9   13.63    0.49
  -9  -6  -9   13.28    0.54
   9   6   9   13.75    0.55
  -4   7   9    1.78    0.21
  -4   7   9    1.89    0.16
  -3   7   9    2.21    0.14
  -3   7   9    2.37    0.18
   2  -7  -9    2.04    0.18
   2  -7  -9    1.63    0.16
  -2   7   9    1.61    0.16
  -2   7   9    1.59    0.14
  -2   7   9    1.93    0.11
   1  -7  -9    0.76    0.10
   1  -7  -9    0.75    0.12
  -1   7   9    0.72    0.07
  -1   7   9    0.69    0.10
  -1   7   9    0.72    0.11
   0  -7  -9   -0.02    0.07
   0   7   9   -0.03    0.06
   0   7   9    0.02    0.07
   0   7   9   -0.01    0.03
  -1  -7  -9    0.10    0.07
   1   7   9    0.04    0.06
   1   7   9    0.07    0.07
  -2  -7  -9    0.17    0.08
  -2  -7  -9    0.18    0.05
   2   7   9    0.14    0.06
   2   7   9    0.21    0.07
  -3  -7  -9    0.55    0.09
  -3  -7  -9    0.56    0.06
   3   7   9    0.55    0.09
   3   7   9    0.49    0.08
  -4  -7  -9    0.11    0.04
  -4  -7  -9    0.06    0.08
   4   7   9    0.06    0.07
   4   7   9    0.04    0.07
  -5  -7  -9    2.06    0.09
  -5  -7  -9    1.81    0.15
   5   7   9    1.73    0.13
   5   7   9    1.99    0.14
  -6  -7  -9    1.17    0.14
  -6  -7  -9    1.14    0.07
   6   7   9    1.16    0.14
   6   7   9    1.13    0.13
  -7  -7  -9    6.06    0.22
  -7  -7  -9    5.81    0.28
   7   7   9    6.05    0.28
   7   7   9    6.35    0.30
  -8  -7  -9    1.51    0.11
  -8  -7  -9    1.44    0.17
   8   7   9    1.62    0.20
  -9  -7  -9    0.30    0.16
  -9  -7  -9    0.32    0.08
   9   7   9    0.38    0.15
  -3   8   9    0.16    0.08
  -3   8   9    0.14    0.12
   2  -8  -9    0.11    0.12
   2  -8  -9    0.11    0.10
  -2   8   9    0.07    0.10
  -2   8   9    0.11    0.06
  -2   8   9    0.11    0.11
   1  -8  -9    4.24    0.22
   1  -8  -9    4.15    0.23
  -1   8   9    4.34    0.23
  -1   8   9    4.50    0.17
  -1   8   9    4.41    0.23
   0  -8  -9   -0.01    0.09
   0  -8  -9    0.00    0.06
   0   8   9    0.00    0.08
   0   8   9    0.06    0.08
   0   8   9    0.02    0.02
  -1  -8  -9    0.06    0.09
  -1  -8  -9    0.03    0.05
   1   8   9   -0.04    0.07
   1   8   9    0.02    0.07
  -2  -8  -9   11.00    0.43
  -2  -8  -9   11.08    0.39
   2   8   9   10.73    0.41
   2   8   9   11.41    0.43
  -3  -8  -9    2.97    0.19
   3   8   9    3.02    0.17
   3   8   9    2.95    0.18
  -4  -8  -9    6.12    0.22
  -4  -8  -9    6.79    0.29
   4   8   9    6.26    0.27
   4   8   9    5.92    0.27
  -5  -8  -9   -0.01    0.09
  -5  -8  -9    0.00    0.03
   5   8   9    0.01    0.08
   5   8   9    0.01    0.07
  -6  -8  -9    4.84    0.17
  -6  -8  -9    4.94    0.25
   6   8   9    5.12    0.24
  -7  -8  -9    0.14    0.04
  -7  -8  -9    0.16    0.10
   7   8   9    0.08    0.09
   7   8   9    0.14    0.10
  -8  -8  -9    8.17    0.30
  -8  -8  -9    8.90    0.39
   8   8   9    8.52    0.39
  -3   9   9    2.64    0.33
   2  -9  -9    1.22    0.17
  -2   9   9    1.57    0.17
  -2   9   9    1.40    0.16
  -2   9   9    1.21    0.10
   1  -9  -9    1.36    0.15
   1  -9  -9    1.48    0.17
  -1   9   9    1.45    0.17
  -1   9   9    1.40    0.17
  -1   9   9    1.39    0.08
   0  -9  -9    0.39    0.09
   0  -9  -9    0.40    0.11
   0   9   9    0.44    0.10
   0   9   9    0.50    0.11
  -1  -9  -9    8.12    0.35
  -1  -9  -9    8.10    0.31
   1   9   9    8.12    0.34
   1   9   9    7.95    0.33
  -2  -9  -9    6.24    0.24
  -2  -9  -9    6.19    0.29
   2   9   9    5.73    0.26
   2   9   9    6.36    0.28
  -3  -9  -9    0.54    0.10
  -3  -9  -9    0.77    0.08
   3   9   9    0.85    0.11
   3   9   9    0.71    0.11
  -4  -9  -9   10.97    0.42
  -4  -9  -9   10.82    0.36
   4   9   9    9.66    0.40
   4   9   9   10.22    0.40
  -5  -9  -9    8.39    0.29
  -5  -9  -9    8.92    0.37
   5   9   9    8.97    0.36
   5   9   9    8.64    0.35
  -6  -9  -9    0.57    0.12
   6   9   9    0.55    0.11
   6   9   9    0.33    0.17
  -7  -9  -9    3.73    0.26
   7   9   9    3.91    0.23
  -8  -9  -9    1.50    0.09
  -8  -9  -9    1.41    0.19
   8   9   9    1.46    0.18
   2 -10  -9    0.03    0.13
   2 -10  -9    0.04    0.16
  -2  10   9    0.04    0.14
  -2  10   9    0.00    0.14
  -2  10   9    0.03    0.08
   1 -10  -9    2.28    0.19
   1 -10  -9    2.17    0.22
  -1  10   9    2.14    0.18
  -1  10   9    2.09    0.20
  -1  10   9    2.21    0.10
   0 -10  -9    1.21    0.16
   0 -10  -9    1.22    0.14
   0  10   9    1.12    0.14
   0  10   9    1.54    0.16
  -1 -10  -9    7.56    0.31
  -1 -10  -9    7.89    0.36
   1  10   9    7.66    0.33
   1  10   9    7.82    0.35
  -2 -10  -9    0.06    0.11
  -2 -10  -9    0.11    0.07
   2  10   9    0.05    0.09
   2  10   9    0.01    0.09
  -3 -10  -9   11.03    0.39
  -3 -10  -9   11.26    0.46
   3  10   9   11.49    0.43
   3  10   9   11.14    0.45
  -4 -10  -9    3.54    0.15
  -4 -10  -9    3.47    0.22
   4  10   9    3.20    0.20
   4  10   9    3.59    0.20
  -5 -10  -9   11.32    0.47
  -5 -10  -9   11.43    0.38
   5  10   9   11.87    0.46
   0 -11  -9    4.53    0.25
   0 -11  -9    4.53    0.30
   0  11   9    4.34    0.28
  -1 -11  -9    1.02    0.16
  -1 -11  -9    1.15    0.12
   1  11   9    1.13    0.15
  -2 -11  -9    2.90    0.16
  -2 -11  -9    3.26    0.23
   2  11   9    2.76    0.21
  -3 -11  -9    0.22    0.13
  -3 -11  -9    0.16    0.06
   3  11   9    0.29    0.12
  -4 -11  -9    0.76    0.09
  -4 -11  -9    0.64    0.15
   4  11   9    0.83    0.14
  -5 -11  -9    1.11    0.16
  -5 -11  -9    0.98    0.08
   5  11   9    0.77    0.14
  -2 -12  -9    4.45    0.31
  -2 -12  -9    4.19    0.21
   2  12   9    3.55    0.27
  -3 -12  -9    1.44    0.20
  -3 -12  -9    0.93    0.10
   3  12   9    0.85    0.16
  -4 -12  -9    0.00    0.07
  -4 -12  -9   -0.04    0.13
   4  12   9   -0.01    0.11
  -5 -12  -9    0.22    0.15
  -5 -12  -9    0.16    0.06
   5  12   9    0.28    0.14
   0   9 -10    0.10    0.12
   3   8 -10    2.34    0.19
   3   8 -10    2.42    0.26
   2   8 -10    2.48    0.25
   2   8 -10    2.53    0.19
  -2  -8  10    2.14    0.24
   1   8 -10    0.00    0.14
   1   8 -10    0.01    0.10
  -1  -8  10   -0.01    0.14
   0   8 -10    0.35    0.11
   0   8 -10    0.35    0.16
   0  -8  10    0.40    0.15
  -1   8 -10    0.04    0.10
  -1   8 -10    0.00    0.15
   1  -8  10   -0.01    0.14
  -2   8 -10    0.02    0.16
   2  -8  10    0.02    0.15
   4   7 -10    0.86    0.12
  -4  -7  10    0.67    0.17
   3   7 -10    2.17    0.17
   3   7 -10    2.09    0.23
  -3  -7  10    2.20    0.21
   2   7 -10    0.04    0.13
   2   7 -10    0.02    0.08
  -2  -7  10   -0.03    0.11
   1   7 -10    6.79    0.29
   1   7 -10    6.10    0.33
  -1  -7  10    6.68    0.34
   0   7 -10    0.90    0.12
   0   7 -10    0.89    0.15
   0  -7  10    0.77    0.16
  -1   7 -10    1.42    0.16
  -1   7 -10    1.50    0.18
   1  -7  10    1.75    0.18
  -2   7 -10    0.03    0.13
   2  -7  10    0.07    0.13
  -3   7 -10    0.03    0.15
   3  -7  10    0.00    0.14
  -4   7 -10    0.03    0.17
   4  -7  10    0.07    0.15
  -5  -6  10    0.08    0.15
   4   6 -10    0.40    0.11
  -4  -6  10    0.31    0.14
   3   6 -10    1.46    0.15
   3   6 -10    1.49    0.19
  -3  -6  10    1.54    0.18
   2   6 -10   -0.01    0.10
   2   6 -10   -0.03    0.08
  -2  -6  10   -0.04    0.10
   1   6 -10    1.03    0.14
   1   6 -10    0.63    0.10
  -1  -6  10    0.99    0.14
   0   6 -10    0.02    0.08
   0   6 -10    0.01    0.10
   0  -6  10    0.03    0.10
  -1   6 -10    0.54    0.12
   1  -6  10    0.71    0.13
  -2   6 -10    0.00    0.10
   2  -6  10   -0.02    0.09
  -3   6 -10   -0.01    0.13
   3  -6  10    0.01    0.12
   3  -6  10    0.01    0.08
  -4   6 -10   -0.04    0.14
   4  -6  10    0.02    0.10
   4  -6  10   -0.02    0.11
  -5   6 -10    0.75    0.18
   5  -6  10    0.96    0.17
   5  -6  10    1.28    0.15
   5   5 -10    3.51    0.21
  -5  -5  10    3.59    0.28
   4   5 -10    1.38    0.14
  -4  -5  10    1.60    0.20
   3   5 -10    0.81    0.11
   3   5 -10    0.72    0.12
   2   5 -10    1.05    0.12
   2   5 -10    1.03    0.13
  -2  -5  10    0.91    0.13
   1   5 -10    0.74    0.12
   1   5 -10    0.88    0.11
  -1  -5  10    0.70    0.12
   0   5 -10    2.89    0.20
   0   5 -10    3.28    0.18
   0  -5  10    3.41    0.21
  -1   5 -10    1.44    0.16
   1  -5  10    1.39    0.15
   1  -5  10    1.51    0.12
  -2   5 -10    7.85    0.35
   2  -5  10    8.19    0.32
   2  -5  10    8.38    0.36
  -3   5 -10    0.01    0.11
   3  -5  10    0.02    0.09
   3  -5  10    0.03    0.07
  -4   5 -10    3.84    0.25
   4  -5  10    4.12    0.21
   4  -5  10    3.74    0.24
  -5   5 -10   -0.02    0.13
   5  -5  10    0.12    0.12
   5  -5  10    0.09    0.10
   6  -5  10    0.68    0.14
   5   4 -10    0.69    0.12
  -5  -4  10    0.66    0.16
   4   4 -10    0.33    0.09
  -4  -4  10    0.34    0.13
   3   4 -10    0.81    0.10
   3   4 -10    0.80    0.13
   2   4 -10    0.16    0.08
   2   4 -10    0.11    0.09
  -2  -4  10    0.02    0.08
   1   4 -10    7.07    0.31
   1   4 -10    7.70    0.29
  -1  -4  10    6.66    0.31
   0   4 -10    2.66    0.18
   0  -4  10    2.31    0.17
   0  -4  10    2.87    0.15
  -1   4 -10    4.03    0.21
   1  -4  10    3.84    0.18
   1  -4  10    4.22    0.22
  -2   4 -10    2.08    0.16
   2  -4  10    2.08    0.13
   2  -4  10    2.15    0.16
  -3   4 -10    3.75    0.22
   3  -4  10    3.63    0.21
  -4   4 -10    1.46    0.17
   4  -4  10    1.50    0.17
   4  -4  10    1.33    0.12
  -5   4 -10    1.41    0.17
   5  -4  10    1.29    0.17
   5  -4  10    1.66    0.14
   6  -4  10    0.23    0.09
   6  -4  10    0.13    0.12
   6   3 -10    0.13    0.12
   5   3 -10    0.05    0.10
  -5  -3  10   -0.03    0.15
   4   3 -10    0.89    0.12
  -4  -3  10    0.84    0.14
   3   3 -10    3.47    0.19
   3   3 -10    3.08    0.20
  -3  -3  10    3.62    0.20
   2   3 -10    5.68    0.27
   2   3 -10    5.78    0.25
   1   3 -10    1.97    0.13
   1   3 -10    2.02    0.15
  -1  -3  10    1.96    0.12
  -1  -3  10    1.72    0.15
   0   3 -10    2.38    0.16
   0  -3  10    2.37    0.13
   0  -3  10    2.11    0.15
  -1   3 -10   36.36    1.20
   1  -3  10   35.27    1.17
   1  -3  10   35.14    1.20
  -2   3 -10    0.73    0.11
   2  -3  10    0.71    0.10
   2  -3  10    0.91    0.09
  -3   3 -10    0.20    0.08
  -3   3 -10    0.22    0.10
  -3   3 -10    0.27    0.08
   3  -3  10    0.26    0.09
   3  -3  10    0.19    0.06
   3  -3  10    0.21    0.11
  -4   3 -10    1.48    0.16
  -4   3 -10    1.34    0.16
  -4   3 -10    1.32    0.14
   4  -3  10    1.44    0.15
   4  -3  10    1.22    0.11
  -5   3 -10    5.80    0.27
  -5   3 -10    5.31    0.27
   5  -3  10    5.17    0.27
   5  -3  10    5.06    0.23
  -6   3 -10    0.01    0.10
   6  -3  10    0.01    0.11
   6  -3  10    0.01    0.07
  -7   3 -10    6.91    0.35
   7  -3  10    6.33    0.28
   7  -3  10    6.57    0.34
   6   2 -10    8.90    0.38
   5   2 -10    0.66    0.12
   4   2 -10    5.20    0.24
  -4  -2  10    5.13    0.27
   3   2 -10    0.18    0.09
   3   2 -10    0.25    0.08
  -3  -2  10    0.24    0.10
   2   2 -10   20.92    0.73
   2   2 -10   19.31    0.73
  -2  -2  10   21.36    0.71
  -2  -2  10   21.40    0.73
   1   2 -10    0.13    0.08
  -1  -2  10    0.15    0.06
  -1  -2  10    0.09    0.07
   0   2 -10    3.95    0.20
   0  -2  10    3.82    0.17
   0  -2  10    3.88    0.20
   0  -2  10    3.86    0.17
  -1   2 -10    9.58    0.36
  -1   2 -10    9.56    0.38
   1  -2  10    9.23    0.37
   1  -2  10    9.94    0.35
   1  -2  10    9.66    0.35
  -2   2 -10    0.59    0.09
  -2   2 -10    0.60    0.09
   2  -2  10    0.79    0.10
   2  -2  10    0.73    0.08
   2  -2  10    0.54    0.07
  -3   2 -10    0.39    0.08
  -3   2 -10    0.28    0.08
  -3   2 -10    0.25    0.08
   3  -2  10    0.33    0.08
   3  -2  10    0.36    0.06
   3  -2  10    0.42    0.08
  -4   2 -10    6.51    0.28
  -4   2 -10    6.90    0.30
  -4   2 -10    6.88    0.29
   4  -2  10    6.73    0.28
   4  -2  10    6.52    0.25
   4  -2  10    6.14    0.29
  -5   2 -10    0.71    0.12
  -5   2 -10    0.93    0.13
  -5   2 -10    0.84    0.12
   5  -2  10    0.63    0.12
   5  -2  10    0.73    0.08
  -6   2 -10    0.66    0.12
  -6   2 -10    0.94    0.14
   6  -2  10    1.05    0.10
   6  -2  10    0.92    0.14
  -7   2 -10    4.84    0.28
  -7   2 -10    4.90    0.28
   7  -2  10    4.35    0.20
   7  -2  10    4.35    0.28
   6   1 -10    4.25    0.26
   5   1 -10    8.64    0.36
   4   1 -10   10.19    0.43
  -4  -1  10   11.15    0.42
   3   1 -10    1.71    0.15
  -3  -1  10    1.96    0.14
  -3  -1  10    1.84    0.14
  -3  -1  10    1.85    0.15
   2   1 -10    0.15    0.08
  -2  -1  10    0.08    0.07
  -2  -1  10    0.10    0.06
  -2  -1  10    0.15    0.08
   1   1 -10    1.24    0.13
  -1  -1  10    1.27    0.10
  -1  -1  10    1.40    0.10
  -1  -1  10    1.47    0.12
   0   1 -10   23.66    0.80
   0   1 -10   23.30    0.79
   0  -1  10   23.12    0.77
   0  -1  10   23.92    0.78
   0  -1  10   22.39    0.80
  -1   1 -10    2.77    0.15
  -1   1 -10    2.81    0.16
   1  -1  10    2.79    0.16
   1  -1  10    2.83    0.13
   1  -1  10    2.99    0.14
  -2   1 -10    4.04    0.20
  -2   1 -10    3.92    0.19
   2  -1  10    3.99    0.18
   2  -1  10    4.00    0.20
   2  -1  10    4.26    0.17
  -3   1 -10    7.45    0.30
  -3   1 -10    6.90    0.29
  -3   1 -10    7.36    0.29
   3  -1  10    7.31    0.29
   3  -1  10    6.87    0.29
   3  -1  10    7.12    0.26
  -4   1 -10    0.50    0.08
  -4   1 -10    0.45    0.10
  -4   1 -10    0.41    0.09
   4  -1  10    0.43    0.09
   4  -1  10    0.42    0.06
   4  -1  10    0.53    0.09
  -5   1 -10    2.27    0.17
  -5   1 -10    2.02    0.15
  -5   1 -10    1.96    0.16
   5  -1  10    2.16    0.17
   5  -1  10    2.14    0.11
  -6   1 -10    0.08    0.09
  -6   1 -10    0.03    0.07
   6  -1  10    0.07    0.05
   6  -1  10   -0.01    0.09
  -7   1 -10    0.24    0.09
  -7   1 -10    0.42    0.12
   7  -1  10    0.50    0.07
   7  -1  10    0.38    0.13
  -8   1 -10    1.86    0.22
  -8   1 -10    1.50    0.20
   8  -1  10    1.86    0.12
  -6   0  10    2.17    0.22
  -5   0  10    7.91    0.35
  -4   0  10   -0.01    0.09
   3   0 -10    4.75    0.24
  -3   0  10    4.95    0.23
  -3   0  10    5.08    0.22
   2   0 -10    0.04    0.07
  -2   0  10    0.12    0.08
  -2   0  10    0.11    0.06
  -2   0  10    0.10    0.06
   1   0 -10    0.26    0.07
   1   0 -10    0.19    0.07
  -1   0  10    0.24    0.07
  -1   0  10    0.19    0.07
  -1   0  10    0.29    0.06
   0   0 -10   12.50    0.47
   0   0 -10   12.70    0.46
   0   0  10   12.72    0.46
   0   0  10   13.18    0.44
   0   0  10   12.88    0.45
  -1   0 -10    0.52    0.09
  -1   0 -10    0.52    0.07
   1   0  10    0.46    0.05
   1   0  10    0.45    0.07
   1   0  10    0.68    0.09
  -2   0 -10    1.92    0.13
  -2   0 -10    2.02    0.12
   2   0  10    1.99    0.13
   2   0  10    1.73    0.11
   2   0  10    2.13    0.10
  -3   0 -10    0.44    0.09
  -3   0 -10    0.32    0.06
   3   0  10    0.32    0.07
   3   0  10    0.36    0.05
   3   0  10    0.23    0.07
  -4   0 -10    0.10    0.07
  -4   0 -10    0.09    0.07
  -4   0 -10    0.06    0.05
   4   0  10    0.10    0.04
   4   0  10    0.14    0.07
   4   0  10    0.06    0.07
  -5   0 -10    0.16    0.08
  -5   0 -10    0.16    0.06
  -5   0 -10    0.27    0.09
   5   0  10    0.26    0.04
   5   0  10    0.21    0.09
   5   0  10    0.32    0.08
  -6   0 -10    1.78    0.16
  -6   0 -10    1.51    0.14
   6   0  10    1.47    0.09
   6   0  10    1.51    0.16
  -7   0 -10    3.42    0.23
  -7   0 -10    2.97    0.19
   7   0  10    2.95    0.13
   7   0  10    3.20    0.21
  -8   0 -10    1.37    0.19
  -8   0 -10    1.39    0.16
   8   0  10    1.49    0.09
   8   0  10    1.57    0.20
  -6   1  10    0.91    0.17
  -5   1  10    5.50    0.28
  -4   1  10    3.31    0.19
  -4   1  10    3.77    0.21
   3  -1 -10    0.73    0.11
  -3   1  10    0.97    0.10
  -3   1  10    1.00    0.12
   2  -1 -10    6.14    0.27
  -2   1  10    6.44    0.25
  -2   1  10    6.29    0.26
   1  -1 -10    0.70    0.09
   1  -1 -10    0.80    0.09
  -1   1  10    0.72    0.07
  -1   1  10    0.78    0.09
  -1   1  10    0.69    0.09
   0  -1 -10    0.03    0.05
   0  -1 -10    0.03    0.06
   0   1  10    0.02    0.04
   0   1  10    0.04    0.05
   0   1  10    0.02    0.06
  -1  -1 -10   32.42    1.10
  -1  -1 -10   32.43    1.08
   1   1  10   32.61    1.09
   1   1  10   33.18    1.06
   1   1  10   33.08    1.08
  -2  -1 -10   15.16    0.53
  -2  -1 -10   14.74    0.51
   2   1  10   14.33    0.51
   2   1  10   14.84    0.49
   2   1  10   14.10    0.51
  -3  -1 -10    3.76    0.19
  -3  -1 -10    3.95    0.17
   3   1  10    3.74    0.18
   3   1  10    3.76    0.19
   3   1  10    3.70    0.15
  -4  -1 -10    0.37    0.08
  -4  -1 -10    0.52    0.07
  -4  -1 -10    0.60    0.09
   4   1  10    0.53    0.05
   4   1  10    0.53    0.09
   4   1  10    0.45    0.08
  -5  -1 -10   14.78    0.52
  -5  -1 -10   14.67    0.52
  -5  -1 -10   14.38    0.50
   5   1  10   13.80    0.47
   5   1  10   13.31    0.52
   5   1  10   14.59    0.52
  -6  -1 -10    0.26    0.09
  -6  -1 -10    0.32    0.08
   6   1  10    0.35    0.04
   6   1  10    0.31    0.09
  -7  -1 -10    1.16    0.13
  -7  -1 -10    1.00    0.15
   7   1  10    0.79    0.13
  -8  -1 -10    0.90    0.13
  -8  -1 -10    0.91    0.15
   8   1  10    1.12    0.16
  -5   2  10    0.25    0.12
  -4   2  10    1.72    0.14
  -4   2  10    1.81    0.17
   3  -2 -10    4.85    0.23
  -3   2  10    4.56    0.21
  -3   2  10    4.80    0.23
   2  -2 -10    2.63    0.17
   2  -2 -10    2.39    0.16
  -2   2  10    2.59    0.16
  -2   2  10    2.58    0.13
   1  -2 -10    5.97    0.25
   1  -2 -10    6.18    0.26
  -1   2  10    6.13    0.23
  -1   2  10    6.27    0.26
   0  -2 -10   47.03    1.53
   0  -2 -10   47.31    1.54
   0   2  10   45.78    1.53
   0   2  10   46.52    1.51
  -1  -2 -10   21.06    0.72
  -1  -2 -10   21.66    0.74
   1   2  10   22.39    0.72
   1   2  10   21.30    0.72
   1   2  10   20.39    0.70
  -2  -2 -10    0.23    0.05
  -2  -2 -10    0.27    0.07
   2   2  10    0.19    0.03
   2   2  10    0.23    0.06
   2   2  10    0.21    0.06
  -3  -2 -10    1.95    0.14
  -3  -2 -10    1.96    0.11
   3   2  10    1.95    0.08
   3   2  10    1.85    0.13
   3   2  10    1.94    0.13
  -4  -2 -10    0.33    0.07
  -4  -2 -10    0.40    0.06
   4   2  10    0.23    0.07
   4   2  10    0.29    0.03
   4   2  10    0.27    0.08
  -5  -2 -10    0.11    0.07
  -5  -2 -10    0.15    0.08
  -5  -2 -10    0.11    0.05
   5   2  10    0.11    0.07
   5   2  10    0.19    0.07
  -6  -2 -10    4.48    0.24
  -6  -2 -10    5.23    0.22
   6   2  10    4.69    0.23
   6   2  10    4.91    0.24
  -7  -2 -10    0.08    0.10
  -7  -2 -10    0.05    0.06
   7   2  10    0.08    0.09
  -8  -2 -10    0.05    0.10
  -8  -2 -10    0.01    0.11
   8   2  10   -0.01    0.10
  -5   3  10    0.06    0.11
  -5   3  10    0.06    0.10
  -4   3  10    4.23    0.21
  -4   3  10    4.17    0.24
   3  -3 -10    0.11    0.09
  -3   3  10    0.15    0.06
  -3   3  10    0.08    0.08
   2  -3 -10    1.03    0.12
   2  -3 -10    1.08    0.12
  -2   3  10    0.86    0.10
  -2   3  10    0.82    0.09
   1  -3 -10    0.37    0.09
   1  -3 -10    0.33    0.08
  -1   3  10    0.40    0.06
  -1   3  10    0.35    0.07
   0  -3 -10    8.70    0.33
   0  -3 -10    8.97    0.35
   0   3  10    8.60    0.33
   0   3  10    8.74    0.31
  -1  -3 -10    3.66    0.16
  -1  -3 -10    3.45    0.18
   1   3  10    3.48    0.17
   1   3  10    3.55    0.14
  -2  -3 -10   12.39    0.44
  -2  -3 -10   12.59    0.46
   2   3  10   12.70    0.44
   2   3  10   12.47    0.41
   2   3  10   12.86    0.45
  -3  -3 -10    7.22    0.30
  -3  -3 -10    7.40    0.27
   3   3  10    7.46    0.29
   3   3  10    7.61    0.29
  -4  -3 -10    3.64    0.16
  -4  -3 -10    4.02    0.19
   4   3  10    3.62    0.18
   4   3  10    3.47    0.18
  -5  -3 -10    0.03    0.07
  -5  -3 -10    0.04    0.08
  -5  -3 -10    0.07    0.05
   5   3  10    0.03    0.07
   5   3  10    0.06    0.07
  -6  -3 -10    6.22    0.25
  -6  -3 -10    6.37    0.29
   6   3  10    6.19    0.28
   6   3  10    6.85    0.29
  -7  -3 -10    0.09    0.10
  -7  -3 -10    0.09    0.06
   7   3  10    0.04    0.09
  -8  -3 -10    0.21    0.13
  -8  -3 -10    0.17    0.09
   8   3  10    0.24    0.13
  -5   4  10    0.15    0.11
  -5   4  10    0.13    0.14
  -4   4  10    0.11    0.08
  -4   4  10    0.15    0.11
  -3   4  10    0.92    0.10
   2  -4 -10    0.49    0.10
   2  -4 -10    0.45    0.10
  -2   4  10    0.49    0.07
  -2   4  10    0.37    0.09
   1  -4 -10   21.93    0.75
   1  -4 -10   20.78    0.76
  -1   4  10   21.58    0.75
  -1   4  10   22.66    0.72
   0  -4 -10    0.15    0.08
   0  -4 -10    0.09    0.05
   0   4  10    0.13    0.04
   0   4  10    0.18    0.07
  -1  -4 -10   26.62    0.87
  -1  -4 -10   26.80    0.90
   1   4  10   25.95    0.85
   1   4  10   25.85    0.89
  -2  -4 -10    8.07    0.30
  -2  -4 -10    8.35    0.33
   2   4  10    8.42    0.27
   2   4  10    7.82    0.31
  -3  -4 -10    3.01    0.14
  -3  -4 -10    3.13    0.17
   3   4  10    3.19    0.16
   3   4  10    3.30    0.16
  -4  -4 -10    3.00    0.16
  -4  -4 -10    3.13    0.14
   4   4  10    3.21    0.16
   4   4  10    2.72    0.15
  -5  -4 -10    8.37    0.30
  -5  -4 -10    8.45    0.34
  -5  -4 -10    8.31    0.33
   5   4  10    8.42    0.33
   5   4  10    8.38    0.33
  -6  -4 -10   22.34    0.80
  -6  -4 -10   22.95    0.76
   6   4  10   22.63    0.79
   6   4  10   22.57    0.79
  -7  -4 -10    1.13    0.11
  -7  -4 -10    0.98    0.13
   7   4  10    1.00    0.13
   7   4  10    0.92    0.12
  -8  -4 -10    0.21    0.11
  -8  -4 -10    0.28    0.08
   8   4  10    0.42    0.13
   9   4  10    0.19    0.21
  -4   5  10    0.58    0.10
  -4   5  10    0.48    0.12
  -3   5  10    0.06    0.07
  -3   5  10    0.07    0.10
   2  -5 -10    0.02    0.09
   2  -5 -10    0.03    0.07
  -2   5  10   -0.02    0.05
  -2   5  10    0.06    0.08
   1  -5 -10    0.90    0.11
   1  -5 -10    0.61    0.08
  -1   5  10    0.77    0.11
  -1   5  10    0.83    0.08
   0  -5 -10    5.07    0.23
   0  -5 -10    5.34    0.24
   0   5  10    5.65    0.20
   0   5  10    5.39    0.24
  -1  -5 -10    1.70    0.14
  -1  -5 -10    1.68    0.10
   1   5  10    1.45    0.11
   1   5  10    1.45    0.07
  -2  -5 -10    0.63    0.09
  -2  -5 -10    0.62    0.08
   2   5  10    0.60    0.09
  -3  -5 -10    5.96    0.25
  -3  -5 -10    5.42    0.21
   3   5  10    5.24    0.23
  -4  -5 -10    0.01    0.04
  -4  -5 -10   -0.01    0.07
   4   5  10   -0.02    0.06
   4   5  10    0.05    0.06
  -5  -5 -10    0.22    0.05
  -5  -5 -10    0.19    0.08
   5   5  10    0.21    0.07
   5   5  10    0.12    0.08
  -6  -5 -10    3.81    0.16
  -6  -5 -10    4.17    0.22
   6   5  10    3.75    0.21
   6   5  10    3.80    0.20
  -7  -5 -10    9.93    0.36
  -7  -5 -10   10.51    0.41
   7   5  10    9.91    0.40
   7   5  10    9.47    0.40
  -8  -5 -10    1.89    0.13
  -8  -5 -10    1.58    0.18
   8   5  10    1.57    0.17
  -9  -5 -10    3.73    0.26
  -4   6  10    9.23    0.41
  -4   6  10    9.32    0.36
  -3   6  10    3.09    0.22
  -3   6  10    3.40    0.17
   2  -6 -10    1.33    0.16
   2  -6 -10    1.52    0.15
  -2   6  10    1.57    0.11
  -2   6  10    1.55    0.14
   1  -6 -10    3.25    0.20
   1  -6 -10    3.07    0.18
  -1   6  10    2.94    0.13
  -1   6  10    3.08    0.18
   0  -6 -10    4.84    0.22
   0  -6 -10    4.89    0.24
   0   6  10    4.95    0.18
   0   6  10    5.12    0.23
  -1  -6 -10    0.06    0.05
  -1  -6 -10    0.05    0.07
   1   6  10    0.05    0.06
   1   6  10    0.11    0.06
  -2  -6 -10    0.00    0.04
  -2  -6 -10    0.01    0.07
   2   6  10    0.02    0.06
  -3  -6 -10    9.29    0.36
  -3  -6 -10    9.25    0.32
   3   6  10    8.92    0.35
  -4  -6 -10    0.90    0.07
  -4  -6 -10    0.80    0.10
   4   6  10    0.85    0.10
  -5  -6 -10    2.47    0.17
  -5  -6 -10    2.39    0.11
   5   6  10    2.58    0.16
   5   6  10    2.64    0.16
  -6  -6 -10    0.01    0.08
  -6  -6 -10    0.01    0.04
   6   6  10    0.00    0.09
   6   6  10    0.01    0.08
  -7  -6 -10    0.40    0.06
  -7  -6 -10    0.45    0.12
   7   6  10    0.54    0.11
   7   6  10    0.47    0.11
  -8  -6 -10    0.01    0.12
  -8  -6 -10    0.01    0.06
   8   6  10   -0.01    0.12
  -9  -6 -10    1.15    0.18
   9   6  10    1.29    0.21
  -3   7  10    7.45    0.35
  -3   7  10    7.44    0.29
   2  -7 -10    6.14    0.29
   2  -7 -10    5.28    0.27
  -2   7  10    5.58    0.27
  -2   7  10    5.44    0.22
  -2   7  10    5.28    0.26
   1  -7 -10    5.06    0.26
   1  -7 -10    5.16    0.24
  -1   7  10    4.90    0.24
  -1   7  10    5.36    0.20
  -1   7  10    4.72    0.25
   0  -7 -10    0.42    0.10
   0  -7 -10    0.36    0.08
   0   7  10    0.46    0.05
   0   7  10    0.54    0.09
   0   7  10    0.52    0.10
  -1  -7 -10    4.15    0.22
  -1  -7 -10    3.99    0.18
   1   7  10    3.96    0.21
   1   7  10    3.71    0.19
  -2  -7 -10   20.66    0.71
  -2  -7 -10   20.51    0.67
   2   7  10   19.21    0.69
   2   7  10   19.45    0.70
  -3  -7 -10    0.63    0.07
  -3  -7 -10    0.70    0.10
   3   7  10    0.78    0.10
   3   7  10    0.72    0.09
  -4  -7 -10    0.11    0.09
  -4  -7 -10    0.12    0.04
   4   7  10    0.15    0.07
  -5  -7 -10    5.45    0.21
  -5  -7 -10    6.25    0.27
   5   7  10    5.60    0.25
  -6  -7 -10    5.54    0.27
  -6  -7 -10    5.74    0.21
   6   7  10    4.99    0.25
   6   7  10    5.93    0.27
  -7  -7 -10    0.01    0.05
  -7  -7 -10    0.06    0.11
   7   7  10    0.00    0.10
   7   7  10   -0.02    0.10
  -8  -7 -10    0.13    0.13
  -8  -7 -10    0.18    0.07
   8   7  10    0.05    0.12
  -3   8  10    1.38    0.20
   2  -8 -10    1.42    0.15
   2  -8 -10    1.43    0.18
  -2   8  10    1.31    0.11
  -2   8  10    1.29    0.15
  -2   8  10    1.38    0.16
   1  -8 -10    0.15    0.12
   1  -8 -10    0.17    0.09
  -1   8  10    0.22    0.11
  -1   8  10    0.17    0.05
  -1   8  10    0.27    0.11
   0  -8 -10    3.43    0.18
   0  -8 -10    2.92    0.20
   0   8  10    3.37    0.19
   0   8  10    3.18    0.19
  -1  -8 -10    0.06    0.06
  -1  -8 -10    0.04    0.08
   1   8  10    0.09    0.08
   1   8  10    0.11    0.08
  -2  -8 -10    8.01    0.30
  -2  -8 -10    7.98    0.34
   2   8  10    7.93    0.32
   2   8  10    7.82    0.33
  -3  -8 -10    2.02    0.17
  -3  -8 -10    1.57    0.10
   3   8  10    1.58    0.14
   3   8  10    1.74    0.15
  -4  -8 -10    1.73    0.16
  -4  -8 -10    1.45    0.09
   4   8  10    1.79    0.14
   4   8  10    1.67    0.14
  -5  -8 -10    0.57    0.06
  -5  -8 -10    0.41    0.11
   5   8  10    0.60    0.10
  -6  -8 -10    1.26    0.15
  -6  -8 -10    1.28    0.08
   6   8  10    1.32    0.15
  -7  -8 -10    0.00    0.11
  -7  -8 -10   -0.01    0.04
   7   8  10    0.01    0.12
   7   8  10   -0.01    0.11
  -8  -8 -10    0.13    0.06
  -8  -8 -10    0.20    0.14
   8   8  10    0.10    0.13
   2  -9 -10    0.03    0.12
   2  -9 -10   -0.01    0.15
  -2   9  10    0.08    0.13
  -2   9  10    0.03    0.06
  -2   9  10    0.01    0.12
   1  -9 -10    0.02    0.10
   1  -9 -10   -0.01    0.12
  -1   9  10    0.00    0.04
  -1   9  10   -0.01    0.10
  -1   9  10    0.03    0.11
   0  -9 -10    2.38    0.22
   0   9  10    2.36    0.19
   0   9  10    2.20    0.18
  -1  -9 -10    0.11    0.10
   1   9  10    0.12    0.09
   1   9  10    0.19    0.10
  -2  -9 -10   -0.01    0.10
   2   9  10    0.07    0.09
   2   9  10    0.12    0.09
  -3  -9 -10    0.62    0.11
  -3  -9 -10    0.60    0.07
   3   9  10    0.61    0.11
   3   9  10    0.59    0.11
  -4  -9 -10    0.03    0.09
  -4  -9 -10    0.01    0.04
   4   9  10    0.02    0.09
   4   9  10    0.00    0.09
  -5  -9 -10    0.49    0.05
  -5  -9 -10    0.49    0.11
   5   9  10    0.46    0.11
   5   9  10    0.45    0.11
  -6  -9 -10    0.73    0.14
  -6  -9 -10    0.89    0.07
   6   9  10    1.06    0.14
  -7  -9 -10    1.97    0.09
  -7  -9 -10    1.73    0.20
   7   9  10    1.72    0.19
  -8  -9 -10    0.02    0.22
  -8  -9 -10    0.04    0.06
   1 -10 -10    0.65    0.17
  -1  10  10    0.55    0.14
  -1  10  10    0.52    0.14
   0 -10 -10    0.06    0.12
   0 -10 -10    0.09    0.09
   0  10  10    0.07    0.11
   0  10  10    0.09    0.11
  -1 -10 -10    0.13    0.12
  -1 -10 -10    0.09    0.08
   1  10  10    0.07    0.11
   1  10  10    0.11    0.10
  -2 -10 -10    1.37    0.17
  -2 -10 -10    1.33    0.12
   2  10  10    1.38    0.15
   2  10  10    1.33    0.15
  -3 -10 -10    0.03    0.11
  -3 -10 -10    0.07    0.06
   3  10  10    0.06    0.09
   3  10  10    0.03    0.10
  -4 -10 -10   -0.04    0.11
   4  10  10   -0.03    0.08
   4  10  10   -0.03    0.10
  -5 -10 -10    2.50    0.12
  -5 -10 -10    2.67    0.22
   5  10  10    2.72    0.19
   5  10  10    2.46    0.19
   6  10  10    1.29    0.15
   0 -11 -10   -0.02    0.22
   0 -11 -10    0.10    0.17
   0  11  10    0.01    0.24
   0  11  10    0.04    0.13
  -1 -11 -10    0.02    0.09
  -1 -11 -10   -0.01    0.13
   1  11  10   -0.06    0.11
   1  11  10    0.05    0.12
  -2 -11 -10    1.36    0.18
  -2 -11 -10    1.59    0.14
   2  11  10    1.45    0.17
  -3 -11 -10    0.59    0.14
  -3 -11 -10    0.67    0.09
   3  11  10    0.64    0.13
  -4 -11 -10    5.30    0.29
  -4 -11 -10    5.25    0.21
   4  11  10    5.11    0.29
  -5 -11 -10    4.57    0.29
  -5 -11 -10    4.63    0.18
   5  11  10    4.59    0.28
   6  11  10    0.06    0.13
  -3 -12 -10    0.60    0.26
  -4 -12 -10    4.88    0.30
  -4 -12 -10    5.11    0.22
   4  12  10    4.99    0.28
  -5 -12 -10    7.29    0.27
  -5 -12 -10    7.57    0.39
   5  12  10    6.81    0.36
   1   8 -11    0.06    0.12
   0   8 -11    0.52    0.13
   3   7 -11    0.88    0.13
   3   7 -11    0.93    0.19
   2   7 -11    6.50    0.36
   2   7 -11    7.41    0.31
  -2  -7  11    6.88    0.37
   1   7 -11    0.04    0.11
   1   7 -11    0.06    0.14
  -1  -7  11    0.01    0.14
   0   7 -11    1.94    0.21
   0   7 -11    2.49    0.20
   0  -7  11    2.66    0.23
  -1   7 -11    6.08    0.33
   1  -7  11    6.25    0.33
  -2   7 -11    0.28    0.16
   2  -7  11    0.33    0.15
  -3   7 -11    3.75    0.34
   4   6 -11    1.63    0.18
   3   6 -11    0.04    0.10
   3   6 -11    0.11    0.14
  -3  -6  11    0.01    0.14
   2   6 -11    4.20    0.22
   2   6 -11    4.14    0.27
  -2  -6  11    4.13    0.26
   1   6 -11    4.58    0.27
   1   6 -11    4.93    0.24
  -1  -6  11    4.70    0.27
   0   6 -11    5.07    0.30
   0  -6  11    5.69    0.30
  -1   6 -11    0.22    0.13
   1  -6  11    0.43    0.14
  -2   6 -11    4.43    0.26
  -3   6 -11    1.55    0.20
   3  -6  11    1.82    0.22
   3  -6  11    1.73    0.17
  -4   6 -11    1.38    0.20
   4  -6  11    1.10    0.17
   4  -6  11    1.09    0.14
   4   5 -11    1.59    0.18
  -4  -5  11    1.96    0.21
   3   5 -11    0.42    0.14
   3   5 -11    0.34    0.10
  -3  -5  11    0.28    0.12
   2   5 -11    0.22    0.10
   2   5 -11    0.27    0.12
  -2  -5  11    0.14    0.11
   1   5 -11   11.36    0.43
   1   5 -11   11.29    0.46
  -1  -5  11   11.13    0.47
   0   5 -11    0.15    0.11
   0  -5  11    0.10    0.11
  -1   5 -11    2.17    0.19
   1  -5  11    2.29    0.15
   1  -5  11    2.05    0.19
  -2   5 -11   12.54    0.50
   2  -5  11   12.46    0.46
   2  -5  11   12.50    0.50
  -3   5 -11    0.66    0.15
   3  -5  11    0.55    0.13
  -4   5 -11    0.24    0.14
   4  -5  11    0.31    0.10
   4  -5  11    0.34    0.13
  -5   5 -11    1.89    0.21
   5  -5  11    2.07    0.18
   5  -5  11    1.99    0.24
   5   4 -11    3.08    0.22
  -5  -4  11    3.24    0.28
   4   4 -11    1.56    0.16
   3   4 -11    6.61    0.32
   3   4 -11    6.34    0.29
  -3  -4  11    6.60    0.33
   2   4 -11    0.17    0.09
   2   4 -11    0.23    0.11
  -2  -4  11    0.28    0.12
   1   4 -11    2.13    0.18
  -1  -4  11    2.00    0.18
   0   4 -11    0.06    0.09
   0  -4  11    0.01    0.10
   0  -4  11    0.02    0.07
  -1   4 -11    0.02    0.10
   1  -4  11   -0.03    0.06
   1  -4  11    0.00    0.09
  -2   4 -11    1.45    0.15
   2  -4  11    1.36    0.13
   2  -4  11    1.47    0.15
  -3   4 -11    0.78    0.13
   3  -4  11    0.61    0.12
  -4   4 -11    0.26    0.12
   4  -4  11    0.12    0.08
   4  -4  11    0.17    0.12
  -5   4 -11   -0.02    0.12
   5  -4  11   -0.01    0.13
   5  -4  11   -0.03    0.08
   6  -4  11    0.09    0.11
   6  -4  11    0.30    0.25
   5   3 -11    4.10    0.25
   4   3 -11    3.37    0.21
   3   3 -11    3.11    0.23
   3   3 -11    3.66    0.20
  -3  -3  11    3.27    0.22
   2   3 -11    0.26    0.11
  -2  -3  11    0.19    0.11
   1   3 -11    0.66    0.11
  -1  -3  11    0.79    0.12
  -1  -3  11    0.49    0.08
   0   3 -11    0.12    0.09
   0  -3  11    0.12    0.09
   0  -3  11    0.15    0.07
  -1   3 -11    5.15    0.25
   1  -3  11    5.37    0.25
   1  -3  11    5.31    0.23
  -2   3 -11    7.55    0.34
   2  -3  11    8.94    0.32
  -3   3 -11    0.08    0.10
   3  -3  11    0.23    0.07
   3  -3  11    0.17    0.09
  -4   3 -11    0.21    0.11
   4  -3  11    0.22    0.10
   4  -3  11    0.17    0.07
  -5   3 -11    0.23    0.12
   5  -3  11    0.24    0.11
   5  -3  11    0.12    0.08
  -6   3 -11    0.07    0.13
   6  -3  11    0.04    0.08
   6  -3  11    0.04    0.12
   5   2 -11    2.12    0.20
   3   2 -11    0.00    0.10
  -3  -2  11    0.05    0.09
   2   2 -11    0.27    0.09
  -2  -2  11    0.39    0.08
  -2  -2  11    0.25    0.10
   1   2 -11    0.83    0.12
  -1  -2  11    0.72    0.08
  -1  -2  11    1.08    0.13
   0   2 -11    5.90    0.27
   0  -2  11    5.86    0.24
   0  -2  11    5.74    0.27
  -1   2 -11    7.70    0.33
   1  -2  11    7.31    0.31
   1  -2  11    7.57    0.29
   1  -2  11    7.67    0.31
  -2   2 -11    2.56    0.18
  -2   2 -11    2.40    0.17
   2  -2  11    2.81    0.14
   2  -2  11    2.57    0.15
   2  -2  11    2.61    0.18
  -3   2 -11    0.74    0.11
  -3   2 -11    0.77    0.10
  -3   2 -11    0.55    0.10
   3  -2  11    0.66    0.10
   3  -2  11    0.52    0.09
  -4   2 -11    9.85    0.38
  -4   2 -11    9.35    0.37
  -4   2 -11    8.76    0.37
   4  -2  11    9.41    0.36
   4  -2  11    8.28    0.37
   4  -2  11    9.10    0.34
  -5   2 -11    0.31    0.10
  -5   2 -11    0.25    0.11
  -5   2 -11    0.19    0.11
   5  -2  11    0.05    0.11
   5  -2  11    0.22    0.07
  -6   2 -11    2.45    0.21
  -6   2 -11    3.06    0.21
   6  -2  11    2.57    0.15
   6  -2  11    2.90    0.23
  -7   2 -11    0.12    0.15
  -7   2 -11    0.06    0.12
   7  -2  11    0.12    0.07
   7  -2  11    0.18    0.15
   3   1 -11    0.05    0.10
  -3  -1  11    0.03    0.08
   2   1 -11    1.17    0.15
  -2  -1  11    1.19    0.12
  -2  -1  11    1.33    0.12
  -2  -1  11    1.25    0.14
   1   1 -11    0.46    0.10
  -1  -1  11    0.57    0.08
  -1  -1  11    0.61    0.08
  -1  -1  11    0.56    0.10
   0   1 -11    0.53    0.10
   0  -1  11    0.47    0.09
   0  -1  11    0.44    0.07
   0  -1  11    0.50    0.08
  -1   1 -11   25.56    0.87
  -1   1 -11   25.71    0.89
   1  -1  11   26.86    0.87
   1  -1  11   25.88    0.88
   1  -1  11   24.77    0.85
  -2   1 -11    5.35    0.24
  -2   1 -11    5.26    0.25
   2  -1  11    5.75    0.22
   2  -1  11    5.36    0.25
   2  -1  11    5.70    0.24
  -3   1 -11    1.25    0.13
  -3   1 -11    1.26    0.12
  -3   1 -11    1.39    0.13
   3  -1  11    1.08    0.12
   3  -1  11    1.15    0.09
   3  -1  11    1.18    0.13
  -4   1 -11    0.50    0.09
  -4   1 -11    0.56    0.10
  -4   1 -11    0.45    0.11
   4  -1  11    0.42    0.10
   4  -1  11    0.42    0.06
   4  -1  11    0.37    0.08
  -5   1 -11   10.70    0.43
  -5   1 -11   11.85    0.44
  -5   1 -11   11.91    0.45
   5  -1  11   10.73    0.39
   5  -1  11   11.07    0.45
  -6   1 -11    7.86    0.34
  -6   1 -11    8.31    0.36
   6  -1  11    7.81    0.29
   6  -1  11    8.16    0.36
  -7   1 -11    1.03    0.16
  -7   1 -11    0.86    0.14
   7  -1  11    1.46    0.18
   7  -1  11    1.23    0.10
  -5   0  11   18.38    0.70
  -4   0  11    0.17    0.11
   3   0 -11    4.17    0.23
  -3   0  11    4.35    0.21
  -3   0  11    4.01    0.20
   2   0 -11    0.06    0.09
  -2   0  11    0.07    0.07
  -2   0  11    0.06    0.08
   1   0 -11    0.25    0.09
  -1   0  11    0.15    0.06
  -1   0  11    0.24    0.08
  -1   0  11    0.18    0.08
   0   0 -11    6.09    0.28
   0   0 -11    6.29    0.27
   0   0  11    6.72    0.27
   0   0  11    6.60    0.26
   0   0  11    6.39    0.24
  -1   0 -11   34.16    1.18
  -1   0 -11   35.57    1.19
   1   0  11   35.67    1.17
   1   0  11   36.54    1.16
   1   0  11   35.31    1.18
  -2   0 -11    0.02    0.07
  -2   0 -11   -0.01    0.06
   2   0  11    0.01    0.04
   2   0  11    0.00    0.06
   2   0  11    0.01    0.07
  -3   0 -11    4.44    0.22
  -3   0 -11    3.84    0.19
   3   0  11    4.21    0.20
   3   0  11    3.94    0.17
   3   0  11    4.01    0.20
  -4   0 -11   -0.01    0.07
  -4   0 -11    0.01    0.07
  -4   0 -11   -0.04    0.06
   4   0  11   -0.01    0.07
   4   0  11   -0.02    0.08
   4   0  11    0.03    0.04
  -5   0 -11    1.06    0.12
  -5   0 -11    0.97    0.13
  -5   0 -11    1.11    0.13
   5   0  11    1.06    0.08
   5   0  11    1.08    0.12
   5   0  11    1.09    0.13
  -6   0 -11    0.20    0.11
  -6   0 -11    0.21    0.09
   6   0  11    0.32    0.11
   6   0  11    0.25    0.05
  -7   0 -11    2.12    0.19
   7   0  11    2.27    0.11
   7   0  11    1.85    0.19
  -8   0 -11    0.85    0.16
  -8   0 -11    1.08    0.16
  -5   1  11    0.15    0.14
  -4   1  11    1.93    0.16
  -4   1  11    2.02    0.18
  -3   1  11    2.28    0.17
  -3   1  11    2.28    0.15
   2  -1 -11   12.96    0.48
  -2   1  11   12.47    0.47
  -2   1  11   12.92    0.45
   1  -1 -11    0.07    0.07
   1  -1 -11    0.02    0.08
  -1   1  11    0.05    0.05
  -1   1  11    0.03    0.06
   0  -1 -11   26.72    0.91
   0  -1 -11   25.59    0.89
   0   1  11   26.05    0.87
   0   1  11   27.25    0.89
   0   1  11   26.63    0.89
  -1  -1 -11   -0.02    0.07
  -1  -1 -11    0.06    0.06
   1   1  11    0.05    0.07
   1   1  11    0.11    0.04
   1   1  11    0.08    0.06
  -2  -1 -11    6.93    0.29
  -2  -1 -11    6.97    0.28
   2   1  11    7.26    0.26
   2   1  11    7.34    0.29
   2   1  11    7.04    0.28
  -3  -1 -11    7.85    0.30
  -3  -1 -11    8.21    0.33
   3   1  11    7.72    0.31
   3   1  11    7.75    0.27
   3   1  11    7.55    0.32
  -4  -1 -11    7.55    0.30
  -4  -1 -11    6.81    0.29
  -4  -1 -11    7.03    0.28
   4   1  11    6.52    0.28
   4   1  11    6.53    0.29
   4   1  11    7.05    0.24
  -5  -1 -11    0.67    0.08
  -5  -1 -11    0.85    0.11
  -5  -1 -11    0.72    0.11
   5   1  11    0.81    0.06
   5   1  11    0.71    0.11
   5   1  11    0.78    0.10
  -6  -1 -11    1.55    0.17
  -6  -1 -11    1.30    0.13
   6   1  11    1.45    0.16
   6   1  11    1.54    0.07
   6   1  11    1.58    0.16
  -7  -1 -11    0.24    0.11
  -7  -1 -11    0.24    0.09
   7   1  11    0.30    0.12
  -8  -1 -11    0.00    0.11
  -8  -1 -11    0.00    0.14
   8   1  11   -0.04    0.12
  -5   2  11    0.12    0.14
  -4   2  11    3.40    0.23
  -4   2  11    3.78    0.20
  -3   2  11    2.43    0.15
  -3   2  11    2.12    0.17
   2  -2 -11    2.89    0.19
  -2   2  11    2.89    0.15
  -2   2  11    2.98    0.17
   1  -2 -11    0.37    0.09
   1  -2 -11    0.30    0.09
  -1   2  11    0.27    0.07
  -1   2  11    0.28    0.06
   0  -2 -11   14.43    0.54
   0  -2 -11   14.76    0.53
   0   2  11   14.86    0.50
   0   2  11   15.19    0.53
  -1  -2 -11   29.86    0.99
  -1  -2 -11   29.48    0.97
   1   2  11   28.61    0.97
   1   2  11   28.75    0.98
   1   2  11   28.77    0.95
  -2  -2 -11   14.53    0.53
  -2  -2 -11   14.38    0.51
   2   2  11   14.70    0.51
   2   2  11   14.05    0.48
   2   2  11   14.96    0.52
  -3  -2 -11    4.92    0.21
  -3  -2 -11    5.07    0.23
   3   2  11    5.14    0.23
   3   2  11    5.10    0.22
   3   2  11    5.09    0.18
  -4  -2 -11    0.18    0.06
  -4  -2 -11    0.08    0.08
   4   2  11    0.08    0.03
   4   2  11    0.06    0.07
   4   2  11    0.19    0.08
  -5  -2 -11    4.03    0.22
  -5  -2 -11    4.12    0.22
  -5  -2 -11    4.00    0.19
   5   2  11    4.05    0.21
   5   2  11    4.16    0.21
  -6  -2 -11    0.44    0.08
  -6  -2 -11    0.50    0.10
   6   2  11    0.49    0.10
   6   2  11    0.41    0.10
  -7  -2 -11    9.83    0.39
  -7  -2 -11    9.93    0.42
   7   2  11    9.93    0.41
  -8  -2 -11    0.13    0.09
  -8  -2 -11    0.03    0.14
   8   2  11    0.16    0.13
  -4   3  11    1.24    0.15
  -4   3  11    1.51    0.15
  -3   3  11    7.05    0.32
  -3   3  11    7.14    0.28
   2  -3 -11    2.23    0.20
   2  -3 -11    2.34    0.16
  -2   3  11    2.44    0.16
  -2   3  11    2.25    0.13
   1  -3 -11    0.06    0.07
   1  -3 -11    0.06    0.07
  -1   3  11    0.00    0.07
  -1   3  11    0.02    0.05
   0  -3 -11    1.82    0.12
   0  -3 -11    1.76    0.14
   0   3  11    1.53    0.12
   0   3  11    1.73    0.09
  -1  -3 -11    9.42    0.38
  -1  -3 -11    9.98    0.36
   1   3  11    9.90    0.37
   1   3  11    9.61    0.33
  -2  -3 -11    1.61    0.13
  -2  -3 -11    1.88    0.11
   2   3  11    1.70    0.12
   2   3  11    1.67    0.08
   2   3  11    1.62    0.13
  -3  -3 -11    0.08    0.07
  -3  -3 -11    0.09    0.05
   3   3  11    0.04    0.06
   3   3  11    0.12    0.07
   3   3  11    0.11    0.02
  -4  -3 -11    9.92    0.39
  -4  -3 -11   10.19    0.36
   4   3  11   10.01    0.39
   4   3  11   10.07    0.39
  -5  -3 -11    0.85    0.09
  -5  -3 -11    0.73    0.11
  -5  -3 -11    1.05    0.12
   5   3  11    0.78    0.11
   5   3  11    0.70    0.10
  -6  -3 -11    1.49    0.12
  -6  -3 -11    1.46    0.16
   6   3  11    1.80    0.16
   6   3  11    1.78    0.15
  -7  -3 -11    1.47    0.14
  -7  -3 -11    1.36    0.16
   7   3  11    1.62    0.18
  -8  -3 -11    2.56    0.18
  -8  -3 -11    2.85    0.22
   8   3  11    2.80    0.22
  -4   4  11    7.49    0.35
  -4   4  11    7.23    0.31
  -3   4  11    3.49    0.17
  -3   4  11    3.13    0.21
   2  -4 -11    4.08    0.23
   2  -4 -11    4.01    0.23
  -2   4  11    4.19    0.22
  -2   4  11    4.03    0.18
   1  -4 -11    0.27    0.09
   1  -4 -11    0.43    0.09
  -1   4  11    0.31    0.06
  -1   4  11    0.33    0.08
   0  -4 -11    4.92    0.22
   0  -4 -11    4.69    0.23
   0   4  11    5.19    0.23
   0   4  11    4.73    0.19
  -1  -4 -11    2.83    0.18
  -1  -4 -11    2.99    0.15
   1   4  11    3.03    0.12
   1   4  11    3.17    0.17
  -2  -4 -11    0.01    0.06
  -2  -4 -11   -0.01    0.05
   2   4  11    0.00    0.02
   2   4  11   -0.04    0.06
  -3  -4 -11    4.80    0.20
  -3  -4 -11    5.06    0.24
   3   4  11    5.37    0.23
   3   4  11    4.90    0.22
  -4  -4 -11    2.21    0.12
  -4  -4 -11    2.25    0.16
   4   4  11    2.40    0.15
   4   4  11    2.42    0.15
  -5  -4 -11    5.11    0.21
  -5  -4 -11    5.09    0.25
  -5  -4 -11    5.02    0.24
   5   4  11    5.29    0.25
   5   4  11    5.27    0.24
  -6  -4 -11   -0.01    0.08
  -6  -4 -11   -0.02    0.05
   6   4  11   -0.02    0.07
   6   4  11   -0.01    0.08
  -7  -4 -11    0.45    0.11
  -7  -4 -11    0.54    0.09
   7   4  11    0.38    0.10
   7   4  11    0.47    0.12
  -8  -4 -11    0.02    0.07
  -8  -4 -11    0.03    0.13
   8   4  11    0.08    0.13
  -4   5  11   -0.02    0.09
  -4   5  11    0.06    0.13
  -3   5  11    9.32    0.36
  -3   5  11    9.78    0.41
   2  -5 -11    4.18    0.23
   2  -5 -11    3.59    0.23
  -2   5  11    4.09    0.22
  -2   5  11    3.78    0.18
   1  -5 -11    3.61    0.20
   1  -5 -11    3.66    0.21
  -1   5  11    3.53    0.20
  -1   5  11    3.55    0.16
   0  -5 -11    0.05    0.08
   0  -5 -11    0.01    0.06
   0   5  11    0.03    0.07
   0   5  11    0.02    0.04
  -1  -5 -11    0.01    0.06
  -1  -5 -11    0.02    0.07
   1   5  11    0.02    0.03
   1   5  11   -0.01    0.07
  -2  -5 -11    0.14    0.05
  -2  -5 -11    0.13    0.07
   2   5  11    0.11    0.07
  -3  -5 -11   11.00    0.42
  -3  -5 -11   10.42    0.38
   3   5  11   11.19    0.41
  -4  -5 -11    2.45    0.12
  -4  -5 -11    2.42    0.16
   4   5  11    2.40    0.15
  -5  -5 -11    0.70    0.08
  -5  -5 -11    0.79    0.12
   5   5  11    0.78    0.11
   5   5  11    0.87    0.11
  -6  -5 -11    0.84    0.09
  -6  -5 -11    1.14    0.18
  -6  -5 -11    0.98    0.13
   6   5  11    0.87    0.12
   6   5  11    0.72    0.11
  -7  -5 -11    0.06    0.11
  -7  -5 -11    0.14    0.06
   7   5  11    0.19    0.11
   7   5  11    0.14    0.11
  -8  -5 -11    0.29    0.08
  -8  -5 -11    0.45    0.15
   8   5  11    0.48    0.15
  -3   6  11    1.13    0.15
  -3   6  11    0.98    0.10
   2  -6 -11    0.25    0.12
   2  -6 -11    0.10    0.10
  -2   6  11    0.16    0.06
  -2   6  11    0.20    0.10
   1  -6 -11    0.54    0.12
   1  -6 -11    0.50    0.09
  -1   6  11    0.49    0.06
  -1   6  11    0.50    0.10
   0  -6 -11    0.28    0.10
   0  -6 -11    0.26    0.07
   0   6  11    0.17    0.08
   0   6  11    0.19    0.04
  -1  -6 -11    0.23    0.09
  -1  -6 -11    0.26    0.06
   1   6  11    0.33    0.09
  -2  -6 -11    3.36    0.16
  -2  -6 -11    3.44    0.19
   2   6  11    3.24    0.18
  -3  -6 -11    4.84    0.20
  -3  -6 -11    5.04    0.25
   3   6  11    5.04    0.23
  -4  -6 -11    0.40    0.06
  -4  -6 -11    0.32    0.09
   4   6  11    0.44    0.09
  -5  -6 -11    0.03    0.05
  -5  -6 -11    0.09    0.09
   5   6  11    0.05    0.08
  -6  -6 -11    0.72    0.12
  -6  -6 -11    0.65    0.08
  -6  -6 -11    0.69    0.12
   6   6  11    0.68    0.11
   6   6  11    0.85    0.13
  -7  -6 -11    0.32    0.06
  -7  -6 -11    0.38    0.11
   7   6  11    0.34    0.11
   7   6  11    0.32    0.11
  -8  -6 -11    1.71    0.14
  -8  -6 -11    1.70    0.19
   8   6  11    1.68    0.19
  -3   7  11    3.54    0.38
   2  -7 -11    0.74    0.15
   2  -7 -11    0.59    0.12
  -2   7  11    0.56    0.08
  -2   7  11    0.50    0.13
   1  -7 -11    4.31    0.26
   1  -7 -11    4.39    0.23
  -1   7  11    4.17    0.24
  -1   7  11    4.32    0.17
   0  -7 -11    0.27    0.08
   0  -7 -11    0.13    0.09
   0   7  11    0.22    0.03
   0   7  11    0.21    0.09
  -1  -7 -11    0.06    0.06
  -1  -7 -11   -0.02    0.09
   1   7  11    0.04    0.08
  -2  -7 -11    1.98    0.17
  -2  -7 -11    1.84    0.12
   2   7  11    1.72    0.13
  -3  -7 -11    8.12    0.35
  -3  -7 -11    8.52    0.31
   3   7  11    8.25    0.34
  -4  -7 -11    0.46    0.06
  -4  -7 -11    0.64    0.12
   4   7  11    0.52    0.10
  -5  -7 -11    0.81    0.08
  -5  -7 -11    0.84    0.13
   5   7  11    0.80    0.11
  -6  -7 -11    0.18    0.05
  -6  -7 -11    0.16    0.10
  -6  -7 -11    0.24    0.10
   6   7  11    0.09    0.09
  -7  -7 -11    7.58    0.28
  -7  -7 -11    7.72    0.35
   7   7  11    7.70    0.35
   7   7  11    7.51    0.34
  -8  -7 -11    4.64    0.21
  -8  -7 -11    5.33    0.31
   8   7  11    4.88    0.29
   2  -8 -11    0.04    0.12
   2  -8 -11    0.00    0.14
  -2   8  11    0.00    0.13
  -2   8  11    0.04    0.07
   1  -8 -11    1.79    0.20
   1  -8 -11    1.85    0.18
  -1   8  11    1.60    0.18
  -1   8  11    1.68    0.10
  -1   8  11    1.65    0.18
   0  -8 -11    3.01    0.18
   0  -8 -11    2.67    0.20
   0   8  11    2.69    0.19
   0   8  11    2.57    0.19
  -1  -8 -11    0.03    0.09
  -1  -8 -11    0.06    0.07
   1   8  11    0.06    0.09
   1   8  11    0.08    0.08
  -2  -8 -11    0.24    0.10
  -2  -8 -11    0.38    0.07
   2   8  11    0.47    0.10
   2   8  11    0.55    0.10
  -3  -8 -11   11.95    0.42
  -3  -8 -11   12.14    0.47
   3   8  11   11.41    0.46
   3   8  11   11.74    0.45
  -4  -8 -11    4.09    0.24
  -4  -8 -11    4.30    0.18
   4   8  11    4.24    0.22
  -5  -8 -11    3.65    0.15
  -5  -8 -11    3.91    0.22
   5   8  11    3.59    0.21
  -6  -8 -11    5.77    0.21
  -6  -8 -11    5.60    0.29
  -6  -8 -11    5.67    0.28
   6   8  11    5.41    0.27
  -7  -8 -11    1.37    0.16
  -7  -8 -11    1.30    0.10
   7   8  11    1.22    0.15
  -8  -8 -11    0.94    0.10
  -8  -8 -11    1.09    0.19
   8   8  11    0.72    0.19
   8   8  11    0.86    0.17
   1  -9 -11    1.06    0.14
   1  -9 -11    1.05    0.17
  -1   9  11    1.05    0.15
  -1   9  11    0.99    0.08
  -1   9  11    0.79    0.16
   0  -9 -11    3.23    0.20
   0  -9 -11    2.96    0.24
   0   9  11    2.63    0.19
   0   9  11    3.32    0.23
  -1  -9 -11    1.45    0.18
  -1  -9 -11    1.36    0.14
   1   9  11    1.52    0.16
   1   9  11    1.57    0.16
  -2  -9 -11    1.48    0.17
  -2  -9 -11    1.79    0.13
   2   9  11    1.62    0.17
   2   9  11    1.68    0.15
  -3  -9 -11    1.07    0.10
  -3  -9 -11    1.04    0.15
   3   9  11    0.94    0.13
   3   9  11    1.13    0.13
  -4  -9 -11    0.82    0.14
  -4  -9 -11    1.05    0.09
   4   9  11    0.74    0.12
   4   9  11    1.05    0.13
  -5  -9 -11    4.85    0.26
  -5  -9 -11    4.18    0.18
   5   9  11    4.38    0.24
  -6  -9 -11   17.22    0.58
  -6  -9 -11   17.20    0.66
  -6  -9 -11   18.00    0.66
   6   9  11   17.91    0.65
  -7  -9 -11    0.91    0.16
  -7  -9 -11    0.84    0.08
   7   9  11    0.87    0.16
   0 -10 -11    3.89    0.23
   0 -10 -11    3.79    0.29
   0  10  11    3.54    0.25
   0  10  11    3.53    0.26
  -1 -10 -11    6.96    0.35
  -1 -10 -11    6.66    0.30
   1  10  11    7.02    0.33
   1  10  11    6.95    0.33
  -2 -10 -11    4.87    0.23
  -2 -10 -11    4.62    0.28
   2  10  11    4.75    0.26
   2  10  11    4.76    0.26
  -3 -10 -11    1.50    0.18
  -3 -10 -11    1.69    0.13
   3  10  11    1.84    0.18
   3  10  11    1.73    0.19
  -4 -10 -11    0.54    0.14
  -4 -10 -11    0.57    0.08
   4  10  11    0.44    0.12
   4  10  11    0.53    0.12
  -5 -10 -11    0.08    0.06
  -5 -10 -11    0.04    0.11
   5  10  11    0.06    0.11
   5  10  11    0.06    0.12
  -6 -10 -11    2.77    0.25
  -6 -10 -11    3.06    0.24
  -6 -10 -11    2.93    0.13
   6  10  11    2.92    0.23
   1  11  11    0.75    0.14
  -2 -11 -11    3.37    0.26
   2  11  11    3.64    0.24
   2  11  11    3.31    0.24
  -3 -11 -11    3.59    0.26
  -3 -11 -11    3.37    0.18
   3  11  11    3.29    0.23
   3  11  11    3.00    0.33
  -4 -11 -11    0.44    0.08
  -4 -11 -11    0.48    0.15
   4  11  11    0.40    0.14
  -5 -11 -11    2.99    0.27
  -5 -11 -11    2.64    0.14
   5  11  11    2.65    0.24
  -6 -11 -11    0.42    0.06
  -6 -11 -11    0.31    0.20
   1   7 -12    0.14    0.13
   2   6 -12    1.64    0.18
   2   6 -12    1.54    0.20
  -2  -6  12    1.69    0.21
   1   6 -12    1.83    0.23
  -1  -6  12    1.84    0.22
   0   6 -12    0.50    0.14
   0  -6  12    0.55    0.17
  -1   6 -12    2.03    0.21
   1  -6  12    2.18    0.23
  -2   6 -12    0.22    0.14
   2  -6  12    0.13    0.15
  -3   6 -12    0.54    0.17
   3  -6  12    0.64    0.13
   3   5 -12    0.06    0.11
  -3  -5  12    0.08    0.14
   2   5 -12   -0.01    0.11
   2   5 -12    0.03    0.12
  -2  -5  12   -0.09    0.12
   1   5 -12    0.50    0.15
  -1  -5  12    0.61    0.16
   0   5 -12    0.52    0.14
   0  -5  12    0.59    0.15
  -1   5 -12    5.30    0.30
   1  -5  12    5.20    0.29
   1  -5  12    5.48    0.27
  -2   5 -12    0.84    0.16
   2  -5  12    0.76    0.14
   2  -5  12    0.82    0.11
  -3   5 -12    7.08    0.36
   3  -5  12    6.50    0.34
  -4   5 -12    0.04    0.15
   4  -5  12    0.00    0.10
   4  -5  12    0.03    0.14
   4   4 -12    0.04    0.13
  -4  -4  12    0.12    0.15
   3   4 -12    1.11    0.15
  -3  -4  12    0.91    0.18
   2   4 -12    0.64    0.13
  -2  -4  12    0.52    0.14
   1   4 -12    1.97    0.20
  -1  -4  12    2.01    0.19
   0   4 -12    4.19    0.26
   0  -4  12    4.21    0.21
   0  -4  12    4.25    0.25
  -1   4 -12    1.92    0.20
   1  -4  12    2.01    0.14
   1  -4  12    1.78    0.17
  -2   4 -12    0.11    0.11
   2  -4  12    0.19    0.08
   2  -4  12    0.11    0.11
  -3   4 -12    0.53    0.14
   3  -4  12    0.46    0.13
   3  -4  12    0.33    0.08
  -4   4 -12   -0.03    0.11
   4  -4  12   -0.02    0.08
   4  -4  12    0.00    0.11
  -5   4 -12    1.75    0.21
   5  -4  12    2.11    0.17
   5  -4  12    1.76    0.21
  -3  -3  12    3.10    0.24
   2   3 -12    0.66    0.13
  -2  -3  12    0.78    0.13
   1   3 -12   -0.01    0.09
  -1  -3  12    0.06    0.08
  -1  -3  12    0.03    0.09
   0   3 -12    5.49    0.27
   0  -3  12    5.60    0.28
   0  -3  12    5.29    0.24
  -1   3 -12    0.42    0.11
   1  -3  12    0.26    0.11
   1  -3  12    0.16    0.07
  -2   3 -12   27.03    0.92
   2  -3  12   26.07    0.92
   2  -3  12   25.17    0.88
  -3   3 -12    0.11    0.11
   3  -3  12    0.09    0.11
   3  -3  12    0.08    0.07
  -4   3 -12    0.12    0.11
   4  -3  12    0.15    0.12
   4  -3  12    0.17    0.07
  -5   3 -12    0.34    0.13
   5  -3  12    0.23    0.09
   5  -3  12    0.30    0.14
   2   2 -12    7.65    0.33
  -2  -2  12    7.41    0.30
  -2  -2  12    6.78    0.32
   1   2 -12    2.56    0.19
  -1  -2  12    2.48    0.19
  -1  -2  12    2.29    0.14
   0   2 -12    0.05    0.10
   0  -2  12    0.17    0.09
   0  -2  12    0.07    0.07
  -1   2 -12   -0.03    0.08
   1  -2  12    0.01    0.09
   1  -2  12   -0.04    0.06
  -2   2 -12    1.82    0.17
   2  -2  12    1.50    0.16
   2  -2  12    1.53    0.12
  -3   2 -12    3.59    0.23
  -3   2 -12    3.98    0.21
  -3   2 -12    3.79    0.21
   3  -2  12    3.41    0.21
   3  -2  12    3.65    0.17
  -4   2 -12    1.34    0.16
  -4   2 -12    1.55    0.16
  -4   2 -12    1.31    0.16
   4  -2  12    1.27    0.14
   4  -2  12    1.35    0.11
   4  -2  12    1.00    0.14
  -5   2 -12    0.31    0.13
  -5   2 -12    0.14    0.11
  -5   2 -12    0.27    0.11
   5  -2  12    0.24    0.11
   5  -2  12    0.38    0.08
  -6   2 -12   -0.04    0.13
  -6   2 -12   -0.02    0.12
   6  -2  12    0.00    0.13
   6  -2  12    0.02    0.07
   2   1 -12    0.91    0.14
  -2  -1  12    0.83    0.10
   1   1 -12    4.79    0.26
  -1  -1  12    5.38    0.22
  -1  -1  12    5.18    0.26
   0   1 -12    1.46    0.14
   0  -1  12    1.27    0.13
   0  -1  12    1.57    0.11
   0  -1  12    1.43    0.13
  -1   1 -12   12.19    0.48
  -1   1 -12   13.39    0.48
   1  -1  12   12.27    0.48
   1  -1  12   12.77    0.45
   1  -1  12   12.90    0.46
  -2   1 -12    0.01    0.08
  -2   1 -12    0.00    0.07
   2  -1  12    0.02    0.08
   2  -1  12    0.00    0.08
   2  -1  12    0.01    0.05
  -3   1 -12    0.64    0.11
  -3   1 -12    0.64    0.11
  -3   1 -12    0.50    0.09
   3  -1  12    0.63    0.12
   3  -1  12    0.43    0.07
   3  -1  12    0.47    0.09
  -4   1 -12    4.65    0.24
  -4   1 -12    4.38    0.23
  -4   1 -12    4.64    0.23
   4  -1  12    4.16    0.24
   4  -1  12    4.49    0.19
   4  -1  12    4.41    0.23
  -5   1 -12    2.02    0.17
  -5   1 -12    2.24    0.19
  -5   1 -12    2.19    0.19
   5  -1  12    2.35    0.18
   5  -1  12    1.86    0.19
   5  -1  12    1.98    0.13
  -6   1 -12    0.62    0.14
  -6   1 -12    0.64    0.13
   6  -1  12    0.57    0.07
   6  -1  12    0.66    0.15
  -7   1 -12    0.01    0.11
  -7   1 -12    0.09    0.14
   7  -1  12    0.18    0.23
   7  -1  12   -0.02    0.06
  -3   0  12    3.99    0.21
  -3   0  12    3.91    0.22
   2   0 -12    5.05    0.27
  -2   0  12    5.49    0.25
  -2   0  12    5.32    0.23
   1   0 -12    1.78    0.17
  -1   0  12    1.80    0.12
  -1   0  12    1.75    0.14
   0   0 -12    0.62    0.10
   0   0 -12    1.02    0.12
   0   0  12    0.67    0.08
   0   0  12    0.90    0.12
   0   0  12    0.78    0.09
  -1   0 -12    0.26    0.08
  -1   0 -12    0.44    0.10
   1   0  12    0.45    0.10
   1   0  12    0.33    0.08
   1   0  12    0.44    0.06
  -2   0 -12   30.55    1.03
  -2   0 -12   31.08    1.05
   2   0  12   30.54    1.01
   2   0  12   31.02    1.03
   2   0  12   29.78    1.04
  -3   0 -12    2.31    0.17
  -3   0 -12    2.30    0.15
   3   0  12    2.05    0.16
   3   0  12    2.28    0.12
   3   0  12    2.41    0.15
  -4   0 -12    0.00    0.07
  -4   0 -12    0.01    0.09
  -4   0 -12    0.02    0.09
   4   0  12    0.02    0.09
   4   0  12    0.01    0.04
   4   0  12    0.04    0.08
  -5   0 -12    0.16    0.10
  -5   0 -12    0.22    0.08
  -5   0 -12    0.16    0.10
   5   0  12    0.17    0.11
   5   0  12    0.22    0.10
   5   0  12    0.23    0.05
  -6   0 -12    0.00    0.10
  -6   0 -12   -0.01    0.09
   6   0  12    0.01    0.12
   6   0  12    0.00    0.05
  -7   0 -12    1.80    0.20
   7   0  12    1.36    0.18
   7   0  12    1.28    0.09
  -4   1  12    3.62    0.24
  -4   1  12    3.46    0.21
  -3   1  12    2.36    0.19
  -3   1  12    2.35    0.16
   2  -1 -12    1.29    0.14
  -2   1  12    1.36    0.12
  -2   1  12    1.26    0.13
   1  -1 -12   11.35    0.45
  -1   1  12   11.47    0.43
  -1   1  12   11.65    0.41
   0  -1 -12    4.85    0.24
   0  -1 -12    5.08    0.23
   0   1  12    5.27    0.23
   0   1  12    4.80    0.20
  -1  -1 -12    2.48    0.16
  -1  -1 -12    2.50    0.16
   1   1  12    2.43    0.16
   1   1  12    2.65    0.13
   1   1  12    2.62    0.16
  -2  -1 -12    0.01    0.07
  -2  -1 -12    0.01    0.06
   2   1  12    0.07    0.08
   2   1  12    0.03    0.07
   2   1  12    0.06    0.04
  -3  -1 -12    1.21    0.11
  -3  -1 -12    1.02    0.13
   3   1  12    1.22    0.08
   3   1  12    1.02    0.12
   3   1  12    1.00    0.11
  -4  -1 -12    9.71    0.39
  -4  -1 -12    9.70    0.38
  -4  -1 -12    9.05    0.36
   4   1  12    9.31    0.37
   4   1  12    9.11    0.32
   4   1  12   10.17    0.39
  -5  -1 -12    6.74    0.28
  -5  -1 -12    6.74    0.31
  -5  -1 -12    7.06    0.31
   5   1  12    6.57    0.24
   5   1  12    6.93    0.31
   5   1  12    6.74    0.30
  -6  -1 -12    5.03    0.28
  -6  -1 -12    5.07    0.25
   6   1  12    5.52    0.18
   6   1  12    5.09    0.27
   6   1  12    5.46    0.27
  -7  -1 -12    0.11    0.10
  -7  -1 -12    0.08    0.13
   7   1  12    0.15    0.12
  -4   2  12    0.08    0.13
  -4   2  12    0.06    0.10
  -3   2  12    0.24    0.08
  -3   2  12    0.13    0.10
   2  -2 -12    0.35    0.11
  -2   2  12    0.20    0.09
  -2   2  12    0.28    0.07
   1  -2 -12    0.06    0.08
   1  -2 -12    0.13    0.08
  -1   2  12    0.17    0.08
  -1   2  12    0.11    0.06
   0  -2 -12   -0.01    0.08
   0  -2 -12    0.03    0.07
   0   2  12    0.05    0.04
   0   2  12    0.05    0.08
  -1  -2 -12    2.16    0.14
  -1  -2 -12    2.27    0.16
   1   2  12    2.17    0.11
   1   2  12    2.19    0.14
  -2  -2 -12    9.94    0.38
  -2  -2 -12    8.97    0.35
   2   2  12    9.41    0.36
   2   2  12    9.21    0.33
   2   2  12    9.49    0.36
  -3  -2 -12    4.79    0.22
  -3  -2 -12    5.34    0.25
   3   2  12    5.23    0.24
   3   2  12    5.38    0.24
   3   2  12    4.96    0.19
  -4  -2 -12    3.73    0.18
  -4  -2 -12    3.74    0.20
   4   2  12    3.92    0.14
   4   2  12    3.70    0.20
   4   2  12    4.02    0.21
  -5  -2 -12    1.39    0.15
  -5  -2 -12    1.56    0.13
  -5  -2 -12    1.70    0.16
   5   2  12    1.66    0.14
   5   2  12    1.60    0.16
  -6  -2 -12    4.46    0.21
  -6  -2 -12    4.08    0.25
   6   2  12    4.47    0.24
   6   2  12    4.03    0.23
  -7  -2 -12    4.75    0.24
  -7  -2 -12    4.56    0.27
   7   2  12    4.44    0.28
  -8  -2 -12    0.02    0.09
   8   2  12    0.01    0.25
  -4   3  12    3.66    0.26
  -4   3  12    3.91    0.22
  -3   3  12    4.03    0.20
  -3   3  12    4.14    0.25
   2  -3 -12    7.11    0.33
  -2   3  12    7.48    0.32
  -2   3  12    7.44    0.29
   1  -3 -12    0.32    0.10
   1  -3 -12    0.44    0.10
  -1   3  12    0.43    0.07
  -1   3  12    0.39    0.10
   0  -3 -12    0.05    0.07
   0  -3 -12    0.02    0.08
   0   3  12    0.01    0.07
   0   3  12    0.05    0.04
  -1  -3 -12    6.33    0.27
  -1  -3 -12    6.05    0.29
   1   3  12    6.56    0.23
   1   3  12    6.58    0.28
  -2  -3 -12    1.85    0.13
  -2  -3 -12    2.11    0.15
   2   3  12    2.00    0.09
   2   3  12    1.92    0.14
  -3  -3 -12    6.36    0.28
  -3  -3 -12    6.10    0.25
   3   3  12    6.02    0.26
   3   3  12    6.36    0.27
   3   3  12    6.06    0.21
  -4  -3 -12    1.10    0.13
  -4  -3 -12    1.18    0.10
   4   3  12    1.27    0.14
   4   3  12    1.04    0.12
  -5  -3 -12    2.05    0.16
  -5  -3 -12    2.15    0.18
  -5  -3 -12    2.02    0.13
   5   3  12    2.37    0.17
   5   3  12    2.25    0.17
  -6  -3 -12    1.29    0.23
  -6  -3 -12    1.42    0.12
  -6  -3 -12    1.52    0.17
   6   3  12    1.42    0.16
   6   3  12    1.34    0.17
  -7  -3 -12   10.01    0.44
  -7  -3 -12   10.68    0.40
   7   3  12   10.46    0.44
   7   3  12   10.45    0.43
  -8  -3 -12    0.39    0.10
  -8  -3 -12    0.46    0.14
   8   3  12    0.47    0.15
  -3   4  12    5.36    0.29
  -3   4  12    5.51    0.25
   2  -4 -12    1.04    0.15
  -2   4  12    1.00    0.11
  -2   4  12    0.92    0.13
   1  -4 -12   -0.01    0.08
   1  -4 -12    0.06    0.08
  -1   4  12    0.00    0.08
  -1   4  12    0.00    0.05
   0  -4 -12    0.99    0.11
   0  -4 -12    1.11    0.13
   0   4  12    1.08    0.08
   0   4  12    1.15    0.13
  -1  -4 -12    0.00    0.06
  -1  -4 -12    0.03    0.07
   1   4  12    0.00    0.03
   1   4  12    0.02    0.06
  -2  -4 -12    3.72    0.20
  -2  -4 -12    3.66    0.17
   2   4  12    3.47    0.13
   2   4  12    3.65    0.19
  -3  -4 -12    1.27    0.13
  -3  -4 -12    1.17    0.10
   3   4  12    1.08    0.11
  -4  -4 -12    0.03    0.05
  -4  -4 -12    0.06    0.08
   4   4  12    0.01    0.08
   4   4  12    0.12    0.08
  -5  -4 -12    0.13    0.09
  -5  -4 -12    0.16    0.06
   5   4  12    0.15    0.08
   5   4  12    0.18    0.10
  -6  -4 -12    0.56    0.12
  -6  -4 -12    0.46    0.11
  -6  -4 -12    0.60    0.08
   6   4  12    0.72    0.12
   6   4  12    0.49    0.10
  -7  -4 -12    0.17    0.11
  -7  -4 -12    0.24    0.08
   7   4  12    0.18    0.10
   7   4  12    0.18    0.12
  -8  -4 -12    4.01    0.28
  -8  -4 -12    3.57    0.21
   8   4  12    3.47    0.25
  -3   5  12    0.67    0.10
  -3   5  12    0.56    0.14
   2  -5 -12   14.76    0.56
  -2   5  12   14.41    0.55
  -2   5  12   14.14    0.50
   1  -5 -12    7.96    0.34
   1  -5 -12    7.50    0.33
  -1   5  12    7.61    0.28
  -1   5  12    7.45    0.32
   0  -5 -12    5.89    0.29
   0  -5 -12    5.82    0.27
   0   5  12    6.48    0.23
   0   5  12    6.38    0.28
  -1  -5 -12    2.73    0.16
  -1  -5 -12    2.31    0.17
   1   5  12    3.05    0.17
   1   5  12    2.71    0.11
  -2  -5 -12    0.22    0.06
  -2  -5 -12    0.16    0.08
   2   5  12    0.17    0.07
  -3  -5 -12    4.00    0.22
  -3  -5 -12    3.88    0.18
   3   5  12    3.85    0.20
  -4  -5 -12    5.35    0.25
  -4  -5 -12    5.37    0.22
   4   5  12    4.97    0.24
  -5  -5 -12    3.30    0.20
  -5  -5 -12    3.01    0.15
   5   5  12    3.00    0.20
   5   5  12    3.13    0.19
  -6  -5 -12    0.15    0.06
  -6  -5 -12    0.18    0.11
  -6  -5 -12    0.14    0.10
   6   5  12    0.16    0.10
   6   5  12    0.13    0.09
  -7  -5 -12    0.04    0.11
  -7  -5 -12    0.00    0.06
   7   5  12    0.03    0.11
   7   5  12    0.02    0.10
  -8  -5 -12    3.61    0.20
  -8  -5 -12    3.82    0.28
   8   5  12    3.68    0.28
   2  -6 -12    3.80    0.27
   2  -6 -12    3.71    0.26
  -2   6  12    4.15    0.19
  -2   6  12    3.73    0.23
   1  -6 -12    0.16    0.11
   1  -6 -12    0.15    0.09
  -1   6  12    0.22    0.06
  -1   6  12    0.23    0.11
   0  -6 -12    6.73    0.30
   0  -6 -12    6.90    0.32
   0   6  12    7.23    0.31
   0   6  12    6.86    0.24
  -1  -6 -12    9.37    0.36
  -1  -6 -12    9.35    0.39
   1   6  12    9.38    0.37
  -2  -6 -12    0.06    0.08
  -2  -6 -12    0.06    0.06
   2   6  12    0.02    0.07
  -3  -6 -12    4.16    0.19
  -3  -6 -12    4.63    0.23
   3   6  12    4.06    0.22
  -4  -6 -12    6.57    0.26
  -4  -6 -12    6.99    0.31
   4   6  12    7.01    0.30
  -5  -6 -12    4.38    0.18
  -5  -6 -12    4.30    0.23
   5   6  12    3.85    0.22
  -6  -6 -12    1.88    0.12
  -6  -6 -12    1.72    0.17
  -6  -6 -12    1.86    0.18
   6   6  12    1.62    0.16
  -7  -6 -12    4.87    0.21
   7   6  12    4.46    0.26
   7   6  12    5.35    0.28
  -8  -6 -12    0.06    0.08
  -8  -6 -12   -0.01    0.13
   8   6  12    0.09    0.14
   2  -7 -12    1.91    0.19
   2  -7 -12    1.66    0.19
  -2   7  12    1.91    0.21
  -2   7  12    1.76    0.13
   1  -7 -12    0.95    0.16
   1  -7 -12    0.80    0.13
  -1   7  12    0.78    0.08
  -1   7  12    0.92    0.14
   0  -7 -12    0.07    0.09
   0  -7 -12    0.03    0.11
   0   7  12    0.05    0.04
   0   7  12    0.07    0.10
  -1  -7 -12    3.56    0.22
  -1  -7 -12    3.45    0.18
   1   7  12    3.37    0.20
  -2  -7 -12    5.42    0.23
  -2  -7 -12    4.97    0.26
   2   7  12    5.20    0.25
  -3  -7 -12    0.21    0.06
  -3  -7 -12    0.30    0.11
   3   7  12    0.29    0.10
  -4  -7 -12    0.68    0.08
  -4  -7 -12    0.57    0.12
   4   7  12    0.55    0.10
  -5  -7 -12   -0.01    0.10
  -5  -7 -12    0.02    0.05
   5   7  12   -0.01    0.09
  -6  -7 -12    0.36    0.12
  -6  -7 -12    0.40    0.12
  -6  -7 -12    0.47    0.07
   6   7  12    0.41    0.11
  -7  -7 -12    5.51    0.23
  -7  -7 -12    5.68    0.31
   7   7  12    5.52    0.30
  -8  -7 -12    0.97    0.19
   8   7  12    0.79    0.15
   1  -8 -12    0.50    0.16
   1  -8 -12    0.63    0.13
  -1   8  12    0.51    0.14
  -1   8  12    0.62    0.06
   0  -8 -12    0.00    0.08
   0  -8 -12   -0.01    0.12
   0   8  12    0.00    0.10
  -1  -8 -12    1.33    0.16
  -1  -8 -12    1.11    0.13
   1   8  12    1.18    0.14
  -2  -8 -12    0.47    0.08
  -2  -8 -12    0.32    0.12
   2   8  12    0.47    0.10
  -3  -8 -12    0.30    0.07
  -3  -8 -12    0.21    0.12
   3   8  12    0.29    0.11
  -4  -8 -12    3.98    0.18
  -4  -8 -12    4.67    0.26
   4   8  12    4.12    0.23
  -5  -8 -12    1.27    0.10
  -5  -8 -12    1.25    0.16
   5   8  12    1.26    0.15
  -6  -8 -12    2.32    0.13
  -6  -8 -12    2.20    0.20
  -6  -8 -12    2.75    0.22
   6   8  12    2.47    0.19
  -7  -8 -12    0.15    0.06
  -7  -8 -12    0.08    0.14
   7   8  12    0.17    0.13
   0  -9 -12    7.87    0.35
   0  -9 -12    7.46    0.37
   0   9  12    7.89    0.35
   0   9  12    7.61    0.36
  -1  -9 -12    0.00    0.08
  -1  -9 -12    0.02    0.13
   1   9  12    0.04    0.10
   1   9  12    0.02    0.11
  -2  -9 -12    0.78    0.14
  -2  -9 -12    0.88    0.10
   2   9  12    0.88    0.13
   2   9  12    0.83    0.13
  -3  -9 -12    0.05    0.12
  -3  -9 -12    0.09    0.07
   3   9  12    0.15    0.10
  -4  -9 -12    0.15    0.07
  -4  -9 -12    0.13    0.12
   4   9  12    0.03    0.11
  -5  -9 -12    2.52    0.14
  -5  -9 -12    2.80    0.23
   5   9  12    2.45    0.19
  -6  -9 -12   -0.04    0.13
  -6  -9 -12   -0.04    0.13
  -6  -9 -12    0.04    0.06
   6   9  12    0.05    0.13
  -7  -9 -12    0.89    0.10
  -7  -9 -12    0.89    0.16
   7   9  12    0.55    0.14
  -1 -10 -12    0.82    0.13
  -1 -10 -12    0.88    0.18
   1  10  12    0.79    0.15
   1  10  12    0.44    0.15
  -2 -10 -12    0.12    0.09
  -2 -10 -12    0.18    0.15
   2  10  12    0.14    0.13
   2  10  12    0.17    0.13
  -3 -10 -12    0.75    0.10
  -3 -10 -12    0.76    0.15
   3  10  12    0.87    0.15
   3  10  12    0.85    0.15
  -4 -10 -12    4.99    0.21
  -4 -10 -12    4.89    0.29
   4  10  12    4.48    0.27
   4  10  12    4.98    0.28
  -5 -10 -12    6.24    0.24
  -5 -10 -12    6.20    0.34
   5  10  12    5.85    0.30
  -6 -10 -12    2.26    0.13
  -6 -10 -12    2.53    0.26
  -6 -10 -12    2.50    0.25
   6  10  12    2.26    0.23
   3  11  12    0.40    0.13
   4  11  12    0.05    0.14
   2   5 -13    1.63    0.20
  -2  -5  13    1.31    0.21
   1   5 -13    0.19    0.13
  -1  -5  13    0.17    0.15
   0   5 -13    0.00    0.12
   0  -5  13    0.05    0.15
  -1   5 -13    2.11    0.24
   1  -5  13    1.86    0.23
   1  -5  13    2.28    0.20
  -2   5 -13    2.53    0.25
   2  -5  13    2.18    0.18
   2  -5  13    2.84    0.23
  -3   5 -13    3.22    0.29
   2   4 -13    0.52    0.17
  -2  -4  13    0.64    0.18
   1   4 -13    0.85    0.17
  -1  -4  13    1.13    0.19
   0   4 -13    0.10    0.14
   0  -4  13    0.11    0.13
   0  -4  13    0.11    0.09
  -1   4 -13    0.16    0.12
   1  -4  13    0.20    0.08
   1  -4  13    0.24    0.14
  -2   4 -13    0.12    0.12
   2  -4  13    0.14    0.13
   2  -4  13    0.19    0.09
  -3   4 -13    1.01    0.17
   3  -4  13    0.72    0.11
   3  -4  13    0.79    0.16
  -4   4 -13   -0.04    0.15
   4  -4  13    0.04    0.15
   4  -4  13    0.01    0.09
   2   3 -13    0.22    0.14
  -2  -3  13    0.40    0.15
   1   3 -13    0.09    0.12
  -1  -3  13    0.06    0.09
  -1  -3  13    0.10    0.12
   0   3 -13    0.01    0.12
   0  -3  13    0.01    0.12
   0  -3  13    0.02    0.08
  -1   3 -13    0.10    0.11
   1  -3  13    0.19    0.07
   1  -3  13    0.28    0.12
  -2   3 -13    0.41    0.12
   2  -3  13    0.16    0.11
   2  -3  13    0.39    0.09
  -3   3 -13   -0.03    0.13
   3  -3  13    0.06    0.12
   3  -3  13   -0.01    0.07
  -4   3 -13    0.03    0.13
   4  -3  13   -0.01    0.13
   4  -3  13   -0.03    0.08
  -5   3 -13    0.11    0.15
   5  -3  13    0.05    0.15
   5  -3  13    0.07    0.09
   2   2 -13    0.43    0.13
  -2  -2  13    0.49    0.10
   1   2 -13    0.68    0.13
  -1  -2  13    0.77    0.15
  -1  -2  13    0.59    0.09
   0   2 -13    1.66    0.18
   0  -2  13    1.47    0.14
   0  -2  13    1.55    0.16
  -1   2 -13    7.36    0.33
   1  -2  13    7.23    0.29
  -2   2 -13    1.18    0.15
   2  -2  13    1.46    0.12
   2  -2  13    1.39    0.17
  -3   2 -13    1.65    0.20
   3  -2  13    1.96    0.13
   3  -2  13    1.89    0.19
  -4   2 -13    0.74    0.15
   4  -2  13    0.40    0.08
   4  -2  13    0.50    0.13
  -5   2 -13    2.64    0.24
   5  -2  13    2.44    0.15
   5  -2  13    2.04    0.21
  -6   2 -13    0.03    0.22
   2   1 -13    0.05    0.11
  -2  -1  13    0.07    0.08
   1   1 -13    0.39    0.12
  -1  -1  13    0.29    0.07
   0   1 -13    1.59    0.18
   0  -1  13    1.72    0.13
   0  -1  13    2.08    0.18
  -1   1 -13    3.63    0.23
   1  -1  13    3.65    0.22
   1  -1  13    3.66    0.18
  -2   1 -13    5.22    0.25
  -2   1 -13    5.14    0.27
   2  -1  13    4.68    0.26
   2  -1  13    4.81    0.24
   2  -1  13    4.87    0.21
  -3   1 -13    1.13    0.14
  -3   1 -13    1.34    0.16
  -3   1 -13    0.81    0.11
   3  -1  13    1.21    0.10
   3  -1  13    1.32    0.14
   3  -1  13    1.22    0.15
  -4   1 -13    0.41    0.12
  -4   1 -13    0.78    0.13
  -4   1 -13    0.39    0.10
   4  -1  13    0.38    0.11
   4  -1  13    0.50    0.12
   4  -1  13    0.60    0.08
  -5   1 -13    6.07    0.31
  -5   1 -13    5.57    0.30
  -5   1 -13    5.99    0.29
   5  -1  13    5.46    0.23
   5  -1  13    5.54    0.30
   5  -1  13    5.78    0.29
  -6   1 -13   -0.03    0.14
  -6   1 -13    0.04    0.13
   6  -1  13    0.09    0.06
   6  -1  13    0.09    0.13
  -3   0  13    0.01    0.10
   2   0 -13    5.60    0.30
  -2   0  13    6.70    0.29
  -2   0  13    6.22    0.27
   1   0 -13    3.88    0.24
  -1   0  13    4.04    0.20
  -1   0  13    4.38    0.22
   0   0 -13    2.26    0.18
   0   0  13    2.15    0.16
   0   0  13    2.29    0.13
  -1   0 -13    1.82    0.16
  -1   0 -13    1.53    0.15
   1   0  13    1.58    0.11
   1   0  13    1.58    0.13
  -2   0 -13   14.77    0.54
  -2   0 -13   14.57    0.56
   2   0  13   15.57    0.55
   2   0  13   14.99    0.54
   2   0  13   14.05    0.51
  -3   0 -13    5.21    0.27
  -3   0 -13    5.65    0.26
   3   0  13    5.23    0.27
   3   0  13    5.40    0.22
   3   0  13    5.33    0.26
  -4   0 -13    6.16    0.30
  -4   0 -13    6.39    0.29
  -4   0 -13    6.28    0.28
   4   0  13    6.22    0.24
   4   0  13    5.97    0.28
   4   0  13    6.08    0.30
  -5   0 -13    0.52    0.13
  -5   0 -13    0.62    0.13
  -5   0 -13    0.52    0.11
   5   0  13    0.52    0.13
   5   0  13    0.61    0.07
   5   0  13    0.60    0.11
  -6   0 -13    1.37    0.15
  -6   0 -13    1.15    0.16
   6   0  13    1.50    0.10
   6   0  13    1.28    0.17
  -7   0 -13    2.19    0.24
  -7   0 -13    2.10    0.21
   7   0  13    1.84    0.10
  -3   1  13   -0.02    0.09
  -3   1  13   -0.03    0.12
   2  -1 -13    6.07    0.31
  -2   1  13    6.06    0.28
  -2   1  13    6.21    0.26
   1  -1 -13    0.01    0.11
  -1   1  13    0.01    0.06
  -1   1  13    0.05    0.09
   0  -1 -13    0.66    0.11
   0  -1 -13    0.87    0.13
   0   1  13    0.69    0.08
   0   1  13    0.91    0.11
  -1  -1 -13    1.81    0.17
  -1  -1 -13    1.82    0.16
   1   1  13    2.02    0.14
   1   1  13    1.94    0.11
  -2  -1 -13    3.57    0.19
  -2  -1 -13    3.57    0.20
   2   1  13    3.21    0.19
   2   1  13    3.07    0.15
   2   1  13    3.16    0.20
  -3  -1 -13   10.20    0.42
  -3  -1 -13   10.08    0.39
   3   1  13   10.31    0.40
   3   1  13   11.09    0.42
   3   1  13    9.77    0.36
  -4  -1 -13    5.56    0.28
  -4  -1 -13    5.89    0.29
  -4  -1 -13    5.22    0.25
   4   1  13    5.49    0.21
   4   1  13    5.52    0.26
   4   1  13    5.79    0.28
  -5  -1 -13    0.36    0.09
  -5  -1 -13    0.52    0.13
  -5  -1 -13    0.28    0.10
   5   1  13    0.64    0.13
   5   1  13    0.29    0.10
   5   1  13    0.46    0.05
  -6  -1 -13    0.90    0.12
  -6  -1 -13    0.98    0.16
   6   1  13    1.05    0.16
   6   1  13    0.92    0.14
  -7  -1 -13    1.33    0.16
  -7  -1 -13    1.37    0.19
   7   1  13    1.20    0.19
  -3   2  13    4.02    0.25
  -3   2  13    3.69    0.21
   2  -2 -13    4.65    0.27
  -2   2  13    4.25    0.21
  -2   2  13    4.45    0.25
   1  -2 -13    1.44    0.17
  -1   2  13    1.40    0.14
  -1   2  13    1.38    0.11
   0  -2 -13    3.99    0.23
   0  -2 -13    3.35    0.20
   0   2  13    3.17    0.15
   0   2  13    3.56    0.20
  -1  -2 -13    0.18    0.10
  -1  -2 -13    0.06    0.08
   1   2  13    0.02    0.04
   1   2  13    0.02    0.08
  -2  -2 -13    0.02    0.08
  -2  -2 -13   -0.02    0.07
   2   2  13    0.03    0.08
   2   2  13   -0.01    0.04
  -3  -2 -13    0.00    0.08
  -3  -2 -13    0.00    0.07
   3   2  13   -0.02    0.08
   3   2  13    0.08    0.09
   3   2  13    0.04    0.04
  -4  -2 -13    0.10    0.07
  -4  -2 -13    0.03    0.09
   4   2  13    0.04    0.03
   4   2  13    0.12    0.10
   4   2  13    0.04    0.10
  -5  -2 -13    0.14    0.11
  -5  -2 -13    0.07    0.07
  -5  -2 -13    0.16    0.10
   5   2  13    0.13    0.11
   5   2  13    0.09    0.09
  -6  -2 -13    0.20    0.08
  -6  -2 -13    0.40    0.13
  -6  -2 -13    0.28    0.19
   6   2  13    0.27    0.11
   6   2  13    0.24    0.13
  -7  -2 -13    0.54    0.12
  -7  -2 -13    0.52    0.15
   7   2  13    0.45    0.15
  -3   3  13    3.74    0.25
  -3   3  13    3.13    0.20
   2  -3 -13    4.53    0.27
  -2   3  13    3.99    0.24
  -2   3  13    4.32    0.21
   1  -3 -13    7.99    0.37
   1  -3 -13    8.29    0.36
  -1   3  13    8.50    0.31
  -1   3  13    8.29    0.35
   0  -3 -13    4.48    0.26
   0  -3 -13    5.16    0.24
   0   3  13    4.57    0.19
   0   3  13    5.12    0.24
  -1  -3 -13    1.21    0.14
  -1  -3 -13    1.42    0.13
   1   3  13    1.24    0.12
   1   3  13    1.19    0.08
  -2  -3 -13    1.76    0.14
  -2  -3 -13    1.88    0.16
   2   3  13    1.89    0.14
   2   3  13    1.98    0.10
  -3  -3 -13    0.08    0.06
  -3  -3 -13    0.09    0.09
   3   3  13    0.18    0.09
   3   3  13    0.14    0.03
  -4  -3 -13    0.10    0.10
  -4  -3 -13    0.05    0.06
   4   3  13    0.12    0.08
   4   3  13    0.13    0.10
  -5  -3 -13    0.10    0.11
  -5  -3 -13    0.11    0.07
  -5  -3 -13    0.08    0.10
   5   3  13    0.10    0.09
   5   3  13    0.11    0.10
  -6  -3 -13    0.29    0.12
  -6  -3 -13    0.26    0.08
  -6  -3 -13    0.44    0.13
   6   3  13    0.37    0.11
   6   3  13    0.58    0.14
  -7  -3 -13    0.23    0.10
  -7  -3 -13    0.25    0.13
   7   3  13    0.33    0.13
   7   3  13    0.28    0.12
  -3   4  13    2.38    0.19
  -3   4  13    2.64    0.21
   2  -4 -13    0.76    0.16
  -2   4  13    0.93    0.10
  -2   4  13    0.77    0.14
   1  -4 -13    9.07    0.39
   1  -4 -13    9.21    0.38
  -1   4  13    8.85    0.38
  -1   4  13    8.66    0.33
   0  -4 -13    0.18    0.09
   0  -4 -13    0.33    0.11
   0   4  13    0.15    0.05
   0   4  13    0.17    0.10
  -1  -4 -13    4.65    0.25
  -1  -4 -13    4.88    0.23
   1   4  13    4.46    0.18
   1   4  13    4.90    0.23
  -2  -4 -13    0.00    0.06
  -2  -4 -13    0.00    0.09
   2   4  13    0.01    0.03
   2   4  13   -0.03    0.07
  -3  -4 -13    1.79    0.16
  -3  -4 -13    1.73    0.13
   3   4  13    1.78    0.15
  -4  -4 -13    0.90    0.11
  -4  -4 -13    1.28    0.14
   4   4  13    1.01    0.12
  -5  -4 -13    1.11    0.15
  -5  -4 -13    0.99    0.12
   5   4  13    1.07    0.14
   5   4  13    1.35    0.15
  -6  -4 -13    0.00    0.11
  -6  -4 -13   -0.01    0.11
  -6  -4 -13    0.00    0.07
   6   4  13    0.05    0.10
   6   4  13    0.00    0.10
  -7  -4 -13    0.02    0.08
  -7  -4 -13    0.00    0.12
   7   4  13    0.00    0.11
   7   4  13    0.03    0.13
   2  -5 -13    0.63    0.16
  -2   5  13    0.42    0.13
  -2   5  13    0.82    0.10
   1  -5 -13    0.65    0.14
   1  -5 -13    0.64    0.13
  -1   5  13    0.40    0.07
  -1   5  13    0.55    0.13
   0  -5 -13    1.77    0.18
   0  -5 -13    2.05    0.16
   0   5  13    1.64    0.10
   0   5  13    1.92    0.16
  -1  -5 -13    3.34    0.22
  -1  -5 -13    3.57    0.19
   1   5  13    3.38    0.20
   1   5  13    3.59    0.14
  -2  -5 -13    2.15    0.15
  -2  -5 -13    2.20    0.17
   2   5  13    2.31    0.17
  -3  -5 -13    0.00    0.09
  -3  -5 -13    0.00    0.06
   3   5  13    0.01    0.08
  -4  -5 -13    0.20    0.10
  -4  -5 -13    0.19    0.07
   4   5  13    0.20    0.10
  -5  -5 -13   -0.01    0.06
  -5  -5 -13    0.02    0.09
   5   5  13   -0.07    0.09
  -6  -5 -13    0.06    0.11
  -6  -5 -13   -0.01    0.07
  -6  -5 -13   -0.03    0.11
   6   5  13    0.10    0.10
   6   5  13    0.02    0.11
  -7  -5 -13    1.48    0.14
  -7  -5 -13    1.62    0.19
   7   5  13    1.76    0.21
   7   5  13    1.20    0.16
   2  -6 -13    0.14    0.14
   1  -6 -13    0.29    0.13
   1  -6 -13    0.42    0.13
  -1   6  13    0.25    0.06
  -1   6  13    0.25    0.11
   0  -6 -13    0.74    0.13
   0  -6 -13    0.66    0.12
   0   6  13    0.50    0.12
   0   6  13    0.65    0.06
  -1  -6 -13    0.53    0.13
  -1  -6 -13    0.77    0.10
   1   6  13    0.48    0.10
  -2  -6 -13    0.00    0.07
  -2  -6 -13    0.01    0.10
   2   6  13   -0.02    0.08
  -3  -6 -13    5.74    0.24
  -3  -6 -13    5.71    0.29
   3   6  13    5.48    0.26
  -4  -6 -13    2.07    0.17
  -4  -6 -13    2.20    0.14
   4   6  13    2.03    0.16
  -5  -6 -13    0.18    0.07
  -5  -6 -13    0.26    0.12
   5   6  13    0.31    0.12
  -6  -6 -13    5.37    0.23
  -6  -6 -13    5.65    0.29
  -6  -6 -13    5.62    0.31
   6   6  13    5.28    0.29
  -7  -6 -13    3.59    0.27
  -7  -6 -13    3.64    0.19
   1  -7 -13    0.60    0.14
   1  -7 -13    0.65    0.17
  -1   7  13    0.50    0.14
  -1   7  13    0.51    0.07
   0  -7 -13    2.19    0.19
   0  -7 -13    2.07    0.20
   0   7  13    2.16    0.18
   0   7  13    2.35    0.10
  -1  -7 -13    5.01    0.24
  -1  -7 -13    5.11    0.27
   1   7  13    4.38    0.25
  -2  -7 -13    1.48    0.14
  -2  -7 -13    1.36    0.17
   2   7  13    1.59    0.17
  -3  -7 -13    2.94    0.17
  -3  -7 -13    3.33    0.23
   3   7  13    2.95    0.19
  -4  -7 -13    4.19    0.25
  -4  -7 -13    3.82    0.18
   4   7  13    3.56    0.23
  -5  -7 -13    0.08    0.07
  -5  -7 -13    0.07    0.12
   5   7  13    0.17    0.12
  -6  -7 -13    9.24    0.41
  -6  -7 -13    9.41    0.42
  -6  -7 -13    9.49    0.34
   6   7  13    8.89    0.40
  -7  -7 -13    0.54    0.09
  -7  -7 -13    0.58    0.17
   7   7  13    0.41    0.15
   0  -8 -13    0.76    0.17
   0  -8 -13    0.97    0.14
   0   8  13    0.54    0.13
  -1  -8 -13    8.95    0.37
  -1  -8 -13    8.88    0.41
   1   8  13    9.19    0.39
  -2  -8 -13    1.65    0.19
  -2  -8 -13    1.35    0.14
   2   8  13    1.68    0.18
  -3  -8 -13    1.18    0.13
  -3  -8 -13    1.58    0.18
   3   8  13    1.22    0.15
  -4  -8 -13    0.21    0.12
  -4  -8 -13    0.23    0.08
   4   8  13    0.20    0.11
  -5  -8 -13    3.42    0.25
  -5  -8 -13    3.29    0.17
   5   8  13    3.37    0.23
  -6  -8 -13    2.85    0.24
  -6  -8 -13    2.43    0.25
  -6  -8 -13    3.02    0.16
   6   8  13    2.91    0.23
  -7  -8 -13    5.13    0.27
  -1  -9 -13    7.12    0.31
  -1  -9 -13    6.80    0.35
   1   9  13    6.77    0.33
  -2  -9 -13    7.92    0.37
  -2  -9 -13    7.11    0.31
   2   9  13    7.06    0.35
  -3  -9 -13    5.23    0.24
  -3  -9 -13    5.06    0.31
   3   9  13    5.23    0.28
  -4  -9 -13    0.83    0.10
  -4  -9 -13    0.69    0.16
   4   9  13    0.85    0.15
  -5  -9 -13    0.92    0.11
  -5  -9 -13    1.18    0.18
   5   9  13    1.16    0.17
  -6  -9 -13    0.12    0.15
  -6  -9 -13    0.18    0.07
   6   9  13    0.07    0.14
   2  10  13    1.65    0.19
   3  10  13    2.03    0.20
  -4 -10 -13    0.03    0.17
   4  10  13   -0.02    0.14
  -5 -10 -13    0.06    0.14
   1   4 -14    0.65    0.19
  -1  -4  14    0.58    0.17
   0   4 -14    0.07    0.14
   0  -4  14    0.05    0.11
   0  -4  14    0.05    0.16
  -1   4 -14    0.23    0.16
   1  -4  14    0.16    0.15
   1  -4  14    0.13    0.10
  -2   4 -14    2.50    0.26
   2  -4  14    2.06    0.18
   2  -4  14    2.49    0.23
   2   3 -14    4.02    0.30
   1   3 -14    0.44    0.15
  -1  -3  14    0.79    0.18
  -1  -3  14    0.72    0.13
   0   3 -14    3.49    0.28
   0  -3  14    3.68    0.25
   0  -3  14    3.90    0.21
  -1   3 -14    0.08    0.13
   1  -3  14    0.00    0.08
   1  -3  14    0.00    0.13
  -2   3 -14    1.09    0.18
   2  -3  14    0.86    0.11
   2  -3  14    0.89    0.17
  -3   3 -14    0.90    0.18
   3  -3  14    0.66    0.11
   3  -3  14    0.72    0.17
   2   2 -14   -0.01    0.14
  -2  -2  14    0.01    0.09
   1   2 -14    8.63    0.40
  -1  -2  14    7.90    0.34
  -1  -2  14    8.03    0.40
   0   2 -14    1.31    0.17
   0  -2  14    1.43    0.15
   0  -2  14    1.42    0.18
  -1   2 -14    0.09    0.13
   1  -2  14    0.13    0.12
   1  -2  14    0.17    0.08
  -2   2 -14    5.61    0.30
   2  -2  14    5.36    0.30
   2  -2  14    5.72    0.25
  -3   2 -14    5.70    0.29
   3  -2  14    4.88    0.23
   3  -2  14    4.50    0.29
  -4   2 -14    1.56    0.20
   4  -2  14    1.39    0.14
   4  -2  14    1.54    0.20
  -5   2 -14    1.21    0.20
   2   1 -14    0.03    0.15
  -2  -1  14    0.03    0.09
   1   1 -14    7.05    0.36
  -1  -1  14    7.59    0.31
   0   1 -14    0.53    0.14
   0  -1  14    0.56    0.10
   0  -1  14    0.42    0.13
  -1   1 -14    0.29    0.13
   1  -1  14    0.23    0.07
   1  -1  14    0.23    0.12
  -2   1 -14    0.19    0.11
   2  -1  14    0.11    0.07
   2  -1  14    0.23    0.12
  -3   1 -14    1.18    0.17
  -3   1 -14    1.28    0.16
   3  -1  14    1.28    0.11
   3  -1  14    0.96    0.15
  -4   1 -14    1.76    0.19
  -4   1 -14    1.80    0.22
  -4   1 -14    1.16    0.15
   4  -1  14    1.83    0.18
   4  -1  14    1.42    0.18
   4  -1  14    1.95    0.13
  -5   1 -14    2.74    0.23
  -5   1 -14    2.67    0.25
  -5   1 -14    2.36    0.23
   5  -1  14    2.58    0.16
   5  -1  14    2.62    0.25
   5  -1  14    2.98    0.21
   2   0 -14    1.15    0.18
  -2   0  14    0.99    0.12
   1   0 -14    0.04    0.13
  -1   0  14    0.02    0.07
   0   0 -14    0.12    0.11
   0   0  14    0.24    0.08
   0   0  14    0.14    0.10
  -1   0 -14    1.69    0.19
   1   0  14    1.88    0.16
   1   0  14    1.57    0.16
   1   0  14    1.73    0.13
  -2   0 -14    1.89    0.18
  -2   0 -14    2.36    0.18
   2   0  14    2.00    0.13
   2   0  14    1.85    0.17
   2   0  14    1.97    0.17
  -3   0 -14    0.31    0.11
  -3   0 -14    0.32    0.10
   3   0  14    0.45    0.11
   3   0  14    0.25    0.07
   3   0  14    0.20    0.12
  -4   0 -14    3.52    0.25
  -4   0 -14    3.71    0.22
  -4   0 -14    3.30    0.22
   4   0  14    3.96    0.25
   4   0  14    3.47    0.17
   4   0  14    3.63    0.21
  -5   0 -14    1.08    0.14
  -5   0 -14    1.14    0.17
  -5   0 -14    1.14    0.17
   5   0  14    1.31    0.16
   5   0  14    1.08    0.10
   5   0  14    1.08    0.17
  -6   0 -14   -0.01    0.12
  -6   0 -14    0.00    0.14
   6   0  14    0.00    0.15
   6   0  14   -0.03    0.05
   2  -1 -14    5.73    0.33
  -2   1  14    5.86    0.30
  -2   1  14    6.04    0.27
   1  -1 -14    0.03    0.13
  -1   1  14    0.03    0.09
  -1   1  14    0.00    0.07
   0  -1 -14    0.59    0.14
   0   1  14    0.88    0.09
   0   1  14    0.79    0.12
  -1  -1 -14    0.83    0.13
  -1  -1 -14    0.71    0.13
   1   1  14    0.62    0.08
   1   1  14    0.95    0.13
  -2  -1 -14    0.01    0.08
  -2  -1 -14   -0.02    0.11
   2   1  14    0.02    0.05
   2   1  14   -0.01    0.09
   2   1  14    0.00    0.11
  -3  -1 -14    2.19    0.19
  -3  -1 -14    2.25    0.17
   3   1  14    2.31    0.18
   3   1  14    2.30    0.17
   3   1  14    2.19    0.12
  -4  -1 -14    0.04    0.12
  -4  -1 -14    0.02    0.09
  -4  -1 -14   -0.02    0.10
   4   1  14    0.06    0.09
   4   1  14    0.05    0.05
   4   1  14    0.03    0.10
  -5  -1 -14    3.00    0.23
  -5  -1 -14    3.31    0.24
  -5  -1 -14    2.67    0.20
   5   1  14    2.81    0.22
   5   1  14    2.84    0.23
   5   1  14    3.08    0.13
  -6  -1 -14    0.95    0.14
  -6  -1 -14    1.11    0.18
   6   1  14    0.78    0.15
   6   1  14    1.08    0.16
   2  -2 -14    0.59    0.16
  -2   2  14    0.65    0.14
  -2   2  14    0.69    0.11
   1  -2 -14   -0.04    0.12
  -1   2  14    0.06    0.10
  -1   2  14    0.00    0.06
   0  -2 -14    3.19    0.21
   0  -2 -14    2.93    0.23
   0   2  14    3.06    0.20
   0   2  14    3.22    0.16
  -1  -2 -14   -0.01    0.09
  -1  -2 -14   -0.01    0.11
   1   2  14    0.01    0.10
   1   2  14    0.00    0.05
  -2  -2 -14    2.90    0.19
  -2  -2 -14    2.90    0.21
   2   2  14    3.00    0.19
   2   2  14    2.95    0.14
  -3  -2 -14    2.57    0.20
  -3  -2 -14    2.34    0.17
   3   2  14    2.66    0.17
   3   2  14    1.99    0.11
  -4  -2 -14    0.16    0.12
  -4  -2 -14    0.15    0.09
   4   2  14    0.11    0.10
   4   2  14    0.15    0.04
   4   2  14    0.22    0.11
  -5  -2 -14    0.54    0.10
  -5  -2 -14    0.65    0.15
  -5  -2 -14    0.71    0.15
   5   2  14    0.68    0.14
   5   2  14    0.58    0.13
  -6  -2 -14    0.97    0.13
  -6  -2 -14    1.01    0.17
  -6  -2 -14    0.84    0.17
   6   2  14    0.86    0.14
   6   2  14    0.92    0.16
   2  -3 -14   19.87    0.74
  -2   3  14   19.41    0.68
  -2   3  14   19.16    0.71
   1  -3 -14    0.48    0.13
  -1   3  14    0.47    0.08
  -1   3  14    0.49    0.12
   0  -3 -14    1.49    0.18
   0  -3 -14    1.60    0.17
   0   3  14    1.29    0.11
   0   3  14    1.45    0.15
  -1  -3 -14    1.24    0.16
  -1  -3 -14    1.31    0.15
   1   3  14    1.54    0.14
   1   3  14    1.34    0.10
  -2  -3 -14    4.51    0.23
  -2  -3 -14    5.13    0.27
   2   3  14    4.39    0.24
   2   3  14    4.79    0.18
  -3  -3 -14    0.30    0.11
  -3  -3 -14    0.32    0.09
   3   3  14    0.49    0.11
   3   3  14    0.30    0.04
  -4  -3 -14    2.98    0.18
  -4  -3 -14    3.23    0.21
   4   3  14    2.97    0.19
  -5  -3 -14    1.06    0.16
  -5  -3 -14    1.00    0.15
  -5  -3 -14    0.78    0.11
   5   3  14    1.18    0.15
   5   3  14    1.05    0.15
  -6  -3 -14    0.15    0.12
  -6  -3 -14    0.07    0.14
  -6  -3 -14    0.03    0.09
   6   3  14    0.09    0.11
   6   3  14   -0.01    0.13
   7   3  14    0.58    0.17
   2  -4 -14    2.83    0.26
  -2   4  14    2.80    0.24
   1  -4 -14    5.03    0.30
  -1   4  14    4.74    0.26
  -1   4  14    4.70    0.21
   0  -4 -14    1.24    0.17
   0  -4 -14    1.06    0.13
   0   4  14    1.06    0.10
   0   4  14    1.09    0.14
  -1  -4 -14   20.05    0.73
  -1  -4 -14   20.13    0.70
   1   4  14   19.60    0.71
   1   4  14   19.03    0.65
  -2  -4 -14    0.09    0.08
  -2  -4 -14    0.18    0.10
   2   4  14    0.13    0.04
   2   4  14    0.15    0.09
  -3  -4 -14    2.82    0.18
  -3  -4 -14    2.82    0.20
   3   4  14    2.87    0.19
  -4  -4 -14    3.75    0.20
  -4  -4 -14    3.84    0.25
   4   4  14    3.65    0.23
  -5  -4 -14    9.48    0.36
   5   4  14    8.80    0.39
  -6  -4 -14    0.03    0.13
  -6  -4 -14    0.01    0.12
  -6  -4 -14    0.11    0.08
   6   4  14    0.04    0.13
   6   4  14    0.03    0.10
   7   4  14    6.80    0.36
   1  -5 -14    2.91    0.24
   1  -5 -14    2.57    0.22
  -1   5  14    2.35    0.14
  -1   5  14    2.42    0.20
   0  -5 -14    0.49    0.13
   0  -5 -14    0.37    0.11
   0   5  14    0.38    0.06
   0   5  14    0.44    0.12
  -1  -5 -14    3.88    0.22
  -1  -5 -14    3.77    0.25
   1   5  14    3.63    0.21
   1   5  14    3.44    0.14
  -2  -5 -14    0.32    0.09
  -2  -5 -14    0.38    0.12
   2   5  14    0.27    0.11
  -3  -5 -14    0.33    0.12
  -3  -5 -14    0.28    0.08
   3   5  14    0.39    0.11
  -4  -5 -14    4.85    0.28
  -4  -5 -14    4.91    0.23
   4   5  14    5.42    0.27
  -5  -5 -14    1.81    0.20
  -5  -5 -14    1.64    0.14
   5   5  14    1.76    0.18
  -6  -5 -14    0.64    0.16
  -6  -5 -14    0.73    0.11
  -6  -5 -14    0.68    0.16
   6   5  14    0.59    0.14
   7   5  14    4.49    0.29
   1  -6 -14    1.24    0.17
   1  -6 -14    1.56    0.20
  -1   6  14    1.21    0.15
   0  -6 -14    1.27    0.15
   0  -6 -14    1.07    0.17
   0   6  14    0.91    0.09
   0   6  14    0.75    0.14
  -1  -6 -14    0.17    0.09
  -1  -6 -14    0.13    0.12
   1   6  14    0.14    0.10
  -2  -6 -14   13.21    0.50
  -2  -6 -14   13.67    0.54
   2   6  14   13.60    0.52
  -3  -6 -14    0.06    0.07
  -3  -6 -14    0.09    0.12
   3   6  14    0.16    0.10
  -4  -6 -14    1.59    0.20
  -4  -6 -14    1.76    0.14
   4   6  14    1.76    0.17
  -5  -6 -14   -0.02    0.12
  -5  -6 -14    0.15    0.08
   5   6  14    0.05    0.12
  -6  -6 -14    0.04    0.13
  -6  -6 -14    0.03    0.08
  -6  -6 -14    0.03    0.13
   6   6  14    0.00    0.11
   0  -7 -14    1.00    0.15
   0  -7 -14    1.11    0.17
   0   7  14    1.05    0.18
  -1  -7 -14   -0.02    0.12
  -1  -7 -14   -0.02    0.10
   1   7  14    0.02    0.12
  -2  -7 -14    1.03    0.12
  -2  -7 -14    1.01    0.17
   2   7  14    0.90    0.15
  -3  -7 -14    7.64    0.32
  -3  -7 -14    8.01    0.37
   3   7  14    7.23    0.34
  -4  -7 -14    0.01    0.13
  -4  -7 -14   -0.03    0.07
   4   7  14   -0.02    0.12
  -5  -7 -14    0.76    0.10
  -5  -7 -14    0.70    0.16
   5   7  14    0.79    0.15
  -6  -7 -14   -0.01    0.07
  -6  -7 -14    0.01    0.13
  -6  -7 -14   -0.01    0.12
   6   7  14    0.04    0.12
  -1  -8 -14    1.67    0.18
  -1  -8 -14    1.47    0.21
   1   8  14    1.48    0.27
  -2  -8 -14    0.07    0.13
  -2  -8 -14    0.12    0.10
   2   8  14    0.09    0.13
  -3  -8 -14    0.02    0.12
  -3  -8 -14    0.02    0.08
   3   8  14   -0.01    0.11
  -4  -8 -14    1.43    0.14
  -4  -8 -14    1.48    0.19
   4   8  14    1.26    0.16
  -5  -8 -14    2.12    0.15
  -5  -8 -14    2.06    0.23
   5   8  14    1.96    0.20
  -6  -8 -14    0.64    0.16
   3   9  14    4.25    0.40
   0   2 -15    2.12    0.23
   0  -2  15    2.17    0.22
   0  -2  15    2.69    0.19
  -1   2 -15    0.01    0.14
   1  -2  15    0.03    0.15
   1  -2  15    0.10    0.09
  -2   2 -15    0.33    0.15
   2  -2  15    0.22    0.09
   2  -2  15    0.52    0.17
   3  -2  15    1.35    0.18
   1   1 -15    1.08    0.19
  -1  -1  15    1.01    0.13
   0   1 -15    2.61    0.23
   0  -1  15    2.40    0.18
  -1   1 -15    1.03    0.18
   1  -1  15    0.65    0.10
   1  -1  15    1.11    0.18
  -2   1 -15    1.47    0.18
   2  -1  15    1.55    0.19
   2  -1  15    1.53    0.14
  -3   1 -15    4.42    0.30
   3  -1  15    4.12    0.28
   3  -1  15    4.01    0.20
  -4   1 -15    5.34    0.33
   4  -1  15    5.08    0.32
   1   0 -15    6.56    0.34
  -1   0  15    6.43    0.29
   0   0 -15    0.77    0.16
   0   0  15    0.87    0.11
  -1   0 -15    0.45    0.16
   1   0  15    0.34    0.08
  -2   0 -15    0.87    0.16
   2   0  15    0.62    0.09
   2   0  15    0.73    0.15
   2   0  15    0.92    0.15
  -3   0 -15    9.32    0.40
  -3   0 -15    9.30    0.42
   3   0  15    9.39    0.35
   3   0  15    9.75    0.42
   3   0  15    9.71    0.40
  -4   0 -15    1.71    0.20
  -4   0 -15    1.42    0.18
  -4   0 -15    1.19    0.15
   4   0  15    1.09    0.11
   4   0  15    1.45    0.17
   4   0  15    1.13    0.17
  -5   0 -15    0.12    0.16
  -5   0 -15   -0.01    0.15
  -5   0 -15    0.04    0.12
   5   0  15    0.04    0.07
   5   0  15   -0.01    0.15
   5   0  15    0.01    0.14
   1  -1 -15   14.61    0.58
  -1   1  15   13.36    0.54
  -1   1  15   13.60    0.50
   0  -1 -15    5.18    0.32
   0   1  15    5.42    0.28
   0   1  15    5.88    0.25
  -1  -1 -15    1.79    0.22
   1   1  15    1.58    0.12
   1   1  15    1.72    0.18
  -2  -1 -15    1.30    0.15
  -2  -1 -15    1.54    0.19
   2   1  15    1.40    0.16
   2   1  15    1.17    0.11
  -3  -1 -15    0.02    0.11
  -3  -1 -15    0.01    0.12
   3   1  15    0.06    0.11
   3   1  15    0.05    0.05
   3   1  15    0.05    0.11
  -4  -1 -15    0.18    0.14
  -4  -1 -15    0.18    0.14
  -4  -1 -15    0.10    0.11
   4   1  15    0.06    0.12
   4   1  15    0.11    0.05
   4   1  15    0.17    0.12
  -5  -1 -15   -0.01    0.15
  -5  -1 -15   -0.07    0.14
  -5  -1 -15    0.04    0.11
   5   1  15   -0.02    0.13
   5   1  15   -0.02    0.13
   5   1  15    0.02    0.05
   1  -2 -15    1.58    0.20
  -1   2  15    1.92    0.21
  -1   2  15    1.73    0.14
   0  -2 -15    4.39    0.29
   0   2  15    4.84    0.22
   0   2  15    4.93    0.27
  -1  -2 -15    1.59    0.19
  -1  -2 -15    1.83    0.19
   1   2  15    1.77    0.18
   1   2  15    1.58    0.12
  -2  -2 -15   15.35    0.58
  -2  -2 -15   16.00    0.61
   2   2  15   15.15    0.53
   2   2  15   16.12    0.59
  -3  -2 -15    0.51    0.12
  -3  -2 -15    0.47    0.15
   3   2  15    0.39    0.06
   3   2  15    0.43    0.12
  -4  -2 -15    0.18    0.14
  -4  -2 -15    0.23    0.10
   4   2  15    0.25    0.15
   4   2  15    0.13    0.11
   4   2  15    0.14    0.04
  -5  -2 -15    1.00    0.14
  -5  -2 -15    1.34    0.19
  -5  -2 -15    1.42    0.18
   5   2  15    1.13    0.17
   5   2  15    1.20    0.16
   1  -3 -15    2.85    0.27
  -1   3  15    3.16    0.24
   0  -3 -15    0.02    0.14
   0  -3 -15    0.01    0.16
   0   3  15    0.06    0.07
   0   3  15    0.04    0.12
  -1  -3 -15    0.04    0.11
  -1  -3 -15    0.06    0.14
   1   3  15    0.10    0.12
   1   3  15    0.06    0.05
  -2  -3 -15    0.59    0.14
  -2  -3 -15    0.45    0.12
   2   3  15    0.45    0.06
   2   3  15    0.55    0.12
  -3  -3 -15    2.99    0.20
  -3  -3 -15    3.03    0.22
   3   3  15    3.00    0.22
   3   3  15    3.21    0.12
  -4  -3 -15    0.41    0.10
  -4  -3 -15    0.50    0.15
   4   3  15    0.46    0.12
  -5  -3 -15    2.50    0.25
  -5  -3 -15    2.16    0.18
  -5  -3 -15    2.17    0.22
   5   3  15    2.58    0.21
  -6  -3 -15    0.10    0.16
   6   3  15   -0.02    0.15
   1  -4 -15    0.65    0.17
   0  -4 -15    0.19    0.11
   0  -4 -15    0.36    0.14
   0   4  15    0.20    0.07
   0   4  15    0.31    0.13
  -1  -4 -15    0.20    0.10
  -1  -4 -15    0.26    0.14
   1   4  15    0.24    0.12
   1   4  15    0.24    0.05
  -2  -4 -15    1.89    0.20
  -2  -4 -15    2.06    0.18
   2   4  15    2.12    0.10
   2   4  15    2.29    0.20
  -3  -4 -15    0.28    0.14
  -3  -4 -15    0.13    0.09
   3   4  15    0.43    0.13
  -4  -4 -15    0.27    0.10
  -4  -4 -15    0.14    0.12
   4   4  15    0.22    0.12
  -5  -4 -15    0.50    0.11
  -5  -4 -15    0.51    0.14
   5   4  15    0.46    0.13
  -6  -4 -15    0.31    0.17
   0  -5 -15    0.17    0.13
   0  -5 -15    0.23    0.13
   0   5  15    0.18    0.06
   0   5  15    0.17    0.13
  -1  -5 -15    0.47    0.12
  -1  -5 -15    0.43    0.15
   1   5  15    0.39    0.13
   1   5  15    0.40    0.05
  -2  -5 -15    0.76    0.16
  -2  -5 -15    0.74    0.12
   2   5  15    0.56    0.13
  -3  -5 -15    0.02    0.09
  -3  -5 -15   -0.03    0.11
   3   5  15    0.02    0.12
  -4  -5 -15    0.19    0.13
  -4  -5 -15    0.27    0.10
   4   5  15    0.34    0.13
  -5  -5 -15    1.39    0.15
  -5  -5 -15    1.06    0.18
   5   5  15    1.31    0.18
  -6  -5 -15    0.16    0.15
  -1  -6 -15    0.07    0.12
  -1  -6 -15    0.05    0.13
   1   6  15    0.15    0.12
  -2  -6 -15    0.03    0.14
  -2  -6 -15    0.00    0.10
   2   6  15    0.07    0.13
  -3  -6 -15    0.02    0.09
  -3  -6 -15    0.01    0.12
   3   6  15    0.11    0.13
  -4  -6 -15    5.14    0.25
  -4  -6 -15    5.01    0.31
   4   6  15    5.77    0.30
  -5  -6 -15    0.95    0.16
  -5  -6 -15    1.04    0.12
   5   6  15    0.89    0.17
  -2  -7 -15    0.25    0.11
  -3  -7 -15   13.81    0.56
  -3  -7 -15   12.44    0.49
   3   7  15   13.06    0.55
  -4  -7 -15    1.55    0.19
  -4  -7 -15    1.16    0.15
   4   7  15    1.30    0.19
  -5  -7 -15    0.23    0.14
   1   1  16    0.82    0.16
   2   1  16    1.31    0.16
  -3  -1 -16   -0.03    0.12
   3   1  16    0.03    0.13
   1   2  16    2.03    0.22
  -2  -2 -16    1.02    0.20
  -2  -2 -16    1.08    0.16
   2   2  16    1.12    0.17
   2   2  16    1.06    0.10
  -3  -2 -16    6.29    0.38
  -3  -2 -16    6.00    0.31
   3   2  16    6.34    0.24
   3   2  16    7.12    0.34
  -4  -2 -16    0.15    0.11
   4   2  16    0.18    0.14
   1   3  16    1.13    0.17
  -2  -3 -16    0.00    0.17
  -2  -3 -16    0.07    0.12
   2   3  16    0.18    0.14
   2   3  16    0.10    0.06
  -3  -3 -16    1.31    0.18
  -3  -3 -16    1.25    0.15
   3   3  16    1.55    0.19
  -4  -3 -16    0.06    0.16
  -4  -3 -16    0.01    0.10
   4   3  16    0.09    0.15
  -1  -4 -16    0.06    0.13
  -2  -4 -16    4.29    0.26
   2   4  16    3.66    0.25
  -3  -4 -16    0.05    0.11
  -3  -4 -16    0.01    0.15
   3   4  16    0.04    0.12
  -4  -4 -16    0.50    0.15
  -2  -5 -16    0.68    0.14
  -3  -5 -16    2.25    0.27
   0   0   0    0.00    0.00
;
_shelx_hkl_checksum              70930
_shelx_res_file
;
    SKM220_0m.res created by SHELXL-2014/7
TITL SKM220_0m_a.res in P-1
REM Old TITL SKM220_0m in P-1
REM SHELXT solution in P-1
REM R1 0.098,  Rweak 0.004,  Alpha 0.033,  Orientation as input
REM Formula found by SHELXT:  C16 N O6 S
CELL  0.71073   7.2771   9.9612  11.9257   78.778   75.616   72.829
ZERR    2.000   0.0005   0.0007   0.0008    0.001    0.001    0.001
LATT  1
SFAC C H N O S
UNIT 32 34 2 12 2
TEMP -173
SIZE 0.21 0.22 0.33
L.S. 8
BOND $H
LIST 4
FMAP 2
PLAN 5
CONF
MPLA C1 > C6
MPLA C11 C12 N1 C13 S1
EQIV $1 x-1, y, z
HTAB C6 O6_$1
EQIV $2 -x+1, -y+1, -z+1
HTAB C7 O5_$2
EQIV $3 -x+2, -y+1, -z
HTAB C14 O5_$3
ACTA 57
WGHT    0.076200    0.019700
FVAR       0.17755
S1    5    0.480400    0.439727    0.236814    11.00000    0.01803    0.02014 =
         0.01488   -0.00591    0.00277   -0.00891
O1    4    0.039349    0.336138    0.635277    11.00000    0.01888    0.02523 =
         0.01375   -0.00519   -0.00021   -0.00901
O2    4   -0.286537    0.257618    0.647224    11.00000    0.01610    0.01957 =
         0.01670   -0.00552    0.00701   -0.00484
O3    4   -0.338320    0.154626    0.465736    11.00000    0.01430    0.02813 =
         0.01896   -0.00719    0.00312   -0.01135
O4    4    0.527494    0.210045    0.000799    11.00000    0.02346    0.03440 =
         0.01722   -0.01055    0.00265   -0.01595
O5    4    0.809640    0.500442    0.114107    11.00000    0.02799    0.03285 =
         0.02277   -0.00990    0.00539   -0.02062
O6    4    0.974443    0.128563    0.084126    11.00000    0.02537    0.02550 =
         0.01542   -0.00218   -0.00231   -0.00799
N1    3    0.686927    0.358690    0.037342    11.00000    0.01343    0.02034 =
         0.01325   -0.00391    0.00275   -0.00726
C1    1    0.122212    0.261287    0.332895    11.00000    0.01354    0.01841 =
         0.01358   -0.00144    0.00044   -0.00585
C2    1    0.154130    0.304685    0.429801    11.00000    0.01357    0.01965 =
         0.01535   -0.00240   -0.00088   -0.00646
H2    2    0.270052    0.332100    0.424888    11.00000    0.03021
C3    1    0.020371    0.299036    0.535399    11.00000    0.01479    0.01503 =
         0.01394   -0.00278   -0.00174   -0.00289
C4    1   -0.147589    0.251283    0.544935    11.00000    0.01326    0.01505 =
         0.01431   -0.00267    0.00311   -0.00331
C5    1   -0.175034    0.203960    0.448713    11.00000    0.01139    0.01692 =
         0.01807   -0.00162   -0.00013   -0.00519
C6    1   -0.040916    0.208924    0.343514    11.00000    0.01407    0.01940 =
         0.01444   -0.00306   -0.00025   -0.00614
H6    2   -0.058418    0.177574    0.278239    11.00000    0.02062
C7    1    0.213643    0.380044    0.629227    11.00000    0.02097    0.02464 =
         0.01704   -0.00449   -0.00390   -0.00908
H7A   2    0.203178    0.403273    0.706336    11.00000    0.02722
H7B   2    0.327984    0.299847    0.612439    11.00000    0.02176
H7C   2    0.217519    0.464055    0.568850    11.00000    0.01962
C8    1   -0.273204    0.125611    0.722364    11.00000    0.02526    0.02663 =
         0.01511   -0.00209    0.00359   -0.00882
H8A   2   -0.296672    0.058124    0.682584    11.00000    0.02974
H8B   2   -0.381977    0.141238    0.791068    11.00000    0.02939
H8C   2   -0.144502    0.092336    0.743777    11.00000    0.03410
C9    1   -0.338845    0.072111    0.380126    11.00000    0.01931    0.02394 =
         0.02061   -0.00392   -0.00294   -0.01110
H9A   2   -0.227557   -0.012438    0.378329    11.00000    0.02204
H9B   2   -0.462444    0.046795    0.403334    11.00000    0.01723
H9C   2   -0.333492    0.129589    0.301129    11.00000    0.02191
C10   1    0.257479    0.259793    0.219766    11.00000    0.01458    0.02146 =
         0.01396   -0.00339   -0.00085   -0.00616
H10   2    0.239265    0.206136    0.167775    11.00000    0.01736
C11   1    0.406018    0.322010    0.176336    11.00000    0.01422    0.01897 =
         0.01362   -0.00345   -0.00102   -0.00469
C12   1    0.539346    0.288501    0.063311    11.00000    0.01338    0.02053 =
         0.01416   -0.00170   -0.00087   -0.00670
C13   1    0.687029    0.438541    0.120300    11.00000    0.01783    0.01916 =
         0.01647   -0.00277   -0.00015   -0.00802
C14   1    0.857909    0.322186   -0.055478    11.00000    0.01384    0.02069 =
         0.01430   -0.00291    0.00254   -0.00725
H14A  2    0.921995    0.403972   -0.082210    11.00000    0.02377
H14B  2    0.818717    0.305264   -0.120364    11.00000    0.01981
C15   1    1.006260    0.189070   -0.015120    11.00000    0.01668    0.01965 =
         0.01584   -0.00506   -0.00207   -0.00922
C16   1    1.190379    0.141768   -0.102738    11.00000    0.01622    0.02306 =
         0.02169   -0.00489    0.00053   -0.00633
H16A  2    1.153540    0.139050   -0.171064    11.00000    0.03700
H16B  2    1.269684    0.052916   -0.075023    11.00000    0.02537
H16C  2    1.253506    0.214365   -0.114586    11.00000    0.04470
HKLF 4
REM  SKM220_0m_a.res in P-1
REM R1 =  0.0371 for    3660 Fo > 4sig(Fo)  and  0.0416 for all    4235 data
REM    285 parameters refined using      0 restraints
END
WGHT      0.0763      0.0197
REM Highest difference peak  0.526,  deepest hole -0.237,  1-sigma level  0.070
Q1    1   0.4367  0.3706  0.2136  11.00000  0.05    0.51
Q2    1  -0.0670  0.2713  0.5366  11.00000  0.05    0.47
Q3    1   0.6322  0.3193  0.0570  11.00000  0.05    0.45
Q4    1   0.9343  0.2552 -0.0413  11.00000  0.05    0.45
Q5    1  -0.2058  0.2524  0.5773  11.00000  0.05    0.44
;
_shelx_res_checksum              44017
loop_
_space_group_symop_operation_xyz
'x, y, z'
'-x, -y, -z'
loop_
_atom_site_type_symbol
_atom_site_label
_atom_site_fract_x
_atom_site_fract_y
_atom_site_fract_z
_atom_site_U_iso_or_equiv
_atom_site_adp_type
_atom_site_calc_flag
_atom_site_occupancy
S S1 0.48040(4) 0.43973(3) 0.23681(2) 0.01742(10) Uani d 1
O O1 0.03935(12) 0.33614(9) 0.63528(7) 0.01876(18) Uani d 1
O O2 -0.28654(12) 0.25762(9) 0.64722(7) 0.01887(18) Uani d 1
O O3 -0.33832(11) 0.15463(9) 0.46574(7) 0.01978(19) Uani d 1
O O4 0.52749(13) 0.21005(10) 0.00080(7) 0.0234(2) Uani d 1
O O5 0.80964(14) 0.50044(10) 0.11411(8) 0.0261(2) Uani d 1
O O6 0.97444(13) 0.12856(9) 0.08413(7) 0.02220(19) Uani d 1
N N1 0.68693(13) 0.35869(10) 0.03734(8) 0.0158(2) Uani d 1
C C1 0.12221(16) 0.26129(12) 0.33290(9) 0.0155(2) Uani d 1
C C2 0.15413(16) 0.30468(12) 0.42980(9) 0.0161(2) Uani d 1
H H2 0.270(2) 0.3321(17) 0.4249(14) 0.030(4) Uiso d 1
C C3 0.02037(16) 0.29904(11) 0.53540(9) 0.0149(2) Uani d 1
C C4 -0.14759(16) 0.25128(11) 0.54493(9) 0.0153(2) Uani d 1
C C5 -0.17503(16) 0.20396(12) 0.44871(10) 0.0158(2) Uani d 1
C C6 -0.04092(16) 0.20892(12) 0.34351(10) 0.0159(2) Uani d 1
H H6 -0.058(2) 0.1776(14) 0.2782(13) 0.021(4) Uiso d 1
C C7 0.21364(18) 0.38004(13) 0.62923(10) 0.0199(2) Uani d 1
H H7A 0.203(2) 0.4033(16) 0.7063(13) 0.027(4) Uiso d 1
H H7B 0.328(2) 0.2998(15) 0.6124(13) 0.022(4) Uiso d 1
H H7C 0.218(2) 0.4641(15) 0.5688(13) 0.020(3) Uiso d 1
C C8 -0.2732(2) 0.12561(14) 0.72236(11) 0.0234(3) Uani d 1
H H8A -0.297(2) 0.0581(17) 0.6826(14) 0.030(4) Uiso d 1
H H8B -0.382(2) 0.1412(16) 0.7911(14) 0.029(4) Uiso d 1
H H8C -0.145(3) 0.0923(17) 0.7438(14) 0.034(4) Uiso d 1
C C9 -0.33885(18) 0.07211(13) 0.38013(11) 0.0201(2) Uani d 1
H H9A -0.228(2) -0.0124(15) 0.3783(12) 0.022(4) Uiso d 1
H H9B -0.462(2) 0.0468(14) 0.4033(12) 0.017(3) Uiso d 1
H H9C -0.333(2) 0.1296(15) 0.3011(13) 0.022(4) Uiso d 1
C C10 0.25748(16) 0.25979(12) 0.21977(10) 0.0166(2) Uani d 1
H H10 0.239(2) 0.2061(14) 0.1678(12) 0.017(3) Uiso d 1
C C11 0.40602(16) 0.32201(12) 0.17634(9) 0.0157(2) Uani d 1
C C12 0.53935(16) 0.28850(12) 0.06331(9) 0.0160(2) Uani d 1
C C13 0.68703(17) 0.43854(12) 0.12030(10) 0.0177(2) Uani d 1
C C14 0.85791(16) 0.32219(12) -0.05548(10) 0.0166(2) Uani d 1
H H14A 0.922(2) 0.4040(16) -0.0822(13) 0.024(4) Uiso d 1
H H14B 0.819(2) 0.3053(15) -0.1204(13) 0.020(3) Uiso d 1
C C15 1.00626(16) 0.18907(12) -0.01512(9) 0.0162(2) Uani d 1
C C16 1.19038(18) 0.14177(14) -0.10274(11) 0.0206(2) Uani d 1
H H16A 1.154(2) 0.1391(18) -0.1711(15) 0.037(4) Uiso d 1
H H16B 1.270(2) 0.0529(17) -0.0750(14) 0.025(4) Uiso d 1
H H16C 1.254(3) 0.2144(19) -0.1146(16) 0.045(5) Uiso d 1
loop_
_atom_site_aniso_label
_atom_site_aniso_U_11
_atom_site_aniso_U_22
_atom_site_aniso_U_33
_atom_site_aniso_U_12
_atom_site_aniso_U_13
_atom_site_aniso_U_23
S1 0.01803(16) 0.02014(16) 0.01488(15) -0.00891(11) 0.00277(11) -0.00591(11)
O1 0.0189(4) 0.0252(4) 0.0137(4) -0.0090(3) -0.0002(3) -0.0052(3)
O2 0.0161(4) 0.0196(4) 0.0167(4) -0.0048(3) 0.0070(3) -0.0055(3)
O3 0.0143(4) 0.0281(4) 0.0190(4) -0.0113(3) 0.0031(3) -0.0072(3)
O4 0.0235(4) 0.0344(5) 0.0172(4) -0.0160(4) 0.0027(3) -0.0105(3)
O5 0.0280(5) 0.0328(5) 0.0228(4) -0.0206(4) 0.0054(4) -0.0099(4)
O6 0.0254(5) 0.0255(4) 0.0154(4) -0.0080(4) -0.0023(3) -0.0022(3)
N1 0.0134(4) 0.0203(5) 0.0133(4) -0.0073(4) 0.0027(3) -0.0039(3)
C1 0.0135(5) 0.0184(5) 0.0136(5) -0.0058(4) 0.0004(4) -0.0014(4)
C2 0.0136(5) 0.0196(5) 0.0154(5) -0.0065(4) -0.0009(4) -0.0024(4)
C3 0.0148(5) 0.0150(5) 0.0139(5) -0.0029(4) -0.0017(4) -0.0028(4)
C4 0.0133(5) 0.0151(5) 0.0143(5) -0.0033(4) 0.0031(4) -0.0027(4)
C5 0.0114(5) 0.0169(5) 0.0181(5) -0.0052(4) -0.0001(4) -0.0016(4)
C6 0.0141(5) 0.0194(5) 0.0144(5) -0.0061(4) -0.0003(4) -0.0031(4)
C7 0.0210(6) 0.0246(6) 0.0170(5) -0.0091(5) -0.0039(4) -0.0045(4)
C8 0.0253(6) 0.0266(6) 0.0151(5) -0.0088(5) 0.0036(5) -0.0021(5)
C9 0.0193(6) 0.0239(6) 0.0206(6) -0.0111(5) -0.0029(4) -0.0039(5)
C10 0.0146(5) 0.0215(5) 0.0140(5) -0.0062(4) -0.0009(4) -0.0034(4)
C11 0.0142(5) 0.0190(5) 0.0136(5) -0.0047(4) -0.0010(4) -0.0034(4)
C12 0.0134(5) 0.0205(5) 0.0142(5) -0.0067(4) -0.0009(4) -0.0017(4)
C13 0.0178(5) 0.0192(5) 0.0165(5) -0.0080(4) -0.0001(4) -0.0028(4)
C14 0.0138(5) 0.0207(5) 0.0143(5) -0.0072(4) 0.0025(4) -0.0029(4)
C15 0.0167(5) 0.0197(5) 0.0158(5) -0.0092(4) -0.0021(4) -0.0051(4)
C16 0.0162(5) 0.0231(6) 0.0217(6) -0.0063(5) 0.0005(4) -0.0049(5)
loop_
_atom_type_symbol
_atom_type_description
_atom_type_scat_dispersion_real
_atom_type_scat_dispersion_imag
_atom_type_scat_source
C C 0.0033 0.0016 'International Tables Vol C Tables 4.2.6.8 and 6.1.1.4'
H H 0.0000 0.0000 'International Tables Vol C Tables 4.2.6.8 and 6.1.1.4'
N N 0.0061 0.0033 'International Tables Vol C Tables 4.2.6.8 and 6.1.1.4'
O O 0.0106 0.0060 'International Tables Vol C Tables 4.2.6.8 and 6.1.1.4'
S S 0.1246 0.1234 'International Tables Vol C Tables 4.2.6.8 and 6.1.1.4'
loop_
_geom_angle_atom_site_label_1
_geom_angle_atom_site_label_2
_geom_angle_atom_site_label_3
_geom_angle
C11 S1 C13 91.48(5)
C3 O1 C7 116.50(9)
C4 O2 C8 114.25(8)
C5 O3 C9 115.87(9)
C13 N1 C12 116.31(9)
C13 N1 C14 120.69(9)
C12 N1 C14 121.22(9)
C6 C1 C2 120.03(10)
C6 C1 C10 116.52(9)
C2 C1 C10 123.37(10)
C3 C2 C1 119.64(10)
C3 C2 H2 120.0(9)
C1 C2 H2 120.3(9)
O1 C3 C2 124.35(10)
O1 C3 C4 115.33(9)
C2 C3 C4 120.32(10)
O2 C4 C5 120.89(10)
O2 C4 C3 119.44(9)
C5 C4 C3 119.61(10)
O3 C5 C6 123.72(10)
O3 C5 C4 116.29(10)
C6 C5 C4 119.99(10)
C5 C6 C1 120.34(10)
C5 C6 H6 120.6(9)
C1 C6 H6 119.1(9)
O1 C7 H7A 105.8(9)
O1 C7 H7B 108.4(9)
H7A C7 H7B 109.4(12)
O1 C7 H7C 109.2(8)
H7A C7 H7C 111.3(12)
H7B C7 H7C 112.5(12)
O2 C8 H8A 108.7(9)
O2 C8 H8B 107.5(9)
H8A C8 H8B 106.5(13)
O2 C8 H8C 109.8(10)
H8A C8 H8C 111.8(13)
H8B C8 H8C 112.4(13)
O3 C9 H9A 110.0(8)
O3 C9 H9B 106.0(8)
H9A C9 H9B 111.2(12)
O3 C9 H9C 110.8(8)
H9A C9 H9C 110.3(12)
H9B C9 H9C 108.4(11)
C11 C10 C1 130.61(10)
C11 C10 H10 114.0(9)
C1 C10 H10 115.4(9)
C10 C11 C12 119.86(10)
C10 C11 S1 129.49(9)
C12 C11 S1 110.60(8)
O4 C12 N1 123.07(10)
O4 C12 C11 126.41(10)
N1 C12 C11 110.51(9)
O5 C13 N1 124.82(11)
O5 C13 S1 124.25(9)
N1 C13 S1 110.93(8)
N1 C14 C15 111.00(9)
N1 C14 H14A 110.1(8)
C15 C14 H14A 109.8(8)
N1 C14 H14B 109.6(9)
C15 C14 H14B 108.5(9)
H14A C14 H14B 107.8(12)
O6 C15 C16 123.34(11)
O6 C15 C14 120.60(10)
C16 C15 C14 116.04(10)
C15 C16 H16A 107.2(10)
C15 C16 H16B 111.7(10)
H16A C16 H16B 112.3(14)
C15 C16 H16C 104.2(11)
H16A C16 H16C 109.2(15)
H16B C16 H16C 111.7(14)
loop_
_geom_bond_atom_site_label_1
_geom_bond_atom_site_label_2
_geom_bond_distance
S1 C11 1.7567(11)
S1 C13 1.7747(12)
O1 C3 1.3629(13)
O1 C7 1.4405(14)
O2 C4 1.3762(13)
O2 C8 1.4320(15)
O3 C5 1.3714(13)
O3 C9 1.4312(14)
O4 C12 1.2134(14)
O5 C13 1.2067(14)
O6 C15 1.2191(14)
N1 C13 1.3851(14)
N1 C12 1.3900(14)
N1 C14 1.4529(14)
C1 C6 1.4009(14)
C1 C2 1.4012(15)
C1 C10 1.4590(15)
C2 C3 1.3901(15)
C2 H2 0.946(16)
C3 C4 1.4094(15)
C4 C5 1.3996(15)
C5 C6 1.3874(15)
C6 H6 0.942(14)
C7 H7A 0.971(15)
C7 H7B 0.979(15)
C7 H7C 0.994(15)
C8 H8A 0.969(16)
C8 H8B 0.988(15)
C8 H8C 0.977(17)
C9 H9A 0.980(15)
C9 H9B 0.966(14)
C9 H9C 1.001(14)
C10 C11 1.3466(15)
C10 H10 0.948(14)
C11 C12 1.4845(15)
C14 C15 1.5231(16)
C14 H14A 1.016(15)
C14 H14B 0.947(14)
C15 C16 1.4941(16)
C16 H16A 0.926(17)
C16 H16B 0.951(16)
C16 H16C 0.937(19)
loop_
_geom_hbond_atom_site_label_D
_geom_hbond_atom_site_label_H
_geom_hbond_atom_site_label_A
_geom_hbond_site_symmetry_A
_geom_hbond_distance_DH
_geom_hbond_distance_HA
_geom_hbond_distance_DA
_geom_hbond_angle_DHA
C6 H6 O6 1_455 0.942(14) 2.398(14) 3.3108(14) 163.2(12)
C7 H7A O5 2_666 0.971(15) 2.482(15) 3.4434(15) 170.4(13)
C14 H14A O5 2_765 1.016(15) 2.335(15) 3.2659(14) 151.8(11)
C7 H7C Cg1 2_566 0.994(15) 2.755(15) 3.5131(14) 133.3(11)
C9 H9C Cg2 1_455 1.001(14) 2.900(15) 3.8441(14) 157.5(11)
loop_
_geom_torsion_atom_site_label_1
_geom_torsion_atom_site_label_2
_geom_torsion_atom_site_label_3
_geom_torsion_atom_site_label_4
_geom_torsion
C6 C1 C2 C3 -1.73(17)
C10 C1 C2 C3 -178.19(10)
C7 O1 C3 C2 -1.74(15)
C7 O1 C3 C4 177.64(10)
C1 C2 C3 O1 178.73(10)
C1 C2 C3 C4 -0.62(17)
C8 O2 C4 C5 82.74(13)
C8 O2 C4 C3 -100.09(12)
O1 C3 C4 O2 6.01(15)
C2 C3 C4 O2 -174.59(9)
O1 C3 C4 C5 -176.78(10)
C2 C3 C4 C5 2.62(16)
C9 O3 C5 C6 16.49(16)
C9 O3 C5 C4 -163.65(10)
O2 C4 C5 O3 -4.97(15)
C3 C4 C5 O3 177.86(10)
O2 C4 C5 C6 174.89(10)
C3 C4 C5 C6 -2.27(16)
O3 C5 C6 C1 179.79(10)
C4 C5 C6 C1 -0.06(17)
C2 C1 C6 C5 2.08(17)
C10 C1 C6 C5 178.78(10)
C6 C1 C10 C11 167.88(12)
C2 C1 C10 C11 -15.5(2)
C1 C10 C11 C12 172.00(11)
C1 C10 C11 S1 -5.3(2)
C13 S1 C11 C10 175.08(11)
C13 S1 C11 C12 -2.42(8)
C13 N1 C12 O4 -176.61(11)
C14 N1 C12 O4 -11.70(17)
C13 N1 C12 C11 2.50(14)
C14 N1 C12 C11 167.41(9)
C10 C11 C12 O4 1.81(18)
S1 C11 C12 O4 179.59(10)
C10 C11 C12 N1 -177.26(10)
S1 C11 C12 N1 0.52(12)
C12 N1 C13 O5 176.35(11)
C14 N1 C13 O5 11.36(18)
C12 N1 C13 S1 -4.36(13)
C14 N1 C13 S1 -169.35(8)
C11 S1 C13 O5 -176.90(11)
C11 S1 C13 N1 3.80(9)
C13 N1 C14 C15 85.05(12)
C12 N1 C14 C15 -79.20(12)
N1 C14 C15 O6 -0.64(14)
N1 C14 C15 C16 -179.20(9)

_cod_database_fobs_code 1544778
