#------------------------------------------------------------------------------
#$Date: 2016-09-06 13:19:46 +0300 (Tue, 06 Sep 2016) $
#$Revision: 186167 $
#$URL: file:///home/coder/svn-repositories/cod/cif/1/54/40/1544026.cif $
#------------------------------------------------------------------------------
#
# This file is available in the Crystallography Open Database (COD),
# http://www.crystallography.net/
#
# All data on this site have been placed in the public domain by the
# contributors.
#
data_1544026
loop_
_publ_author_name
'Shu, Chao'
'Shen, Cang-Hai'
'Wang, Yong-Heng'
'Li, Long'
'Li, Tao'
'Lu, Xin'
'Ye, Long-Wu'
_publ_section_title
;
 Synthesis of 2-Aza-1,3-butadienes through Gold-Catalyzed Intermolecular
 Ynamide Amination/C-H Functionalization.
;
_journal_name_full               'Organic letters'
_journal_paper_doi               10.1021/acs.orglett.6b02267
_journal_year                    2016
_chemical_formula_moiety         'C22 H19 Br N2 O2 S'
_chemical_formula_sum            'C22 H19 Br N2 O2 S'
_chemical_formula_weight         455.36
_chemical_name_systematic
;
 ?
;
_space_group_crystal_system      monoclinic
_space_group_IT_number           4
_space_group_name_Hall           'P 2yb'
_space_group_name_H-M_alt        'P 1 21 1'
_symmetry_space_group_name_Hall  'P 2yb'
_symmetry_space_group_name_H-M   'P 1 21 1'
_atom_sites_solution_hydrogens   geom
_atom_sites_solution_primary     direct
_atom_sites_solution_secondary   difmap
_audit_creation_date             2016-06-19
_audit_creation_method
;
Olex2 1.2
(compiled 2015.01.06 svn.r3119 for OlexSys, GUI svn.r4979)
;
_cell_angle_alpha                90
_cell_angle_beta                 115.135(4)
_cell_angle_gamma                90
_cell_formula_units_Z            2
_cell_length_a                   11.662(3)
_cell_length_b                   7.774(2)
_cell_length_c                   12.367(3)
_cell_measurement_reflns_used    4250
_cell_measurement_temperature    273(2)
_cell_measurement_theta_max      26.87
_cell_measurement_theta_min      3.16
_cell_volume                     1015.0(4)
_computing_cell_refinement       'Bruker SMART'
_computing_data_collection       'Bruker SMART'
_computing_data_reduction        'Bruker SAINT'
_computing_molecular_graphics    'Olex2 (Dolomanov et al., 2009)'
_computing_publication_material  'Olex2 (Dolomanov et al., 2009)'
_computing_structure_refinement  'ShelXL (Sheldrick, 2008)'
_computing_structure_solution    'SHELXS-97 (Sheldrick, 1990)'
_diffrn_ambient_temperature      273.15
_diffrn_measured_fraction_theta_full 0.992
_diffrn_measured_fraction_theta_max 0.993
_diffrn_measurement_device_type  'CCD area detector'
_diffrn_measurement_method       'phi and omega scans'
_diffrn_radiation_type           MoK\a
_diffrn_radiation_wavelength     0.71073
_diffrn_reflns_av_R_equivalents  0.0272
_diffrn_reflns_av_unetI/netI     0.0547
_diffrn_reflns_Laue_measured_fraction_full 0.992
_diffrn_reflns_Laue_measured_fraction_max 0.993
_diffrn_reflns_limit_h_max       14
_diffrn_reflns_limit_h_min       -14
_diffrn_reflns_limit_k_max       9
_diffrn_reflns_limit_k_min       -9
_diffrn_reflns_limit_l_max       15
_diffrn_reflns_limit_l_min       -15
_diffrn_reflns_number            7655
_diffrn_reflns_point_group_measured_fraction_full 0.966
_diffrn_reflns_point_group_measured_fraction_max 0.965
_diffrn_reflns_theta_full        25.242
_diffrn_reflns_theta_max         25.994
_diffrn_reflns_theta_min         1.819
_diffrn_source                   'fine-focus sealed tube'
_exptl_absorpt_coefficient_mu    2.148
_exptl_absorpt_correction_type   none
_exptl_crystal_colour            colourless
_exptl_crystal_density_diffrn    1.490
_exptl_crystal_density_method    'not measured'
_exptl_crystal_description       block
_exptl_crystal_F_000             464
_exptl_crystal_size_max          0.14
_exptl_crystal_size_mid          0.14
_exptl_crystal_size_min          0.12
_refine_diff_density_max         0.582
_refine_diff_density_min         -0.241
_refine_diff_density_rms         0.052
_refine_ls_abs_structure_details
;
 Flack x determined using 1364 quotients [(I+)-(I-)]/[(I+)+(I-)]
 (Parsons and Flack (2004), Acta Cryst. A60, s61).
;
_refine_ls_abs_structure_Flack   0.040(6)
_refine_ls_extinction_method     none
_refine_ls_goodness_of_fit_ref   0.986
_refine_ls_hydrogen_treatment    constr
_refine_ls_matrix_type           full
_refine_ls_number_parameters     253
_refine_ls_number_reflns         3854
_refine_ls_number_restraints     1
_refine_ls_restrained_S_all      0.986
_refine_ls_R_factor_all          0.0398
_refine_ls_R_factor_gt           0.0343
_refine_ls_shift/su_max          0.000
_refine_ls_shift/su_mean         0.000
_refine_ls_structure_factor_coef Fsqd
_refine_ls_weighting_details
;
 w=1/[\s^2^(Fo^2^)+(0.0301P)^2^]
 where P=(Fo^2^+2Fc^2^)/3
;
_refine_ls_weighting_scheme      calc
_refine_ls_wR_factor_gt          0.0771
_refine_ls_wR_factor_ref         0.0783
_reflns_Friedel_coverage         0.803
_reflns_Friedel_fraction_full    0.937
_reflns_Friedel_fraction_max     0.933
_reflns_number_gt                3394
_reflns_number_total             3854
_reflns_threshold_expression     'I > 2\s(I)'
_cod_data_source_file            ol6b02267_si_002.cif
_cod_data_source_block           ye1107m
_cod_original_cell_volume        1015.1(5)
_cod_database_code               1544026
_shelxl_version_number           2013-2
_shelx_space_group_comment
;
The symmetry employed for this shelxl refinement is uniquely defined
by the following loop, which should always be used as a source of
symmetry information in preference to the above space-group names.
They are only intended as comments.
;
_olex2_refinement_description
;
1. Fixed Uiso
 At 1.2 times of:
  All C(H) groups
 At 1.5 times of:
  All C(H,H,H) groups
2.a Me refined with riding coordinates:
 C101(H10A,H10B,H10C)
2.b Aromatic/amide H refined with riding coordinates:
 C1(H1), C3(H3), C12(H12), C13(H13), C15(H15), C16(H16), C32(H32), C33(H33),
 C34(H34), C35(H35), C36(H36), C42(H42), C43(H43), C44(H44), C45(H45), C46(H46)
;
_shelx_res_file
;
TITL ye1107m in P2(1)
CELL 0.71073 11.6623 7.7738 12.3674 90 115.135 90
ZERR 2 0.003 0.002 0.0032 0 0.004 0
LATT -1
SYMM -X,0.5+Y,-Z
SFAC C H Br N O S
UNIT 44 38 2 4 4 2

L.S. 10
PLAN  20
TEMP 0
BOND
fmap 2
acta
OMIT 0 52
REM <olex2.extras>
REM <HklSrc "%.\\ye1107m.hkl">
REM </olex2.extras>

WGHT    0.030100
FVAR       0.21508
BR1   3    0.114563    1.481880    0.133538    11.00000    0.06112    0.05704 =
         0.09449    0.01328    0.04059    0.02669
S1    6    0.531735    0.783880    0.372735    11.00000    0.03112    0.04044 =
         0.03687    0.00633    0.01498    0.00349
N1    4    0.702169    0.946159    0.278005    11.00000    0.02890    0.04450 =
         0.03922    0.00346    0.01623    0.00071
O1    5    0.421575    0.756389    0.389839    11.00000    0.04268    0.06399 =
         0.05857    0.02289    0.03106    0.00713
C1    1    0.784353    0.867305    0.256062    11.00000    0.02899    0.04045 =
         0.04041    0.00269    0.01549   -0.00155
AFIX  43
H1    2    0.757138    0.789677    0.192874    11.00000   -1.20000
AFIX   0
N2    4    0.493874    0.909626    0.257916    11.00000    0.02568    0.04142 =
         0.03811    0.00697    0.01569    0.00488
C2    1    0.576818    0.917214    0.199989    11.00000    0.02726    0.03951 =
         0.04134    0.00352    0.01763    0.00251
O2    5    0.593191    0.643260    0.350158    11.00000    0.04336    0.03928 =
         0.04463    0.00305    0.01605    0.00668
C3    1    0.534249    0.914780    0.084309    11.00000    0.03259    0.04481 =
         0.04479    0.00885    0.02214    0.00678
AFIX  43
H3    2    0.594521    0.937681    0.055534    11.00000   -1.20000
AFIX   0
C11   1    0.405104    1.045036    0.235646    11.00000    0.02500    0.03991 =
         0.03238    0.00630    0.01120    0.00295
C12   1    0.442523    1.210322    0.235280    11.00000    0.03027    0.04853 =
         0.04464    0.00051    0.01739   -0.00344
AFIX  43
H12   2    0.527339    1.234498    0.255798    11.00000   -1.20000
AFIX   0
C13   1    0.356778    1.340897    0.205095    11.00000    0.04586    0.03785 =
         0.05950    0.00294    0.02754   -0.00131
AFIX  43
H13   2    0.381631    1.454094    0.203138    11.00000   -1.20000
AFIX   0
C14   1    0.234284    1.301984    0.177952    11.00000    0.03738    0.04494 =
         0.04622    0.00366    0.01991    0.01371
C15   1    0.196135    1.140096    0.180964    11.00000    0.02417    0.05227 =
         0.05827    0.00624    0.01700    0.00634
AFIX  43
H15   2    0.111843    1.117616    0.163838    11.00000   -1.20000
AFIX   0
C16   1    0.280503    1.009597    0.208957    11.00000    0.03111    0.04056 =
         0.05388    0.00436    0.01844   -0.00210
AFIX  43
H16   2    0.254453    0.896821    0.210145    11.00000   -1.20000
AFIX   0
C31   1    0.408204    0.882146   -0.006558    11.00000    0.03644    0.04104 =
         0.03817    0.00346    0.01861    0.00998
C32   1    0.375490    0.949799   -0.119089    11.00000    0.05078    0.04763 =
         0.04200    0.00508    0.02289    0.00924
AFIX  43
H32   2    0.433802    1.016600   -0.133329    11.00000   -1.20000
AFIX   0
C33   1    0.260052    0.920437   -0.208840    11.00000    0.05559    0.06230 =
         0.03526    0.00416    0.01258    0.01494
AFIX  43
H33   2    0.240136    0.965904   -0.284262    11.00000   -1.20000
AFIX   0
C34   1    0.173173    0.825194   -0.189632    11.00000    0.04519    0.06449 =
         0.04641   -0.01266    0.00241    0.01023
AFIX  43
H34   2    0.092701    0.809150   -0.250735    11.00000   -1.20000
AFIX   0
C35   1    0.204188    0.753281   -0.080712    11.00000    0.03943    0.05997 =
         0.05366   -0.00891    0.01738   -0.00671
AFIX  43
H35   2    0.145691    0.684911   -0.067895    11.00000   -1.20000
AFIX   0
C36   1    0.320410    0.780952    0.009541    11.00000    0.04242    0.05084 =
         0.03843    0.00584    0.01358    0.00106
AFIX  43
H36   2    0.340821    0.730359    0.083593    11.00000   -1.20000
AFIX   0
C41   1    0.918231    0.891884    0.324247    11.00000    0.02863    0.04255 =
         0.03972    0.00446    0.01777   -0.00001
C42   1    0.999794    0.783320    0.303273    11.00000    0.03309    0.04757 =
         0.04855   -0.01056    0.01935   -0.00554
AFIX  43
H42   2    0.967584    0.699144    0.244555    11.00000   -1.20000
AFIX   0
C43   1    1.127300    0.798257    0.367862    11.00000    0.03084    0.05209 =
         0.05259   -0.00255    0.01733    0.00014
AFIX  43
H43   2    1.181648    0.721814    0.355086    11.00000   -1.20000
AFIX   0
C44   1    1.174784    0.923355    0.450098    11.00000    0.02876    0.06500 =
         0.04342    0.00499    0.00968   -0.00383
AFIX  43
H44   2    1.262006    0.934888    0.492625    11.00000   -1.20000
AFIX   0
C45   1    1.095921    1.033029    0.471369    11.00000    0.04096    0.05432 =
         0.03702   -0.00504    0.00894   -0.00598
AFIX  43
H45   2    1.129445    1.119350    0.528289    11.00000   -1.20000
AFIX   0
C46   1    0.967017    1.016982    0.409228    11.00000    0.03677    0.04295 =
         0.03808   -0.00007    0.01691    0.00126
AFIX  43
H46   2    0.913198    1.090879    0.424903    11.00000   -1.20000
AFIX   0
C101  1    0.638019    0.895241    0.494825    11.00000    0.05287    0.05905 =
         0.04083   -0.00478    0.02023    0.00199
AFIX  33
H10A  2    0.596255    0.991923    0.510669    11.00000   -1.50000
H10B  2    0.707038    0.935084    0.478578    11.00000   -1.50000
H10C  2    0.669911    0.820688    0.563170    11.00000   -1.50000
AFIX   0
HKLF 4

REM  ye1107m in P2(1)
REM R1 =  0.0343 for    3394 Fo > 4sig(Fo)  and  0.0398 for all    3854 data
REM    253 parameters refined using      1 restraints

END

WGHT      0.0301      0.0000

REM Highest difference peak  0.582,  deepest hole -0.241,  1-sigma level  0.052
Q1    1   0.0776  1.4053  0.0776  11.00000  0.05    0.40
Q2    1   0.0938  1.4575  0.2011  11.00000  0.05    0.37
Q3    1   0.1946  1.4730  0.2000  11.00000  0.05    0.32
Q4    1   0.1342  1.4898  0.0620  11.00000  0.05    0.30
Q5    1   0.0656  1.5677  0.0984  11.00000  0.05    0.29
Q6    1   0.1804  1.3783  0.1541  11.00000  0.05    0.24
Q7    1   0.5434  0.9738  0.1382  11.00000  0.05    0.24
Q8    1   0.5854  0.8235  0.4554  11.00000  0.05    0.22
Q9    1   0.5670  0.7510  0.3165  11.00000  0.05    0.21
Q10   1   0.4811  0.8214  0.2877  11.00000  0.05    0.21
Q11   1   0.5359  0.9389  0.2365  11.00000  0.05    0.20
Q12   1   0.5392  0.8202  0.3003  11.00000  0.05    0.19
Q13   1   0.9472  0.8044  0.3328  11.00000  0.05    0.19
Q14   1   0.5291  0.6664  0.2923  11.00000  0.05    0.18
Q15   1   0.6851  0.9625  0.3567  11.00000  0.05    0.16
Q16   1   0.9483  0.8875  0.2786  11.00000  0.05    0.16
Q17   1   0.3597  0.7784  0.3181  11.00000  0.05    0.16
Q18   1   0.5128  0.8192  0.4432  11.00000  0.05    0.16
Q19   1   0.2183  0.8249 -0.2022  11.00000  0.05    0.16
Q20   1   0.5625  0.6807  0.3786  11.00000  0.05    0.16
;
_shelx_res_checksum              43066
_shelx_hkl_file
;
  -1   0   0   57.88    3.25
   1   0   0   62.56    3.30
  -2   0   0   35.98    2.06
  -2   0   0   37.57    2.14
   2   0   0   39.04    2.09
   3   0   0  157.44    8.18
  -3   0   0  142.19    8.08
   4   0   0   88.22    4.64
  -4   0   0   79.12    4.58
  -5   0   0    9.73    0.72
   5   0   0   11.52    0.74
  -6   0   0   23.61    1.52
   6   0   0   26.16    1.53
   7   0   0    7.56    0.62
  -7   0   0    7.35    0.64
   8   0   0    8.03    0.67
  -8   0   0    7.48    0.69
  -9   0   0   14.87    1.12
   9   0   0   15.35    1.09
 -10   0   0   13.54    1.07
  10   0   0   12.76    1.00
  11   0   0    0.55    0.36
 -11   0   0    0.58    0.38
  12   0   0    1.52    0.45
 -12   0   0    1.95    0.52
  13   0   0    0.90    0.41
 -13   0   0    0.55    0.44
   0  -1   0    0.52    0.08
   0   1   0    0.61    0.07
   0  -1   0    0.61    0.08
  -1  -1   0   21.62    1.16
  -1  -1   0   20.86    1.14
  -1  -1   0   21.72    1.19
  -1   1   0   18.25    1.15
   1  -1   0   21.30    1.16
  -2  -1   0  139.64    7.63
   2  -1   0  144.05    7.72
  -2  -1   0  144.13    7.93
  -2  -1   0  139.85    7.74
  -3  -1   0  128.68    6.91
  -3  -1   0  126.26    6.81
  -3  -1   0  134.73    7.05
  -3   1   0  116.76    7.05
   3  -1   0  133.55    6.89
  -3   1   0  115.57    6.80
  -4  -1   0   52.35    2.88
  -4  -1   0   48.31    2.84
   4  -1   0   51.64    2.87
  -4   1   0   50.24    2.88
   4   1   0   50.58    2.87
  -4   1   0   52.70    2.86
  -5  -1   0   45.42    2.67
   5  -1   0   42.96    2.67
   5   1   0   49.69    2.70
  -5   1   0   50.28    2.69
   6  -1   0   47.05    2.59
  -6  -1   0   43.30    2.57
   6   1   0   43.39    2.58
  -6   1   0   44.68    2.59
   7  -1   0    2.77    0.39
  -7  -1   0    3.61    0.44
  -7   1   0    3.17    0.43
  -8   1   0   48.82    2.91
   8   1   0   47.84    2.90
  -8  -1   0   49.94    2.92
   8  -1   0   51.55    2.92
  -9   1   0    7.62    0.75
  -9  -1   0    8.93    0.78
   9  -1   0    8.30    0.73
   9   1   0    7.90    0.72
  10  -1   0   10.10    0.90
 -10  -1   0   11.26    0.97
  10   1   0   12.30    0.93
 -10   1   0   11.75    0.97
 -11  -1   0    7.89    0.79
  11   1   0    6.16    0.68
  11  -1   0    6.68    0.71
 -11   1   0    5.74    0.73
 -12  -1   0    0.48    0.40
 -12   1   0    0.78    0.42
  12  -1   0    0.27    0.34
  12   1   0    0.70    0.38
  13   1   0    0.72    0.41
 -13   1   0    0.60    0.45
  13  -1   0    0.83    0.45
 -13  -1   0    1.30    0.50
   0  -2   0  679.11   36.81
   0   2   0  619.68   35.39
   0  -2   0  685.89   35.80
   1   2   0  176.38    8.80
   1  -2   0  151.25    8.90
  -2  -2   0    3.47    0.26
   2  -2   0    3.30    0.27
  -2   2   0    2.91    0.29
  -2  -2   0    3.68    0.28
  -2   2   0    3.08    0.27
  -2  -2   0    3.36    0.27
  -3  -2   0    7.86    0.52
   4  -2   0  109.76    6.17
  -4  -2   0  104.01    6.19
  -4  -2   0  113.56    6.31
  -4   2   0  119.49    6.13
  -4   2   0  118.08    6.32
  -4  -2   0  107.92    6.10
  -5   2   0  105.42    5.87
  -5  -2   0  113.24    6.02
  -5   2   0  104.38    6.01
   5  -2   0  107.96    5.91
  -5  -2   0  102.81    5.84
  -6   2   0   26.12    1.49
   6  -2   0   21.51    1.45
  -6  -2   0   21.59    1.45
  -6   2   0   24.24    1.39
  -6  -2   0   23.68    1.40
   6   2   0   24.13    1.47
  -7   2   0   10.19    0.79
   7  -2   0    9.00    0.74
   8  -2   0   20.94    1.37
   8   2   0   20.05    1.35
  -8  -2   0   22.33    1.40
  -8   2   0   19.05    1.37
  -9  -2   0    2.04    0.44
   9   2   0    0.27    0.30
  -9   2   0    0.34    0.32
   9  -2   0    1.98    0.40
 -10   2   0    7.34    0.75
  10  -2   0    6.57    0.71
 -10  -2   0    6.22    0.71
  10   2   0    7.81    0.72
  11   2   0    1.04    0.40
 -11  -2   0    1.47    0.47
  11  -2   0    1.63    0.44
 -11   2   0    1.55    0.46
 -12   2   0    0.86    0.44
  12  -2   0    0.13    0.38
 -12  -2   0    0.18    0.38
  12   2   0    0.31    0.35
 -13  -2   0    4.18    0.72
 -13   2   0    3.98    0.73
  13  -2   0    4.37    0.70
  13   2   0    4.98    0.66
   0   3   0    0.01    0.09
   0  -3   0    0.05    0.09
   0  -3   0   -0.03    0.09
  -1   3   0   87.94    5.19
  -1   3   0   90.99    4.93
  -1  -3   0   86.49    5.14
   1   3   0   90.58    4.92
   1  -3   0   98.40    5.00
   2  -3   0  110.58    6.19
  -2   3   0  117.90    6.42
  -2  -3   0  109.87    6.19
  -3  -3   0  119.78    6.29
  -3   3   0  115.21    6.31
  -3   3   0  113.83    6.59
  -3  -3   0  115.58    6.39
  -3  -3   0  112.21    6.55
   3  -3   0  120.14    6.39
   4  -3   0    9.82    0.65
  -4  -3   0    9.60    0.63
  -4   3   0    7.77    0.63
  -4   3   0    7.86    0.63
  -4  -3   0    9.37    0.67
  -4  -3   0    9.71    0.63
  -5  -3   0   26.54    1.64
   5  -3   0   26.86    1.61
  -5   3   0   25.96    1.60
  -5  -3   0   28.18    1.60
  -5   3   0   23.83    1.60
  -5  -3   0   28.10    1.59
  -6  -3   0   20.74    1.24
  -6  -3   0   19.63    1.27
  -6  -3   0   19.01    1.31
   6  -3   0   19.55    1.28
  -6   3   0   20.16    1.25
  -6   3   0   20.60    1.30
   7  -3   0   23.48    1.41
  -7  -3   0   23.86    1.40
   7   3   0   19.06    1.37
  -7   3   0   18.90    1.38
   8  -3   0    3.83    0.51
  -8  -3   0    4.54    0.52
  -8   3   0    3.00    0.51
   8   3   0    2.95    0.47
   9   3   0   23.61    1.54
  -9  -3   0   22.56    1.54
   9  -3   0   20.87    1.52
  -9   3   0   24.47    1.57
  10  -3   0   20.75    1.43
 -10   3   0   17.97    1.40
 -10  -3   0   23.06    1.48
  10   3   0   17.75    1.37
  11  -3   0    2.73    0.54
  11   3   0    2.73    0.52
 -11  -3   0    2.84    0.57
 -11   3   0    3.00    0.56
  12  -3   0    2.12    0.54
 -12   3   0    2.44    0.57
 -12  -3   0    3.52    0.64
  12   3   0    2.62    0.54
 -13  -3   0    0.40    0.40
  13   3   0    0.07    0.37
  13  -3   0    0.03    0.41
 -13   3   0    0.25    0.40
   0   4   0   89.59    4.73
   0   4   0   85.71    5.02
   0  -4   0   84.68    4.80
  -1  -4   0   25.97    1.53
  -2  -4   0    5.19    0.48
  -2   4   0    6.58    0.60
  -2   4   0    7.11    0.48
   2  -4   0    5.81    0.49
  -2  -4   0    6.02    0.50
   2   4   0    6.71    0.47
  -3   4   0    8.02    0.56
   3  -4   0    7.65    0.58
  -3  -4   0    7.61    0.59
  -3   4   0    7.53    0.64
  -3  -4   0    6.45    0.56
   3   4   0    8.01    0.56
  -4  -4   0   16.82    1.07
   4  -4   0   17.19    1.08
  -4   4   0   14.21    1.04
  -4  -4   0   17.24    1.03
  -4  -4   0   17.41    1.10
  -5   4   0   42.72    2.40
  -5  -4   0   41.48    2.44
  -5  -4   0   39.58    2.43
   5  -4   0   40.77    2.41
  -5   4   0   41.44    2.48
  -5  -4   0   41.08    2.36
  -6   4   0    7.52    0.69
  -6   4   0    7.37    0.66
   6  -4   0    9.65    0.72
  -6  -4   0    8.29    0.73
  -6  -4   0    9.80    0.70
  -7  -4   0   17.25    1.16
  -7  -4   0   16.30    1.21
  -7   4   0   16.68    1.19
   7   4   0   16.64    1.24
   7  -4   0   18.31    1.19
  -8   4   0    7.43    0.72
   8   4   0    8.12    0.74
  -8  -4   0    7.11    0.69
   8  -4   0    7.49    0.72
  -9  -4   0    9.37    0.90
  -9   4   0   11.62    0.94
   9  -4   0    9.99    0.90
   9   4   0   12.02    0.94
 -10   4   0    4.09    0.61
 -10  -4   0    4.82    0.66
  10  -4   0    3.48    0.58
  10   4   0    3.42    0.57
 -11   4   0    0.83    0.40
  11   4   0    1.06    0.44
 -11  -4   0    1.27    0.45
  11  -4   0    0.77    0.42
 -12   4   0    4.46    0.71
  12  -4   0    4.67    0.73
  12   4   0    4.99    0.69
 -12  -4   0    5.23    0.74
 -13  -4   0    2.63    0.61
  13   4   0    1.26    0.50
   0  -5   0   -0.09    0.18
   0   5   0    0.04    0.14
   0   5   0    0.01    0.23
   1   5   0    8.09    0.74
  -1   5   0    8.17    0.57
  -1   5   0    7.65    0.71
   1   5   0    7.75    0.58
  -2   5   0   28.73    1.61
  -2  -5   0   29.28    1.66
   2  -5   0   27.40    1.65
   2   5   0   26.68    1.60
   2   5   0   25.11    1.79
  -2   5   0   27.04    1.78
  -3   5   0   16.79    1.26
  -3   5   0   19.78    1.15
   3   5   0   18.77    1.15
   4   5   0    6.79    0.60
  -4   5   0    6.58    0.66
  -4  -5   0    8.80    0.67
  -4   5   0    6.97    0.60
   4  -5   0    8.24    0.64
   5   5   0    2.14    0.45
   5  -5   0    1.29    0.33
  -5   5   0    2.84    0.37
  -5  -5   0    1.03    0.34
  -5   5   0    2.47    0.40
  -5  -5   0    1.51    0.30
   6   5   0   31.14    2.13
  -6   5   0   29.48    2.03
   6  -5   0   36.73    2.03
  -7  -5   0    3.90    0.57
  -7  -5   0    4.04    0.48
   7   5   0    3.14    0.56
  -7   5   0    3.11    0.48
   7  -5   0    3.56    0.51
   8  -5   0    4.02    0.55
  -8  -5   0    3.99    0.62
  -8  -5   0    4.07    0.53
  -8   5   0    4.50    0.57
  -9  -5   0   10.27    0.85
   9  -5   0    8.94    0.83
  -9   5   0    7.32    0.80
   9   5   0    8.90    0.85
  10  -5   0    0.85    0.41
  10   5   0    1.92    0.50
 -10  -5   0    0.99    0.41
 -10   5   0    1.05    0.42
 -11  -5   0    6.47    0.76
  11  -5   0    5.85    0.73
  11   5   0    6.84    0.77
 -11   5   0    5.03    0.69
 -12   5   0   -0.16    0.31
  12   5   0   -0.35    0.38
   0   6   0   26.88    1.82
  -1  -6   0   25.84    1.68
   1  -6   0   25.79    1.67
   1   6   0   28.80    1.89
  -1   6   0   29.46    1.88
   2   6   0    4.00    0.62
  -2  -6   0    5.42    0.52
   2  -6   0    5.07    0.49
  -2   6   0    3.85    0.59
   3  -6   0    5.40    0.52
   3   6   0    3.92    0.63
  -3  -6   0    6.08    0.56
  -3   6   0    3.98    0.56
   4  -6   0   14.56    1.12
  -4  -6   0   16.26    1.17
  -4   6   0   17.09    1.25
   4   6   0   19.80    1.38
   5  -6   0   11.56    0.89
  -5  -6   0   12.59    0.94
   5   6   0   11.05    1.05
  -5   6   0   11.17    0.94
   6  -6   0   -0.08    0.28
  -6  -6   0    0.21    0.34
   6   6   0    0.24    0.37
   7  -6   0    3.36    0.53
   7   6   0    2.63    0.57
  -7  -6   0    3.56    0.57
   8  -6   0    7.08    0.75
  -8  -6   0    7.78    0.82
   9  -6   0    4.45    0.63
  10  -6   0    0.78    0.42
  10   6   0    0.81    0.48
   0  -7   0   -0.03    0.26
   0   7   0   -0.11    0.35
  -1   7   0    7.69    0.83
   1   7   0    7.00    0.84
   1  -7   0    7.79    0.68
  -1  -7   0    8.46    0.70
  -2  -7   0   13.23    1.00
  -2   7   0   14.30    1.15
   2  -7   0   11.59    0.96
   2   7   0   15.44    1.22
   3   7   0    3.72    0.65
   3  -7   0    3.40    0.47
  -3   7   0    3.11    0.57
  -3  -7   0    3.76    0.53
   4  -7   0    2.27    0.43
   4   7   0    3.31    0.61
  -4  -7   0    2.26    0.46
  -4   7   0    2.92    0.54
   5   7   0   12.86    1.15
  -5   7   0   11.96    1.03
   5  -7   0   11.28    0.93
  -5  -7   0   12.11    0.99
   6  -7   0    3.47    0.52
   6   7   0    1.96    0.59
  -6  -7   0    3.31    0.57
  -7  -7   0   10.07    0.95
   7  -7   0    9.02    0.84
   7   7   0    8.35    1.02
   8  -7   0    1.71    0.47
  -8  -7   0    1.88    0.53
   9  -7   0    1.73    0.51
  -9  -7   0    2.41    0.58
   0   8   0    8.42    0.88
   0  -8   0    4.92    0.64
   1   8   0    9.66    0.99
   1  -8   0    9.28    0.82
  -1   8   0    9.76    0.99
  -1  -8   0    9.73    0.83
  -2   8   0    2.59    0.60
  -2  -8   0    3.15    0.52
   2  -8   0    3.35    0.50
   2   8   0    2.50    0.61
  -3   8   0    1.72    0.51
   3  -8   0    0.99    0.37
   3   8   0    1.58    0.54
  -3  -8   0    1.07    0.42
  -4  -8   0   10.90    0.90
  -4   8   0    8.55    0.92
   4  -8   0    8.67    0.80
   4   8   0    8.38    0.99
  -5  -8   0    1.60    0.48
  -5   8   0    0.69    0.41
   5   8   0    1.15    0.53
   5  -8   0    1.55    0.41
  -6  -8   0    1.54    0.50
   6   8   0    1.21    0.54
   6  -8   0    1.27    0.44
  -7  -8   0    0.52    0.46
   7   8   0    0.44    0.48
   7  -8   0    0.10    0.35
   8  -8   0    1.58    0.49
   0  -9   0   -0.07    0.31
   0   9   0    0.02    0.39
  -1   9   0    1.92    0.57
   1  -9   0    2.99    0.53
   1   9   0    1.79    0.58
  -1  -9   0    2.78    0.50
   2   9   0    4.51    0.81
  -2   9   0    4.80    0.78
  -2  -9   0    5.30    0.67
   2  -9   0    4.52    0.62
   3   9   0    1.53    0.58
  -3  -9   0    1.19    0.48
   3  -9   0    1.16    0.42
  -3   9   0    2.77    0.60
  -4   9   0    1.85    0.56
   4   9   0    2.20    0.66
  -4  -9   0    2.33    0.55
   4  -9   0    2.40    0.50
   5   9   0    1.74    0.63
   5  -9   0    2.59    0.52
   6  -9   0    0.95    0.42
   6   9   0    1.34    0.60
   7   9   0    1.58    0.63
   0  10   0    1.87    0.61
   0 -10   0    1.36    0.45
   1  10   0    0.49    0.49
  -1  10   0    0.43    0.47
  -1 -10   0    0.10    0.37
   1 -10   0    0.54    0.40
  -2  10   0    0.74    0.49
   2 -10   0    0.25    0.40
  -3  10   0    1.89    0.58
   3 -10   0    1.71    0.50
  -4  10   0    0.24    0.41
  14   0  -1    1.62    0.51
  13   0  -1    2.62    0.54
 -13   0   1    3.12    0.59
 -12   0   1    2.67    0.55
  12   0  -1    2.60    0.52
 -11   0   1    0.36    0.34
  11   0  -1    0.47    0.33
 -10   0   1   27.27    1.80
  10   0  -1   27.49    1.77
   9   0  -1    7.21    0.66
  -9   0   1    6.83    0.68
   8   0  -1    1.80    0.35
  -8   0   1    2.45    0.40
  -7   0   1   48.26    2.87
   7   0  -1   51.09    2.89
  -6   0   1   38.26    2.22
   6   0  -1   37.73    2.22
  -5   0   1  124.29    6.76
   5   0  -1  123.43    6.82
   4   0  -1   11.52    0.72
  -4   0   1   10.81    0.72
   3   0  -1   10.72    0.67
  -3   0   1   10.81    0.67
   2   0  -1    0.96    0.09
   2   0  -1    1.08    0.12
  -2   0   1    1.11    0.13
   1   0  -1   45.01    2.59
  -1   0   1   46.42    2.52
   0   0   1   11.34    0.65
   0   0   1   11.80    0.65
  -1   0  -1    1.37    0.13
   1   0   1    1.54    0.12
  -1   0  -1    1.20    0.13
  -2   0  -1  301.61   16.64
   2   0   1  301.81   16.17
  -2   0  -1  291.16   15.97
  -3   0  -1   67.33    3.72
   3   0   1   64.55    3.65
  -4   0  -1   45.20    2.73
  -4   0  -1   51.83    2.76
   4   0   1   48.91    2.74
  -5   0  -1   20.80    1.19
  -5   0  -1   20.03    1.27
   5   0   1   20.53    1.25
  -6   0  -1    3.48    0.42
   6   0   1    3.46    0.38
  -6   0  -1    3.58    0.27
  -7   0  -1   36.72    2.21
   8   0   1    3.66    0.46
  -8   0  -1    3.86    0.51
   9   0   1    4.42    0.53
  -9   0  -1    4.82    0.61
  10   0   1    1.57    0.41
 -10   0  -1    2.07    0.47
 -11   0  -1    1.72    0.50
  11   0   1    1.68    0.43
  12   0   1    4.56    0.63
 -12   0  -1    5.46    0.78
 -13   0  -1   -0.04    0.39
  13   0   1   -0.16    0.35
  14   1  -1    0.47    0.43
  14  -1  -1    1.08    0.48
 -13  -1   1    1.55    0.49
 -13   1   1    1.53    0.52
  13   1  -1    1.80    0.49
  13  -1  -1    1.41    0.46
  12   1  -1    3.74    0.60
 -12  -1   1    5.52    0.68
 -12   1   1    3.80    0.65
  12  -1  -1    4.47    0.63
  11   1  -1    3.88    0.54
 -11  -1   1    3.48    0.58
 -11   1   1    4.33    0.60
  11  -1  -1    3.06    0.53
 -10  -1   1   11.19    0.89
 -10   1   1    9.56    0.86
  10   1  -1    9.52    0.82
  10  -1  -1    8.81    0.82
  -9   1   1   10.28    0.87
  -9  -1   1   10.01    0.85
   9  -1  -1   10.58    0.84
   9   1  -1   10.19    0.83
   8   1  -1   59.90    3.40
  -8  -1   1   55.27    3.38
  -8   1   1   61.12    3.41
  -7   1   1   22.29    1.38
   7  -1  -1   20.56    1.34
   7   1  -1   20.90    1.34
  -7  -1   1   20.42    1.35
   6   1  -1   20.86    1.32
  -6   1   1   20.79    1.34
   6   1  -1   21.85    1.26
   6  -1  -1   22.28    1.33
  -6  -1   1   20.61    1.31
   5   1  -1    3.06    0.32
   5  -1  -1    1.80    0.28
   5   1  -1    3.05    0.26
  -5   1   1    2.99    0.33
   4   1  -1  131.17    7.25
  -4  -1   1  126.60    7.00
   4  -1  -1  137.39    7.09
  -4   1   1  127.27    7.02
  -4  -1   1  123.81    7.11
  -3  -1   1   64.54    3.75
   3  -1  -1   70.33    3.80
  -3  -1   1   64.15    3.81
   3   1  -1   73.73    3.90
   3  -1  -1   68.65    3.86
  -3   1   1   71.74    3.78
  -2  -1   1  582.15   33.44
  -2   1   1  581.69   33.03
  -2  -1   1  622.89   33.04
   2  -1  -1  653.36   34.47
   2  -1  -1  656.87   33.46
   2   1  -1  605.74   34.43
  -2  -1   1  623.74   33.04
   1  -1  -1  112.83    6.05
   1  -1  -1  109.78    5.88
  -1  -1   1  102.11    5.88
  -1  -1   1  110.19    5.86
   1   1  -1  105.56    6.07
  -1   1  -1  169.04    8.87
  -1   1  -1  161.93    8.50
  -1  -1  -1  153.28    8.84
  -1  -1  -1  155.13    8.50
   1  -1   1  151.29    8.60
  -1  -1  -1  159.18    8.61
  -2   1  -1  137.01    6.75
   2  -1   1  120.14    6.82
  -2  -1  -1  118.19    7.00
   3  -1   1   18.69    1.10
  -3   1  -1   19.09    1.10
  -3   1  -1   18.47    1.10
  -3  -1  -1   17.01    1.09
   3   1   1   19.51    1.10
  -3  -1  -1   18.20    1.09
  -4   1  -1  136.83    7.88
  -4   1  -1  134.83    7.63
   4   1   1  140.11    7.71
  -4  -1  -1  139.76    7.63
   4  -1   1  144.13    7.71
  -4  -1  -1  148.14    7.88
  -5   1  -1   25.58    1.44
  -5  -1  -1   20.95    1.36
   6   1   1   56.95    3.27
  -6  -1  -1   55.73    3.27
   6  -1   1   58.02    3.27
  -6   1  -1   55.64    3.27
  -6  -1  -1   60.28    3.26
   7  -1   1   23.70    1.47
  -7  -1  -1   24.80    1.51
  -7   1  -1   22.11    1.48
   7   1   1   22.03    1.45
   8   1   1    4.89    0.53
   8  -1   1    4.75    0.54
  -8   1  -1    5.14    0.58
  -8  -1  -1    5.64    0.59
   9   1   1    6.23    0.61
  -9   1  -1    6.45    0.67
  -9  -1  -1    5.71    0.66
   9  -1   1    5.20    0.60
  10   1   1    0.65    0.33
  10  -1   1    1.49    0.41
 -10  -1  -1    1.35    0.44
 -10   1  -1    0.69    0.38
  11   1   1    0.93    0.37
  11  -1   1    0.69    0.37
 -11   1  -1    1.13    0.44
 -11  -1  -1    0.66    0.42
 -12   1  -1    1.35    0.51
 -12  -1  -1    0.86    0.46
  12   1   1    1.37    0.42
  12  -1   1    1.30    0.45
  13   1   1    1.54    0.47
  13  -1   1    1.78    0.53
 -13  -1  -1    2.27    0.60
 -13   1  -1    1.81    0.58
  14   2  -1    2.90    0.59
  13  -2  -1    0.62    0.43
  13   2  -1    0.88    0.44
 -13   2   1    0.58    0.44
 -13  -2   1    0.90    0.44
 -12   2   1    2.31    0.55
  12   2  -1    2.49    0.51
 -12  -2   1    3.35    0.60
  12  -2  -1    3.46    0.59
  11  -2  -1    9.95    0.93
 -11   2   1   11.36    0.99
 -11  -2   1   10.89    0.98
  11   2  -1   12.36    0.97
  10  -2  -1    5.53    0.60
 -10   2   1    2.93    0.55
 -10  -2   1    5.02    0.60
  10   2  -1    3.34    0.54
   9   2  -1   15.87    1.23
  -9   2   1   16.86    1.27
   9  -2  -1   19.30    1.27
  -9  -2   1   19.93    1.29
   8  -2  -1    1.58    0.36
   8   2  -1    1.66    0.36
  -8  -2   1    2.01    0.37
  -8   2   1    1.24    0.36
   7  -2  -1    5.43    0.51
   7   2  -1    4.67    0.44
  -7   2   1    4.32    0.51
   6   2  -1   82.97    4.72
  -6   2   1   79.07    4.65
  -6   2   1   76.89    4.59
   6  -2  -1   87.35    4.64
  -6  -2   1   86.17    4.59
  -5  -2   1   68.07    3.61
  -5  -2   1   64.15    3.67
  -5   2   1   62.54    3.63
  -5   2   1   61.40    3.67
   5  -2  -1   71.09    3.66
   5   2  -1   61.48    3.72
  -4  -2   1   30.95    1.89
   4  -2  -1   31.58    1.87
  -4  -2   1   31.40    1.84
  -4   2   1   35.38    1.89
  -4   2   1   32.95    1.89
   4   2  -1   32.71    1.93
  -3  -2   1   16.72    1.02
  -3  -2   1   17.75    0.99
   3  -2  -1   18.31    1.01
  -3   2   1   14.80    1.01
   2  -2  -1  365.90   20.21
   2   2  -1  377.82   20.83
  -2   2   1  389.36   19.99
  -2  -2   1  360.20   20.22
   2  -2  -1  384.34   20.78
  -2  -2   1  360.64   19.95
   0  -2  -1   83.18    4.26
   0   2   1   77.18    4.23
   0   2  -1   76.51    4.43
   0  -2  -1   72.27    4.39
   0  -2   1   80.29    4.28
   1  -2   1   48.01    2.71
  -1  -2  -1   49.74    2.70
  -1  -2  -1   45.21    2.78
   1   2   1   48.66    2.68
  -1   2  -1   51.33    2.66
  -1   2  -1   50.21    2.82
  -3   2  -1  123.39    6.65
  -3  -2  -1  115.39    6.63
  -3  -2  -1  114.62    6.39
  -3   2  -1  125.50    6.40
  -3  -2  -1  114.03    6.47
   3  -2   1  114.29    6.47
   4  -2   1   54.02    2.91
  -4  -2  -1   52.77    2.95
  -4  -2  -1   53.46    2.89
  -4   2  -1   45.55    2.95
  -5   2  -1   15.53    0.94
  -5   2  -1   14.37    0.87
   5  -2   1   11.45    0.89
  -5  -2  -1   12.16    0.85
   5   2   1   14.34    0.91
   6  -2   1   15.34    1.12
  -6  -2  -1   15.13    1.06
   6   2   1   18.85    1.15
  -6   2  -1   18.89    1.08
  -6   2  -1   18.82    1.16
  -7   2  -1   25.85    1.64
   8  -2   1   26.92    1.72
   8   2   1   27.40    1.71
  -8  -2  -1   25.86    1.74
  -8   2  -1   28.72    1.76
   9  -2   1    0.89    0.35
   9   2   1    1.10    0.35
  -9  -2  -1    0.24    0.31
  -9   2  -1    1.43    0.41
  10   2   1    1.16    0.38
  10  -2   1    1.10    0.40
 -10  -2  -1    1.03    0.41
 -10   2  -1    0.98    0.41
  11   2   1    4.07    0.58
 -11  -2  -1    4.89    0.67
  11  -2   1    5.23    0.66
 -11   2  -1    4.92    0.70
  12  -2   1    1.17    0.48
 -12  -2  -1    1.08    0.47
  12   2   1    1.56    0.44
 -12   2  -1    1.79    0.52
  13   2   1    1.55    0.48
 -13  -2  -1    1.94    0.57
  13  -2   1    1.78    0.55
 -13   2  -1    1.76    0.59
 -13   3   1    1.55    0.52
 -13  -3   1    2.17    0.58
  13  -3  -1    1.75    0.55
  13   3  -1    1.81    0.51
  12  -3  -1    5.25    0.71
 -12   3   1    5.28    0.71
 -12  -3   1    6.71    0.76
  12   3  -1    4.85    0.68
 -11  -3   1    1.01    0.41
  11  -3  -1    1.35    0.45
  11   3  -1    1.08    0.42
 -11   3   1    1.45    0.45
  10  -3  -1    2.13    0.46
  10   3  -1    2.70    0.50
 -10  -3   1    2.46    0.49
 -10   3   1    2.98    0.54
  -9  -3   1   18.17    1.28
  -9   3   1   18.86    1.31
   9  -3  -1   16.93    1.26
   9   3  -1   18.66    1.29
  -8  -3   1   67.23    3.61
   8   3  -1   60.43    3.63
   8  -3  -1   63.72    3.63
  -8   3   1   58.49    3.61
  -6   3   1   22.02    1.44
  -6  -3   1   24.23    1.53
  -6  -3   1   26.00    1.48
  -6   3   1   22.09    1.48
   6  -3  -1   25.28    1.50
   6   3  -1   23.60    1.53
  -5  -3   1    9.10    0.75
   5   3  -1   11.13    0.79
  -5   3   1   10.39    0.72
   5  -3  -1   10.21    0.73
  -5   3   1   11.12    0.76
  -5  -3   1    9.84    0.70
  -4  -3   1   14.54    0.94
   4   3  -1   13.28    0.98
  -4   3   1   13.72    0.93
  -4  -3   1   14.98    0.89
  -4   3   1   14.19    0.93
   4  -3  -1   15.14    0.92
   3  -3  -1  189.24   10.42
  -3  -3   1  183.08   10.17
   3  -3  -1  186.20   10.16
  -3  -3   1  186.13   10.00
   2  -3  -1   12.78    0.79
  -2  -3   1   12.43    0.80
  -1  -3   1    5.92    0.43
  -1   3   1    5.32    0.44
   1   3  -1    5.24    0.48
   1  -3  -1    6.20    0.41
   1  -3  -1    5.45    0.41
   0  -3  -1   38.57    2.22
   0   3  -1   42.83    2.16
   0   3  -1   40.68    2.36
   0  -3   1   37.76    2.23
   0  -3  -1   38.26    2.29
   0   3   1   39.34    2.22
  -1   3  -1  121.85    6.88
  -1  -3  -1  120.59    6.62
  -1   3  -1  126.15    6.52
   1   3   1  120.06    6.55
   1  -3   1  116.47    6.63
   2   3   1  142.07    7.76
  -2   3  -1  141.37    8.12
  -2  -3  -1  142.70    8.07
  -2  -3  -1  143.45    7.85
  -2   3  -1  149.24    7.74
   2  -3   1  142.23    7.86
   3  -3   1   13.64    0.85
  -3  -3  -1   13.07    0.84
  -3   3  -1   12.86    0.82
  -3   3  -1   11.11    0.86
  -3  -3  -1   13.41    0.85
  -3  -3  -1   13.90    0.83
  -4  -3  -1   19.64    1.20
   4  -3   1   19.07    1.19
  -4  -3  -1   19.11    1.21
  -4  -3  -1   19.18    1.18
  -5   3  -1   41.48    2.15
  -5  -3  -1   36.03    2.12
   5  -3   1   33.78    2.13
  -5  -3  -1   33.65    2.15
  -5  -3  -1   36.61    2.15
  -6  -3  -1   30.31    1.78
  -6   3  -1   28.49    1.77
   6  -3   1   28.86    1.77
  -6  -3  -1   31.18    1.75
  -6   3  -1   28.25    1.76
   6   3   1   26.91    1.76
   7   3   1   13.84    0.98
  -7   3  -1   15.78    1.03
  -7  -3  -1   12.66    0.91
  -7  -3  -1   13.05    0.99
   7  -3   1   13.53    0.99
   8  -3   1    0.67    0.33
   8   3   1    1.21    0.34
  -8   3  -1    1.36    0.38
  -8  -3  -1    0.78    0.32
   9  -3   1   15.91    1.20
  -9  -3  -1   17.65    1.25
  -9   3  -1   17.16    1.23
   9   3   1   15.08    1.17
 -10  -3  -1    0.71    0.40
 -10   3  -1    2.06    0.49
  10   3   1    2.06    0.44
  10  -3   1    0.81    0.40
  11   3   1    7.63    0.80
  11  -3   1    8.34    0.85
 -11  -3  -1    9.01    0.91
 -11   3  -1    8.52    0.87
 -12   3  -1    1.08    0.47
 -12  -3  -1    1.74    0.54
  12  -3   1    0.96    0.48
  12   3   1    0.63    0.40
  13   3   1    0.82    0.44
 -13   4   1    2.85    0.60
  13   4  -1    1.97    0.56
 -13  -4   1    2.48    0.60
  12  -4  -1    0.35    0.40
 -12   4   1   -0.05    0.33
 -12  -4   1   -0.17    0.33
  12   4  -1    0.17    0.38
 -11   4   1    4.00    0.64
  11   4  -1    4.23    0.64
  11  -4  -1    4.38    0.64
 -11  -4   1    5.51    0.68
  10   4  -1   14.61    1.12
  10  -4  -1   12.16    1.08
 -10   4   1   14.94    1.14
 -10  -4   1   13.64    1.10
  -9  -4   1    7.48    0.68
   9   4  -1    4.05    0.62
  -9   4   1    4.18    0.62
   9  -4  -1    7.92    0.70
  -8  -4   1   11.79    0.90
  -8   4   1   11.27    0.93
  -8  -4   1   11.39    0.97
   8  -4  -1   12.17    0.93
   7  -4  -1   28.10    1.82
  -7   4   1   32.38    1.84
  -7  -4   1   27.57    1.85
  -7  -4   1   28.68    1.78
  -6  -4   1   30.58    1.71
  -6   4   1   26.22    1.73
   6  -4  -1   29.91    1.75
   6   4  -1   26.98    1.82
  -6  -4   1   30.44    1.80
  -6   4   1   25.38    1.74
  -5   4   1   19.60    1.31
   5  -4  -1   22.56    1.33
   5   4  -1   20.32    1.41
  -5  -4   1   21.25    1.35
  -5  -4   1   23.10    1.28
  -5   4   1   18.31    1.33
  -4  -4   1   34.68    1.90
  -4   4   1   33.89    1.97
   4  -4  -1   35.61    1.97
  -4   4   1   29.41    2.02
  -4  -4   1   34.10    1.99
   4   4  -1   32.35    2.09
  -3  -4   1   21.93    1.39
  -3   4   1   24.56    1.38
  -3   4   1   21.98    1.45
   3  -4  -1   20.45    1.35
   3   4  -1   24.12    1.51
   2  -4  -1  145.02    7.28
  -2   4   1  125.83    7.19
  -2  -4   1  143.23    7.29
   2   4  -1  124.02    7.56
   2   4  -1  123.71    7.13
   1  -4  -1  112.04    6.63
   1   4  -1  129.55    6.52
   0  -4  -1   33.48    1.90
   0  -4   1   32.28    1.85
   0  -4  -1   33.92    1.84
   0   4  -1   27.35    1.95
  -1   4  -1   10.22    0.76
  -1   4  -1    9.95    0.60
  -1  -4  -1    8.49    0.66
  -1  -4  -1    9.95    0.65
   1  -4   1    9.30    0.66
   1   4   1    9.28    0.66
  -2  -4  -1   58.58    3.35
  -2   4  -1   62.15    3.28
   2   4   1   61.56    3.32
  -2   4  -1   59.11    3.51
  -2  -4  -1   56.70    3.45
  -3   4  -1   46.45    2.84
  -3   4  -1   49.03    2.67
   3  -4   1   48.86    2.73
  -3  -4  -1   44.67    2.78
   3   4   1   46.96    2.69
  -3  -4  -1   49.36    2.72
  -4  -4  -1   19.48    1.29
  -4  -4  -1   19.26    1.31
  -4   4  -1   24.49    1.40
   5  -4   1   11.92    0.88
  -5  -4  -1   12.41    0.91
  -5   4  -1   12.71    0.90
  -5   4  -1   13.20    0.89
  -5  -4  -1   12.47    0.87
  -5  -4  -1   11.44    0.85
  -6  -4  -1    4.73    0.58
  -6  -4  -1    6.58    0.58
  -6  -4  -1    6.45    0.55
  -6   4  -1    7.13    0.61
   6  -4   1    6.22    0.59
   7  -4   1   23.56    1.62
  -7   4  -1   29.35    1.66
  -7  -4  -1   24.25    1.62
   7   4   1   26.22    1.64
  -7  -4  -1   23.96    1.58
  -8   4  -1   12.45    1.04
  -8  -4  -1   16.48    1.10
   8   4   1   11.45    1.01
   8  -4   1   15.61    1.08
  -9  -4  -1    5.81    0.69
   9  -4   1    6.55    0.69
   9   4   1    6.52    0.69
  -9   4  -1    7.30    0.73
 -10  -4  -1    4.85    0.64
  10   4   1    4.14    0.60
  10  -4   1    4.47    0.62
 -10   4  -1    4.26    0.61
  11  -4   1    0.11    0.35
  11   4   1   -0.13    0.32
 -11   4  -1    0.44    0.36
 -11  -4  -1    0.15    0.35
  12  -4   1    3.70    0.66
 -12  -4  -1    3.52    0.67
 -12   4  -1    2.53    0.56
  12   4   1    2.34    0.55
 -12   5   1    0.61    0.40
  12   5  -1    0.99    0.49
  12  -5  -1    1.04    0.45
  11   5  -1    2.52    0.58
 -11   5   1    2.88    0.56
  11  -5  -1    3.16    0.58
  10  -5  -1    0.93    0.41
 -10   5   1    1.13    0.42
  10   5  -1    1.02    0.46
  -9  -5   1    5.04    0.61
  -9   5   1    5.03    0.65
   9  -5  -1    5.03    0.62
  -8  -5   1    1.96    0.39
   8  -5  -1    2.58    0.46
  -8  -5   1    2.98    0.54
  -8   5   1    2.75    0.49
  -7   5   1   17.97    1.26
   7   5  -1   19.68    1.40
  -7  -5   1   19.10    1.34
   7  -5  -1   17.73    1.27
   6   5  -1   11.81    0.95
  -6   5   1    8.02    0.74
  -6  -5   1    9.23    0.71
   6  -5  -1    8.54    0.75
  -6  -5   1    9.19    0.81
  -6   5   1   10.34    0.80
  -5  -5   1    3.92    0.37
   5   5  -1    2.15    0.47
  -5   5   1    1.62    0.36
   5  -5  -1    3.64    0.42
  -5   5   1    1.68    0.38
  -5  -5   1    3.22    0.45
   4  -5  -1   41.10    2.59
  -4   5   1   45.39    2.74
  -4   5   1   45.55    2.59
   4   5  -1   46.81    2.79
  -3   5   1   40.75    2.56
   3  -5  -1   42.40    2.42
   2   5  -1   34.94    2.15
   2  -5  -1   31.38    1.95
  -2   5   1   34.08    2.11
  -2  -5   1   31.12    1.97
  -2   5   1   35.23    1.96
   1  -5  -1    3.98    0.38
  -1  -5   1    3.82    0.42
   1  -5  -1    3.91    0.40
  -1   5   1    3.63    0.40
   1   5  -1    3.00    0.48
   0  -5  -1   11.32    0.85
   0  -5  -1   12.24    0.84
   0   5  -1   12.96    0.98
   0   5   1   12.98    0.85
   0  -5   1   12.01    0.84
   1   5   1   49.39    2.71
   1  -5   1   46.30    2.73
  -1   5  -1   47.98    2.91
  -1  -5  -1   45.13    2.80
  -1  -5  -1   48.97    2.73
  -2  -5  -1    7.42    0.61
   2   5   1    7.92    0.61
  -2   5  -1    7.69    0.70
   3  -5   1   14.18    0.95
  -3   5  -1   13.04    1.02
  -3  -5  -1   13.08    0.95
  -3  -5  -1   13.96    0.95
   3   5   1   13.62    0.95
  -3   5  -1   14.58    0.89
   4   5   1   11.68    0.95
  -4  -5  -1   15.53    1.00
  -4  -5  -1   15.27    1.01
   4  -5   1   15.56    1.00
  -4   5  -1   12.50    0.93
  -5   5  -1   22.11    1.28
  -5  -5  -1   17.14    1.27
   5  -5   1   18.77    1.28
  -5   5  -1   19.84    1.35
   6  -5   1   18.39    1.26
  -6  -5  -1   19.13    1.29
  -6  -5  -1   16.96    1.21
  -6  -5  -1   18.82    1.23
  -7  -5  -1   29.94    1.98
  -7  -5  -1   31.45    2.05
   7  -5   1   31.99    2.03
  -7  -5  -1   32.06    1.99
  -7   5  -1   35.57    2.02
  -8   5  -1    4.55    0.60
  -8  -5  -1    6.05    0.64
   8   5   1    4.76    0.63
   8  -5   1    5.91    0.64
   9   5   1    0.59    0.41
  -9   5  -1    0.53    0.34
  -9  -5  -1    0.19    0.32
   9  -5   1    0.21    0.33
 -10   5  -1   10.63    0.98
 -10  -5  -1   11.10    1.00
  10   5   1   11.48    0.98
  10  -5   1   10.51    0.98
 -11  -5  -1    1.89    0.52
  11  -5   1    2.02    0.53
 -12  -5  -1    1.19    0.48
  12   6  -1    1.69    0.59
  11   6  -1    2.02    0.58
  11  -6  -1    0.83    0.44
  10   6  -1    5.92    0.78
  10  -6  -1    6.34    0.75
  -9  -6   1    3.35    0.63
   9  -6  -1    2.72    0.54
  -8  -6   1    1.59    0.49
   8   6  -1    1.64    0.51
   8  -6  -1    1.14    0.40
  -7  -6   1   15.86    1.22
   7   6  -1   15.50    1.29
   7  -6  -1   15.36    1.15
  -6   6   1    7.38    0.70
   6  -6  -1    5.88    0.64
  -6  -6   1    5.99    0.70
   6   6  -1    8.70    0.85
   5  -6  -1   14.89    0.99
  -5   6   1   11.51    1.02
  -5  -6   1   14.55    1.04
   5   6  -1   12.68    1.13
   4   6  -1    2.20    0.51
   4  -6  -1    1.86    0.35
  -4  -6   1    2.12    0.42
  -4   6   1    1.60    0.40
  -3  -6   1    1.82    0.37
   3  -6  -1    1.67    0.33
   3   6  -1    1.83    0.45
  -3   6   1    0.99    0.35
   2  -6  -1   20.42    1.24
  -2  -6   1   21.63    1.26
  -2   6   1   15.77    1.33
   2   6  -1   17.70    1.39
   1   6  -1   46.89    2.87
  -1  -6   1   47.01    2.66
   1  -6  -1   42.19    2.62
  -1   6   1   45.28    2.84
   0   6  -1    6.05    0.65
   0  -6   1    6.05    0.55
   0  -6  -1    4.21    0.51
  -1  -6  -1   12.27    0.94
   1  -6   1   14.35    0.97
  -1  -6  -1   14.30    0.99
  -1   6  -1   14.09    1.10
   2  -6   1   52.28    2.90
  -2   6  -1   46.92    3.05
  -3  -6  -1    7.34    0.64
  -3  -6  -1    6.76    0.61
   3  -6   1    6.36    0.61
   4  -6   1   23.54    1.55
  -4  -6  -1   26.14    1.58
  -4   6  -1   23.56    1.65
  -4  -6  -1   24.44    1.58
   5  -6   1    0.33    0.29
  -5  -6  -1    0.39    0.27
  -5  -6  -1    0.56    0.33
  -5   6  -1    0.82    0.34
   6  -6   1   12.11    0.99
  -6  -6  -1   13.77    1.05
  -7  -6  -1    4.33    0.63
   7   6   1    5.47    0.74
   7  -6   1    4.42    0.59
   8  -6   1    7.18    0.76
   9  -6   1    4.35    0.65
  10  -6   1    0.32    0.40
  11   7  -1    2.12    0.67
  10  -7  -1    0.66    0.43
  -9  -7   1    0.95    0.49
   9  -7  -1    0.38    0.39
  -8  -7   1    7.50    0.89
   8   7  -1    8.97    0.95
   8  -7  -1    7.66    0.80
  -7  -7   1    5.02    0.71
   7   7  -1    5.52    0.78
   7  -7  -1    4.75    0.61
  -6  -7   1    9.70    0.90
   6  -7  -1    8.69    0.81
   6   7  -1    9.67    1.00
  -5   7   1    1.35    0.44
   5  -7  -1    1.57    0.38
   5   7  -1    1.67    0.53
  -5  -7   1    1.29    0.43
  -4   7   1    8.61    0.88
   4   7  -1    8.54    0.93
   4  -7  -1    8.51    0.75
  -4  -7   1    9.75    0.83
   3  -7  -1   15.53    1.16
  -3   7   1   17.12    1.33
  -3  -7   1   17.97    1.22
   3   7  -1   17.66    1.39
   2   7  -1    9.27    0.96
  -2   7   1    8.57    0.89
   2  -7  -1   11.16    0.81
  -2  -7   1   11.52    0.84
   1  -7  -1    8.98    0.74
   1   7  -1    8.83    0.89
  -1   7   1    7.72    0.85
  -1  -7   1    9.24    0.75
   0   7   1   38.79    2.55
   0  -7   1   37.97    2.32
   0  -7  -1   40.36    2.32
   0   7  -1   36.82    2.52
  -1   7  -1    2.23    0.53
   1  -7   1    4.76    0.51
  -1  -7  -1    4.74    0.51
   1   7   1    2.24    0.56
  -2   7  -1   18.56    1.39
  -2  -7  -1   18.94    1.26
   2  -7   1   17.15    1.23
   2   7   1   18.36    1.47
   3   7   1    0.49    0.42
  -3   7  -1    0.63    0.36
   3  -7   1    0.75    0.32
  -3  -7  -1    1.13    0.37
  -4   7  -1    3.75    0.59
   4   7   1    3.72    0.67
  -4  -7  -1    4.10    0.55
   4  -7   1    3.20    0.50
   5  -7   1    4.27    0.58
  -5  -7  -1    5.50    0.66
  -5   7  -1    6.40    0.70
   5   7   1    5.59    0.81
  -6  -7  -1    5.05    0.68
   6   7   1    4.73    0.76
   6  -7   1    4.17    0.58
   7   7   1    4.61    0.77
   7  -7   1    5.85    0.67
   8  -7   1    0.53    0.39
   9  -7   1    4.33    0.69
  -9  -8   1    3.24    0.68
   8  -8  -1    2.16    0.51
   8   8  -1    1.60    0.57
  -8  -8   1    2.41    0.62
   7   8  -1    1.03    0.52
   7  -8  -1    1.88    0.46
  -7  -8   1    2.18    0.58
   6   8  -1    6.66    0.89
  -6  -8   1    6.51    0.79
   6  -8  -1    6.20    0.70
  -5   8   1    3.33    0.61
   5   8  -1    2.67    0.64
  -5  -8   1    2.80    0.57
   5  -8  -1    2.37    0.47
   4  -8  -1    2.46    0.45
  -4   8   1    0.97    0.47
  -4  -8   1    2.42    0.51
   4   8  -1    1.34    0.54
   3   8  -1    3.46    0.70
   3  -8  -1    4.31    0.55
  -3  -8   1    4.58    0.61
  -3   8   1    4.20    0.70
  -2  -8   1    4.03    0.56
  -2   8   1    3.92    0.69
   2   8  -1    2.69    0.63
   2  -8  -1    4.08    0.54
  -1   8   1    5.74    0.78
   1  -8  -1    5.38    0.61
   1   8  -1    4.98    0.73
  -1  -8   1    5.30    0.62
   0   8  -1    6.96    0.86
   0   8   1    7.59    0.89
   0  -8   1    9.10    0.77
   0  -8  -1    8.83    0.75
   1   8   1    0.25    0.40
   1  -8   1    0.44    0.33
  -1  -8  -1    0.02    0.29
  -1   8  -1   -0.13    0.34
   2   8   1    3.32    0.67
   2  -8   1    2.30    0.47
  -2  -8  -1    2.48    0.49
  -2   8  -1    3.42    0.64
   3   8   1   12.32    1.25
  -3  -8  -1   15.93    1.12
  -3   8  -1   13.02    1.19
   3  -8   1   14.62    1.08
   4  -8   1    1.55    0.42
  -4  -8  -1    1.69    0.46
   4   8   1    1.91    0.58
  -4   8  -1    1.77    0.52
  -5   8  -1    4.61    0.67
   5  -8   1    4.16    0.59
   5   8   1    3.11    0.70
   6   8   1    5.85    0.83
   6  -8   1    4.66    0.65
   7   8   1    0.61    0.49
   7  -8   1    0.14    0.37
   7  -9  -1    2.73    0.58
  -7  -9   1    3.69    0.69
  -6  -9   1    0.91    0.50
   6  -9  -1    0.75    0.40
   6   9  -1    0.82    0.53
   5   9  -1    2.11    0.65
  -5  -9   1    2.68    0.59
  -5   9   1    2.43    0.58
   5  -9  -1    3.16    0.56
  -4  -9   1    3.89    0.64
  -4   9   1    4.04    0.71
   4  -9  -1    3.79    0.58
   4   9  -1    3.55    0.73
   3  -9  -1    2.24    0.48
  -3   9   1    1.24    0.52
   3   9  -1    1.16    0.55
  -3  -9   1    2.57    0.56
  -2  -9   1    4.16    0.63
  -2   9   1    4.49    0.75
   2   9  -1    3.65    0.73
   2  -9  -1    4.09    0.59
   1  -9  -1    1.38    0.43
  -1   9   1    1.84    0.58
  -1  -9   1    0.96    0.41
   1   9  -1    1.42    0.53
   0  -9  -1    4.91    0.61
   0   9  -1    3.14    0.68
   0   9   1    3.22    0.71
   0  -9   1    4.79    0.60
  -1   9  -1    1.44    0.53
  -1  -9  -1    1.58    0.46
   1   9   1    1.75    0.59
   1  -9   1    0.91    0.42
   2   9   1    2.69    0.69
   2  -9   1    2.53    0.50
  -2   9  -1    2.46    0.62
   3   9   1    0.06    0.43
   3  -9   1    0.58    0.38
  -3   9  -1    0.59    0.44
   4  -9   1    1.59    0.46
   4   9   1    1.33    0.60
  -4   9  -1    1.65    0.54
   5   9   1    1.93    0.66
   5  -9   1    2.94    0.57
   6   9   1    0.42    0.49
  -4  10   1    0.54    0.44
   4 -10  -1    0.81    0.41
  -4 -10   1    0.75    0.47
   3 -10  -1    1.38    0.45
  -3 -10   1    1.37    0.49
  -3  10   1    0.58    0.48
   2 -10  -1    0.08    0.35
  -2 -10   1   -0.02    0.36
  -2  10   1    0.52    0.47
  -1 -10   1    1.71    0.48
   1  10  -1    1.25    0.56
  -1  10   1    1.45    0.58
   0  10   1    0.11    0.47
   0  10  -1    0.30    0.45
   0 -10   1    0.23    0.37
  -1  10  -1    1.15    0.55
   1 -10   1    0.86    0.46
   2 -10   1    1.80    0.50
  -2  10  -1    2.05    0.61
  -3  10  -1    0.15    0.43
  -4  10  -1    2.51    0.61
  14   0  -2    4.39    0.69
 -14   0   2    5.31    0.73
 -13   0   2    1.83    0.48
  13   0  -2    1.20    0.44
  12   0  -2    0.33    0.34
 -12   0   2    0.17    0.32
  11   0  -2   20.51    1.43
 -11   0   2   20.62    1.47
 -10   0   2    0.58    0.34
  10   0  -2    0.24    0.29
   9   0  -2    5.85    0.60
  -9   0   2    6.22    0.64
  -8   0   2   44.65    2.64
   8   0  -2   44.75    2.64
   7   0  -2   26.30    1.61
  -7   0   2   26.15    1.63
   6   0  -2   33.69    1.95
  -6   0   2   32.28    1.94
  -5   0   2    2.13    0.29
   5   0  -2    2.56    0.28
   4   0  -2    0.13    0.05
   4   0  -2    0.21    0.12
  -4   0   2    0.09    0.12
   3   0  -2  173.44    9.65
  -3   0   2  181.60    9.55
   3   0  -2  176.60    9.91
  -2   0   2  138.37    7.62
  -2   0   2  143.32    7.71
   2   0  -2  142.48    7.92
  -1   0   2  138.78    7.33
  -1   0   2  133.38    7.41
   0   0  -2  207.28   12.52
   0   0   2  229.98   12.01
   0   0   2  234.94   12.20
  -1   0  -2   26.18    1.44
  -1   0  -2   24.42    1.50
   1   0   2   26.70    1.43
  -2   0  -2   45.60    2.57
   2   0   2   47.33    2.57
  -3   0  -2   28.06    1.69
   3   0   2   29.52    1.68
  -3   0  -2   30.35    1.71
  -4   0  -2  122.84    6.99
  -4   0  -2  136.96    7.22
   4   0   2  125.39    7.04
  -5   0  -2    2.06    0.33
  -5   0  -2    2.14    0.24
   5   0   2    2.08    0.29
  -6   0  -2   52.85    3.11
   6   0   2   55.27    3.10
  -7   0  -2    1.08    0.33
   7   0   2    0.99    0.28
   8   0   2    8.68    0.73
  -8   0  -2    8.74    0.79
  -9   0  -2    3.02    0.55
   9   0   2    2.97    0.46
 -10   0  -2    1.67    0.47
  10   0   2    1.30    0.39
 -11   0  -2    6.11    0.76
  11   0   2    6.42    0.70
  12   0   2    0.03    0.32
 -12   0  -2    0.06    0.39
  13   0   2   -0.15    0.35
  14  -1  -2    0.27    0.41
 -14  -1   2    0.56    0.41
  14   1  -2    0.49    0.43
 -14   1   2    0.57    0.44
 -13   1   2    1.45    0.48
  13  -1  -2    0.63    0.40
 -13  -1   2    1.24    0.45
  13   1  -2    1.62    0.47
 -12  -1   2    4.57    0.65
  12  -1  -2    3.54    0.58
 -12   1   2    2.46    0.56
  12   1  -2    3.01    0.54
  11  -1  -2    1.58    0.42
 -11   1   2    1.30    0.42
  11   1  -2    0.99    0.38
 -11  -1   2    1.35    0.42
  10   1  -2   12.94    1.07
  10  -1  -2   16.39    1.13
 -10  -1   2   16.26    1.14
 -10   1   2   13.88    1.13
  -9   1   2    6.13    0.61
   9   1  -2    5.99    0.57
  -9  -1   2    3.20    0.52
   9  -1  -2    3.49    0.51
  -8  -1   2   17.73    1.17
  -8   1   2   17.64    1.19
   8   1  -2   16.57    1.15
   8  -1  -2   16.13    1.14
  -7  -1   2    0.57    0.25
   7   1  -2    0.41    0.22
  -7   1   2    0.47    0.25
   7  -1  -2    0.74    0.24
   7   1  -2    0.30    0.12
  -6   1   2    7.07    0.55
   6   1  -2    6.50    0.43
   6  -1  -2    4.95    0.50
   6   1  -2    6.80    0.54
  -6  -1   2    4.93    0.51
   5   1  -2  174.17    9.04
   5  -1  -2  149.83    8.83
  -5   1   2  169.61    8.77
  -5  -1   2  151.38    8.73
  -4  -1   2  105.09    5.58
   4  -1  -2  110.68    5.66
  -4   1   2   94.78    5.61
   4   1  -2   95.23    5.77
  -4  -1   2  102.62    5.67
   4  -1  -2  107.57    5.75
  -3  -1   2   48.32    2.70
   2   1  -2   47.08    2.76
   2  -1  -2   49.53    2.66
   2  -1  -2   48.88    2.74
  -2   1   2   51.88    2.69
  -2  -1   2   48.04    2.64
  -2  -1   2   44.97    2.67
   1   1  -2  301.55   17.99
  -1  -1   2  326.76   17.47
   1  -1  -2  322.15   17.55
   1  -1  -2  334.21   17.98
  -1  -1   2  327.44   17.32
   0   1  -2  907.94   49.55
   0   1  -2  872.99   51.55
   0  -1   2  960.60   50.11
   0  -1  -2 1000.00   51.56
   0   1   2  890.96   49.47
  -1  -1  -2  253.62   14.60
  -1   1  -2  285.34   14.60
  -1   1  -2  296.34   15.24
  -1  -1  -2  254.96   15.21
   2   1   2   53.29    2.82
   2  -1   2   52.56    2.83
  -2   1  -2   50.11    2.92
  -2   1  -2   51.05    2.81
  -2  -1  -2   49.69    2.91
  -2  -1  -2   49.22    2.81
   3  -1   2   89.82    4.58
  -3  -1  -2   89.93    4.69
   3   1   2   79.25    4.56
  -3  -1  -2   86.01    4.55
  -3   1  -2   76.50    4.53
  -3   1  -2   75.69    4.69
  -4  -1  -2   82.77    4.81
   4  -1   2   80.14    4.71
  -4   1  -2   86.89    4.69
  -4   1  -2   85.72    4.83
   4   1   2   89.64    4.72
  -5   1  -2   30.64    1.79
   5   1   2   31.34    1.76
  -5   1  -2   31.65    1.76
  -5  -1  -2   29.41    1.74
   5  -1   2   28.01    1.75
  -5  -1  -2   27.28    1.77
  -6   1  -2    2.00    0.36
  -6  -1  -2    1.65    0.35
   6   1   2    2.34    0.34
   6  -1   2    3.72    0.40
  -6   1  -2    2.75    0.27
  -7   1  -2    0.54    0.30
   7   1   2    0.22    0.23
  -7  -1  -2    0.41    0.27
   7  -1   2    0.52    0.26
  -8   1  -2   19.44    1.32
  -8  -1  -2   18.79    1.31
   8  -1   2   18.16    1.25
   8   1   2   17.09    1.22
  -9   1  -2   19.25    1.43
  -9  -1  -2   20.85    1.44
   9   1   2   18.25    1.33
   9  -1   2   22.29    1.39
  10  -1   2    0.42    0.34
  10   1   2    0.99    0.36
 -10   1  -2    0.84    0.42
 -10  -1  -2    0.35    0.37
 -11   1  -2    1.01    0.44
  11  -1   2    1.26    0.43
 -11  -1  -2    0.82    0.43
  11   1   2    1.09    0.40
 -12  -1  -2    0.90    0.47
 -12   1  -2    0.35    0.43
  12   1   2    0.47    0.36
  12  -1   2    0.77    0.44
  13   1   2    0.07    0.35
  13  -1   2    0.39    0.42
  14  -2  -2    1.84    0.55
 -14   2   2    1.79    0.57
  14   2  -2    0.86    0.45
 -14  -2   2    1.86    0.54
  13  -2  -2    0.17    0.38
  13   2  -2   -0.01    0.36
 -13   2   2   -0.07    0.34
 -13  -2   2    0.10    0.35
  12   2  -2    7.44    0.75
  12  -2  -2    5.93    0.72
 -12   2   2    6.62    0.77
 -12  -2   2    6.52    0.75
 -11   2   2   10.02    0.94
  11   2  -2   10.89    0.91
  11  -2  -2   10.05    0.90
 -11  -2   2   10.49    0.92
 -10   2   2   14.29    1.12
  10   2  -2   14.16    1.08
 -10  -2   2   14.69    1.09
  10  -2  -2   13.86    1.08
   9   2  -2    0.49    0.30
  -9   2   2    0.32    0.33
  -9  -2   2    0.06    0.26
   9  -2  -2    0.08    0.27
   8   2  -2   31.45    2.08
   8  -2  -2   39.64    2.12
  -8   2   2   31.48    2.08
   7  -2  -2   73.63    4.29
  -7   2   2   80.58    4.30
   7   2  -2   76.83    4.31
  -7  -2   2   72.17    4.24
   6   2  -2   18.21    1.24
   6  -2  -2   22.41    1.28
  -6   2   2   17.84    1.27
  -6  -2   2   20.74    1.31
  -6  -2   2   21.17    1.25
  -5  -2   2   30.59    1.81
  -5  -2   2   30.73    1.88
   5  -2  -2   31.72    1.85
   5  -2  -2   33.10    1.81
  -4  -2   2   30.49    1.75
  -4  -2   2   28.52    1.80
   4  -2  -2   31.79    1.77
   4  -2  -2   31.73    1.79
  -4   2   2   31.74    1.81
   4   2  -2   31.11    1.85
  -3  -2   2   20.48    1.25
   3   2  -2   20.58    1.30
   3  -2  -2   21.31    1.23
  -3   2   2   21.70    1.28
  -3  -2   2   20.92    1.20
   3  -2  -2   21.93    1.24
   2  -2  -2  507.10   27.03
  -2  -2   2  480.13   25.99
  -2   2   2  476.16   26.00
  -2  -2   2  467.58   26.29
   2   2  -2  485.14   27.07
   2  -2  -2  496.43   26.28
  -1  -2   2  205.35   12.10
  -1   2   2  229.01   11.99
   1  -2  -2  221.58   12.45
   1   2  -2  237.43   12.50
   1  -2  -2  220.50   12.08
   0  -2  -2   11.14    0.62
   0  -2  -2   10.44    0.67
   0   2   2   10.33    0.67
   0  -2   2   10.89    0.65
   0   2  -2    9.62    0.70
  -1  -2  -2   15.71    0.92
  -1   2  -2   14.35    0.85
  -1   2  -2   13.66    0.93
   1   2   2   13.62    0.89
   1  -2   2   15.56    0.89
  -1  -2  -2   15.72    0.86
  -2   2  -2   87.29    4.53
  -2  -2  -2   84.64    4.57
  -2  -2  -2   76.36    4.70
   2  -2   2   81.25    4.58
  -2  -2  -2   82.67    4.54
  -2   2  -2   86.15    4.74
  -3  -2  -2   44.74    2.52
  -4   2  -2   89.60    4.96
   4   2   2   88.35    4.99
  -4  -2  -2   95.10    5.12
  -4  -2  -2   90.24    4.97
  -4   2  -2   86.82    5.13
   4  -2   2   90.75    5.01
   5   2   2   53.93    3.15
  -5  -2  -2   59.82    3.21
  -5   2  -2   53.52    3.16
  -5  -2  -2   54.89    3.16
  -5   2  -2   54.17    3.22
   5  -2   2   57.39    3.17
   6   2   2   12.90    0.96
  -6  -2  -2   16.09    0.94
   6  -2   2   15.64    1.01
  -6   2  -2   12.66    1.00
  -6  -2  -2   15.16    1.03
   7  -2   2   20.71    1.31
  -7  -2  -2   19.86    1.34
   7   2   2   18.70    1.26
  -7   2  -2   19.10    1.32
   8  -2   2    6.64    0.64
  -8   2  -2    5.36    0.63
  -8  -2  -2    7.17    0.68
   8   2   2    4.98    0.58
  -9  -2  -2    7.28    0.75
  -9   2  -2    6.73    0.73
   9  -2   2    6.80    0.70
   9   2   2    6.28    0.65
 -10  -2  -2   21.14    1.50
  10   2   2   19.84    1.39
  10  -2   2   19.52    1.43
 -10   2  -2   20.30    1.49
  11   2   2   -0.13    0.29
 -11  -2  -2    0.17    0.39
  11  -2   2    0.21    0.36
 -11   2  -2    0.14    0.34
  12   2   2    2.39    0.50
  12  -2   2    1.90    0.53
 -12  -2  -2    1.91    0.57
 -12   2  -2    2.10    0.58
  13   2   2    1.46    0.46
 -14  -3   2    0.10    0.37
  13  -3  -2    4.79    0.70
 -13   3   2    4.98    0.76
  13   3  -2    5.39    0.71
 -13  -3   2    5.71    0.74
 -12   3   2    1.78    0.51
 -12  -3   2    1.14    0.44
  12  -3  -2    1.05    0.45
  12   3  -2    1.13    0.44
  11  -3  -2    2.45    0.51
  11   3  -2    2.31    0.49
 -11   3   2    2.33    0.52
 -11  -3   2    2.52    0.51
 -10   3   2    9.57    0.92
  10   3  -2   10.97    0.92
 -10  -3   2   10.61    0.90
  10  -3  -2   11.04    0.90
  -9   3   2   18.11    1.23
  -9  -3   2   12.43    1.11
   9   3  -2   18.20    1.21
   8  -3  -2   21.54    1.41
  -8  -3   2   20.92    1.38
   7  -3  -2   14.18    0.98
  -7  -3   2   13.38    1.02
  -7  -3   2   14.19    0.96
   6  -3  -2   27.01    1.63
  -6   3   2   27.59    1.66
  -6   3   2   26.86    1.62
   6   3  -2   28.72    1.69
  -6  -3   2   24.56    1.66
  -6  -3   2   25.38    1.59
  -5  -3   2   34.52    1.93
  -5   3   2   32.14    2.00
   5  -3  -2   34.90    1.96
  -5  -3   2   33.17    2.01
   5  -3  -2   36.63    1.99
   5   3  -2   31.12    2.05
   4  -3  -2  177.89    9.71
  -4   3   2  162.18    9.41
   4  -3  -2  178.84    9.48
   4   3  -2  170.92    9.80
  -4  -3   2  173.67    9.51
  -4  -3   2  176.67    9.34
   3  -3  -2   32.21    1.84
   3  -3  -2   31.19    1.80
  -3  -3   2   30.80    1.83
   2  -3  -2   42.20    2.43
   2  -3  -2   43.31    2.51
  -2   3   2   46.08    2.49
   2   3  -2   45.94    2.60
  -2  -3   2   40.07    2.45
   1   3  -2   90.07    5.45
  -1   3   2   86.57    5.22
  -1  -3   2   98.49    5.26
   1  -3  -2  102.58    5.23
   1  -3  -2   99.12    5.40
   0  -3  -2   47.99    2.67
  -1   3  -2   86.42    4.49
   1   3   2   82.90    4.55
  -1   3  -2   81.28    4.77
   1  -3   2   81.60    4.59
  -1  -3  -2   79.78    4.72
  -1  -3  -2   85.88    4.56
   2   3   2   31.29    1.85
  -2   3  -2   32.28    1.95
   2  -3   2   32.70    1.86
  -2   3  -2   32.82    1.81
  -2  -3  -2   31.53    1.83
  -2  -3  -2   31.71    1.90
  -3  -3  -2   12.08    0.81
  -3  -3  -2   12.65    0.82
  -3  -3  -2   12.09    0.82
  -4  -3  -2   60.90    3.37
  -4   3  -2   56.30    3.26
  -4  -3  -2   58.46    3.28
  -4  -3  -2   58.82    3.31
  -4   3  -2   57.51    3.40
   4  -3   2   57.30    3.30
  -5   3  -2    3.11    0.39
   5  -3   2    3.53    0.42
  -5   3  -2    3.38    0.43
   5   3   2    2.79    0.39
  -5  -3  -2    4.81    0.40
  -5  -3  -2    4.44    0.46
  -6  -3  -2    7.55    0.56
  -6  -3  -2    6.68    0.62
   6   3   2    6.80    0.59
   6  -3   2    7.06    0.61
  -6   3  -2    6.18    0.61
   7  -3   2    1.20    0.35
  -7   3  -2    1.60    0.37
   7   3   2    1.33    0.33
  -7  -3  -2    1.01    0.34
   8  -3   2    6.48    0.70
   8   3   2    8.79    0.72
  -8  -3  -2    7.02    0.74
  -8   3  -2    9.09    0.79
  -9  -3  -2    4.27    0.59
   9  -3   2    3.83    0.56
   9   3   2    3.17    0.50
  -9   3  -2    3.13    0.54
 -10  -3  -2    6.39    0.75
  10   3   2    6.33    0.68
 -10   3  -2    6.55    0.75
  10  -3   2    5.89    0.71
  11  -3   2    1.51    0.48
 -11  -3  -2    1.48    0.50
  11   3   2    0.83    0.40
 -11   3  -2    1.18    0.47
 -12  -3  -2    2.46    0.60
  12  -3   2    1.86    0.54
 -12   3  -2    2.54    0.60
  13   4  -2    0.41    0.45
 -13  -4   2    0.27    0.38
  13  -4  -2    0.01    0.40
 -13   4   2    0.29    0.39
 -12  -4   2    4.17    0.64
  12  -4  -2    3.43    0.62
  12   4  -2    2.15    0.57
 -12   4   2    3.01    0.62
  11  -4  -2    5.17    0.67
 -11   4   2    4.76    0.68
  11   4  -2    5.64    0.71
 -11  -4   2    6.29    0.69
  10  -4  -2    2.95    0.54
 -10   4   2    2.63    0.54
  10   4  -2    2.91    0.55
 -10  -4   2    2.91    0.52
   9  -4  -2   31.29    1.99
  -9   4   2   29.48    1.99
  -9  -4   2   33.03    1.97
  -8  -4   2    8.94    0.84
   8  -4  -2    8.39    0.78
  -8  -4   2    8.43    0.74
  -8   4   2   11.64    0.85
  -7  -4   2   36.75    2.08
   7  -4  -2   37.26    2.13
  -7   4   2   31.67    2.12
   7   4  -2   32.35    2.19
  -7  -4   2   36.47    2.19
   6   4  -2   49.38    2.80
  -6  -4   2   42.06    2.68
  -6   4   2   45.95    2.71
   6  -4  -2   41.92    2.63
  -6   4   2   47.31    2.67
  -6  -4   2   45.35    2.58
  -5   4   2    2.07    0.35
  -5  -4   2    1.00    0.30
   5  -4  -2    0.76    0.25
   5   4  -2    2.49    0.40
  -5  -4   2    1.13    0.22
  -5   4   2    1.66    0.29
  -4  -4   2   13.55    0.98
  -4   4   2   16.03    1.01
   4   4  -2   15.30    1.08
   4  -4  -2   14.68    0.94
   4  -4  -2   13.80    0.94
  -4  -4   2   14.45    0.88
  -3  -4   2    9.81    0.67
   3  -4  -2    9.72    0.63
   3   4  -2    7.02    0.70
   3  -4  -2    9.72    0.63
  -3   4   2    7.20    0.64
   2  -4  -2   58.18    3.20
  -2   4   2   52.51    3.13
   2   4  -2   51.97    3.29
   2  -4  -2   57.61    3.10
  -2  -4   2   56.36    3.13
  -1  -4   2   17.70    1.12
  -1   4   2   17.10    1.15
   1   4  -2   17.08    1.22
   1  -4  -2   20.34    1.11
   1  -4  -2   18.36    1.14
   0  -4  -2    1.58    0.25
   0   4  -2    1.58    0.31
   0   4   2    1.51    0.28
   0  -4  -2    2.20    0.27
   0  -4   2    2.13    0.28
   1  -4   2    1.83    0.29
   1   4   2    3.47    0.37
  -1   4  -2    3.33    0.40
  -1  -4  -2    1.83    0.26
   2  -4   2   83.70    4.74
  -2   4  -2   84.63    4.63
  -2  -4  -2   89.27    4.88
   2   4   2   83.28    4.70
  -2   4  -2   80.31    4.92
  -2  -4  -2   89.26    4.72
  -3   4  -2   19.55    1.29
  -3   4  -2   19.45    1.16
  -3  -4  -2   19.03    1.23
  -3  -4  -2   18.99    1.20
   3  -4   2   19.25    1.22
   3   4   2   19.04    1.22
   4  -4   2   17.55    1.19
  -4  -4  -2   17.94    1.18
  -4  -4  -2   18.33    1.20
  -4   4  -2   18.88    1.16
  -4  -4  -2   19.05    1.20
  -4   4  -2   18.68    1.25
  -5   4  -2   25.59    1.54
  -5   4  -2   24.25    1.60
  -7  -4  -2   14.96    1.09
   7  -4   2   14.61    1.07
  -8   4  -2    1.42    0.40
  -8  -4  -2    1.11    0.39
   8  -4   2    1.01    0.36
   8   4   2    1.02    0.35
   9   4   2   11.57    0.91
  -9   4  -2   10.06    0.93
  -9  -4  -2   10.52    0.95
   9  -4   2   10.03    0.89
  10  -4   2    2.59    0.53
 -10   4  -2    2.52    0.53
 -10  -4  -2    3.82    0.63
 -11  -4  -2    4.75    0.72
 -11   4  -2    4.93    0.69
  11  -4   2    4.50    0.68
 -12   4  -2    0.78    0.45
 -13   5   2   -0.12    0.38
  12   5  -2    6.83    0.84
 -12   5   2    6.61    0.82
  12  -5  -2    6.82    0.81
  11  -5  -2    1.01    0.44
 -11   5   2    1.25    0.43
  11   5  -2    1.04    0.51
  10   5  -2    2.92    0.60
 -10   5   2    3.58    0.60
  10  -5  -2    3.64    0.58
  -9  -5   2   22.36    1.63
  -9   5   2   24.34    1.59
   9  -5  -2   21.99    1.55
   8   5  -2    7.58    0.83
  -8   5   2    7.13    0.77
   8  -5  -2   11.00    0.84
  -8  -5   2   11.52    0.93
   7   5  -2    3.36    0.58
  -7  -5   2    4.53    0.60
   7  -5  -2    5.21    0.55
  -7   5   2    3.97    0.53
   6  -5  -2    7.21    0.61
  -6   5   2    4.72    0.58
  -6   5   2    5.51    0.62
   6   5  -2    6.72    0.71
  -6  -5   2    7.87    0.69
   5   5  -2   30.54    1.95
  -5   5   2   30.02    1.82
   5  -5  -2   29.32    1.79
  -5  -5   2   30.12    1.84
  -5   5   2   26.71    1.86
   4  -5  -2    3.38    0.39
   4   5  -2    2.55    0.48
  -4   5   2    2.72    0.41
   3   5  -2   32.98    2.13
   2  -5  -2   13.11    0.90
  -2  -5   2   12.81    0.91
   2  -5  -2   13.66    0.88
   1  -5  -2    5.29    0.46
  -1   5   2    3.85    0.48
   1   5  -2    4.08    0.54
  -1  -5   2    5.20    0.49
   1  -5  -2    5.12    0.46
   0   5  -2  105.30    6.21
   0  -5  -2  111.51    5.92
   0   5   2  109.47    5.91
   0  -5   2  101.71    5.94
   1   5   2    1.65    0.31
  -1   5  -2    0.85    0.31
  -1  -5  -2    1.24    0.25
  -1  -5  -2    0.50    0.23
   1  -5   2    0.72    0.25
   2  -5   2   14.26    0.99
  -2  -5  -2   14.22    1.01
  -2  -5  -2   14.47    0.97
   2   5   2   15.72    1.01
  -2   5  -2   14.95    1.09
   3   5   2   20.27    1.26
  -3  -5  -2   17.83    1.23
   3  -5   2   17.75    1.21
  -3   5  -2   18.83    1.32
  -3  -5  -2   19.24    1.21
   4   5   2   11.37    0.85
   4  -5   2    9.96    0.80
  -4  -5  -2   10.36    0.81
  -4   5  -2   11.43    0.89
  -4  -5  -2   10.45    0.81
  -5   5  -2    7.38    0.71
   5   5   2    7.64    0.72
   5  -5   2    9.18    0.71
  -5  -5  -2    6.04    0.66
  -5  -5  -2    8.42    0.67
  -6  -5  -2    1.02    0.34
  -6  -5  -2    0.72    0.28
  -6  -5  -2    0.39    0.31
   6  -5   2    0.81    0.33
   7   5   2    5.35    0.61
   7  -5   2    5.09    0.60
  -7  -5  -2    5.66    0.56
  -7  -5  -2    5.51    0.62
  -8  -5  -2   13.01    1.01
   8  -5   2   11.34    0.98
   9  -5   2    4.41    0.62
  -9  -5  -2    4.99    0.65
 -10  -5  -2    0.99    0.45
  10  -5   2    1.39    0.47
 -11  -5  -2    1.43    0.50
  12   6  -2    2.66    0.70
  11   6  -2    2.27    0.61
  11  -6  -2    2.90    0.59
 -10  -6   2    6.89    0.85
 -10   6   2    6.82    0.79
  10  -6  -2    6.95    0.78
  -9  -6   2    0.47    0.43
   9  -6  -2    0.29    0.34
  -9   6   2    0.71    0.37
   8   6  -2   14.49    1.26
  -8  -6   2   17.54    1.30
   8  -6  -2   16.82    1.20
  -8   6   2   14.59    1.16
  -7  -6   2    4.85    0.66
   7   6  -2    5.40    0.72
   7  -6  -2    4.40    0.57
  -7   6   2    5.72    0.61
   6   6  -2   12.98    1.13
   6  -6  -2   15.27    1.02
  -6   6   2   11.18    1.01
  -6  -6   2   15.53    1.08
  -6   6   2   11.84    0.98
  -5   6   2    5.95    0.65
  -5  -6   2    7.12    0.69
  -5   6   2    7.76    0.68
   5   6  -2    7.97    0.81
   5  -6  -2    6.57    0.62
   4  -6  -2    0.20    0.23
  -4  -6   2    0.00    0.28
  -4   6   2    0.14    0.27
  -4   6   2    0.43    0.28
   4   6  -2    0.89    0.39
   3   6  -2   12.48    1.06
  -3   6   2   14.13    0.95
  -3  -6   2   12.35    0.94
   3  -6  -2   11.28    0.87
  -2  -6   2   13.83    1.01
   2  -6  -2   13.43    1.00
   2   6  -2   16.68    1.20
   1  -6  -2   12.65    0.94
   1   6  -2   14.82    1.11
   1  -6  -2   12.60    0.91
  -1  -6   2   12.82    0.95
  -1   6   2   13.90    0.97
   0  -6  -2    1.53    0.32
   0  -6  -2    1.72    0.34
   0   6  -2    1.63    0.43
   0   6   2    2.46    0.40
   0  -6   2    1.74    0.34
  -1  -6  -2   28.75    1.70
  -1   6  -2   27.66    1.87
  -1  -6  -2   28.42    1.76
   1   6   2   27.48    1.73
   1  -6   2   26.31    1.70
  -2  -6  -2    3.36    0.43
   2  -6   2    2.90    0.42
  -2   6  -2    1.27    0.41
  -2  -6  -2    3.57    0.44
  -3   6  -2   12.92    1.05
   3   6   2   12.82    0.97
   3  -6   2   13.53    0.97
  -3  -6  -2   13.83    0.99
   4  -6   2    5.63    0.56
  -4   6  -2    4.07    0.58
   4   6   2    3.85    0.55
  -4  -6  -2    6.05    0.57
  -5  -6  -2    1.83    0.42
  -5   6  -2    3.11    0.50
  -5  -6  -2    1.61    0.38
   5  -6   2    1.84    0.40
  -6  -6  -2    8.11    0.76
  -6  -6  -2    7.18    0.68
   6  -6   2    7.10    0.72
  -7  -6  -2    2.36    0.43
   7  -6   2    2.39    0.49
   8  -6   2    3.53    0.59
   9  -6   2    0.77    0.42
  10  -7  -2    0.25    0.39
 -10  -7   2    0.25    0.46
   9  -7  -2    8.52    0.88
  -9  -7   2    9.55    1.00
   8   7  -2    1.80    0.57
   8  -7  -2    3.57    0.57
  -8  -7   2    4.24    0.70
  -7  -7   2    0.32    0.40
   7   7  -2    0.47    0.43
   7  -7  -2    0.52    0.34
   6   7  -2    1.92    0.56
   6  -7  -2    1.67    0.40
  -6   7   2    1.65    0.45
  -6  -7   2    1.70    0.48
  -5   7   2    6.18    0.75
   5   7  -2    5.78    0.79
   5  -7  -2    6.36    0.62
  -5  -7   2    7.05    0.72
   4  -7  -2   13.78    1.01
  -4   7   2   13.82    1.14
   4   7  -2   13.75    1.21
  -4  -7   2   14.80    1.09
  -3   7   2    1.26    0.42
   3   7  -2    0.92    0.45
  -3  -7   2    2.24    0.43
   3  -7  -2    1.95    0.37
  -2  -7   2    2.06    0.41
   2   7  -2    1.99    0.51
  -2   7   2    2.00    0.48
   2  -7  -2    2.00    0.38
  -1  -7   2    8.11    0.73
   1   7  -2    8.88    0.87
   1  -7  -2    8.35    0.70
   0  -7  -2    7.34    0.62
   0   7  -2    4.38    0.71
   0  -7  -2    7.03    0.63
   0  -7   2    6.97    0.65
   1  -7   2    8.89    0.77
  -1   7  -2   10.38    0.93
  -1  -7  -2    8.46    0.76
  -1  -7  -2    9.34    0.76
  -2  -7  -2    2.24    0.40
   2  -7   2    2.23    0.42
  -2  -7  -2    2.41    0.42
  -2   7  -2    2.45    0.52
  -3  -7  -2    0.95    0.35
  -3   7  -2    1.61    0.46
  -3  -7  -2    0.71    0.32
   3  -7   2    0.77    0.33
  -4   7  -2   10.50    0.97
   4  -7   2   11.24    0.90
  -4  -7  -2   11.30    0.89
  -5   7  -2    3.03    0.58
  -5  -7  -2    3.55    0.50
   5  -7   2    3.75    0.52
   6  -7   2    0.37    0.34
   7   7   2    2.09    0.58
   7  -7   2    3.10    0.55
   8  -7   2    2.82    0.57
   9  -8  -2    2.03    0.52
  -9  -8   2    2.72    0.66
   8   8  -2    0.47    0.48
   8  -8  -2    0.88    0.42
  -8  -8   2    0.69    0.51
   7   8  -2    3.49    0.71
  -7  -8   2    4.87    0.74
   7  -8  -2    4.17    0.60
   6   8  -2    3.58    0.72
   6  -8  -2    3.97    0.58
  -6  -8   2    4.27    0.66
  -5   8   2    2.20    0.55
  -5  -8   2    2.40    0.53
   5   8  -2    1.73    0.58
   5  -8  -2    2.32    0.46
  -4   8   2    5.70    0.78
   4   8  -2    5.21    0.77
   4  -8  -2    5.67    0.62
  -4  -8   2    5.84    0.70
  -3  -8   2    3.64    0.60
   3  -8  -2    4.01    0.56
  -3   8   2    6.08    0.82
   3   8  -2    5.58    0.76
   2  -8  -2   10.79    0.88
   2   8  -2   10.46    1.05
  -2  -8   2   10.41    0.89
  -2   8   2   11.01    1.04
  -1   8   2    0.91    0.47
   1  -8  -2    0.81    0.36
   1   8  -2    0.74    0.45
  -1  -8   2    0.67    0.35
   0  -8   2    0.37    0.35
   0   8   2   -0.31    0.38
   0  -8  -2    0.21    0.29
   0   8  -2    0.24    0.38
  -1  -8  -2    5.79    0.63
   1  -8   2    5.03    0.62
   1   8   2    5.47    0.83
  -1   8  -2    5.99    0.75
  -2   8  -2    4.42    0.70
   2  -8   2    4.53    0.58
   2   8   2    4.76    0.79
   3  -8   2    0.89    0.38
   3   8   2    1.76    0.59
  -3   8  -2    1.79    0.50
   4   8   2    0.36    0.45
  -4   8  -2    0.35    0.39
   4  -8   2    0.24    0.33
   5  -8   2    5.15    0.64
   5   8   2    4.72    0.81
   6   8   2    1.01    0.53
   6  -8   2    1.25    0.46
   7   8   2    3.83    0.76
   7  -8   2    3.74    0.63
   8   9  -2    1.18    0.61
  -7  -9   2    0.29    0.44
   7   9  -2    0.35    0.51
   7  -9  -2    0.30    0.37
   6  -9  -2    1.18    0.42
   6   9  -2    0.68    0.52
  -6  -9   2    1.87    0.56
   5   9  -2    0.59    0.52
  -5   9   2    1.20    0.48
   5  -9  -2    1.00    0.41
  -5  -9   2    0.52    0.45
  -4  -9   2    3.99    0.66
   4  -9  -2    4.25    0.59
   4   9  -2    2.86    0.69
  -4   9   2    2.78    0.64
  -3  -9   2    2.37    0.53
   3  -9  -2    2.06    0.47
   3   9  -2    1.52    0.57
  -3   9   2    1.89    0.59
   2   9  -2    2.24    0.63
  -2   9   2    3.75    0.72
   2  -9  -2    2.80    0.51
  -2  -9   2    2.32    0.52
  -1   9   2    0.91    0.53
   1   9  -2    1.14    0.49
  -1  -9   2    0.77    0.40
   0   9   2    3.93    0.76
   0  -9   2    4.74    0.62
   0   9  -2    5.28    0.75
   1   9   2   -0.10    0.43
  -1   9  -2   -0.19    0.36
   1  -9   2   -0.02    0.34
   2   9   2    0.67    0.50
   2  -9   2    0.55    0.38
  -2   9  -2    1.01    0.49
   3  -9   2    3.07    0.56
   3   9   2    3.01    0.73
  -3   9  -2    4.14    0.71
   4   9   2    1.39    0.61
   4  -9   2    2.45    0.51
  -4   9  -2    0.94    0.48
   5  -9   2    0.07    0.38
   5   9   2    0.47    0.48
   6   9   2    1.93    0.66
  -5  10   2    0.69    0.45
  -4  10   2    0.65    0.48
  -4 -10   2    1.06    0.50
  -3  10   2    1.98    0.63
  -3 -10   2    2.27    0.57
  -2  10   2    0.34    0.49
  -2 -10   2    0.43    0.42
  -1  10   2   -0.36    0.41
  -1 -10   2    0.01    0.35
   0  10  -2    0.28    0.45
   0 -10   2    0.42    0.39
  -1  10  -2    2.68    0.67
   1 -10   2    3.31    0.60
  -2  10  -2    1.41    0.55
  14   0  -3    0.22    0.40
 -14   0   3    0.44    0.39
  13   0  -3    7.31    0.79
 -13   0   3    7.78    0.83
 -12   0   3    7.23    0.79
  12   0  -3    8.03    0.77
  11   0  -3    3.76    0.55
 -11   0   3    4.48    0.62
  10   0  -3   14.33    1.11
 -10   0   3   16.01    1.16
  -9   0   3   38.82    2.34
   9   0  -3   37.54    2.32
   8   0  -3   15.92    1.01
  -8   0   3   12.25    0.99
  -7   0   3   26.82    1.66
   7   0  -3   27.22    1.66
   6   0  -3    2.57    0.33
  -6   0   3    2.73    0.36
   5   0  -3    8.18    0.61
   5   0  -3    8.92    0.55
  -5   0   3    8.78    0.63
  -4   0   3  253.87   13.62
   4   0  -3  260.94   14.14
   4   0  -3  244.34   13.76
  -3   0   3   23.96    1.41
  -3   0   3   24.68    1.42
   3   0  -3   24.29    1.43
  -2   0   3  779.35   40.64
   2   0  -3  722.00   41.79
  -1   0   3   26.60    1.48
  -1   0   3   27.68    1.52
   1   0  -3   26.17    1.59
   0   0   3  104.38    5.39
   0   0   3  102.65    5.42
   0   0  -3   91.38    5.62
  -1   0  -3  207.97   10.97
  -1   0  -3  194.12   11.44
   1   0   3  210.50   11.08
  -2   0  -3    4.64    0.39
   2   0   3    5.17    0.35
  -2   0  -3    4.93    0.39
  -3   0  -3   23.78    1.39
  -3   0  -3   22.71    1.40
   3   0   3   22.96    1.35
   4   0   3    6.56    0.49
  -4   0  -3    5.66    0.52
  -4   0  -3    6.84    0.49
   5   0   3   34.01    1.97
  -5   0  -3   33.27    2.01
  -6   0  -3   16.77    0.99
   6   0   3   15.07    1.02
  -6   0  -3   14.43    1.07
  -7   0  -3   20.42    1.36
   7   0   3   19.19    1.28
   8   0   3    7.80    0.70
  -8   0  -3    8.43    0.79
   9   0   3    1.44    0.38
  -9   0  -3    1.99    0.48
  10   0   3    4.61    0.59
 -10   0  -3    5.25    0.74
 -11   0  -3    0.24    0.40
  11   0   3   -0.09    0.31
 -12   0  -3    0.30    0.47
  12   0   3    0.32    0.38
  14  -1  -3    0.54    0.42
 -14  -1   3    0.73    0.42
 -14   1   3    1.77    0.53
  14   1  -3    1.40    0.48
 -13  -1   3    3.45    0.60
  13  -1  -3    3.10    0.57
 -13   1   3    2.23    0.56
  13   1  -3    2.62    0.54
  12  -1  -3    2.97    0.54
 -12  -1   3    4.11    0.61
 -12   1   3    2.98    0.58
  12   1  -3    2.91    0.54
  11  -1  -3    1.57    0.43
  11   1  -3    3.27    0.52
 -11   1   3    3.97    0.59
 -11  -1   3    2.29    0.49
 -10   1   3  108.78    6.38
 -10  -1   3  120.59    6.39
  10  -1  -3  115.76    6.42
  10   1  -3  109.11    6.41
  -9  -1   3   10.15    0.86
  -9   1   3   13.10    0.94
   9  -1  -3    9.30    0.84
   9   1  -3   11.64    0.87
   8   1  -3    3.67    0.46
  -8  -1   3    3.79    0.48
  -8   1   3    3.32    0.47
   7  -1  -3   61.99    3.26
   7   1  -3   51.62    3.23
   7   1  -3   54.22    3.21
  -7  -1   3   62.20    3.24
  -7   1   3   52.14    3.23
  -6  -1   3   53.20    3.31
   6   1  -3   64.53    3.38
   6   1  -3   60.62    3.37
   6  -1  -3   54.52    3.35
  -6   1   3   62.72    3.37
   5  -1  -3  102.17    5.44
   5  -1  -3   99.46    5.50
  -5  -1   3  101.08    5.38
  -5   1   3   93.63    5.40
  -5  -1   3   95.09    5.46
   5   1  -3   97.27    5.54
   4   1  -3   63.51    3.40
   4  -1  -3   60.72    3.36
  -4  -1   3   57.16    3.28
  -4   1   3   60.63    3.33
   4  -1  -3   58.54    3.31
  -4  -1   3   55.95    3.33
   3  -1  -3  107.23    5.66
   3   1  -3   98.74    5.83
   3  -1  -3  110.02    5.82
  -3  -1   3  104.01    5.61
  -3  -1   3   96.90    5.67
   2  -1  -3   27.12    1.51
   1  -1  -3  252.72   14.13
   0  -1   3  107.57    5.86
   0  -1   3  106.64    5.93
   0   1  -3  112.12    6.15
  -1  -1  -3   26.21    1.66
  -1   1  -3   28.34    1.69
   1  -1   3   27.75    1.59
   1   1   3   27.95    1.62
  -1   1  -3   28.05    1.58
   1   1   3   30.80    1.57
  -3  -1  -3   77.65    4.79
   3   1   3   89.25    4.65
  -3   1  -3   87.04    4.64
   3  -1   3   78.07    4.65
  -3   1  -3   89.96    4.83
   4  -1   3   11.20    0.79
  -4  -1  -3   11.34    0.83
  -4  -1  -3   12.45    0.80
  -4   1  -3   12.68    0.84
  -4   1  -3   12.54    0.82
   4   1   3   12.59    0.79
  -5  -1  -3    5.12    0.43
  -5   1  -3    6.25    0.53
  -5   1  -3    5.54    0.45
   5  -1   3    4.49    0.46
   5   1   3    5.58    0.47
  -5  -1  -3    4.51    0.50
   6  -1   3    0.52    0.25
   6   1   3    1.79    0.30
  -6   1  -3    1.57    0.35
  -6  -1  -3    0.40    0.26
  -6  -1  -3    0.86    0.21
  -7   1  -3   21.36    1.41
   7   1   3   19.36    1.31
   7  -1   3   20.54    1.33
  -7  -1  -3   20.65    1.40
   8   1   3    4.41    0.51
  -8  -1  -3    4.83    0.60
   8  -1   3    4.24    0.54
  -8   1  -3    4.38    0.58
  -9  -1  -3    2.09    0.49
  -9   1  -3    0.68    0.40
   9   1   3    0.83    0.33
   9  -1   3    0.92    0.37
 -10   1  -3    0.26    0.38
 -10  -1  -3    0.94    0.42
  10   1   3    0.29    0.31
  10  -1   3    0.39    0.35
 -11   1  -3    1.80    0.54
  11   1   3    1.66    0.44
  11  -1   3    2.18    0.51
 -11  -1  -3    2.55    0.58
  12   1   3    0.15    0.34
 -12   1  -3   -0.39    0.38
  12  -1   3    0.08    0.38
 -12  -1  -3    0.15    0.44
 -14  -2   3    1.49    0.49
  14  -2  -3    1.91    0.53
  14   2  -3    1.71    0.53
 -14   2   3    1.88    0.55
 -13  -2   3    1.57    0.47
 -13   2   3    1.54    0.49
  13  -2  -3    2.01    0.53
  13   2  -3    1.16    0.45
  12  -2  -3    4.76    0.64
 -12   2   3    4.88    0.72
 -12  -2   3    5.33    0.66
  12   2  -3    4.82    0.64
  11   2  -3    2.27    0.46
 -11  -2   3    1.75    0.45
 -11   2   3    2.34    0.52
  11  -2  -3    1.95    0.46
  10  -2  -3   11.08    0.91
  10   2  -3   10.86    0.92
 -10  -2   3   10.93    0.91
 -10   2   3   11.31    0.96
   9  -2  -3   19.45    1.30
   9   2  -3   17.88    1.29
  -9  -2   3   20.15    1.29
  -9   2   3   18.00    1.31
   8  -2  -3   75.17    4.60
   8   2  -3   84.83    4.64
  -8   2   3   82.02    4.62
  -8  -2   3   83.38    4.58
   7  -2  -3   27.55    1.65
  -7  -2   3   26.21    1.70
  -7  -2   3   28.44    1.64
  -7   2   3   24.74    1.66
   7   2  -3   26.53    1.62
  -6  -2   3   20.70    1.36
   6  -2  -3   21.33    1.24
  -6   2   3   21.10    1.37
   6   2  -3   21.82    1.32
  -6  -2   3   21.59    1.31
   6  -2  -3   21.04    1.32
  -5   2   3   46.01    2.42
  -5  -2   3   38.59    2.39
  -5  -2   3   40.90    2.33
   5  -2  -3   39.88    2.35
   5  -2  -3   40.53    2.36
   4  -2  -3   62.92    3.46
  -4   2   3   60.37    3.43
   4  -2  -3   64.12    3.40
   4   2  -3   56.74    3.50
  -4  -2   3   61.19    3.34
  -4  -2   3   59.87    3.42
  -3  -2   3   29.14    1.63
  -2  -2   3   76.34    4.04
   2  -2  -3   75.13    4.09
  -2  -2   3   72.79    4.12
   1   2  -3   82.60    4.61
   1  -2  -3   84.93    4.39
  -1   2   3   85.25    4.43
  -1  -2   3   78.39    4.42
  -1  -2   3   77.19    4.34
   1  -2  -3   74.27    4.56
   0  -2   3  300.23   16.65
   0  -2  -3  307.01   16.65
   0   2  -3  314.18   17.18
   0  -2  -3  299.41   17.14
   0   2   3  313.77   16.49
  -1  -2  -3   43.28    2.43
   1   2   3   39.11    2.35
  -1   2  -3   40.22    2.45
  -1   2  -3   40.32    2.29
   1  -2   3   45.36    2.35
   2   2   3  125.03    6.42
  -2   2  -3  123.93    6.37
   2  -2   3  114.11    6.44
  -2  -2  -3  107.43    6.62
  -2   2  -3  121.86    6.67
  -2  -2  -3  111.60    6.38
   3  -2   3    6.80    0.50
  -3  -2  -3    6.51    0.50
  -3   2  -3    5.98    0.51
  -3   2  -3    6.39    0.50
   3   2   3    6.30    0.47
  -3  -2  -3    6.55    0.52
  -4  -2  -3   40.80    2.35
   4  -2   3   40.23    2.33
  -4  -2  -3   42.65    2.38
   4   2   3   40.19    2.31
  -4   2  -3   38.70    2.40
  -4   2  -3   39.43    2.33
   5  -2   3   23.96    1.52
  -5  -2  -3   25.53    1.52
   6   2   3   23.43    1.42
  -6  -2  -3   21.09    1.46
  -6  -2  -3   23.25    1.41
   6  -2   3   22.36    1.44
  -6   2  -3   23.66    1.49
  -7  -2  -3    7.13    0.67
  -7   2  -3    6.26    0.65
   7  -2   3    6.65    0.62
   7   2   3    5.43    0.57
  -8   2  -3    5.80    0.67
   8   2   3    4.96    0.57
  -8  -2  -3    6.14    0.69
   8  -2   3    6.84    0.65
   9   2   3   11.37    0.89
  -9  -2  -3   10.57    0.98
   9  -2   3    9.60    0.90
  -9   2  -3   12.71    1.01
 -10  -2  -3    0.77    0.43
  10  -2   3    0.74    0.39
  10   2   3    0.65    0.34
 -10   2  -3    0.91    0.44
 -11   2  -3    2.32    0.57
  11  -2   3    2.15    0.52
 -11  -2  -3    2.62    0.61
  12  -2   3    0.79    0.45
 -12   2  -3    0.60    0.48
 -14  -3   3    3.00    0.62
 -14   3   3    1.63    0.55
  14   3  -3    1.23    0.52
 -13   3   3    1.02    0.47
  13  -3  -3    0.51    0.42
  13   3  -3    0.59    0.44
 -13  -3   3    0.63    0.42
 -12   3   3    0.68    0.42
 -12  -3   3    0.56    0.38
  12  -3  -3    0.38    0.38
  12   3  -3    0.38    0.38
 -11  -3   3    7.09    0.73
  11   3  -3    6.89    0.75
  11  -3  -3    6.56    0.73
 -11   3   3    7.08    0.80
  10  -3  -3    1.57    0.43
 -10  -3   3    1.77    0.41
  10   3  -3    2.50    0.50
 -10   3   3    2.28    0.50
  -9  -3   3   12.10    0.85
   9   3  -3    8.92    0.84
   9  -3  -3   11.25    0.86
  -9   3   3    7.53    0.81
  -8  -3   3    5.28    0.62
  -8   3   3    5.60    0.62
   8  -3  -3    5.08    0.55
  -8  -3   3    5.84    0.56
   7  -3  -3    2.40    0.40
   7   3  -3    2.87    0.41
  -7  -3   3    4.74    0.46
  -7  -3   3    4.54    0.53
   6  -3  -3   50.20    2.79
  -6   3   3   46.47    2.82
   6  -3  -3   48.69    2.77
   6   3  -3   46.91    2.87
  -6  -3   3   47.35    2.83
  -6  -3   3   50.28    2.74
   5  -3  -3   80.73    4.45
   5  -3  -3   81.93    4.38
  -5   3   3   74.68    4.40
  -5  -3   3   79.82    4.30
   5   3  -3   76.44    4.54
  -5  -3   3   77.14    4.41
   4  -3  -3   63.49    3.47
   4  -3  -3   63.13    3.54
  -4  -3   3   61.00    3.39
   4   3  -3   61.22    3.63
  -4   3   3   60.88    3.51
  -4  -3   3   62.47    3.50
   3   3  -3   10.19    0.82
  -3   3   3    9.88    0.81
  -3  -3   3   11.97    0.78
  -3  -3   3   12.17    0.67
   3  -3  -3   12.70    0.76
   3  -3  -3   12.46    0.73
   2  -3  -3  156.81    8.81
  -2  -3   3  151.21    8.57
  -2   3   3  155.65    8.54
   2  -3  -3  164.74    8.54
   2   3  -3  155.26    8.88
   0   3   3   83.69    4.67
   0   3  -3   82.06    4.87
   0  -3   3   87.46    4.68
   0  -3  -3   91.16    4.64
   0  -3  -3   78.71    4.82
  -1   3  -3    3.32    0.39
   1  -3   3    3.70    0.35
  -1  -3  -3    4.29    0.31
   1   3   3    3.25    0.38
  -1  -3  -3    4.11    0.37
  -1   3  -3    3.12    0.27
  -2   3  -3  122.86    6.56
   2   3   3  120.09    6.29
  -2  -3  -3  109.94    6.29
   2  -3   3  105.88    6.31
   3  -3   3   55.41    3.06
  -3  -3  -3   54.96    3.14
  -3   3  -3   50.32    3.00
  -3  -3  -3   57.75    3.04
  -3   3  -3   50.33    3.16
   4   3   3    5.97    0.47
  -4  -3  -3    4.22    0.49
  -4   3  -3    7.16    0.55
   4  -3   3    4.20    0.47
  -5   3  -3   26.16    1.53
   5  -3   3   22.96    1.49
   5   3   3   24.31    1.47
  -5  -3  -3   23.57    1.50
  -5   3  -3   24.34    1.53
  -5  -3  -3   22.84    1.51
   6   3   3    8.45    0.69
  -6  -3  -3    8.90    0.67
   6  -3   3    8.93    0.72
  -6  -3  -3    9.12    0.76
  -6   3  -3    8.41    0.74
  -7  -3  -3    0.76    0.34
   7   3   3    1.12    0.30
   7  -3   3    0.62    0.30
  -7   3  -3    1.09    0.35
  -8  -3  -3   15.36    1.19
   8  -3   3   15.86    1.16
   8   3   3   15.64    1.12
  -8   3  -3   16.84    1.21
  -9  -3  -3    0.37    0.38
   9   3   3    0.01    0.29
  -9   3  -3    0.19    0.34
   9  -3   3    0.37    0.34
  10  -3   3    1.15    0.43
 -10   3  -3    1.86    0.51
 -10  -3  -3    1.25    0.47
  11  -3   3    1.53    0.50
 -11  -3  -3    3.11    0.63
 -11   3  -3    1.51    0.51
 -12   3  -3    1.07    0.51
  13   4  -3    2.74    0.61
  13  -4  -3    3.82    0.66
 -13   4   3    2.37    0.59
 -13  -4   3    4.06    0.65
 -12   4   3    2.42    0.56
  12   4  -3    2.33    0.58
  12  -4  -3    2.92    0.58
 -12  -4   3    2.72    0.55
  11   4  -3    3.30    0.61
 -11  -4   3    3.54    0.56
  11  -4  -3    3.18    0.57
 -11   4   3    3.80    0.64
  10  -4  -3    0.81    0.38
 -10   4   3    1.16    0.41
  10   4  -3    1.31    0.45
 -10  -4   3    1.04    0.38
  -9   4   3    7.70    0.79
   9  -4  -3    9.06    0.80
  -9  -4   3   10.28    0.79
  -9  -4   3    8.93    0.86
  -8  -4   3   11.07    0.95
  -8   4   3   11.36    0.93
   8   4  -3   11.29    0.90
  -8  -4   3   11.28    0.84
   8  -4  -3   10.86    0.88
  -7  -4   3   31.48    2.01
   7   4  -3   32.24    2.03
   7  -4  -3   32.78    1.95
  -7  -4   3   31.77    1.88
  -7   4   3   30.27    1.97
  -6  -4   3    5.33    0.44
   6   4  -3    3.79    0.53
  -6  -4   3    4.83    0.54
   6  -4  -3    4.94    0.40
   6  -4  -3    5.02    0.49
  -6   4   3    4.21    0.54
  -5  -4   3   13.96    0.80
  -5  -4   3   11.23    0.89
   5  -4  -3   13.00    0.85
   5  -4  -3   13.73    0.83
   5   4  -3   11.17    0.93
  -5   4   3   11.57    0.91
  -4  -4   3   70.04    4.05
   4   4  -3   74.36    4.23
   4  -4  -3   71.35    4.00
   4  -4  -3   70.53    4.10
  -4   4   3   73.93    4.06
  -4  -4   3   69.45    3.89
   3  -4  -3   47.94    2.80
  -3   4   3   49.75    2.80
  -3  -4   3   45.58    2.76
   3   4  -3   49.77    2.91
   3  -4  -3   47.38    2.71
   2   4  -3    7.55    0.59
   2  -4  -3    4.72    0.43
  -2  -4   3    4.72    0.47
   1  -4  -3   21.16    1.23
  -1  -4   3   18.90    1.26
   1   4  -3   21.61    1.40
   1  -4  -3   20.46    1.31
  -1   4   3   22.01    1.34
   0   4   3   21.51    1.46
   0  -4   3   25.80    1.45
   0  -4  -3   24.36    1.49
   1   4   3   29.36    1.80
  -1  -4  -3   30.90    1.74
  -1   4  -3   29.94    1.67
   1  -4   3   28.55    1.77
  -1  -4  -3   31.03    1.84
  -1   4  -3   30.48    1.90
   2  -4   3   15.56    0.99
  -2   4  -3   15.09    0.92
   2   4   3   13.45    1.01
  -2   4  -3   15.16    1.08
  -2  -4  -3   14.24    1.01
  -2  -4  -3   16.55    0.95
  -3  -4  -3    2.23    0.33
  -3   4  -3    3.32    0.34
   3  -4   3    1.56    0.31
  -3   4  -3    2.98    0.42
   3   4   3    3.33    0.43
  -3  -4  -3    1.62    0.32
  -4  -4  -3   11.65    0.84
   4  -4   3   11.98    0.86
  -5   4  -3   26.44    1.56
   5   4   3   24.64    1.54
  -5  -4  -3   24.25    1.56
   5  -4   3   23.70    1.56
  -5   4  -3   26.13    1.63
  -5  -4  -3   23.47    1.56
   6  -4   3   27.43    1.81
  -6  -4  -3   29.08    1.83
  -6  -4  -3   30.33    1.81
  -7   4  -3    0.76    0.34
  -7  -4  -3    0.60    0.34
   7  -4   3    0.69    0.34
  -8  -4  -3    3.39    0.54
  -8   4  -3    2.29    0.49
   8  -4   3    3.35    0.52
  -9   4  -3    1.08    0.43
  -9  -4  -3    1.60    0.47
   9  -4   3    1.44    0.44
 -10  -4  -3    4.20    0.67
 -10   4  -3    4.29    0.67
  10  -4   3    3.07    0.57
 -11   4  -3    2.13    0.54
 -11  -4  -3    3.55    0.65
  11  -4   3    2.16    0.55
 -13   5   3    0.82    0.46
  13   5  -3    1.13    0.56
  12  -5  -3    0.75    0.47
 -12   5   3    0.32    0.41
  12   5  -3    0.34    0.48
  11  -5  -3    2.32    0.53
 -11   5   3    2.75    0.58
  11   5  -3    2.97    0.62
 -10  -5   3   18.36    1.39
  10  -5  -3   18.08    1.30
 -10   5   3   14.59    1.25
  -9   5   3    5.27    0.61
   9  -5  -3    3.74    0.56
  -9  -5   3    3.65    0.63
  -8   5   3    0.49    0.33
   8   5  -3    0.23    0.32
  -8  -5   3    1.18    0.45
   8  -5  -3    0.53    0.31
   7  -5  -3   18.91    1.21
   7   5  -3   16.53    1.29
  -7   5   3   15.85    1.22
  -7  -5   3   18.19    1.28
  -6  -5   3    8.20    0.76
   6   5  -3    9.00    0.82
   6  -5  -3    8.62    0.71
  -6   5   3    9.10    0.78
   5   5  -3   20.16    1.43
  -5  -5   3   19.91    1.33
  -5   5   3   20.04    1.35
   5  -5  -3   19.82    1.26
   4  -5  -3    1.85    0.30
  -4  -5   3    1.53    0.34
   4  -5  -3    1.80    0.28
  -4   5   3    0.83    0.32
   4   5  -3    0.54    0.32
   3   5  -3   21.90    1.61
   3  -5  -3   24.52    1.50
  -3   5   3   22.71    1.52
   3  -5  -3   25.64    1.45
  -3  -5   3   24.44    1.50
  -2  -5   3   22.48    1.48
   2   5  -3   25.51    1.65
   2  -5  -3   22.54    1.51
  -2   5   3   25.22    1.56
   2  -5  -3   25.07    1.46
  -1  -5   3   47.48    2.83
  -1   5   3   51.10    2.87
   1   5  -3   48.94    3.01
   0  -5   3    3.66    0.40
   0   5   3    2.07    0.40
   0   5  -3    1.65    0.40
   0  -5  -3    3.75    0.37
   0  -5  -3    3.45    0.38
  -1  -5  -3    5.35    0.47
  -1  -5  -3    4.80    0.49
   1  -5   3    4.36    0.48
   1   5   3    5.54    0.56
  -1   5  -3    5.90    0.60
  -2  -5  -3   65.69    3.50
   2  -5   3   59.04    3.53
  -2   5  -3   61.13    3.71
  -2  -5  -3   61.15    3.63
   2   5   3   62.56    3.54
   3  -5   3    4.29    0.49
  -3  -5  -3    4.77    0.49
   4   5   3   26.95    1.65
  -4  -5  -3   24.30    1.59
  -4   5  -3   26.25    1.70
  -4  -5  -3   24.98    1.62
   4  -5   3   24.38    1.60
  -5   5  -3    6.06    0.66
   5   5   3    7.15    0.71
   5  -5   3    6.66    0.65
  -5  -5  -3    6.90    0.62
  -5  -5  -3    6.87    0.63
  -6  -5  -3    0.64    0.29
   6  -5   3    0.65    0.32
   6   5   3   -0.21    0.38
  -7  -5  -3   15.36    1.17
   7  -5   3   15.39    1.15
  -7  -5  -3   15.24    1.10
   8  -5   3    1.86    0.46
  -8  -5  -3    1.82    0.47
   9  -5   3    3.40    0.59
  -9  -5  -3    3.59    0.65
 -10  -5  -3    2.12    0.56
  10  -5   3    2.03    0.52
 -12   6   3    0.29    0.43
  12   6  -3    0.70    0.55
  12  -6  -3    1.39    0.50
 -11   6   3    2.24    0.55
  11  -6  -3    2.09    0.54
 -10   6   3   -0.11    0.32
  10  -6  -3    0.05    0.33
 -10  -6   3    0.11    0.41
  -9  -6   3    3.39    0.65
   9  -6  -3    3.29    0.54
  -9   6   3    2.40    0.52
  -8  -6   3   10.89    1.05
   8   6  -3   13.64    1.10
   8  -6  -3   10.00    0.93
  -8   6   3   13.47    1.03
   7  -6  -3    2.98    0.47
  -7   6   3    2.38    0.48
  -7  -6   3    2.54    0.51
   7   6  -3    2.30    0.54
  -6   6   3    5.95    0.65
   6   6  -3    5.50    0.72
  -6  -6   3    5.96    0.66
   6  -6  -3    5.55    0.57
   5  -6  -3    2.16    0.38
  -5   6   3    2.18    0.42
   5   6  -3    3.36    0.57
  -5  -6   3    2.01    0.44
  -4   6   3   16.38    1.25
   4  -6  -3   18.90    1.22
  -4  -6   3   21.26    1.31
   4   6  -3   16.16    1.36
   4  -6  -3   19.85    1.21
  -3   6   3   17.31    1.22
   3  -6  -3   17.15    1.16
  -3  -6   3   17.39    1.19
   3   6  -3   17.33    1.32
   2  -6  -3   12.55    0.86
   2  -6  -3   12.50    0.89
   2   6  -3   12.09    1.02
  -2  -6   3   11.77    0.89
  -2   6   3   12.12    0.95
   1  -6  -3    7.60    0.67
   1   6  -3    7.51    0.78
   1  -6  -3    8.01    0.64
  -1  -6   3    8.28    0.69
  -1   6   3    8.06    0.73
   0   6   3   18.15    1.18
   0  -6  -3   15.32    1.05
   0  -6  -3   14.98    1.11
   0  -6   3   14.24    1.08
   0   6  -3   17.64    1.25
  -1  -6  -3   25.09    1.51
   1  -6   3   22.64    1.45
   1   6   3   20.54    1.47
  -1   6  -3   19.58    1.56
  -1  -6  -3   25.89    1.44
  -2  -6  -3    4.85    0.51
  -2   6  -3    6.53    0.67
   2   6   3    6.03    0.61
  -2  -6  -3    4.27    0.52
   2  -6   3    4.70    0.53
  -3  -6  -3    1.67    0.36
   3   6   3    1.00    0.38
  -3   6  -3    0.97    0.38
   3  -6   3    1.55    0.36
   4   6   3    4.05    0.57
  -4  -6  -3    4.27    0.51
   4  -6   3    3.38    0.49
  -4   6  -3    4.72    0.59
  -5   6  -3    9.44    0.84
   5  -6   3    7.56    0.75
  -5  -6  -3    7.97    0.74
   5   6   3    9.78    0.86
   6  -6   3    7.89    0.75
   6   6   3    7.54    0.83
  -6  -6  -3    7.35    0.69
   7  -6   3    4.41    0.62
   7   6   3    4.21    0.71
  -7  -6  -3    4.74    0.56
   8  -6   3    1.56    0.48
   8   6   3    0.93    0.52
   9  -6   3    2.69    0.57
  11  -7  -3    2.99    0.63
 -11  -7   3    3.68    0.74
  10  -7  -3    0.61    0.42
 -10  -7   3    0.96    0.52
   9  -7  -3    7.53    0.79
  -9  -7   3    7.78    0.93
   8   7  -3    3.42    0.66
  -8  -7   3    3.43    0.64
   8  -7  -3    2.93    0.53
   7   7  -3    2.41    0.58
  -7  -7   3    2.52    0.57
   7  -7  -3    3.09    0.50
  -6  -7   3    9.96    0.91
   6   7  -3    9.16    0.98
  -6   7   3    9.71    0.95
   6  -7  -3    9.50    0.81
  -5   7   3    4.26    0.61
   5  -7  -3    4.75    0.54
  -5  -7   3    5.33    0.65
   5   7  -3    5.10    0.75
   4   7  -3    3.07    0.60
   4  -7  -3    2.13    0.40
  -4   7   3    2.18    0.50
  -4  -7   3    2.31    0.48
   3   7  -3    1.97    0.53
   3  -7  -3    2.24    0.40
   3  -7  -3    2.29    0.39
  -3  -7   3    2.84    0.47
  -2  -7   3   14.07    1.03
   2  -7  -3   15.69    1.00
   2  -7  -3   13.79    1.01
   2   7  -3   11.59    1.13
   1  -7  -3    7.29    0.69
  -1  -7   3    7.96    0.70
   1   7  -3    7.25    0.81
   1  -7  -3    7.73    0.66
   0  -7  -3    4.05    0.51
   0  -7   3    3.71    0.51
   0  -7  -3    4.25    0.49
   0   7  -3    4.58    0.63
  -1  -7  -3    1.74    0.39
   1  -7   3    1.61    0.38
  -1   7  -3    2.17    0.49
  -2   7  -3    3.09    0.58
   2  -7   3    3.75    0.49
  -2  -7  -3    3.23    0.48
   3  -7   3   17.50    1.34
  -3  -7  -3   19.61    1.39
  -3   7  -3   23.00    1.55
  -4  -7  -3    6.79    0.66
  -4   7  -3    5.12    0.70
   4  -7   3    5.92    0.64
   5  -7   3    3.03    0.52
  -5  -7  -3    3.07    0.51
  -6  -7  -3    2.70    0.49
   6  -7   3    3.39    0.56
  -7  -7  -3    2.98    0.50
   7  -7   3    2.95    0.57
   8  -7   3    3.40    0.63
  -9  -8   3    0.57    0.53
   9  -8  -3    0.47    0.39
   8   8  -3    6.15    0.85
  -8  -8   3    7.08    0.87
   8  -8  -3    5.93    0.72
   7   8  -3    2.35    0.62
   7  -8  -3    2.53    0.49
  -7  -8   3    2.31    0.60
   6   8  -3    3.07    0.68
   6  -8  -3    4.06    0.57
  -6  -8   3    4.39    0.68
  -5   8   3    8.14    0.94
  -5  -8   3    8.29    0.85
   5  -8  -3    7.77    0.74
   5   8  -3    7.44    0.91
  -4   8   3    0.55    0.41
   4   8  -3    0.13    0.41
   4  -8  -3    1.21    0.37
  -4  -8   3    1.28    0.44
  -3   8   3    7.76    0.86
  -3  -8   3    6.67    0.73
   3  -8  -3    7.05    0.68
   3   8  -3    6.36    0.82
  -2   8   3    1.81    0.54
  -2  -8   3    1.45    0.41
   2   8  -3    1.60    0.52
  -1  -8   3    2.22    0.47
   1   8  -3    1.85    0.53
   0  -8   3    7.25    0.72
   0   8  -3    6.70    0.82
   0  -8  -3    7.08    0.69
  -1   8  -3    2.59    0.59
  -1  -8  -3    1.76    0.42
   1  -8   3    1.75    0.43
  -2  -8  -3    6.12    0.64
   2  -8   3    5.91    0.64
  -2   8  -3    5.00    0.73
  -3   8  -3    0.31    0.39
   3  -8   3   -0.03    0.30
  -3  -8  -3    0.22    0.33
  -4   8  -3    2.31    0.57
  -4  -8  -3    3.22    0.53
   4  -8   3    3.22    0.54
   5  -8   3    2.42    0.51
   6  -8   3    1.80    0.50
   7   8   3   -0.03    0.42
   8   9  -3    2.23    0.66
   8  -9  -3    2.58    0.55
   7  -9  -3    0.51    0.37
   7   9  -3    0.26    0.48
  -7  -9   3    0.65    0.47
  -6  -9   3    0.91    0.48
   6   9  -3    0.91    0.53
  -5   9   3    3.10    0.66
   5   9  -3    2.90    0.70
  -5  -9   3    2.98    0.61
  -4   9   3    0.28    0.46
  -4  -9   3    0.14    0.38
   4   9  -3    0.66    0.50
   3   9  -3   -0.23    0.38
  -3  -9   3    0.15    0.36
  -3   9   3   -0.16    0.37
  -2   9   3    1.77    0.57
   2   9  -3    1.62    0.57
  -2  -9   3    1.91    0.50
   1   9  -3    4.28    0.78
  -1   9   3    6.61    0.91
  -1  -9   3    5.33    0.66
   0   9   3    1.67    0.63
   0  -9   3    1.92    0.48
   0   9  -3    2.04    0.60
   1   9   3   -0.28    0.42
   1  -9   3    0.06    0.36
  -1   9  -3    0.37    0.43
  -2   9  -3    3.70    0.70
   2   9   3    2.35    0.70
   2  -9   3    2.62    0.54
   3  -9   3    2.62    0.54
   3   9   3    1.88    0.67
  -3   9  -3    2.46    0.62
  -4   9  -3    0.51    0.43
   4  -9   3    0.34    0.38
   4   9   3    0.94    0.56
   5   9   3    1.07    0.61
  -5  10   3    0.83    0.50
  -4  10   3    1.23    0.55
  -3 -10   3    0.27    0.42
  -3  10   3    0.31    0.46
  -2 -10   3    0.76    0.46
  -1 -10   3    0.37    0.41
 -14   0   4    8.88    0.93
  14   0  -4    8.31    0.87
  13   0  -4    1.08    0.43
 -13   0   4    0.98    0.45
  12   0  -4    9.82    0.88
 -12   0   4    9.78    0.92
 -11   0   4    7.46    0.77
  11   0  -4    6.83    0.71
  10   0  -4    0.83    0.35
 -10   0   4    0.93    0.38
  -9   0   4   12.85    0.97
   9   0  -4   12.19    0.93
  -8   0   4    2.18    0.40
   8   0  -4    2.50    0.39
   7   0  -4    0.34    0.21
  -7   0   4    0.20    0.22
   7   0  -4    0.14    0.09
   6   0  -4   16.65    1.13
   6   0  -4   18.94    1.09
  -6   0   4   17.90    1.16
   5   0  -4   29.24    1.61
   5   0  -4   25.76    1.59
  -5   0   4   25.88    1.61
  -4   0   4  158.14    8.77
  -4   0   4  156.17    8.69
   4   0  -4  166.16    9.01
   3   0  -4   72.01    4.18
  -3   0   4   74.78    4.05
  -3   0   4   73.14    4.05
  -2   0   4   96.64    5.19
  -2   0   4   96.47    5.18
   2   0  -4   91.45    5.39
   1   0  -4  318.74   18.68
  -1   0   4  340.12   18.11
  -1   0   4  343.78   17.93
   0   0   4   38.25    2.10
   0   0   4   38.31    2.06
   0   0  -4   35.23    2.20
  -1   0  -4    8.45    0.56
   1   0   4    8.13    0.50
  -1   0  -4    7.95    0.60
  -2   0  -4   40.14    2.49
  -2   0  -4   42.23    2.40
   2   0   4   44.64    2.37
  -3   0  -4  102.95    5.77
  -3   0  -4  100.84    5.56
   3   0   4   99.69    5.56
  -4   0  -4   13.00    0.89
  -4   0  -4   12.86    0.91
   4   0   4   13.53    0.85
  -5   0  -4   15.71    0.97
  -5   0  -4   13.18    0.99
   5   0   4   13.80    0.94
  -6   0  -4    0.29    0.28
   6   0   4    0.86    0.27
   7   0   4    2.28    0.39
  -7   0  -4    2.95    0.50
   8   0   4   10.32    0.84
  -8   0  -4   10.46    0.92
  -9   0  -4   10.26    0.95
   9   0   4    9.92    0.85
  10   0   4    0.08    0.32
 -10   0  -4    0.00    0.38
 -11   0  -4    0.19    0.41
  11   0   4    0.13    0.34
  14   1  -4    1.41    0.49
 -14   1   4    1.73    0.52
  14  -1  -4    1.78    0.51
 -14  -1   4    2.02    0.52
 -13   1   4    3.69    0.65
  13   1  -4    2.54    0.55
  13  -1  -4    3.33    0.59
 -13  -1   4    3.73    0.63
 -12  -1   4    6.61    0.78
 -12   1   4    9.90    0.89
  12   1  -4    9.37    0.82
  12  -1  -4    6.08    0.74
 -11  -1   4    8.62    0.80
  11   1  -4    7.08    0.74
 -11   1   4    7.66    0.80
  11  -1  -4    8.23    0.76
 -10  -1   4   16.26    1.23
  10   1  -4   18.96    1.25
 -10   1   4   18.30    1.27
  10  -1  -4   15.05    1.20
   9  -1  -4    1.20    0.33
  -9  -1   4    0.89    0.34
   9   1  -4    1.20    0.33
  -9   1   4    0.96    0.36
   8   1  -4   39.34    2.36
  -8   1   4   39.27    2.37
  -6  -1   4  144.79    7.62
   6   1  -4  136.17    7.85
   6  -1  -4  147.27    7.82
  -6   1   4  134.17    7.65
  -6   1   4  133.95    7.65
   6  -1  -4  143.18    7.70
  -6  -1   4  136.97    7.73
  -5  -1   4   55.09    3.22
   5   1  -4   59.36    3.31
  -5   1   4   60.01    3.28
   5  -1  -4   60.54    3.28
  -5  -1   4   53.63    3.26
   5  -1  -4   56.28    3.23
  -4   1   4    4.39    0.42
  -4  -1   4    2.88    0.33
   4  -1  -4    3.19    0.30
   4   1  -4    4.43    0.34
  -4  -1   4    3.17    0.34
   4  -1  -4    2.99    0.30
   3   1  -4  113.28    6.37
  -3  -1   4  112.88    6.12
  -3   1   4  116.63    6.18
  -3  -1   4  106.92    6.16
   3  -1  -4  114.48    6.36
   3  -1  -4  111.07    6.15
  -2  -1   4  190.50   10.30
   2   1  -4  183.16   10.64
  -2  -1   4  190.41   10.20
   2  -1  -4  183.34   10.63
  -2   1   4  199.70   10.26
   1   1  -4   29.71    1.73
  -1   1   4   31.63    1.68
   1  -1  -4   25.48    1.70
  -1  -1   4   27.86    1.62
  -1  -1   4   28.44    1.61
   0  -1   4   72.44    3.72
   0   1   4   66.34    3.75
   0   1  -4   63.52    3.91
   0  -1   4   72.26    3.74
   0  -1  -4   64.86    3.90
  -1   1  -4   31.02    1.75
   1   1   4   32.11    1.70
  -1  -1  -4   29.54    1.85
   1  -1   4   30.21    1.74
   1   1   4   30.89    1.79
  -1   1  -4   30.85    1.86
   2  -1   4   76.40    4.31
   2   1   4   82.33    4.28
  -2  -1  -4   75.44    4.31
  -2  -1  -4   76.38    4.48
  -2   1  -4   74.88    4.49
  -2   1  -4   82.98    4.30
  -3  -1  -4   39.00    2.24
   3  -1   4   38.86    2.20
  -3   1  -4   38.47    2.31
  -3  -1  -4   38.16    2.29
  -3   1  -4   39.01    2.23
   3   1   4   38.06    2.18
  -4   1  -4    1.50    0.30
   4  -1   4    1.53    0.27
  -4  -1  -4    2.04    0.30
  -4  -1  -4    1.32    0.30
  -4   1  -4    2.16    0.31
   4   1   4    1.93    0.27
  -5  -1  -4    8.72    0.65
   5  -1   4    7.65    0.65
   5   1   4   10.20    0.66
  -5  -1  -4    8.18    0.71
  -6  -1  -4   20.30    1.21
   6   1   4   17.37    1.19
   6  -1   4   18.98    1.22
  -6  -1  -4   19.30    1.29
  -6   1  -4   17.61    1.27
  -7  -1  -4    8.33    0.79
   7   1   4    8.60    0.69
   7  -1   4    8.04    0.72
  -7   1  -4    9.52    0.82
  -8   1  -4    1.21    0.43
   8   1   4    0.84    0.33
   8  -1   4    1.51    0.38
  -8  -1  -4    2.31    0.50
   9  -1   4    3.50    0.53
   9   1   4    2.84    0.47
  -9   1  -4    3.51    0.63
  -9  -1  -4    3.92    0.63
  10   1   4    2.80    0.49
 -10   1  -4    3.67    0.64
 -10  -1  -4    1.75    0.54
  10  -1   4    1.94    0.48
 -11  -1  -4    2.89    0.65
 -11   1  -4    2.55    0.63
  11  -1   4    3.40    0.58
  12  -1   4    0.47    0.41
 -14  -2   4    0.83    0.43
  14  -2  -4    0.89    0.46
 -14   2   4    0.62    0.45
  14   2  -4    0.73    0.46
 -13  -2   4    2.15    0.51
  13  -2  -4    2.18    0.52
  13   2  -4    3.16    0.58
 -13   2   4    2.37    0.58
  12  -2  -4    4.00    0.58
  12   2  -4    2.21    0.52
 -12   2   4    3.82    0.64
 -12  -2   4    3.21    0.58
 -11  -2   4    6.22    0.67
 -11   2   4    5.34    0.70
  11   2  -4    5.41    0.66
  11  -2  -4    6.42    0.69
 -10  -2   4    3.02    0.51
  10   2  -4    4.75    0.56
  10  -2  -4    2.18    0.46
 -10   2   4    4.90    0.60
  -9   2   4   26.42    1.92
  -9  -2   4   33.97    1.92
   9  -2  -4   32.47    1.93
   9   2  -4   28.83    1.91
   8  -2  -4   20.00    1.36
  -8  -2   4   19.95    1.36
  -8   2   4   23.12    1.44
  -7  -2   4    1.57    0.35
   7   2  -4    1.07    0.23
  -7   2   4    0.84    0.32
   7  -2  -4    1.37    0.30
   7  -2  -4    1.63    0.19
  -7  -2   4    1.28    0.30
   6   2  -4   23.52    1.44
  -6   2   4   22.11    1.48
   6  -2  -4   23.61    1.43
  -6  -2   4   23.93    1.41
  -6  -2   4   21.85    1.46
   6  -2  -4   24.20    1.37
  -5   2   4   86.68    5.05
   5  -2  -4   94.06    5.13
   5  -2  -4   94.53    5.03
  -5  -2   4   91.20    5.06
   5   2  -4   84.00    5.18
  -5  -2   4   93.89    4.97
  -4  -2   4   31.07    1.94
   4  -2  -4   32.92    1.96
  -4  -2   4   33.20    1.90
   4   2  -4   38.19    2.04
   4  -2  -4   32.53    1.91
  -3  -2   4   15.20    0.89
   3  -2  -4   14.68    0.94
  -3  -2   4   14.69    0.92
   3  -2  -4   15.01    0.88
  -2  -2   4   29.38    1.64
   2   2  -4   26.38    1.73
  -2  -2   4   28.96    1.60
   2  -2  -4   30.10    1.70
  -2   2   4   25.96    1.69
   2  -2  -4   29.52    1.58
  -1   2   4  195.89   10.40
   1   2  -4  188.31   10.82
   1  -2  -4  190.13   10.79
  -1  -2   4  192.00   10.46
  -1  -2   4  194.06   10.32
  -1  -2  -4   84.58    4.60
  -1   2  -4   78.87    4.37
   1  -2   4   78.98    4.43
   1   2   4   86.35    4.39
  -1   2  -4   76.04    4.62
   1   2   4   76.88    4.44
  -2  -2  -4   14.56    1.02
  -2   2  -4   16.60    0.98
   2  -2   4   15.26    0.98
   2   2   4   15.96    1.04
   2   2   4   16.52    0.94
  -2   2  -4   16.40    1.07
  -3  -2  -4    6.92    0.58
   4  -2   4   60.09    3.51
  -4  -2  -4   64.18    3.61
   4   2   4   64.85    3.49
  -4   2  -4   60.26    3.63
  -4   2  -4   61.38    3.51
   5  -2   4    7.54    0.58
   5   2   4    5.94    0.54
  -5   2  -4    5.61    0.57
  -5  -2  -4    7.87    0.65
  -6  -2  -4    4.90    0.55
  -6  -2  -4    4.66    0.45
  -6   2  -4    4.24    0.53
   6  -2   4    4.95    0.51
   6   2   4    3.74    0.45
   7  -2   4    0.56    0.31
   7   2   4    0.56    0.27
  -7   2  -4    0.89    0.36
  -7  -2  -4    0.63    0.33
  -8   2  -4    1.77    0.47
  -8  -2  -4    3.32    0.55
   8   2   4    1.47    0.37
   8  -2   4    2.29    0.45
  -9  -2  -4    5.62    0.71
  -9   2  -4    4.81    0.67
   9  -2   4    4.93    0.63
 -10  -2  -4    1.02    0.45
 -10   2  -4    0.85    0.44
  10  -2   4    0.46    0.39
 -11  -2  -4    1.25    0.52
 -11   2  -4    1.58    0.53
  11  -2   4    1.38    0.46
 -14   3   4    1.02    0.50
  14  -3  -4    1.12    0.50
 -14  -3   4    1.34    0.48
  14   3  -4    0.64    0.47
  13  -3  -4    0.32    0.42
 -13  -3   4    0.82    0.41
 -13   3   4    0.29    0.42
  13   3  -4    0.55    0.43
  12   3  -4   13.50    1.19
 -12   3   4   15.54    1.27
  12  -3  -4   15.45    1.21
 -12  -3   4   16.39    1.23
 -11   3   4   10.38    0.94
 -11  -3   4    8.30    0.83
  11   3  -4   11.29    0.94
  11  -3  -4    8.86    0.86
 -10  -3   4   10.68    0.85
  10  -3  -4    8.19    0.81
  10   3  -4   10.38    0.89
 -10   3   4    9.22    0.88
  -9  -3   4    4.38    0.61
  -9   3   4    4.55    0.61
  -9  -3   4    4.03    0.50
   9  -3  -4    4.76    0.55
  -8  -3   4    0.93    0.28
  -8  -3   4    1.00    0.38
   8  -3  -4    1.18    0.33
  -8   3   4    1.59    0.41
   8   3  -4    2.40    0.35
  -7   3   4   76.47    4.48
  -7  -3   4   75.25    4.50
   7  -3  -4   78.09    4.45
   7  -3  -4   79.56    4.46
  -7  -3   4   80.05    4.38
   7   3  -4   82.76    4.58
  -6  -3   4    1.67    0.26
   6  -3  -4    1.34    0.29
   5   3  -4   31.80    1.88
   5  -3  -4   29.70    1.77
  -5  -3   4   29.42    1.72
  -5  -3   4   28.09    1.80
  -5   3   4   31.29    1.87
   5  -3  -4   30.09    1.78
  -4   3   4   26.99    1.55
   4  -3  -4   23.60    1.45
   4  -3  -4   22.62    1.39
  -4  -3   4   23.62    1.36
  -4  -3   4   22.32    1.44
   3  -3  -4   80.48    4.33
  -3  -3   4   78.43    4.38
  -3  -3   4   80.64    4.25
   3   3  -4   75.00    4.55
   3  -3  -4   83.08    4.50
  -3   3   4   74.38    4.41
   2  -3  -4  106.21    6.00
  -2  -3   4  104.65    5.83
   2  -3  -4  112.34    5.78
  -2   3   4  102.49    5.84
   2   3  -4  102.83    6.06
  -1  -3   4   57.21    3.41
   1  -3  -4   59.76    3.53
  -1   3   4   62.50    3.46
   1  -3  -4   63.33    3.36
   1   3  -4   62.71    3.60
   0  -3   4   11.63    0.71
   0   3   4   10.43    0.83
   0  -3  -4   12.76    0.83
   0   3  -4   11.36    0.86
   0  -3  -4   12.72    0.71
   0  -3   4   12.59    0.79
   1  -3   4   10.71    0.80
  -1   3  -4   13.47    0.92
   1   3   4   13.54    0.89
  -1  -3  -4   11.54    0.75
  -1   3  -4   13.25    0.76
  -2   3  -4   75.26    4.08
   2  -3   4   72.06    4.14
  -2   3  -4   73.37    4.32
  -2  -3  -4   78.65    4.29
   2   3   4   71.51    4.15
   3   3   4    6.68    0.50
  -3   3  -4    6.63    0.53
  -3   3  -4    6.49    0.60
   3   3   4    5.57    0.60
  -3  -3  -4    8.05    0.59
   3  -3   4    6.66    0.56
  -4   3  -4    0.20    0.22
   4  -3   4    0.05    0.22
  -4   3  -4    0.31    0.22
  -4  -3  -4    0.14    0.23
  -4  -3  -4    0.40    0.23
   4   3   4    0.46    0.19
  -5  -3  -4   11.59    0.82
  -5   3  -4   10.70    0.86
  -5  -3  -4   11.84    0.88
   5   3   4   10.25    0.77
  -5   3  -4   10.03    0.82
   5  -3   4   11.67    0.83
   6  -3   4    5.26    0.52
  -6   3  -4    3.83    0.51
  -6  -3  -4    3.30    0.44
   6   3   4    3.34    0.45
  -6  -3  -4    5.53    0.57
  -7   3  -4   20.74    1.44
   7  -3   4   20.14    1.38
  -7  -3  -4   21.40    1.46
   8  -3   4    0.22    0.31
  -8  -3  -4    0.18    0.34
  -8   3  -4    0.03    0.32
   9  -3   4    2.01    0.47
  -9   3  -4    4.09    0.63
  -9  -3  -4    2.42    0.56
 -10  -3  -4    6.68    0.79
 -10   3  -4    5.49    0.75
  10  -3   4    5.53    0.68
  11  -3   4    0.19    0.39
 -11  -3  -4    0.79    0.47
 -11   3  -4    0.02    0.42
  13  -4  -4    3.20    0.64
 -13   4   4    3.42    0.67
  13   4  -4    3.54    0.67
  12  -4  -4    4.29    0.66
  12   4  -4    5.02    0.72
 -12   4   4    5.03    0.71
  11  -4  -4    3.08    0.57
 -11   4   4    3.27    0.59
  11   4  -4    2.59    0.57
 -11  -4   4    3.22    0.53
 -10  -4   4    5.60    0.61
  10  -4  -4    5.37    0.63
 -10  -4   4    5.65    0.72
 -10   4   4    5.28    0.67
  -9   4   4    9.65    0.87
  -9  -4   4    9.18    0.76
  -9  -4   4    9.31    0.89
   9  -4  -4    9.33    0.81
   8   4  -4   20.56    1.41
  -8  -4   4   20.81    1.32
  -8   4   4   19.68    1.42
  -8  -4   4   21.60    1.46
   8  -4  -4   19.97    1.36
   7  -4  -4    2.13    0.37
   7   4  -4    2.31    0.42
  -7   4   4    1.80    0.44
  -7  -4   4    1.98    0.43
  -7  -4   4    1.52    0.29
  -6  -4   4   22.70    1.46
   6  -4  -4   22.34    1.37
   6  -4  -4   22.80    1.41
   6   4  -4   21.68    1.50
  -6  -4   4   22.27    1.33
  -5   4   4    9.73    0.79
   5  -4  -4    8.31    0.63
   5   4  -4    9.25    0.76
  -5  -4   4    8.45    0.70
   5  -4  -4    8.25    0.64
   4  -4  -4   66.74    3.87
   4  -4  -4   67.69    3.76
  -4  -4   4   67.20    3.82
  -3   4   4   53.97    3.03
   3  -4  -4   52.05    3.02
  -3  -4   4   48.31    2.95
   3  -4  -4   52.26    2.90
   2  -4  -4   10.26    0.66
   2  -4  -4   10.24    0.73
   2   4  -4    9.88    0.81
  -2   4   4   10.11    0.82
  -2  -4   4    9.93    0.72
   1  -4  -4   32.90    1.96
  -1  -4   4   31.28    1.89
   0  -4   4   75.40    4.52
   0  -4  -4   81.24    4.46
   0   4   4   86.08    4.55
   0  -4  -4   75.70    4.66
   0   4  -4   86.85    4.76
  -1   4  -4   10.57    0.92
  -1  -4  -4   13.64    0.90
   1   4   4   11.11    0.88
   1  -4   4   13.91    0.86
  -2  -4  -4    8.26    0.56
   2  -4   4    6.91    0.59
  -2   4  -4    7.17    0.52
   2   4   4    7.35    0.67
  -2   4  -4    7.43    0.68
  -3   4  -4   22.51    1.39
   3   4   4   20.27    1.33
  -3  -4  -4   18.93    1.23
   3  -4   4   17.52    1.25
   4  -4   4   17.47    1.09
   4   4   4   13.64    1.10
  -4   4  -4   14.64    1.03
  -4  -4  -4   17.66    1.10
  -4   4  -4   14.54    1.13
  -5  -4  -4    2.77    0.44
  -5   4  -4    4.73    0.53
  -5   4  -4    5.12    0.51
   5  -4   4    2.68    0.44
  -6   4  -4    4.74    0.58
  -6  -4  -4    5.98    0.64
   6  -4   4    5.38    0.59
  -6  -4  -4    6.19    0.56
  -7   4  -4    6.62    0.67
   7  -4   4    5.11    0.60
  -7  -4  -4    4.62    0.64
  -8   4  -4    4.27    0.60
   8  -4   4    4.24    0.59
  -8  -4  -4    4.20    0.63
  -9  -4  -4    2.27    0.54
  -9   4  -4    2.38    0.53
   9  -4   4    1.70    0.47
 -10   4  -4    3.30    0.63
  10  -4   4    3.64    0.62
 -10  -4  -4    3.51    0.67
  13   5  -4   -0.02    0.49
 -13   5   4   -0.08    0.38
  13  -5  -4   -0.14    0.38
  12  -5  -4    1.50    0.48
  12   5  -4    1.53    0.58
 -12   5   4    1.16    0.47
  11  -5  -4    8.81    0.88
 -11   5   4    9.22    0.90
  10  -5  -4    1.45    0.44
 -10   5   4    2.10    0.51
 -10  -5   4    1.97    0.55
  -9   5   4    2.12    0.51
   9  -5  -4    3.37    0.52
  -9  -5   4    3.48    0.61
  -8   5   4   37.64    2.54
  -8  -5   4   43.16    2.61
   8  -5  -4   43.49    2.52
   8   5  -4   41.90    2.63
  -7  -5   4    1.71    0.45
   7  -5  -4    2.75    0.41
   7   5  -4    2.00    0.44
  -7   5   4    2.13    0.47
  -6   5   4   31.07    2.04
  -6  -5   4   34.97    2.05
   6   5  -4   31.76    2.13
   6  -5  -4   32.69    1.97
   6  -5  -4   32.38    1.97
  -5  -5   4   10.51    0.84
   5  -5  -4    9.14    0.74
   5   5  -4   11.79    0.93
   5  -5  -4   10.66    0.77
  -4   5   4    4.08    0.52
   4  -5  -4    2.10    0.35
   4  -5  -4    3.07    0.36
   4   5  -4    4.01    0.53
  -4  -5   4    2.50    0.42
   3  -5  -4   21.73    1.32
   2  -5  -4   19.55    1.18
  -2   5   4   15.39    1.21
  -2  -5   4   17.64    1.15
   2   5  -4   17.35    1.27
  -1  -5   4    7.05    0.65
   1  -5  -4    8.49    0.61
  -1   5   4    9.76    0.78
   1  -5  -4    7.34    0.67
   1   5  -4    9.62    0.80
   0   5   4    2.08    0.42
   0  -5  -4    2.19    0.28
   0  -5  -4    1.28    0.31
   0   5  -4    2.37    0.43
   0  -5   4    1.37    0.31
   1   5   4   23.16    1.44
  -1  -5  -4   19.44    1.40
   1  -5   4   19.09    1.35
  -1   5  -4   23.90    1.53
  -1  -5  -4   22.84    1.32
   2  -5   4   25.51    1.45
  -2   5  -4   19.59    1.52
  -3  -5  -4    4.69    0.52
   3   5   4    5.37    0.60
   3  -5   4    4.70    0.52
  -3   5  -4    5.20    0.59
   4   5   4    7.37    0.74
  -4   5  -4    7.01    0.71
  -4  -5  -4    7.91    0.67
   4  -5   4    6.31    0.64
   5   5   4    4.33    0.65
  -5  -5  -4    4.91    0.53
   5  -5   4    5.13    0.56
  -5   5  -4    2.86    0.52
   6  -5   4    7.51    0.73
   6   5   4    6.59    0.79
  -6  -5  -4    8.14    0.70
   7   5   4    2.41    0.63
   7  -5   4    1.92    0.46
   8  -5   4    4.53    0.62
  -9  -5  -4    5.81    0.76
   9  -5   4    4.86    0.69
 -10  -5  -4    0.29    0.43
 -12   6   4    0.59    0.43
  12   6  -4    1.15    0.61
  12  -6  -4    1.12    0.46
 -11   6   4    3.92    0.66
  11  -6  -4    5.30    0.71
 -11  -6   4    5.26    0.81
  10  -6  -4    4.95    0.66
 -10  -6   4    5.01    0.79
 -10   6   4    5.42    0.67
   9  -6  -4    6.20    0.69
  -9   6   4    4.77    0.68
  -9  -6   4    7.00    0.82
  -8  -6   4   11.38    1.00
   8   6  -4   10.40    1.01
   8  -6  -4   11.42    0.91
  -8   6   4   10.18    0.95
   7   6  -4    0.74    0.41
  -7  -6   4    0.86    0.42
  -7   6   4    0.75    0.38
   7  -6  -4    0.33    0.29
   6   6  -4    4.15    0.66
   6  -6  -4    4.69    0.48
  -6  -6   4    5.71    0.63
  -6   6   4    3.45    0.58
   6  -6  -4    5.35    0.54
   5  -6  -4    6.39    0.59
  -5   6   4    7.92    0.76
   5   6  -4    7.86    0.79
  -5  -6   4    6.84    0.70
   5  -6  -4    6.15    0.60
  -4  -6   4   14.09    1.01
   4  -6  -4   14.11    0.96
   4   6  -4   11.83    1.09
   3   6  -4   15.54    1.29
   3  -6  -4   17.84    1.18
  -3  -6   4   18.34    1.19
  -2  -6   4    9.44    0.75
   2  -6  -4    9.49    0.74
  -2   6   4    7.85    0.79
   2  -6  -4    9.21    0.69
   2   6  -4    8.34    0.84
   1   6  -4   13.17    1.02
   1  -6  -4    9.45    0.77
   1  -6  -4    9.21    0.83
  -1   6   4   12.69    0.96
   0   6  -4   49.93    3.12
  -1  -6  -4    3.46    0.49
   1  -6   4    3.08    0.47
  -1   6  -4    5.54    0.63
   1   6   4    4.56    0.59
  -2   6  -4   10.18    0.86
   2  -6   4    7.24    0.70
   2   6   4    8.78    0.79
  -2  -6  -4    7.88    0.73
  -3   6  -4    5.89    0.69
   3   6   4    4.91    0.64
  -3  -6  -4    7.19    0.65
   3  -6   4    6.31    0.61
  -4  -6  -4    7.05    0.68
   4   6   4    7.49    0.77
   4  -6   4    6.72    0.68
  -4   6  -4    7.93    0.79
   5   6   4    1.97    0.56
  -5  -6  -4    1.45    0.40
   5  -6   4    1.37    0.40
   6  -6   4    4.74    0.61
   6   6   4    4.81    0.75
  -6  -6  -4    5.17    0.59
   7   6   4    6.82    0.87
   7  -6   4    6.58    0.74
   8   6   4    1.36    0.59
   8  -6   4    1.41    0.50
   9   6   4    0.87    0.63
 -11  -7   4    1.15    0.56
  11  -7  -4    0.68    0.44
  10  -7  -4    7.13    0.82
 -10  -7   4    7.87    0.96
   9  -7  -4    0.18    0.34
  -9  -7   4    0.72    0.49
  -8  -7   4    8.81    0.91
   8   7  -4    5.93    0.83
   8  -7  -4    8.11    0.77
  -7  -7   4   11.22    1.00
   7   7  -4   10.76    1.06
   7  -7  -4   10.72    0.89
  -6   7   4    0.81    0.37
  -6  -7   4    0.83    0.41
   6  -7  -4    0.65    0.32
   6   7  -4    0.40    0.42
   5  -7  -4   10.42    0.80
   5   7  -4    9.96    1.00
  -5  -7   4    9.89    0.89
   5  -7  -4    9.40    0.78
   4   7  -4   18.14    1.38
   4  -7  -4   15.58    1.15
   4  -7  -4   16.04    1.12
  -4  -7   4   16.08    1.20
   3   7  -4    2.25    0.53
   3  -7  -4    1.77    0.38
  -3  -7   4    1.77    0.42
   2  -7  -4   17.07    1.16
   2   7  -4   14.32    1.26
  -2  -7   4   16.18    1.14
  -1  -7   4    0.55    0.32
   1  -7  -4    0.54    0.31
   1   7  -4    0.37    0.36
   0   7  -4    2.10    0.51
   0  -7  -4    2.28    0.44
   0  -7   4    2.25    0.43
   1  -7   4    0.97    0.35
  -1  -7  -4    1.04    0.36
  -1   7  -4    0.86    0.41
  -2   7  -4    9.13    0.87
   2  -7   4    7.13    0.71
  -2  -7  -4    7.79    0.74
  -3  -7  -4    1.40    0.39
   3  -7   4    1.48    0.38
  -3   7  -4    0.51    0.39
  -4  -7  -4    0.17    0.32
   4  -7   4   -0.19    0.28
  -4   7  -4    0.06    0.33
   5  -7   4    4.88    0.63
  -5  -7  -4    5.03    0.60
   6  -7   4    0.43    0.38
  -6  -7  -4    0.69    0.38
   7  -7   4    2.65    0.56
  10  -8  -4    6.04    0.76
   9  -8  -4    1.16    0.44
  -9  -8   4    1.16    0.58
  -8  -8   4    3.09    0.66
   8  -8  -4    2.63    0.52
   8   8  -4    2.39    0.65
   7  -8  -4    1.71    0.42
  -7  -8   4    1.76    0.54
   7   8  -4    1.56    0.56
  -6  -8   4    2.14    0.54
  -6   8   4    2.34    0.54
   6   8  -4    1.54    0.57
  -5  -8   4    3.13    0.60
   5   8  -4    2.82    0.66
  -5   8   4    2.86    0.61
  -4  -8   4    5.22    0.67
   4   8  -4    4.62    0.76
   3  -8  -4    0.25    0.30
  -3  -8   4    0.35    0.36
   3   8  -4    0.41    0.44
   2  -8  -4    1.64    0.40
   2   8  -4    2.25    0.56
  -2  -8   4    1.76    0.45
   1   8  -4    6.19    0.79
   1  -8  -4    5.97    0.66
  -1  -8   4    6.19    0.66
   0  -8   4    1.01    0.41
   0   8  -4    2.20    0.56
   0  -8  -4    1.24    0.41
   1  -8   4    4.00    0.57
  -1  -8  -4    3.91    0.58
  -1   8  -4    3.45    0.66
   2  -8   4    0.32    0.35
  -2   8  -4    0.18    0.40
  -2  -8  -4    0.46    0.36
   3  -8   4    1.50    0.44
  -3   8  -4    2.58    0.58
  -3  -8  -4    1.54    0.46
  -4   8  -4    5.27    0.74
   4  -8   4    5.42    0.67
  -4  -8  -4    5.60    0.67
  -5  -8  -4    0.61    0.38
   5  -8   4    0.26    0.38
  -6  -8  -4    0.90    0.39
   8   9  -4    0.74    0.55
   7   9  -4    2.53    0.69
  -7  -9   4    3.71    0.71
   6   9  -4    2.83    0.72
  -6  -9   4    2.87    0.63
  -5  -9   4    1.52    0.52
   5   9  -4    0.81    0.54
  -5   9   4    0.72    0.46
  -4   9   4    2.26    0.59
   4   9  -4    1.54    0.57
  -4  -9   4    1.78    0.52
  -3  -9   4    3.11    0.59
  -3   9   4    3.85    0.78
   3   9  -4    2.80    0.68
  -2   9   4    1.17    0.58
  -2  -9   4    1.87    0.48
   2   9  -4    1.01    0.50
  -1  -9   4   -0.08    0.34
   1   9  -4    0.01    0.42
   0   9  -4    0.16    0.39
   0  -9   4    0.29    0.36
   1  -9   4    2.64    0.54
  -1   9  -4    2.45    0.62
  -1  -9  -4    2.29    0.51
   2  -9   4    0.92    0.44
  -2   9  -4    1.35    0.52
  -2  -9  -4    1.18    0.45
  -3   9  -4    1.01    0.49
   3  -9   4    1.15    0.47
  -3  -9  -4    1.27    0.45
 -15   0   5    2.11    0.56
 -14   0   5    0.03    0.35
  14   0  -5    0.14    0.38
 -13   0   5    1.63    0.49
  13   0  -5    1.66    0.48
  12   0  -5    0.73    0.37
 -12   0   5    0.84    0.43
  11   0  -5   18.94    1.37
 -11   0   5   20.04    1.42
 -10   0   5   81.65    4.67
  10   0  -5   81.12    4.67
  -9   0   5    6.55    0.67
   9   0  -5    6.46    0.62
  -8   0   5    2.91    0.47
   8   0  -5    4.56    0.47
   7   0  -5   88.05    5.17
  -7   0   5   92.33    5.17
   7   0  -5   96.82    5.24
  -6   0   5    2.42    0.39
   6   0  -5    2.76    0.34
   6   0  -5    2.89    0.31
  -5   0   5  129.00    7.20
   5   0  -5  140.40    7.44
   5   0  -5  124.70    7.22
  -4   0   5    0.11    0.19
   4   0  -5    0.32    0.15
  -4   0   5    0.52    0.17
  -3   0   5    4.10    0.32
  -3   0   5    3.72    0.42
   3   0  -5    3.27    0.36
  -2   0   5  208.24   10.88
   2   0  -5  185.37   11.27
  -2   0   5  207.30   10.83
  -1   0   5  195.98   10.41
   1   0  -5  179.34   10.86
  -1   0   5  202.87   10.46
   0   0  -5   13.89    1.03
   0   0   5   16.27    1.00
   0   0   5   16.63    0.90
   1   0   5   12.37    0.72
   1   0   5   12.35    0.81
  -1   0  -5   11.05    0.84
   2   0   5   72.11    4.04
  -2   0  -5   73.70    4.25
  -2   0  -5   74.03    4.08
  -3   0  -5    6.49    0.54
  -3   0  -5    5.80    0.53
   3   0   5    6.02    0.46
   4   0   5   27.86    1.64
  -5   0  -5    0.30    0.25
  -5   0  -5    0.52    0.26
   5   0   5    0.55    0.24
  -6   0  -5    1.81    0.41
   6   0   5    1.24    0.31
  -7   0  -5    1.95    0.47
   7   0   5    1.90    0.38
  -8   0  -5    3.71    0.63
   8   0   5    3.55    0.52
  -9   0  -5    0.70    0.43
   9   0   5    0.70    0.37
 -10   0  -5    1.75    0.55
 -15  -1   5    2.27    0.58
 -14  -1   5    0.25    0.37
  14   1  -5    0.00    0.37
 -14   1   5    0.24    0.42
  14  -1  -5   -0.04    0.38
 -13   1   5    3.59    0.66
  13   1  -5    3.35    0.60
  13  -1  -5    4.63    0.66
 -13  -1   5    4.90    0.65
  12  -1  -5    3.65    0.58
 -12  -1   5    3.30    0.60
 -12   1   5    4.50    0.68
  12   1  -5    4.14    0.58
  11  -1  -5    8.44    0.80
 -11   1   5    8.34    0.85
 -11  -1   5    9.08    0.85
  11   1  -5    9.65    0.82
 -10   1   5   11.98    0.99
 -10  -1   5   11.67    0.96
  10  -1  -5   10.60    0.91
  10   1  -5   12.35    0.94
   9   1  -5   18.15    1.22
   9  -1  -5   16.97    1.20
  -9   1   5   15.83    1.23
  -9  -1   5   18.66    1.22
  -8   1   5   27.13    1.74
   7  -1  -5   26.41    1.55
   7  -1  -5   24.96    1.61
   7   1  -5   28.98    1.60
  -7   1   5   26.38    1.68
  -7  -1   5   24.12    1.61
  -6   1   5   23.35    1.58
   6  -1  -5   26.74    1.51
  -6  -1   5   24.83    1.56
   6   1  -5   24.64    1.53
   6  -1  -5   25.43    1.52
  -6  -1   5   25.17    1.54
  -5  -1   5   11.00    0.80
   5  -1  -5   10.46    0.76
  -5  -1   5   11.38    0.80
   5  -1  -5   11.38    0.78
  -5   1   5   14.09    0.90
   4  -1  -5   70.58    3.96
  -4  -1   5   72.47    3.99
   4   1  -5   69.62    4.12
  -4   1   5   69.78    4.02
   4  -1  -5   73.96    4.11
  -4  -1   5   72.97    3.98
  -3   1   5   26.11    1.66
  -3  -1   5   29.21    1.58
   3   1  -5   24.96    1.67
   3  -1  -5   28.17    1.67
   3  -1  -5   27.22    1.55
  -3  -1   5   28.81    1.62
   2   1  -5   42.12    2.69
   2  -1  -5   44.91    2.69
  -2   1   5   45.15    2.61
  -2  -1   5   50.66    2.55
  -1   1   5   32.06    1.92
  -1  -1   5   36.82    1.90
   1  -1  -5   31.08    1.98
   1   1  -5   31.79    2.00
   0   1  -5  210.15   11.82
   0  -1   5  204.92   11.29
   0  -1   5  210.13   11.39
   0   1   5  213.52   11.34
  -1   1  -5   63.88    3.96
   1  -1   5   76.10    3.78
   1   1   5   65.86    3.81
   1   1   5   66.95    3.73
  -2   1  -5   25.21    1.41
  -2  -1  -5   20.38    1.46
   2   1   5   24.34    1.34
   3  -1   5   13.15    0.83
  -3  -1  -5   12.56    0.89
  -3  -1  -5   12.77    0.90
   3   1   5   12.05    0.79
  -3   1  -5   13.35    0.88
  -3   1  -5   12.29    0.91
  -4   1  -5   18.61    1.18
  -4   1  -5   19.22    1.17
   4   1   5   18.15    1.07
  -4  -1  -5   15.60    1.14
  -4  -1  -5   14.24    1.12
  -5   1  -5    7.32    0.66
  -5  -1  -5    8.56    0.73
   5   1   5    7.28    0.61
  -5   1  -5    7.76    0.70
  -5  -1  -5    8.78    0.67
   5  -1   5    8.96    0.66
  -6  -1  -5    9.61    0.86
  -6   1  -5   10.84    0.87
   6   1   5   10.54    0.76
   6  -1   5    9.65    0.78
  -7   1  -5    5.36    0.64
  -7  -1  -5    5.31    0.65
   7   1   5    4.88    0.53
   7  -1   5    5.43    0.58
  -8   1  -5    4.96    0.69
   8  -1   5    4.50    0.58
  -8  -1  -5    5.13    0.66
  -9  -1  -5    1.89    0.52
   9  -1   5    1.60    0.44
  -9   1  -5    2.96    0.60
 -10   1  -5    2.36    0.61
 -10  -1  -5    2.82    0.63
  10  -1   5    2.75    0.53
 -11   1  -5    0.49    0.51
 -15  -2   5    2.22    0.57
  14  -2  -5    3.23    0.61
 -14  -2   5    3.44    0.63
 -14   2   5    2.78    0.63
  14   2  -5    3.12    0.61
 -13   2   5    0.38    0.42
  13  -2  -5   -0.24    0.34
 -13  -2   5    0.35    0.37
  13   2  -5    0.41    0.39
  12   2  -5    1.25    0.42
 -12   2   5    0.84    0.44
 -12  -2   5    1.06    0.40
  12  -2  -5    0.91    0.43
  11  -2  -5   13.29    1.05
 -11  -2   5   14.15    1.08
 -11   2   5   11.68    1.07
  11   2  -5   13.00    1.06
  10   2  -5   18.32    1.41
  10  -2  -5   22.37    1.43
 -10   2   5   17.80    1.44
 -10  -2   5   24.01    1.45
   9   2  -5   38.22    2.23
  -9  -2   5   35.82    2.19
  -9   2   5   36.27    2.25
   9  -2  -5   32.91    2.18
   8   2  -5    5.90    0.50
  -8   2   5    5.72    0.65
  -8  -2   5    5.21    0.55
  -7  -2   5   42.43    2.42
   7   2  -5   37.49    2.37
   6  -2  -5   93.06    5.29
  -6   2   5   97.24    5.26
  -6  -2   5   91.78    5.14
   6  -2  -5   88.98    5.19
  -6  -2   5   91.08    5.24
   6   2  -5   98.09    5.36
   5  -2  -5   40.88    2.41
  -5   2   5   43.52    2.48
   5  -2  -5   40.33    2.36
  -5  -2   5   39.92    2.35
   5   2  -5   42.89    2.47
  -5  -2   5   40.27    2.39
   4   2  -5   18.02    1.18
  -4   2   5   17.48    1.21
  -4  -2   5   16.89    1.11
  -4  -2   5   19.10    1.10
   4  -2  -5   18.25    1.07
   4  -2  -5   18.18    1.14
  -3  -2   5    7.42    0.53
   3  -2  -5    7.15    0.47
  -3  -2   5    7.48    0.54
  -2  -2   5   17.19    1.12
  -2  -2   5   18.34    1.12
   2   2  -5   20.99    1.25
   0   2  -5   69.44    4.09
   0   2   5   72.17    3.95
   0  -2   5   69.85    3.90
   0  -2  -5   70.26    4.07
   0  -2   5   69.76    3.86
  -1   2  -5   24.53    1.52
   1  -2   5   23.42    1.39
   1   2   5   22.91    1.46
  -1  -2  -5   22.49    1.48
  -1   2  -5   24.44    1.39
  -2   2  -5    6.97    0.62
  -2   2  -5    7.14    0.54
   2   2   5    7.30    0.63
   3  -2   5   49.62    2.96
  -3   2  -5   53.28    3.12
  -3  -2  -5   49.76    3.07
   3   2   5   53.49    2.91
  -3   2  -5   54.52    2.97
   4  -2   5   10.44    0.82
  -4   2  -5   13.64    0.93
  -4  -2  -5   11.05    0.88
  -4  -2  -5   11.53    0.86
  -4   2  -5   13.22    0.89
   4   2   5   12.12    0.79
  -5  -2  -5   13.16    1.05
   5  -2   5   14.65    1.00
  -5  -2  -5   15.92    1.04
  -5   2  -5   14.42    1.05
  -5   2  -5   15.57    1.08
  -6   2  -5   14.97    1.10
   6  -2   5   14.50    1.03
  -6  -2  -5   15.18    1.12
  -7  -2  -5    3.66    0.56
   7  -2   5    2.76    0.44
  -7   2  -5    2.38    0.49
  -8   2  -5    3.43    0.58
   8  -2   5    2.41    0.46
  -8  -2  -5    2.78    0.55
  -9   2  -5    0.56    0.39
  -9  -2  -5    0.96    0.45
   9  -2   5    0.72    0.37
 -10   2  -5    0.36    0.41
  10  -2   5   -0.04    0.35
 -10  -2  -5    0.66    0.46
  11  -2   5    0.59    0.41
 -11   2  -5    0.43    0.46
 -15  -3   5    0.32    0.35
  14   3  -5    1.45    0.53
 -14  -3   5    2.50    0.55
  14  -3  -5    2.52    0.59
 -14   3   5    2.23    0.60
 -13   3   5    1.88    0.56
 -13  -3   5    1.72    0.49
  13  -3  -5    1.47    0.47
  13   3  -5    1.53    0.50
  12   3  -5    6.71    0.79
 -12  -3   5    7.98    0.78
  12  -3  -5    6.60    0.75
 -12   3   5    6.69    0.80
  11   3  -5    1.06    0.43
 -11   3   5    0.91    0.44
 -11  -3   5    1.77    0.43
  11  -3  -5    1.07    0.42
  10  -3  -5    9.05    0.86
 -10   3   5   11.11    0.98
  10   3  -5   11.40    0.95
 -10  -3   5   10.71    0.87
  -9  -3   5    0.56    0.28
   9  -3  -5    0.33    0.30
  -9  -3   5    0.54    0.37
  -9   3   5    1.28    0.44
  -8  -3   5   50.63    2.98
   8   3  -5   48.69    2.96
  -8   3   5   47.77    2.98
  -8  -3   5   52.00    2.88
   8  -3  -5   48.49    2.90
   7  -3  -5   16.47    1.04
  -7  -3   5   16.57    1.09
  -7  -3   5   15.24    1.16
   7  -3  -5   15.97    1.11
   7   3  -5   18.41    1.17
  -7   3   5   17.57    1.23
   6   3  -5   38.91    2.43
   6  -3  -5   41.86    2.35
  -6   3   5   36.77    2.41
  -6  -3   5   41.54    2.29
   6  -3  -5   40.56    2.32
   5  -3  -5   92.54    4.99
  -5  -3   5   92.52    4.92
  -5   3   5   88.18    5.09
  -5  -3   5   90.17    5.05
   5  -3  -5   92.64    5.13
   5   3  -5   84.33    5.20
  -4  -3   5   53.51    2.98
  -4   3   5   55.18    3.17
   4   3  -5   58.95    3.25
   4  -3  -5   54.24    3.15
  -4  -3   5   51.56    3.08
   4  -3  -5   51.95    3.02
  -3  -3   5   50.48    2.97
  -3  -3   5   54.49    2.88
  -2   3   5    2.67    0.43
   2   3  -5    2.54    0.39
   2  -3  -5    3.75    0.27
   2  -3  -5    3.98    0.39
  -2  -3   5    2.95    0.34
  -2  -3   5    3.58    0.27
   1  -3  -5   37.48    2.39
   1   3  -5   43.49    2.47
  -1   3   5   44.60    2.39
  -1  -3   5   37.18    2.22
  -1  -3   5   38.01    2.29
   0  -3   5   92.60    4.94
   0  -3   5   94.15    4.84
   0  -3  -5   88.66    5.12
   0   3   5   84.77    4.95
   0   3  -5   84.64    5.15
   1   3   5   26.14    1.59
   1  -3   5   23.07    1.51
  -1   3  -5   26.32    1.66
  -1   3  -5   27.44    1.48
  -1  -3  -5   24.17    1.60
   2   3   5   14.39    1.06
  -2   3  -5   15.11    1.09
  -2   3  -5   14.85    0.96
   2  -3   5   16.77    1.01
  -3   3  -5   15.64    1.10
  -3  -3  -5   15.56    1.06
  -3   3  -5   15.56    1.00
   3   3   5   14.18    1.08
  -4   3  -5   12.50    0.93
  -4  -3  -5    9.59    0.84
  -4   3  -5   12.37    0.86
   4   3   5   11.97    0.95
  -5  -3  -5   10.70    0.89
  -5   3  -5   12.38    0.90
  -5   3  -5   12.20    0.87
  -5  -3  -5    9.53    0.81
   5  -3   5    9.82    0.82
  -6  -3  -5    7.35    0.64
  -6  -3  -5    5.91    0.70
  -6   3  -5    8.91    0.73
   6  -3   5    6.19    0.64
  -7  -3  -5   -0.06    0.32
   7  -3   5    0.01    0.29
  -7   3  -5   -0.16    0.30
   8  -3   5    3.52    0.55
  -8   3  -5    4.54    0.65
  -8  -3  -5    3.91    0.64
  -9   3  -5    3.44    0.63
   9  -3   5    4.55    0.60
  -9  -3  -5    4.29    0.71
 -10   3  -5    0.35    0.40
 -10  -3  -5    1.08    0.49
  10  -3   5    0.50    0.38
  13   4  -5    6.28    0.81
  13  -4  -5    4.01    0.70
 -13   4   5    6.60    0.84
  12   4  -5    2.04    0.57
  12  -4  -5    1.24    0.46
 -12   4   5    2.51    0.57
  11  -4  -5    7.41    0.74
  11   4  -5    6.04    0.78
 -11   4   5    5.62    0.75
 -10   4   5   20.48    1.44
  10  -4  -5   17.69    1.33
 -10  -4   5   18.28    1.42
  -9   4   5    1.93    0.50
  -9  -4   5    2.42    0.52
   9  -4  -5    2.28    0.44
  -8   4   5    8.57    0.84
   8  -4  -5    8.73    0.74
  -8  -4   5    8.82    0.83
  -7   4   5   17.95    1.26
   7  -4  -5   16.94    1.08
  -7  -4   5   17.10    1.20
   7   4  -5   15.19    1.19
   6   4  -5   12.63    1.00
   6  -4  -5   13.01    0.87
  -6  -4   5   12.95    0.95
   6  -4  -5   12.88    0.89
  -5  -4   5   11.31    0.82
   5   4  -5    9.19    0.85
   5  -4  -5   11.82    0.78
  -4  -4   5    1.05    0.30
   4  -4  -5    1.99    0.31
  -4   4   5    2.41    0.46
   4   4  -5    2.20    0.41
   4  -4  -5    2.51    0.30
   3  -4  -5    8.60    0.65
  -3  -4   5    7.10    0.62
   3   4  -5    7.92    0.73
   3  -4  -5    7.95    0.55
  -3   4   5    8.76    0.76
   2  -4  -5    7.23    0.64
  -2   4   5    9.23    0.76
  -2  -4   5    6.57    0.61
   2  -4  -5    7.75    0.54
   2   4  -5    9.56    0.75
  -1  -4   5   27.11    1.80
   1   4  -5   33.79    2.00
  -1   4   5   33.05    1.92
   1  -4  -5   30.27    1.73
   1  -4  -5   28.79    1.89
   0   4   5   30.57    1.82
   0  -4  -5   28.14    1.81
   0   4  -5   28.63    1.89
   1   4   5    4.39    0.54
  -1  -4  -5    5.69    0.53
   1  -4   5    5.12    0.48
  -2  -4  -5   24.61    1.54
   2   4   5   24.66    1.55
  -2   4  -5   21.92    1.57
   2  -4   5   23.39    1.47
   3   4   5   14.90    1.15
   3  -4   5   16.22    1.08
  -3  -4  -5   16.93    1.13
   4  -4   5   11.21    0.88
  -4  -4  -5   12.23    0.91
   4   4   5   11.46    0.98
  -4   4  -5   12.27    0.95
   5   4   5   15.56    1.22
  -5  -4  -5   15.89    1.13
   5  -4   5   16.29    1.13
  -6  -4  -5    6.41    0.61
   6  -4   5    5.80    0.62
   7  -4   5    4.52    0.57
   8  -4   5    1.61    0.45
  -8  -4  -5    1.58    0.50
  -9  -4  -5    0.79    0.47
   9  -4   5    0.57    0.40
  10  -4   5   -0.01    0.38
 -13   5   5    0.75    0.46
  13  -5  -5    0.37    0.42
  13   5  -5    0.03    0.49
  12   5  -5    3.35    0.71
  12  -5  -5    3.56    0.61
 -12   5   5    3.10    0.63
  11  -5  -5    0.20    0.37
 -11   5   5    0.45    0.40
 -11  -5   5    0.09    0.43
 -10   5   5    3.29    0.62
 -10  -5   5    3.94    0.67
  10  -5  -5    3.08    0.55
  -9   5   5   12.26    1.04
  -9  -5   5   11.52    1.05
   9  -5  -5   11.18    0.93
   8   5  -5    1.87    0.49
  -8   5   5    2.31    0.55
  -8  -5   5    5.07    0.63
   8  -5  -5    4.50    0.51
   7  -5  -5   15.68    1.04
  -7  -5   5   16.06    1.17
  -7   5   5   16.04    1.21
   7  -5  -5   15.50    1.08
   7   5  -5   14.66    1.19
   6   5  -5    0.47    0.34
   6  -5  -5    0.35    0.21
  -6   5   5    0.45    0.36
   6  -5  -5    0.30    0.24
  -6  -5   5    0.91    0.34
   5  -5  -5    6.86    0.54
   5   5  -5    4.22    0.64
  -5  -5   5    7.01    0.63
   5  -5  -5    6.26    0.55
   4  -5  -5   61.62    3.38
   4  -5  -5   61.34    3.52
  -4  -5   5   59.97    3.46
   4   5  -5   56.81    3.63
  -3  -5   5   -0.25    0.22
  -3   5   5    0.37    0.34
   3   5  -5    0.68    0.33
   3  -5  -5   -0.04    0.19
   3  -5  -5   -0.09    0.16
   2   5  -5   11.87    0.95
  -2  -5   5   10.54    0.81
   2  -5  -5   11.53    0.85
  -2   5   5   10.33    0.91
   1   5  -5   17.57    1.25
   1  -5  -5   16.49    1.14
  -1  -5   5   14.93    1.08
   0  -5  -5    3.37    0.44
   0   5   5    2.73    0.48
   0  -5   5    3.22    0.42
   0   5  -5    2.60    0.48
  -1  -5  -5   18.83    1.31
  -1   5  -5   20.47    1.41
   1  -5   5   18.83    1.26
  -2   5  -5    0.79    0.35
  -2  -5  -5    1.40    0.35
   2  -5   5    1.36    0.32
   2   5   5    0.72    0.36
   3   5   5    2.30    0.49
  -3   5  -5    2.54    0.47
  -3  -5  -5    1.99    0.39
   3  -5   5    2.00    0.38
   4   5   5    5.80    0.69
  -4   5  -5    5.88    0.66
  -4  -5  -5    5.24    0.59
   4  -5   5    5.79    0.60
   5  -5   5    6.70    0.70
   5   5   5    7.73    0.83
  -5  -5  -5    7.68    0.70
  -6  -5  -5    7.06    0.69
   6  -5   5    7.05    0.74
   6   5   5    8.08    0.89
   7  -5   5   -0.09    0.34
   7   5   5    0.21    0.50
   8   5   5    1.51    0.63
   8  -5   5    2.66    0.54
   9   5   5    0.56    0.62
   9  -5   5   -0.07    0.36
 -12   6   5    2.97    0.60
  12  -6  -5    2.89    0.60
 -11   6   5   -0.11    0.33
 -11  -6   5    0.77    0.53
  11  -6  -5    0.10    0.37
 -10  -6   5    9.18    0.97
  10  -6  -5    8.59    0.83
 -10   6   5    6.72    0.83
  -9  -6   5    9.02    0.94
  -9   6   5    9.41    0.91
   9  -6  -5    7.81    0.79
   8  -6  -5    0.40    0.32
  -8  -6   5    0.19    0.39
  -8   6   5    0.25    0.40
   8   6  -5    0.37    0.40
  -7   6   5    2.03    0.51
   7   6  -5    2.69    0.57
  -7  -6   5    4.77    0.61
   7  -6  -5    4.52    0.51
   6  -6  -5   21.21    1.35
   6   6  -5   20.58    1.53
  -6   6   5   19.05    1.46
   6  -6  -5   20.33    1.34
  -6  -6   5   21.10    1.44
   5  -6  -5    3.40    0.43
   5   6  -5    4.59    0.63
  -5  -6   5    3.96    0.54
  -5   6   5    4.43    0.61
   5  -6  -5    3.23    0.43
   4   6  -5    3.15    0.56
  -4  -6   5    2.64    0.46
  -4   6   5    1.85    0.46
   4  -6  -5    2.72    0.41
  -3   6   5    8.03    0.84
  -3  -6   5    8.81    0.73
   3   6  -5    8.03    0.85
   3  -6  -5    9.06    0.73
   2   6  -5   25.34    1.78
   2  -6  -5   25.58    1.65
  -2  -6   5   24.51    1.60
  -1  -6   5    8.32    0.69
   1   6  -5    6.89    0.79
   1  -6  -5    8.23    0.72
   0   6   5   -0.01    0.35
   0   6  -5    0.24    0.33
   0  -6   5    0.52    0.29
   0  -6  -5    0.76    0.31
  -1   6  -5    3.17    0.55
  -1  -6  -5    3.13    0.47
   1  -6   5    2.31    0.42
   1   6   5    1.98    0.48
  -2   6  -5    7.58    0.79
   2  -6   5    6.87    0.66
   2   6   5    6.81    0.75
  -2  -6  -5    8.26    0.73
  -3   6  -5    5.30    0.65
   3   6   5    5.39    0.67
   3  -6   5    3.95    0.53
  -3  -6  -5    3.97    0.54
   4   6   5    7.27    0.81
   4  -6   5    7.62    0.72
  -4   6  -5    7.13    0.78
  -4  -6  -5    8.23    0.75
  -5  -6  -5    1.51    0.41
   5   6   5    0.94    0.51
   5  -6   5    1.18    0.39
   6   6   5   -0.11    0.42
   6  -6   5    0.10    0.34
  -6  -6  -5    0.12    0.33
   7   6   5    5.84    0.85
   7  -6   5    7.43    0.78
   8  -6   5    1.73    0.51
   8   6   5    0.44    0.56
  11  -7  -5    2.78    0.57
 -10  -7   5   -0.40    0.45
  10  -7  -5   -0.04    0.34
  -9  -7   5    4.39    0.75
   9  -7  -5    3.21    0.56
   8   7  -5    6.82    0.83
   8  -7  -5    5.39    0.66
  -8   7   5    6.38    0.76
  -8  -7   5    5.61    0.76
  -7  -7   5    1.84    0.52
   7   7  -5    2.92    0.61
  -7   7   5    2.15    0.52
   6  -7  -5    0.18    0.25
  -6  -7   5    0.41    0.38
  -6   7   5    0.00    0.35
   6   7  -5    0.93    0.45
   5   7  -5    4.26    0.69
  -5  -7   5    3.86    0.59
   5  -7  -5    3.83    0.50
  -5   7   5    3.28    0.59
  -4  -7   5    4.08    0.57
  -4   7   5    2.21    0.53
   4   7  -5    3.43    0.64
   4  -7  -5    4.65    0.52
   3  -7  -5    3.92    0.54
  -3   7   5    5.33    0.68
   3   7  -5    6.10    0.73
  -3  -7   5    4.13    0.56
   2  -7  -5    6.97    0.67
   2   7  -5    6.82    0.79
  -2   7   5    6.11    0.76
  -2  -7   5    6.41    0.66
  -1  -7   5    1.98    0.42
   1  -7  -5    2.20    0.44
  -1   7   5    1.26    0.45
   1   7  -5    1.60    0.49
   0   7   5    4.00    0.66
   0   7  -5    5.07    0.68
   0  -7  -5    5.04    0.58
   0  -7   5    4.58    0.56
  -1  -7  -5    2.61    0.48
  -1   7  -5    4.01    0.64
   1  -7   5    2.57    0.47
  -2   7  -5    6.38    0.77
   2  -7   5    5.31    0.63
  -2  -7  -5    6.78    0.69
  -3  -7  -5    1.02    0.39
  -3   7  -5    0.77    0.43
   3  -7   5    1.06    0.38
   4  -7   5    3.94    0.58
  -4   7  -5    5.22    0.69
  -4  -7  -5    4.01    0.56
  -5  -7  -5    1.74    0.45
   5  -7   5    1.49    0.46
  -6  -7  -5    1.83    0.46
   6  -7   5    2.08    0.51
  -9  -8   5    1.40    0.59
   8   8  -5    1.82    0.59
  -8  -8   5    1.69    0.56
  -7  -8   5    0.27    0.40
   7   8  -5   -0.05    0.42
  -6   8   5    5.03    0.72
   6   8  -5    4.68    0.81
  -6  -8   5    7.07    0.77
   5   8  -5    1.64    0.55
  -5  -8   5    1.60    0.48
   5  -8  -5    1.57    0.39
   4   8  -5    1.66    0.55
  -4  -8   5    1.50    0.47
   4  -8  -5    1.72    0.41
   3   8  -5    1.01    0.49
  -3  -8   5    1.21    0.42
   3  -8  -5    1.41    0.40
   2   8  -5    1.89    0.54
   2  -8  -5    1.67    0.44
  -2  -8   5    1.91    0.46
  -1  -8   5    2.27    0.49
   1   8  -5    3.19    0.63
   1  -8  -5    2.25    0.48
   0   8  -5    2.81    0.62
   0  -8   5    3.40    0.55
   0  -8  -5    3.35    0.55
  -1  -8  -5    2.70    0.53
   1  -8   5    2.80    0.52
  -1   8  -5    2.35    0.58
  -2   8  -5    2.00    0.56
   2  -8   5    1.43    0.43
  -2  -8  -5    2.11    0.48
  -3  -8  -5    6.07    0.71
  -3   8  -5    6.99    0.83
   3  -8   5    4.99    0.66
   4  -8   5    0.13    0.36
  -4  -8  -5    0.45    0.39
  -4   8  -5   -0.31    0.33
   5  -8   5    1.22    0.47
  -5  -8  -5    0.96    0.43
  -6  -8  -5    0.07    0.37
   7   9  -5    2.28    0.68
  -6  -9   5    0.37    0.44
  -6   9   5    0.11    0.41
   6   9  -5   -0.15    0.45
  -5   9   5    3.54    0.71
  -5  -9   5    3.28    0.64
   5   9  -5    2.65    0.70
  -4  -9   5    1.41    0.52
   4   9  -5    2.14    0.65
   3  -9  -5    3.20    0.54
  -3  -9   5    2.36    0.55
   3   9  -5    1.71    0.59
  -2  -9   5    0.22    0.37
   2  -9  -5    0.14    0.35
   2   9  -5    0.05    0.42
   1  -9  -5    1.27    0.44
   1   9  -5    0.71    0.49
  -1  -9   5    0.54    0.41
   0   9  -5    0.07    0.42
   0  -9   5    0.11    0.36
   0  -9  -5    0.50    0.40
  -1  -9  -5    3.14    0.57
   1  -9   5    2.62    0.55
  -1   9  -5    2.81    0.63
  -2   9  -5    1.02    0.49
  -2  -9  -5    0.65    0.43
   2  -9   5    1.02    0.45
  -3   9  -5    0.35    0.45
  15   0  -6    2.83    0.60
 -15   0   6    3.12    0.66
  14   0  -6    0.59    0.41
 -14   0   6    0.41    0.42
  13   0  -6    7.96    0.82
 -13   0   6    8.28    0.88
 -12   0   6   -0.10    0.34
  12   0  -6    0.04    0.33
 -11   0   6    7.37    0.74
  11   0  -6    6.03    0.68
  10   0  -6    0.02    0.27
 -10   0   6    0.20    0.32
   9   0  -6    0.81    0.31
  -9   0   6    0.85    0.34
   8   0  -6   35.84    2.28
  -8   0   6   40.58    2.34
   7   0  -6    8.11    0.59
   7   0  -6    7.04    0.61
  -7   0   6    7.13    0.67
   6   0  -6   26.44    1.55
   6   0  -6   23.29    1.51
  -6   0   6   24.94    1.58
  -5   0   6    3.86    0.41
  -5   0   6    3.96    0.47
   5   0  -6    4.08    0.42
  -4   0   6   21.29    1.25
  -4   0   6   19.19    1.31
   4   0  -6   21.39    1.34
  -3   0   6   37.29    2.00
  -3   0   6   34.44    2.08
   3   0  -6   34.22    2.14
   2   0  -6  161.08    9.15
  -2   0   6  163.08    8.78
  -2   0   6  159.83    8.77
   1   0  -6    2.77    0.38
  -1   0   6    2.91    0.37
  -1   0   6    3.09    0.23
   0   0   6    4.67    0.47
   0   0   6    5.09    0.34
   0   0  -6    4.64    0.49
  -1   0  -6   21.02    1.43
   1   0   6   23.53    1.27
   1   0   6   21.45    1.37
   2   0   6   18.89    1.09
  -2   0  -6   17.60    1.23
  -3   0  -6   27.88    1.77
  -4   0  -6   33.66    2.09
   4   0   6   33.63    1.95
  -4   0  -6   33.14    2.04
   5   0   6    0.20    0.23
  -5   0  -6    0.33    0.31
  -5   0  -6    0.11    0.24
   6   0   6   14.10    1.00
  -6   0  -6   15.09    1.14
  -7   0  -6    0.17    0.35
  -8   0  -6    0.93    0.46
  -9   0  -6    1.94    0.56
 -10   0  -6    0.10    0.44
  15  -1  -6    1.72    0.54
 -15  -1   6    1.51    0.50
 -14   1   6    3.82    0.70
 -14  -1   6    5.79    0.72
  14   1  -6    3.33    0.64
  14  -1  -6    4.70    0.66
  13   1  -6    4.46    0.65
 -13   1   6    4.85    0.75
 -13  -1   6    4.87    0.68
  13  -1  -6    4.68    0.64
 -12   1   6    5.14    0.68
  12  -1  -6    5.40    0.64
 -12  -1   6    4.43    0.63
  12   1  -6    4.43    0.61
  11   1  -6    1.10    0.38
 -11   1   6    1.00    0.42
  11  -1  -6    1.20    0.40
 -11  -1   6    1.92    0.47
  10  -1  -6    2.68    0.46
  10   1  -6    3.70    0.51
 -10   1   6    3.23    0.56
 -10  -1   6    2.10    0.47
   9  -1  -6   25.54    1.63
  -9   1   6   25.04    1.69
  -9  -1   6   25.44    1.66
   9   1  -6   25.90    1.65
  -8   1   6   10.48    0.87
   8   1  -6   10.27    0.79
  -8  -1   6    8.19    0.77
   8   1  -6   10.99    0.72
   8  -1  -6    8.70    0.75
  -7  -1   6    1.00    0.31
   7  -1  -6    0.93    0.28
   7   1  -6    1.25    0.25
  -7   1   6    0.71    0.35
   7  -1  -6    0.66    0.19
  -7  -1   6    0.84    0.30
   6  -1  -6   23.29    1.41
   6  -1  -6   23.27    1.44
  -6  -1   6   21.61    1.44
  -6  -1   6   22.53    1.45
   6   1  -6   25.03    1.47
  -6   1   6   22.89    1.51
   5   1  -6   47.05    2.92
  -5  -1   6   53.94    2.85
  -5  -1   6   48.99    2.84
   5  -1  -6   52.08    2.91
   5  -1  -6   50.46    2.81
  -5   1   6   44.71    2.88
  -4  -1   6   42.69    2.23
  -4   1   6   36.46    2.30
   4   1  -6   36.64    2.33
   4  -1  -6   39.71    2.32
   4  -1  -6   38.91    2.19
  -4  -1   6   38.06    2.25
  -3   1   6    7.52    0.67
   3  -1  -6    8.09    0.64
  -3  -1   6    9.10    0.57
  -3  -1   6    9.35    0.65
   3   1  -6    7.02    0.63
  -2  -1   6   56.73    3.07
   2  -1  -6   55.28    3.22
   2   1  -6   51.57    3.22
  -2  -1   6   57.03    3.04
  -2   1   6   52.45    3.11
  -1  -1   6   13.43    0.81
   0  -1   6   27.09    1.57
   0  -1  -6   26.33    1.66
   0   1  -6   24.39    1.66
   0  -1   6   28.53    1.51
   0   1   6   24.30    1.59
  -1   1  -6   32.75    1.94
   1   1   6   31.25    1.85
   1  -1   6   27.66    1.80
   2  -1   6   12.62    0.86
  -2  -1  -6   12.69    0.98
  -2   1  -6   14.46    0.93
  -2   1  -6   13.35    0.99
   2   1   6   13.76    0.82
   2   1   6   14.42    0.99
   3  -1   6   18.62    1.06
  -3   1  -6   15.02    1.15
  -3  -1  -6   18.66    1.18
  -3   1  -6   15.86    1.11
   3   1   6   15.23    1.00
  -4  -1  -6   11.81    0.90
  -4  -1  -6   11.95    0.89
   4  -1   6   10.51    0.80
  -4   1  -6   12.18    0.91
  -4   1  -6   11.12    0.87
  -5  -1  -6    6.11    0.64
   5  -1   6    6.38    0.53
  -5   1  -6    5.48    0.59
  -5   1  -6    4.70    0.58
  -6  -1  -6    3.85    0.59
   6  -1   6    4.03    0.48
  -6   1  -6    4.07    0.58
  -7   1  -6    5.40    0.67
  -7  -1  -6    5.14    0.67
   7  -1   6    5.45    0.58
  -8   1  -6    2.32    0.55
  -8  -1  -6    2.52    0.56
   8  -1   6    2.23    0.45
  -9   1  -6    1.29    0.50
  -9  -1  -6    1.56    0.54
 -10   1  -6   -0.09    0.41
 -10  -1  -6    0.09    0.45
 -15  -2   6    1.44    0.48
  14   2  -6    1.10    0.47
 -14  -2   6    2.73    0.54
 -14   2   6    1.68    0.52
  14  -2  -6    1.96    0.53
 -13   2   6    2.15    0.58
 -13  -2   6    3.07    0.57
  13   2  -6    2.53    0.55
  13  -2  -6    2.62    0.55
 -12   2   6   12.91    1.11
  12   2  -6   13.85    1.08
 -12  -2   6   12.00    1.05
  12  -2  -6   11.38    1.02
  11   2  -6    0.92    0.39
  11  -2  -6    0.72    0.37
 -11   2   6    0.76    0.45
 -11  -2   6    0.81    0.37
 -10   2   6   31.88    2.16
  10   2  -6   34.85    2.14
 -10  -2   6   35.26    2.12
  10  -2  -6   32.54    2.10
  -9  -2   6   11.46    0.90
  -9   2   6   12.30    1.01
   9  -2  -6   11.26    0.90
  -8   2   6    1.52    0.43
   8   2  -6    0.99    0.27
   8  -2  -6    2.32    0.38
  -8  -2   6    1.97    0.37
  -8  -2   6    1.86    0.41
  -7  -2   6   55.64    3.12
   7  -2  -6   53.41    3.13
   6  -2  -6    0.71    0.22
  -6  -2   6    0.43    0.25
   6   2  -6   -0.08    0.19
  -6   2   6    0.25    0.31
  -6  -2   6    0.77    0.24
   6  -2  -6    0.76    0.20
   5   2  -6   11.64    0.86
  -5  -2   6   12.07    0.83
  -5  -2   6   11.99    0.83
  -5   2   6   12.46    0.95
   5  -2  -6   11.93    0.83
   5  -2  -6   11.97    0.79
   4   2  -6   27.77    1.70
  -4  -2   6   25.22    1.59
   4  -2  -6   26.51    1.54
  -4  -2   6   26.62    1.60
   4  -2  -6   26.62    1.66
  -4   2   6   28.59    1.73
   3   2  -6   88.07    4.71
   3  -2  -6   80.16    4.67
  -3  -2   6   76.28    4.45
  -3  -2   6   79.34    4.49
  -2  -2   6   75.25    4.13
  -2   2   6   78.31    4.23
   2  -2  -6   69.45    4.34
   2   2  -6   74.22    4.37
  -2  -2   6   77.39    4.16
   1   2  -6    5.53    0.52
   1  -2  -6    3.43    0.45
  -1  -2   6    4.17    0.40
  -1   2   6    5.56    0.52
  -1  -2   6    4.21    0.38
   0   2  -6    0.40    0.23
   0  -2  -6    0.30    0.22
   0   2   6    0.40    0.27
   0  -2   6    0.27    0.20
   0  -2   6    0.54    0.18
  -1   2  -6   16.99    1.27
   1  -2   6   20.39    1.18
   1   2   6   17.27    1.24
  -1  -2  -6   19.10    1.26
   1  -2   6   20.04    1.15
  -2   2  -6   40.18    2.27
   2  -2   6   38.81    2.25
  -2   2  -6   38.12    2.41
   2   2   6   37.37    2.33
  -2  -2  -6   40.88    2.40
  -3  -2  -6    8.11    0.75
  -3   2  -6    9.82    0.81
   3  -2   6   11.35    0.72
   3   2   6    9.58    0.82
  -3   2  -6    8.89    0.73
   4  -2   6   13.64    0.97
  -4   2  -6   14.84    1.03
  -4   2  -6   14.67    1.08
  -5  -2  -6    8.67    0.79
  -5   2  -6   10.31    0.79
   5  -2   6    8.12    0.69
  -5  -2  -6    8.70    0.72
  -5   2  -6    6.54    0.71
   6  -2   6    7.72    0.68
  -6   2  -6    6.48    0.72
  -6  -2  -6    7.63    0.76
  -7  -2  -6    7.96    0.84
  -7   2  -6    9.69    0.87
   7  -2   6    7.90    0.74
  -8   2  -6    0.01    0.33
   8  -2   6   -0.21    0.30
  -8  -2  -6   -0.18    0.33
  -9  -2  -6   -0.12    0.37
   9  -2   6    0.05    0.33
  -9   2  -6   -0.17    0.36
 -10   2  -6    4.55    0.78
 -14   3   6    2.91    0.67
 -14  -3   6    2.03    0.51
  14  -3  -6    1.75    0.55
  14   3  -6    2.35    0.58
  13   3  -6    2.97    0.61
  13  -3  -6    3.78    0.64
 -13   3   6    3.91    0.71
 -13  -3   6    3.57    0.60
  12  -3  -6    4.63    0.67
 -12   3   6    5.80    0.75
  12   3  -6    5.36    0.72
 -12  -3   6    4.52    0.63
  11  -3  -6    0.64    0.37
  11   3  -6    0.94    0.41
 -11   3   6    0.68    0.44
 -11  -3   6    0.50    0.32
 -10   3   6   10.95    0.95
  10  -3  -6    7.77    0.79
 -10  -3   6   10.02    0.83
 -10  -3   6    9.14    0.90
  -9  -3   6    6.42    0.61
  -9   3   6    3.57    0.67
   9  -3  -6    6.18    0.62
  -9  -3   6    6.74    0.71
  -8  -3   6   24.67    1.58
  -8   3   6   22.13    1.59
   8   3  -6   22.65    1.52
  -8  -3   6   24.68    1.49
   8  -3  -6   22.18    1.48
   7  -3  -6    0.19    0.24
   7  -3  -6    0.38    0.19
  -7   3   6    0.46    0.36
  -7  -3   6    0.21    0.30
  -7  -3   6    0.07    0.18
   7   3  -6    0.33    0.25
   6  -3  -6   16.49    1.05
  -6  -3   6   17.59    1.06
  -6  -3   6   15.80    1.11
   6  -3  -6   16.53    1.08
   6   3  -6   15.75    1.14
  -5  -3   6   13.17    0.91
  -5  -3   6   12.69    0.83
   5  -3  -6   13.33    0.90
  -5   3   6   12.27    1.01
   5   3  -6   13.02    0.96
   5  -3  -6   12.68    0.83
  -4  -3   6   68.01    3.83
  -4  -3   6   68.11    3.92
   4  -3  -6   71.15    4.05
  -4   3   6   70.33    4.03
   4  -3  -6   69.88    3.85
   4   3  -6   70.51    4.11
  -3  -3   6   16.86    1.13
  -3   3   6   19.51    1.28
   3  -3  -6   18.86    1.05
   3   3  -6   19.06    1.26
  -3  -3   6   17.30    1.08
   3  -3  -6   17.05    1.19
  -2  -3   6    4.68    0.41
  -2  -3   6    4.36    0.37
   2  -3  -6    3.91    0.44
  -2   3   6    3.29    0.50
  -1  -3   6   53.84    3.00
  -1  -3   6   52.70    2.92
   1   3  -6   51.32    3.18
  -1   3   6   50.74    3.06
   1  -3  -6   55.53    3.14
   0  -3   6   23.57    1.47
   0  -3  -6   23.78    1.60
   0   3  -6   29.45    1.69
   0  -3   6   23.62    1.50
   1  -3   6   15.19    0.91
  -1  -3  -6   13.40    0.99
  -1   3  -6   13.59    1.03
   1   3   6   11.46    0.98
   1  -3   6   15.34    0.93
   2   3   6    1.96    0.44
  -2  -3  -6    2.16    0.38
  -2   3  -6    2.18    0.31
   2  -3   6    1.64    0.30
  -2   3  -6    1.15    0.35
  -3   3  -6    0.56    0.28
   3   3   6    0.64    0.39
  -3   3  -6    0.96    0.27
   3  -3   6    0.03    0.22
  -3  -3  -6    0.14    0.25
  -4  -3  -6   19.53    1.24
  -4   3  -6   15.16    1.16
   4  -3   6   19.85    1.19
   4   3   6   15.49    1.27
   5  -3   6    5.98    0.61
  -5   3  -6    6.86    0.67
  -5  -3  -6    6.11    0.62
  -5   3  -6    6.62    0.65
   5   3   6    6.28    0.77
   6  -3   6    2.34    0.44
  -6   3  -6    2.98    0.50
  -6  -3  -6    2.23    0.41
  -7  -3  -6    2.08    0.52
  -7   3  -6    1.24    0.44
   7  -3   6    1.48    0.40
  -8  -3  -6    1.32    0.49
  -8   3  -6    1.31    0.47
   8  -3   6    1.40    0.43
  -9   3  -6    1.07    0.48
   9  -3   6    0.99    0.42
  -9  -3  -6    1.32    0.53
  10  -3   6    0.57    0.42
 -10   3  -6    0.22    0.42
  14  -4  -6    0.42    0.45
  13  -4  -6    2.26    0.57
 -13   4   6    2.15    0.61
  13   4  -6    2.73    0.62
  12  -4  -6    4.04    0.62
 -12   4   6    3.44    0.68
  12   4  -6    4.25    0.70
  11  -4  -6    9.13    0.87
 -11   4   6   10.84    1.00
 -11  -4   6    8.81    0.96
 -10   4   6    2.06    0.56
  10  -4  -6    2.84    0.49
 -10  -4   6    3.72    0.63
  -9   4   6    4.37    0.70
  -9  -4   6    4.63    0.65
   9  -4  -6    4.76    0.56
  -8   4   6   49.02    2.94
  -8  -4   6   45.58    2.88
   8   4  -6   50.92    2.94
   8  -4  -6   45.01    2.80
   7  -4  -6   22.49    1.43
  -6  -4   6   33.69    2.14
   6  -4  -6   33.80    2.13
   6   4  -6   38.42    2.27
  -6   4   6   36.49    2.26
   6  -4  -6   34.02    2.07
   5   4  -6   14.67    1.16
  -5   4   6   14.85    1.19
   5  -4  -6   15.93    1.08
  -5  -4   6   16.66    1.10
   5  -4  -6   17.14    1.01
   4  -4  -6   13.65    0.82
  -4  -4   6   12.37    0.91
   4  -4  -6   12.69    0.92
  -2  -4   6   25.29    1.55
  -1   4   6    0.94    0.35
  -1  -4   6    1.33    0.28
   1  -4  -6    1.16    0.30
   1   4  -6    0.98    0.34
   0   4   6    1.99    0.43
   0   4  -6    1.96    0.40
   0  -4  -6    1.63    0.34
   0  -4   6    1.72    0.32
   1   4   6    8.09    0.77
   1  -4   6    8.91    0.68
  -1  -4  -6    9.79    0.76
  -1   4  -6    7.67    0.76
   2  -4   6   15.55    1.07
  -2   4  -6   15.43    1.18
  -2  -4  -6   17.51    1.16
   2   4   6   15.29    1.16
   3   4   6    2.36    0.54
  -3  -4  -6    2.77    0.44
   3  -4   6    3.03    0.42
  -3   4  -6    1.89    0.42
   4  -4   6    1.70    0.38
  -4  -4  -6    2.06    0.42
   4   4   6    2.42    0.56
  -4   4  -6    1.83    0.43
   5  -4   6    8.49    0.78
   5   4   6    9.37    0.93
  -5  -4  -6    9.45    0.80
   6  -4   6    1.14    0.38
   6   4   6   -0.19    0.46
  -6  -4  -6    0.81    0.34
   7  -4   6    3.65    0.56
   7   4   6    3.06    0.72
   8  -4   6    1.75    0.47
   8   4   6    1.32    0.65
   9  -4   6    3.75    0.62
 -13   5   6    1.50    0.53
  13  -5  -6    1.87    0.54
  13   5  -6    1.68    0.62
  12  -5  -6    6.03    0.76
 -12   5   6    6.14    0.82
 -11  -5   6    3.13    0.69
 -11   5   6    3.38    0.65
  11  -5  -6    3.13    0.56
  10  -5  -6    2.94    0.52
 -10  -5   6    3.40    0.64
 -10   5   6    2.60    0.60
  -9  -5   6   10.52    0.95
   9  -5  -6   10.67    0.85
   9   5  -6    8.58    0.87
  -9   5   6    7.74    0.90
  -8   5   6    3.74    0.63
   8   5  -6    3.44    0.56
  -8  -5   6    3.11    0.56
   8  -5  -6    3.07    0.46
  -7  -5   6    3.77    0.55
   7  -5  -6    3.32    0.42
   7   5  -6    4.06    0.60
  -7   5   6    3.94    0.65
   7  -5  -6    3.41    0.45
  -6  -5   6    2.96    0.49
   6  -5  -6    4.02    0.44
  -6   5   6    3.02    0.58
   6   5  -6    3.45    0.56
   5   5  -6   14.38    1.12
  -5  -5   6   14.06    1.02
   5  -5  -6   13.25    0.98
  -5   5   6   13.25    1.12
  -4   5   6   23.52    1.66
   4  -5  -6   24.43    1.56
   4   5  -6   23.96    1.68
  -4  -5   6   24.36    1.54
   3  -5  -6   13.65    0.96
   3   5  -6   13.70    1.07
  -3  -5   6   11.04    0.90
  -2  -5   6   12.49    0.89
   2   5  -6   10.53    0.99
   2  -5  -6   13.64    0.95
  -1  -5   6    0.76    0.29
   1   5  -6    1.25    0.40
   1  -5  -6    0.93    0.32
  -1   5   6    1.46    0.44
   0  -5   6   37.56    2.30
   0   5   6   37.54    2.38
   0   5  -6   39.18    2.49
   0  -5  -6   40.50    2.42
   1   5   6    0.96    0.39
   1  -5   6    1.77    0.35
  -1   5  -6    1.52    0.42
  -1  -5  -6    2.07    0.41
   2  -5   6    0.46    0.29
  -2  -5  -6    0.41    0.30
  -2   5  -6    0.59    0.34
   2   5   6    0.42    0.40
  -3   5  -6    9.91    0.91
   3   5   6    9.98    0.92
  -3  -5  -6    9.87    0.85
   3  -5   6   10.01    0.81
   4  -5   6    3.63    0.50
   4   5   6    1.41    0.55
  -4   5  -6    1.89    0.47
  -4  -5  -6    3.59    0.51
   5   5   6   11.16    1.03
   5  -5   6   10.34    0.89
  -5  -5  -6    9.99    0.89
   6   5   6    1.27    0.58
   6  -5   6    1.32    0.43
  -6  -5  -6    1.42    0.41
   7   5   6    2.56    0.71
   7  -5   6    2.40    0.51
   8   5   6    0.95    0.65
   8  -5   6    1.55    0.51
 -12  -6   6    1.23    0.59
  12  -6  -6    0.62    0.42
 -12   6   6    1.12    0.47
  11  -6  -6    4.44    0.65
 -11   6   6    4.37    0.73
 -11  -6   6    5.96    0.83
  10  -6  -6    3.43    0.57
 -10   6   6    4.38    0.71
 -10  -6   6    3.89    0.72
  -9   6   6   -0.10    0.35
   9  -6  -6    0.39    0.33
  -9  -6   6    0.43    0.44
   9   6  -6    0.31    0.38
   8  -6  -6    6.50    0.66
   8   6  -6    7.16    0.81
  -8   6   6    5.71    0.76
  -8  -6   6    7.64    0.80
  -7  -6   6    4.37    0.63
   7  -6  -6    4.10    0.50
   7   6  -6    5.49    0.71
  -7   6   6    5.38    0.70
  -6  -6   6    9.89    0.86
   6  -6  -6    9.75    0.76
   6   6  -6    8.72    0.92
  -6   6   6    8.52    0.89
   5   6  -6    2.05    0.52
  -5   6   6    1.83    0.51
  -5  -6   6    2.38    0.46
   5  -6  -6    1.93    0.38
   4   6  -6    5.76    0.70
  -4   6   6    5.31    0.70
   4  -6  -6    4.04    0.52
  -4  -6   6    3.63    0.55
  -3  -6   6   28.62    1.90
   3   6  -6   31.75    2.11
  -3   6   6   30.24    2.04
   3  -6  -6   32.50    1.98
  -2  -6   6    4.66    0.56
   2   6  -6    6.25    0.73
   2  -6  -6    5.51    0.60
  -2   6   6    5.86    0.73
  -1   6   6    0.59    0.41
   1  -6  -6    1.42    0.38
  -1  -6   6    1.19    0.34
   1   6  -6    2.30    0.51
   0  -6  -6    6.39    0.65
   0  -6   6    6.16    0.60
   0   6  -6    6.74    0.74
   0   6   6    4.89    0.69
   1  -6   6    0.40    0.29
  -1  -6  -6    0.90    0.35
   1   6   6   -0.20    0.34
  -1   6  -6    0.55    0.37
  -2   6  -6    3.55    0.58
   2  -6   6    1.94    0.42
  -2  -6  -6    2.28    0.46
   2   6   6    2.78    0.56
  -3   6  -6    1.69    0.48
   3  -6   6    2.73    0.46
   3   6   6    1.69    0.53
  -3  -6  -6    2.93    0.49
  -4  -6  -6    0.10    0.32
  -4   6  -6   -0.18    0.29
   4  -6   6   -0.16    0.28
   4   6   6    0.33    0.44
   5  -6   6    4.48    0.61
  -5  -6  -6    4.22    0.61
   5   6   6    5.56    0.82
   6   6   6    0.71    0.57
   6  -6   6    1.32    0.44
  -6  -6  -6    1.37    0.43
   7  -6   6    0.42    0.40
   7   6   6    0.09    0.52
   8   6   6    0.38    0.61
 -11   7   6    1.46    0.52
 -10   7   6    3.44    0.66
 -10  -7   6    4.24    0.80
  -9  -7   6    4.54    0.74
   9   7  -6    4.00    0.72
  -9   7   6    3.15    0.64
  -8   7   6    1.58    0.52
  -8  -7   6    2.46    0.60
   8   7  -6    2.39    0.60
  -7  -7   6    3.78    0.63
  -7   7   6    2.92    0.61
   7   7  -6    4.19    0.72
   6   7  -6    4.20    0.72
  -6  -7   6    3.87    0.62
   6  -7  -6    3.49    0.48
  -6   7   6    3.24    0.63
   5  -7  -6    6.69    0.68
  -5   7   6    8.22    0.86
   5   7  -6    7.17    0.86
  -5  -7   6    7.01    0.76
  -4   7   6    1.39    0.49
   4   7  -6    1.58    0.53
  -4  -7   6    2.96    0.51
   4  -7  -6    3.25    0.47
  -3  -7   6    1.11    0.38
   3   7  -6    0.76    0.44
  -3   7   6    0.69    0.47
   3  -7  -6    1.25    0.38
  -2  -7   6    1.73    0.41
   2   7  -6    0.75    0.44
  -2   7   6    1.00    0.48
   2  -7  -6    1.70    0.42
   1   7  -6   10.86    1.04
  -1  -7   6   10.73    0.89
  -1   7   6   10.39    1.00
   1  -7  -6   11.00    0.93
   0   7   6    0.02    0.41
   0  -7  -6    1.06    0.40
   0  -7   6    0.68    0.35
   0   7  -6    0.55    0.42
  -1   7  -6   14.29    1.20
   1  -7   6   12.15    1.00
  -1  -7  -6   13.09    1.07
   1   7   6   13.44    1.15
   2  -7   6    6.21    0.66
   2   7   6    5.20    0.75
  -2   7  -6    6.50    0.80
  -2  -7  -6    6.55    0.71
   3   7   6    0.41    0.46
  -3  -7  -6    0.30    0.37
  -3   7  -6    0.04    0.35
   3  -7   6    0.44    0.35
   4   7   6    3.97    0.74
  -4   7  -6    4.79    0.69
   4  -7   6    3.84    0.60
  -4  -7  -6    4.80    0.63
  -5  -7  -6    1.43    0.47
   5  -7   6    1.85    0.48
  -6  -7  -6    2.00    0.50
   6  -7   6    2.35    0.56
   9   8  -6    1.53    0.57
  -8  -8   6    0.17    0.49
   8   8  -6    0.21    0.47
  -7  -8   6    5.58    0.78
   7   8  -6    5.73    0.85
   6  -8  -6    0.45    0.32
   6   8  -6    0.44    0.48
  -6  -8   6    0.50    0.43
   5  -8  -6    1.13    0.38
  -5  -8   6    1.30    0.48
   5   8  -6    1.14    0.52
   4  -8  -6    3.34    0.54
  -4  -8   6    3.25    0.58
   4   8  -6    3.99    0.73
  -3  -8   6    0.29    0.36
   3   8  -6    1.17    0.51
   3  -8  -6    1.03    0.40
   2   8  -6    1.70    0.56
   2  -8  -6    3.07    0.54
  -2  -8   6    2.79    0.52
   1   8  -6    1.16    0.50
   1  -8  -6    0.88    0.40
  -1  -8   6    0.30    0.35
   0  -8   6    1.08    0.43
   0   8  -6    1.26    0.51
   0  -8  -6    1.39    0.45
  -1  -8  -6   -0.01    0.34
   1  -8   6   -0.18    0.31
  -1   8  -6    0.04    0.37
   2  -8   6    5.06    0.67
  -2   8  -6    5.43    0.79
  -2  -8  -6    6.46    0.72
   3  -8   6    0.31    0.36
  -3  -8  -6    0.21    0.37
  -3   8  -6    0.48    0.44
   4  -8   6    1.88    0.52
  -4  -8  -6    2.11    0.52
  -6   9   6    1.11    0.53
   6   9  -6    1.02    0.61
   5   9  -6    2.43    0.69
   5  -9  -6    1.98    0.47
  -5  -9   6    2.10    0.58
   4  -9  -6    1.12    0.42
  -4  -9   6    1.07    0.48
   4   9  -6    0.56    0.50
   3  -9  -6    0.70    0.39
   3   9  -6    1.04    0.53
  -3  -9   6    0.50    0.42
   2   9  -6    1.08    0.53
   2  -9  -6    0.43    0.40
  -2  -9   6    0.62    0.40
  -1  -9   6    1.00    0.45
   1  -9  -6    2.06    0.52
   1   9  -6    0.87    0.52
   0  -9  -6    3.16    0.61
   0   9  -6    2.77    0.67
   0  -9   6    3.10    0.59
  -1   9  -6    1.13    0.51
  -2   9  -6    0.06    0.41
 -15   0   7    3.40    0.67
  15   0  -7    3.93    0.67
 -14   0   7   -0.29    0.33
  14   0  -7    0.10    0.37
 -13   0   7    3.65    0.65
  13   0  -7    3.80    0.59
 -12   0   7    2.02    0.51
  12   0  -7    1.77    0.46
  11   0  -7   -0.16    0.27
 -11   0   7    0.09    0.33
  10   0  -7    1.41    0.38
 -10   0   7    0.99    0.40
   9   0  -7   34.25    2.09
  -9   0   7   33.73    2.14
   8   0  -7    0.30    0.24
   8   0  -7    0.49    0.20
  -8   0   7    0.28    0.33
   7   0  -7   51.71    3.08
   7   0  -7   56.83    3.16
  -7   0   7   52.24    3.15
  -6   0   7   17.74    1.27
   6   0  -7   18.94    1.19
   6   0  -7   19.63    1.25
   5   0  -7   13.78    0.99
  -5   0   7   13.75    1.02
  -5   0   7   14.80    0.94
   4   0  -7   17.77    1.22
  -4   0   7   16.92    1.21
  -4   0   7   19.13    1.11
  -3   0   7   22.68    1.47
  -3   0   7   24.52    1.35
   3   0  -7   22.22    1.50
   2   0  -7    0.84    0.27
  -2   0   7    1.25    0.18
  -2   0   7    1.44    0.32
   1   0  -7   89.41    5.42
  -1   0   7   96.78    5.12
  -1   0   7   94.57    5.19
   0   0   7    2.99    0.43
   0   0  -7    2.91    0.43
   0   0   7    2.92    0.26
   1   0   7   42.97    2.31
  -1   0  -7   41.22    2.54
   1   0   7   39.26    2.42
  -2   0  -7    0.43    0.28
   2   0   7    0.66    0.19
   2   0   7    1.31    0.37
  -3   0  -7   17.58    1.24
  -4   0  -7    3.79    0.52
  -4   0  -7    3.71    0.53
  -5   0  -7    5.45    0.64
  -6   0  -7    0.43    0.37
  -7   0  -7    2.53    0.55
  -8   0  -7    4.27    0.71
  -9   0  -7    0.37    0.45
  15  -1  -7    2.39    0.58
 -15   1   7    1.95    0.59
  15   1  -7    1.65    0.54
 -15  -1   7    1.78    0.52
  14  -1  -7    0.96    0.46
 -14  -1   7    1.84    0.50
  14   1  -7    1.28    0.47
 -14   1   7    2.22    0.59
 -13   1   7    1.63    0.54
 -13  -1   7    2.28    0.53
  13  -1  -7    1.80    0.48
  13   1  -7    1.98    0.51
  12  -1  -7    7.51    0.77
 -12  -1   7    7.58    0.80
  12   1  -7    7.57    0.77
 -12   1   7    7.71    0.85
  11   1  -7   31.07    1.93
 -11  -1   7   28.17    1.92
  11  -1  -7   30.00    1.91
 -11   1   7   28.37    1.97
  10   1  -7   22.33    1.55
 -10   1   7   21.90    1.60
 -10  -1   7   23.09    1.58
  10  -1  -7   25.51    1.56
  -9   1   7    4.63    0.62
   9   1  -7    4.43    0.53
  -9  -1   7    2.99    0.51
   9  -1  -7    3.36    0.48
   8   1  -7    2.57    0.37
  -8  -1   7    1.00    0.36
   8  -1  -7    2.33    0.39
  -8   1   7    2.17    0.48
   8  -1  -7    2.26    0.33
   7  -1  -7   31.97    1.81
  -7  -1   7   27.19    1.80
  -7   1   7   27.76    1.87
   7   1  -7   30.19    1.82
  -7  -1   7   29.91    1.82
   7  -1  -7   28.04    1.76
   6   1  -7   62.90    3.51
  -6  -1   7   60.31    3.41
  -6   1   7   58.88    3.48
   6  -1  -7   60.39    3.48
   6  -1  -7   57.25    3.36
  -6  -1   7   56.66    3.40
   5   1  -7   11.66    0.96
  -5  -1   7   15.64    0.95
   5  -1  -7   14.68    0.90
  -5  -1   7   15.03    1.00
  -5   1   7   11.99    1.02
   5  -1  -7   14.98    0.99
  -4   1   7    2.36    0.42
   4  -1  -7    1.75    0.23
   4  -1  -7    1.22    0.28
  -4  -1   7    1.88    0.35
  -4  -1   7    1.57    0.24
   4   1  -7    1.47    0.31
  -3   1   7    1.72    0.38
   3   1  -7    2.26    0.35
   3  -1  -7    0.78    0.26
  -3  -1   7    1.23    0.21
  -3  -1   7    1.31    0.31
  -2  -1   7   79.30    4.16
   2  -1  -7   74.73    4.40
   2   1  -7   69.47    4.39
  -2  -1   7   77.64    4.20
   1   1  -7   74.64    4.44
  -1  -1   7   77.53    4.18
  -1   1   7   74.08    4.25
   1  -1  -7   75.66    4.43
  -1  -1   7   76.31    4.22
   0   1   7    9.28    0.73
   0   1  -7   10.11    0.76
   0  -1   7    6.84    0.65
   0  -1   7    7.83    0.56
   0  -1  -7    7.11    0.70
   1  -1   7    8.88    0.72
  -1  -1  -7    8.79    0.76
   1  -1   7    8.96    0.61
   2   1   7   39.61    2.47
  -2   1  -7   39.22    2.56
   2  -1   7   45.12    2.46
   3   1   7   35.40    2.10
  -3   1  -7   35.59    2.05
   3  -1   7   29.24    1.94
  -4   1  -7   30.52    1.97
  -4   1  -7   29.87    1.91
   4  -1   7   30.09    1.83
  -4  -1  -7   31.68    1.97
  -5  -1  -7    1.98    0.40
  -5   1  -7    1.80    0.40
  -5  -1  -7    3.28    0.53
   5  -1   7    2.89    0.40
  -5   1  -7    2.43    0.47
  -6  -1  -7    2.62    0.55
  -6   1  -7    3.48    0.57
  -7  -1  -7    5.90    0.73
  -7   1  -7    4.65    0.68
  -8  -1  -7    1.45    0.53
  -8   1  -7    2.24    0.55
  -9   1  -7    0.45    0.45
  -9  -1  -7    0.88    0.52
 -15  -2   7    0.67    0.42
  15  -2  -7    0.50    0.44
 -14   2   7    0.90    0.48
  14  -2  -7    0.19    0.41
  14   2  -7    0.57    0.43
 -14  -2   7    0.80    0.41
 -13   2   7    3.87    0.70
  13  -2  -7    4.35    0.66
 -13  -2   7    3.65    0.63
  13   2  -7    3.23    0.60
  12   2  -7    5.18    0.67
 -12  -2   7    5.19    0.69
  12  -2  -7    5.32    0.67
 -12   2   7    5.25    0.74
  11   2  -7    4.63    0.64
  11  -2  -7    5.11    0.61
 -11   2   7    4.69    0.71
 -11  -2   7    5.23    0.62
  10  -2  -7   11.90    0.97
 -10   2   7   13.19    1.09
 -10  -2   7   12.02    0.98
  10   2  -7   12.89    1.02
   9  -2  -7    7.21    0.66
  -9  -2   7    6.98    0.72
  -9  -2   7    6.75    0.66
  -9   2   7    6.11    0.74
  -8   2   7   41.81    2.45
   8  -2  -7   34.88    2.28
   8   2  -7   42.34    2.37
  -8  -2   7   34.91    2.29
  -8  -2   7   38.42    2.36
   7  -2  -7    9.98    0.72
  -7  -2   7    9.46    0.77
  -7  -2   7    9.89    0.75
   7  -2  -7    9.84    0.70
  -7   2   7    6.33    0.79
   6  -2  -7    5.16    0.47
  -6  -2   7    4.75    0.50
   6  -2  -7    5.18    0.50
  -6  -2   7    5.55    0.53
   6   2  -7    5.12    0.52
  -5   2   7   25.18    1.53
   5   2  -7   23.09    1.45
   5  -2  -7   21.45    1.30
   5  -2  -7   20.22    1.40
  -5  -2   7   20.33    1.34
  -5  -2   7   20.40    1.35
   4  -2  -7   30.37    1.96
  -4   2   7   29.32    1.99
   4  -2  -7   33.49    1.80
  -4  -2   7   32.45    1.88
  -4  -2   7   33.13    1.87
   3  -2  -7   37.46    2.35
  -3  -2   7   38.18    2.23
   3   2  -7   37.52    2.37
  -3   2   7   40.05    2.35
  -3  -2   7   39.06    2.21
  -2  -2   7   11.62    0.73
  -2   2   7    9.33    0.84
   2  -2  -7   11.33    0.84
   2   2  -7    9.88    0.83
  -2  -2   7   11.42    0.77
   1   2  -7    1.93    0.38
   1  -2  -7    2.17    0.38
  -1   2   7    1.76    0.40
  -1  -2   7    2.80    0.30
  -1  -2   7    2.69    0.34
   1   2   7    4.34    0.55
  -1  -2  -7    3.55    0.48
   1  -2   7    3.69    0.39
   1  -2   7    3.72    0.45
  -2   2  -7    9.04    0.80
   2   2   7    9.37    0.83
   2  -2   7    9.79    0.69
  -2  -2  -7    9.52    0.79
  -3   2  -7   17.25    1.26
  -3  -2  -7   18.21    1.24
   3   2   7   16.38    1.26
  -3   2  -7   17.96    1.19
   4  -2   7    3.18    0.43
  -4  -2  -7    2.44    0.44
   4   2   7    3.69    0.63
  -4   2  -7    3.97    0.50
  -4   2  -7    3.70    0.52
  -5  -2  -7    1.06    0.34
  -5   2  -7    1.43    0.36
  -5   2  -7    2.03    0.43
   5  -2   7    1.23    0.35
  -6   2  -7    0.65    0.39
   6  -2   7    1.10    0.35
  -6  -2  -7    0.81    0.42
   7  -2   7   -0.05    0.31
  -7   2  -7    0.22    0.36
  -7  -2  -7    0.00    0.38
  -8   2  -7    0.92    0.44
  -8  -2  -7    0.45    0.42
  -9  -2  -7    1.31    0.58
  -9   2  -7    2.03    0.58
  14  -3  -7    1.46    0.52
  14   3  -7    1.87    0.55
 -14   3   7    2.49    0.64
 -13   3   7    0.95    0.51
  13   3  -7    0.38    0.44
  13  -3  -7    0.12    0.37
 -12   3   7   -0.21    0.38
  12   3  -7   -0.09    0.36
  12  -3  -7   -0.06    0.34
 -12  -3   7    0.03    0.29
 -11  -3   7   12.57    1.01
  11  -3  -7   12.61    1.01
 -11   3   7   11.32    1.09
  11   3  -7   13.26    1.08
  10  -3  -7    0.98    0.37
 -10  -3   7    0.77    0.34
 -10   3   7    2.70    0.59
 -10  -3   7    1.25    0.45
   9  -3  -7   13.15    0.99
  -9  -3   7   12.78    0.97
  -9   3   7   13.40    1.14
  -9  -3   7   13.80    1.08
  -8  -3   7    8.40    0.78
  -8  -3   7    7.96    0.68
   8  -3  -7    7.23    0.67
   8   3  -7    8.55    0.71
  -8   3   7    8.11    0.86
  -7  -3   7    4.05    0.48
  -7  -3   7    4.38    0.56
   7  -3  -7    4.22    0.47
  -7   3   7    6.79    0.73
   7  -3  -7    4.19    0.49
   7   3  -7    6.46    0.59
  -6  -3   7   86.62    4.84
   6  -3  -7   90.51    5.05
   6  -3  -7   86.65    4.87
  -6  -3   7   86.82    4.94
   5  -3  -7   11.09    0.81
  -5  -3   7   10.89    0.74
   5   3  -7    9.44    0.84
   5  -3  -7   11.06    0.71
   4  -3  -7    1.72    0.32
  -4   3   7    1.06    0.40
  -4  -3   7    1.91    0.29
  -4  -3   7    2.18    0.32
   4   3  -7    0.96    0.32
  -3  -3   7    3.29    0.38
   3   3  -7    5.15    0.54
  -3  -3   7    3.53    0.41
   3  -3  -7    4.16    0.47
   2  -3  -7   11.80    0.94
  -2  -3   7   13.76    0.88
  -2  -3   7   13.54    0.86
  -1  -3   7    5.47    0.52
   1   3  -7    8.52    0.70
  -1   3   7    8.05    0.70
   1  -3  -7    5.65    0.61
  -1  -3   7    5.77    0.53
   0   3  -7   18.42    1.29
   0  -3   7   18.57    1.15
   0   3   7   16.49    1.24
   0  -3  -7   18.29    1.25
   0  -3   7   18.65    1.14
   1  -3   7   12.52    0.94
   1  -3   7   15.41    0.97
   1   3   7   13.77    1.07
  -1  -3  -7   14.87    1.06
  -1   3  -7   14.50    1.09
  -2   3  -7    1.55    0.40
  -2  -3  -7    1.47    0.37
   2  -3   7    1.06    0.29
   2   3   7    1.56    0.46
   3   3   7   18.16    1.26
  -3  -3  -7   16.04    1.17
  -3   3  -7   14.90    1.10
   3  -3   7   14.78    1.07
  -3   3  -7   16.81    1.22
   4   3   7   12.18    1.09
  -4  -3  -7   13.69    1.01
  -4   3  -7   12.56    1.04
   4  -3   7   13.31    0.95
  -4   3  -7   12.52    0.96
  -5   3  -7    1.51    0.41
  -5  -3  -7    1.17    0.38
   5  -3   7    0.96    0.36
   5   3   7    1.26    0.53
  -6   3  -7    2.66    0.52
   6   3   7    2.22    0.63
   6  -3   7    2.69    0.47
   7  -3   7   -0.29    0.31
   7   3   7    0.13    0.52
  -7   3  -7    0.62    0.41
  -8   3  -7    1.65    0.52
   8  -3   7    2.11    0.48
  14  -4  -7    2.12    0.57
  13  -4  -7    0.89    0.43
 -13   4   7    0.65    0.49
  13   4  -7    0.41    0.44
  12  -4  -7    4.75    0.65
 -12   4   7    3.98    0.73
  12   4  -7    4.20    0.71
 -11   4   7    0.77    0.47
  11  -4  -7    0.55    0.37
 -11  -4   7    1.26    0.50
 -10   4   7    3.30    0.68
 -10  -4   7    4.32    0.67
  10  -4  -7    3.62    0.55
   9  -4  -7    8.71    0.81
  -9   4   7   11.56    1.01
   9   4  -7   10.51    0.87
  -9  -4   7    8.55    0.89
  -8  -4   7   26.93    1.66
  -8   4   7   21.94    1.69
   8   4  -7   21.79    1.61
   8  -4  -7   25.48    1.54
   7   4  -7    7.84    0.73
  -7  -4   7    6.73    0.69
   7  -4  -7    6.53    0.60
  -7   4   7    7.19    0.80
   7  -4  -7    6.97    0.61
   6  -4  -7    4.52    0.49
  -6   4   7    3.92    0.66
  -6  -4   7    4.60    0.54
   6   4  -7    4.88    0.58
   5   4  -7   26.81    1.95
  -5  -4   7   32.76    1.87
  -5   4   7   27.56    1.97
   5  -4  -7   33.25    1.90
   4   4  -7   12.45    1.06
   4  -4  -7   14.80    1.01
  -4  -4   7   14.21    0.97
  -3  -4   7   14.02    0.96
  -2  -4   7    0.74    0.27
  -2   4   7    0.80    0.38
   2   4  -7    1.01    0.35
   2  -4  -7    1.05    0.31
  -1   4   7    5.33    0.65
   1  -4  -7    5.29    0.57
  -1  -4   7    5.20    0.51
   1   4  -7    5.72    0.64
   0  -4   7    8.19    0.65
   0  -4  -7    8.48    0.72
   0   4  -7    7.98    0.77
   0   4   7    6.72    0.74
   1   4   7    8.53    0.82
  -1   4  -7    9.48    0.83
  -1  -4  -7    9.26    0.79
   1  -4   7    8.66    0.71
  -2  -4  -7    0.83    0.33
  -2   4  -7    0.80    0.35
   2   4   7    0.38    0.39
   2  -4   7    0.61    0.29
   3   4   7   -0.07    0.41
  -3   4  -7    0.21    0.31
   3  -4   7    0.13    0.28
  -3  -4  -7    0.12    0.29
   4  -4   7    9.36    0.78
  -4  -4  -7    9.29    0.82
  -4   4  -7    9.16    0.87
   4   4   7    9.37    0.94
   5  -4   7    1.79    0.43
  -5  -4  -7    2.23    0.45
   5   4   7    2.56    0.64
   6   4   7    0.47    0.54
   6  -4   7    0.52    0.36
   7  -4   7    0.12    0.37
   7   4   7    0.39    0.58
   8  -4   7    1.93    0.51
   8   4   7    2.04    0.75
   9  -4   7   -0.17    0.38
 -13   5   7    2.92    0.69
  13  -5  -7    2.92    0.60
 -12  -5   7    2.54    0.67
 -12   5   7    2.69    0.63
  12  -5  -7    2.78    0.55
 -11  -5   7    1.75    0.59
 -11   5   7    1.45    0.53
  11  -5  -7    1.87    0.47
 -10  -5   7   17.85    1.40
  10  -5  -7   17.96    1.28
 -10   5   7   16.23    1.40
  -9  -5   7    0.86    0.45
   9   5  -7    0.93    0.40
   9  -5  -7    0.55    0.33
  -9   5   7    1.44    0.53
  -8   5   7    5.77    0.81
  -8  -5   7    8.02    0.78
   8   5  -7    7.61    0.78
  -7  -5   7   18.23    1.25
   7  -5  -7   17.48    1.16
  -7   5   7   14.42    1.31
   7   5  -7   17.54    1.32
  -6   5   7    1.75    0.54
   6   5  -7    2.61    0.52
  -6  -5   7    1.60    0.41
   6  -5  -7    1.53    0.33
   5  -5  -7    8.97    0.80
  -5   5   7   11.22    0.99
  -5  -5   7    8.85    0.82
   5   5  -7   11.79    0.97
  -4  -5   7    0.17    0.29
   4  -5  -7    0.07    0.25
  -4   5   7    0.13    0.42
   4   5  -7    0.27    0.35
   3   5  -7   13.53    1.12
  -3  -5   7   12.18    0.95
  -3   5   7   15.15    1.16
   3  -5  -7   13.01    1.02
  -2  -5   7    3.95    0.51
   2  -5  -7    4.61    0.57
   2   5  -7    6.29    0.68
  -2   5   7    5.68    0.69
  -1  -5   7   15.00    1.05
   1  -5  -7   15.56    1.14
   1   5  -7   15.70    1.22
  -1   5   7   14.47    1.17
   0   5   7    2.90    0.57
   0  -5   7    3.83    0.47
   0   5  -7    3.22    0.57
   0  -5  -7    4.17    0.54
  -1  -5  -7    1.25    0.38
   1   5   7    1.23    0.44
   1  -5   7    1.12    0.33
  -1   5  -7    1.42    0.43
  -2  -5  -7    9.11    0.80
  -2   5  -7    8.04    0.82
   2  -5   7    8.11    0.71
   2   5   7    7.66    0.83
   3  -5   7    1.45    0.38
  -3  -5  -7    1.58    0.42
   3   5   7    2.01    0.56
  -3   5  -7    1.77    0.45
   4   5   7    2.76    0.66
   4  -5   7    3.03    0.49
  -4  -5  -7    3.71    0.53
  -4   5  -7    2.89    0.56
   5   5   7    3.36    0.74
  -5  -5  -7    4.39    0.57
   5  -5   7    3.23    0.53
   6   5   7    0.34    0.52
  -6  -5  -7    0.41    0.34
   6  -5   7    0.75    0.39
   7  -5   7    2.07    0.52
   7   5   7    1.91    0.68
   8  -5   7    0.03    0.41
 -12   6   7    2.03    0.61
 -11  -6   7    2.22    0.65
 -11   6   7    2.86    0.65
 -10   6   7    0.12    0.42
 -10  -6   7   -0.11    0.47
   9   6  -7    4.70    0.72
  -9   6   7    4.29    0.73
  -9  -6   7    5.01    0.74
   8   6  -7    3.83    0.65
  -8   6   7    3.03    0.64
  -8  -6   7    2.80    0.57
  -7  -6   7    3.21    0.56
   7  -6  -7    3.44    0.46
   7   6  -7    2.68    0.57
  -7   6   7    1.75    0.56
   6  -6  -7    0.54    0.29
  -6   6   7    0.71    0.46
   6   6  -7    0.43    0.41
  -6  -6   7    0.37    0.35
  -5  -6   7   -0.07    0.33
   5   6  -7    0.19    0.38
  -5   6   7    0.16    0.40
   5  -6  -7    0.20    0.27
   4  -6  -7   10.94    0.85
  -4   6   7    8.92    0.96
   4   6  -7    8.26    0.93
  -4  -6   7   10.89    0.85
   3  -6  -7    4.11    0.58
  -3   6   7    6.92    0.80
   3   6  -7    7.15    0.78
  -3  -6   7    4.07    0.56
  -2  -6   7    9.34    0.79
  -2   6   7    9.52    0.95
   2   6  -7   10.08    0.96
   2  -6  -7    9.82    0.84
   1   6  -7    4.38    0.67
  -1   6   7    2.42    0.58
   1  -6  -7    4.88    0.58
  -1  -6   7    4.36    0.53
   0  -6   7    3.75    0.51
   0   6  -7    4.47    0.67
   0  -6  -7    4.20    0.56
   0   6   7    4.61    0.69
  -1  -6  -7    1.39    0.41
   1   6   7    1.51    0.51
  -1   6  -7    1.29    0.46
   1  -6   7    1.67    0.39
   2  -6   7    2.61    0.47
  -2  -6  -7    2.72    0.51
  -2   6  -7    3.55    0.60
   2   6   7    2.76    0.61
  -3   6  -7    4.48    0.66
   3  -6   7    4.57    0.57
  -3  -6  -7    4.43    0.60
   3   6   7    3.74    0.71
  -4  -6  -7    0.32    0.35
   4   6   7    0.52    0.54
   4  -6   7    0.31    0.34
  -4   6  -7    0.41    0.37
   5   6   7    2.94    0.72
  -5  -6  -7    3.58    0.58
   5  -6   7    3.37    0.57
   6   6   7    0.90    0.61
   6  -6   7    0.14    0.38
  -6  -6  -7    0.19    0.37
   7   6   7    0.49    0.64
 -11   7   7    2.45    0.62
 -10   7   7    0.80    0.50
 -10  -7   7    1.89    0.61
   9   7  -7    2.38    0.61
  -9   7   7    1.40    0.51
  -9  -7   7    2.16    0.60
  -8   7   7   -0.05    0.39
   8   7  -7    0.31    0.44
  -8  -7   7   -0.10    0.38
   7   7  -7    0.41    0.44
  -7   7   7    0.45    0.45
  -7  -7   7    0.81    0.43
  -6  -7   7    7.36    0.79
   6  -7  -7    6.83    0.69
  -6   7   7    6.54    0.83
   6   7  -7    8.26    0.92
   5   7  -7    1.60    0.55
   5  -7  -7    1.31    0.39
  -5  -7   7    1.12    0.43
  -5   7   7    1.70    0.56
   4   7  -7    0.20    0.41
   4  -7  -7   -0.29    0.29
  -4   7   7   -0.17    0.37
  -4  -7   7    0.02    0.33
  -3   7   7    0.94    0.52
   3  -7  -7    1.94    0.45
   3   7  -7    1.94    0.55
  -3  -7   7    1.74    0.43
  -2  -7   7    4.03    0.55
   2   7  -7    4.53    0.72
   2  -7  -7    3.97    0.57
  -2   7   7    3.93    0.72
  -1  -7   7   -0.08    0.31
  -1   7   7    0.11    0.41
   1  -7  -7    0.04    0.32
   1   7  -7   -0.08    0.35
   0  -7  -7    1.52    0.43
   0  -7   7    1.09    0.40
   0   7  -7    1.11    0.49
   0   7   7    1.62    0.56
   1   7   7    6.21    0.80
   1  -7   7    5.96    0.66
  -1   7  -7    6.09    0.79
  -1  -7  -7    6.40    0.72
   2   7   7    0.41    0.48
  -2   7  -7    0.08    0.39
  -2  -7  -7    0.22    0.36
   2  -7   7    0.28    0.33
   3  -7   7    7.47    0.78
   3   7   7    7.42    0.90
  -3  -7  -7    7.60    0.82
  -3   7  -7    8.71    0.92
   4  -7   7    2.22    0.51
  -4  -7  -7    2.31    0.52
   4   7   7    1.18    0.56
  -5  -7  -7    1.30    0.48
   5   7   7    1.54    0.65
   5  -7   7    1.15    0.49
  -6  -7  -7    2.02    0.50
   6   7   7    0.68    0.62
   9   8  -7    0.23    0.47
   8   8  -7    4.05    0.77
  -8  -8   7    4.27    0.75
   7   8  -7    2.79    0.68
  -7  -8   7    1.94    0.57
   6   8  -7    0.80    0.52
   6  -8  -7    0.18    0.32
  -6  -8   7    0.38    0.43
   5  -8  -7    4.07    0.57
   5   8  -7    3.53    0.74
  -5  -8   7    4.47    0.66
   4   8  -7    1.39    0.57
  -4  -8   7    1.16    0.45
   4  -8  -7    1.36    0.43
   3   8  -7    5.26    0.82
   3  -8  -7    4.74    0.64
  -3  -8   7    4.30    0.63
  -2  -8   7    0.78    0.40
   2   8  -7    0.87    0.50
   2  -8  -7    0.86    0.42
  -1  -8   7    0.76    0.42
   1  -8  -7    1.18    0.45
   1   8  -7    0.99    0.51
   0   8  -7    3.16    0.68
   0  -8   7    3.43    0.58
   0  -8  -7    3.48    0.62
   1  -8   7    0.32    0.39
  -1   8  -7    0.94    0.47
  -1  -8  -7    0.42    0.40
  -2  -8  -7    2.04    0.54
  -2   8  -7    1.55    0.53
   2  -8   7    1.55    0.48
   3  -8   7    0.54    0.41
  -3   8  -7    0.69    0.44
  -3  -8  -7    0.27    0.39
   6  -9  -7    0.71    0.38
   5  -9  -7    0.65    0.39
   4  -9  -7   -0.06    0.35
   3  -9  -7    0.43    0.41
  -3  -9   7    0.44    0.41
   2   9  -7    1.20    0.56
   2  -9  -7    1.49    0.51
  -2  -9   7    1.70    0.49
 -15   0   8    0.10    0.41
  15   0  -8   -0.33    0.38
  14   0  -8    9.79    0.93
 -14   0   8    9.31    0.99
 -13   0   8   -0.04    0.36
  13   0  -8    0.21    0.36
  12   0  -8   12.13    0.99
 -12   0   8   10.60    1.02
  11   0  -8    3.38    0.54
 -11   0   8    3.14    0.59
  10   0  -8    8.10    0.73
 -10   0   8    7.75    0.80
   9   0  -8   12.83    0.98
  -9   0   8   13.84    1.08
   8   0  -8    4.97    0.50
  -8   0   8    4.01    0.58
  -7   0   8    0.87    0.37
   7   0  -8    0.99    0.28
   7   0  -8    0.88    0.27
   6   0  -8   11.88    0.87
  -6   0   8   10.41    0.92
  -5   0   8   31.87    1.86
   5   0  -8   32.54    1.98
  -5   0   8   29.33    1.95
  -4   0   8   72.99    4.20
   4   0  -8   69.88    4.33
  -4   0   8   78.28    4.12
   3   0  -8    1.76    0.36
  -3   0   8    1.77    0.24
  -3   0   8    1.34    0.37
  -2   0   8   31.29    2.04
   2   0  -8   36.20    2.17
  -2   0   8   34.47    1.91
   1   0  -8    7.04    0.75
  -1   0   8   11.19    0.79
   0   0   8   43.34    2.65
   0   0  -8   47.09    2.80
   1   0   8   22.70    1.50
  -1   0  -8   22.50    1.54
   2   0   8   12.89    1.00
  -2   0  -8   12.35    0.99
   3   0   8    7.53    0.77
  -3   0  -8    7.80    0.74
  -4   0  -8    0.20    0.31
   4   0   8    0.33    0.41
  -5   0  -8    8.87    0.82
  -5   0  -8    7.74    0.81
  -6   0  -8   -0.02    0.35
  -7   0  -8    0.00    0.40
  -8   0  -8    4.38    0.77
  15   1  -8    2.55    0.62
  15  -1  -8    4.30    0.68
 -15  -1   8    3.57    0.68
  14  -1  -8    1.55    0.49
  14   1  -8    1.65    0.50
 -14   1   8    1.52    0.54
 -14  -1   8    1.16    0.48
 -13  -1   8    0.34    0.39
 -13   1   8   -0.11    0.36
  13   1  -8   -0.07    0.34
  13  -1  -8    0.23    0.35
 -12   1   8    5.27    0.76
  12  -1  -8    4.13    0.61
 -12  -1   8    4.34    0.65
  12   1  -8    4.95    0.61
 -11  -1   8    8.15    0.80
 -11   1   8    6.37    0.79
  11   1  -8    6.54    0.73
  11  -1  -8    8.62    0.76
  10   1  -8    7.54    0.70
 -10  -1   8    4.90    0.64
  10  -1  -8    5.04    0.61
 -10   1   8    6.82    0.77
  -9   1   8    7.01    0.76
  -9  -1   8    6.71    0.70
   9   1  -8    7.50    0.69
   9  -1  -8    7.19    0.66
   8  -1  -8   21.75    1.38
  -8   1   8   18.13    1.47
  -8  -1   8   21.89    1.44
   8  -1  -8   23.67    1.39
  -8  -1   8   20.37    1.43
   8   1  -8   21.25    1.40
  -7  -1   8   12.13    1.03
  -7  -1   8   13.24    1.01
   7  -1  -8   12.85    0.99
  -7   1   8   18.06    1.18
  -6  -1   8    4.27    0.53
   6  -1  -8    4.70    0.43
   6  -1  -8    4.50    0.48
  -6   1   8    3.19    0.55
   6   1  -8    3.62    0.47
  -6  -1   8    4.25    0.48
  -5   1   8    3.21    0.54
  -5  -1   8    3.65    0.40
   5  -1  -8    3.75    0.45
   5  -1  -8    3.68    0.35
   5   1  -8    3.71    0.46
  -5  -1   8    2.82    0.47
   4  -1  -8   17.32    1.28
  -4  -1   8   18.38    1.15
  -4  -1   8   18.28    1.26
  -4   1   8   19.91    1.33
   4   1  -8   20.11    1.31
  -3  -1   8    8.33    0.69
  -3  -1   8    8.89    0.56
   3  -1  -8    8.69    0.71
   3   1  -8    6.66    0.68
  -3   1   8    5.92    0.69
  -1  -1   8    1.88    0.24
  -1  -1   8    1.82    0.35
   1  -1  -8    1.31    0.34
  -1   1   8    0.85    0.33
   1   1  -8    1.18    0.34
   0   1  -8    1.30    0.37
   0  -1  -8    1.75    0.38
   0  -1   8    1.79    0.25
   0  -1   8    2.17    0.38
   0   1   8    1.37    0.39
   1  -1   8    8.44    0.59
  -1  -1  -8    7.84    0.75
  -1   1  -8    8.22    0.76
   1   1   8    7.89    0.75
   2  -1   8   18.86    1.30
  -2  -1  -8   19.91    1.37
  -2   1  -8   18.28    1.35
   2   1   8   18.39    1.33
   3   1   8    5.44    0.69
  -3   1  -8    5.73    0.63
   3  -1   8    5.51    0.65
  -3  -1  -8    5.66    0.64
   4   1   8    5.75    0.74
  -4   1  -8    6.06    0.67
  -4  -1  -8    6.11    0.67
  -5   1  -8    4.75    0.62
   5   1   8    4.23    0.72
  -5  -1  -8    4.54    0.58
  -6   1  -8    4.93    0.71
  -7   1  -8    2.23    0.55
  -7  -1  -8    1.91    0.55
  -8  -1  -8    0.66    0.50
  -8   1  -8    1.09    0.49
  15  -2  -8    2.56    0.61
 -15  -2   8    2.97    0.62
 -14   2   8   -0.08    0.40
  14  -2  -8    0.00    0.39
  14   2  -8    0.02    0.38
 -14  -2   8    0.20    0.38
 -13   2   8    6.03    0.81
 -13  -2   8    5.14    0.70
  13   2  -8    5.26    0.70
  13  -2  -8    5.07    0.70
 -12  -2   8    2.24    0.52
  12  -2  -8    3.38    0.56
  12   2  -8    2.04    0.49
 -12   2   8    2.17    0.59
  11   2  -8    0.85    0.40
 -11   2   8    1.05    0.49
  11  -2  -8    0.74    0.35
 -11  -2   8    1.02    0.39
 -10   2   8   13.82    1.18
  10  -2  -8   13.69    1.04
 -10  -2   8   13.26    1.05
   9  -2  -8   17.61    1.20
  -9  -2   8   17.86    1.28
  -9   2   8   15.88    1.31
  -9  -2   8   17.46    1.22
  -8  -2   8    7.30    0.69
   8   2  -8    7.74    0.68
   8  -2  -8    7.73    0.63
  -8  -2   8    7.06    0.71
  -8   2   8    7.52    0.82
   8  -2  -8    7.25    0.65
  -7  -2   8    9.04    0.77
   7  -2  -8    9.11    0.70
   7  -2  -8    9.22    0.74
  -7  -2   8    8.55    0.75
  -7   2   8    9.38    0.90
   7   2  -8    9.35    0.77
  -6  -2   8    7.76    0.67
  -6  -2   8    7.52    0.69
   6  -2  -8    7.90    0.70
   6  -2  -8    8.20    0.62
   6   2  -8    8.93    0.73
  -6   2   8    8.90    0.83
  -5  -2   8    6.03    0.57
  -5  -2   8    5.76    0.53
   5  -2  -8    5.84    0.58
   4   2  -8   20.74    1.49
  -4  -2   8   22.86    1.42
  -4  -2   8   22.77    1.37
   4  -2  -8   22.86    1.50
   3  -2  -8    1.57    0.36
  -3  -2   8    3.39    0.41
  -3   2   8    1.67    0.42
  -3  -2   8    3.19    0.34
   3   2  -8    2.60    0.43
  -2   2   8    0.43    0.32
   2  -2  -8    0.98    0.32
  -2  -2   8    2.15    0.28
   2   2  -8    0.84    0.32
  -2  -2   8    1.74    0.32
  -1   2   8   16.16    1.18
  -1  -2   8   15.30    1.09
   1   2  -8   18.50    1.24
  -1  -2   8   16.17    1.03
   0   2   8    2.07    0.46
   0   2  -8    2.35    0.46
   0  -2  -8    4.14    0.52
   0  -2   8    4.23    0.39
   0  -2   8    4.27    0.47
   1   2   8   24.67    1.67
  -1  -2  -8   23.48    1.69
   1  -2   8   25.90    1.60
  -1   2  -8   26.95    1.74
   1  -2   8   26.44    1.54
   2  -2   8    6.54    0.64
  -2  -2  -8    6.51    0.66
   2  -2   8    6.27    0.55
  -2   2  -8    5.92    0.66
   2   2   8    5.57    0.72
   3   2   8    0.75    0.44
  -3   2  -8    0.47    0.34
   3  -2   8    1.10    0.31
   3  -2   8    1.41    0.43
  -3  -2  -8    0.91    0.36
  -4  -2  -8    3.88    0.55
   4   2   8    3.93    0.69
  -4   2  -8    4.06    0.58
   4  -2   8    3.34    0.47
  -4   2  -8    3.98    0.56
   5   2   8    4.65    0.77
  -5   2  -8    4.92    0.65
  -5  -2  -8    5.76    0.62
   6   2   8    0.77    0.56
  -6   2  -8    1.39    0.47
  -7   2  -8    0.89    0.46
   7   2   8    0.55    0.57
  -8   2  -8    4.15    0.71
 -14   3   8    0.79    0.51
  14   3  -8    0.41    0.43
  14  -3  -8    0.50    0.43
  13  -3  -8    0.72    0.44
  13   3  -8    0.89    0.48
 -13   3   8    1.18    0.54
  12  -3  -8    1.84    0.48
  12   3  -8    2.65    0.56
 -12   3   8    2.12    0.59
  11  -3  -8    0.70    0.38
 -11   3   8    1.62    0.56
 -10  -3   8   10.16    0.91
  10  -3  -8    8.32    0.78
 -10   3   8    8.03    0.92
  -9   3   8    8.96    0.94
   9  -3  -8    9.06    0.77
   9   3  -8    8.44    0.77
  -9  -3   8    9.85    0.87
   8  -3  -8    6.43    0.63
   8  -3  -8    6.83    0.67
  -8  -3   8    6.65    0.74
  -8   3   8    9.48    0.91
   8   3  -8   10.27    0.77
   7   3  -8   40.28    2.62
   7  -3  -8   43.88    2.57
  -7  -3   8   46.83    2.58
  -7   3   8   39.15    2.66
  -6   3   8    9.46    0.88
   6   3  -8    8.33    0.75
  -6  -3   8    7.16    0.69
   5  -3  -8   21.10    1.41
   5   3  -8   20.22    1.45
  -5  -3   8   21.69    1.35
   4  -3  -8   44.12    2.69
   4   3  -8   46.20    2.74
  -4  -3   8   39.53    2.54
  -4   3   8   46.02    2.73
   3   3  -8   11.43    0.90
  -3   3   8   11.68    0.94
  -3  -3   8    9.27    0.73
   3  -3  -8    9.25    0.83
  -2  -3   8    8.66    0.68
   2   3  -8   10.22    0.83
  -2   3   8    9.35    0.84
   2  -3  -8    8.56    0.78
   1  -3  -8    4.45    0.55
  -1   3   8    4.12    0.59
   1   3  -8    5.01    0.57
  -1  -3   8    3.94    0.44
   0   3   8    5.70    0.68
   0   3  -8    6.23    0.69
   0  -3  -8    7.12    0.67
   1  -3   8    3.13    0.41
  -1  -3  -8    3.47    0.50
  -1   3  -8    2.78    0.51
   1   3   8    3.01    0.56
   1  -3   8    3.52    0.45
   2  -3   8    8.54    0.64
  -2  -3  -8    6.67    0.69
   2   3   8    6.34    0.77
  -2   3  -8    6.84    0.73
   2  -3   8    7.63    0.68
  -3   3  -8    2.61    0.50
  -3  -3  -8    1.80    0.43
   3  -3   8    1.85    0.38
   3   3   8    3.62    0.64
  -4  -3  -8    1.23    0.39
   4  -3   8    0.97    0.36
   4   3   8    2.07    0.58
  -4   3  -8    1.54    0.44
  -5  -3  -8    0.57    0.34
   5  -3   8    0.77    0.36
   5   3   8    0.33    0.50
   6  -3   8    1.96    0.47
   6   3   8    2.31    0.69
   7   3   8    1.81    0.69
  14  -4  -8    3.73    0.67
 -13   4   8    1.30    0.57
  13  -4  -8    1.01    0.47
  13   4  -8    1.25    0.52
 -12   4   8    4.10    0.74
  12  -4  -8    3.37    0.58
  11  -4  -8    1.84    0.47
 -11   4   8    2.08    0.60
 -11  -4   8    1.68    0.55
 -10  -4   8    2.44    0.57
  10  -4  -8    2.34    0.46
 -10   4   8    2.06    0.61
  -9   4   8    8.61    0.97
  -9  -4   8    9.50    0.90
   9   4  -8    9.42    0.84
  -8   4   8    2.36    0.62
   8   4  -8    2.75    0.51
  -8  -4   8    4.33    0.59
  -7  -4   8    6.63    0.67
   7   4  -8    6.74    0.70
   7  -4  -8    6.56    0.61
  -7   4   8    6.02    0.80
  -6   4   8    3.18    0.64
   6   4  -8    3.62    0.55
   6  -4  -8    2.03    0.40
  -6  -4   8    2.71    0.46
  -5   4   8   28.93    1.87
  -5  -4   8   25.00    1.67
   5   4  -8   27.61    1.83
   5  -4  -8   25.07    1.72
  -4  -4   8   12.91    0.93
  -4   4   8   13.08    1.13
   4   4  -8   12.62    1.06
   4  -4  -8   13.00    0.99
  -3   4   8   16.76    1.31
   3  -4  -8   17.22    1.24
   3   4  -8   17.94    1.31
  -3  -4   8   17.23    1.14
   2   4  -8    8.94    0.81
   2  -4  -8    7.48    0.74
  -2  -4   8    7.96    0.66
  -2   4   8    8.59    0.84
   1  -4  -8    5.67    0.60
   1   4  -8    3.49    0.58
  -1  -4   8    5.68    0.51
  -1   4   8    3.60    0.60
   0  -4   8   11.11    0.82
   0   4  -8   11.84    0.98
   0   4   8   10.42    0.96
   0  -4  -8   10.68    0.91
  -1   4  -8    1.06    0.41
   1  -4   8    1.94    0.36
   1   4   8    1.34    0.48
  -1  -4  -8    2.03    0.44
  -2   4  -8    0.34    0.34
  -2  -4  -8    0.42    0.34
   2   4   8    0.47    0.43
   2  -4   8    0.87    0.32
  -3  -4  -8    3.79    0.55
  -3   4  -8    3.63    0.58
   3   4   8    3.58    0.66
   3  -4   8    3.70    0.50
   4  -4   8    1.09    0.38
  -4   4  -8    1.56    0.46
   4   4   8    1.55    0.56
  -4  -4  -8    1.84    0.45
   5   4   8    0.79    0.55
   5  -4   8    0.59    0.36
  -5  -4  -8    0.67    0.37
   6   4   8    0.14    0.53
   6  -4   8    0.08    0.34
   7   4   8    0.06    0.57
   7  -4   8    0.19    0.39
 -13   5   8    3.13    0.74
 -12  -5   8    2.79    0.67
 -12   5   8    1.85    0.62
 -11   5   8    6.31    0.86
 -11  -5   8    5.05    0.80
 -10   5   8    1.13    0.54
 -10  -5   8    0.95    0.49
  -9   5   8    0.94    0.53
   9   5  -8    1.12    0.44
  -9  -5   8    1.52    0.51
   8   5  -8   11.79    1.06
  -8   5   8   12.80    1.16
  -8  -5   8   12.23    1.03
  -7  -5   8    0.81    0.39
   7  -5  -8    0.93    0.33
   7   5  -8    2.17    0.51
  -7   5   8    2.58    0.64
   6  -5  -8   16.64    1.18
   6   5  -8   16.70    1.30
  -6  -5   8   18.64    1.22
  -6   5   8   13.82    1.29
   5  -5  -8    6.76    0.69
  -5  -5   8    7.16    0.69
  -5   5   8    7.59    0.87
   5   5  -8    7.51    0.80
   4   5  -8    0.29    0.36
   4  -5  -8    0.25    0.29
  -4   5   8   -0.11    0.39
  -4  -5   8    0.04    0.27
   3   5  -8   24.83    1.77
   3  -5  -8   24.55    1.68
  -3   5   8   26.49    1.77
  -3  -5   8   24.17    1.58
  -2  -5   8    4.38    0.52
  -2   5   8    4.22    0.68
   2   5  -8    5.33    0.67
   2  -5  -8    4.83    0.58
   1  -5  -8    0.17    0.30
   1   5  -8    0.07    0.32
  -1  -5   8   -0.13    0.24
  -1   5   8    0.22    0.40
   0  -5  -8    2.48    0.48
   0  -5   8    1.95    0.40
   0   5  -8    3.09    0.56
   0   5   8    2.67    0.57
   1  -5   8    2.71    0.44
   1   5   8    1.71    0.54
  -1   5  -8    2.53    0.52
  -1  -5  -8    3.30    0.54
  -2  -5  -8    2.88    0.51
   2  -5   8    2.07    0.42
  -2   5  -8    1.68    0.47
   2   5   8    1.56    0.55
  -3   5  -8    2.12    0.51
   3  -5   8    1.36    0.39
   3   5   8    1.60    0.58
  -3  -5  -8    1.69    0.46
   4  -5   8    1.36    0.40
   4   5   8    1.31    0.57
  -4   5  -8    1.41    0.47
  -4  -5  -8    1.21    0.43
  -5  -5  -8   -0.05    0.34
   5   5   8   -0.29    0.49
   5  -5   8    0.21    0.35
   6   5   8    5.32    0.92
   6  -5   8    3.67    0.60
   7  -5   8    0.31    0.39
 -12   6   8    0.96    0.52
 -11   6   8    2.65    0.67
 -11  -6   8    2.74    0.69
 -10  -6   8    1.73    0.59
 -10   6   8    1.80    0.61
   9   6  -8    2.35    0.57
  -9   6   8    2.03    0.60
  -9  -6   8    2.02    0.56
  -8   6   8    1.97    0.60
  -8  -6   8    1.33    0.48
   8   6  -8    1.59    0.53
  -7  -6   8    1.05    0.43
   7   6  -8    1.37    0.52
  -7   6   8    1.24    0.54
   7  -6  -8    1.51    0.38
  -6   6   8    2.65    0.64
   6   6  -8    3.48    0.64
  -6  -6   8    1.63    0.46
   6  -6  -8    1.82    0.41
  -5  -6   8   13.05    1.02
   5  -6  -8   13.13    1.01
   5   6  -8   12.11    1.14
  -5   6   8   12.52    1.15
  -4  -6   8    5.17    0.60
  -4   6   8    4.89    0.79
   4  -6  -8    4.61    0.59
   4   6  -8    4.85    0.71
  -3  -6   8    0.41    0.32
  -3   6   8    0.63    0.49
   3   6  -8    0.71    0.42
   3  -6  -8    0.14    0.32
   2   6  -8    2.34    0.56
  -2   6   8    2.71    0.59
  -2  -6   8    2.60    0.46
   2  -6  -8    2.23    0.48
   1   6  -8    4.39    0.69
  -1  -6   8    4.13    0.54
  -1   6   8    4.13    0.70
   1  -6  -8    4.70    0.60
   0   6  -8    1.07    0.45
   0  -6  -8    2.11    0.48
   0  -6   8    2.45    0.45
   0   6   8    1.25    0.51
   1  -6   8    4.07    0.56
  -1  -6  -8    4.31    0.61
   1   6   8    5.26    0.76
  -1   6  -8    4.53    0.71
   2   6   8    5.01    0.77
  -2  -6  -8    4.17    0.61
   2  -6   8    4.78    0.59
  -2   6  -8    4.71    0.67
   3  -6   8    2.67    0.50
  -3   6  -8    1.94    0.53
  -3  -6  -8    2.59    0.53
   3   6   8    2.10    0.63
   4   6   8    1.31    0.58
   4  -6   8    0.56    0.38
  -4  -6  -8    0.69    0.40
   5   6   8    4.49    0.89
  -5  -6  -8    6.80    0.75
   5  -6   8    6.61    0.73
   6  -6   8    0.24    0.41
 -11   7   8    1.13    0.55
 -10  -7   8    2.71    0.69
 -10   7   8    2.05    0.60
   9   7  -8    3.52    0.71
  -9  -7   8    3.58    0.70
  -9   7   8    3.11    0.67
   8   7  -8    0.64    0.48
  -8  -7   8    0.32    0.42
  -8   7   8    0.76    0.50
   7   7  -8    7.14    0.87
  -7   7   8    6.18    0.82
  -7  -7   8    5.38    0.74
   7  -7  -8    5.63    0.65
  -6  -7   8    2.44    0.53
   6  -7  -8    2.79    0.49
  -6   7   8    1.18    0.55
   6   7  -8    1.75    0.58
  -5   7   8   -0.09    0.41
   5  -7  -8    0.05    0.29
   5   7  -8    0.41    0.46
  -5  -7   8    0.00    0.35
   4   7  -8    0.65    0.49
  -4   7   8    0.09    0.46
   4  -7  -8    0.31    0.34
  -4  -7   8    0.11    0.34
  -3   7   8    3.28    0.73
  -3  -7   8    5.21    0.60
   3   7  -8    3.53    0.70
   3  -7  -8    5.16    0.63
  -2   7   8    3.79    0.73
  -2  -7   8    3.99    0.56
   2   7  -8    4.28    0.74
   2  -7  -8    4.35    0.61
  -1   7   8   -0.01    0.43
  -1  -7   8   -0.19    0.31
   1   7  -8    0.07    0.39
   1  -7  -8    0.39    0.37
   0   7  -8    1.01    0.48
   0  -7   8    0.49    0.36
   0  -7  -8    0.74    0.40
   0   7   8    0.24    0.46
   1  -7   8    4.14    0.59
  -1   7  -8    4.04    0.72
  -1  -7  -8    3.29    0.62
   1   7   8    3.92    0.72
   2  -7   8   -0.11    0.33
  -2   7  -8    0.27    0.40
   2   7   8   -0.02    0.41
  -2  -7  -8    0.03    0.35
   3   7   8    1.76    0.64
   3  -7   8    1.69    0.47
  -3  -7  -8    1.81    0.52
  -3   7  -8    1.64    0.51
   4   7   8    0.18    0.48
  -4  -7  -8   -0.21    0.37
   4  -7   8   -0.07    0.38
   9   8  -8    0.96    0.53
   8   8  -8    0.67    0.56
  -7  -8   8    0.16    0.43
   7   8  -8   -0.04    0.46
  -6  -8   8    1.97    0.55
   6   8  -8    2.51    0.68
   6  -8  -8    1.73    0.46
   5  -8  -8    0.23    0.33
   5   8  -8    0.56    0.52
  -5  -8   8   -0.23    0.37
   4   8  -8    0.49    0.48
   4  -8  -8    0.33    0.37
  -4  -8   8    1.01    0.44
  -3  -8   8   -0.08    0.35
   3  -8  -8    0.47    0.39
   3   8  -8    0.29    0.46
  -2  -8   8    0.17    0.38
   2   8  -8    0.14    0.46
   2  -8  -8    0.33    0.39
  -1  -8   8    3.24    0.56
   1   8  -8    1.97    0.60
   1  -8  -8    2.58    0.57
   0  -8  -8    0.07    0.38
   0  -8   8    0.18    0.39
   0   8  -8    0.76    0.47
  -1   8  -8    3.67    0.73
   1  -8   8    3.90    0.62
  -1  -8  -8    3.81    0.67
  -2   8  -8    1.69    0.55
  -3   8  -8    0.87    0.46
   6  -9  -8    0.93    0.42
   5  -9  -8    0.25    0.38
  15   0  -9    2.18    0.56
 -15   0   9    1.91    0.58
 -14   0   9    0.81    0.46
  14   0  -9    0.57    0.41
 -13   0   9   -0.03    0.39
  13   0  -9    0.18    0.35
  12   0  -9   13.65    1.07
 -12   0   9   12.03    1.10
 -11   0   9    1.84    0.50
  11   0  -9    2.82    0.49
  10   0  -9   19.24    1.33
 -10   0   9   19.66    1.45
  -9   0   9    1.73    0.47
   9   0  -9    1.92    0.38
  -8   0   9    0.49    0.38
   8   0  -9    0.39    0.25
   8   0  -9    0.29    0.26
   7   0  -9    6.54    0.63
  -7   0   9    5.60    0.68
   5   0  -9    1.48    0.36
  -5   0   9    2.19    0.48
  -5   0   9    2.64    0.36
  -4   0   9    5.38    0.63
  -3   0   9   29.26    1.85
  -1   0   9    9.24    0.80
   1   0  -9    9.72    0.84
   0   0  -9    0.27    0.31
   0   0   9    0.26    0.33
   1   0   9    1.25    0.41
  -1   0  -9    0.92    0.38
  -2   0  -9   19.68    1.43
   2   0   9   19.81    1.41
   3   0   9    0.80    0.43
  -3   0  -9    0.60    0.37
  -4   0  -9    9.62    0.92
   4   0   9   10.23    0.97
   5   0   9    1.43    0.55
   6   0   9    0.13    0.47
  15   1  -9    1.38    0.53
 -15  -1   9    1.10    0.49
  15  -1  -9    1.60    0.52
  14  -1  -9    0.70    0.43
 -14   1   9    1.40    0.55
  14   1  -9    0.66    0.43
 -14  -1   9    0.94    0.46
  13  -1  -9    2.99    0.57
  13   1  -9    2.94    0.57
 -13  -1   9    2.71    0.58
 -13   1   9    3.52    0.70
  12   1  -9    6.99    0.72
 -12   1   9    6.61    0.80
 -12  -1   9    5.39    0.73
  12  -1  -9    6.41    0.70
 -11  -1   9    4.35    0.63
 -11   1   9    5.33    0.71
  11  -1  -9    3.99    0.59
  11   1  -9    4.93    0.62
  10   1  -9    1.23    0.38
  10  -1  -9    0.71    0.34
 -10  -1   9    0.62    0.37
 -10   1   9    1.13    0.48
  -9  -1   9   11.68    0.95
   9  -1  -9   12.36    0.88
   9   1  -9    9.53    0.86
   9   1  -9   10.44    0.86
  -9   1   9    9.96    0.99
  -8  -1   9   17.36    1.31
   8  -1  -9   19.47    1.25
  -8   1   9   19.12    1.41
  -8  -1   9   17.98    1.29
   8  -1  -9   19.19    1.28
   7  -1  -9   32.56    1.93
  -7  -1   9   32.75    1.89
  -7  -1   9   26.95    1.89
  -7   1   9   26.41    1.95
   7  -1  -9   31.48    1.82
  -6  -1   9    5.72    0.64
   6  -1  -9    4.51    0.55
   6   1  -9    5.30    0.60
  -6  -1   9    6.57    0.57
  -6   1   9    5.65    0.70
  -5  -1   9    0.74    0.36
  -5  -1   9    1.16    0.27
   5  -1  -9    0.51    0.30
   5   1  -9    1.20    0.35
  -5   1   9    1.21    0.42
  -4  -1   9   19.74    1.19
  -4  -1   9   19.87    1.32
  -4   1   9   17.13    1.33
   4   1  -9   19.33    1.36
   4  -1  -9   19.83    1.35
  -3  -1   9    1.69    0.40
   3  -1  -9    1.57    0.39
  -3   1   9    1.53    0.41
   3   1  -9    1.87    0.40
  -3  -1   9    1.31    0.24
  -2  -1   9    3.24    0.47
   2  -1  -9    3.70    0.53
   2   1  -9    4.16    0.54
  -2   1   9    2.56    0.48
  -2  -1   9    3.54    0.34
  -1  -1   9   24.90    1.67
   1   1  -9   26.39    1.80
   1  -1  -9   28.47    1.81
   0   1  -9   16.74    1.16
   0   1   9   16.17    1.13
   0  -1   9   11.82    1.02
   0  -1  -9   11.91    1.08
   1   1   9   -0.20    0.32
  -1  -1  -9    1.00    0.38
  -1   1  -9    0.18    0.32
   1  -1   9    0.61    0.37
  -2  -1  -9   13.75    1.08
   2   1   9   12.95    1.10
  -2   1  -9   12.75    1.07
   2  -1   9   12.44    1.02
   3  -1   9    9.39    0.89
  -3   1  -9    9.94    0.90
  -3  -1  -9    9.48    0.88
   3   1   9    9.89    0.94
   4   1   9    0.56    0.51
   4  -1   9    1.39    0.50
  -4  -1  -9    1.34    0.43
  -4   1  -9    0.77    0.40
   5   1   9    0.40    0.49
   5  -1   9   -0.06    0.44
  -5  -1  -9    0.25    0.34
   6   1   9    0.61    0.55
   7   1   9    0.32    0.56
  -7   1  -9    0.18    0.40
  -8   1  -9    1.60    0.62
  15  -2  -9    0.74    0.46
 -15  -2   9    0.25    0.37
 -14   2   9    2.45    0.65
  14   2  -9    2.38    0.56
  14  -2  -9    3.23    0.61
 -14  -2   9    2.73    0.60
  13  -2  -9    1.58    0.49
 -13  -2   9    1.90    0.50
  13   2  -9    1.55    0.49
 -13   2   9    2.64    0.64
 -12   2   9    2.67    0.62
 -12  -2   9    2.64    0.53
  12   2  -9    2.07    0.52
  12  -2  -9    2.59    0.51
  11   2  -9   14.13    1.09
  11  -2  -9   13.19    1.04
 -11  -2   9   11.92    1.04
 -11   2   9   12.29    1.17
  10  -2  -9    1.83    0.42
 -10   2   9    2.58    0.61
 -10  -2   9    1.66    0.44
  -9  -2   9    7.91    0.76
   9   2  -9    9.87    0.78
  -9  -2   9    8.05    0.81
  -9   2   9    8.91    0.93
   9  -2  -9    8.51    0.74
   8  -2  -9    1.36    0.34
  -8  -2   9    2.60    0.46
  -8  -2   9    2.35    0.44
  -8   2   9    1.98    0.55
   8   2  -9    2.21    0.41
  -7  -2   9    2.24    0.41
   7  -2  -9    2.33    0.40
  -7  -2   9    2.07    0.44
   7   2  -9    1.28    0.37
  -7   2   9    1.90    0.54
   6   2  -9   33.61    2.20
  -6  -2   9   35.03    2.12
  -6   2   9   35.34    2.25
  -5  -2   9    2.35    0.42
   5   2  -9    2.02    0.43
  -5  -2   9    2.02    0.33
  -5   2   9    1.49    0.48
   5  -2  -9    1.87    0.39
  -4  -2   9    4.26    0.42
  -4  -2   9    4.05    0.49
   4   2  -9    3.90    0.54
  -4   2   9    3.07    0.56
  -3   2   9    5.07    0.64
   3   2  -9    5.09    0.60
   3  -2  -9    4.61    0.59
  -3  -2   9    5.67    0.47
  -3  -2   9    5.53    0.56
   2  -2  -9    9.04    0.82
  -2  -2   9    9.37    0.65
  -2   2   9    8.07    0.81
  -2  -2   9    8.91    0.73
   2   2  -9    9.24    0.81
   1  -2  -9    7.45    0.72
  -1   2   9    5.02    0.66
   1   2  -9    5.83    0.68
  -1  -2   9    7.10    0.64
  -1  -2   9    8.13    0.56
   0  -2   9    7.64    0.71
   0   2   9    7.41    0.77
   0  -2  -9    7.65    0.76
   0   2  -9    7.74    0.77
   0  -2   9    7.35    0.59
   1  -2   9    5.20    0.50
   1  -2   9    4.80    0.62
  -1   2  -9    5.29    0.65
   1   2   9    5.43    0.70
  -1  -2  -9    5.57    0.66
  -2   2  -9    1.65    0.47
   2  -2   9    2.60    0.51
   2   2   9    1.84    0.53
  -2  -2  -9    2.66    0.50
  -3   2  -9   17.87    1.34
  -3  -2  -9   17.22    1.30
   3   2   9   16.38    1.34
   3  -2   9   18.20    1.30
  -4   2  -9    0.08    0.33
   4   2   9    0.32    0.48
  -4  -2  -9    0.48    0.36
   4  -2   9    0.47    0.44
  -5  -2  -9    0.80    0.38
   5   2   9    1.23    0.59
   6   2   9    0.38    0.56
  -7   2  -9    0.33    0.44
   7   2   9    0.14    0.54
  -8   2  -9    1.25    0.55
 -14   3   9    2.53    0.72
  14  -3  -9    2.50    0.56
  13   3  -9    2.73    0.61
 -13   3   9    3.57    0.74
  13  -3  -9    3.78    0.61
  12  -3  -9    5.17    0.67
  12   3  -9    5.57    0.74
 -12   3   9    5.65    0.85
 -11   3   9   -0.23    0.43
 -11  -3   9    0.51    0.42
 -10   3   9    2.15    0.62
 -10  -3   9    3.93    0.63
  -9  -3   9    3.89    0.61
   9   3  -9    3.58    0.54
  -9   3   9    3.37    0.72
  -8   3   9   19.81    1.55
   8   3  -9   21.02    1.45
   8  -3  -9   18.97    1.36
  -8  -3   9   21.83    1.44
   7  -3  -9    0.31    0.27
   7   3  -9    0.57    0.34
  -7   3   9    0.88    0.50
  -7  -3   9    0.48    0.31
   6   3  -9    3.23    0.52
  -6   3   9    3.98    0.70
   6  -3  -9    3.49    0.48
  -6  -3   9    3.72    0.48
   5  -3  -9   24.64    1.71
   5   3  -9   26.10    1.77
  -5   3   9   26.08    1.81
  -5  -3   9   27.32    1.63
  -4  -3   9    6.51    0.52
   4  -3  -9    6.33    0.61
  -4   3   9    2.78    0.62
   4   3  -9    3.75    0.58
  -3   3   9   16.97    1.29
   3   3  -9   16.79    1.29
   3  -3  -9   17.45    1.26
  -3  -3   9   17.70    1.12
   2  -3  -9    0.45    0.31
   2   3  -9    0.22    0.32
  -2  -3   9    0.30    0.23
  -2   3   9    0.28    0.36
   1  -3  -9    0.77    0.36
   1   3  -9    1.09    0.41
  -1  -3   9    0.72    0.27
   0  -3  -9   13.37    1.09
   0   3   9   13.75    1.13
   0   3  -9   14.54    1.15
   0  -3   9   14.54    0.96
   1  -3   9    2.62    0.42
  -1  -3  -9    3.70    0.56
  -1   3  -9    4.79    0.60
   1   3   9    4.71    0.69
   2   3   9    2.57    0.61
  -2   3  -9    3.09    0.56
  -2  -3  -9    3.57    0.55
   2  -3   9    3.49    0.45
  -3   3  -9    0.66    0.39
   3  -3   9    0.73    0.33
   3   3   9    0.84    0.51
  -3  -3  -9    0.82    0.40
  -4   3  -9    1.09    0.42
   4   3   9    1.13    0.56
  -4  -3  -9    1.02    0.42
  -5  -3  -9    0.35    0.34
   5   3   9    0.63    0.56
   6   3   9    0.80    0.62
  13   4  -9    2.54    0.62
 -13   4   9    1.93    0.64
 -12  -4   9    0.37    0.49
 -12   4   9    0.65    0.52
 -11  -4   9    6.78    0.83
 -11   4   9    5.77    0.90
 -10  -4   9   15.03    1.24
 -10   4   9   15.02    1.33
  -9  -4   9    4.11    0.63
  -9   4   9    2.97    0.71
   9   4  -9    3.04    0.53
  -8   4   9    5.98    0.85
   8  -4  -9    5.24    0.57
  -8  -4   9    4.84    0.64
   8   4  -9    5.42    0.65
   7   4  -9   12.62    1.04
  -7  -4   9   11.97    0.97
   7  -4  -9   11.14    0.94
  -7   4   9   13.49    1.18
   6   4  -9    9.75    0.99
   6  -4  -9   14.15    0.98
  -6  -4   9   14.64    0.98
  -6   4   9   10.48    1.10
   5   4  -9   18.76    1.30
  -5   4   9   17.54    1.37
  -5  -4   9   14.67    1.11
   5  -4  -9   14.11    1.16
   4  -4  -9    1.17    0.38
   4   4  -9    1.33    0.42
  -4   4   9    0.57    0.46
  -4  -4   9    0.94    0.32
   3   4  -9    6.10    0.68
  -3   4   9    5.81    0.74
  -3  -4   9    4.40    0.51
   3  -4  -9    4.25    0.58
   2  -4  -9    1.91    0.45
  -2  -4   9    2.24    0.38
   2   4  -9    2.24    0.49
  -2   4   9    1.80    0.51
   1   4  -9    9.90    0.89
  -1   4   9    8.85    0.89
  -1  -4   9    8.49    0.71
   1  -4  -9    8.57    0.83
   0   4  -9    3.99    0.63
   0  -4  -9    4.36    0.59
   0   4   9    3.97    0.65
   0  -4   9    3.94    0.48
   1  -4   9    1.20    0.34
  -1  -4  -9    1.55    0.45
  -1   4  -9    2.17    0.50
   1   4   9    1.70    0.54
   2  -4   9    7.84    0.74
  -2   4  -9    9.61    0.91
   2   4   9    9.97    0.96
  -2  -4  -9    8.22    0.84
  -3   4  -9    2.78    0.57
   3  -4   9    3.37    0.48
   3   4   9    2.70    0.65
  -3  -4  -9    3.32    0.56
   4  -4   9    0.99    0.39
  -4   4  -9    2.07    0.52
  -4  -4  -9    0.80    0.41
   4   4   9    1.23    0.58
  -5  -4  -9    1.91    0.48
   5   4   9    1.77    0.65
   6   4   9    0.47    0.60
 -12   5   9    1.91    0.66
 -12  -5   9    1.06    0.57
 -11  -5   9    0.85    0.52
 -11   5   9    1.11    0.60
 -10   5   9    0.66    0.51
 -10  -5   9    0.31    0.46
  -9   5   9    4.74    0.82
   9   5  -9    4.53    0.67
  -9  -5   9    5.26    0.71
  -8   5   9    2.53    0.66
  -8  -5   9    1.82    0.51
   8   5  -9    2.78    0.56
  -7  -5   9    5.98    0.69
  -7   5   9    5.88    0.89
   7  -5  -9    6.33    0.65
   7   5  -9    6.66    0.77
   6   5  -9    3.77    0.65
   6  -5  -9    3.45    0.52
  -6   5   9    3.88    0.73
  -6  -5   9    3.10    0.51
  -5  -5   9    1.44    0.40
  -5   5   9    0.62    0.51
   5   5  -9    0.79    0.44
   5  -5  -9    1.22    0.38
  -4  -5   9    2.89    0.47
  -4   5   9    2.35    0.63
   4  -5  -9    3.70    0.53
   4   5  -9    2.56    0.57
  -3  -5   9    1.71    0.37
  -3   5   9    0.48    0.46
   3   5  -9    1.08    0.44
   3  -5  -9    1.27    0.41
   2   5  -9    2.70    0.56
   2  -5  -9    1.66    0.45
  -2   5   9    2.06    0.57
  -2  -5   9    2.01    0.40
   1   5  -9    6.40    0.75
  -1  -5   9    6.51    0.62
  -1   5   9    5.55    0.76
   1  -5  -9    6.45    0.71
   0  -5   9    1.71    0.39
   0   5  -9    1.16    0.45
   0  -5  -9    1.54    0.44
   0   5   9    1.22    0.52
   1   5   9    4.09    0.73
   1  -5   9    4.28    0.54
  -1   5  -9    5.01    0.68
  -1  -5  -9    4.11    0.64
  -2  -5  -9    0.42    0.39
   2   5   9   -0.13    0.45
   2  -5   9    0.69    0.34
  -2   5  -9    0.56    0.41
   3  -5   9    0.82    0.37
  -3   5  -9    1.30    0.46
  -3  -5  -9    0.96    0.44
   3   5   9    0.77    0.54
   4  -5   9    2.92    0.51
   4   5   9    2.30    0.71
  -4  -5  -9    2.37    0.53
   5  -5   9    1.84    0.48
   5   5   9    1.99    0.69
  -5  -5  -9    1.13    0.45
   6  -5   9    0.78    0.45
 -11  -6   9    0.79    0.56
 -11   6   9    1.09    0.58
 -10  -6   9    3.35    0.71
 -10   6   9    2.80    0.70
   9   6  -9    1.78    0.54
  -9  -6   9    2.27    0.58
  -9   6   9    1.47    0.59
  -8  -6   9    0.81    0.44
  -8   6   9    0.26    0.47
   8   6  -9    0.55    0.44
   7  -6  -9    4.13    0.56
   7   6  -9    4.06    0.73
  -7  -6   9    5.06    0.65
  -7   6   9    4.16    0.77
   6   6  -9    2.56    0.59
   6  -6  -9    1.57    0.42
  -6  -6   9    1.56    0.47
  -6   6   9    2.15    0.64
  -5  -6   9    5.13    0.65
   5   6  -9    5.95    0.78
  -5   6   9    6.19    0.89
   5  -6  -9    5.48    0.66
  -4   6   9    0.21    0.48
  -4  -6   9    0.12    0.32
   4   6  -9    0.37    0.42
   4  -6  -9    0.23    0.32
   3   6  -9    2.70    0.59
  -3   6   9    2.35    0.65
   3  -6  -9    1.64    0.46
  -3  -6   9    1.40    0.40
  -2   6   9    5.80    0.79
   2   6  -9    5.52    0.75
  -2  -6   9    5.25    0.61
   2  -6  -9    5.55    0.68
  -1  -6   9    1.88    0.43
   1  -6  -9    2.58    0.53
   1   6  -9    1.58    0.51
  -1   6   9    1.65    0.56
   0   6  -9    0.96    0.45
   0   6   9    0.22    0.45
   0  -6  -9    1.06    0.43
   0  -6   9    0.82    0.36
  -1  -6  -9    1.30    0.46
   1   6   9    2.03    0.61
  -1   6  -9    1.67    0.53
   1  -6   9    1.20    0.40
  -2  -6  -9    3.25    0.60
   2   6   9    3.06    0.69
   2  -6   9    3.59    0.55
  -2   6  -9    3.66    0.67
   3   6   9    2.41    0.66
  -3   6  -9    3.26    0.64
  -3  -6  -9    1.65    0.51
   3  -6   9    1.59    0.47
   4   6   9    2.25    0.71
  -4  -6  -9    1.95    0.51
   4  -6   9    2.85    0.54
  -5  -6  -9    1.02    0.44
   5  -6   9    1.09    0.48
 -10   7   9    1.15    0.56
  -9   7   9    0.23    0.47
  -9  -7   9    0.75    0.48
   9   7  -9    0.04    0.44
   8   7  -9    4.46    0.78
  -8  -7   9    4.18    0.69
  -8   7   9    3.53    0.74
   7   7  -9    0.19    0.45
  -7   7   9    0.10    0.45
   7  -7  -9    0.11    0.32
  -7  -7   9    0.29    0.41
   6   7  -9    0.57    0.50
   6  -7  -9    0.65    0.35
  -6   7   9    1.08    0.56
  -6  -7   9    0.78    0.44
   5  -7  -9    3.74    0.58
   5   7  -9    3.07    0.70
  -5   7   9    3.15    0.72
  -5  -7   9    3.30    0.58
   4  -7  -9    0.63    0.38
   4   7  -9    0.61    0.46
  -4   7   9   -0.21    0.47
  -4  -7   9    0.36    0.38
   3   7  -9    2.96    0.67
  -3  -7   9    3.02    0.52
   3  -7  -9    2.96    0.56
  -3   7   9    3.43    0.75
   2   7  -9    0.55    0.44
   2  -7  -9    0.80    0.43
  -2   7   9    0.70    0.50
  -2  -7   9    0.84    0.38
  -1  -7   9    0.88    0.41
  -1   7   9    0.70    0.52
   1   7  -9    1.29    0.52
   1  -7  -9    0.42    0.40
   0  -7   9    4.07    0.61
   0   7   9    3.69    0.74
   0   7  -9    5.19    0.75
   0  -7  -9    3.83    0.67
  -1  -7  -9    0.24    0.39
  -1   7  -9    0.23    0.40
   1  -7   9    0.22    0.35
   1   7   9   -0.04    0.47
   2  -7   9    0.06    0.38
  -2  -7  -9   -0.10    0.34
  -2   7  -9    0.28    0.41
   2   7   9   -0.37    0.44
   3   7   9    0.39    0.52
   3  -7   9    0.70    0.44
  -3   7  -9    1.59    0.51
   8   8  -9    0.49    0.54
  -8   8   9    0.05    0.46
  -7   8   9    0.62    0.49
   7   8  -9   -0.31    0.46
  -6  -8   9    0.79    0.47
   6   8  -9    0.23    0.51
  -6   8   9    0.29    0.48
   6  -8  -9    0.58    0.37
   5   8  -9    1.15    0.58
  -5   8   9    1.20    0.55
   5  -8  -9    0.68    0.42
  -5  -8   9    1.28    0.50
  -4   8   9    0.89    0.53
   4  -8  -9    1.15    0.46
   4   8  -9    0.93    0.55
  -4  -8   9    1.21    0.48
  -3   8   9    0.37    0.51
  -3  -8   9    0.28    0.40
   3   8  -9    0.18    0.45
   3  -8  -9   -0.03    0.37
  -2  -8   9    1.04    0.46
   2   8  -9    1.60    0.58
   2  -8  -9    1.69    0.51
  -2   8   9    1.90    0.63
   1   8  -9    0.12    0.41
  -1  -8   9   -0.17    0.37
   1  -8  -9   -0.20    0.37
   0   8  -9    0.65    0.47
   0  -8   9    0.17    0.41
  15   0 -10    0.53    0.43
 -15   0  10    0.59    0.45
 -14   0  10   -0.36    0.35
  14   0 -10   -0.12    0.37
  13   0 -10   -0.10    0.33
 -13   0  10   -0.06    0.37
 -12   0  10    0.54    0.41
  12   0 -10    0.69    0.40
 -11   0  10   19.79    1.55
  11   0 -10   22.58    1.48
  10   0 -10    2.60    0.46
 -10   0  10    2.66    0.57
   9   0 -10    0.97    0.32
   9   0 -10    1.15    0.34
  -9   0  10    1.07    0.46
  -8   0  10   17.00    1.31
   7   0 -10    7.25    0.71
  -7   0  10    7.68    0.81
  -6   0  10   27.00    1.84
   6   0 -10   28.57    1.85
  -5   0  10    6.97    0.74
   5   0 -10    6.92    0.72
   4   0 -10   -0.01    0.27
  -4   0  10   -0.23    0.32
  -3   0  10   28.41    1.89
   3   0 -10   31.28    1.99
   2   0 -10    2.13    0.46
  -2   0  10    1.78    0.42
  -1   0  10    0.39    0.36
   1   0 -10    0.47    0.35
   0   0  10    0.31    0.37
   0   0 -10    0.65    0.38
  -1   0 -10    4.22    0.62
   1   0  10    2.88    0.57
  -2   0 -10    0.20    0.34
   2   0  10   -0.20    0.41
   3   0  10    2.27    0.59
  -3   0 -10    3.19    0.58
  -4   0 -10    1.81    0.49
   4   0  10    2.62    0.63
   5   0  10    0.38    0.51
   6   0  10    3.77    0.80
  15  -1 -10    0.94    0.47
  15   1 -10    0.45    0.44
 -15  -1  10    0.71    0.45
  14  -1 -10    4.32    0.64
 -14  -1  10    3.46    0.64
 -14   1  10    2.43    0.65
  14   1 -10    2.08    0.56
  13  -1 -10    3.55    0.60
  13   1 -10    2.87    0.57
 -13  -1  10    3.10    0.62
 -13   1  10    4.48    0.73
  12   1 -10    7.18    0.76
  12  -1 -10    7.46    0.74
 -12  -1  10    6.27    0.76
 -12   1  10    6.60    0.83
 -11   1  10    2.94    0.65
 -11  -1  10    2.87    0.55
  11  -1 -10    3.86    0.56
  11   1 -10    3.93    0.58
  10  -1 -10    5.61    0.63
  10   1 -10    6.23    0.66
 -10   1  10    5.21    0.78
 -10  -1  10    5.79    0.70
  -9   1  10    7.23    0.82
   9   1 -10    7.35    0.70
   9   1 -10    7.56    0.69
  -9  -1  10    4.87    0.68
  -8   1  10    4.69    0.74
  -8  -1  10    4.54    0.64
  -8  -1  10    5.68    0.60
   8  -1 -10    5.28    0.59
   8   1 -10    4.75    0.60
   7   1 -10    4.83    0.60
  -7   1  10    4.31    0.68
  -7  -1  10    3.50    0.58
   7  -1 -10    4.24    0.53
  -7  -1  10    3.90    0.51
  -6   1  10    2.93    0.59
   6  -1 -10    2.72    0.47
  -6  -1  10    3.22    0.53
   6   1 -10    2.93    0.51
  -6  -1  10    3.26    0.45
  -5  -1  10   14.17    1.11
  -5   1  10   13.45    1.16
   5  -1 -10   14.20    1.12
   5   1 -10   16.31    1.18
  -5  -1  10   15.46    1.00
   4   1 -10    2.24    0.46
  -4   1  10    1.54    0.48
   4  -1 -10    2.39    0.47
  -4  -1  10    2.20    0.46
  -3   1  10   10.63    0.92
   3  -1 -10   10.89    0.93
  -3  -1  10    9.06    0.84
   3   1 -10   11.23    0.94
   2   1 -10    8.29    0.82
  -2   1  10    6.88    0.76
  -2  -1  10    8.45    0.75
   2  -1 -10    9.15    0.83
   1  -1 -10    4.46    0.65
   1   1 -10    7.55    0.74
  -1   1  10    6.49    0.69
  -1  -1  10    4.38    0.60
   0  -1  10   14.56    1.11
   0  -1 -10   16.11    1.20
   0   1 -10   14.25    1.16
   0   1  10   12.58    1.11
  -1   1 -10   14.84    1.15
  -1  -1 -10   12.68    1.10
   1   1  10   12.73    1.10
   1  -1  10   13.07    1.07
   2  -1  10   10.26    0.99
  -2   1 -10   10.43    0.94
   2   1  10    9.22    0.95
  -2  -1 -10   10.23    0.95
  -3   1 -10    1.69    0.48
  -3  -1 -10    2.52    0.53
   3  -1  10    2.11    0.57
   3   1  10    1.29    0.58
   4  -1  10    1.95    0.60
  -4   1 -10    2.60    0.54
  -4  -1 -10    1.64    0.49
   4   1  10    2.24    0.62
   5  -1  10    3.23    0.72
   5   1  10    3.12    0.73
   6  -1  10    0.34    0.55
   6   1  10    0.17    0.55
   7  -1  10    0.02    0.53
  15  -2 -10    0.42    0.43
 -14   2  10    0.11    0.47
  14  -2 -10    0.29    0.42
  14   2 -10   -0.05    0.38
 -13   2  10    0.11    0.41
  13  -2 -10    0.05    0.36
  13   2 -10   -0.02    0.35
 -12   2  10    1.22    0.53
 -12  -2  10    2.52    0.54
  12   2 -10    1.22    0.49
  11   2 -10    4.08    0.63
 -11  -2  10    5.05    0.63
 -11   2  10    4.34    0.76
 -10  -2  10    4.72    0.66
 -10   2  10    4.70    0.79
 -10  -2  10    3.35    0.57
   9   2 -10    8.80    0.78
  -9  -2  10    7.22    0.77
  -9   2  10    8.54    0.94
  -9  -2  10    8.38    0.81
  -8  -2  10    2.75    0.49
   8   2 -10    2.25    0.47
   8  -2 -10    4.41    0.53
  -8  -2  10    4.23    0.55
  -8   2  10    2.84    0.66
  -7  -2  10   31.56    2.13
   7  -2 -10   31.93    2.20
  -7   2  10   38.42    2.34
   7   2 -10   38.03    2.28
   6   2 -10   11.56    1.01
  -6  -2  10   14.00    0.94
  -6  -2  10   12.03    0.98
  -6   2  10   12.38    1.12
   6  -2 -10   13.24    1.02
  -5   2  10    6.70    0.80
  -5  -2  10    6.81    0.68
   5  -2 -10    6.83    0.72
   5   2 -10    6.90    0.72
  -4  -2  10   14.49    1.04
  -4   2  10   17.81    1.29
   4  -2 -10   15.27    1.22
   4   2 -10   18.07    1.26
  -4  -2  10   14.54    1.13
  -3  -2  10    5.73    0.48
   3   2 -10    3.83    0.59
  -3  -2  10    6.14    0.61
   3  -2 -10    5.80    0.66
  -3   2  10    3.63    0.64
  -2   2  10    3.13    0.58
   2   2 -10    3.94    0.57
   2  -2 -10    3.21    0.56
  -2  -2  10    3.73    0.50
  -1   2  10    1.15    0.44
   1  -2 -10    1.10    0.42
  -1  -2  10    1.03    0.35
   1   2 -10    1.74    0.46
   0  -2 -10    4.32    0.63
   0   2  10    4.28    0.66
   0  -2  10    2.93    0.53
   0   2 -10    4.94    0.64
   1   2  10    4.75    0.73
   1  -2  10    5.75    0.67
  -1  -2 -10    5.89    0.69
  -1   2 -10    5.09    0.68
   2  -2  10    1.27    0.50
   2   2  10    1.10    0.51
  -2   2 -10    1.49    0.45
  -2  -2 -10    0.62    0.40
   3   2  10    1.85    0.60
  -3  -2 -10    1.43    0.46
   3  -2  10    1.87    0.54
  -3   2 -10    2.04    0.51
   4   2  10    0.61    0.56
  -4   2 -10    0.24    0.40
  -4  -2 -10    0.35    0.38
   4  -2  10    0.35    0.46
   5  -2  10    1.29    0.53
   5   2  10    0.51    0.53
   6   2  10   -0.03    0.54
   6  -2  10   -0.26    0.48
   7  -2  10    1.80    0.65
  14   3 -10    0.50    0.46
 -13   3  10    1.22    0.58
  13   3 -10    1.91    0.55
  12   3 -10    0.94    0.47
 -12   3  10    1.10    0.58
 -11   3  10    0.01    0.46
 -11  -3  10   -0.17    0.37
 -10  -3  10    6.39    0.75
 -10   3  10    4.75    0.82
  -9   3  10    8.84    0.99
   9   3 -10    9.33    0.85
  -9  -3  10    8.63    0.85
  -8  -3  10    4.24    0.58
   8   3 -10    3.46    0.56
  -8   3  10    2.82    0.69
   8  -3 -10    3.98    0.50
  -7  -3  10    8.97    0.75
  -7   3  10    7.06    0.89
   7  -3 -10    8.04    0.74
   7   3 -10    7.88    0.79
   6  -3 -10    9.22    0.88
  -6  -3  10   10.27    0.84
   6   3 -10   12.23    0.99
  -6   3  10   12.12    1.08
   5  -3 -10    7.54    0.79
  -5  -3  10    8.41    0.71
   5   3 -10    9.57    0.88
  -5   3  10    9.70    0.96
   4  -3 -10    2.54    0.50
  -4   3  10    3.00    0.62
  -4  -3  10    2.64    0.40
   4   3 -10    3.59    0.59
   3   3 -10    2.22    0.51
   3  -3 -10    2.18    0.47
  -3   3  10    1.62    0.52
  -3  -3  10    1.97    0.34
   2  -3 -10    1.63    0.45
   2   3 -10    3.10    0.55
  -2  -3  10    1.58    0.33
  -2   3  10    2.09    0.52
   1   3 -10    6.85    0.74
  -1   3  10    6.26    0.76
   1  -3 -10    6.02    0.70
  -1  -3  10    6.05    0.57
   0  -3 -10    1.16    0.42
   0   3 -10    0.94    0.41
   0   3  10    1.09    0.48
  -1  -3 -10    2.17    0.51
   1   3  10    1.98    0.57
  -1   3 -10    2.59    0.54
   2   3  10    4.01    0.73
  -2  -3 -10    4.32    0.62
  -2   3 -10    5.13    0.67
  -3  -3 -10    2.55    0.54
  -3   3 -10    2.87    0.58
   3   3  10    2.37    0.64
   4   3  10    1.96    0.66
  -4   3 -10    2.90    0.59
  -4  -3 -10    2.83    0.55
   5   3  10   -0.25    0.52
 -13   4  10    0.62    0.59
  13   4 -10    0.56    0.47
 -12   4  10    0.82    0.58
 -12  -4  10    1.36    0.55
 -11   4  10    1.39    0.61
 -11  -4  10    1.54    0.53
 -10  -4  10    2.90    0.59
 -10   4  10    1.96    0.67
  -9   4  10    1.66    0.62
   9   4 -10    1.74    0.46
  -9  -4  10    2.44    0.54
  -8   4  10    6.14    0.86
   8  -4 -10    5.28    0.62
   8   4 -10    6.25    0.71
  -8  -4  10    5.70    0.69
  -7   4  10    1.93    0.61
   7   4 -10    1.56    0.47
  -7  -4  10    2.86    0.49
   7  -4 -10    2.41    0.44
  -6  -4  10    8.01    0.71
  -6   4  10    6.54    0.89
   6   4 -10    6.73    0.77
   6  -4 -10    7.38    0.73
  -5   4  10    2.00    0.60
   5   4 -10    2.34    0.52
   5  -4 -10    1.72    0.43
  -5  -4  10    1.96    0.41
   4   4 -10    3.62    0.61
   4  -4 -10    3.73    0.55
  -4  -4  10    4.12    0.49
  -4   4  10    3.62    0.68
  -3  -4  10    3.72    0.48
   3   4 -10    4.88    0.66
   3  -4 -10    3.89    0.58
  -3   4  10    5.13    0.72
   2   4 -10    2.45    0.55
   2  -4 -10    2.60    0.52
  -2  -4  10    3.08    0.43
  -2   4  10    1.77    0.55
  -1   4  10    2.17    0.56
   1   4 -10    2.16    0.52
   1  -4 -10    1.61    0.46
  -1  -4  10    1.59    0.37
   0  -4  10    0.53    0.30
   0  -4 -10    0.53    0.38
   0   4  10    0.50    0.45
   0   4 -10    0.60    0.39
   1  -4  10    1.54    0.38
  -1   4 -10    1.70    0.49
  -1  -4 -10    1.84    0.49
   1   4  10    1.71    0.56
  -2  -4 -10    2.39    0.52
   2   4  10    1.70    0.61
  -2   4 -10    2.02    0.53
   3   4  10    0.37    0.52
  -3  -4 -10    0.41    0.38
  -3   4 -10    0.36    0.38
   4   4  10    3.00    0.75
  -4  -4 -10    2.75    0.57
  -5  -4 -10   -0.23    0.33
   5   4  10   -0.46    0.53
 -12  -5  10    1.17    0.57
 -12   5  10    0.97    0.62
 -11   5  10    0.89    0.58
 -11  -5  10    1.31    0.57
 -10   5  10    0.55    0.56
 -10  -5  10    1.47    0.55
  -9   5  10    1.25    0.60
   9   5 -10    1.40    0.48
  -9  -5  10    1.67    0.52
   8  -5 -10    1.26    0.39
   8   5 -10    1.65    0.48
  -8   5  10    1.32    0.60
  -8  -5  10    0.57    0.41
  -7  -5  10   -0.13    0.33
  -7   5  10   -0.01    0.47
   7   5 -10    0.08    0.37
   7  -5 -10   -0.08    0.29
   6   5 -10    2.43    0.57
   6  -5 -10    3.18    0.53
  -6   5  10    3.22    0.73
  -6  -5  10    3.13    0.52
  -5  -5  10   11.80    0.92
   5  -5 -10   10.35    0.94
   5   5 -10   10.53    1.03
  -5   5  10   11.46    1.13
  -4   5  10    2.89    0.69
   4   5 -10    3.35    0.62
   4  -5 -10    2.12    0.49
  -4  -5  10    2.34    0.45
   3   5 -10    0.60    0.40
  -3   5  10    0.53    0.48
  -3  -5  10    0.34    0.31
   3  -5 -10    0.28    0.36
  -2  -5  10    2.85    0.48
   2  -5 -10    2.97    0.57
   2   5 -10    4.30    0.67
  -2   5  10    2.65    0.65
   1  -5 -10    1.91    0.51
   1   5 -10    3.86    0.65
  -1   5  10    3.51    0.69
  -1  -5  10    2.75    0.48
   0  -5 -10    4.59    0.65
   0  -5  10    4.88    0.57
   0   5  10    4.48    0.76
   0   5 -10    4.29    0.72
  -1   5 -10    1.25    0.47
   1   5  10    0.91    0.53
  -1  -5 -10    0.64    0.41
   1  -5  10    0.70    0.35
   2   5  10    2.18    0.64
   2  -5  10    1.67    0.43
  -2   5 -10    2.07    0.56
  -2  -5 -10    1.56    0.50
   3  -5  10    2.40    0.49
  -3   5 -10    2.99    0.62
  -3  -5 -10    2.66    0.59
   3   5  10    2.10    0.70
  -4  -5 -10    0.42    0.41
   4   5  10    0.25    0.60
  -5  -5 -10    0.65    0.41
 -11   6  10    0.53    0.55
 -11  -6  10    1.76    0.64
 -10  -6  10    1.31    0.56
 -10   6  10    0.47    0.53
   9   6 -10    2.18    0.57
  -9  -6  10    2.03    0.58
  -9   6  10    1.95    0.67
   8   6 -10    3.82    0.70
  -8  -6  10    4.13    0.66
  -8   6  10    3.56    0.78
   7  -6 -10    6.59    0.74
   7   6 -10    8.38    0.94
  -7  -6  10    6.52    0.78
  -7   6  10    8.84    1.02
   6  -6 -10    3.95    0.59
   6   6 -10    3.02    0.67
  -6  -6  10    3.46    0.58
  -6   6  10    2.92    0.71
   5  -6 -10    1.99    0.49
   5   6 -10    2.58    0.63
  -5   6  10    2.03    0.68
  -5  -6  10    2.46    0.51
  -4  -6  10    5.37    0.63
  -4   6  10    5.26    0.88
   4   6 -10    5.32    0.77
   4  -6 -10    4.59    0.66
   3   6 -10    1.37    0.53
   3  -6 -10    2.15    0.53
  -3  -6  10    1.85    0.43
  -3   6  10    2.58    0.69
   2  -6 -10    0.68    0.41
  -2   6  10    0.31    0.49
  -2  -6  10    0.57    0.34
   2   6 -10    0.60    0.44
   1  -6 -10    0.13    0.36
  -1  -6  10   -0.16    0.31
   1   6 -10    0.04    0.38
  -1   6  10   -0.13    0.42
   0   6 -10    0.46    0.43
   0  -6  10    0.20    0.35
   0   6  10    0.08    0.49
   0  -6 -10   -0.04    0.36
   1  -6  10    0.02    0.32
   1   6  10    0.24    0.50
  -1  -6 -10    0.25    0.40
  -1   6 -10    0.00    0.38
   2  -6  10    0.87    0.41
  -2  -6 -10    0.51    0.43
  -2   6 -10    1.00    0.48
   2   6  10    0.62    0.55
   3  -6  10    1.06    0.43
   3   6  10    0.11    0.54
  -3  -6 -10    0.84    0.46
  -3   6 -10    1.39    0.51
   4  -6  10   -0.08    0.38
  -9   7  10    1.39    0.62
   9   7 -10    1.00    0.53
  -8   7  10    0.23    0.51
  -8  -7  10   -0.27    0.42
   8   7 -10    0.22    0.48
  -7   7  10    0.14    0.47
  -7  -7  10    0.04    0.41
   7   7 -10   -0.18    0.40
   7  -7 -10   -0.16    0.32
   6   7 -10    2.62    0.68
   6  -7 -10    1.61    0.47
  -6  -7  10    1.75    0.52
  -6   7  10    2.32    0.68
  -5   7  10    0.42    0.55
   5   7 -10    1.20    0.55
   5  -7 -10    1.50    0.47
  -5  -7  10    1.48    0.50
  -4   7  10    3.57    0.80
   4   7 -10    4.39    0.78
  -4  -7  10    4.04    0.62
   4  -7 -10    2.53    0.58
   3  -7 -10    0.53    0.39
   3   7 -10    0.60    0.48
  -3  -7  10    0.70    0.40
  -3   7  10    0.85    0.56
  -2   7  10   -0.27    0.48
   2  -7 -10    0.18    0.39
  -2  -7  10    0.21    0.36
   2   7 -10    0.11    0.42
   1   7 -10    2.70    0.64
   1  -7 -10    2.19    0.56
  -1   7  10    3.25    0.72
  -1  -7  10    2.72    0.53
   0   7  10    0.21    0.53
   0  -7  10    0.56    0.40
   0  -7 -10    0.55    0.42
   0   7 -10    0.47    0.46
   1  -7  10    0.46    0.41
  -1   7 -10    1.07    0.49
   1   7  10    0.35    0.57
  -2   7 -10    2.83    0.67
  -7   8  10    3.17    0.73
   7  -8 -10    3.24    0.59
  -6   8  10    0.73    0.57
   6  -8 -10    0.40    0.38
  -5   8  10    1.03    0.55
   5  -8 -10    0.43    0.41
  -4   8  10    0.83    0.57
   4  -8 -10    0.81    0.47
  -3   8  10    0.27    0.55
  -2   8  10    1.41    0.66
  -1   8  10   -0.08    0.51
  15   0 -11    1.90    0.53
  14   0 -11    0.14    0.38
 -14   0  11    0.13    0.40
  13   0 -11    2.16    0.51
 -13   0  11    1.46    0.53
 -12   0  11    1.04    0.47
  12   0 -11    1.12    0.42
 -11   0  11    0.16    0.38
  11   0 -11    0.17    0.33
 -10   0  11    1.60    0.51
   9   0 -11   12.33    0.97
  -9   0  11   11.07    1.05
  -8   0  11    8.82    0.92
   8   0 -11   10.89    0.89
   7   0 -11    5.79    0.66
  -7   0  11    5.72    0.72
   6   0 -11    9.05    0.84
  -6   0  11    8.24    0.85
  -5   0  11   -0.10    0.36
   5   0 -11    0.06    0.31
   4   0 -11   24.91    1.69
  -4   0  11   22.77    1.62
  -3   0  11    5.10    0.65
   3   0 -11    5.43    0.67
  -2   0  11    0.37    0.37
   2   0 -11    0.41    0.37
  -1   0  11    5.37    0.69
   1   0 -11    7.22    0.77
   0   0 -11    1.96    0.49
   0   0  11    1.25    0.47
   1   0  11    6.06    0.78
  -1   0 -11    6.18    0.75
   2   0  11    2.42    0.60
  -2   0 -11    2.71    0.58
  -3   0 -11    3.58    0.64
   3   0  11    3.39    0.72
   4   0  11    0.11    0.50
  -4   0 -11    0.24    0.40
   5   0  11    0.52    0.57
  15  -1 -11    2.14    0.53
 -15  -1  11    2.06    0.56
 -14   1  11    1.11    0.52
  14   1 -11    1.11    0.48
 -14  -1  11    1.37    0.48
 -13   1  11    0.90    0.52
  13   1 -11    0.84    0.43
 -13  -1  11    1.24    0.47
 -12  -1  11    4.32    0.68
  12   1 -11    4.52    0.63
 -12   1  11    4.32    0.76
 -11   1  11    2.77    0.62
  11   1 -11    3.49    0.56
 -11  -1  11    2.49    0.54
 -10   1  11    5.09    0.80
  10   1 -11    4.80    0.61
 -10  -1  11    4.71    0.70
   9   1 -11    9.65    0.80
  -9   1  11    8.46    0.92
   9  -1 -11    7.49    0.77
  -9  -1  11    7.84    0.85
   9   1 -11    9.83    0.84
  -8   1  11    5.64    0.81
  -8  -1  11    4.85    0.69
   8   1 -11    5.95    0.68
   8  -1 -11    4.64    0.61
  -7   1  11   16.82    1.43
   7   1 -11   19.18    1.41
   7  -1 -11   21.46    1.41
  -7  -1  11   19.09    1.40
  -6   1  11    0.44    0.44
   6  -1 -11    0.12    0.32
   6   1 -11    0.56    0.38
  -6  -1  11   -0.04    0.33
  -5   1  11    7.24    0.84
  -5  -1  11    8.44    0.81
   5   1 -11    7.71    0.82
   5  -1 -11    8.84    0.82
  -4   1  11    0.25    0.41
  -4  -1  11    0.46    0.35
   4  -1 -11    0.15    0.34
   4   1 -11    0.46    0.38
  -3  -1  11    3.71    0.56
  -3   1  11    2.93    0.58
   3   1 -11    3.48    0.60
   3  -1 -11    3.61    0.60
  -2   1  11    8.47    0.85
   2  -1 -11    8.57    0.86
   2   1 -11    8.85    0.87
  -2  -1  11    7.89    0.78
  -1   1  11    2.30    0.54
   1  -1 -11    3.41    0.60
  -1  -1  11    3.09    0.54
   1   1 -11    2.85    0.57
   0  -1  11    1.24    0.45
   0  -1 -11    0.92    0.44
   0   1  11    1.06    0.48
   0   1 -11    1.35    0.48
   1  -1  11    1.26    0.50
   1   1  11    1.49    0.55
  -1  -1 -11    1.97    0.52
  -1   1 -11    1.80    0.50
   2   1  11    6.31    0.82
  -2  -1 -11    6.06    0.77
   2  -1  11    6.55    0.79
  -2   1 -11    6.54    0.80
  -3  -1 -11    2.54    0.57
   3  -1  11    2.96    0.69
  -3   1 -11    2.51    0.56
   3   1  11    2.83    0.69
   4   1  11    1.43    0.64
   4  -1  11    1.49    0.59
  -4   1 -11    1.09    0.46
  -4  -1 -11    1.10    0.47
   5  -1  11    3.25    0.72
   5   1  11    2.47    0.73
   6  -1  11    0.31    0.56
  13   2 -11    0.78    0.45
 -13   2  11    1.35    0.56
  12   2 -11    3.44    0.60
 -12   2  11    3.96    0.76
 -11   2  11    3.76    0.74
  11   2 -11    3.91    0.61
 -10   2  11    3.39    0.74
 -10  -2  11    2.34    0.54
   9   2 -11    0.48    0.34
  -9   2  11    0.10    0.48
  -9  -2  11    0.89    0.41
   8   2 -11   18.97    1.39
   8  -2 -11   20.28    1.37
  -8  -2  11   20.05    1.34
  -8   2  11   15.42    1.45
  -7   2  11    2.99    0.66
   7  -2 -11    1.51    0.43
  -7  -2  11    2.04    0.42
   7   2 -11    2.20    0.49
   6  -2 -11    3.89    0.57
  -6  -2  11    3.88    0.49
   6   2 -11    3.24    0.58
  -6   2  11    3.13    0.66
  -5   2  11    9.04    0.92
   5  -2 -11    6.79    0.78
   5   2 -11    7.46    0.80
   4  -2 -11    9.13    0.84
   4   2 -11    7.10    0.79
  -4   2  11    6.72    0.82
  -3   2  11    6.44    0.77
   3  -2 -11    5.27    0.71
   3   2 -11    7.58    0.78
  -2  -2  11    1.46    0.40
   2  -2 -11    2.21    0.52
  -2   2  11    1.45    0.51
   2   2 -11    2.16    0.51
  -1   2  11    3.34    0.64
   1   2 -11    3.44    0.63
  -1  -2  11    3.21    0.52
   1  -2 -11    3.89    0.64
   0  -2  11   10.67    0.93
   0   2  11   10.78    1.03
   0  -2 -11   10.18    1.00
   0   2 -11   12.01    1.05
   1   2  11    0.25    0.47
  -1   2 -11    0.17    0.37
  -1  -2 -11    0.35    0.39
   1  -2  11    0.76    0.43
  -2  -2 -11    1.85    0.50
  -2   2 -11    2.37    0.56
   2   2  11    1.50    0.58
  -3  -2 -11    0.40    0.40
   3   2  11    0.85    0.56
  -3   2 -11    0.90    0.43
   4   2  11    0.02    0.52
  -4  -2 -11   -0.04    0.34
   5   2  11    0.13    0.59
 -13   3  11    3.03    0.75
  13   3 -11    3.63    0.66
 -12   3  11    0.71    0.55
  12   3 -11    0.61    0.45
 -11  -3  11    2.11    0.56
 -11   3  11    0.86    0.60
 -10  -3  11    2.39    0.56
 -10   3  11    3.81    0.79
  -9   3  11    7.11    0.93
  -9  -3  11    7.86    0.80
   9   3 -11    7.09    0.77
   8  -3 -11    1.84    0.43
  -8  -3  11    2.24    0.50
  -8   3  11    2.78    0.69
   8   3 -11    1.97    0.50
  -7   3  11    0.98    0.56
   7  -3 -11    2.13    0.46
  -7  -3  11    2.24    0.44
   7   3 -11    1.24    0.45
  -6  -3  11    4.17    0.54
   6  -3 -11    4.20    0.60
  -6   3  11    5.94    0.84
   6   3 -11    4.57    0.64
   5  -3 -11    1.19    0.42
  -5  -3  11    1.53    0.36
  -5   3  11    1.25    0.56
   5   3 -11    1.49    0.46
  -4  -3  11   -0.11    0.25
   4   3 -11   -0.20    0.32
   4  -3 -11   -0.19    0.31
  -4   3  11   -0.21    0.42
   3   3 -11    1.82    0.50
  -3   3  11    1.40    0.52
   3  -3 -11    1.47    0.45
   2   3 -11    7.44    0.81
  -2   3  11    7.11    0.84
   2  -3 -11    7.31    0.79
  -1   3  11    0.98    0.51
   1  -3 -11    0.55    0.41
   1   3 -11    1.25    0.46
   0   3 -11    8.89    0.88
   0   3  11    6.55    0.85
   0  -3 -11    7.22    0.81
  -1  -3 -11    0.31    0.40
  -1   3 -11    1.49    0.49
   1   3  11    0.54    0.49
  -2   3 -11    1.51    0.50
   2   3  11    0.74    0.54
  -2  -3 -11    0.61    0.41
  -3   3 -11    2.61    0.58
   3   3  11    2.68    0.70
  -3  -3 -11    2.30    0.55
  -4  -3 -11    0.57    0.41
   4   3  11    0.59    0.59
  13   4 -11    3.76    0.71
 -12   4  11    1.79    0.69
 -12  -4  11    1.71    0.59
 -11  -4  11    0.42    0.47
 -11   4  11    0.68    0.55
 -10  -4  11    0.23    0.43
 -10   4  11    0.59    0.58
   9   4 -11    4.34    0.64
  -9   4  11    3.89    0.82
  -9  -4  11    4.71    0.68
  -8  -4  11    3.17    0.55
  -8   4  11    1.92    0.68
   8   4 -11    1.90    0.52
   8  -4 -11    2.89    0.49
  -7  -4  11    6.69    0.71
   7   4 -11    8.83    0.86
  -7   4  11    8.00    0.96
   7  -4 -11    5.54    0.70
   6  -4 -11    0.08    0.33
  -6   4  11    0.63    0.55
   6   4 -11    0.47    0.41
  -6  -4  11    0.51    0.33
   5   4 -11    4.28    0.71
  -5  -4  11    5.59    0.57
   5  -4 -11    4.44    0.61
  -5   4  11    3.42    0.75
   4  -4 -11    2.62    0.55
   4   4 -11    4.71    0.71
  -4   4  11    4.09    0.75
  -4  -4  11    3.31    0.49
   3   4 -11    1.85    0.53
  -3   4  11    1.48    0.57
  -3  -4  11    2.13    0.40
   3  -4 -11    1.92    0.49
   2  -4 -11    0.30    0.37
   2   4 -11    0.41    0.40
  -2  -4  11    0.38    0.30
  -2   4  11    0.10    0.44
   1  -4 -11    0.86    0.42
  -1   4  11    0.86    0.51
   1   4 -11    0.91    0.45
   0  -4 -11    1.42    0.48
   0   4  11    1.15    0.54
   0   4 -11    1.16    0.47
  -1  -4 -11    1.19    0.47
   1   4  11    1.02    0.56
  -1   4 -11    2.22    0.57
  -2  -4 -11    0.15    0.38
   2   4  11    0.29    0.52
  -2   4 -11    0.67    0.42
   3   4  11   -0.08    0.55
  -3   4 -11    0.15    0.42
  -3  -4 -11   -0.04    0.36
  -4  -4 -11    0.25    0.40
 -12  -5  11    1.03    0.58
 -11   5  11    1.02    0.62
 -11  -5  11    1.74    0.58
 -10   5  11    2.89    0.80
 -10  -5  11    3.38    0.66
  -9  -5  11    1.84    0.54
   9   5 -11    2.49    0.58
  -9   5  11    2.64    0.74
  -8   5  11    0.91    0.60
   8   5 -11    0.70    0.45
  -8  -5  11    0.60    0.41
   8  -5 -11    0.43    0.36
   7  -5 -11    3.40    0.57
  -7   5  11    3.63    0.78
   7   5 -11    3.11    0.64
  -7  -5  11    3.81    0.58
  -6  -5  11    2.24    0.48
   6   5 -11    3.29    0.64
  -6   5  11    3.11    0.73
   6  -5 -11    2.19    0.52
  -5  -5  11    4.49    0.58
  -5   5  11    3.58    0.78
   5   5 -11    3.92    0.70
   5  -5 -11    4.52    0.66
  -4   5  11    0.07    0.50
  -4  -5  11    0.16    0.32
   4  -5 -11    0.08    0.36
   4   5 -11    0.33    0.41
  -3  -5  11    0.40    0.34
   3   5 -11    0.49    0.42
   3  -5 -11    0.72    0.41
  -3   5  11    0.18    0.49
   2  -5 -11    1.21    0.49
  -2  -5  11    2.35    0.44
  -2   5  11    1.75    0.62
   2   5 -11    2.92    0.62
   1   5 -11    2.14    0.58
  -1  -5  11    2.63    0.47
   1  -5 -11    2.03    0.54
  -1   5  11    2.17    0.62
   0  -5 -11    2.54    0.59
   0   5 -11    3.11    0.66
   0  -5  11    3.00    0.50
   0   5  11    3.04    0.70
  -1   5 -11    0.81    0.46
   1   5  11    0.27    0.51
  -1  -5 -11    0.46    0.39
  -2  -5 -11    2.83    0.60
  -2   5 -11    2.78    0.62
   2   5  11    1.55    0.66
  -3   5 -11    0.68    0.47
  -3  -5 -11    0.34    0.42
 -10   6  11    0.13    0.55
 -10  -6  11   -0.23    0.47
   9   6 -11    1.36    0.53
  -9   6  11    1.42    0.64
  -9  -6  11    1.41    0.52
   8   6 -11    0.27    0.45
  -8   6  11    0.33    0.56
  -8  -6  11   -0.08    0.40
  -7   6  11    1.91    0.67
   7  -6 -11    1.26    0.46
   7   6 -11    1.39    0.54
  -7  -6  11    1.35    0.48
  -6  -6  11    0.86    0.42
  -6   6  11    0.67    0.56
   6  -6 -11    0.55    0.40
   6   6 -11    0.87    0.50
  -5  -6  11    2.18    0.50
   5   6 -11    2.48    0.62
  -5   6  11    2.69    0.76
   5  -6 -11    1.84    0.53
   4  -6 -11    1.38    0.50
  -4   6  11    0.93    0.62
  -4  -6  11    1.55    0.46
   4   6 -11    1.27    0.52
   3  -6 -11    1.43    0.50
  -3  -6  11    1.11    0.40
   3   6 -11    0.88    0.49
  -3   6  11    0.49    0.55
  -2  -6  11    1.31    0.43
   2  -6 -11    1.09    0.48
   2   6 -11    1.59    0.54
  -2   6  11    1.80    0.63
   1  -6 -11    1.53    0.51
  -1   6  11    0.71    0.54
  -1  -6  11    1.56    0.43
   1   6 -11    1.18    0.53
   0   6  11    3.46    0.76
   0  -6 -11    2.27    0.59
   0   6 -11    4.04    0.74
   0  -6  11    3.02    0.54
   1   6  11    0.23    0.55
  -1  -6 -11    0.44    0.43
   1  -6  11    0.33    0.37
  -1   6 -11    0.14    0.42
  -2   6 -11   -0.06    0.37
   9   7 -11    1.56    0.62
  -8   7  11    1.19    0.63
   8   7 -11    0.89    0.54
  -8  -7  11    0.91    0.51
   7  -7 -11   -0.17    0.32
  -7   7  11    0.43    0.53
  -7  -7  11    0.39    0.41
   7   7 -11    0.05    0.48
   6  -7 -11    1.38    0.48
  -6  -7  11    1.42    0.51
   6   7 -11    1.40    0.61
  -6   7  11    2.37    0.67
  -5  -7  11    1.34    0.48
  -5   7  11    1.12    0.59
   5  -7 -11    0.71    0.41
   5   7 -11    0.59    0.51
   4   7 -11    1.66    0.58
  -4   7  11    2.73    0.73
   4  -7 -11    1.48    0.52
  -4  -7  11    1.97    0.51
  -3   7  11    1.59    0.65
  -3  -7  11    1.30    0.44
   3   7 -11    1.63    0.57
   3  -7 -11    0.98    0.48
   2   7 -11    0.03    0.42
   2  -7 -11   -0.09    0.40
  -2  -7  11    0.13    0.37
  -2   7  11    0.62    0.58
  -1  -7  11    0.22    0.38
  -1   7  11    0.29    0.55
   0  -7  11    0.15    0.39
 -14   0  12    1.23    0.51
 -13   0  12    0.08    0.40
 -12   0  12    1.16    0.52
 -11   0  12    6.30    0.80
 -10   0  12    0.98    0.50
  -9   0  12    0.33    0.45
   9   0 -12   -0.23    0.27
  -8   0  12    6.46    0.83
   8   0 -12    7.86    0.78
   7   0 -12    0.23    0.34
  -7   0  12    0.39    0.44
  -6   0  12    4.60    0.70
   6   0 -12    3.73    0.62
   5   0 -12    4.46    0.64
  -5   0  12    3.85    0.66
   4   0 -12    4.48    0.67
  -4   0  12    4.08    0.67
   3   0 -12    1.57    0.49
  -3   0  12    2.02    0.53
   2   0 -12    0.16    0.37
  -2   0  12   -0.02    0.37
  -1   0  12    0.85    0.44
   1   0 -12    0.94    0.43
   0   0 -12    2.31    0.56
   0   0  12    1.86    0.55
   1   0  12    0.61    0.51
  -1   0 -12    0.86    0.46
  -2   0 -12    0.49    0.43
   2   0  12    0.96    0.54
  -3   0 -12    3.64    0.69
   3   0  12    4.35    0.78
   4   0  12    0.27    0.57
 -14  -1  12    1.24    0.47
 -14   1  12    1.18    0.55
  14   1 -12    1.55    0.50
 -13  -1  12    2.46    0.57
 -13   1  12    1.43    0.55
  13   1 -12    1.97    0.49
 -12   1  12    0.89    0.51
 -12  -1  12    0.99    0.47
 -11   1  12    3.41    0.69
 -11  -1  12    3.65    0.64
 -10  -1  12    2.15    0.56
 -10   1  12    2.23    0.63
   9   1 -12    4.07    0.59
  -9  -1  12    3.08    0.62
   9  -1 -12    3.26    0.55
  -9   1  12    4.07    0.74
  -8  -1  12    2.47    0.55
   8   1 -12    0.93    0.40
  -8   1  12    1.31    0.56
   8  -1 -12    2.39    0.49
  -7  -1  12    4.35    0.70
  -7   1  12    6.46    0.79
   7   1 -12    5.80    0.70
   7  -1 -12    4.71    0.66
   6  -1 -12   11.32    0.98
  -6  -1  12    9.91    0.94
  -6   1  12    9.72    1.01
   6   1 -12   10.74    0.99
   5   1 -12    4.47    0.65
   5  -1 -12    4.62    0.64
  -5  -1  12    3.34    0.60
  -5   1  12    4.70    0.75
  -4  -1  12    0.65    0.39
   4  -1 -12    1.04    0.45
   4   1 -12    1.20    0.46
  -4   1  12    0.67    0.48
   3  -1 -12    7.95    0.83
  -3  -1  12    6.89    0.76
  -3   1  12    5.91    0.77
   3   1 -12    7.04    0.80
  -2  -1  12    1.61    0.47
   2   1 -12    2.13    0.54
   2  -1 -12    1.74    0.51
  -2   1  12    2.21    0.56
   1   1 -12    1.36    0.47
   1  -1 -12    0.85    0.46
  -1  -1  12    1.03    0.44
  -1   1  12    1.10    0.49
   0   1  12   -0.11    0.42
   0   1 -12    0.11    0.39
   0  -1  12   -0.07    0.38
   0  -1 -12    0.72    0.43
   1   1  12    0.96    0.53
   1  -1  12    1.32    0.53
  -1  -1 -12    0.43    0.43
  -1   1 -12    1.13    0.48
   2   1  12    0.88    0.57
  -2  -1 -12    0.66    0.46
   2  -1  12    1.24    0.56
  -2   1 -12    1.21    0.49
  -3  -1 -12   -0.10    0.39
  -3   1 -12    0.12    0.40
   3  -1  12    0.51    0.51
   3   1  12   -0.34    0.48
  -4  -1 -12    0.26    0.39
   4  -1  12   -0.06    0.52
   4   1  12    0.24    0.56
   5  -1  12    1.29    0.70
  14   2 -12    0.28    0.41
 -13   2  12    1.94    0.64
  13   2 -12    2.23    0.55
  12   2 -12   -0.11    0.39
 -12   2  12    0.06    0.42
  11   2 -12    2.51    0.54
 -11   2  12    2.90    0.71
 -10   2  12    6.42    0.88
 -10  -2  12    5.67    0.73
   9  -2 -12    0.26    0.31
  -9   2  12    0.71    0.53
   9   2 -12    0.46    0.38
   8  -2 -12    0.07    0.32
  -8   2  12    0.38    0.49
   8   2 -12    0.06    0.34
   7  -2 -12    3.43    0.60
   7   2 -12    4.85    0.67
  -7   2  12    5.04    0.80
   6   2 -12    5.78    0.72
   6  -2 -12    5.18    0.68
  -6   2  12    5.63    0.79
   5   2 -12    3.30    0.62
  -5   2  12    3.46    0.69
   5  -2 -12    2.96    0.59
   4   2 -12    0.75    0.43
  -4   2  12    1.14    0.51
   4  -2 -12    1.15    0.46
   3   2 -12    1.02    0.47
   3  -2 -12    0.94    0.45
  -3   2  12    0.79    0.50
  -2   2  12    2.95    0.66
   2  -2 -12    3.59    0.64
   2   2 -12    4.58    0.71
   1  -2 -12    5.32    0.73
   1   2 -12    6.05    0.76
  -1   2  12    5.02    0.78
   0   2 -12    0.49    0.42
   0  -2 -12    0.60    0.43
   0   2  12   -0.02    0.44
  -1  -2 -12    0.42    0.42
   1   2  12    0.12    0.46
  -1   2 -12    0.24    0.40
  -2   2 -12    6.36    0.80
   2   2  12    3.99    0.81
  -2  -2 -12    5.37    0.74
  -3   2 -12    0.14    0.41
  -3  -2 -12    0.34    0.42
   3   2  12    0.06    0.56
  -4  -2 -12    1.20    0.48
  13   3 -12    0.21    0.43
 -12   3  12    0.23    0.50
  12   3 -12    0.13    0.40
 -11   3  12   -0.06    0.47
 -11  -3  12    0.01    0.42
 -10   3  12    3.61    0.81
 -10  -3  12    3.35    0.63
  -9   3  12    4.20    0.84
   9   3 -12    4.14    0.66
  -9  -3  12    4.03    0.63
   8   3 -12    4.81    0.65
   8  -3 -12    2.52    0.53
  -8  -3  12    3.37    0.59
  -8   3  12    4.95    0.86
   7  -3 -12   15.73    1.24
   7   3 -12   15.30    1.28
  -7   3  12   16.27    1.39
  -6   3  12    0.26    0.51
   6  -3 -12   -0.07    0.33
   6   3 -12    0.34    0.38
   5   3 -12    2.33    0.56
   5  -3 -12    1.47    0.48
  -5   3  12    2.16    0.65
  -4   3  12    1.41    0.57
   4  -3 -12    1.54    0.48
   4   3 -12    1.71    0.52
   3  -3 -12    0.21    0.37
   3   3 -12   -0.06    0.34
  -3   3  12    0.16    0.45
   2  -3 -12    2.85    0.59
   2   3 -12    3.28    0.63
  -2   3  12    3.12    0.68
   1   3 -12    0.99    0.47
  -1   3  12    0.93    0.52
   1  -3 -12    0.88    0.45
   0  -3 -12    0.71    0.43
   0   3 -12    0.85    0.47
   0   3  12    0.57    0.50
   1   3  12    0.84    0.56
  -1   3 -12    0.69    0.45
  -1  -3 -12    0.18    0.41
  -2   3 -12    1.62    0.52
  -2  -3 -12    1.06    0.48
   2   3  12    1.17    0.62
  -3   3 -12    0.28    0.41
  -3  -3 -12    0.43    0.42
   3   3  12    0.76    0.63
  -4  -3 -12    0.36    0.42
 -12  -4  12    0.52    0.51
 -11  -4  12    1.19    0.54
 -11   4  12    1.74    0.71
 -10   4  12    3.67    0.85
 -10  -4  12    4.25    0.70
  -9   4  12    0.79    0.59
  -9  -4  12    0.81    0.44
   9   4 -12    0.96    0.45
  -8   4  12    0.03    0.52
   8  -4 -12    0.13    0.32
   8   4 -12    0.35    0.40
  -8  -4  12    0.22    0.39
   7   4 -12    0.72    0.43
  -7   4  12    0.96    0.60
   7  -4 -12    0.25    0.35
  -7  -4  12    0.31    0.35
   6   4 -12    5.89    0.78
  -6  -4  12    6.30    0.67
   6  -4 -12    5.87    0.71
  -6   4  12    5.62    0.91
  -5  -4  12    3.56    0.52
  -5   4  12    4.66    0.82
   5  -4 -12    2.53    0.56
   5   4 -12    4.36    0.72
  -4   4  12    0.52    0.52
   4   4 -12    0.29    0.40
   4  -4 -12    0.48    0.40
   3   4 -12    1.03    0.48
  -3   4  12    0.68    0.54
   3  -4 -12    1.18    0.47
   2   4 -12    8.49    0.91
  -2   4  12    7.70    0.92
   2  -4 -12    6.36    0.81
   1   4 -12    0.84    0.46
   1  -4 -12    1.34    0.50
  -1   4  12    1.03    0.57
   0   4 -12    4.51    0.73
   0  -4 -12    2.65    0.61
   0   4  12    3.42    0.74
  -1  -4 -12    1.58    0.53
   1   4  12    1.04    0.60
  -1   4 -12    1.20    0.52
   2   4  12    0.44    0.58
  -2   4 -12    0.99    0.51
  -2  -4 -12    0.99    0.49
  -3  -4 -12    1.46    0.51
  -3   4 -12    2.18    0.58
 -11  -5  12    1.41    0.57
 -10   5  12    1.68    0.70
  -9  -5  12    0.39    0.41
   9   5 -12    0.64    0.46
  -9   5  12    0.47    0.57
   8   5 -12    9.28    0.96
  -8   5  12    8.86    1.09
   8  -5 -12    7.79    0.83
  -8  -5  12    7.36    0.83
  -7  -5  12    0.81    0.41
  -7   5  12    1.42    0.65
   7  -5 -12    0.29    0.36
   7   5 -12    0.83    0.48
   6  -5 -12    2.44    0.56
  -6  -5  12    2.93    0.53
  -6   5  12    2.88    0.75
   6   5 -12    2.36    0.62
  -5  -5  12    4.27    0.58
  -5   5  12    3.53    0.80
   5  -5 -12    3.19    0.63
   5   5 -12    4.21    0.74
   4  -5 -12    0.18    0.40
  -4   5  12    0.13    0.52
  -4  -5  12    0.62    0.38
   4   5 -12    0.89    0.48
  -3  -5  12    0.98    0.39
   3  -5 -12    0.87    0.46
   3   5 -12    1.00    0.50
  -3   5  12    0.75    0.56
   2  -5 -12    0.68    0.45
  -2   5  12    0.47    0.55
   2   5 -12    0.69    0.46
   1  -5 -12    0.55    0.44
   1   5 -12    0.49    0.44
  -1   5  12    0.91    0.56
   0  -5 -12    0.87    0.48
   0   5 -12    0.94    0.50
   0   5  12    0.66    0.58
   1   5  12    0.23    0.58
  -1  -5 -12    1.09    0.51
  -1   5 -12    0.86    0.49
  -2   5 -12    0.39    0.45
  -9  -6  12    0.11    0.44
   9   6 -12    0.53    0.48
   8   6 -12    0.27    0.43
  -8   6  12    0.66    0.62
  -8  -6  12    0.53    0.44
  -7  -6  12    0.80    0.44
   7   6 -12    0.54    0.47
   7  -6 -12    0.63    0.41
  -7   6  12    1.11    0.67
   6   6 -12   -0.38    0.37
  -6  -6  12    0.51    0.42
   6  -6 -12   -0.14    0.36
  -6   6  12   -0.08    0.52
  -5   6  12    2.20    0.74
   5   6 -12    3.19    0.69
  -5  -6  12    2.38    0.50
   5  -6 -12    2.91    0.61
   4   6 -12    0.14    0.44
  -4  -6  12    0.09    0.36
   4  -6 -12    0.17    0.40
  -4   6  12    0.56    0.59
   3   6 -12    0.45    0.47
  -3   6  12    0.20    0.56
   3  -6 -12    0.38    0.44
  -3  -6  12    0.32    0.37
   2   6 -12    1.23    0.55
  -2  -6  12    1.64    0.45
  -2   6  12    1.44    0.66
   2  -6 -12    1.51    0.54
  -1   6  12    1.25    0.66
   1   6 -12    1.60    0.59
   7  -7 -12    1.34    0.48
  -6  -7  12    0.58    0.47
   6  -7 -12    0.68    0.46
  -5  -7  12    1.75    0.53
  -4  -7  12    1.31    0.47
  -3  -7  12    0.00    0.40
  -2  -7  12    0.20    0.39
 -14   0  13    0.17    0.40
 -13   0  13    2.32    0.61
 -12   0  13    1.14    0.51
 -11   0  13   -0.16    0.41
 -10   0  13    2.11    0.59
  -9   0  13    1.71    0.56
   9   0 -13    1.81    0.46
  -8   0  13    1.62    0.56
   8   0 -13    1.67    0.47
   7   0 -13    8.22    0.85
  -7   0  13    7.55    0.88
  -6   0  13    0.48    0.47
   6   0 -13    0.28    0.39
  -5   0  13    3.55    0.67
   5   0 -13    3.65    0.65
   4   0 -13    0.64    0.44
  -4   0  13    0.44    0.45
  -3   0  13    2.47    0.57
   3   0 -13    3.34    0.63
   2   0 -13    0.51    0.42
  -2   0  13    0.74    0.47
  -1   0  13    0.17    0.44
   1   0 -13    0.80    0.46
   0   0  13    0.27    0.45
   0   0 -13    0.17    0.43
  -1   0 -13   -0.03    0.40
   1   0  13    0.54    0.52
   2   0  13    5.40    0.88
  -2   0 -13    5.63    0.80
   3   0  13    0.23    0.56
  -3   0 -13    0.26    0.45
 -13   1  13    1.15    0.54
 -12   1  13    0.83    0.49
 -11   1  13    0.10    0.46
 -11  -1  13    0.38    0.39
 -10   1  13    1.49    0.58
 -10  -1  13    0.76    0.47
  -9   1  13    5.86    0.86
  -9  -1  13    7.57    0.85
   9  -1 -13    8.23    0.82
   9   1 -13    8.04    0.84
  -8  -1  13    2.32    0.56
   8   1 -13    3.13    0.58
   8  -1 -13    1.65    0.48
  -8   1  13    2.28    0.66
   7   1 -13    0.29    0.38
  -7  -1  13    0.49    0.44
   7  -1 -13    0.71    0.41
  -7   1  13    0.29    0.47
   6  -1 -13    4.37    0.68
  -6   1  13    4.00    0.72
   6   1 -13    3.40    0.64
  -6  -1  13    3.11    0.61
   5  -1 -13    1.35    0.51
   5   1 -13    1.62    0.52
  -5  -1  13    1.14    0.47
  -5   1  13    1.58    0.57
  -4  -1  13    3.18    0.61
  -4   1  13    3.13    0.65
   4   1 -13    3.63    0.65
   4  -1 -13    3.78    0.67
  -3   1  13    3.47    0.67
   3  -1 -13    3.21    0.65
  -3  -1  13    3.16    0.61
   3   1 -13    3.77    0.66
   2  -1 -13    0.80    0.46
  -2   1  13    0.57    0.46
  -2  -1  13    0.74    0.44
   2   1 -13    0.62    0.44
  -1  -1  13   -0.26    0.36
   1   1 -13    0.16    0.40
   1  -1 -13    0.29    0.41
  -1   1  13    0.04    0.41
   0  -1  13    2.29    0.59
   0   1  13    3.23    0.66
   0   1 -13    2.78    0.64
   0  -1 -13    3.25    0.66
   1  -1  13    2.91    0.67
  -1   1 -13    1.73    0.56
   1   1  13    1.42    0.60
  -1  -1 -13    2.63    0.64
   2  -1  13    1.11    0.55
  -2  -1 -13    0.32    0.46
   2   1  13    0.76    0.59
  -2   1 -13    1.40    0.53
  -3   1 -13    0.27    0.45
  -3  -1 -13    0.11    0.42
   3  -1  13   -0.18    0.48
 -12   2  13    0.26    0.50
 -11   2  13    3.74    0.77
 -10   2  13    0.14    0.51
   9   2 -13    5.34    0.73
   9  -2 -13    4.41    0.64
  -9   2  13    4.58    0.84
  -8   2  13    3.58    0.72
   8  -2 -13    2.37    0.55
   8   2 -13    2.77    0.60
  -7   2  13    1.90    0.63
   7  -2 -13    2.81    0.56
   7   2 -13    1.74    0.54
   6  -2 -13    1.39    0.51
  -6   2  13    3.11    0.70
   6   2 -13    3.32    0.64
   5  -2 -13    1.81    0.52
  -5   2  13    1.75    0.60
   5   2 -13    1.64    0.54
  -4   2  13    0.22    0.45
   4   2 -13    0.37    0.44
   4  -2 -13    0.22    0.40
   3  -2 -13    3.28    0.64
  -3   2  13    1.99    0.61
   3   2 -13    2.86    0.62
  -2   2  13    1.38    0.55
   2  -2 -13    1.25    0.51
   2   2 -13    1.24    0.51
   1  -2 -13    0.58    0.47
  -1   2  13    0.03    0.46
   1   2 -13    0.46    0.43
   0   2 -13    1.52    0.54
   0   2  13    0.87    0.56
   0  -2 -13    1.12    0.50
  -1  -2 -13    0.75    0.47
  -1   2 -13    1.14    0.52
   1   2  13    0.36    0.55
   2   2  13    1.18    0.65
  -2   2 -13    1.15    0.52
  -2  -2 -13    0.92    0.49
  -3  -2 -13    0.07    0.41
  -3   2 -13    0.06    0.38
  12   3 -13    0.94    0.46
 -11   3  13    1.51    0.69
 -10   3  13    0.47    0.56
  -9   3  13    2.74    0.75
   9   3 -13    2.27    0.56
   8   3 -13    3.35    0.64
  -8   3  13    3.31    0.79
   8  -3 -13    4.26    0.61
  -7   3  13    3.54    0.76
   7  -3 -13    2.33    0.54
   7   3 -13    3.18    0.64
  -6   3  13    0.68    0.56
   6   3 -13    0.61    0.45
   6  -3 -13    0.63    0.42
   5   3 -13    4.18    0.72
  -5   3  13    4.03    0.80
   5  -3 -13    3.56    0.64
  -4   3  13    2.61    0.67
   4  -3 -13    1.26    0.49
   4   3 -13    2.95    0.63
  -3   3  13    4.00    0.77
   3   3 -13    4.45    0.74
   3  -3 -13    3.25    0.65
   2  -3 -13    0.91    0.47
   2   3 -13    1.59    0.54
  -2   3  13    1.41    0.61
   1  -3 -13    0.55    0.46
   1   3 -13    1.08    0.51
  -1   3  13    0.96    0.57
   0  -3 -13    1.55    0.53
   0   3  13    1.07    0.60
   0   3 -13    1.79    0.55
   1   3  13    0.12    0.54
  -1  -3 -13    0.13    0.42
  -1   3 -13    0.56    0.46
  -2  -3 -13    1.30    0.52
  -2   3 -13    1.25    0.55
 -12  -4  13    0.55    0.49
 -11  -4  13    0.72    0.48
 -10   4  13    1.09    0.64
 -10  -4  13    0.77    0.48
  10   4 -13    1.16    0.47
   9   4 -13    0.17    0.41
  -9   4  13   -0.06    0.51
   8  -4 -13    1.76    0.48
   8   4 -13    2.45    0.59
  -8   4  13    2.00    0.70
   7  -4 -13    0.89    0.42
  -7   4  13    1.26    0.65
   7   4 -13    2.16    0.57
   6   4 -13    0.51    0.45
   6  -4 -13    0.32    0.38
  -6   4  13    0.71    0.59
   5  -4 -13    1.00    0.46
   5   4 -13    1.75    0.55
  -5   4  13    2.16    0.68
   4  -4 -13    0.53    0.43
  -4   4  13    0.73    0.56
   4   4 -13    0.49    0.46
   3   4 -13    1.12    0.51
  -3   4  13    0.74    0.55
   3  -4 -13    0.73    0.46
  -2   4  13    1.22    0.61
   2  -4 -13    1.45    0.52
   2   4 -13    1.23    0.53
   1  -4 -13    0.31    0.43
   1   4 -13    0.75    0.48
  -1   4  13    0.92    0.58
   0   4  13    1.84    0.68
   0   4 -13    2.74    0.64
   0  -4 -13    1.43    0.53
  -1   4 -13    0.51    0.47
  10   5 -13    0.41    0.44
 -10  -5  13    0.31    0.48
  -9  -5  13    1.18    0.49
  -9   5  13    1.19    0.70
   9   5 -13    0.91    0.51
  -8  -5  13    0.34    0.40
   8   5 -13   -0.10    0.41
   8  -5 -13   -0.22    0.34
  -8   5  13    0.04    0.57
  -7   5  13    1.49    0.72
   7  -5 -13    1.72    0.52
   7   5 -13    1.60    0.58
  -7  -5  13    1.16    0.45
   6  -5 -13    0.28    0.39
  -6   5  13    0.38    0.56
   6   5 -13    0.35    0.46
   5  -5 -13   -0.22    0.38
  -5   5  13   -0.16    0.55
   5   5 -13    0.19    0.45
  -4   5  13    4.77    0.91
   4  -5 -13    4.19    0.73
   4   5 -13    4.83    0.81
   3  -5 -13    0.99    0.50
   3   5 -13    1.45    0.55
  -3   5  13    1.33    0.66
   2  -5 -13    0.96    0.50
   2   5 -13    1.63    0.56
  -2   5  13    1.03    0.61
   1   5 -13    1.59    0.58
   8  -6 -13   -0.04    0.36
  -8  -6  13   -0.08    0.42
   7  -6 -13    0.76    0.47
  -7  -6  13    0.14    0.42
  -6  -6  13    1.73    0.51
   6  -6 -13    1.31    0.53
   5  -6 -13    0.83    0.50
  -5  -6  13    0.57    0.42
 -13   0  14    0.56    0.46
 -12   0  14    0.54    0.47
 -11   0  14    2.27    0.58
 -10   0  14    1.39    0.57
  -9   0  14    1.38    0.56
   9   0 -14    1.92    0.51
  -8   0  14   12.95    1.20
   8   0 -14   13.82    1.16
  -7   0  14    0.93    0.53
   7   0 -14    0.52    0.41
  -6   0  14    4.69    0.77
   6   0 -14    5.03    0.77
   5   0 -14    3.24    0.63
  -5   0  14    2.04    0.59
   4   0 -14    0.25    0.42
  -4   0  14    0.27    0.45
  -3   0  14   -0.13    0.41
   3   0 -14    0.01    0.40
   2   0 -14    0.92    0.49
  -2   0  14    0.57    0.48
   1   0 -14    0.09    0.41
  -1   0  14   -0.07    0.43
   0   0 -14   -0.01    0.43
   0   0  14    0.16    0.49
  -1   0 -14    1.20    0.55
   1   0  14    1.13    0.58
 -12   1  14    0.11    0.45
 -11   1  14    4.18    0.80
 -10   1  14    1.61    0.61
  -9   1  14    1.41    0.59
   9  -1 -14    1.98    0.52
   9   1 -14    1.38    0.47
   8   1 -14    0.96    0.45
  -8   1  14    0.87    0.55
   8  -1 -14    1.03    0.46
   7  -1 -14    0.29    0.41
  -7   1  14   -0.02    0.44
   7   1 -14    0.06    0.40
   6   1 -14    1.52    0.52
   6  -1 -14    0.96    0.49
  -6   1  14    1.57    0.60
   5  -1 -14    2.91    0.62
  -5   1  14    1.50    0.59
   5   1 -14    2.67    0.62
   4   1 -14    0.74    0.48
  -4   1  14    0.94    0.50
   4  -1 -14    0.65    0.47
  -3   1  14   -0.17    0.44
   3  -1 -14    0.05    0.40
   3   1 -14    0.18    0.41
   2  -1 -14   -0.25    0.38
  -2   1  14   -0.01    0.46
   2   1 -14    0.02    0.41
   1  -1 -14    0.52    0.49
  -1   1  14    0.54    0.50
   1   1 -14    0.39    0.45
   0   1 -14    1.57    0.56
   0  -1 -14    1.63    0.59
   1   1  14    0.27    0.51
  -1   1 -14   -0.15    0.41
  -1  -1 -14   -0.10    0.42
 -11   2  14    0.08    0.50
 -10   2  14    2.37    0.69
   9  -2 -14    1.39    0.48
   9   2 -14    2.12    0.56
  -9   2  14    1.72    0.66
  -8   2  14   -0.21    0.47
   8  -2 -14    0.50    0.41
   8   2 -14    0.21    0.41
  -7   2  14    6.15    0.87
   7  -2 -14    6.86    0.81
   7   2 -14    6.33    0.82
  -6   2  14    0.72    0.54
   6  -2 -14    0.55    0.44
   6   2 -14    0.59    0.46
   5   2 -14    1.46    0.54
  -5   2  14    2.30    0.66
   5  -2 -14    1.13    0.51
   4  -2 -14    0.95    0.47
  -4   2  14    0.49    0.52
   4   2 -14    0.49    0.46
   3  -2 -14    0.33    0.44
   3   2 -14    0.28    0.42
  -3   2  14    0.32    0.47
   2   2 -14    2.07    0.61
  -2   2  14    2.37    0.65
   2  -2 -14    2.49    0.63
   1  -2 -14    0.24    0.44
   1   2 -14   -0.20    0.38
  -1   2  14    0.06    0.49
   0   2 -14    0.19    0.43
   0   2  14    0.25    0.52
   0  -2 -14   -0.02    0.41
  -1   2 -14    0.17    0.46
 -10   3  14    3.91    0.86
  10   3 -14    3.61    0.67
   9   3 -14    0.09    0.38
  -9   3  14   -0.23    0.52
   9  -3 -14    0.50    0.37
   8  -3 -14    0.32    0.37
   8   3 -14    0.30    0.43
  -8   3  14   -0.16    0.49
   7   3 -14    2.22    0.62
   7  -3 -14    1.16    0.49
  -7   3  14    2.72    0.70
   6  -3 -14    1.53    0.53
  -6   3  14    2.43    0.69
   6   3 -14    2.03    0.61
  -5   3  14    0.13    0.49
   5  -3 -14    0.26    0.43
   5   3 -14   -0.03    0.41
   4  -3 -14    0.35    0.43
   4   3 -14    1.23    0.53
  -4   3  14    1.06    0.57
   3  -3 -14    0.17    0.44
   3   3 -14    0.23    0.45
  -3   3  14   -0.20    0.49
  -2   3  14    1.97    0.66
   2  -3 -14    0.78    0.50
   2   3 -14    2.08    0.62
   1   3 -14    1.82    0.57
  -1   3  14    1.49    0.64
   1  -3 -14    1.77    0.56
   0   3 -14    1.07    0.54
  10   4 -14    1.21    0.51
  -9   4  14    1.38    0.68
   9   4 -14    0.35    0.44
   8   4 -14    2.21    0.60
   8  -4 -14    0.88    0.45
  -8   4  14    2.20    0.73
   7  -4 -14    0.80    0.43
   7   4 -14    0.75    0.50
  -7   4  14    1.36    0.67
   6   4 -14    3.39    0.71
   6  -4 -14    1.99    0.56
  -6   4  14    3.41    0.81
   5  -4 -14    2.38    0.61
   5   4 -14    2.84    0.68
  -5   4  14    2.52    0.75
   4   4 -14    0.70    0.51
   4  -4 -14    0.98    0.50
  -4   4  14    0.86    0.58
   3   4 -14    1.73    0.58
   3  -4 -14    0.62    0.47
  -3   4  14    1.73    0.66
   2  -4 -14    1.17    0.52
   2   4 -14    1.53    0.59
   8  -5 -14    0.02    0.40
   7  -5 -14    0.04    0.40
   6  -5 -14   -0.08    0.42
   5  -5 -14   -0.04    0.42
 -12   0  15    0.18    0.41
 -11   0  15    0.69    0.48
 -10   0  15   -0.07    0.47
   9   0 -15    0.47    0.41
  -9   0  15    0.54    0.49
   8   0 -15    1.89    0.56
  -8   0  15    1.45    0.56
  -7   0  15   -0.02    0.44
   7   0 -15   -0.01    0.40
  -6   0  15    1.68    0.58
   6   0 -15    2.43    0.61
   5   0 -15    0.57    0.49
  -5   0  15    0.91    0.49
   4   0 -15    0.28    0.46
  -4   0  15    0.07    0.45
   3   0 -15    0.29    0.46
  -3   0  15   -0.15    0.42
   2   0 -15    0.57    0.48
  -2   0  15    0.12    0.44
  -1   0  15    0.17    0.45
   0   0  15    0.88    0.53
 -11   1  15    1.26    0.56
 -10   1  15    1.15    0.58
   9  -1 -15    0.79    0.44
   9   1 -15    0.46    0.45
  -9   1  15    1.22    0.58
   8  -1 -15   -0.03    0.40
  -8   1  15    0.72    0.54
   8   1 -15    0.04    0.40
   7   1 -15    0.40    0.45
   7  -1 -15    1.11    0.51
  -7   1  15    0.50    0.49
   6  -1 -15    0.07    0.40
   6   1 -15    0.24    0.43
  -6   1  15    0.98    0.54
   5   1 -15    0.49    0.48
  -5   1  15    0.22    0.50
   5  -1 -15    0.59    0.48
   4   1 -15    0.17    0.45
   4  -1 -15    0.15    0.45
  -4   1  15   -0.01    0.47
   3  -1 -15    1.21    0.54
   3   1 -15    1.93    0.61
  -3   1  15    1.56    0.59
   2   1 -15    0.00    0.44
  -2   1  15    0.28    0.49
   2  -1 -15   -0.07    0.43
  -1   1  15    0.08    0.47
 -10   2  15    0.78    0.59
  10   2 -15    0.59    0.42
   9  -2 -15    0.22    0.39
   9   2 -15    0.33    0.41
  -9   2  15    0.46    0.57
   8  -2 -15    1.41    0.51
  -8   2  15    2.17    0.65
   8   2 -15    1.67    0.56
  -7   2  15    1.16    0.60
   7   2 -15    0.73    0.50
   7  -2 -15    1.14    0.51
   6   2 -15    0.53    0.48
  -6   2  15    0.80    0.57
   6  -2 -15    0.66    0.49
   5   2 -15    2.34    0.64
  -5   2  15    2.21    0.70
   5  -2 -15    2.51    0.65
   4   2 -15    0.33    0.47
  -4   2  15   -0.04    0.49
   4  -2 -15    0.49    0.49
   3  -2 -15    0.87    0.53
  -3   2  15    1.10    0.58
   3   2 -15    0.42    0.46
  -2   2  15    0.76    0.57
  10   3 -15    0.36    0.47
   9   3 -15   -0.27    0.40
   9  -3 -15   -0.05    0.36
  -8   3  15    0.93    0.61
   8   3 -15    1.24    0.56
   8  -3 -15    0.68    0.45
  -7   3  15    0.57    0.56
   7   3 -15    1.46    0.59
   7  -3 -15    1.09    0.47
   6  -3 -15    0.79    0.49
  -6   3  15    1.40    0.64
   6   3 -15    0.99    0.57
  -5   3  15    1.70    0.67
   5   3 -15    0.84    0.55
   5  -3 -15    0.86    0.52
   4  -3 -15    0.12    0.44
  -4   3  15    0.53    0.57
   4   3 -15    0.57    0.52
   8  -4 -15    0.36    0.42
   7  -4 -15    0.56    0.46
   9   0 -16    1.64    0.56
   8   0 -16    0.19    0.44
   7   0 -16    0.15    0.45
  -7   0  16    0.64    0.49
  -6   0  16    0.66    0.52
   6   0 -16   -0.13    0.45
  -5   0  16    0.46    0.50
  -4   0  16   -0.08    0.43
  -9   1  16    1.61    0.61
   9  -1 -16    0.91    0.49
   9   1 -16    1.37    0.53
   8   1 -16    5.91    0.84
   8  -1 -16    6.23    0.86
  -7   1  16    1.70    0.65
   7   1 -16    1.45    0.60
   7  -1 -16    1.54    0.59
  -6   1  16    0.51    0.55
   6  -1 -16    0.38    0.52
  -5   1  16    0.67    0.54
  -4   1  16    0.82    0.52
  10   2 -16    0.45    0.44
   9  -2 -16    0.23    0.39
   8  -2 -16    0.22    0.45
   0   0   0    0.00    0.00
;
_shelx_hkl_checksum              67870
_olex2_submission_special_instructions 'No special instructions were received'
loop_
_space_group_symop_operation_xyz
'x, y, z'
'-x, y+1/2, -z'
loop_
_atom_site_label
_atom_site_type_symbol
_atom_site_fract_x
_atom_site_fract_y
_atom_site_fract_z
_atom_site_U_iso_or_equiv
_atom_site_adp_type
_atom_site_occupancy
_atom_site_site_symmetry_order
_atom_site_calc_flag
_atom_site_refinement_flags_posn
Br1 Br 0.11456(5) 1.48188(7) 0.13354(5) 0.0683(2) Uani 1 1 d .
S1 S 0.53173(9) 0.78388(13) 0.37274(9) 0.0360(2) Uani 1 1 d .
N1 N 0.7022(3) 0.9462(4) 0.2780(3) 0.0369(8) Uani 1 1 d .
O1 O 0.4216(3) 0.7564(5) 0.3898(3) 0.0518(8) Uani 1 1 d .
C1 C 0.7844(4) 0.8673(5) 0.2561(4) 0.0364(9) Uani 1 1 d .
H1 H 0.7571 0.7897 0.1929 0.044 Uiso 1 1 calc R
N2 N 0.4939(3) 0.9096(4) 0.2579(3) 0.0343(7) Uani 1 1 d .
C2 C 0.5768(3) 0.9172(5) 0.2000(4) 0.0350(9) Uani 1 1 d .
O2 O 0.5932(3) 0.6433(4) 0.3502(3) 0.0433(7) Uani 1 1 d .
C3 C 0.5342(4) 0.9148(5) 0.0843(4) 0.0388(9) Uani 1 1 d .
H3 H 0.5945 0.9377 0.0555 0.047 Uiso 1 1 calc R
C11 C 0.4051(3) 1.0450(5) 0.2356(3) 0.0328(9) Uani 1 1 d .
C12 C 0.4425(4) 1.2103(5) 0.2353(4) 0.0406(10) Uani 1 1 d .
H12 H 0.5273 1.2345 0.2558 0.049 Uiso 1 1 calc R
C13 C 0.3568(4) 1.3409(6) 0.2051(4) 0.0460(11) Uani 1 1 d .
H13 H 0.3816 1.4541 0.2031 0.055 Uiso 1 1 calc R
C14 C 0.2343(4) 1.3020(6) 0.1780(4) 0.0421(10) Uani 1 1 d .
C15 C 0.1961(4) 1.1401(6) 0.1810(4) 0.0451(11) Uani 1 1 d .
H15 H 0.1118 1.1176 0.1638 0.054 Uiso 1 1 calc R
C16 C 0.2805(3) 1.0096(6) 0.2090(4) 0.0417(10) Uani 1 1 d .
H16 H 0.2545 0.8968 0.2101 0.050 Uiso 1 1 calc R
C31 C 0.4082(4) 0.8821(6) -0.0066(4) 0.0376(9) Uani 1 1 d .
C32 C 0.3755(4) 0.9498(6) -0.1191(4) 0.0457(12) Uani 1 1 d .
H32 H 0.4338 1.0166 -0.1333 0.055 Uiso 1 1 calc R
C33 C 0.2601(5) 0.9204(7) -0.2088(4) 0.0534(13) Uani 1 1 d .
H33 H 0.2401 0.9659 -0.2843 0.064 Uiso 1 1 calc R
C34 C 0.1732(5) 0.8252(7) -0.1896(5) 0.0579(14) Uani 1 1 d .
H34 H 0.0927 0.8092 -0.2507 0.070 Uiso 1 1 calc R
C35 C 0.2042(4) 0.7533(7) -0.0807(4) 0.0518(12) Uani 1 1 d .
H35 H 0.1457 0.6849 -0.0679 0.062 Uiso 1 1 calc R
C36 C 0.3204(4) 0.7810(6) 0.0095(4) 0.0451(10) Uani 1 1 d .
H36 H 0.3408 0.7304 0.0836 0.054 Uiso 1 1 calc R
C41 C 0.9182(4) 0.8919(6) 0.3242(4) 0.0358(9) Uani 1 1 d .
C42 C 0.9998(4) 0.7833(6) 0.3033(4) 0.0424(10) Uani 1 1 d .
H42 H 0.9676 0.6991 0.2446 0.051 Uiso 1 1 calc R
C43 C 1.1273(4) 0.7983(7) 0.3679(4) 0.0453(10) Uani 1 1 d .
H43 H 1.1816 0.7218 0.3551 0.054 Uiso 1 1 calc R
C44 C 1.1748(4) 0.9234(6) 0.4501(4) 0.0477(11) Uani 1 1 d .
H44 H 1.2620 0.9349 0.4926 0.057 Uiso 1 1 calc R
C45 C 1.0959(4) 1.0330(6) 0.4714(4) 0.0467(11) Uani 1 1 d .
H45 H 1.1294 1.1193 0.5283 0.056 Uiso 1 1 calc R
C46 C 0.9670(4) 1.0170(6) 0.4092(4) 0.0389(10) Uani 1 1 d .
H46 H 0.9132 1.0909 0.4249 0.047 Uiso 1 1 calc R
C101 C 0.6380(4) 0.8952(7) 0.4948(4) 0.0508(12) Uani 1 1 d .
H10A H 0.5963 0.9919 0.5107 0.076 Uiso 1 1 calc R
H10B H 0.7070 0.9351 0.4786 0.076 Uiso 1 1 calc R
H10C H 0.6699 0.8207 0.5632 0.076 Uiso 1 1 calc R
loop_
_atom_site_aniso_label
_atom_site_aniso_U_11
_atom_site_aniso_U_22
_atom_site_aniso_U_33
_atom_site_aniso_U_23
_atom_site_aniso_U_13
_atom_site_aniso_U_12
Br1 0.0611(3) 0.0570(3) 0.0945(4) 0.0133(3) 0.0406(3) 0.0267(3)
S1 0.0311(5) 0.0404(5) 0.0369(5) 0.0063(5) 0.0150(4) 0.0035(4)
N1 0.0289(15) 0.045(2) 0.0392(18) 0.0035(16) 0.0162(14) 0.0007(15)
O1 0.0427(16) 0.064(2) 0.0586(19) 0.0229(17) 0.0311(14) 0.0071(16)
C1 0.0290(19) 0.040(2) 0.040(2) 0.0027(18) 0.0155(18) -0.0015(17)
N2 0.0257(16) 0.0414(18) 0.0381(19) 0.0070(15) 0.0157(14) 0.0049(14)
C2 0.0273(18) 0.040(2) 0.041(2) 0.0035(17) 0.0176(18) 0.0025(16)
O2 0.0434(16) 0.0393(16) 0.0446(17) 0.0031(14) 0.0160(14) 0.0067(13)
C3 0.033(2) 0.045(2) 0.045(2) 0.0089(19) 0.0221(19) 0.0068(18)
C11 0.0250(18) 0.040(2) 0.032(2) 0.0063(17) 0.0112(16) 0.0029(16)
C12 0.030(2) 0.049(3) 0.045(3) 0.001(2) 0.0174(19) -0.0034(19)
C13 0.046(2) 0.038(2) 0.059(3) 0.003(2) 0.028(2) -0.0013(19)
C14 0.037(2) 0.045(3) 0.046(2) 0.004(2) 0.0199(19) 0.014(2)
C15 0.024(2) 0.052(3) 0.058(3) 0.006(2) 0.017(2) 0.0063(19)
C16 0.0311(19) 0.041(2) 0.054(3) 0.004(2) 0.0184(18) -0.0021(18)
C31 0.036(2) 0.041(2) 0.038(2) 0.0035(18) 0.0186(18) 0.0100(18)
C32 0.051(2) 0.048(3) 0.042(2) 0.005(2) 0.023(2) 0.009(2)
C33 0.056(3) 0.062(3) 0.035(2) 0.004(2) 0.013(2) 0.015(2)
C34 0.045(3) 0.064(3) 0.046(3) -0.013(3) 0.002(2) 0.010(2)
C35 0.039(2) 0.060(3) 0.054(3) -0.009(2) 0.017(2) -0.007(2)
C36 0.042(2) 0.051(3) 0.038(2) 0.006(2) 0.0136(19) 0.001(2)
C41 0.0286(19) 0.043(2) 0.040(2) 0.0045(19) 0.0178(18) 0.0000(17)
C42 0.033(2) 0.048(2) 0.049(3) -0.011(2) 0.0193(18) -0.006(2)
C43 0.031(2) 0.052(3) 0.053(3) -0.003(2) 0.0173(19) 0.000(2)
C44 0.029(2) 0.065(3) 0.043(2) 0.005(2) 0.0097(19) -0.004(2)
C45 0.041(2) 0.054(3) 0.037(2) -0.005(2) 0.009(2) -0.006(2)
C46 0.037(2) 0.043(3) 0.038(2) -0.0001(19) 0.0169(18) 0.0013(18)
C101 0.053(3) 0.059(3) 0.041(3) -0.005(2) 0.020(2) 0.002(2)
loop_
_atom_type_symbol
_atom_type_description
_atom_type_scat_dispersion_real
_atom_type_scat_dispersion_imag
_atom_type_scat_source
C C 0.0033 0.0016 'International Tables Vol C Tables 4.2.6.8 and 6.1.1.4'
H H 0.0000 0.0000 'International Tables Vol C Tables 4.2.6.8 and 6.1.1.4'
Br Br -0.2901 2.4595 'International Tables Vol C Tables 4.2.6.8 and 6.1.1.4'
N N 0.0061 0.0033 'International Tables Vol C Tables 4.2.6.8 and 6.1.1.4'
O O 0.0106 0.0060 'International Tables Vol C Tables 4.2.6.8 and 6.1.1.4'
S S 0.1246 0.1234 'International Tables Vol C Tables 4.2.6.8 and 6.1.1.4'
loop_
_geom_angle_atom_site_label_1
_geom_angle_atom_site_label_2
_geom_angle_atom_site_label_3
_geom_angle
O1 S1 N2 107.29(17)
O1 S1 C101 107.9(2)
N2 S1 C101 106.9(2)
O2 S1 O1 119.4(2)
O2 S1 N2 105.55(17)
O2 S1 C101 109.2(2)
C1 N1 C2 116.4(4)
N1 C1 C41 123.0(4)
C2 N2 S1 118.2(3)
C11 N2 S1 121.4(3)
C11 N2 C2 117.7(3)
N1 C2 N2 113.3(3)
C3 C2 N1 124.4(3)
C3 C2 N2 121.9(3)
C2 C3 C31 130.2(4)
C12 C11 N2 119.6(3)
C12 C11 C16 119.8(4)
C16 C11 N2 120.5(4)
C11 C12 C13 120.5(4)
C14 C13 C12 118.4(4)
C13 C14 Br1 118.6(4)
C15 C14 Br1 119.4(3)
C15 C14 C13 122.0(4)
C14 C15 C16 119.8(4)
C15 C16 C11 119.4(4)
C32 C31 C3 118.1(4)
C36 C31 C3 124.3(4)
C36 C31 C32 117.5(4)
C33 C32 C31 121.0(4)
C32 C33 C34 120.4(4)
C33 C34 C35 119.7(4)
C34 C35 C36 120.2(5)
C35 C36 C31 121.2(4)
C42 C41 C1 118.2(4)
C46 C41 C1 122.7(4)
C46 C41 C42 119.1(4)
C43 C42 C41 120.5(4)
C44 C43 C42 120.1(4)
C43 C44 C45 120.3(4)
C44 C45 C46 120.3(4)
C41 C46 C45 119.6(4)
loop_
_geom_bond_atom_site_label_1
_geom_bond_atom_site_label_2
_geom_bond_distance
Br1 C14 1.886(4)
S1 O1 1.404(3)
S1 N2 1.623(3)
S1 O2 1.399(3)
S1 C101 1.725(5)
N1 C1 1.261(5)
N1 C2 1.386(5)
C1 C41 1.438(5)
N2 C2 1.429(5)
N2 C11 1.419(5)
C2 C3 1.300(6)
C3 C31 1.444(6)
C11 C12 1.358(6)
C11 C16 1.374(5)
C12 C13 1.361(6)
C13 C14 1.356(6)
C14 C15 1.341(6)
C15 C16 1.352(6)
C31 C32 1.381(6)
C31 C36 1.371(6)
C32 C33 1.352(6)
C33 C34 1.355(7)
C34 C35 1.358(7)
C35 C36 1.358(6)
C41 C42 1.376(6)
C41 C46 1.366(6)
C42 C43 1.362(6)
C43 C44 1.345(6)
C44 C45 1.359(6)
C45 C46 1.373(6)
