#------------------------------------------------------------------------------
#$Date: 2017-01-01 07:27:51 +0200 (Sun, 01 Jan 2017) $
#$Revision: 189712 $
#$URL: file:///home/coder/svn-repositories/cod/cif/1/54/49/1544957.cif $
#------------------------------------------------------------------------------
#
# This file is available in the Crystallography Open Database (COD),
# http://www.crystallography.net/
#
# All data on this site have been placed in the public domain by the
# contributors.
#
data_1544957
loop_
_publ_author_name
'Sengoden, Mani'
'Bhowmick, Abhisikta'
'Punniyamurthy, Tharmalingam'
_publ_section_title
;
 Stereospecific Copper-Catalyzed Domino Ring Opening and sp(3) C-H
 Functionalization of Activated Aziridines with N-Alkylanilines.
;
_journal_name_full               'Organic letters'
_journal_paper_doi               10.1021/acs.orglett.6b03458
_journal_year                    2016
_chemical_absolute_configuration syn
_chemical_formula_moiety         'C24 H24 N2 O2 S'
_chemical_formula_sum            'C24 H24 N2 O2 S'
_chemical_formula_weight         404.51
_space_group_crystal_system      orthorhombic
_space_group_IT_number           19
_space_group_name_Hall           'P 2ac 2ab'
_space_group_name_H-M_alt        'P 21 21 21'
_symmetry_space_group_name_Hall  'P 2ac 2ab'
_symmetry_space_group_name_H-M   'P 21 21 21'
_atom_sites_solution_hydrogens   geom
_audit_creation_method           SHELXL-2014/7
_cell_angle_alpha                90
_cell_angle_beta                 90
_cell_angle_gamma                90
_cell_formula_units_Z            4
_cell_length_a                   11.1304(5)
_cell_length_b                   11.9608(7)
_cell_length_c                   15.9285(7)
_cell_measurement_reflns_used    1480
_cell_measurement_temperature    296(2)
_cell_measurement_theta_max      23.2170
_cell_measurement_theta_min      3.8570
_cell_volume                     2120.54(18)
_computing_cell_refinement
;
CrysAlisPro, Agilent Technologies,
Version 1.171.37.35 (release 13-08-2014 CrysAlis171 .NET)
(compiled Aug 13 2014,18:06:01)
;
_computing_data_collection
;
CrysAlisPro, Agilent Technologies,
Version 1.171.37.35 (release 13-08-2014 CrysAlis171 .NET)
(compiled Aug 13 2014,18:06:01)
;
_computing_data_reduction
;
CrysAlisPro, Agilent Technologies,
Version 1.171.37.35 (release 13-08-2014 CrysAlis171 .NET)
(compiled Aug 13 2014,18:06:01)
;
_computing_molecular_graphics    WINGX
_computing_publication_material  WINGX
_computing_structure_refinement  'SHELXL-2014/7 (Sheldrick, 2014)'
_computing_structure_solution    'SHELXS-2014/7 (Sheldrick, 2014)'
_diffrn_ambient_temperature      296(2)
_diffrn_detector                 'CCD plate'
_diffrn_detector_area_resol_mean 16.2760
_diffrn_detector_type            Eos
_diffrn_measured_fraction_theta_full 0.995
_diffrn_measured_fraction_theta_max 0.886
_diffrn_measurement_device       'four-circle diffractometer'
_diffrn_measurement_device_type  'SuperNova, Single source at offset, Eos'
_diffrn_radiation_monochromator  mirror
_diffrn_radiation_probe          x-ray
_diffrn_radiation_type           'Mo K\a'
_diffrn_radiation_wavelength     0.71073
_diffrn_reflns_av_R_equivalents  0.0236
_diffrn_reflns_av_unetI/netI     0.0537
_diffrn_reflns_Laue_measured_fraction_full 0.995
_diffrn_reflns_Laue_measured_fraction_max 0.886
_diffrn_reflns_limit_h_max       15
_diffrn_reflns_limit_h_min       -7
_diffrn_reflns_limit_k_max       16
_diffrn_reflns_limit_k_min       -10
_diffrn_reflns_limit_l_max       21
_diffrn_reflns_limit_l_min       -21
_diffrn_reflns_number            6449
_diffrn_reflns_point_group_measured_fraction_full 0.888
_diffrn_reflns_point_group_measured_fraction_max 0.740
_diffrn_reflns_theta_full        25.242
_diffrn_reflns_theta_max         28.900
_diffrn_reflns_theta_min         3.145
_diffrn_source                   'SuperNova (Mo) X-ray Source'
_exptl_absorpt_coefficient_mu    0.175
_exptl_absorpt_correction_T_max  0.974
_exptl_absorpt_correction_T_min  0.959
_exptl_absorpt_correction_type   multi-scan
_exptl_absorpt_process_details
;
CrysAlisPro, Agilent Technologies,
Version 1.171.37.35 (release 13-08-2014 CrysAlis171 .NET)
(compiled Aug 13 2014,18:06:01)
Empirical absorption correction using spherical harmonics,
 implemented in SCALE3 ABSPACK scaling algorithm.
;
_exptl_crystal_colour            colorless
_exptl_crystal_density_diffrn    1.267
_exptl_crystal_description       square
_exptl_crystal_F_000             856
_exptl_crystal_size_max          0.250
_exptl_crystal_size_mid          0.200
_exptl_crystal_size_min          0.150
_refine_diff_density_max         0.173
_refine_diff_density_min         -0.215
_refine_diff_density_rms         0.041
_refine_ls_abs_structure_details
;
 Flack x determined using 862 quotients [(I+)-(I-)]/[(I+)+(I-)]
 (Parsons, Flack and Wagner, Acta Cryst. B69 (2013) 249-259).
;
_refine_ls_abs_structure_Flack   0.01(6)
_refine_ls_extinction_method     none
_refine_ls_goodness_of_fit_ref   1.051
_refine_ls_hydrogen_treatment    constr
_refine_ls_matrix_type           full
_refine_ls_number_parameters     263
_refine_ls_number_reflns         5579
_refine_ls_number_restraints     0
_refine_ls_restrained_S_all      1.051
_refine_ls_R_factor_all          0.0773
_refine_ls_R_factor_gt           0.0504
_refine_ls_shift/su_max          0.000
_refine_ls_shift/su_mean         0.000
_refine_ls_structure_factor_coef Fsqd
_refine_ls_weighting_details
'w=1/[\s^2^(Fo^2^)+(0.0389P)^2^+0.2726P] where P=(Fo^2^+2Fc^2^)/3'
_refine_ls_weighting_scheme      calc
_refine_ls_wR_factor_gt          0.1012
_refine_ls_wR_factor_ref         0.1185
_reflns_Friedel_coverage         0.483
_reflns_Friedel_fraction_full    0.745
_reflns_Friedel_fraction_max     0.551
_reflns_number_gt                2982
_reflns_number_total             5579
_reflns_threshold_expression     'I > 2\s(I)'
_cod_data_source_file            ol6b03458_si_002.cif
_cod_data_source_block           IQ
_cod_database_code               1544957
_shelx_shelxl_version_number     2014/7
_shelx_space_group_comment
;
The symmetry employed for this shelxl refinement is uniquely defined
by the following loop, which should always be used as a source of
symmetry information in preference to the above space-group names.
They are only intended as comments.
;
_shelx_estimated_absorpt_t_min   0.958
_shelx_estimated_absorpt_t_max   0.974
_shelx_res_file
;

    shelx.res created by SHELXL-2014/7

TITL CF solution in P212121
CELL  0.71073  11.1304  11.9608  15.9285   90.000   90.000   90.000
ZERR     4.00   0.0005   0.0007   0.0007    0.000    0.000    0.000
LATT  -1
SYMM  1/2 - X, - Y, 1/2 + Z
SYMM  1/2 + X, 1/2 - Y, - Z
SYMM  - X, 1/2 + Y, 1/2 - Z
SFAC  C    H    N    O    S
UNIT  96 96 8 8 4
MERG   2
OMIT     3   0   3
OMIT     6   6   0
FMAP   2
PLAN   10
SIZE     0.150   0.200   0.250
ACTA
BOND
LIST   1
L.S.  20
TEMP    23.00
WGHT    0.038300    0.282300
FVAR       6.09441
C1    1    0.849281    0.367333    0.733846    11.00000    0.04885    0.04141 =
         0.05974   -0.00735    0.00315   -0.00194
AFIX  13
H1    2    0.894726    0.348069    0.683174    11.00000   -1.20000
AFIX   0
C2    1    0.788566    0.481043    0.721444    11.00000    0.05757    0.04244 =
         0.07933    0.00172    0.00836   -0.00262
AFIX  23
H13A  2    0.771735    0.516443    0.774956    11.00000   -1.20000
H13B  2    0.838454    0.530484    0.688053    11.00000   -1.20000
AFIX   0
C3    1    0.663777    0.329373    0.674244    11.00000    0.04996    0.04016 =
         0.05907    0.00226    0.00193   -0.00117
AFIX  13
H11   2    0.581108    0.308751    0.688686    11.00000   -1.20000
AFIX   0
C4    1    0.694435    0.283557    0.587691    11.00000    0.04431    0.04472 =
         0.05881   -0.00263   -0.00049   -0.00330
C5    1    0.642836    0.330693    0.516462    11.00000    0.05431    0.05479 =
         0.06671   -0.00380   -0.00416    0.00165
AFIX  43
H9    2    0.591509    0.391576    0.522157    11.00000   -1.20000
AFIX   0
C6    1    0.666497    0.288674    0.437516    11.00000    0.07277    0.06594 =
         0.06120   -0.00128   -0.00598   -0.00909
AFIX  43
H8    2    0.632052    0.321405    0.390341    11.00000   -1.20000
AFIX   0
C7    1    0.741619    0.197775    0.429181    11.00000    0.07330    0.06751 =
         0.06288   -0.01791    0.00439   -0.01641
AFIX  43
H7    2    0.757596    0.168825    0.376156    11.00000   -1.20000
AFIX   0
C8    1    0.792724    0.149980    0.498353    11.00000    0.05455    0.05464 =
         0.07831   -0.01621    0.00814   -0.00339
AFIX  43
H6    2    0.843760    0.089054    0.491712    11.00000   -1.20000
AFIX   0
C9    1    0.769741    0.190954    0.579017    11.00000    0.04697    0.04442 =
         0.06691   -0.01099   -0.00117   -0.00367
C10   1    0.826732    0.136676    0.654106    11.00000    0.07400    0.04268 =
         0.07884   -0.00821   -0.01307    0.00885
AFIX  23
H4A   2    0.911549    0.155254    0.655199    11.00000   -1.20000
H4B   2    0.819847    0.056142    0.648787    11.00000   -1.20000
AFIX   0
C11   1    0.769491    0.173090    0.736441    11.00000    0.07124    0.04219 =
         0.07191    0.00971   -0.00852   -0.00619
AFIX  23
H3A   2    0.694883    0.132420    0.744047    11.00000   -1.20000
H3B   2    0.822636    0.152991    0.782284    11.00000   -1.20000
AFIX   0
C12   1    0.930307    0.358234    0.809174    11.00000    0.06451    0.04152 =
         0.06191   -0.00387   -0.00432   -0.00715
C13   1    0.888831    0.379389    0.888898    11.00000    0.11497    0.05485 =
         0.06675   -0.00746   -0.00236    0.00397
AFIX  43
H19   2    0.809317    0.400595    0.897157    11.00000   -1.20000
AFIX   0
C14   1    0.966686    0.368943    0.957902    11.00000    0.19271    0.05178 =
         0.06602   -0.01166   -0.01792   -0.01525
AFIX  43
H18   2    0.939989    0.385419    1.011826    11.00000   -1.20000
AFIX   0
C15   1    1.082311    0.334209    0.944717    11.00000    0.14592    0.06865 =
         0.12074   -0.00101   -0.07462   -0.02508
AFIX  43
H17   2    1.133599    0.326112    0.990406    11.00000   -1.20000
AFIX   0
C16   1    1.123814    0.311312    0.866465    11.00000    0.08278    0.09330 =
         0.13106    0.00724   -0.04223   -0.02239
AFIX  43
H16   2    1.202360    0.286871    0.858743    11.00000   -1.20000
AFIX   0
C17   1    1.049278    0.324480    0.799322    11.00000    0.06462    0.06785 =
         0.08997    0.00120   -0.01664   -0.01370
AFIX  43
H15   2    1.078526    0.310603    0.745632    11.00000   -1.20000
AFIX   0
C18   1    0.523274    0.506270    0.807280    11.00000    0.04532    0.04324 =
         0.05242   -0.00287   -0.00215    0.00438
C19   1    0.461622    0.411508    0.831442    11.00000    0.06394    0.04894 =
         0.05448   -0.00551   -0.00496   -0.00758
AFIX  43
H28   2    0.436607    0.359944    0.791390    11.00000   -1.20000
AFIX   0
C20   1    0.437305    0.393637    0.915130    11.00000    0.06596    0.05460 =
         0.05949    0.00453    0.00145   -0.01248
AFIX  43
H27   2    0.396902    0.329015    0.931165    11.00000   -1.20000
AFIX   0
C21   1    0.471894    0.470164    0.976068    11.00000    0.05868    0.05641 =
         0.05203   -0.00238   -0.00485    0.00817
C22   1    0.533851    0.564981    0.950330    11.00000    0.07475    0.05186 =
         0.05935   -0.01745   -0.00849    0.00223
AFIX  43
H25   2    0.558854    0.616828    0.990179    11.00000   -1.20000
AFIX   0
C23   1    0.558879    0.583509    0.866808    11.00000    0.06389    0.04103 =
         0.06214   -0.00660   -0.00165   -0.00507
AFIX  43
H24   2    0.599630    0.647826    0.850513    11.00000   -1.20000
AFIX   0
C24   1    0.440474    0.450429    1.066905    11.00000    0.10272    0.07596 =
         0.05466   -0.00011   -0.00417    0.01368
AFIX 137
H29A  2    0.465714    0.513436    1.099813    11.00000   -1.50000
H29B  2    0.480527    0.384307    1.086496    11.00000   -1.50000
H29C  2    0.355169    0.440974    1.072266    11.00000   -1.50000
AFIX   0
N2    3    0.744452    0.293023    0.740909    11.00000    0.05351    0.04128 =
         0.05339    0.00373   -0.00277   -0.00493
N1    3    0.676332    0.452842    0.676801    11.00000    0.05092    0.04057 =
         0.05772   -0.00405    0.00523    0.00139
O1    4    0.460578    0.485570    0.650934    11.00000    0.06004    0.07519 =
         0.05598   -0.00838   -0.01375    0.01251
O2    4    0.595076    0.642853    0.691532    11.00000    0.09027    0.03842 =
         0.07424    0.01097    0.01249    0.00967
S1    5    0.557508    0.528358    0.700599    11.00000    0.06068    0.04204 =
         0.05300    0.00281    0.00200    0.00921
HKLF    4

REM  CF solution in P212121
REM R1 =  0.0504 for    2982 Fo > 4sig(Fo)  and  0.0773 for all    4129 data
REM    263 parameters refined using      0 restraints

END

WGHT      0.0382      0.2847

REM Highest difference peak  0.173,  deepest hole -0.215,  1-sigma level  0.041
Q1    1   0.8583  0.3781  0.9945  11.00000  0.05    0.17
Q2    1   0.8853  0.1962  0.3624  11.00000  0.05    0.16
Q3    1   0.7021  0.3158  0.7908  11.00000  0.05    0.15
Q4    1   0.2841  0.4775  0.9429  11.00000  0.05    0.14
Q5    1   0.7416  0.5069  0.8480  11.00000  0.05    0.14
Q6    1   0.6243  0.6607  0.7507  11.00000  0.05    0.14
Q7    1   0.5540  0.3823  0.5293  11.00000  0.05    0.14
Q8    1   0.9569  0.0201  0.6757  11.00000  0.05    0.14
Q9    1   0.7216  0.0169  0.3122  11.00000  0.05    0.14
Q10   1   0.5151  0.6745  0.6495  11.00000  0.05    0.14
;
_shelx_res_checksum              50888
_shelx_hkl_file
;
   0   0  -3-3.96784 28.6232   3
   0   0   3 3.85017 25.0193   3
   0   0  -4 25280.5 659.026   3
   0   0   4 26936.2 645.354   3
   0   0  -5 600.930 135.666   3
   0   0   5 456.642 110.286   3
   0   0   6 22553.0 713.724   3
   0   0  -6 23674.5 791.948   3
   0   0  -7 3334.52 343.855   3
   0   0  -8 178366. 2496.45   3
   0   0  -9 504.196 154.284   3
   0   0 -10 7608.78 581.744   3
   0   0 -11 115.245 110.290   3
   0   0 -12 998.079 260.492   3
   0   0 -12 1144.00 267.544   2
   0   0 -13 248.029 159.115   3
   0   0 -13 179.456 158.199   2
   0   0 -14 648.635 237.639   2
   0   0 -15 552.509 241.193   2
   0   0 -16 3951.63 583.282   2
   0   0 -17 544.762 264.981   2
   0   0 -18 4389.63 661.513   2
   0   0 -19-52.5756 191.857   2
   0  -1   3 50906.9 847.456   2
   0   1  -3 51313.3 844.757   2
   0  -1   3 48448.1 904.939   3
   0  -1   4 300819. 2476.36   3
   0   1  -4 297668. 2330.03   2
   0  -1  -5 7284.46 392.085   3
   0   1  -5 8012.18 426.406   2
   0  -1   5 7160.04 417.068   3
   0  -1   6 51765.1 1190.38   3
   0   1  -6 53038.4 1194.85   2
   0  -1  -6 51968.4 1127.65   3
   0  -1  -7 2502.17 274.267   3
   0   1  -7 2734.52 307.013   2
   0  -1   7 2537.06 278.815   3
   0  -1  -8 28600.6 985.698   3
   0  -1   8 27099.9 962.300   3
   0   1  -8 26883.4 994.738   2
   0   1  -9 471.258 160.454   2
   0  -1   9 248.279 117.903   3
   0  -1  -9 81.0041 82.4076   3
   0   1 -10 4218.40 453.378   2
   0  -1 -10 4251.12 433.619   3
   0   1 -11 1038.50 250.647   2
   0  -1 -11 1051.94 249.205   3
   0   1 -12 43.3350 118.079   2
   0  -1 -12-57.8005 119.980   3
   0  -1 -13 38434.4 1515.46   3
   0   1 -13 36766.1 1545.80   2
   0  -1 -14 440.164 208.086   3
   0   1 -14 360.739 198.264   2
   0  -1 -15 843.524 279.462   3
   0   1 -15 1433.06 331.962   2
   0  -1 -16 3523.77 565.209   2
   0   1 -16 4355.04 605.328   2
   0  -1 -17 2122.78 479.373   2
   0   1 -17 1911.51 426.098   2
   0   1 -18 626.709 265.339   2
   0  -1 -18-8.57162 149.535   2
   0  -1 -19 851.204 362.911   2
   0  -1 -20 149.523 178.572   2
   0   2   0 38791.7 752.797   1
   0  -2   1 137402. 1450.87   1
   0  -2  -1 132562. 1524.67   1
   0   2  -1 133794. 1428.33   1
   0   2   1 139357. 1493.63   1
   0   2   2 116643. 1517.93   1
   0  -2  -2 114112. 1580.11   1
   0  -2   3 18133.9 565.622   2
   0   2   3 16559.5 645.008   1
   0  -2   4 2650.57 236.187   2
   0   2   4 2638.06 293.445   1
   0  -2   5 12250.0 545.565   2
   0   2  -5 12192.8 540.313   2
   0  -2   5 12194.0 609.372   3
   0  -2   6 182714. 2480.80   3
   0   2  -6 182942. 2276.13   2
   0  -2   7 2842.28 326.238   3
   0   2  -7 2840.42 305.026   2
   0   2  -8 28526.7 1029.87   2
   0  -2  -8 30678.1 1024.50   3
   0  -2   8 29865.3 1097.50   3
   0  -2  -9 1232.21 224.272   3
   0   2  -9 1360.83 239.338   2
   0   2 -10 10048.3 687.314   2
   0  -2 -10 11069.1 711.769   3
   0   2 -11 57.1909 102.380   2
   0  -2 -11 12.4124 101.858   3
   0   2 -12 23347.2 1168.36   2
   0  -2 -12 20035.5 1058.63   3
   0  -2 -13 17491.9 1039.26   3
   0   2 -13 19681.6 1116.29   2
   0   2 -14-62.6724 135.460   2
   0  -2 -14 460.007 192.576   3
   0  -2 -15-93.9165 126.521   3
   0   2 -15 22.5417 165.477   2
   0   2 -16 210.892 159.251   2
   0   2 -17 148.622 160.077   2
   0  -2 -18 475.323 330.906   2
   0   2 -18 601.201 283.838   2
   0  -2 -19 488.788 278.593   2
   0  -2 -20 488.967 271.488   2
   0   3   0-32.2279 83.9294   1
   0  -3   0 90.5926 80.0908   1
   0   3  -1 138552. 1763.48   1
   0   3   1 139534. 1794.68   1
   0  -3  -1 132056. 1834.03   1
   0  -3   1 141431. 1778.04   1
   0  -3  -2 395189. 3367.18   1
   0  -3   2 396220. 3052.40   1
   0   3   2 404383. 3234.50   1
   0  -3  -3 1242.54 222.813   1
   0   3   3 1782.69 250.311   1
   0  -3   3 1172.40 197.555   1
   0   3   4 19241.6 819.062   1
   0   3   5 8861.97 587.037   1
   0  -3   5 8820.22 498.870   2
   0  -3   6 373.390 119.712   2
   0   3   6 549.263 181.354   1
   0  -3   7 155449. 2324.58   2
   0   3   7 153123. 2765.22   1
   0   3   8 6158.38 583.360   1
   0  -3 -10 1403.80 249.466   3
   0   3 -10 1526.47 273.583   2
   0  -3 -11 16261.2 916.163   3
   0   3 -11 16586.3 932.548   2
   0   3 -12 10308.7 779.184   2
   0  -3 -12 9445.66 751.900   3
   0   3 -13 304.044 152.137   2
   0  -3 -13 384.597 185.663   3
   0  -3 -14 6466.31 671.571   3
   0   3 -14 7154.47 701.414   2
   0  -3 -15 784.727 267.046   3
   0   3 -15 1101.52 320.030   2
   0   3 -16 1989.59 405.009   2
   0   3 -17 584.091 260.121   2
   0   3  18 3374.69 666.322   1
   0   3  19 129.788 300.189   1
   0  -3 -20-50.7537 169.713   2
   0  -3 -21 74.3233 164.452   2
   0   4   0 84954.3 1598.91   1
   0  -4   0 82766.9 1598.95   1
   0   4  -1 92582.4 1674.24   1
   0  -4  -1 91819.4 1751.02   1
   0  -4   1 90420.2 1668.84   1
   0   4   1 91389.8 1687.49   1
   0  -4   2 33981.6 1032.79   1
   0   4   2 33867.3 1061.98   1
   0   4  -2 34017.2 1051.43   1
   0  -4  -2 33982.4 1097.55   1
   0   4   3 5930.39 457.017   1
   0   4   4 371.811 154.456   1
   0   4   5 27693.5 1079.23   1
   0   4   6 5618.47 524.433   1
   0  -4   6 6053.30 464.256   2
   0   4   7 3624.90 444.418   1
   0   4   8 12708.5 855.813   1
   0   4   9 1555.45 312.590   1
   0   4  10 917.031 245.642   1
   0   4  11 6769.78 724.214   1
   0  -4 -12 2831.98 424.782   3
   0   4  12 3808.31 573.504   1
   0  -4 -13 8193.90 739.656   3
   0   4  13 7665.63 833.998   1
   0  -4 -14 3325.46 501.383   3
   0   4  14 3558.56 597.715   1
   0   4  15 376.632 256.009   1
   0  -4 -15 434.892 201.205   3
   0   4  16 544.814 271.060   1
   0   4  17 1881.97 488.924   1
   0   4  18 1714.19 480.145   1
   0   4  19 890.970 407.171   1
   0   5   0-29.5213 100.187   1
   0   5  -1 3087.60 356.629   1
   0   5   1 3719.86 378.798   1
   0   5   2 139640. 2361.72   1
   0   5  -2 138261. 2332.42   1
   0   5   3 22815.9 977.963   1
   0   5   4 18001.3 902.344   1
   0   5   5 17658.3 922.563   1
   0   5   6 414.161 171.374   1
   0   5   7 5901.49 584.372   1
   0   5   8 8.21614 128.569   1
   0   5   9 10627.0 855.177   1
   0   5  10 236.165 131.154   1
   0   5  11 369.767 196.099   1
   0   5  12-379.312 222.400   1
   0  -5 -13 4162.18 546.939   3
   0   5  13 4208.02 633.815   1
   0   5  14 354.186 208.539   1
   0  -5 -14 140.225 137.713   3
   0  -5 -15 1330.84 338.413   3
   0   5  15 664.051 283.939   1
   0   5  16-10.0779 158.138   1
   0   5  17-443.997 273.731   1
   0   5  18 222.768 184.293   1
   0   5  19-62.1934 241.108   1
   0   6   0 449252. 4550.84   1
   0   6   1-82.0613 162.514   1
   0   6  -1 117.950 179.822   1
   0   6   2 76644.7 1910.23   1
   0   6  -2 76917.9 1902.03   1
   0   6   3 9790.98 721.217   1
   0   6   4 53847.4 1669.68   1
   0   6   5 36208.4 1410.10   1
   0   6   6 22639.8 1154.74   1
   0   6   7-3.00842 157.991   1
   0   6   8 5543.51 610.849   1
   0   6   9 20083.1 1181.73   1
   0   6  10 9449.91 853.713   1
   0   6  11 8289.50 822.557   1
   0   6  12 745.325 322.254   1
   0   6  13 8665.35 916.350   1
   0  -6 -14 462.185 209.286   3
   0   6  14 50.1385 191.967   1
   0  -6 -15 1624.44 393.786   3
   0   6  15 1586.61 439.872   1
   0   6  16 372.669 273.663   1
   0   6  17 255.367 224.718   1
   0   6  18 1903.87 503.415   1
   0   7   0 492.155 249.800   1
   0   7  -1 11811.7 801.708   1
   0   7   1 12830.4 844.632   1
   0   7   2 1900.41 330.440   1
   0   7  -2 2068.63 365.112   1
   0   7   3 648.759 217.434   1
   0   7   4 9527.91 765.797   1
   0   7   5 11759.4 851.907   1
   0   7   6 23.6633 157.596   1
   0   7   7 6095.68 670.043   1
   0   7   8 1244.54 329.598   1
   0   7   9 4297.35 584.075   1
   0   7  10 589.605 251.374   1
   0   7  11 1558.50 379.394   1
   0   7  12 1921.22 460.615   1
   0   7  13 5666.08 745.973   1
   0   7  14 905.654 331.777   1
   0   7  15 7499.41 904.395   1
   0  -7 -15 8760.11 907.003   3
   0   7  16-121.465 219.004   1
   0   7  17 3739.81 674.939   1
   0   7  18 142.703 156.379   1
   0   8   0 645.434 238.585   1
   0   8  -1 20043.2 1126.86   1
   0   8   1 22242.7 1189.64   1
   0   8  -2 11893.0 880.323   1
   0   8   2 11225.8 848.372   1
   0   8   3 11138.1 858.833   1
   0   8   4 312.123 222.167   1
   0   8   5 366.889 255.870   1
   0   8   6 8714.93 796.690   1
   0   8   7 3661.95 557.298   1
   0   8   8 576.000 242.003   1
   0   8   9 20406.8 1303.54   1
   0   8  10 5879.40 733.967   1
   0   8  11 1145.43 329.973   1
   0   8  12 1252.13 373.246   1
   0   8  13 592.153 279.064   1
   0   8  14-272.509 257.457   1
   0   8  15 426.803 293.178   1
   0   8  16 422.737 301.320   1
   0   8  17-213.822 225.833   1
   0   8  18 17.5011 177.793   1
   0   9   0-134.664 160.269   1
   0   9  -1 19877.6 1211.73   1
   0   9   1 21765.3 1278.93   1
   0   9  -2 2024.59 403.673   1
   0   9   2 2223.50 444.957   1
   0   9   3 915.090 294.376   1
   0   9   4 829.774 263.223   1
   0   9   5 2432.65 455.248   1
   0   9   6 2820.28 532.302   1
   0   9   7 33867.9 1668.26   1
   0   9   8 2181.62 450.342   1
   0   9   9-4.37315 183.753   1
   0   9  10 4060.40 637.898   1
   0   9  11 520.945 278.110   1
   0   9  12 4828.16 708.145   1
   0   9  13 7189.92 884.120   1
   0   9  14 479.778 265.113   1
   0   9  15 5146.63 806.210   1
   0   9  16-589.882 311.111   1
   0   9  17 381.742 267.899   1
   0  10   0 888.124 318.210   1
   0  10   1 1273.29 351.890   1
   0  10  -1 1030.40 320.090   1
   0  10  -2 387.064 257.986   1
   0  10   2-38.0263 173.555   1
   0  10   3 7329.47 793.089   1
   0  10   4 8509.08 863.922   1
   0  10   5 7244.75 794.906   1
   0  10   6 13364.3 1099.42   1
   0  10   7 25450.6 1531.24   1
   0  10   8 1162.00 384.894   1
   0  10   9 11443.3 1057.10   1
   0  10  10 896.935 327.052   1
   0  10  11 2579.09 549.066   1
   0  10  12 441.503 291.995   1
   0  10  13 918.040 380.299   1
   0  10  14 663.310 300.207   1
   0  10  15-217.688 239.402   1
   0  10  16 93.9658 207.949   1
   0  11   0-27.4628 194.531   1
   0  11   1 1805.69 435.097   1
   0  11  -1 2041.80 470.618   1
   0  11   2 7753.79 864.546   1
   0  11   3 136.646 202.864   1
   0  11   4 6301.89 784.714   1
   0  11   5 4639.79 693.021   1
   0  11   6 2678.24 552.348   1
   0  11   7 1797.47 485.358   1
   0  11   8 7693.45 901.516   1
   0  11   9 548.864 277.528   1
   0  11  10 1211.42 402.116   1
   0  11  11 323.245 276.958   1
   0  11  12-17.2881 205.258   1
   0  11  13 4055.22 730.457   1
   0  11  14 127.786 217.235   1
   0  11  15-488.352 302.004   1
   0  12   0 4874.75 735.325   1
   0  12   1 42.0961 215.969   1
   0  12  -1 373.138 298.919   1
   0  12   2 182.586 226.124   1
   0  12   3 4666.16 715.576   1
   0  12   4 394.020 219.309   1
   0  12   5 304.030 263.063   1
   0  12   6 4082.14 685.676   1
   0  12   7-262.072 248.756   1
   0  12   8 1618.05 452.312   1
   0  12   9 3797.50 677.363   1
   0  12  10 408.993 261.540   1
   0  12  11 1322.21 431.318   1
   0  12  12 335.395 275.256   1
   0  12  13 321.968 250.533   1
   0  13   0 560.938 323.568   1
   0  13   1 489.068 296.415   1
   0  13  -1 819.979 378.963   1
   0  13   2 842.832 322.058   1
   0  13   3 164.437 246.044   1
   0  13   4 6180.95 868.555   1
   0  13   5-192.223 251.076   1
   0  13   6 3387.90 655.426   1
   0  13   7 1148.76 411.513   1
   0  13   8 195.644 237.143   1
   0  13   9-393.159 269.559   1
   0  13  10-847.965 380.481   1
   0  13  11-414.861 303.801   1
   0  14   0 331.239 255.981   1
   0  14   1 2567.23 608.087   1
   0  14   2 47.9684 239.513   1
   0  14   3 2502.82 592.037   1
   0  14   4 75.6449 224.825   1
   0  14   5-540.055 320.729   1
   0  14   6 399.940 292.906   1
   0  14   7 543.646 350.435   1
   0  14   8 472.400 339.671   1
   1   0  -2 260406. 2017.07   3
  -1   0   3 37253.7 852.447   3
   1   0  -3 37800.8 871.894   3
  -1   0  -4 350860. 1723.20   3
   1   0  -4 347438. 2921.94   3
  -1   0   4 348887. 2829.72   3
  -1   0   5 113624. 1745.78   3
   1   0  -5 120206. 1856.37   3
  -1   0  -5 114788. 1211.26   3
  -1   0  -6 92219.7 1265.60   3
   1   0  -6 99022.1 1813.29   3
  -1   0   6 92085.4 1674.79   3
   1   0  -7 153546. 2416.43   3
  -1   0   7 149618. 2252.29   3
  -1   0  -7 145369. 1768.93   3
  -1   0  -8 9673.07 503.481   3
   1   0  -8 10235.8 669.816   3
  -1   0  -9 9963.46 550.003   3
   1   0  -9 10537.4 717.082   3
   1   0 -10 88.5405 140.198   2
  -1   0 -10 76.0828 60.0908   3
   1   0 -10 25.7483 96.7172   3
  -1   0 -11 14022.6 735.266   3
   1   0 -11 14499.6 933.874   2
   1   0 -11 14646.9 932.370   3
   1   0 -12 758.111 267.872   2
   1   0 -12 1213.50 316.641   3
   1   0 -13 1345.54 297.465   3
   1   0 -13 1471.95 348.379   2
   1   0 -14 9510.43 860.218   3
   1   0 -14 10611.2 914.439   2
  -1   0 -14 9631.25 809.701   2
  -1   0 -15 1718.16 360.021   2
   1   0 -15 1665.28 399.413   2
   1   0 -15 1330.17 344.027   3
   1   0 -16 168.560 148.369   2
  -1   0 -16 338.893 208.339   2
  -1   0 -17 2825.85 496.441   2
   1   0 -17 2181.18 483.026   2
  -1   0 -18 159.595 165.229   2
   1   0 -18 242.542 175.389   2
   1   0 -19 2476.33 540.226   2
   1   0 -20 1159.09 400.178   2
   1   1 -19 768.485 345.700   2
  -1  -1 -18 62.9873 142.193   2
   1   1 -18 108.333 169.070   2
  -1  -1 -17 1805.03 411.938   2
   1   1 -17 2220.12 491.444   2
   1   1 -16 596.755 241.228   2
   1   1 -15 3799.64 564.659   2
  -1  -1 -14 3873.62 459.982   3
   1   1 -14 4175.57 586.024   2
   1   1 -13 21041.9 1222.80   2
  -1  -1 -13 23879.5 1069.86   3
  -1  -1 -12 5143.73 485.535   3
   1   1 -12 5905.08 627.024   2
  -1  -1 -11 4039.25 405.235   3
   1   1 -11 3862.21 483.106   2
   1   1 -11 3862.13 488.649   3
   1   1 -10 14048.1 877.021   3
   1   1 -10 13973.5 857.445   2
   1  -1  10 14418.3 664.605   3
  -1  -1 -10 14678.7 722.279   3
  -1  -1  -9 6423.51 447.400   3
   1   1  -9 7119.54 584.002   2
   1   1  -9 5979.62 550.992   3
   1  -1   9 6745.43 435.361   3
   1   1  -8 18006.7 876.377   2
   1  -1   8 17810.8 672.582   3
  -1  -1  -8 15948.3 648.841   3
   1   1  -8 16676.2 867.698   3
   1  -1   7 23987.9 735.445   3
   1   1  -7 25051.2 999.731   3
  -1  -1  -7 23695.3 715.658   3
   1   1  -7 24374.4 951.701   2
   1   1  -6 4759.18 418.315   3
  -1  -1  -6 5104.67 298.510   3
   1   1  -6 5078.69 415.888   2
   1  -1   6 4528.75 299.803   3
   1   1  -5 133578. 2039.26   3
   1   1  -5 135874. 1960.14   2
   1  -1   5 130553. 1473.69   3
   1   1  -4 37484.0 958.421   2
   1   1  -4 40058.5 1042.77   3
  -1   1   3 290341. 2041.54   1
   1   1  -3 299800. 2620.31   3
   1   1  -3 286727. 2452.12   2
   1   1  -2 273169. 2140.20   2
  -1   1   2 277732. 1597.53   1
  -1  -1   2 273519. 2173.63   2
  -1  -1   2 276182. 1541.12   1
  -1  -1   2 273372. 2348.42   3
  -1  -1   3 292430. 2454.62   2
  -1   1  -3 299215. 1493.33   2
  -1  -1   3 291233. 2653.26   3
  -1   1  -4 37660.7 684.289   2
  -1  -1   4 40280.7 990.447   2
   1  -1  -4 38031.8 938.709   3
  -1  -1   4 38647.6 1036.25   3
  -1  -1   5 135827. 2055.25   3
   1  -1  -5 132074. 1910.90   3
  -1   1  -5 131189. 1503.66   2
   1  -1  -6 4875.51 402.193   3
  -1   1  -6 5048.85 334.624   2
  -1  -1   6 4721.77 406.495   3
   1  -1  -7 27027.0 1000.17   3
  -1   1  -7 23560.3 789.669   2
  -1  -1   7 25254.4 985.959   3
  -1   1  -8 18035.8 748.944   2
   1  -1  -8 18101.4 880.059   3
   1  -1  -9 5855.83 523.940   3
  -1   1  -9 7014.24 511.516   2
   1  -1 -10 13299.5 839.311   3
  -1   1 -10 14207.9 769.497   2
   1  -1 -11 4568.73 518.791   3
  -1   1 -11 3876.63 431.709   2
   1  -1 -12 5736.78 612.873   3
  -1   1 -12 5797.65 554.283   2
  -1   1 -13 21420.5 1112.59   2
   1  -1 -13 21376.3 1233.81   3
   1  -1 -14 3643.00 540.614   3
   1  -1 -14 4772.98 625.270   2
  -1   1 -14 4455.04 543.155   2
  -1   1 -15 3732.56 510.137   2
   1  -1 -15 3507.17 532.555   3
   1  -1 -15 3454.97 569.789   2
   1  -1 -16 612.912 229.091   3
  -1   1 -16 499.408 221.033   2
   1  -1 -16 696.290 262.297   2
   1  -1 -17 2480.41 517.503   2
  -1   1 -17 1859.48 399.063   2
   1  -1 -18 313.034 253.052   2
   1  -1 -19 617.495 309.273   2
   1  -1 -20-523.298 296.234   2
   1  -1 -21-132.564 198.203   2
  -1  -2 -19 3316.48 610.442   2
   1   2 -19 2364.83 537.800   2
   1   2 -18 192.563 198.242   2
   1   2 -17 1262.35 350.377   2
   1   2 -16 1400.30 370.357   2
   1   2 -15 968.961 301.018   2
   1   2 -14 3833.26 553.552   2
  -1  -2 -14 3640.38 458.232   3
  -1  -2 -13 3627.68 439.947   3
   1   2 -13 3950.07 531.050   2
   1   2 -12 38518.3 1584.78   2
  -1  -2 -12 40834.0 1377.83   3
  -1  -2 -11 11798.2 696.828   3
   1   2 -11 12229.0 841.547   2
   1  -2  10 3934.37 389.719   3
   1   2 -10 4415.72 495.890   2
  -1  -2 -10 4599.75 415.681   3
   1   2  -9 4890.05 488.079   2
   1  -2   9 4337.61 395.720   3
  -1  -2  -9 4446.46 377.480   3
   1  -2   8 3713.66 353.586   3
   1   2  -8 3729.63 402.177   2
   1   2  -7 95240.2 1931.70   2
   1  -2   7 92098.3 1666.47   3
  -1   2   6 18606.6 797.361   1
   1   2  -6 19327.9 816.652   2
   1   2  -5 16082.3 699.156   2
  -1   2   5 14974.1 661.020   1
  -1   2   4 29805.9 840.039   1
   1  -2   4 29595.0 637.631   2
  -1   2   3 3069.58 242.150   1
  -1   2   2 83296.1 1152.68   1
   1   2  -2 85054.2 1140.34   1
   1   2  -1 501182. 2707.12   1
  -1  -2  -1 512340. 3337.38   1
   1   2   0 146999. 1549.52   1
   1  -2   0 145762. 1515.18   1
  -1  -2   0 149769. 1607.45   1
  -1   2   0 145166. 1495.68   1
  -1  -2   1 501085. 2747.57   1
   1   2   1 493190. 3134.66   1
   1  -2  -1 494796. 2749.98   1
   1   2   2 85720.6 1473.93   1
  -1  -2   2 84095.4 1141.96   1
   1  -2  -2 81558.7 1192.55   1
  -1  -2   3 3729.56 256.328   1
   1  -2  -3 3012.91 258.844   1
   1   2   3 2834.62 300.436   1
  -1  -2   3 3071.26 273.852   2
  -1  -2   4 30219.6 913.952   2
  -1  -2   4 29764.6 1001.30   3
  -1  -2   5 15450.3 696.682   2
  -1  -2   5 14844.6 743.874   3
  -1  -2   6 17586.3 853.819   3
  -1   2  -6 19041.2 635.408   2
  -1  -2   6 18080.2 794.728   2
   1  -2  -7 92641.2 1858.20   3
  -1   2  -7 94735.6 1571.45   2
   1  -2  -8 3347.26 376.176   3
  -1   2  -8 3839.41 344.176   2
   1  -2  -9 3444.26 399.292   3
  -1   2  -9 4345.04 394.833   2
  -1   2 -10 4154.22 416.784   2
   1  -2 -10 4330.80 482.713   3
  -1   2 -11 13062.0 774.718   2
   1  -2 -11 10735.0 791.430   3
   1  -2 -12 41262.7 1624.90   3
  -1   2 -12 38020.3 1393.50   2
  -1   2 -13 3111.86 443.217   2
   1  -2 -13 3914.71 534.015   3
  -1   2 -14 4758.39 551.890   2
   1  -2 -14 4412.65 585.986   3
   1  -2 -15 1619.54 371.717   3
  -1   2 -15 1651.83 353.544   2
   1  -2 -16 1973.87 436.667   3
  -1   2 -16 1949.92 398.546   2
   1  -2 -17 1182.91 405.069   2
   1  -2 -18-6.32305 147.297   2
   1  -2 -19 3340.92 663.585   2
   1  -2 -20 2129.12 534.653   2
   1  -2 -21 691.533 373.122   2
  -1   3  17 1772.11 430.081   1
   1   3 -17 2055.27 455.870   2
  -1   3  16 1286.54 377.942   1
   1   3 -16 1012.57 298.740   2
   1   3 -15 1169.76 329.860   2
  -1   3  15 734.965 268.371   1
  -1  -3 -14 7374.89 657.590   3
  -1   3  14 8131.07 839.237   1
   1   3 -14 6692.12 710.824   2
   1   3 -13 4038.40 563.757   2
  -1  -3 -13 4195.56 484.798   3
  -1   3  13 4275.17 590.398   1
  -1  -3 -12 5467.07 522.149   3
  -1   3  12 5609.97 643.829   1
   1   3 -12 5339.00 589.633   2
  -1   3  11 1378.99 320.370   1
  -1  -3 -11 1192.97 248.217   3
   1   3 -11 834.539 243.940   2
   1   3 -10 1278.40 262.669   2
  -1   3  10 1462.07 306.948   1
   1   3  -9 2990.48 392.068   2
  -1   3   9 2881.03 397.677   1
   1  -3   9 2944.49 363.436   3
   1  -3   8 10526.1 660.233   3
  -1   3   8 11234.1 738.793   1
  -1   3   7 5067.94 462.813   1
   1  -3   6 5771.07 373.151   2
  -1   3   6 6436.95 497.478   1
   1  -3   5 15866.1 582.924   2
  -1   3   5 15131.9 702.104   1
  -1   3   4 101170. 1680.84   1
  -1   3   3 35362.9 934.612   1
   1   3  -2 5619.29 360.523   1
  -1   3   2 6168.12 383.128   1
   1  -3   2 5943.04 400.642   1
  -1  -3  -2 5929.59 450.438   1
  -1  -3  -1 294499. 2897.78   1
   1  -3   1 290604. 2616.73   1
  -1   3   1 299173. 2561.10   1
   1   3  -1 290532. 2533.06   1
   1  -3   0 59922.4 1172.23   1
  -1   3   0 56965.4 1142.19   1
  -1  -3   0 58250.6 1213.20   1
   1   3   0 58173.8 1170.71   1
   1  -3  -1 286593. 2571.59   1
  -1  -3   1 291901. 2592.40   1
   1   3   1 291349. 2782.33   1
   1  -3  -2 6335.29 401.529   1
   1   3   2 6027.66 428.271   1
  -1  -3   2 6346.67 381.397   1
   1  -3  -3 35135.9 1013.97   1
  -1  -3   3 38221.6 948.850   1
   1   3   3 35818.5 1126.42   1
   1   3   4 99021.8 2003.32   1
   1  -3  -4 100064. 1843.60   1
  -1  -3   4 96788.3 1736.06   2
  -1  -3   4 98656.2 1592.71   1
  -1  -3   5 15186.5 730.931   2
   1   3   5 15472.1 842.331   1
   1   3   6 5945.29 553.979   1
  -1   3 -10 1292.86 229.892   2
   1  -3 -10 1276.09 260.638   3
  -1   3 -11 974.434 211.025   2
   1  -3 -11 1075.25 273.836   3
   1  -3 -12 5355.69 592.920   3
  -1   3 -12 5152.73 505.263   2
   1  -3 -13 4312.84 567.887   3
  -1   3 -13 4596.20 509.290   2
   1  -3 -14 7284.04 751.580   3
  -1   3 -14 7831.25 687.377   2
   1  -3 -15 531.933 231.710   3
  -1   3 -15 1011.60 274.328   2
   1  -3 -16 1082.84 328.426   3
  -1   3 -16 932.376 256.006   2
   1  -3 -19 877.466 385.866   2
   1   3  20 587.152 342.097   1
   1  -3 -20-530.927 307.903   2
   1  -3 -21-654.166 337.854   2
  -1   4  17 331.962 231.955   1
  -1   4  16 348.168 192.156   1
  -1   4  15-112.132 166.564   1
  -1   4  14 1075.06 341.609   1
  -1  -4 -14 1710.05 329.029   3
  -1   4  13 2904.61 497.068   1
  -1  -4 -13 2244.19 368.434   3
  -1  -4 -12 8221.06 665.506   3
  -1   4  12 8072.41 775.938   1
  -1   4  11 12120.8 909.524   1
  -1   4  10 5452.33 588.801   1
  -1   4   9 1288.97 277.028   1
   1  -4   8 9363.22 564.754   2
  -1   4   8 8538.08 669.243   1
   1  -4   7 20067.5 784.183   2
  -1   4   7 19944.2 960.044   1
  -1   4   6 2593.45 331.712   1
   1  -4   6 2643.69 276.008   2
  -1   4   5 585.242 166.574   1
  -1   4   4 2422.92 294.418   1
  -1   4   3 11492.9 605.635   1
   1   4  -3 10268.3 576.703   1
   1   4  -2 305.113 125.235   1
  -1   4   2 211.128 113.769   1
  -1  -4  -1 125449. 2117.65   1
   1  -4   1 127818. 1997.02   1
   1   4  -1 131072. 1976.08   1
  -1   4   1 126891. 1954.47   1
   1   4   0 7633.22 495.800   1
  -1  -4   0 6863.59 479.358   1
   1  -4   0 7047.20 463.005   1
  -1   4   0 6708.25 459.540   1
   1  -4  -1 129693. 1995.09   1
  -1  -4   1 131076. 2020.69   1
   1   4   1 131267. 2066.49   1
  -1   4  -1 127452. 2020.45   1
  -1  -4   2 267.602 100.496   1
   1   4   2 358.464 124.761   1
   1  -4  -2 480.915 139.156   1
  -1  -4   3 9766.25 545.260   1
   1  -4  -3 10003.0 598.157   1
   1   4   3 8586.29 581.559   1
   1   4   4 2656.56 353.828   1
   1   4   5 1145.23 242.074   1
   1   4   6 2490.86 381.058   1
   1   4   7 20469.5 1117.78   1
   1   4   8 8654.74 768.409   1
   1   4   9 1718.63 372.489   1
   1   4  10 5121.00 649.974   1
   1  -4 -11 12459.7 881.233   3
   1   4  11 11633.9 1002.70   1
   1  -4 -12 9460.85 813.682   3
   1   4  12 9558.01 942.326   1
   1  -4 -13 2112.18 418.834   3
   1   4  13 2003.10 463.030   1
   1  -4 -14 1502.16 350.551   3
   1   4  14 1573.56 435.861   1
   1  -4 -15 241.772 181.716   3
   1   4  15 89.1165 227.243   1
   1   4  16-14.3689 191.484   1
   1  -4 -16 244.179 173.320   3
   1   4  17 189.178 208.371   1
   1   4  18 649.193 333.209   1
   1   4  19 2066.59 582.769   1
   1   4  20 862.615 414.501   1
  -1   5  17 844.515 337.578   1
  -1   5  16 1263.57 376.671   1
  -1   5  15 1617.95 395.794   1
  -1  -5 -14 1534.44 321.216   3
  -1   5  14 1546.39 391.798   1
  -1   5  13 1967.07 419.907   1
  -1   5  12 11258.9 944.557   1
  -1   5  11 289.737 195.012   1
  -1   5  10 4843.58 565.105   1
  -1   5   9 5767.99 588.839   1
  -1   5   8 1015.09 247.319   1
  -1   5   7 869.690 233.948   1
   1  -5   7 974.668 192.629   2
  -1   5   6 29650.9 1182.08   1
  -1   5   5 504.664 179.551   1
  -1   5   4 21356.1 937.332   1
  -1   5   3 70608.5 1660.88   1
   1   5  -3 70621.8 1670.38   1
  -1   5   2 21778.4 905.663   1
   1   5  -2 21613.6 904.990   1
   1   5  -1 65891.6 1587.97   1
  -1   5   1 65929.6 1581.10   1
   1   5   0 3142.86 359.478   1
  -1   5   0 3223.10 355.202   1
  -1   5  -1 69422.4 1647.02   1
   1   5   1 67615.7 1648.14   1
   1   5   2 22477.0 975.739   1
   1   5   3 69613.6 1798.11   1
   1   5   4 20602.5 1003.13   1
   1   5   5 230.495 157.566   1
   1   5   6 27734.5 1274.92   1
   1   5   7 582.826 205.236   1
   1   5   8 1360.69 316.293   1
   1   5   9 6160.31 686.692   1
   1   5  10 5495.14 663.870   1
   1   5  11 134.213 193.374   1
   1   5  12 12038.8 1053.11   1
   1   5  13 3058.20 613.060   1
   1  -5 -13 1725.58 374.855   3
   1  -5 -14 1083.32 334.729   3
   1   5  14 1541.66 421.077   1
   1   5  15 1775.65 464.260   1
   1  -5 -15 1990.36 436.155   3
   1  -5 -16 1455.72 380.047   3
   1   5  16 902.268 366.155   1
   1   5  17 581.919 272.715   1
   1   5  18 107.984 200.975   1
   1   5  19 173.864 228.641   1
   1   5  20-319.829 273.976   1
  -1   6  17 1490.47 404.667   1
  -1   6  16 333.464 232.920   1
  -1   6  15 764.362 321.283   1
  -1   6  14 2040.05 444.493   1
  -1   6  13 193.760 201.596   1
  -1   6  12 3389.03 537.438   1
  -1   6  11 3610.44 526.975   1
  -1   6  10 9528.97 815.168   1
  -1   6   9 3022.72 460.721   1
  -1   6   8 654.826 227.179   1
  -1   6   7 9311.41 732.396   1
  -1   6   6 9352.24 715.987   1
  -1   6   5 5790.37 553.931   1
  -1   6   4 5373.97 525.767   1
  -1   6   3 26120.2 1100.66   1
   1   6  -3 25832.2 1111.24   1
  -1   6   2 36415.3 1282.96   1
   1   6  -2 35679.5 1284.85   1
  -1   6   1 32888.2 1232.72   1
   1   6  -1 30259.3 1187.42   1
  -1   6   0 18629.2 926.293   1
   1   6   0 18202.7 927.803   1
  -1   6  -1 30815.4 1200.72   1
   1   6   1 31328.0 1227.13   1
   1   6   2 36954.4 1359.38   1
   1   6   3 27771.1 1201.97   1
   1   6   4 4856.19 528.892   1
   1   6   5 5869.80 598.930   1
   1   6   6 8736.19 742.253   1
   1   6   7 8620.57 766.269   1
   1   6   8 1247.19 330.840   1
   1   6   9 3222.63 507.706   1
   1   6  10 9176.16 884.715   1
   1   6  11 3990.72 618.358   1
   1   6  12 3213.42 578.721   1
   1   6  13 9.96044 171.295   1
   1   6  14 1462.40 413.491   1
   1  -6 -14 2370.24 476.936   3
   1   6  15 1316.88 452.813   1
   1  -6 -15 1054.46 327.179   3
   1  -6 -16 92.7039 120.490   3
   1   6  16-49.7958 207.685   1
   1   6  17 1654.82 479.566   1
   1   6  18 260.978 212.643   1
   1   6  19 539.031 312.567   1
  -1   7  17-418.731 259.146   1
  -1   7  16 1342.04 384.526   1
  -1   7  15 166.454 149.746   1
  -1   7  14 3718.11 614.592   1
  -1   7  13 4160.81 620.866   1
  -1   7  12 2422.18 464.020   1
  -1   7  11 3646.01 540.691   1
  -1   7  10 8705.42 822.961   1
  -1   7   9 4534.50 570.706   1
  -1   7   8 11521.0 880.285   1
  -1   7   7 469.094 215.268   1
  -1   7   6 4214.68 513.467   1
  -1   7   5 6907.32 642.180   1
  -1   7   4 1519.42 309.934   1
  -1   7   3 18383.3 996.994   1
   1   7  -3 19211.0 1038.80   1
  -1   7   2 7439.30 635.667   1
   1   7  -2 6284.70 599.739   1
  -1   7   1 41469.2 1513.31   1
   1   7  -1 44230.6 1567.85   1
  -1   7   0 32.7485 129.496   1
   1   7   0 104.144 174.487   1
   1   7   1 41892.5 1536.16   1
  -1   7  -1 43788.9 1555.82   1
   1   7   2 7083.82 649.665   1
   1   7   3 18278.3 1048.96   1
   1   7   4 950.906 300.224   1
   1   7   5 5713.64 615.743   1
   1   7   6 3832.01 526.813   1
   1   7   7 433.453 233.724   1
   1   7   8 12577.5 991.616   1
   1   7   9 3222.14 529.576   1
   1   7  10 11471.3 1001.48   1
   1   7  11 3273.81 561.694   1
   1   7  12 4336.95 661.454   1
   1   7  13 4245.75 685.269   1
   1   7  14 4454.06 711.849   1
   1  -7 -15 1336.20 367.883   3
   1   7  15 372.918 261.457   1
   1   7  16 1613.85 455.022   1
   1  -7 -16 1309.39 406.653   3
   1   7  17 58.8096 217.687   1
   1   7  18 524.152 321.985   1
   1   7  19 792.255 408.029   1
  -1   8  17 461.070 222.969   1
  -1   8  16-5.47157 164.395   1
  -1   8  15 656.195 315.800   1
  -1   8  14 122.850 154.464   1
  -1   8  13 217.241 198.910   1
  -1   8  12 4262.80 626.036   1
  -1   8  11-92.3998 225.493   1
  -1   8  10 15070.9 1112.64   1
  -1   8   9 5916.29 691.589   1
  -1   8   8 29152.8 1473.78   1
  -1   8   7 968.741 304.060   1
  -1   8   6 940.631 266.120   1
  -1   8   5 1992.96 384.604   1
  -1   8   4 5191.78 583.655   1
   1   8  -3 3314.05 483.375   1
  -1   8   3 3203.51 457.592   1
  -1   8   2 35974.4 1525.60   1
   1   8  -2 36928.5 1537.15   1
   1   8  -1 3734.85 510.574   1
  -1   8   1 4046.35 520.956   1
   1   8   0 30187.4 1387.29   1
  -1   8   0 28779.3 1346.76   1
   1   8   1 3636.70 495.244   1
  -1   8  -1 4829.02 573.384   1
   1   8   2 35875.1 1536.89   1
   1   8   3 2888.63 469.679   1
   1   8   4 5436.74 628.702   1
   1   8   5 1616.92 355.662   1
   1   8   6 757.179 291.164   1
   1   8   7 935.560 306.132   1
   1   8   8 29069.0 1568.52   1
   1   8   9 7509.36 822.702   1
   1   8  10 14440.9 1156.79   1
   1   8  11-152.752 217.135   1
   1   8  12 3524.18 607.787   1
   1   8  13-63.0811 253.309   1
   1   8  14 3.16874 216.607   1
   1   8  15 448.973 256.850   1
   1   8  16 249.663 229.157   1
   1   8  17 1029.38 401.100   1
   1   8  18 672.091 312.301   1
  -1   9  16 1961.74 514.329   1
  -1   9  15 20.9933 191.750   1
  -1   9  14 1858.38 473.073   1
  -1   9  13 122.701 160.267   1
  -1   9  12 311.747 254.450   1
  -1   9  11 3472.62 567.151   1
  -1   9  10 2792.89 505.254   1
  -1   9   9 2767.29 514.743   1
  -1   9   8 5192.38 674.466   1
  -1   9   7 853.846 300.752   1
  -1   9   6 24983.5 1390.44   1
  -1   9   5 9748.59 856.563   1
  -1   9   4 15785.2 1080.16   1
  -1   9   3 7546.34 744.211   1
   1   9  -3 7642.85 757.197   1
   1   9  -2 4051.86 553.378   1
  -1   9   2 4658.30 602.668   1
  -1   9   1 11.7743 192.646   1
   1   9  -1-17.4275 170.095   1
  -1   9   0 6301.84 702.126   1
   1   9   0 7076.19 741.738   1
   1   9   1 107.473 183.675   1
  -1   9  -1 284.678 195.295   1
   1   9   2 5070.35 632.012   1
   1   9   3 6281.54 700.331   1
   1   9   4 16748.1 1150.01   1
   1   9   5 9964.80 904.840   1
   1   9   6 24505.6 1434.11   1
   1   9   7 520.499 255.073   1
   1   9   8 5705.51 731.925   1
   1   9   9 983.451 363.523   1
   1   9  10 3214.86 595.393   1
   1   9  11 3769.83 647.115   1
   1   9  12 551.684 263.357   1
   1   9  13 169.187 215.298   1
   1   9  14 1626.32 482.199   1
   1   9  15-305.582 285.962   1
   1   9  16 1765.70 517.062   1
   1   9  17 291.456 249.950   1
  -1  10  16 552.836 308.567   1
  -1  10  15 498.392 318.926   1
  -1  10  14 447.319 279.523   1
  -1  10  13 3004.19 599.751   1
  -1  10  12 966.782 367.256   1
  -1  10  11 2111.14 480.383   1
  -1  10  10 9172.77 949.997   1
  -1  10   9 1266.66 384.361   1
  -1  10   8 6006.48 762.419   1
  -1  10   7 3257.14 552.146   1
  -1  10   6 2109.73 470.554   1
  -1  10   5 3166.13 525.122   1
  -1  10   4 7418.56 798.742   1
  -1  10   3 4958.51 665.209   1
   1  10  -3 4009.96 595.706   1
   1  10  -2 19165.0 1264.49   1
  -1  10   2 19664.7 1269.64   1
   1  10  -1 3203.67 540.830   1
  -1  10   1 2418.82 477.708   1
   1  10   0 8310.04 850.732   1
  -1  10   0 8471.48 835.433   1
  -1  10  -1 1774.27 405.542   1
   1  10   1 2482.58 495.108   1
   1  10   2 18959.4 1258.61   1
   1  10   3 5690.93 708.268   1
   1  10   4 9106.24 902.173   1
   1  10   5 3346.62 568.308   1
   1  10   6 1911.80 460.799   1
   1  10   7 4966.08 718.507   1
   1  10   8 5938.50 789.134   1
   1  10   9 2102.07 477.504   1
   1  10  10 8869.93 980.491   1
   1  10  11 2633.00 561.168   1
   1  10  12 650.763 347.684   1
   1  10  13 2828.53 600.789   1
   1  10  14 324.344 250.526   1
   1  10  15 413.808 274.875   1
   1  10  16 625.547 344.083   1
  -1  11  15 373.021 275.677   1
  -1  11  14 562.113 285.273   1
  -1  11  13 1242.28 411.201   1
  -1  11  12 1021.98 385.470   1
  -1  11  11 1476.75 435.094   1
  -1  11  10 178.058 203.670   1
  -1  11   9 857.774 338.468   1
  -1  11   8 1631.56 436.053   1
  -1  11   7 4159.58 654.514   1
  -1  11   6 15705.1 1245.39   1
  -1  11   5 4800.65 698.430   1
  -1  11   4 847.902 323.013   1
  -1  11   3 10105.5 979.347   1
  -1  11   2 6036.60 760.192   1
   1  11  -2 6634.01 800.060   1
  -1  11   1 1381.47 369.506   1
   1  11  -1 2343.30 500.441   1
   1  11   0 10120.0 975.840   1
  -1  11   0 8241.14 887.973   1
   1  11   1 891.023 356.896   1
   1  11   2 6769.50 820.972   1
   1  11   3 10123.1 987.607   1
   1  11   4 313.490 242.487   1
   1  11   5 4057.96 655.188   1
   1  11   6 15006.0 1235.35   1
   1  11   7 3709.87 654.578   1
   1  11   8 2950.10 596.947   1
   1  11   9 2554.87 566.716   1
   1  11  10 578.778 324.393   1
   1  11  11 2030.93 511.551   1
   1  11  12 272.120 256.476   1
   1  11  13 658.240 312.256   1
   1  11  14 868.192 398.195   1
  -1  12  14 998.329 396.374   1
  -1  12  13 621.936 327.885   1
  -1  12  12 1106.32 365.809   1
  -1  12  11 848.206 316.082   1
  -1  12  10 1151.81 401.581   1
  -1  12   9 1603.66 440.798   1
  -1  12   8 171.889 251.184   1
  -1  12   7 1432.78 417.056   1
  -1  12   6 33.4656 163.856   1
  -1  12   5 2540.51 547.302   1
  -1  12   4 960.686 369.424   1
  -1  12   3 1155.84 369.857   1
  -1  12   2 3245.16 590.941   1
   1  12  -2 4201.31 686.604   1
  -1  12   1 13.6681 199.963   1
   1  12  -1 739.502 338.077   1
  -1  12   0-448.725 335.024   1
   1  12   0-354.021 291.186   1
   1  12   1 379.975 293.695   1
   1  12   2 2725.53 543.074   1
   1  12   3 1936.93 473.022   1
   1  12   4 1327.37 422.097   1
   1  12   5 2526.87 539.437   1
   1  12   6 265.680 327.797   1
   1  12   7 1944.44 538.597   1
   1  12   8 151.648 245.577   1
   1  12   9 1121.61 400.721   1
   1  12  10 1589.86 475.589   1
   1  12  11 1557.50 463.270   1
   1  12  12 812.394 378.186   1
  -1  13  11-45.8753 212.158   1
  -1  13  10 119.365 227.608   1
  -1  13   9 122.380 274.335   1
  -1  13   8 491.467 306.670   1
  -1  13   7-27.7336 222.299   1
  -1  13   6 3178.40 608.410   1
  -1  13   5 627.298 326.681   1
  -1  13   4 462.090 240.236   1
  -1  13   3 2694.96 576.020   1
  -1  13   2 1066.71 365.144   1
  -1  13   1 618.203 304.601   1
   1  13  -1 839.027 339.423   1
   1  13   0 129.328 269.719   1
   1  13   1 648.380 280.531   1
   1  13   2 1111.43 405.406   1
   1  13   3 3398.49 638.745   1
   1  13   4 268.098 257.087   1
   1  13   5 601.015 289.239   1
   1  13   6 2886.29 609.207   1
   1  13   7 179.604 190.352   1
   1  13   8 283.752 263.468   1
   1  13   9 45.3317 184.089   1
   1  13  10 259.851 257.420   1
  -1  14   8 932.543 428.206   1
  -1  14   7 481.325 334.046   1
  -1  14   6 451.332 289.576   1
  -1  14   5 794.682 391.969   1
  -1  14   4 91.4369 190.151   1
  -1  14   3 0.89045 217.143   1
  -1  14   2 1518.08 460.493   1
   1  14  -1 1262.49 426.889   1
  -1  14   1 1235.44 434.932   1
   1  14   0 254.095 272.933   1
   1  14   1 1227.41 442.818   1
   1  14   2 1930.32 518.803   1
   1  14   3 480.625 316.913   1
   1  14   4-919.430 398.442   1
   1  14   5 310.549 270.120   1
   1  14   6 546.034 303.123   1
   1  14   7 674.584 340.689   1
  -2   0   0 148356. 1399.84   2
  -2   0   0 147082. 1487.30   3
   2   0   0 150006. 1505.03   3
   2   0  -1 151482. 1714.11   3
  -2   0  -1 153293. 1300.54   3
  -2   0   1 149709. 1700.00   3
   2   0  -1 149583. 1569.10   2
  -2   0   1 150961. 1592.31   2
  -2   0   2 3962.51 305.748   3
   2   0  -2 4050.32 315.526   3
  -2   0   2 3652.64 278.951   2
   2   0  -2 3793.29 279.531   2
   2   0  -3 11406.7 572.448   3
   2   0  -3 11670.5 534.957   2
  -2   0   3 11674.6 558.483   3
   2   0  -4 35996.0 1032.53   2
   2   0  -4 34263.0 1062.66   3
  -2   0   4 37204.6 1068.53   3
   2   0  -5 36511.1 1113.70   2
  -2   0   5 35861.7 1109.69   3
   2   0  -5 36189.8 1164.98   3
   2   0  -6 204148. 2813.81   2
   2   0  -6 200785. 2898.40   3
   2   0  -7 110310. 2269.97   3
   2   0  -7 113586. 2228.45   2
   2   0  -8 99508.0 2218.55   2
   2   0  -8 100563. 2279.63   3
   2   0  -9 2509.98 377.433   3
   2   0  -9 2757.63 391.153   2
   2   0 -10 10413.0 797.355   2
   2   0 -10 9166.68 763.249   3
   2   0 -11 57175.9 1974.43   3
   2   0 -11 58777.8 1968.15   2
   2   0 -12 51345.9 1913.07   2
   2   0 -12 50130.1 1922.11   3
   2   0 -13 17437.5 1185.84   3
   2   0 -13 17080.7 1150.18   2
   2   0 -14-55.9161 184.758   3
   2   0 -14-122.758 208.036   2
  -2   0 -14 100.262 125.695   2
  -2   0 -15 1184.91 301.242   2
   2   0 -15 753.717 279.174   2
   2   0 -15 771.540 291.621   3
   2   0 -16-27.8050 160.976   2
  -2   0 -16-98.3413 137.001   2
   2   0 -16-104.131 185.610   3
   2   0 -17 197.718 240.976   2
   2   0 -18 2260.17 517.483   2
   2   0 -19 163.736 227.922   2
   2   0 -20 1761.62 503.944   2
   2   0 -21 574.085 322.823   2
   2   1 -20 932.446 419.054   2
   2   1 -19 1185.35 412.031   2
   2   1 -18 2425.26 541.947   2
   2   1 -17 2406.05 500.676   2
  -2  -1 -17 3129.31 523.177   2
   2   1 -16 5726.67 750.645   2
   2   1 -15 470.846 263.233   2
   2   1 -14 1160.88 325.098   2
   2   1 -13 5907.62 707.460   3
   2   1 -13 5805.06 669.013   2
   2   1 -12 2384.90 422.399   2
  -2  -1 -12 2441.95 283.218   3
   2   1 -12 2590.47 452.347   3
  -2  -1 -11 7579.10 461.526   3
   2   1 -11 6675.46 676.118   3
   2   1 -11 8097.38 736.396   2
   2   1 -10 2689.85 424.031   3
  -2  -1 -10 3132.83 283.199   3
   2   1 -10 2940.31 417.548   2
  -2  -1  -9 18683.6 627.887   3
   2   1  -9 17700.3 982.608   2
   2   1  -9 17259.9 1008.24   3
   2  -1   9 19090.8 594.616   3
  -2  -1  -8 7749.31 365.966   3
   2  -1   8 7467.42 348.243   3
   2   1  -8 7708.25 616.975   2
   2   1  -8 7156.52 625.115   3
  -2  -1  -7 145741. 1406.17   3
   2   1  -7 147805. 2692.88   3
   2   1  -7 149192. 2568.48   2
   2  -1   7 151503. 1447.22   3
  -2  -1  -6 28484.1 537.265   3
   2   1  -6 29337.7 1077.25   2
   2   1  -6 29901.2 1151.67   3
   2  -1   6 27257.3 577.523   3
   2   1  -5 28782.4 1072.59   3
   2   1  -5 28375.8 1000.00   2
  -2   1   5 29250.7 732.187   1
  -2   1   4 11220.0 382.659   1
   2   1  -4 11233.9 637.568   3
   2   1  -4 12347.2 621.423   2
   2   1  -3 13634.5 662.017   3
  -2   1   3 15271.2 350.881   1
   2   1  -3 14594.3 622.543   2
   2   1  -2 98151.8 836.355   1
   2   1  -2 96222.1 1480.25   2
   2   1  -2 95371.8 1598.47   3
  -2   1   2 97074.9 812.140   1
   2   1  -1 633107. 2503.58   1
   2  -1   1 650335. 2073.55   2
  -2  -1   0 24942.6 695.910   3
  -2  -1   1 618292. 3793.06   3
  -2  -1   1 604725. 2691.31   1
  -2  -1   2 95113.5 1492.37   2
  -2  -1   2 95515.6 881.764   1
   2  -1  -2 94944.8 851.265   1
  -2  -1   2 92523.2 1598.07   3
  -2  -1   3 13416.1 648.610   3
  -2  -1   3 14186.9 338.905   1
   2  -1  -3 14166.0 610.816   3
  -2  -1   3 14335.0 622.504   2
  -2  -1   4 11925.6 606.777   2
   2  -1  -4 11500.9 597.951   3
  -2  -1   4 11235.6 628.056   3
  -2  -1   5 28777.2 1003.47   2
   2  -1  -5 26443.8 967.986   3
  -2  -1   5 26923.1 1022.54   3
   2  -1  -6 27948.0 1060.90   3
   2  -1  -7 146365. 2587.68   3
   2  -1  -8 7864.63 631.312   3
   2  -1  -9 17817.3 993.202   3
  -2   1  -9 18313.6 758.046   2
  -2   1 -10 3110.12 341.234   2
   2  -1 -10 2931.09 436.780   3
  -2   1 -11 8456.98 593.759   2
   2  -1 -11 7936.11 743.855   3
  -2   1 -12 2803.64 369.742   2
   2  -1 -12 2532.47 446.886   3
  -2   1 -13 6885.64 601.756   2
   2  -1 -13 7508.38 786.108   2
   2  -1 -13 5858.43 701.930   3
   2  -1 -14 617.901 254.022   3
  -2   1 -14 1125.64 257.280   2
   2  -1 -14 1594.40 380.639   2
  -2   1 -15 322.573 200.366   2
   2  -1 -15 118.102 156.657   3
   2  -1 -15 553.552 274.858   2
  -2   1 -16 3829.30 535.625   2
   2  -1 -16 3914.05 635.518   2
   2  -1 -16 4673.19 671.687   3
   2  -1 -17 1421.94 399.181   3
   2  -1 -17 3058.68 583.526   2
   2  -1 -18 1101.77 420.158   2
   2  -1 -19 1161.54 452.014   2
   2  -1 -20 537.185 267.390   2
   2  -1 -21 65.7117 183.640   2
   2   2 -20 844.495 356.955   2
   2   2 -19 34.0150 192.704   2
   2   2 -18 2713.75 560.643   2
   2   2 -17 966.721 348.851   2
   2   2 -16 1027.77 337.148   2
  -2   2  16 892.426 313.550   1
   2   2 -15 1302.33 352.945   2
   2   2 -14 4933.46 658.750   2
  -2  -2 -13 3555.40 378.841   3
   2   2 -13 4289.63 587.180   2
   2   2 -12 3637.94 514.103   2
  -2  -2 -12 5096.52 426.699   3
   2   2 -11 623.415 232.627   2
   2  -2  11 1101.29 185.794   3
  -2  -2 -11 1088.73 190.674   3
   2  -2  10 894.362 163.548   3
   2   2 -10 841.794 235.827   2
  -2  -2 -10 1030.40 176.460   3
   2  -2   9 900.590 153.036   3
   2   2  -9 1069.62 266.819   2
  -2   2   9 966.352 210.491   1
  -2  -2  -9 1158.15 169.835   3
   2  -2   8 32833.6 915.790   3
  -2   2   8 32150.2 1106.91   1
   2   2  -8 32228.4 1284.14   2
  -2   2   7 5949.32 449.578   1
   2  -2   7 6152.28 383.532   3
   2   2  -7 5726.34 507.892   2
  -2   2   6 35217.0 976.574   1
   2   2  -6 36274.8 1219.85   2
  -2   2   5 10657.6 477.760   1
   2   2  -5 11401.4 653.578   2
  -2   2   4 3806.89 261.432   1
  -2   2   3 13044.4 447.445   1
  -2   2   2 72912.8 1031.88   1
   2   2  -2 72010.3 1025.60   1
   2   2  -1 2211.64 192.915   1
   2   2   0 999999. 4479.77   1
  -2  -2   0 974610. 4781.94   1
   2  -2  -1 2184.27 188.135   1
  -2  -2   1 2103.63 195.084   1
   2   2   1 1973.44 230.449   1
   2   2   2 66208.9 1441.93   1
  -2  -2   2 69311.4 1521.24   3
   2  -2  -2 68929.5 1033.23   1
  -2  -2   2 68228.1 1031.38   1
  -2  -2   3 12391.7 675.047   3
   2  -2  -3 12245.8 460.965   1
  -2  -2   3 12572.6 619.372   2
  -2  -2   3 13182.0 448.491   1
  -2  -2   4 3809.81 392.055   3
  -2  -2   4 3707.31 252.192   1
   2  -2  -4 3542.67 283.987   1
  -2  -2   4 3646.67 359.209   2
  -2   2  -6 34473.0 707.864   2
   2  -2  -7 6798.37 551.425   3
  -2   2  -7 6633.42 361.469   2
   2  -2  -8 31534.1 1259.99   3
  -2   2  -8 31398.9 885.933   2
   2  -2  -9 1230.52 268.977   3
  -2   2  -9 1095.96 181.094   2
   2  -2 -10 926.885 258.411   3
  -2   2 -10 753.091 172.820   2
   2  -2 -11 1321.19 327.647   3
  -2   2 -11 1138.72 222.182   2
   2  -2 -12 4757.98 612.465   3
  -2   2 -12 3753.15 412.501   2
  -2   2 -13 4095.09 463.869   2
   2  -2 -13 3079.04 498.887   3
   2  -2 -14 5495.77 690.384   3
  -2   2 -14 5055.32 535.143   2
   2  -2 -15 1785.85 421.891   3
  -2   2 -15 1902.14 338.508   2
   2  -2 -16 662.995 286.478   2
   2  -2 -16 1000.70 334.420   3
   2  -2 -17 965.472 331.307   3
   2  -2 -17 1298.25 409.916   2
   2  -2 -18 2931.95 598.047   2
   2  -2 -19 529.508 279.363   2
   2  -2 -20 814.881 337.511   2
   2  -2 -21-378.940 286.057   2
   2   3 -17 605.432 296.358   2
  -2   3  16 1288.30 340.265   1
   2   3 -16 1382.41 387.261   2
  -2   3  15 2226.96 434.868   1
   2   3 -15 1676.26 401.677   2
   2   3 -14 2925.15 487.830   2
  -2   3  14 2569.47 456.002   1
  -2  -3 -13 3285.37 383.458   3
  -2   3  13 2906.49 460.470   1
   2   3 -13 4283.30 586.887   2
   2   3 -12 489.855 211.523   2
  -2  -3 -12 692.938 180.143   3
  -2   3  12 469.899 229.852   1
   2  -3  11 8988.26 605.254   3
  -2   3  11 8623.20 711.611   1
   2   3 -11 7625.07 715.637   2
  -2  -3 -11 8759.55 563.490   3
  -2   3  10 1365.06 279.523   1
   2  -3  10 996.726 204.474   3
   2   3 -10 1163.48 287.037   2
  -2   3   9 15350.2 834.888   1
   2  -3   9 15807.1 764.086   3
   2   3  -9 16904.5 975.855   2
  -2   3   8 3488.35 381.792   1
  -2   3   7 4418.33 397.634   1
  -2   3   6 5736.78 419.637   1
  -2   3   5 94815.4 1602.09   1
   2  -3   5 88866.8 1094.71   2
  -2   3   4 9158.29 473.974   1
   2   3  -3 25182.0 760.772   1
  -2   3   3 25641.2 758.548   1
   2   3  -2 59335.9 1151.67   1
  -2   3   2 60220.1 1154.64   1
   2  -3   1 12719.4 584.942   1
  -2  -3  -1 13883.6 691.095   1
   2   3  -1 13540.9 564.598   1
  -2   3   1 13273.1 552.409   1
   2  -3   0 762257. 4272.79   1
  -2  -3   0 739353. 4656.68   1
   2   3   0 736149. 4394.99   1
   2  -3  -1 12239.2 527.924   1
  -2  -3   1 12387.3 563.461   1
   2   3   1 12859.1 626.495   1
   2   3   2 60837.0 1471.97   1
  -2  -3   2 60694.8 1193.31   1
   2  -3  -2 59285.0 1178.89   1
   2   3   3 25998.1 1033.22   1
   2  -3  -3 25900.2 811.269   1
  -2  -3   3 24911.2 770.006   1
  -2  -3   4 9113.29 471.661   1
   2  -3  -4 9825.98 542.686   1
   2   3   4 9198.14 665.013   1
   2  -3  -5 92972.3 1787.66   1
  -2  -3   5 92058.2 1525.42   1
  -2  -3   6 5573.56 400.897   1
   2  -3  -9 16230.9 956.157   3
   2  -3 -10 1254.91 281.410   3
   2  -3 -11 7926.18 738.995   3
   2  -3 -12 592.915 250.384   3
  -2   3 -13 3463.50 416.845   2
   2  -3 -13 3088.16 517.177   3
   2  -3 -14 3010.61 537.668   3
  -2   3 -14 2707.86 386.675   2
   2  -3 -15 2098.21 463.971   3
   2  -3 -16 1432.04 390.264   3
   2  -3 -17 0.75960 186.246   3
   2  -3 -18 269.020 243.536   2
   2  -3 -19-8.36752 180.170   2
   2  -3 -20 106.121 215.779   2
   2   3  21-307.929 322.461   1
  -2   4  16 1262.29 351.176   1
  -2   4  15 1048.53 304.979   1
  -2   4  14 906.504 277.144   1
  -2  -4 -13 12450.0 776.126   3
  -2   4  13 12908.8 961.505   1
  -2  -4 -12 1929.81 303.467   3
  -2   4  12 2021.36 382.710   1
  -2   4  11 5928.79 603.900   1
  -2   4  10 2626.31 379.491   1
  -2   4   9 11656.6 746.663   1
  -2   4   8 5462.07 487.919   1
   2  -4   7 7622.52 415.186   2
  -2   4   7 7823.53 564.829   1
  -2   4   6 48444.7 1330.30   1
   2  -4   6 46219.9 981.459   2
  -2   4   5 8469.67 532.408   1
  -2   4   4 5190.73 414.880   1
   2   4  -3 7635.58 483.901   1
  -2   4   3 7303.66 466.694   1
   2   4  -2 17599.0 732.137   1
  -2   4   2 19349.5 761.039   1
   2   4  -1 40199.2 1125.31   1
  -2   4   1 38677.0 1083.43   1
  -2  -4   0 1068.71 196.125   1
   2  -4   0 1220.70 206.341   1
   2   4   0 847.145 182.416   1
   2  -4  -1 41101.0 1122.17   1
   2   4   1 41404.7 1220.77   1
  -2  -4   1 40127.6 1166.53   1
   2  -4  -2 18810.0 773.538   1
   2   4   2 16001.3 802.183   1
  -2  -4   2 18403.3 760.001   1
  -2  -4   3 7347.18 491.949   1
   2   4   3 8114.57 604.148   1
   2  -4  -3 8941.05 547.905   1
   2  -4  -4 5786.42 459.297   1
  -2  -4   4 4681.45 388.382   1
   2   4   4 4738.53 492.488   1
   2   4   5 10126.6 746.903   1
   2  -4  -5 8215.96 585.431   1
   2   4   6 47550.4 1707.14   1
   2   4   7 8177.24 753.524   1
   2   4   8 4999.15 609.573   1
   2   4   9 11113.4 938.696   1
   2  -4 -11 7955.49 750.064   3
   2  -4 -12 1954.62 391.429   3
   2  -4 -13 12864.6 1035.27   3
   2  -4 -14 2098.14 443.754   3
   2  -4 -15 1892.70 434.234   3
   2   4  16 1199.16 410.433   1
   2  -4 -16 927.792 323.484   3
   2   4  17-137.666 254.304   1
   2  -4 -17 228.525 192.359   3
   2   4  18-49.4631 204.299   1
   2   4  19 4.38728 215.682   1
   2  -4 -20 500.576 341.740   2
   2   4  20 408.477 300.987   1
  -2   5  16 169.568 160.089   1
  -2   5  15 428.715 217.828   1
  -2   5  14 2483.10 446.680   1
  -2   5  13 1555.70 345.154   1
  -2   5  12 5062.83 594.121   1
  -2   5  11 6598.02 644.113   1
  -2   5  10 353.363 151.156   1
  -2   5   9 10931.6 771.419   1
  -2   5   8 1918.03 313.780   1
   2  -5   8 1432.69 209.766   2
  -2   5   7 7236.74 594.662   1
   2  -5   7 6808.98 445.350   2
  -2   5   6 3011.22 366.327   1
   2  -5   6 3404.33 299.206   2
  -2   5   5 926.040 209.885   1
  -2   5   4 1824.62 265.713   1
   2   5  -4 1663.48 260.969   1
   2   5  -3 1523.39 254.890   1
  -2   5   3 1355.77 233.019   1
  -2   5   2 38245.9 1200.21   1
   2   5  -2 38975.8 1216.91   1
   2   5  -1 80021.8 1765.10   1
  -2   5   1 79985.4 1734.36   1
   2   5   0 2784.16 349.237   1
  -2   5   0 2541.59 320.045   1
   2   5   1 84295.4 1891.60   1
   2   5   2 38088.1 1327.17   1
   2   5   3 1194.47 249.477   1
   2   5   4 1861.38 330.697   1
   2   5   5 1377.82 317.703   1
   2   5   6 2765.66 443.445   1
   2   5   7 7234.70 718.007   1
   2   5   8 1425.05 356.328   1
   2   5   9 11471.3 981.294   1
   2   5  10 329.810 227.419   1
   2   5  11 4696.47 684.042   1
   2   5  12 4845.73 718.692   1
   2  -5 -12 5101.42 652.116   3
   2   5  13 1337.29 395.253   1
   2  -5 -13 1160.27 339.823   3
   2  -5 -14 2580.75 500.747   3
   2   5  14 2068.11 522.086   1
   2   5  15 639.914 318.756   1
   2  -5 -15 100.027 181.900   3
   2   5  16-419.548 293.148   1
   2  -5 -16 66.0463 165.768   3
   2   5  17 168.045 227.509   1
   2  -5 -17 133.721 168.317   3
   2   5  18 438.413 237.799   1
   2   5  19-393.585 294.282   1
   2   5  20-465.660 315.423   1
  -2   6  16 1315.26 365.170   1
  -2   6  15 960.046 324.314   1
  -2   6  14 2589.74 487.228   1
  -2   6  13 4415.41 608.514   1
  -2   6  12 5980.63 663.412   1
  -2   6  11 1290.99 311.687   1
  -2   6  10 7512.54 697.878   1
  -2   6   9 10398.7 790.125   1
   2  -6   8 9581.51 590.022   2
  -2   6   8 10911.2 790.914   1
  -2   6   7 2479.69 381.854   1
   2  -6   7 2493.65 293.776   2
  -2   6   6 12142.2 785.266   1
  -2   6   5 23249.8 1057.94   1
  -2   6   4 280.843 116.802   1
   2   6  -4 339.610 179.419   1
  -2   6   3 1219.43 251.623   1
   2   6  -3 1543.19 292.684   1
   2   6  -2 27768.0 1148.38   1
  -2   6   2 27395.6 1124.06   1
   2   6  -1 88694.4 2032.02   1
  -2   6   1 83799.0 1942.69   1
   2   6   0 2391.57 356.715   1
  -2   6   0 2038.92 323.631   1
   2   6   1 85073.9 2073.06   1
   2   6   2 29124.1 1243.97   1
   2   6   3 1172.07 276.905   1
   2   6   4 73.4049 132.239   1
   2   6   5 20747.0 1149.98   1
   2   6   6 13186.4 949.126   1
   2   6   7 3090.97 510.960   1
   2   6   8 9943.47 902.854   1
   2   6   9 9594.72 907.621   1
   2   6  10 8827.42 899.198   1
   2   6  11 1377.14 401.902   1
   2   6  12 5447.28 761.098   1
   2   6  13 4494.37 724.123   1
   2  -6 -13 5103.91 694.032   3
   2   6  14 3676.95 668.508   1
   2  -6 -14 2511.49 503.722   3
   2   6  15 1202.91 429.014   1
   2  -6 -15 1466.81 406.201   3
   2   6  16 798.761 361.650   1
   2  -6 -16 1710.73 437.983   3
   2   6  17 297.488 269.593   1
   2  -6 -17-268.338 216.408   3
   2   6  18 2078.47 571.246   1
   2   6  19 99.1888 208.033   1
  -2   7  15 1546.47 392.500   1
  -2   7  14 1753.26 394.949   1
  -2   7  13 346.741 218.816   1
  -2   7  12 3304.26 514.012   1
  -2   7  11 222.164 179.764   1
  -2   7  10 1586.14 344.683   1
  -2   7   9 5517.16 615.448   1
  -2   7   8 2255.58 401.221   1
  -2   7   7 28315.8 1301.92   1
  -2   7   6 5082.39 547.935   1
  -2   7   5 25118.2 1184.51   1
   2   7  -4 10988.3 784.928   1
  -2   7   4 12211.3 821.321   1
   2   7  -3 3576.11 454.875   1
  -2   7   3 4911.86 520.310   1
   2   7  -2 14216.5 886.874   1
  -2   7   2 13285.1 854.154   1
  -2   7   1 19136.0 1023.66   1
   2   7  -1 18862.5 1026.85   1
   2   7   0 17233.9 994.093   1
  -2   7   0 17945.0 1005.16   1
   2   7   1 18137.9 1034.21   1
   2   7   2 14316.1 933.318   1
   2   7   3 4666.99 551.138   1
   2   7   4 11336.8 877.839   1
   2   7   5 26000.2 1356.96   1
   2   7   6 5343.88 635.936   1
   2   7   7 24158.4 1369.59   1
   2   7   8 1685.30 392.479   1
   2   7   9 5672.47 727.178   1
   2   7  10 1708.60 448.577   1
   2   7  11 353.024 246.657   1
   2   7  12 3890.73 672.423   1
   2   7  13 1185.34 429.358   1
   2   7  14 1623.88 462.116   1
   2  -7 -14 2743.34 551.906   3
   2   7  15 1997.17 528.513   1
   2  -7 -15 2004.95 485.718   3
   2  -7 -16 94.1925 175.284   3
   2   7  16 32.9674 164.057   1
   2   7  17 372.428 299.254   1
   2   7  18 1001.27 457.304   1
  -2   8  15 853.289 323.966   1
  -2   8  14 1621.60 420.564   1
  -2   8  13 3630.12 575.799   1
  -2   8  12 1401.05 370.176   1
  -2   8  11 2092.88 416.470   1
  -2   8  10 485.677 246.481   1
  -2   8   9 18743.7 1176.05   1
  -2   8   8 16742.4 1090.65   1
  -2   8   7 9667.24 825.109   1
  -2   8   6 3523.95 491.783   1
  -2   8   5 4018.36 510.678   1
   2   8  -4 1954.74 378.054   1
  -2   8   4 2425.66 402.109   1
  -2   8   3 4597.23 544.271   1
   2   8  -3 4327.81 539.469   1
  -2   8   2 13619.7 921.906   1
   2   8  -2 11324.2 856.195   1
   2   8  -1 2730.76 430.755   1
  -2   8   1 3063.50 462.058   1
  -2   8   0 30368.8 1403.34   1
   2   8   0 30606.1 1407.11   1
   2   8   1 2653.24 429.772   1
   2   8   2 11771.4 898.076   1
   2   8   3 4732.64 594.161   1
   2   8   4 3087.35 504.894   1
   2   8   5 4569.75 610.601   1
   2   8   6 2801.38 495.903   1
   2   8   7 9714.02 912.385   1
   2   8   8 13566.3 1109.42   1
   2   8   9 17925.4 1294.53   1
   2   8  10 388.552 224.156   1
   2   8  11 1268.73 372.489   1
   2   8  12 1109.35 389.360   1
   2   8  13 4550.02 725.283   1
   2   8  14 1649.20 498.363   1
   2  -8 -15 802.746 354.396   3
   2   8  15 481.816 323.452   1
   2   8  16 1308.98 476.987   1
   2  -8 -16 1365.93 450.756   3
   2   8  17 419.997 269.627   1
  -2   9  15 1386.99 408.426   1
  -2   9  14 805.952 333.833   1
  -2   9  13 3587.27 602.059   1
  -2   9  12 1338.89 370.020   1
  -2   9  11 136.873 161.996   1
  -2   9  10 4378.47 619.722   1
  -2   9   9 1966.34 428.253   1
  -2   9   8 13719.2 1051.19   1
  -2   9   7 2153.14 434.613   1
  -2   9   6 2041.00 393.391   1
  -2   9   5 25729.5 1374.46   1
  -2   9   4 4236.13 574.347   1
   2   9  -4 4848.03 619.669   1
  -2   9   3 3167.33 493.136   1
   2   9  -3 2883.50 468.519   1
  -2   9   2 16127.3 1082.42   1
   2   9  -2 17415.3 1122.15   1
  -2   9   1 22617.7 1285.53   1
   2   9  -1 22401.8 1293.26   1
   2   9   0 65148.4 2183.12   1
  -2   9   0 66002.9 2216.62   1
   2   9   1 19524.4 1210.94   1
   2   9   2 15354.6 1094.39   1
   2   9   3 3226.29 520.286   1
   2   9   4 3310.91 540.392   1
   2   9   5 23243.8 1405.43   1
   2   9   6 2500.48 474.015   1
   2   9   7 1700.00 435.658   1
   2   9   8 14047.7 1164.26   1
   2   9   9 1929.69 470.530   1
   2   9  10 3979.07 658.541   1
   2   9  11-152.728 239.764   1
   2   9  12 997.469 387.264   1
   2   9  13 4150.52 748.836   1
   2   9  14 843.456 374.620   1
   2   9  15 836.631 359.845   1
   2  -9 -16-151.955 199.423   3
   2   9  16 6.83606 210.602   1
  -2  10  15 207.079 191.128   1
  -2  10  14 73.2562 190.790   1
  -2  10  13 374.657 237.797   1
  -2  10  12 60.6838 139.902   1
  -2  10  11 1067.26 350.464   1
  -2  10  10 194.660 234.516   1
  -2  10   9 9333.56 920.583   1
  -2  10   8 1914.13 439.314   1
  -2  10   7 1218.69 360.773   1
  -2  10   6 17244.8 1201.44   1
  -2  10   5 7044.76 777.620   1
  -2  10   4 11682.2 987.471   1
   2  10  -3 26909.8 1504.00   1
  -2  10   3 25701.0 1444.47   1
  -2  10   2 1618.79 408.205   1
   2  10  -2 1435.61 391.168   1
  -2  10   1 14512.6 1099.31   1
   2  10  -1 14806.2 1101.92   1
   2  10   0 1256.56 359.761   1
  -2  10   0 1275.96 393.000   1
   2  10   1 15520.9 1144.00   1
   2  10   2 1306.68 375.634   1
   2  10   3 26872.7 1525.54   1
   2  10   4 11925.9 1037.15   1
   2  10   5 7665.81 863.282   1
   2  10   6 16483.0 1254.21   1
   2  10   7 789.428 296.200   1
   2  10   8 1638.30 416.364   1
   2  10   9 10063.7 1039.71   1
   2  10  10-14.7237 225.265   1
   2  10  11 1528.31 440.503   1
   2  10  12 122.883 197.560   1
   2  10  13 701.016 327.039   1
   2  10  14 87.2559 230.631   1
   2  10  15 77.4574 191.743   1
  -2  11  14 1128.85 412.555   1
  -2  11  13 1103.06 374.293   1
  -2  11  12 194.784 236.427   1
  -2  11  11-169.212 182.280   1
  -2  11  10 2089.66 472.513   1
  -2  11   9 2130.40 476.314   1
  -2  11   8 375.676 227.305   1
  -2  11   7 8582.97 920.297   1
  -2  11   6 294.710 243.685   1
  -2  11   5 1466.14 403.712   1
  -2  11   4 4622.12 685.249   1
  -2  11   3 372.490 255.919   1
   2  11  -3 704.662 318.917   1
   2  11  -2 1881.32 426.245   1
  -2  11   2 2158.88 473.886   1
  -2  11   1 3541.03 602.844   1
   2  11  -1 4972.18 692.835   1
   2  11   0 5939.74 771.889   1
   2  11   1 4849.59 702.040   1
   2  11   2 2850.15 525.451   1
   2  11   3 287.424 240.695   1
   2  11   4 3343.67 599.031   1
   2  11   5 2324.94 506.740   1
   2  11   6 842.624 360.704   1
   2  11   7 10864.7 1093.14   1
   2  11   8 601.788 323.594   1
   2  11   9 1625.32 467.798   1
   2  11  10 1877.28 499.306   1
   2  11  11-142.935 213.788   1
   2  11  12 164.905 193.084   1
   2  11  13-242.107 248.792   1
   2  11  14 528.770 348.545   1
  -2  12  13 1502.39 450.591   1
  -2  12  12 340.477 324.631   1
  -2  12  11 1422.16 430.449   1
  -2  12  10 585.455 303.418   1
  -2  12   9 995.717 383.150   1
  -2  12   8 26.5227 241.912   1
  -2  12   7 3475.69 604.538   1
  -2  12   6 386.346 275.524   1
  -2  12   5 209.632 193.307   1
  -2  12   4 4475.59 686.595   1
  -2  12   3 4923.67 741.357   1
   2  12  -3 6015.79 808.962   1
  -2  12   2 1962.43 486.355   1
   2  12  -2 1138.99 384.547   1
   2  12  -1 2762.30 543.385   1
  -2  12   1 3158.30 587.456   1
   2  12   0 1153.51 389.195   1
   2  12   1 3487.49 648.106   1
   2  12   2 1583.36 467.912   1
   2  12   3 4867.94 727.813   1
   2  12   4 3984.27 680.419   1
   2  12   5-68.7261 176.302   1
   2  12   6 485.885 303.826   1
   2  12   7 2611.51 590.303   1
   2  12   8-311.649 299.032   1
   2  12   9 1148.79 404.238   1
   2  12  10 1544.24 517.737   1
   2  12  11 1000.94 421.128   1
   2  12  12 608.810 335.287   1
  -2  13  12-160.671 223.255   1
  -2  13  11-325.704 256.811   1
  -2  13  10 441.258 269.534   1
  -2  13   9 603.873 346.362   1
  -2  13   8 485.728 284.032   1
  -2  13   7 1347.51 426.356   1
  -2  13   6 1151.98 418.997   1
  -2  13   5 1552.54 450.464   1
  -2  13   4 1100.01 394.224   1
  -2  13   3 1404.54 427.662   1
  -2  13   2 1166.07 427.725   1
   2  13  -2 1399.30 428.437   1
   2  13  -1 75.4538 250.439   1
   2  13   0 396.288 264.659   1
   2  13   1 163.353 287.794   1
   2  13   2 1105.26 412.571   1
   2  13   3 1629.33 481.333   1
   2  13   4 432.256 259.277   1
   2  13   5 1953.68 527.379   1
   2  13   6 995.688 410.063   1
   2  13   7 1321.67 441.811   1
   2  13   8 843.550 357.302   1
   2  13   9 541.860 332.092   1
  -2  14   8-68.6396 194.857   1
  -2  14   7 30.3900 189.159   1
  -2  14   6 566.548 301.226   1
  -2  14   5 602.618 322.702   1
  -2  14   4 190.648 227.318   1
  -2  14   3 229.276 233.186   1
   2  14  -2 264.010 298.124   1
   2  14  -1 612.929 294.409   1
   2  14   0 670.106 351.912   1
   2  14   1 417.986 246.136   1
   2  14   2 26.1064 215.377   1
   2  14   3 669.694 415.724   1
   2  14   4 280.757 253.819   1
   2  14   5 821.460 385.463   1
   2  14   6 673.450 355.302   1
  -3   0   0 28.2714 45.3210   2
   3   0   0 141.134 87.9037   3
  -3   0   0-0.92609 43.5525   3
   3   0  -1 255001. 2435.63   2
  -3   0  -1 254923. 2142.72   3
   3   0   1 248935. 2208.45   3
   3   0  -1 253015. 2655.59   3
  -3   0   1 255824. 2587.58   3
  -3   0   1 253580. 2413.17   2
  -3   0  -1 254294. 2044.42   2
  -3   0   2 64.8480 63.8534   3
   3   0  -2-7.54571 70.0795   2
   3   0  -2 61.2285 96.4122   3
  -3   0   2-26.3286 47.6188   2
   3   0   2 12.8443 40.3220   3
   3   0   3 6595.52 282.126   3
  -3   0   3 4754.93 413.917   3
   3   0  -3 7658.88 562.150   3
   3   0  -3 6367.34 464.978   2
   3   0  -4 43374.9 1324.54   3
   3   0  -4 43861.8 1245.39   2
   3   0  -5 147.473 123.625   2
   3   0  -5 274.694 144.496   3
   3   0  -6 73704.3 1937.74   3
   3   0  -6 75859.6 1850.60   2
   3   0  -7 1960.40 331.854   2
   3   0  -7 2318.56 389.267   3
   3   0  -8 655.889 222.353   2
   3   0  -8 1327.75 321.341   3
   3   0  -9 6739.05 640.251   2
   3   0  -9 6396.27 668.756   3
   3   0 -10 2939.51 471.024   3
   3   0 -10 2613.61 419.937   2
   3   0 -11 179.621 174.132   3
   3   0 -11 160.315 220.465   2
   3   0 -12 21967.5 1367.44   3
   3   0 -12 20106.5 1263.14   2
   3   0 -13 8461.11 882.876   3
   3   0 -13 8957.21 876.558   2
   3   0 -14 4428.12 648.922   2
   3   0 -14 4374.61 643.845   3
   3   0 -15 1975.67 450.677   2
  -3   0 -15 2044.69 364.758   2
   3   0 -15 1214.57 366.557   3
   3   0 -16 5944.83 806.765   3
   3   0 -16 6308.67 818.483   2
   3   0 -17 155.095 217.232   2
   3   0 -17 56.6308 150.930   3
   3   0 -18 1053.56 394.686   2
   3   0 -19 493.071 290.615   2
   3   0 -20 423.952 341.440   2
   3   0 -21 874.071 405.925   2
   3   1 -21-29.7735 164.041   2
   3   1 -20 1336.86 440.444   2
   3   1 -19 1297.88 447.248   2
   3   1 -18 1617.55 465.990   2
   3   1 -17 2158.81 498.630   2
   3   1 -16 3342.76 591.464   2
   3   1 -15 526.854 245.059   2
   3   1 -14 1726.96 406.330   2
   3   1 -14 1534.94 403.990   3
   3   1 -13-104.132 142.619   2
   3   1 -13 548.802 262.414   3
   3   1 -12 27951.8 1462.51   2
   3   1 -12 27082.9 1509.67   3
   3   1 -11 10604.6 931.278   3
   3   1 -11 11260.1 905.498   2
   3   1 -10 31672.9 1512.21   3
   3   1 -10 32599.8 1466.46   2
   3   1  -9 9822.81 820.924   3
   3   1  -9 10702.0 813.887   2
   3   1  -8 9150.25 766.292   3
  -3   1   8 8120.35 477.942   1
   3   1  -8 9055.23 709.435   2
   3   1  -7 22845.2 1148.26   3
  -3   1   7 21264.6 674.901   1
   3   1  -7 21940.0 1069.26   2
  -3   1   6 33249.6 718.735   1
   3   1  -6 32240.5 1310.15   3
   3   1  -6 31829.9 1223.75   2
   3   1  -5 12892.5 787.987   3
  -3   1   5 13405.8 369.364   1
   3   1  -5 12402.0 729.618   2
   3   1  -4 18360.4 895.621   3
  -3  -1  -4 17566.6 440.461   3
   3   1  -4 17787.2 816.524   2
  -3   1   4 17333.9 343.994   1
   3   1  -3 15563.8 782.319   3
  -3  -1  -3 17133.5 505.779   3
   3   1  -3 17034.7 751.410   2
   3   1  -3 15923.4 332.743   1
  -3  -1  -2 27655.2 721.670   3
   3   1  -2 30382.4 1037.68   3
   3   1  -2 29061.9 528.882   1
   3   1  -1 421693. 3594.13   3
  -3  -1  -1 415135. 3074.70   3
   3   1  -1 422844. 2552.00   1
   3  -1   1 429086. 2335.83   2
   3   1   0 68547.4 1350.49   3
   3  -1   0 69241.0 1091.21   2
  -3  -1   0 69596.6 1371.03   3
   3  -1  -1 409095. 3012.56   2
  -3  -1   1 409952. 3547.40   3
  -3  -1   1 415198. 3323.13   2
   3  -1  -1 416216. 3292.93   3
  -3   1  -2 28375.6 487.358   2
  -3  -1   2 28738.8 992.632   3
   3  -1  -2 27939.4 915.569   3
   3  -1  -2 28424.8 862.706   2
  -3  -1   2 28116.9 922.910   2
   3  -1  -2 26904.1 484.126   1
  -3  -1   3 15943.3 367.833   1
  -3  -1   3 15013.7 758.432   3
   3  -1  -3 16147.9 742.973   3
   3  -1  -3 15450.5 334.474   1
  -3  -1   3 16540.3 745.321   2
   3  -1  -4 17375.8 825.553   3
  -3  -1   4 16393.9 356.888   1
   3  -1  -5 12072.6 726.940   3
  -3  -1   5 12545.1 347.073   1
   3  -1  -6 33324.8 1275.37   3
   3  -1  -7 20208.5 1040.17   3
   3  -1  -8 7299.86 659.238   3
   3  -1  -9 8648.89 737.584   2
   3  -1  -9 9656.79 793.449   3
   3  -1 -10 31189.7 1467.63   2
   3  -1 -10 31479.8 1487.89   3
  -3   1 -11 10834.4 629.083   2
   3  -1 -11 10624.4 894.497   2
   3  -1 -11 11125.3 926.685   3
   3  -1 -12 26676.2 1476.08   2
   3  -1 -12 25811.1 1467.90   3
  -3   1 -12 26714.8 1056.87   2
  -3   1 -13 75.2204 96.2422   2
   3  -1 -13-288.483 304.254   2
   3  -1 -13-335.532 285.542   3
  -3   1 -14 1771.66 311.247   2
   3  -1 -14 2201.63 463.600   2
   3  -1 -14 1880.56 453.133   3
   3  -1 -15 1079.48 350.614   2
   3  -1 -15 528.368 262.990   3
   3  -1 -16 3262.09 599.791   2
   3  -1 -16 3396.66 614.967   3
   3  -1 -17 1662.88 475.562   2
   3  -1 -17 1999.61 506.063   3
   3  -1 -18 1231.13 409.946   3
   3  -1 -18 1366.95 437.786   2
   3  -1 -19 889.081 416.288   2
   3  -1 -20 1371.58 493.967   2
   3   2 -20 443.391 307.420   2
   3   2 -19 1014.59 406.352   2
   3   2 -18-394.245 259.598   2
   3   2 -17-6.13150 187.473   2
   3   2 -16 792.046 300.927   2
   3   2 -15 766.878 297.887   2
  -3   2  14 124.160 120.349   1
   3   2 -14-305.781 265.929   2
  -3   2  13 12958.6 878.470   1
   3   2 -13 12251.8 1022.96   2
  -3  -2 -12 6449.95 379.256   3
  -3   2  12 7354.25 626.004   1
   3   2 -12 5032.84 636.388   2
   3  -2  11 13925.2 512.785   3
  -3   2  11 15096.8 844.848   1
  -3  -2 -11 14111.9 540.497   3
   3   2 -11 14172.6 1022.71   2
   3   2 -10 435.796 197.836   2
  -3   2  10 512.748 161.233   1
  -3  -2 -10 629.057 110.182   3
   3  -2  10 777.329 124.664   3
   3   2  -9 1731.53 337.014   2
  -3   2   9 1781.46 258.463   1
   3  -2   9 2296.80 209.225   3
  -3  -2  -9 2033.17 184.541   3
   3  -2   8 30523.8 756.155   3
  -3   2   8 30722.0 949.984   1
   3   2  -8 29077.9 1387.55   3
   3   2  -8 30817.8 1330.88   2
   3   2  -7 20192.7 1031.65   2
   3   2  -7 19896.3 1101.46   3
  -3   2   7 20413.7 705.308   1
  -3   2   6 50979.3 1007.46   1
   3   2  -6 52627.9 1717.94   3
   3   2  -6 51980.3 1578.44   2
   3   2  -5 38802.5 1417.32   3
  -3   2   5 38743.5 790.599   1
   3   2  -5 37651.1 1290.28   2
  -3   2   4 18129.5 506.458   1
  -3   2   3 63452.1 942.553   1
   3   2  -3 63252.0 966.160   1
   3  -2   2 41221.0 575.045   2
   3   2  -2 43144.8 836.209   1
   3   2  -1 249694. 2235.73   1
  -3  -2   0 157680. 2267.19   3
   3   2   0 159639. 2007.24   1
  -3  -2   1 244934. 2427.50   1
   3  -2  -1 246099. 2112.50   1
  -3  -2   1 255392. 3025.37   3
   3   2   1 247040. 2770.71   1
  -3  -2   2 41786.5 892.488   1
  -3  -2   2 42447.0 1207.08   2
  -3  -2   2 40298.9 1273.71   3
   3  -2  -2 42380.5 808.421   1
  -3  -2   3 65246.8 1023.53   1
   3  -2  -3 62933.3 979.275   1
   3  -2  -4 18353.5 575.163   1
  -3  -2   4 18421.9 530.589   1
   3  -2  -5 38261.0 1292.69   3
  -3  -2   5 36441.7 784.686   1
   3  -2  -6 49180.3 1544.33   3
  -3  -2   6 49364.9 947.338   1
  -3  -2   7 20133.2 665.100   1
   3  -2  -7 20745.6 1050.75   3
  -3   2  -7 19738.3 485.162   2
   3  -2  -8 31048.3 1346.61   3
  -3   2  -8 30966.1 725.085   2
  -3   2  -9 1993.59 213.632   2
   3  -2  -9 2088.78 379.625   3
  -3   2 -10 606.960 133.598   2
   3  -2 -10 625.723 204.789   3
   3  -2 -11 15551.3 1081.01   3
  -3   2 -11 15172.7 701.423   2
   3  -2 -12 6962.45 764.789   3
  -3   2 -12 6823.73 508.699   2
  -3   2 -13 14548.1 782.779   2
   3  -2 -13 12303.9 1050.26   3
   3  -2 -14-83.9127 150.955   3
   3  -2 -14-6.64056 200.410   2
   3  -2 -15 747.054 280.713   2
   3  -2 -15 965.857 322.907   3
   3  -2 -16 640.694 235.198   3
   3  -2 -16 1229.97 385.914   2
   3  -2 -17 596.063 308.321   3
   3  -2 -17 922.226 368.402   2
   3  -2 -18 499.185 315.152   2
   3  -2 -18 88.1902 180.146   3
   3  -2 -19 1567.89 462.290   2
   3  -2 -20 494.621 298.082   2
   3   3 -17 315.353 179.894   2
   3   3 -16-189.554 209.947   2
   3   3 -15 2426.82 500.496   2
   3   3 -14 138.711 182.524   2
  -3   3  14 20.4825 105.056   1
  -3   3  13 6102.50 603.348   1
   3   3 -13 7437.88 800.295   2
  -3   3  12 13067.5 851.811   1
  -3  -3 -12 13947.5 648.475   3
   3   3 -12 14125.5 1060.64   2
   3   3 -11 2916.06 470.511   2
  -3   3  11 2599.02 365.123   1
  -3  -3 -11 3029.50 291.878   3
   3   3 -10 6769.48 684.894   2
   3  -3  10 6637.87 454.983   3
  -3   3  10 7184.01 556.003   1
   3  -3   9 7434.37 477.414   3
  -3   3   9 7452.18 535.168   1
  -3   3   8 2379.20 288.348   1
  -3   3   7 31850.9 963.546   1
  -3   3   6 9921.03 516.120   1
  -3   3   5 21820.3 710.562   1
   3   3  -4 6924.20 399.989   1
  -3   3   4 6427.56 379.302   1
  -3   3   3 27882.4 778.299   1
   3   3  -3 27000.6 783.690   1
   3   3  -2 20246.1 688.356   1
   3   3  -1 90269.1 1535.16   1
   3  -3   0 80564.0 1480.88   1
   3   3   0 82042.8 1576.13   1
  -3  -3   0 85677.8 1758.45   1
   3  -3  -1 90635.4 1492.96   1
   3   3   1 87924.7 1774.68   1
  -3  -3   1 90082.7 1642.18   1
   3  -3  -2 19725.3 675.451   1
   3   3   2 19105.8 887.549   1
  -3  -3   2 18782.4 712.522   1
   3  -3  -3 26510.3 796.142   1
  -3  -3   3 26780.1 809.984   1
   3   3   3 26852.6 1130.37   1
   3  -3  -4 6813.10 419.975   1
  -3  -3   4 6552.08 391.879   1
   3  -3  -5 21382.2 801.188   1
  -3  -3   5 22277.5 732.713   1
  -3  -3   6 9104.59 484.031   1
  -3  -3   7 31968.4 942.147   1
   3  -3  -8 3166.91 441.041   3
  -3  -3   8 2868.96 299.703   1
   3  -3  -9 9411.97 808.610   3
   3  -3 -10 7184.84 720.981   3
   3  -3 -11 3542.57 525.041   3
   3  -3 -12 11359.6 988.676   3
   3  -3 -13 6798.03 787.931   3
   3  -3 -14 23.6641 198.804   3
   3  -3 -15 2298.72 516.191   3
   3  -3 -16-33.6584 157.725   3
   3  -3 -17 168.132 246.249   2
   3  -3 -17-126.124 161.028   3
   3  -3 -18 561.237 299.960   2
   3  -3 -18 601.253 308.162   3
   3  -3 -19 754.491 404.498   2
  -3   4  14 6088.99 646.359   1
  -3   4  13 1528.18 323.987   1
  -3  -4 -12 9440.59 594.489   3
  -3   4  12 9110.98 717.438   1
  -3   4  11 8094.81 645.561   1
  -3   4  10 2749.50 367.374   1
  -3   4   9 3606.62 401.501   1
  -3   4   8 333.545 142.889   1
  -3   4   7 49954.4 1331.72   1
   3  -4   6 643.663 91.0541   2
  -3   4   6 1017.93 190.141   1
  -3   4   5 14102.4 654.919   1
   3  -4   5 15149.9 430.046   2
   3   4  -4 3784.13 344.896   1
  -3   4   4 3982.80 343.048   1
   3   4  -3 8199.08 505.651   1
  -3   4   3 8752.13 503.801   1
  -3   4   2 27169.7 907.180   1
   3   4  -2 26314.7 903.286   1
   3   4  -1 20667.1 830.502   1
   3   4   0 41873.1 1234.93   1
  -3  -4   1 20598.4 883.080   1
   3   4   1 18945.1 872.479   1
   3  -4  -1 20934.5 815.335   1
   3   4   2 26806.1 1101.88   1
  -3  -4   2 26388.6 958.396   1
   3  -4  -2 26057.0 905.701   1
   3   4   3 8102.77 643.091   1
  -3  -4   3 9002.89 538.880   1
   3  -4  -3 8541.41 526.604   1
   3  -4  -4 3490.06 342.097   1
   3   4   4 4087.62 476.452   1
  -3  -4   4 4086.85 365.268   1
   3   4   5 15486.7 978.122   1
   3  -4  -5 13652.0 719.955   1
  -3  -4   5 13759.5 664.064   1
   3   4   6 592.276 227.473   1
   3  -4  -6 714.832 183.143   1
   3   4   7 50707.6 1932.46   1
   3  -4 -10 3454.68 508.898   3
   3  -4 -11 7670.96 785.973   3
   3  -4 -12 8547.83 862.808   3
   3  -4 -13 2215.76 464.329   3
   3  -4 -14 6217.13 789.586   3
   3  -4 -15 2159.49 487.511   3
   3  -4 -16 1038.40 351.431   3
   3  -4 -17 1681.98 474.657   3
   3  -4 -18 277.443 256.697   2
   3   4  18-258.377 284.718   1
   3  -4 -18 159.075 189.978   3
   3  -4 -19 872.177 382.509   2
   3   4  19 430.549 354.769   1
  -3   5  14 602.017 223.320   1
  -3   5  13 50.2886 117.500   1
  -3   5  12 2280.96 374.766   1
  -3   5  11 9147.08 719.310   1
  -3   5  10 10212.8 736.181   1
  -3   5   9 180.253 105.565   1
  -3   5   8 26587.2 1106.56   1
  -3   5   7 8435.81 596.254   1
   3  -5   7 9488.32 429.464   2
  -3   5   6 8891.34 599.257   1
   3  -5   6 9543.10 426.073   2
  -3   5   5 2475.50 312.201   1
  -3   5   4 29154.2 1040.50   1
   3   5  -4 28882.2 1066.90   1
   3   5  -3 26117.6 1002.58   1
  -3   5   3 24268.7 945.644   1
  -3   5   2 9584.27 602.102   1
   3   5  -2 9326.81 607.903   1
   3   5  -1 25850.3 1020.63   1
   3   5   0 9580.74 645.449   1
   3   5   1 23099.6 1041.70   1
   3   5   2 8891.95 667.920   1
   3   5   3 26442.1 1194.32   1
   3   5   4 27867.9 1295.16   1
   3   5   5 2632.92 425.952   1
   3   5   6 9662.84 836.387   1
   3   5   7 8372.93 804.747   1
   3   5   8 28184.7 1534.42   1
   3   5   9-47.0739 227.910   1
   3   5  10 9687.80 962.859   1
   3   5  11 8980.73 960.814   1
   3  -5 -11 8405.34 842.248   3
   3  -5 -12 3254.48 543.200   3
   3   5  12 2649.34 576.479   1
   3   5  13-313.429 328.689   1
   3  -5 -13 79.1155 173.739   3
   3   5  14 240.430 242.677   1
   3  -5 -14 666.863 321.919   3
   3   5  15-214.568 279.505   1
   3  -5 -15 73.5964 179.732   3
   3   5  16 436.360 287.315   1
   3  -5 -16-644.210 298.309   3
   3   5  17 49.2535 199.106   1
   3  -5 -17 486.289 257.029   3
   3   5  18 279.437 271.425   1
   3   5  19 1136.12 502.826   1
  -3   6  14 5296.98 637.054   1
  -3   6  13 828.151 249.318   1
  -3   6  12 458.973 202.895   1
  -3   6  11-3.00474 139.745   1
  -3   6  10 4409.91 521.026   1
  -3   6   9 8167.95 675.694   1
   3  -6   8 9315.88 500.474   2
  -3   6   8 11730.1 781.008   1
   3  -6   7 3315.55 300.685   2
  -3   6   7 3364.51 416.614   1
  -3   6   6 16546.0 884.281   1
  -3   6   5 13456.6 786.384   1
  -3   6   4 50.8382 103.738   1
   3   6  -4-107.125 136.999   1
   3   6  -3 17821.1 923.018   1
  -3   6   3 22446.3 1016.12   1
  -3   6   2 27060.9 1120.51   1
   3   6  -2 26080.0 1100.58   1
   3   6  -1 13299.4 808.295   1
   3   6   0 34428.6 1319.32   1
   3   6   1 12504.1 821.883   1
   3   6   2 24864.7 1192.71   1
   3   6   3 19444.8 1091.90   1
   3   6   4-110.593 222.853   1
   3   6   5 12228.6 912.789   1
   3   6   6 14111.4 1029.76   1
   3   6   7 3369.24 553.095   1
   3   6   8 10973.4 969.946   1
   3   6   9 6622.66 784.450   1
   3   6  10 5993.44 773.729   1
   3   6  11 111.605 224.356   1
   3   6  12 987.530 354.354   1
   3   6  13 1239.08 437.648   1
   3  -6 -13 1533.55 408.479   3
   3   6  14 6248.97 913.472   1
   3  -6 -14 5855.16 806.374   3
   3   6  15-34.5203 201.083   1
   3  -6 -15 1220.43 451.751   3
   3   6  16 1378.45 482.253   1
   3  -6 -16 1360.30 426.409   3
   3   6  17 597.541 395.097   1
   3  -6 -17 1334.31 450.542   3
   3   6  18-300.035 291.129   1
  -3   7  14 1814.33 399.415   1
  -3   7  13 607.444 242.620   1
  -3   7  12 3071.32 477.804   1
  -3   7  11 11245.1 880.092   1
  -3   7  10 6228.07 651.623   1
  -3   7   9 2956.57 447.925   1
  -3   7   8 5162.59 573.971   1
  -3   7   7 8198.30 697.077   1
  -3   7   6 7386.44 652.443   1
  -3   7   5 5457.74 548.758   1
   3   7  -4 17210.8 993.974   1
  -3   7   4 18981.8 1015.14   1
  -3   7   3 22500.0 1092.24   1
   3   7  -3 25067.5 1177.18   1
   3   7  -2 24878.7 1179.83   1
  -3   7   2 24324.2 1153.30   1
  -3   7   1 69904.9 1964.20   1
   3   7  -1 66279.5 1938.04   1
   3   7   0 36519.3 1461.27   1
   3   7   1 70985.2 2053.80   1
   3   7   2 24489.6 1252.86   1
   3   7   3 23534.7 1245.57   1
   3   7   4 21095.8 1223.97   1
   3   7   5 5041.03 631.288   1
   3   7   6 7363.13 770.294   1
   3   7   7 7746.73 806.734   1
   3   7   8 4818.22 668.971   1
   3   7   9 3265.69 568.411   1
   3   7  10 6920.88 846.109   1
   3   7  11 9491.52 1012.40   1
   3   7  12 2215.77 520.112   1
   3   7  13 1450.79 463.883   1
   3  -7 -14 1999.52 498.954   3
   3   7  14 1259.45 430.698   1
   3   7  15-156.695 221.914   1
   3  -7 -15 139.193 175.832   3
   3   7  16 835.544 366.592   1
   3  -7 -16 784.849 376.774   3
   3  -7 -17 20.2861 131.330   3
   3   7  17 3.18390 209.273   1
   3   7  18-4.46290 166.862   1
  -3   8  14 776.990 290.439   1
  -3   8  13 4284.72 602.710   1
  -3   8  12 769.613 285.882   1
  -3   8  11 1255.07 316.355   1
  -3   8  10 4178.95 561.774   1
  -3   8   9 1139.57 312.684   1
  -3   8   8 4279.53 542.480   1
  -3   8   7 5630.03 621.777   1
  -3   8   6 18957.3 1103.25   1
  -3   8   5 13248.9 923.373   1
   3   8  -4 863.592 227.617   1
  -3   8   4 1176.04 291.320   1
  -3   8   3 53373.2 1818.31   1
   3   8  -3 55605.1 1861.89   1
   3   8  -2 8228.16 738.465   1
  -3   8   2 7967.15 735.233   1
  -3   8   1 20028.9 1148.09   1
   3   8  -1 21394.8 1183.53   1
   3   8   0 11753.3 889.525   1
   3   8   1 20097.2 1172.20   1
   3   8   2 8422.32 778.345   1
   3   8   3 51034.0 1951.14   1
   3   8   4 864.255 275.260   1
   3   8   5 12770.4 1024.70   1
   3   8   6 18080.9 1244.33   1
   3   8   7 5855.29 739.920   1
   3   8   8 3893.91 632.857   1
   3   8   9 1186.11 372.291   1
   3   8  10 4462.99 685.734   1
   3   8  11 1669.43 452.139   1
   3   8  12 590.656 299.981   1
   3   8  13 3713.13 705.579   1
   3   8  14 840.825 385.786   1
   3   8  15 3369.94 704.596   1
   3  -8 -15 3638.84 702.126   3
   3  -8 -16-220.313 210.033   3
   3   8  16 391.794 295.582   1
   3   8  17 1106.96 439.945   1
   3  -8 -17 2420.12 583.710   3
  -3   9  13 1181.45 333.910   1
  -3   9  12 2772.05 504.714   1
  -3   9  11 6234.23 723.198   1
  -3   9  10 4.51388 185.829   1
  -3   9   9 7625.57 777.134   1
  -3   9   8 2729.38 464.363   1
  -3   9   7 10704.3 894.117   1
  -3   9   6 1554.06 355.581   1
  -3   9   5 5435.44 640.279   1
   3   9  -4 2932.48 497.393   1
  -3   9   4 2010.01 409.966   1
   3   9  -3 7809.76 776.113   1
  -3   9   3 7890.47 768.522   1
   3   9  -2 2140.75 442.802   1
  -3   9   2 2097.32 402.991   1
   3   9  -1 3185.36 511.372   1
   3   9   0 4320.78 586.407   1
   3   9   1 3086.91 514.720   1
   3   9   2 2387.67 455.887   1
   3   9   3 9575.85 894.604   1
   3   9   4 2655.71 498.061   1
   3   9   5 6103.98 742.243   1
   3   9   6 1421.88 406.752   1
   3   9   7 10374.7 1017.98   1
   3   9   8 1975.72 463.658   1
   3   9   9 7569.30 904.254   1
   3   9  10-201.235 282.616   1
   3   9  11 5221.91 796.240   1
   3   9  12 3057.97 642.475   1
   3   9  13 866.561 378.752   1
   3   9  14 1390.31 444.115   1
   3   9  15 308.844 243.288   1
   3  -9 -15 158.689 241.032   3
   3   9  16 1081.18 432.385   1
   3  -9 -16 1108.00 429.264   3
   3  -9 -17 335.865 281.650   3
  -3  10  13 1067.20 342.993   1
  -3  10  12-94.7791 221.338   1
  -3  10  11 37.9553 140.134   1
  -3  10  10 2607.27 503.147   1
  -3  10   9 1599.59 406.918   1
  -3  10   8 4287.21 621.635   1
  -3  10   7 10197.1 953.663   1
  -3  10   6 699.321 299.718   1
  -3  10   5 9843.23 905.285   1
  -3  10   4 2905.88 509.845   1
   3  10  -4 2968.43 527.901   1
  -3  10   3 16629.9 1174.37   1
   3  10  -3 18253.8 1236.05   1
  -3  10   2 451.894 243.608   1
   3  10  -2 744.884 302.302   1
   3  10  -1 21951.5 1372.76   1
   3  10   0 1168.91 364.846   1
   3  10   1 19538.5 1303.75   1
   3  10   2 626.121 291.120   1
   3  10   3 19349.0 1317.30   1
   3  10   4 3703.24 605.176   1
   3  10   5 10610.8 1019.99   1
   3  10   6 324.350 274.182   1
   3  10   7 11791.0 1125.34   1
   3  10   8 5807.37 811.669   1
   3  10   9 1057.03 377.867   1
   3  10  10 2636.47 571.751   1
   3  10  11 57.6651 250.485   1
   3  10  12-319.906 325.949   1
   3  10  13 344.141 260.349   1
   3  10  14-503.119 324.965   1
   3 -10 -16 44.1997 196.989   3
  -3  11  13 19.5642 147.695   1
  -3  11  12 923.175 339.367   1
  -3  11  11 899.493 326.472   1
  -3  11  10 2714.25 534.537   1
  -3  11   9 1502.22 407.756   1
  -3  11   8 2584.00 510.494   1
  -3  11   7 842.623 338.806   1
  -3  11   6 2544.83 499.144   1
  -3  11   5 305.585 189.231   1
  -3  11   4 354.611 293.491   1
   3  11  -4 336.811 243.362   1
  -3  11   3 3444.28 586.695   1
   3  11  -3 3602.31 620.298   1
   3  11  -2 5149.17 704.690   1
  -3  11   2 3848.02 626.470   1
   3  11  -1 7711.86 864.604   1
   3  11   0 3214.30 570.791   1
   3  11   1 6824.86 824.539   1
   3  11   2 3803.07 649.475   1
   3  11   3 3704.28 615.699   1
   3  11   4 128.401 189.571   1
   3  11   5 1030.67 377.093   1
   3  11   6 3776.76 672.297   1
   3  11   7 1759.65 464.128   1
   3  11   8 1638.20 472.309   1
   3  11   9 1350.86 434.474   1
   3  11  10 1689.21 451.691   1
   3  11  11 662.245 343.662   1
   3  11  12 1096.12 463.123   1
   3  11  13 460.799 302.803   1
  -3  12  12 51.6055 173.115   1
  -3  12  11 1102.91 385.074   1
  -3  12  10 719.019 306.147   1
  -3  12   9 680.568 282.858   1
  -3  12   8 956.175 339.268   1
  -3  12   7 32.0344 149.398   1
  -3  12   6 444.271 250.464   1
  -3  12   5 1249.91 386.884   1
  -3  12   4 2133.16 484.334   1
   3  12  -3 711.322 345.265   1
  -3  12   3 594.764 291.130   1
   3  12  -2 4776.76 728.647   1
   3  12  -1-113.160 219.331   1
   3  12   0 275.657 240.616   1
   3  12   1 197.083 245.220   1
   3  12   2 3284.14 612.044   1
   3  12   3 971.513 376.993   1
   3  12   4 2175.77 521.266   1
   3  12   5 2331.54 559.924   1
   3  12   6 163.134 274.249   1
   3  12   7-91.7774 189.181   1
   3  12   8 1068.45 454.262   1
   3  12   9 1188.29 414.027   1
   3  12  10 1043.42 424.304   1
   3  12  11 1147.22 452.793   1
  -3  13  11 257.090 290.871   1
  -3  13  10 259.028 226.563   1
  -3  13   9 671.099 336.332   1
  -3  13   8 1158.04 410.118   1
  -3  13   7 316.888 245.121   1
  -3  13   6 2355.54 523.713   1
  -3  13   5 1106.90 402.801   1
  -3  13   4-9.67715 232.866   1
   3  13  -3 587.858 327.274   1
   3  13  -2 653.028 351.174   1
   3  13  -1 5631.40 822.018   1
   3  13   0-1.61903 182.942   1
   3  13   1 5525.48 824.675   1
   3  13   2 1106.81 402.392   1
   3  13   3 571.650 309.819   1
   3  13   4 495.184 312.893   1
   3  13   5 410.829 256.679   1
   3  13   6 1271.93 470.262   1
   3  13   7 640.163 339.893   1
   3  13   8 2143.42 557.498   1
   3  13   9 999.447 416.159   1
  -3  14   9 427.377 287.949   1
  -3  14   8 485.811 287.476   1
  -3  14   7 1196.03 417.829   1
  -3  14   6 1877.33 502.962   1
  -3  14   5 628.968 337.242   1
  -3  14   4 497.092 263.895   1
   3  14  -2 1281.14 437.497   1
   3  14  -1 327.606 288.425   1
   3  14   0-107.789 234.570   1
   3  14   1 66.6136 222.341   1
   3  14   2 1090.69 422.390   1
   3  14   3-12.1355 228.650   1
   3  14   4 500.640 338.199   1
   3  14   5 93.9293 247.934   1
   4   0   0 43252.6 1181.01   3
  -4   0   0 44095.5 1065.83   2
  -4   0   0 43741.3 1132.41   3
   4   0  -1 5717.26 459.430   3
  -4   0  -1 5865.30 383.492   3
  -4   0   1 5237.65 422.218   3
   4   0   1 6003.14 413.327   3
   4   0  -1 5646.30 407.386   2
  -4   0  -1 5717.78 360.624   2
  -4   0   1 6014.11 419.537   2
  -4   0   2 1019.93 189.544   2
   4   0   2 1084.87 167.111   3
   4   0  -2 793.343 192.619   3
   4   0  -2 965.237 187.154   2
  -4   0   2 1163.35 215.579   3
   4   0  -3 2702.17 351.728   3
   4   0   3 2535.27 224.412   3
   4   0  -3 2444.17 319.279   2
   4   0   4 35403.0 710.724   3
   4   0  -4 36144.1 1344.02   3
   4   0  -4 35725.0 1237.12   2
   4   0  -5 94591.0 2276.23   3
   4   0  -5 96540.8 2118.68   2
   4   0  -6 22323.2 1158.35   3
   4   0  -6 21735.6 1069.59   2
   4   0  -7 33727.9 1486.81   3
  -4   0   7 33772.1 546.474   1
   4   0  -7 35577.6 1433.36   2
   4   0  -8 1748.95 368.852   2
   4   0  -8 2373.11 442.172   3
   4   0  -9 22845.3 1333.11   3
   4   0  -9 23343.4 1256.50   2
   4   0 -10 3082.66 504.233   2
   4   0 -10 3084.52 516.303   3
   4   0 -11 1994.97 424.769   3
   4   0 -11 2487.37 476.689   2
   4   0 -12 409.752 241.753   3
   4   0 -12 453.520 269.779   2
   4   0 -13 793.435 323.971   2
   4   0 -13 389.164 229.964   3
   4   0 -14 549.058 305.484   2
   4   0 -14 302.550 229.445   3
   4   0 -15 1904.39 463.707   2
   4   0 -15 2474.48 545.884   3
   4   0 -16 453.910 245.751   2
   4   0 -16 753.794 351.393   3
   4   0 -17 1342.34 409.263   2
   4   0 -17 1658.15 485.369   3
   4   0 -18 589.343 336.253   2
   4   0 -18 700.384 341.962   3
   4   0 -19-83.1828 238.897   2
   4   0 -20 662.329 351.834   2
   4   1 -20-372.505 282.929   2
   4   1 -19 897.137 381.786   2
   4   1 -18 760.518 313.429   2
   4   1 -17 961.621 355.678   2
   4   1 -16 578.302 255.318   2
   4   1 -15 717.743 312.030   3
   4   1 -15 1891.09 456.704   2
   4   1 -14 469.237 253.917   2
   4   1 -14 289.382 232.154   3
   4   1 -13 24550.1 1562.16   3
  -4   1  13 24730.5 1073.88   1
   4   1 -13 23461.7 1477.13   2
   4   1 -12 4364.92 626.166   2
   4   1 -12 4147.53 626.615   3
  -4   1  12 4144.30 417.189   1
   4   1 -11 19314.0 1314.42   3
   4   1 -11 19638.4 1251.58   2
  -4   1  11 21730.6 871.901   1
   4   1 -10 1520.02 361.575   2
  -4   1  10 1390.27 201.389   1
   4   1 -10 1578.63 376.508   3
   4   1  -9 20510.4 1254.53   3
  -4   1   9 20919.9 679.804   1
   4   1  -9 19605.9 1161.00   2
   4   1  -8 31404.6 1498.09   3
  -4   1   8 30994.5 699.389   1
   4   1  -8 32574.7 1430.26   2
  -4   1   7 16004.4 412.441   1
   4   1  -7 16443.6 1055.44   3
   4   1  -7 15886.3 970.065   2
   4   1  -6 53691.8 1828.57   3
   4   1  -6 54434.5 1696.65   2
   4  -1   5 73167.5 912.452   3
  -4  -1  -5 71511.8 897.955   3
   4   1  -5 73784.3 2062.99   3
   4   1  -5 76805.0 1929.36   2
  -4  -1  -4 27486.5 668.939   3
   4   1  -4 29269.9 1242.70   3
   4  -1   4 27767.3 655.417   3
   4   1  -4 26051.3 1066.74   2
  -4  -1  -3 43666.8 962.999   3
   4   1  -3 45096.2 1461.66   3
   4   1  -3 43996.8 604.088   1
   4  -1   3 42999.5 909.940   3
   4   1  -3 44207.1 1336.53   2
   4   1  -2 1225.28 137.433   1
   4  -1   2 1176.87 167.176   3
   4   1  -2 1449.40 255.473   3
  -4  -1  -2 1146.90 174.393   3
   4   1  -1 35848.8 1187.44   3
  -4  -1  -1 35478.8 1024.69   3
   4  -1   1 34624.6 964.015   3
   4  -1   1 34992.7 817.492   2
  -4  -1   0 134521. 2124.48   3
   4   1   0 131475. 2123.41   3
   4  -1   0 132715. 2004.15   3
  -4  -1   0 136840. 2035.18   2
   4  -1   0 134847. 1792.41   2
   4  -1  -1 34676.8 1099.27   3
  -4  -1   1 37783.7 1191.95   3
   4   1   1 34539.1 1027.11   3
  -4  -1   1 38312.5 1131.62   2
   4  -1  -1 35615.0 993.082   2
  -4   1  -2 1134.09 134.635   2
   4  -1  -2 1470.27 230.115   2
   4  -1  -2 1197.39 232.066   3
   4  -1  -3 46103.8 1305.47   2
   4  -1  -3 45000.1 1389.64   3
   4  -1  -3 41985.3 578.579   1
  -4   1  -3 43427.3 700.911   2
   4  -1  -4 28485.8 1164.21   3
   4  -1  -4 29023.0 1102.77   2
  -4   1  -4 26689.4 481.198   2
   4  -1  -5 76695.2 1896.22   2
   4  -1  -5 76468.4 2013.03   3
   4  -1  -6 51178.8 1646.44   2
   4  -1  -6 52086.8 1727.46   3
  -4  -1   6 49947.5 605.588   1
   4  -1  -7 14516.9 920.961   2
   4  -1  -7 14442.4 944.759   3
  -4  -1   7 15553.5 407.319   1
  -4  -1   8 32110.3 682.243   1
   4  -1  -8 30545.7 1387.36   2
   4  -1  -8 30808.1 1454.06   3
   4  -1  -9 20642.6 1196.06   2
   4  -1  -9 20168.5 1226.34   3
   4  -1 -10 1295.40 342.810   3
   4  -1 -10 1314.34 333.677   2
   4  -1 -11 22018.8 1321.87   2
   4  -1 -11 20359.7 1323.56   3
  -4   1 -11 22171.4 820.984   2
  -4   1 -12 4920.81 419.529   2
   4  -1 -12 4905.14 667.965   2
   4  -1 -12 4250.92 654.139   3
  -4   1 -13 25358.2 1008.17   2
   4  -1 -13 23837.9 1479.72   2
   4  -1 -13 25333.2 1590.02   3
   4  -1 -14 329.433 222.398   2
   4  -1 -14 456.043 241.188   3
   4  -1 -15 1185.71 405.790   2
   4  -1 -15 910.286 334.917   3
   4  -1 -16 491.672 298.177   3
   4  -1 -16 537.504 293.942   2
   4  -1 -17 1281.60 422.893   2
   4  -1 -17 1325.82 433.842   3
   4  -1 -18 969.210 389.251   2
   4  -1 -18 158.473 214.120   3
   4  -1 -19 777.149 353.008   2
   4  -1 -20-174.499 221.212   2
   4   2 -20 43.1969 171.379   2
   4   2 -19 51.8787 203.775   2
   4   2 -18 56.6686 179.015   2
   4   2 -17 828.787 288.571   2
   4   2 -16 452.270 227.117   2
   4   2 -15 3237.73 600.113   2
   4   2 -14 59.5783 146.855   2
   4   2 -13 1526.86 378.363   2
  -4   2  13 1431.18 278.138   1
   4   2 -12 5889.11 701.175   2
  -4   2  12 6483.81 520.003   1
   4   2 -11 1289.22 316.539   2
   4   2 -11 1769.74 413.469   3
  -4   2  11 1418.31 225.800   1
   4   2 -10 5511.95 706.187   3
  -4   2  10 6055.70 425.348   1
   4   2 -10 5602.24 652.511   2
  -4   2   9 6227.30 395.998   1
   4   2  -9 6133.21 706.701   3
   4   2  -9 5318.06 611.854   2
   4   2  -8 2880.54 456.320   2
  -4   2   8 3139.76 259.604   1
   4   2  -8 2942.11 471.906   3
   4  -2   8 2591.27 181.025   3
  -4   2   7 81553.0 1164.20   1
   4   2  -7 80298.5 2358.96   3
   4   2  -7 79036.6 2170.07   2
   4   2  -6 51853.8 1836.82   3
  -4   2   6 50363.6 845.918   1
   4   2  -6 50733.2 1678.93   2
   4   2  -5 11108.3 824.250   3
  -4  -2  -5 10960.8 481.030   3
  -4   2   5 11891.7 393.849   1
   4   2  -4 33201.1 685.931   1
  -4  -2  -4 32048.2 881.104   3
   4   2  -4 32614.0 1352.85   3
  -4  -2  -3 3622.89 320.000   3
   4   2  -3 3922.43 461.581   3
   4   2  -3 3366.17 232.576   1
  -4  -2  -2 5140.05 402.327   3
   4   2  -2 4722.32 304.773   1
   4  -2   2 5228.47 265.673   2
  -4  -2  -1 27850.0 996.277   3
   4   2  -1 25934.5 801.140   1
   4  -2   1 26171.6 692.127   2
   4  -2   0 45265.7 1029.74   2
  -4  -2   0 47557.2 1368.95   3
   4   2   0 44809.2 1174.10   1
   4  -2  -2 5105.12 301.542   1
  -4  -2   3 2705.53 237.162   1
   4  -2  -3 3473.55 388.729   3
   4  -2  -3 3102.50 218.426   1
  -4  -2   4 33567.8 754.121   1
   4  -2  -4 34665.1 1273.72   3
   4  -2  -4 33987.0 713.708   1
   4  -2  -5 12034.6 798.935   3
  -4  -2   5 12398.4 430.846   1
   4  -2  -6 50870.9 1696.90   3
  -4  -2   6 49986.7 875.538   1
   4  -2  -7 83691.3 2273.48   3
  -4  -2   7 82690.4 1180.70   1
   4  -2  -8 2888.31 457.992   3
  -4  -2   8 2968.91 244.347   1
   4  -2  -9 6454.42 687.514   3
  -4   2  -9 5778.91 284.221   2
  -4  -2   9 6135.82 373.784   1
  -4  -2  10 6168.80 408.173   1
   4  -2 -10 6017.51 693.799   3
  -4   2 -10 6685.01 359.397   2
   4  -2 -11 1240.01 325.270   3
  -4   2 -11 1646.97 200.485   2
   4  -2 -11 1565.49 385.120   2
   4  -2 -12 6596.44 785.239   2
   4  -2 -12 6818.82 806.149   3
  -4   2 -12 5877.94 409.950   2
   4  -2 -13 2138.70 492.749   3
   4  -2 -13 1122.50 343.646   2
   4  -2 -14 526.621 304.747   2
   4  -2 -14 477.761 254.278   3
   4  -2 -15 2680.94 540.842   2
   4  -2 -15 2539.63 556.330   3
   4  -2 -16 318.458 276.055   2
   4  -2 -16 362.905 195.582   3
   4  -2 -17 1383.06 418.257   2
   4  -2 -17 1153.62 417.359   3
   4  -2 -18 338.066 310.258   2
   4  -2 -18-79.8544 225.777   3
   4  -2 -19 516.818 262.488   2
   4   3 -15 448.438 252.676   2
   4   3 -14 454.253 274.167   2
  -4   3  13 2699.61 360.720   1
   4   3 -13 3090.22 546.602   2
  -4   3  12 2098.23 313.955   1
   4   3 -12 2334.31 462.098   2
  -4   3  11 4943.30 440.801   1
  -4   3  10 2415.84 289.544   1
  -4   3   9 25443.6 885.289   1
  -4   3   8 22616.3 774.630   1
  -4   3   7 573.305 128.325   1
  -4   3   6 24623.3 732.644   1
  -4   3   5 5563.67 345.899   1
  -4   3   4 25872.9 745.569   1
   4   3  -4 26836.5 767.462   1
   4  -3   3 3902.30 190.151   2
   4   3  -3 3595.26 288.442   1
   4   3  -2 14053.8 601.406   1
   4   3  -1 58119.8 1315.05   1
   4   3   0 162509. 2373.26   1
   4   3   1 54153.8 1478.79   1
   4  -3  -1 58230.2 1248.56   1
   4   3   2 12769.0 775.502   1
  -4  -3   2 13869.6 679.493   1
   4  -3  -2 13579.7 579.167   1
   4   3   3 3411.29 422.320   1
  -4  -3   3 3876.97 328.607   1
   4  -3  -3 3930.38 305.844   1
  -4  -3   4 25640.7 797.831   1
   4  -3  -4 26551.8 794.531   1
  -4  -3   5 5671.32 367.234   1
   4  -3  -5 4896.23 364.030   1
  -4  -3   6 25676.5 773.874   1
  -4  -3   7 624.549 133.954   1
   4  -3  -7 230.590 147.622   3
   4  -3  -8 20847.9 1194.51   3
  -4  -3   8 22371.7 768.210   1
   4  -3  -9 25548.5 1378.40   3
  -4  -3   9 25674.2 865.994   1
   4  -3 -10 2187.22 441.234   3
   4  -3 -11 4867.75 651.473   3
   4  -3 -12 2579.55 492.266   3
   4  -3 -13 2098.53 469.509   3
   4  -3 -14 1188.48 402.112   3
   4  -3 -15 723.465 334.419   2
   4  -3 -15 459.224 290.558   3
   4  -3 -16 492.595 270.939   3
   4  -3 -16 279.446 207.882   2
   4  -3 -17 834.706 374.476   2
   4  -3 -17 762.786 355.052   3
   4  -3 -18 273.009 265.091   2
   4  -3 -18 373.082 301.946   3
   4  -3 -19 1177.77 462.255   2
  -4   4  13 5931.97 556.612   1
  -4   4  12 603.220 196.611   1
  -4   4  11 2734.65 352.098   1
  -4   4  10 2050.53 290.965   1
  -4   4   9 7147.99 516.266   1
  -4   4   8 708.162 168.145   1
  -4   4   7 3711.40 344.822   1
  -4   4   6 2752.09 288.370   1
  -4   4   5 6012.01 420.358   1
  -4   4   4 21654.2 796.691   1
   4   4  -4 21569.9 805.013   1
   4   4  -3 5663.33 416.629   1
   4   4  -2 36269.4 1092.22   1
   4   4  -1 27311.8 987.838   1
   4   4   0 142090. 2380.26   1
   4   4   1 26827.2 1083.26   1
   4   4   2 35315.1 1336.40   1
  -4  -4   2 35715.9 1194.83   1
   4  -4  -2 35688.4 1058.71   1
  -4  -4   3 5208.46 441.183   1
   4   4   3 5955.75 574.167   1
   4  -4  -3 6767.58 463.459   1
   4  -4  -4 19979.7 812.442   1
   4   4   4 20834.6 1151.48   1
  -4  -4   4 22619.6 862.953   1
   4   4   5 5923.33 651.025   1
  -4  -4   5 6636.94 465.423   1
   4  -4  -5 6475.44 478.630   1
  -4  -4   6 2945.78 308.697   1
   4  -4  -6 2324.66 299.334   1
   4   4   6 3460.29 523.628   1
   4  -4  -9 7452.11 764.463   3
   4  -4 -10 2684.93 485.604   3
   4  -4 -11 2174.36 459.530   3
   4  -4 -12 743.801 329.814   3
   4  -4 -13 5536.96 753.692   3
   4  -4 -14 4712.45 726.974   3
   4  -4 -15 3941.80 700.560   3
   4  -4 -16 541.915 298.668   3
   4  -4 -17 489.281 306.066   3
   4  -4 -17 582.392 337.019   2
   4  -4 -18 209.742 191.207   2
   4  -4 -18 396.498 276.779   3
   4   4  19 184.288 271.187   1
  -4   5  12 7617.33 642.079   1
  -4   5  11 7768.92 624.344   1
  -4   5  10 72.2451 135.466   1
  -4   5   9 18703.2 899.486   1
  -4   5   8 3478.24 384.659   1
  -4   5   7 7797.46 551.211   1
   4  -5   6 210.702 51.8286   2
  -4   5   6 337.405 137.363   1
  -4   5   5 2037.66 283.873   1
   4   5  -5 1755.50 273.191   1
  -4   5   4 757.437 177.360   1
   4   5  -4 713.926 191.104   1
   4   5  -3 12960.5 713.265   1
   4   5  -2 7333.06 545.771   1
   4   5  -1 11639.8 713.611   1
   4   5   0 143664. 2571.88   1
   4   5   1 12399.2 788.833   1
   4   5   2 8389.81 674.525   1
   4   5   3 11461.2 831.080   1
   4   5   4 721.393 279.308   1
   4   5   5 1905.94 387.717   1
   4   5   6 363.984 203.796   1
   4   5   7 7182.56 781.661   1
   4   5   8 3352.30 563.757   1
   4   5   9 19011.0 1348.02   1
   4   5  10-0.71538 245.147   1
   4  -5 -10 23.4199 207.844   3
   4  -5 -11 8100.31 876.574   3
   4   5  11 8303.62 957.956   1
   4  -5 -12 8644.87 943.230   3
   4   5  12 7457.27 953.482   1
   4   5  13 1198.18 423.541   1
   4  -5 -13 1853.54 456.647   3
   4   5  14 2114.98 534.591   1
   4  -5 -14 1425.62 426.470   3
   4   5  15 40.6478 207.978   1
   4  -5 -15 818.989 359.169   3
   4   5  16 411.381 319.593   1
   4  -5 -16 69.6193 196.841   3
   4   5  17-70.3612 227.940   1
   4  -5 -17-16.2546 144.689   3
   4   5  18-480.280 342.685   1
   4  -5 -18 297.061 255.450   3
  -4   6  12 1528.16 314.117   1
  -4   6  11 329.405 158.122   1
  -4   6  10 3517.59 450.885   1
  -4   6   9 7972.11 638.589   1
  -4   6   8 13153.8 805.439   1
  -4   6   7 13311.6 788.335   1
   4  -6   7 12216.5 458.862   2
  -4   6   6 12698.9 779.987   1
   4   6  -5 11534.4 746.100   1
  -4   6   5 10471.7 692.580   1
   4   6  -4 13662.1 807.813   1
  -4   6   4 14320.8 809.313   1
  -4   6   3 1786.74 306.520   1
   4   6  -3 1812.60 313.602   1
   4   6  -2 41352.4 1404.14   1
   4   6  -1 1795.32 323.164   1
   4   6   0 1312.99 292.678   1
   4   6   1 1528.98 319.882   1
   4   6   2 38058.3 1522.78   1
   4   6   3 1647.86 312.279   1
   4   6   4 14979.8 1016.52   1
   4   6   5 9681.57 856.621   1
   4   6   6 13529.4 1053.68   1
   4   6   7 13612.7 1095.03   1
   4   6   8 12220.1 1062.54   1
   4   6   9 9201.83 962.916   1
   4   6  10 2878.10 571.857   1
   4   6  11 451.945 278.648   1
   4   6  12 1000.73 384.948   1
   4  -6 -12 2134.08 499.430   3
   4   6  13 453.515 288.894   1
   4  -6 -13 911.107 351.389   3
   4   6  14 743.602 348.077   1
   4  -6 -14 1197.31 404.753   3
   4   6  15 1256.03 470.474   1
   4  -6 -15 1630.81 457.951   3
   4   6  16 833.733 403.036   1
   4  -6 -16 980.163 390.737   3
   4   6  17-258.365 335.159   1
   4  -6 -17 381.109 277.151   3
   4  -6 -18 281.025 302.941   3
   4   6  18 409.379 286.557   1
  -4   7  12 1228.85 307.888   1
  -4   7  11 2768.67 427.465   1
  -4   7  10 2048.81 369.169   1
  -4   7   9 8966.60 725.742   1
  -4   7   8 9170.88 727.978   1
  -4   7   7 4362.25 503.350   1
  -4   7   6 23031.8 1118.10   1
   4   7  -5 2279.42 378.077   1
  -4   7   5 1937.28 327.749   1
   4   7  -4 2261.49 368.242   1
  -4   7   4 2060.61 341.510   1
  -4   7   3 11089.1 778.763   1
   4   7  -3 11252.6 813.221   1
   4   7  -2 10596.5 778.888   1
   4   7  -1 3988.34 493.717   1
   4   7   0 11375.8 836.420   1
   4   7   1 3660.66 500.964   1
   4   7   2 9241.01 798.816   1
   4   7   3 10335.8 875.559   1
   4   7   4 1386.84 365.172   1
   4   7   5 1857.65 411.380   1
   4   7   6 22311.3 1383.18   1
   4   7   7 3943.21 609.904   1
   4   7   8 9223.35 955.657   1
   4   7   9 8360.84 931.347   1
   4   7  10 1477.78 424.049   1
   4   7  11 3044.40 598.381   1
   4   7  12 891.547 387.350   1
   4   7  13 2448.71 570.969   1
   4  -7 -13 3553.84 648.944   3
   4   7  14-425.758 307.935   1
   4  -7 -14 83.3581 218.006   3
   4   7  15-331.351 287.501   1
   4  -7 -15 87.3618 197.514   3
   4   7  16-74.5140 241.902   1
   4  -7 -16 30.4880 189.173   3
   4   7  17-165.275 263.553   1
   4  -7 -17 161.251 232.280   3
   4  -7 -18 535.326 360.055   3
  -4   8  12 1225.49 312.698   1
  -4   8  11 2469.86 431.683   1
  -4   8  10 2697.66 446.292   1
  -4   8   9-87.0612 128.160   1
  -4   8   8 780.387 245.867   1
  -4   8   7 1582.55 344.787   1
  -4   8   6 17752.3 1062.03   1
   4   8  -5 8692.51 763.685   1
  -4   8   5 8569.34 742.044   1
  -4   8   4 23040.9 1203.85   1
   4   8  -4 22085.8 1202.99   1
  -4   8   3 6212.45 644.414   1
   4   8  -3 6638.57 670.479   1
   4   8  -2 38135.4 1570.03   1
   4   8  -1 13200.7 947.580   1
   4   8   0 302.262 210.405   1
   4   8   1 13977.8 998.392   1
   4   8   2 36624.4 1635.34   1
   4   8   3 7017.62 754.090   1
   4   8   4 22249.1 1348.51   1
   4   8   5 9380.96 904.454   1
   4   8   6 17849.6 1275.05   1
   4   8   7 1298.90 366.999   1
   4   8   8 437.198 285.974   1
   4   8   9 96.3460 163.551   1
   4   8  10 2345.63 525.985   1
   4   8  11 1610.06 484.252   1
   4   8  12 907.829 405.148   1
   4   8  13 1207.28 441.852   1
   4  -8 -14 3059.08 658.483   3
   4   8  14 3723.85 746.451   1
   4   8  15 235.916 273.019   1
   4  -8 -15 433.966 283.762   3
   4   8  16 1021.03 442.050   1
   4  -8 -16 637.018 377.629   3
   4  -8 -17-272.861 271.022   3
  -4   9  12 3171.49 524.288   1
  -4   9  11 1185.89 329.620   1
  -4   9  10 11616.4 952.897   1
  -4   9   9 194.071 158.355   1
  -4   9   8 14008.1 1030.05   1
  -4   9   7 2167.93 421.382   1
  -4   9   6 2628.82 441.787   1
  -4   9   5 2793.91 459.120   1
   4   9  -5 2977.13 481.531   1
   4   9  -4 2327.33 451.975   1
  -4   9   4 2098.94 407.472   1
  -4   9   3 11893.3 939.480   1
   4   9  -3 9792.31 857.416   1
   4   9  -2 13984.9 1033.93   1
   4   9  -1 2122.47 410.926   1
   4   9   0 7287.24 762.475   1
   4   9   1 2028.51 439.876   1
   4   9   2 13036.2 1044.11   1
   4   9   3 9258.52 899.458   1
   4   9   4 2501.51 473.152   1
   4   9   5 3445.24 593.584   1
   4   9   6 3680.76 619.974   1
   4   9   7 2719.85 543.875   1
   4   9   8 13442.4 1189.76   1
   4   9   9-17.7702 239.753   1
   4   9  10 11320.3 1151.29   1
   4   9  11 959.849 402.511   1
   4   9  12 3277.49 677.372   1
   4   9  13 1376.80 433.130   1
   4   9  14 601.499 338.117   1
   4   9  15 4.14245 222.462   1
   4  -9 -15 821.892 409.894   3
   4  -9 -16 407.699 357.225   3
  -4  10  11 1085.58 346.858   1
  -4  10  10 439.672 262.020   1
  -4  10   9 1827.99 419.801   1
  -4  10   8 855.893 302.751   1
  -4  10   7 371.040 237.256   1
  -4  10   6 105.357 152.347   1
  -4  10   5 3527.00 553.057   1
   4  10  -4 6266.39 725.318   1
  -4  10   4 6046.76 719.688   1
   4  10  -3 890.185 306.805   1
   4  10  -2 11820.2 1005.47   1
   4  10  -1 1980.65 450.923   1
   4  10   0 12190.2 1028.64   1
   4  10   1 2542.06 508.724   1
   4  10   2 11733.0 1031.28   1
   4  10   3 1835.95 451.579   1
   4  10   4 5544.74 743.689   1
   4  10   5 3841.96 639.739   1
   4  10   6 59.0754 211.732   1
   4  10   7 548.885 283.443   1
   4  10   8 813.669 302.626   1
   4  10   9 1694.32 490.616   1
   4  10  10 301.056 274.424   1
   4  10  11 882.363 390.324   1
   4  10  12 748.522 315.192   1
   4  10  13 343.943 290.392   1
   4  10  14 277.932 314.897   1
   4 -10 -15 2047.68 595.322   3
  -4  11  11 304.296 150.651   1
  -4  11  10 1861.69 456.656   1
  -4  11   9 445.929 241.358   1
  -4  11   8 987.751 325.522   1
  -4  11   7 44.1490 171.693   1
  -4  11   6 22.7532 178.221   1
  -4  11   5 1694.44 415.064   1
  -4  11   4-44.8609 190.987   1
   4  11  -4 258.694 189.221   1
   4  11  -3 1530.98 429.287   1
   4  11  -2 719.726 295.673   1
   4  11  -1 129.213 175.329   1
   4  11   0 8576.65 917.673   1
   4  11   1 9.44663 230.250   1
   4  11   2 598.180 250.204   1
   4  11   3 2103.09 477.385   1
   4  11   4 476.971 289.561   1
   4  11   5 1423.62 443.338   1
   4  11   6-77.4376 208.105   1
   4  11   7 133.213 249.769   1
   4  11   8 699.772 375.365   1
   4  11   9 815.636 358.085   1
   4  11  10 2861.58 617.202   1
   4  11  11 414.017 289.451   1
   4  11  12 114.421 232.102   1
  -4  12  11 435.007 236.302   1
  -4  12  10-5.26689 209.956   1
  -4  12   9 446.908 255.861   1
  -4  12   8 208.728 218.345   1
  -4  12   7 258.413 223.667   1
  -4  12   6 1880.57 466.634   1
  -4  12   5 2583.03 536.231   1
   4  12  -4 1992.70 471.934   1
   4  12  -3 2003.90 487.199   1
   4  12  -2 1887.07 465.147   1
   4  12  -1 2218.10 515.667   1
   4  12   0 354.663 277.221   1
   4  12   1 1573.00 447.536   1
   4  12   2 2682.55 562.798   1
   4  12   3 1606.71 442.085   1
   4  12   4 2885.17 595.757   1
   4  12   5 1629.04 482.464   1
   4  12   6 2723.26 593.268   1
   4  12   7 251.314 276.893   1
   4  12   8 892.850 378.440   1
   4  12   9 214.272 222.605   1
   4  12  10 412.177 274.697   1
  -4  13  10 177.612 216.530   1
  -4  13   9 248.264 237.856   1
  -4  13   8-82.9866 151.726   1
  -4  13   7 352.756 252.657   1
  -4  13   6 4113.24 718.906   1
   4  13  -3 1729.30 477.570   1
   4  13  -2 1105.52 391.308   1
   4  13  -1 132.084 217.971   1
   4  13   0 283.377 253.177   1
   4  13   1 474.268 312.952   1
   4  13   2 1294.51 412.867   1
   4  13   3 1752.87 510.625   1
   4  13   4 77.3152 219.391   1
   4  13   5 139.287 224.954   1
   4  13   6 3356.05 683.436   1
   4  13   7 150.367 213.999   1
   4  13   8 409.618 316.022   1
  -4  14   9 151.977 218.178   1
  -4  14   8-28.0915 177.561   1
  -4  14   7 1768.53 516.079   1
   4  14  -3-339.263 276.645   1
   4  14  -2 354.435 298.422   1
   4  14  -1 313.519 317.426   1
   4  14   0 101.696 249.275   1
   4  14   1 238.724 176.727   1
   4  14   2 385.509 332.429   1
   4  14   3 80.8406 252.482   1
   4  14   4-362.935 307.340   1
   5   0   0 306.544 146.333   3
  -5   0   0 388.435 125.252   2
  -5   0   0 225.691 105.468   3
  -5   0  -1 36.6477 59.5444   2
   5   0   1-52.1737 87.6631   3
   5   0  -1-75.3733 117.148   3
  -5   0  -1 6.36163 53.8716   3
   5   0   2 18405.6 777.629   3
   5   0  -2 19369.8 979.607   3
   5   0  -2 19283.1 881.667   2
  -5   0  -2 20242.3 724.070   2
   5   0  -3 19361.6 445.756   1
   5   0   3 20038.7 758.824   3
   5   0  -3 20203.2 1058.15   3
   5   0  -3 20834.3 962.253   2
   5   0  -4 330.742 143.522   2
   5   0  -4 1128.95 289.701   3
   5   0   4 759.310 135.173   3
   5   0  -5 7754.12 721.728   3
   5   0  -5 8345.53 683.591   2
   5   0  -6 35968.7 1583.44   3
   5   0  -6 33740.0 1419.69   2
   5   0  -7 489.296 238.746   2
   5   0  -7 655.348 274.905   3
   5   0  -8 60302.4 2201.89   3
   5   0  -8 65051.2 2117.47   2
   5   0  -9 593.766 252.299   2
   5   0  -9 561.931 275.064   3
   5   0 -10 188.214 193.231   2
  -5   0  10 480.804 80.6715   1
  -5   0  10 541.518 78.9978   1
   5   0 -10 351.567 191.791   3
   5   0 -11-16.6173 186.332   2
  -5   0  11 47.3767 33.4923   1
   5   0 -11 36.6103 204.937   3
   5   0 -12 5732.57 743.410   2
   5   0 -12 4853.46 723.312   3
   5   0 -13 2701.15 544.572   2
   5   0 -13 3180.62 617.142   3
   5   0 -14 1226.05 391.260   2
   5   0 -14 790.953 337.690   3
   5   0 -15 749.591 309.588   2
   5   0 -15 1040.51 376.492   3
   5   0 -16 1567.09 479.655   2
   5   0 -16 552.918 256.100   3
   5   0 -17-58.9649 213.503   3
   5   0 -17-0.89874 182.195   2
   5   0 -18 577.298 344.023   2
   5   0 -18 1088.81 449.547   3
   5   0 -19 370.487 308.234   2
   5   1 -19-372.416 285.865   2
   5   1 -18 1377.51 453.411   2
   5   1 -17-224.627 234.538   2
   5   1 -16 1261.85 409.264   2
   5   1 -16 1427.46 439.684   3
   5   1 -15 478.274 282.188   2
   5   1 -15 1368.87 429.671   3
   5   1 -14 338.554 231.816   2
   5   1 -14-33.6207 181.938   3
   5   1 -13 5565.30 750.949   2
   5   1 -13 6755.15 866.506   3
   5   1 -12 29410.7 1757.95   3
   5   1 -12 28391.9 1633.03   2
   5   1 -11 1850.71 416.574   2
   5   1 -11 1768.56 429.743   3
  -5   1  11 2367.89 213.889   1
   5   1 -10 14768.0 1176.31   3
  -5   1  10 12860.7 414.896   1
   5   1 -10 14936.0 1117.56   2
   5   1  -9 4334.65 594.894   2
   5   1  -9 4209.15 623.570   3
   5   1  -8 4253.74 558.868   2
   5   1  -8 4042.97 591.899   3
   5   1  -7 24433.4 1376.22   3
   5   1  -7 28863.9 1374.75   2
   5   1  -6 1849.62 352.840   2
   5  -1   6 2015.30 162.033   3
   5   1  -6 2600.21 431.985   3
   5  -1   5 30216.0 756.647   3
   5   1  -5 31450.1 1317.96   2
  -5  -1  -5 31896.5 726.593   3
   5   1  -5 32564.8 1478.25   3
   5  -1   4 13360.3 559.384   3
   5   1  -4 12485.7 891.720   3
  -5  -1  -4 12720.9 536.452   3
   5   1  -4 13142.1 829.501   2
   5  -1   3 4438.43 357.133   3
  -5  -1  -3 5124.10 376.066   3
   5   1  -3 4855.53 242.588   1
   5   1  -3 4431.73 516.149   3
   5   1  -2 32392.2 818.051   1
   5   1  -2 33394.6 1323.05   3
   5  -1   2 32589.1 1012.15   3
  -5  -1  -2 33074.0 1034.41   3
   5   1  -1 16607.9 895.796   3
  -5  -1  -1 16501.4 779.237   3
   5  -1   1 17424.3 783.906   3
   5  -1   0 7921.26 563.629   3
   5   1   0 6533.50 537.312   3
   5  -1   0 7730.10 476.856   2
   5   1   1 16856.0 808.953   3
   5  -1  -1 16675.2 852.561   3
   5  -1  -1 17957.7 788.855   2
  -5   1  -2 32793.5 829.889   2
   5  -1  -2 32821.6 1249.50   3
   5  -1  -2 34986.4 1176.62   2
   5  -1  -3 4911.94 522.028   3
   5  -1  -3 4559.94 222.363   1
   5  -1  -3 4371.64 438.701   2
  -5   1  -3 4504.97 275.417   2
   5  -1  -4 13031.9 864.356   3
  -5   1  -4 13256.8 431.034   2
   5  -1  -4 12943.4 797.902   2
   5  -1  -5 33083.7 1421.22   3
  -5   1  -5 29537.3 585.918   2
   5  -1  -5 30558.3 1273.32   2
   5  -1  -6 2248.55 386.433   2
   5  -1  -6 1935.01 386.303   3
   5  -1  -7 26834.8 1390.79   3
   5  -1  -7 26161.3 1283.94   2
   5  -1  -8 4529.88 614.866   3
   5  -1  -8 4773.79 584.591   2
   5  -1  -9 4197.84 575.216   2
   5  -1  -9 4641.58 628.282   3
  -5  -1   9 4144.21 188.802   1
   5  -1 -10 15077.2 1173.70   3
  -5  -1  10 13301.4 419.341   1
   5  -1 -10 15376.0 1115.05   2
  -5   1 -11 2382.40 241.672   2
   5  -1 -11 1840.78 405.474   2
   5  -1 -11 2204.94 509.814   3
   5  -1 -12 30216.9 1767.03   3
   5  -1 -12 31930.4 1714.52   2
   5  -1 -13 5921.79 782.323   2
   5  -1 -13 6216.60 837.769   3
   5  -1 -14 563.709 315.990   2
   5  -1 -14 261.185 237.840   3
   5  -1 -15 503.104 275.513   2
   5  -1 -15 949.952 378.575   3
   5  -1 -16 745.753 340.351   2
   5  -1 -16 1280.34 458.494   3
   5  -1 -17 185.064 288.868   2
   5  -1 -17 253.074 273.732   3
   5  -1 -18 1686.91 520.802   2
   5  -1 -18 1820.53 558.872   3
   5  -1 -19 99.1533 195.936   2
   5  -1 -19 36.5685 209.429   3
   5   2 -19 263.960 234.829   2
   5   2 -18-206.789 275.131   2
   5   2 -17 431.311 296.785   2
   5   2 -16 3630.03 665.728   2
   5   2 -15 669.790 300.794   2
   5   2 -14 823.077 322.589   2
   5   2 -13 32.2725 196.975   2
   5   2 -12 11184.8 1093.55   3
   5   2 -12 9592.33 953.355   2
   5   2 -11 2149.34 423.754   2
   5   2 -11 1314.71 375.076   3
  -5   2  11 1566.39 193.569   1
   5   2 -10 4292.82 602.405   2
   5   2 -10 3273.75 575.484   3
  -5   2  10 4828.06 300.907   1
   5   2  -9 609.198 224.772   2
   5   2  -9 712.720 297.805   3
  -5   2   9 608.934 101.396   1
   5   2  -8 3426.95 508.983   2
   5   2  -8 2298.25 455.870   3
  -5   2   8 3457.28 205.602   1
   5   2  -7 18424.0 1201.10   3
  -5  -2  -7 16770.2 494.264   3
   5  -2   7 16583.0 481.412   3
   5   2  -7 17625.8 1088.01   2
   5   2  -6 20075.0 1223.95   3
  -5  -2  -6 18674.0 616.321   3
   5   2  -5 20262.5 1193.15   3
  -5  -2  -5 20990.1 738.259   3
   5   2  -4 9191.28 773.317   3
  -5  -2  -4 9103.34 525.446   3
   5   2  -4 8826.47 357.142   1
   5   2  -3 3583.85 474.953   3
  -5  -2  -3 3361.05 340.746   3
   5   2  -3 3167.30 243.404   1
  -5  -2  -2 16774.8 803.355   3
   5   2  -2 16104.9 607.420   1
   5   2  -2 16094.2 951.466   3
   5  -2   1 1070.80 164.734   2
   5   2  -1 1256.37 200.715   1
   5   2   0 172983. 2505.62   1
   5  -2   0 171135. 2588.18   3
   5  -2   0 172291. 2236.64   2
   5  -2  -1 1377.01 230.474   2
   5  -2  -1 1036.16 244.082   3
   5  -2  -2 16960.5 807.547   2
   5  -2  -2 15669.7 572.824   1
   5  -2  -2 15428.3 850.926   3
   5  -2  -3 2792.90 361.858   2
   5  -2  -3 2785.82 402.563   3
   5  -2  -3 3078.42 229.359   1
   5  -2  -4 10575.4 722.825   2
   5  -2  -4 8735.41 704.359   3
   5  -2  -4 9310.80 369.554   1
   5  -2  -5 20241.9 1055.09   2
   5  -2  -5 20052.3 538.776   1
   5  -2  -5 22385.3 1179.14   3
   5  -2  -6 19217.3 1075.89   2
   5  -2  -6 20454.5 1164.97   3
  -5  -2   6 19070.9 515.765   1
   5  -2  -7 17576.1 1082.16   2
   5  -2  -7 19846.1 1202.66   3
  -5  -2   7 17635.0 478.379   1
   5  -2  -8 3200.48 505.382   2
  -5  -2   8 3417.72 219.890   1
   5  -2  -8 2573.71 474.638   3
  -5  -2   9 734.279 113.601   1
   5  -2  -9 946.268 317.514   2
   5  -2  -9 557.735 251.737   3
   5  -2 -10 4721.89 644.733   2
   5  -2 -10 4427.88 652.864   3
   5  -2 -11 1127.60 360.556   2
   5  -2 -11 1899.56 458.662   3
   5  -2 -12 11971.5 1077.61   2
   5  -2 -12 12167.4 1120.99   3
   5  -2 -13 79.0678 213.532   2
   5  -2 -13 157.832 201.246   3
   5  -2 -14 605.119 338.430   3
   5  -2 -14 289.695 215.975   2
   5  -2 -15 238.851 151.129   2
   5  -2 -15 335.521 185.892   3
   5  -2 -16 3601.61 700.905   2
   5  -2 -16 2858.02 647.600   3
   5  -2 -17 348.778 301.067   2
   5  -2 -17 166.271 185.027   3
   5  -2 -18 646.516 340.135   2
   5  -2 -18 546.378 279.806   3
   5  -2 -19-2.17944 160.594   3
  -5   3  11 121.191 70.1333   1
  -5   3  10 24875.7 798.101   1
  -5  -3  -9 1862.24 186.459   3
  -5   3   9 2208.28 226.801   1
  -5  -3  -8 16408.1 619.709   3
  -5   3   8 18416.4 619.047   1
  -5  -3  -7 3882.20 324.628   3
  -5   3   7 4003.61 286.494   1
  -5  -3  -6 18574.0 762.157   3
  -5  -3  -5 5350.94 430.317   3
  -5  -3  -4 24121.3 964.062   3
   5   3  -4 26339.1 779.563   1
   5   3  -3 7753.46 440.622   1
  -5  -3  -3 6843.18 539.919   3
   5  -3   3 7644.18 310.958   2
   5   3  -2 7089.29 455.518   1
   5  -3   2 7178.55 375.757   2
   5  -3   1 120431. 1740.68   2
   5   3  -1 126334. 2052.52   1
   5   3   0 96577.5 1950.99   1
   5  -3  -1 122255. 1939.74   1
   5   3   1 130637. 2442.54   1
   5   3   2 6557.47 595.446   1
   5  -3  -2 7367.26 444.080   1
   5  -3  -3 8111.99 442.108   1
   5  -3  -4 24653.3 758.832   1
  -5  -3   4 26503.5 873.183   1
   5  -3  -5 5515.01 359.451   1
   5  -3  -5 5688.07 602.924   3
  -5  -3   5 5815.50 385.195   1
  -5  -3   6 17948.9 645.581   1
   5  -3  -6 18140.8 685.448   1
   5  -3  -6 18210.1 1119.48   3
  -5  -3   7 3896.34 297.612   1
   5  -3  -7 3608.30 523.253   3
   5  -3  -8 16597.2 1131.20   3
  -5  -3   8 17480.7 633.666   1
  -5  -3   9 1975.11 225.785   1
   5  -3  -9 2456.62 471.064   3
   5  -3 -10 25303.1 1519.72   3
   5  -3 -11 369.495 269.444   3
   5  -3 -12 2002.84 469.181   2
   5  -3 -12 1522.24 449.259   3
   5  -3 -13 1087.52 348.133   2
   5  -3 -13 1003.92 393.177   3
   5  -3 -14 2067.06 495.952   2
   5  -3 -14 2086.02 497.877   3
   5  -3 -15 46.3398 224.520   2
   5  -3 -15-188.273 223.167   3
   5  -3 -16 642.745 311.871   2
   5  -3 -16 201.933 187.257   3
   5  -3 -17 47.5565 175.548   2
   5  -3 -17-675.083 349.531   3
   5  -3 -18 565.732 358.518   3
   5  -3 -18-329.949 269.837   2
   5  -3 -19-234.984 244.373   3
  -5   4  11 166.929 98.5100   1
  -5   4  10 6416.90 465.777   1
  -5   4   9 5092.40 400.677   1
  -5   4   8 1525.03 221.605   1
  -5   4   7 4146.22 349.243   1
  -5   4   6 36411.2 1013.58   1
   5   4  -5 22596.6 829.003   1
   5   4  -4 6569.39 457.661   1
   5  -4   4 5132.42 206.210   2
   5  -4   3 20176.8 568.696   2
   5   4  -3 20056.9 804.293   1
   5   4  -2 1361.84 234.921   1
   5   4  -1 76907.4 1746.18   1
   5   4   0 29598.8 1135.27   1
   5   4   1 72567.5 1911.52   1
   5   4   2 1672.79 323.985   1
  -5  -4   3 20127.8 913.271   1
   5  -4  -3 21226.8 823.459   1
   5   4   3 19956.7 1106.99   1
   5   4   4 6735.84 689.467   1
  -5  -4   4 6587.05 494.112   1
   5  -4  -4 5653.90 429.945   1
   5   4   5 18268.9 1170.87   1
  -5  -4   5 20095.1 833.164   1
   5  -4  -5 19775.5 801.857   1
   5  -4  -6 33472.1 1095.13   1
  -5  -4   6 35321.6 1072.97   1
  -5  -4   7 4361.80 376.202   1
   5  -4  -7 5628.86 662.525   3
   5  -4  -8 1034.11 290.920   3
  -5  -4   8 1557.73 224.924   1
   5  -4  -9 5648.92 713.829   3
   5  -4 -10 4922.80 691.406   3
   5  -4 -11 307.637 256.169   3
   5  -4 -12 542.810 252.672   3
   5  -4 -13 4873.64 746.614   3
   5  -4 -14 2097.59 517.177   3
   5  -4 -15-169.671 243.405   2
   5  -4 -15 401.621 239.944   3
   5  -4 -16 142.694 190.030   2
   5  -4 -16 318.516 279.438   3
   5  -4 -17 1026.13 400.711   3
   5  -4 -17 1030.03 390.301   2
   5  -4 -18 433.120 275.149   3
   5  -4 -18 252.902 235.649   2
   5  -4 -19 146.496 214.040   3
  -5   5  11 4670.49 447.052   1
  -5   5  10 6832.51 531.331   1
  -5   5   9 3975.17 404.163   1
  -5   5   8 156.471 119.536   1
  -5   5   7 7231.82 517.272   1
  -5   5   6 1335.44 228.411   1
   5   5  -5 7787.23 553.023   1
   5   5  -4 5653.53 472.703   1
   5   5  -3 868.175 196.079   1
   5   5  -2 56457.1 1546.48   1
   5   5  -1 9738.96 670.654   1
   5   5   0 5170.95 522.968   1
   5   5   1 11404.9 788.620   1
   5   5   2 56692.4 1824.73   1
   5   5   3 1106.73 296.936   1
   5   5   4 5338.27 623.402   1
   5   5   5 7165.43 749.504   1
   5   5   6 1309.09 361.105   1
   5   5   7 7880.34 845.632   1
   5   5   8 77.5148 287.874   1
   5   5   9 2514.61 531.733   1
   5  -5  -9 3401.06 580.015   3
   5   5  10 7676.02 925.097   1
   5  -5 -10 8166.42 899.371   3
   5   5  11 5372.74 815.072   1
   5  -5 -11 3744.85 631.022   3
   5   5  12 627.042 345.676   1
   5  -5 -12 394.491 280.268   3
   5   5  13 1517.02 489.057   1
   5  -5 -13 799.946 320.867   3
   5   5  14 205.598 245.100   1
   5  -5 -14-166.117 265.434   3
   5   5  15 258.841 301.368   1
   5  -5 -15 331.596 251.246   3
   5   5  16-60.4221 257.264   1
   5  -5 -16-282.089 251.244   3
   5   5  17 178.160 237.278   1
   5  -5 -17 564.483 316.720   2
   5  -5 -17 256.620 297.852   3
   5  -5 -18-30.8589 154.372   3
   5  -5 -19 1925.37 600.817   3
  -5   6  11 3856.27 451.067   1
  -5   6  10 2251.81 339.453   1
  -5   6   9 1754.20 307.528   1
  -5   6   8 9884.83 678.612   1
  -5   6   7 1146.97 261.578   1
  -5   6   6 7370.72 580.244   1
   5   6  -5 2298.06 344.256   1
  -5   6   5 2473.65 343.946   1
   5   6  -4 566.610 189.163   1
   5   6  -3 24098.5 1069.03   1
   5   6  -2 1982.82 334.409   1
   5   6  -1 10062.3 727.783   1
   5   6   0 714.876 226.135   1
   5   6   1 9587.35 768.326   1
   5   6   2 1818.77 379.679   1
   5   6   3 23630.2 1280.66   1
   5   6   4 520.104 261.223   1
   5   6   5 2695.19 501.729   1
   5   6   6 6281.00 754.518   1
   5   6   7 1064.50 356.408   1
   5   6   8 7712.75 893.237   1
   5   6   9 1235.43 396.183   1
   5   6  10 3220.64 628.799   1
   5   6  11 4000.69 721.780   1
   5  -6 -11 4135.85 685.117   3
   5   6  12 134.414 233.491   1
   5  -6 -12 129.371 191.012   3
   5   6  13-254.863 303.433   1
   5  -6 -13 75.8726 234.044   3
   5   6  14 3348.39 713.545   1
   5  -6 -14 3243.95 658.244   3
   5   6  15 2322.30 592.101   1
   5  -6 -15 3072.60 667.287   3
   5   6  16 29.4682 233.919   1
   5  -6 -16-1.01850 198.132   3
   5   6  17 1703.30 562.770   1
   5  -6 -17 1329.94 470.609   3
   5  -6 -18 47.0195 199.924   3
  -5   7  10 5436.61 567.299   1
  -5   7   9 3443.02 453.226   1
  -5   7   8 25600.5 1179.86   1
  -5   7   7 39147.5 1451.90   1
  -5   7   6 1205.10 286.316   1
  -5   7   5 638.320 203.537   1
   5   7  -5 435.257 191.690   1
   5   7  -4 11906.1 824.414   1
   5   7  -3 10732.2 788.904   1
   5   7  -2 748.736 236.531   1
   5   7  -1 9695.62 771.810   1
   5   7   0 654.868 228.089   1
   5   7   1 8664.66 772.347   1
   5   7   2 713.272 253.045   1
   5   7   3 10356.1 880.873   1
   5   7   4 11481.0 953.549   1
   5   7   5 762.278 300.472   1
   5   7   6 1191.81 387.175   1
   5   7   7 39502.5 1940.78   1
   5   7   8 26372.9 1648.60   1
   5   7   9 3423.45 622.948   1
   5   7  10 4854.57 748.507   1
   5   7  11 12616.8 1256.55   1
   5   7  12 1056.15 424.481   1
   5  -7 -12 1937.28 512.956   3
   5   7  13 851.691 384.837   1
   5  -7 -13 677.557 304.980   3
   5   7  14 1726.77 571.172   1
   5  -7 -14 1342.00 447.677   3
   5   7  15-312.845 340.796   1
   5  -7 -15 82.4269 219.459   3
   5   7  16-298.858 318.442   1
   5  -7 -16 173.668 236.563   3
   5  -7 -17 700.274 360.330   3
   5  -7 -18 148.214 258.200   3
  -5   8  10 1717.53 349.382   1
  -5   8   9 1434.15 334.337   1
  -5   8   8 1124.70 277.138   1
  -5   8   7 1925.22 373.632   1
  -5   8   6 4721.30 553.824   1
   5   8  -5 15448.4 1015.92   1
  -5   8   5 17275.5 1052.20   1
   5   8  -4 4286.18 534.763   1
   5   8  -3 28486.4 1374.14   1
   5   8  -2 1123.30 299.093   1
   5   8  -1 3615.94 512.965   1
   5   8   0 6342.23 685.470   1
   5   8   1 3507.56 523.355   1
   5   8   2 970.289 325.441   1
   5   8   3 26919.5 1486.49   1
   5   8   4 4969.39 676.354   1
   5   8   5 18515.7 1300.29   1
   5   8   6 4243.80 652.095   1
   5   8   7 1093.76 378.502   1
   5   8   8 1101.55 396.846   1
   5   8   9 879.357 344.398   1
   5   8  10 1725.78 494.022   1
   5   8  11 1309.53 446.431   1
   5   8  12 989.084 386.249   1
   5   8  13 285.795 293.126   1
   5  -8 -13 939.355 410.032   3
   5   8  14 614.480 370.502   1
   5  -8 -14 448.031 282.359   3
   5   8  15 307.103 282.250   1
   5  -8 -15 139.142 225.078   3
   5  -8 -16 66.2780 207.689   3
  -5   9  10 785.102 280.217   1
  -5   9   9 388.609 223.467   1
  -5   9   8 49.9720 159.483   1
  -5   9   7 564.224 241.894   1
  -5   9   6 1947.48 399.103   1
   5   9  -5 2993.62 499.106   1
   5   9  -4 6248.32 700.340   1
   5   9  -3 8400.75 808.996   1
   5   9  -2 3628.03 552.226   1
   5   9  -1 15093.0 1082.01   1
   5   9   0 6118.41 708.574   1
   5   9   1 15930.5 1149.22   1
   5   9   2 3530.42 557.002   1
   5   9   3 8618.20 890.934   1
   5   9   4 5244.01 703.623   1
   5   9   5 2733.13 542.943   1
   5   9   6 2027.27 451.124   1
   5   9   7 88.7929 208.913   1
   5   9   8 17.8238 221.892   1
   5   9   9 140.056 208.978   1
   5   9  10 1019.21 393.103   1
   5   9  11 783.116 319.631   1
   5   9  12-127.962 244.210   1
   5   9  13 363.210 314.416   1
   5   9  14 1212.21 482.485   1
   5  -9 -14 960.558 437.733   3
   5  -9 -15 603.265 383.949   3
  -5  10  10 355.910 199.050   1
  -5  10   9-105.377 139.787   1
  -5  10   8 177.998 183.672   1
  -5  10   7 3482.84 553.858   1
  -5  10   6 1379.40 353.402   1
   5  10  -5 3442.68 575.948   1
   5  10  -4 267.776 184.026   1
   5  10  -3 8679.71 862.984   1
   5  10  -2 1306.83 365.660   1
   5  10  -1 1185.72 372.407   1
   5  10   0 514.892 239.339   1
   5  10   1 1139.54 365.664   1
   5  10   2 1552.42 402.061   1
   5  10   3 8723.08 925.832   1
   5  10   4 11.8911 155.875   1
   5  10   5 4735.06 721.833   1
   5  10   6 1042.74 375.177   1
   5  10   7 3474.78 639.388   1
   5  10   8 14.1123 241.591   1
   5  10   9 351.902 262.747   1
   5  10  10 986.076 414.429   1
   5  10  11 525.670 321.006   1
   5  10  12-345.215 296.476   1
   5  10  13 2499.90 644.169   1
  -5  11   9 3712.83 607.147   1
  -5  11   8 1407.67 411.346   1
  -5  11   7 100.300 144.601   1
   5  11  -5 339.707 226.833   1
   5  11  -4 417.639 256.397   1
   5  11  -3 1510.37 398.589   1
   5  11  -2 654.372 299.560   1
   5  11  -1 2366.98 515.676   1
   5  11   0 2686.32 551.289   1
   5  11   1 1517.89 418.229   1
   5  11   2 265.073 189.501   1
   5  11   3 1218.96 392.082   1
   5  11   4 37.8015 179.606   1
   5  11   5 646.555 316.045   1
   5  11   6 639.594 352.775   1
   5  11   7 556.508 301.441   1
   5  11   8 2186.98 575.539   1
   5  11   9 4257.00 761.033   1
   5  11  10 567.886 318.939   1
   5  11  11 1176.58 412.578   1
  -5  12   9 129.221 188.116   1
  -5  12   8 124.070 195.701   1
  -5  12   7 1646.05 435.801   1
   5  12  -4 143.312 180.495   1
   5  12  -3 961.218 375.277   1
   5  12  -2 718.716 359.761   1
   5  12  -1 970.666 352.899   1
   5  12   0 1040.05 367.193   1
   5  12   1 618.584 319.177   1
   5  12   2 943.558 361.211   1
   5  12   3 704.176 320.969   1
   5  12   4 395.100 338.424   1
   5  12   5 155.304 232.549   1
   5  12   6 445.846 321.818   1
   5  12   7 2048.60 552.610   1
   5  12   8-95.1716 189.895   1
   5  12   9 428.655 321.124   1
  -5  13   9 702.828 350.023   1
  -5  13   8 425.939 272.093   1
   5  13  -4 579.484 319.423   1
   5  13  -3 239.001 273.846   1
   5  13  -2 813.859 365.078   1
   5  13  -1 2818.88 594.148   1
   5  13   0 77.5375 204.625   1
   5  13   1 2614.33 617.310   1
   5  13   2 1062.75 396.201   1
   5  13   3-19.1859 207.618   1
   5  13   4 695.519 345.535   1
   5  13   5 75.2506 241.750   1
   5  13   6 1005.31 425.886   1
   5  13   7 2263.48 609.177   1
   5  14  -3-176.691 249.547   1
   5  14  -2 2149.57 580.238   1
   5  14  -1 90.4486 212.301   1
   5  14   0 248.974 224.870   1
   5  14   1 17.8515 237.026   1
   5  14   2 1942.84 577.456   1
   5  14   3-215.473 268.860   1
   6   0   0 27305.2 1170.55   3
  -6   0  -1 959.087 194.226   2
   6   0   1 993.861 241.320   3
   6   0  -1 706.879 186.738   3
   6   0  -2 15467.9 953.047   3
   6   0   2 15754.9 807.852   3
  -6   0  -2 16773.8 740.903   2
   6   0   3 3471.80 369.453   3
   6   0  -3 4306.36 556.992   3
   6   0  -3 3778.09 469.916   2
  -6   0  -3 3213.52 314.543   2
   6   0  -4 1241.76 284.810   2
   6   0   4 1664.79 233.915   3
   6   0  -4 2266.60 407.815   3
  -6   0  -4 1861.71 225.933   2
   6   0  -5 169.686 169.573   2
   6   0  -5 494.767 242.348   3
   6   0  -6 33506.8 1623.23   3
   6   0  -6 33691.2 1509.11   2
   6   0  -7 19658.1 1292.95   3
   6   0  -7 19346.0 1193.63   2
   6   0  -8 1875.50 435.803   2
   6   0  -8 1260.66 375.614   3
   6   0  -9 1009.00 322.522   2
   6   0  -9 655.287 288.450   3
   6   0 -10 4912.08 719.384   3
   6   0 -10 6004.50 729.140   2
   6   0 -11 4487.49 671.274   2
   6   0 -11 4872.66 732.790   3
   6   0 -12 2227.98 511.806   2
   6   0 -12 1563.76 486.314   3
   6   0 -13 1322.79 399.402   2
   6   0 -13 1625.56 498.401   3
   6   0 -14 1670.26 467.940   2
   6   0 -14 770.140 329.326   3
   6   0 -15 659.053 326.544   2
   6   0 -15 619.388 305.533   3
   6   0 -16 830.722 311.134   2
   6   0 -16 293.076 246.975   3
   6   0 -17 713.236 356.644   2
   6   0 -17 463.092 278.460   3
   6   0 -18 1845.89 550.844   2
   6   0 -18 2946.25 700.306   3
   6   1 -18 299.680 214.593   2
   6   1 -17 890.357 402.245   2
   6   1 -16 1036.14 413.998   2
   6   1 -16 1517.65 504.941   3
   6   1 -15 2832.78 581.896   2
   6   1 -15 1836.45 503.013   3
   6   1 -14 2957.00 597.890   2
   6   1 -14 2356.16 568.937   3
   6   1 -13 4073.77 696.657   3
   6   1 -13 6429.89 846.528   2
   6   1 -12 365.333 254.368   2
   6   1 -12 379.763 286.723   3
   6   1 -11 7490.34 898.620   3
   6   1 -11 7944.75 875.132   2
   6   1 -10 67.2734 223.490   2
   6   1 -10 188.820 206.211   3
   6   1  -9 19396.0 1385.34   3
   6   1  -9 16895.4 1192.68   2
   6   1  -8 331.267 207.578   2
   6   1  -8 193.259 166.540   3
   6   1  -7 826.480 273.337   2
   6   1  -7 785.221 283.246   3
   6  -1   6 20375.0 650.020   3
   6   1  -6 19152.4 1250.78   3
   6   1  -6 20964.6 1190.67   2
   6  -1   5 12709.7 592.005   3
   6   1  -5 12923.4 992.988   3
   6   1  -5 11587.9 863.895   2
  -6  -1  -4 1835.90 232.529   3
   6   1  -4 1713.06 372.953   3
   6  -1   4 1640.71 236.641   3
   6   1  -4 1559.40 112.534   1
   6  -1   3 12444.1 672.206   3
  -6  -1  -3 11633.1 632.047   3
   6   1  -3 12034.9 443.057   1
   6   1  -3 11168.9 865.662   3
   6   1  -2 11859.4 556.219   1
   6  -1   2 12105.8 696.943   3
   6   1  -2 11809.5 857.665   3
   6  -1   1 26633.7 1084.71   3
   6   1  -1 26675.9 1241.31   3
   6   1   0 28450.4 1208.64   3
   6  -1   0 28425.3 1165.56   3
   6   1   1 28981.2 1169.78   3
   6  -1  -1 28497.6 1218.53   3
   6  -1  -1 29033.2 1083.07   2
  -6   1  -2 11398.4 560.379   2
   6   1   2 11386.3 698.294   3
   6  -1  -2 11935.4 828.999   3
   6  -1  -2 10951.6 706.157   2
  -6   1  -3 12425.7 535.992   2
   6  -1  -3 11535.9 836.585   3
   6  -1  -3 12265.9 789.002   2
   6  -1  -4 1871.79 335.590   2
   6  -1  -4 2267.02 400.151   3
  -6   1  -4 1507.90 171.103   2
   6  -1  -5 11753.7 913.682   3
   6  -1  -5 12889.8 889.129   2
  -6   1  -5 12645.3 450.397   2
   6  -1  -6 22650.7 1319.68   3
  -6   1  -6 18982.7 506.997   2
   6  -1  -6 21504.3 1182.62   2
  -6   1  -7 627.402 89.3278   2
   6  -1  -7 131.992 187.434   2
   6  -1  -7 350.332 191.348   3
   6  -1  -8 361.789 215.095   2
   6  -1  -8 100.939 141.538   3
   6  -1  -9 19106.6 1338.30   3
   6  -1  -9 18143.1 1228.10   2
   6  -1 -10 210.935 253.624   2
   6  -1 -10 332.730 198.630   3
   6  -1 -11 7018.52 872.952   3
   6  -1 -11 7823.45 874.371   2
   6  -1 -12 248.880 234.416   2
   6  -1 -12 162.129 199.097   3
   6  -1 -13 5788.05 784.678   2
   6  -1 -13 4630.61 747.505   3
   6  -1 -14 3104.82 604.693   2
   6  -1 -14 3005.75 640.497   3
   6  -1 -15 2784.24 591.642   2
   6  -1 -15 1910.61 509.444   3
   6  -1 -16 1349.51 434.811   2
   6  -1 -16 940.064 406.980   3
   6  -1 -17 1723.90 529.710   2
   6  -1 -17 1122.19 450.917   3
   6  -1 -18 646.385 370.918   2
   6  -1 -18 132.783 224.640   3
   6  -1 -19 283.539 310.676   3
   6   2 -18 283.201 266.331   2
   6   2 -17 409.648 261.590   2
   6   2 -16 187.293 185.605   2
   6   2 -15 51.0471 253.076   2
   6   2 -14 2206.03 512.065   2
   6   2 -13 3502.62 620.744   2
   6   2 -12 2607.81 557.198   2
   6   2 -12 2434.64 577.734   3
   6   2 -11 4044.46 630.023   2
   6   2 -11 3829.43 663.220   3
   6   2 -10 4527.88 646.812   2
   6   2 -10 3330.57 629.374   3
   6   2  -9 739.295 281.685   3
   6   2  -9 1078.90 325.974   2
   6  -2   8 665.493 86.7916   3
   6   2  -8 877.879 330.605   3
   6   2  -7 7658.90 829.941   3
   6  -2   7 7195.23 374.688   3
  -6  -2  -7 7739.24 369.958   3
   6   2  -6 546.764 260.336   3
  -6  -2  -6 540.264 117.207   3
   6  -2   6 723.007 139.202   3
   6   2  -5 26248.8 1434.49   3
  -6  -2  -5 25301.2 877.967   3
   6  -2   5 25430.4 865.988   3
   6   2  -4 4028.33 561.304   3
   6  -2   4 2846.01 307.525   3
  -6  -2  -4 3108.01 333.054   3
   6   2  -4 3245.07 225.653   1
  -6  -2  -3 12115.7 702.334   3
   6  -2   3 11916.8 661.993   3
   6   2  -3 12001.7 911.227   3
   6   2  -3 11885.0 508.495   1
   6   2  -2 20322.7 748.087   1
   6   2  -2 19237.7 1118.78   3
   6  -2   2 19756.6 896.385   3
   6   2  -1 5538.30 440.583   1
   6  -2   1 5841.97 510.038   3
   6  -2   1 6360.49 436.751   2
   6   2   0 4931.07 452.062   1
   6  -2   0 5302.32 508.490   3
   6  -2   0 5130.72 428.042   2
   6  -2  -1 5645.29 551.554   3
   6  -2  -1 6001.42 494.804   2
   6  -2  -2 21688.8 1111.08   3
   6  -2  -2 20749.7 963.767   2
   6  -2  -3 12699.4 879.651   3
   6  -2  -3 12017.1 482.412   1
   6  -2  -3 11795.4 769.984   2
   6  -2  -4 2670.15 398.991   2
   6  -2  -4 3029.20 216.412   1
   6  -2  -4 2834.03 458.981   3
   6  -2  -5 26011.7 1242.37   2
   6  -2  -5 25186.4 1354.90   3
   6  -2  -5 25220.6 551.091   1
   6  -2  -6 567.764 231.271   2
   6  -2  -6 352.444 201.245   3
   6  -2  -7 9531.33 827.604   2
   6  -2  -7 8280.64 835.517   3
   6  -2  -8 573.976 273.637   2
   6  -2  -8 1284.85 362.446   3
   6  -2  -9 561.026 191.566   2
   6  -2  -9 1167.98 367.388   3
   6  -2 -10 4165.38 640.799   2
   6  -2 -10 3793.57 612.736   3
   6  -2 -11 4165.55 651.810   2
   6  -2 -11 4827.97 734.827   3
   6  -2 -12 3060.09 578.905   2
   6  -2 -12 2818.11 585.310   3
   6  -2 -13 2905.69 576.176   2
   6  -2 -13 2645.49 611.486   3
   6  -2 -14 2140.58 519.578   2
   6  -2 -14 2164.17 566.454   3
   6  -2 -15 1221.32 435.630   2
   6  -2 -15 1259.70 407.718   3
   6  -2 -16 1014.34 413.717   2
   6  -2 -16 529.768 365.660   3
   6  -2 -17 152.358 161.915   2
   6  -2 -17-134.708 211.863   3
   6  -2 -18 90.9548 200.538   2
   6  -2 -18 20.2393 206.471   3
   6  -2 -19-419.109 316.317   3
  -6  -3  -7 20726.5 784.930   3
  -6  -3  -6 12890.7 671.350   3
  -6  -3  -5 8684.42 586.087   3
   6   3  -5 9114.65 438.544   1
   6   3  -4 1295.20 178.634   1
   6   3  -3 17964.7 709.090   1
   6   3  -2 5693.12 433.505   1
   6  -3   2 6182.82 391.134   2
   6   3  -1 5250.64 446.151   1
   6  -3   1 4330.96 361.736   2
   6   3   0 74738.3 1812.02   1
   6  -3   0 73043.7 1613.69   2
   6  -3  -1 5287.20 466.648   2
   6   3   1 5163.65 524.706   1
   6  -3  -2 5291.06 495.996   2
   6   3   2 5670.64 580.724   1
   6  -3  -2 5091.65 559.738   3
   6  -3  -2 5996.89 420.051   1
   6  -3  -3 19433.5 1003.45   2
   6  -3  -3 17724.0 681.382   1
   6  -3  -4 1375.17 185.143   1
   6  -3  -4 1097.98 268.036   2
   6  -3  -4 1017.54 294.696   3
   6  -3  -5 8368.01 728.969   2
   6  -3  -5 8940.11 811.325   3
   6  -3  -5 8942.92 442.561   1
   6  -3  -6 13819.3 981.123   2
   6  -3  -6 11723.3 508.766   1
   6  -3  -6 14247.4 1056.27   3
   6  -3  -7 23004.7 1312.01   2
  -6  -3   7 23203.4 716.179   1
   6  -3  -7 23755.5 1409.95   3
   6  -3  -8 11458.0 964.682   2
   6  -3  -8 11708.7 1027.02   3
  -6  -3   8 10022.0 449.031   1
   6  -3  -9 11648.2 1017.00   2
   6  -3  -9 11617.1 1064.87   3
   6  -3 -10 827.117 349.649   2
   6  -3 -10 768.459 284.667   3
   6  -3 -11 6551.70 826.005   2
   6  -3 -11 7200.81 898.207   3
   6  -3 -12 2201.46 511.522   2
   6  -3 -12 2619.58 566.041   3
   6  -3 -13 405.992 243.630   2
   6  -3 -13 1047.86 349.274   3
   6  -3 -14 1123.37 426.943   2
   6  -3 -14 297.685 264.132   3
   6  -3 -15 1107.77 454.763   2
   6  -3 -15 1340.53 467.044   3
   6  -3 -16 137.395 238.919   2
   6  -3 -16 837.246 384.442   3
   6  -3 -17 918.529 415.119   2
   6  -3 -17 1148.44 470.048   3
   6  -3 -18-1.14877 153.249   3
   6  -3 -19 484.100 356.061   3
   6   4  -5 3460.05 324.871   1
   6   4  -4 7245.00 482.376   1
   6   4  -3 3662.38 365.430   1
   6  -4   3 3690.42 266.301   2
   6   4  -2 7691.17 547.655   1
   6  -4   2 7581.09 440.715   2
   6  -4   1 17960.8 760.997   2
   6   4  -1 17997.6 892.704   1
   6   4   0 2363.89 344.270   1
   6   4   1 18384.9 1001.60   1
   6   4   2 7227.55 658.421   1
   6   4   3 3971.59 525.980   1
   6   4   4 7385.45 739.040   1
   6  -4  -4 6817.13 472.209   1
   6   4   5 2874.31 500.929   1
  -6  -4   5 3419.88 367.389   1
   6  -4  -5 3078.86 316.509   1
   6  -4  -5 3854.87 559.824   3
  -6  -4   6 549.449 147.501   1
   6  -4  -6 550.983 136.512   1
   6  -4  -6 723.416 281.653   3
  -6  -4   7 1288.94 209.446   1
   6  -4  -7 1280.70 365.771   3
   6  -4  -8 18332.2 1300.14   3
   6  -4  -9 5328.18 747.774   3
   6  -4 -10 1282.56 406.997   3
   6  -4 -11 1419.22 426.127   3
   6  -4 -12 1986.82 507.489   2
   6  -4 -12 1110.19 388.647   3
   6  -4 -13 4015.16 701.081   2
   6  -4 -13 4260.66 731.880   3
   6  -4 -14 198.543 253.676   2
   6  -4 -14 782.889 397.463   3
   6  -4 -15 1973.36 533.710   2
   6  -4 -15 2491.02 614.265   3
   6  -4 -16 619.889 427.040   2
   6  -4 -16 634.491 286.137   3
   6  -4 -17 644.223 376.469   2
   6  -4 -17 635.794 369.827   3
   6  -4 -18 651.358 398.618   3
   6  -4 -19-190.599 264.470   3
  -6   5   9 27106.1 969.950   1
   6   5  -5 3590.81 381.545   1
   6   5  -4 242.510 133.036   1
   6  -5   4 453.134 85.8046   2
   6  -5   3 2291.28 232.201   2
   6   5  -3 2623.77 334.036   1
   6   5  -2 17968.9 896.363   1
   6   5  -1 7586.23 616.133   1
   6   5   0 16517.0 947.372   1
   6   5   1 7186.79 655.638   1
   6   5   2 18559.4 1088.12   1
   6   5   3 2725.50 454.170   1
   6   5   4 259.283 184.790   1
   6   5   5 3062.24 530.091   1
   6   5   6 2118.16 452.813   1
   6   5   7 4539.97 675.822   1
   6   5   8 8629.68 955.376   1
   6  -5  -8 8706.30 924.541   3
   6   5   9 26512.1 1716.42   1
   6  -5  -9 27846.0 1675.52   3
   6   5  10 355.329 287.741   1
   6  -5 -10 527.726 325.779   3
   6  -5 -11-85.2603 199.846   3
   6   5  11 178.733 185.133   1
   6   5  12 6292.27 916.972   1
   6  -5 -12 6530.07 889.900   3
   6   5  13 127.025 293.300   1
   6  -5 -13 519.740 340.707   3
   6   5  14 551.815 371.874   1
   6  -5 -14 488.693 309.597   3
   6  -5 -15 554.019 283.771   2
   6   5  15-235.382 336.094   1
   6  -5 -15 84.1856 262.564   3
   6   5  16 634.065 389.118   1
   6  -5 -16 420.941 306.882   2
   6  -5 -16-327.130 260.893   3
   6  -5 -17 279.914 272.388   3
   6  -5 -18 320.815 275.283   3
  -6   6   9 3646.03 408.966   1
   6   6  -5 7627.73 614.251   1
   6  -6   5 7219.68 283.478   2
   6   6  -4 22441.2 1047.99   1
   6   6  -3 1428.23 278.160   1
   6   6  -2 2796.21 389.488   1
   6   6  -1 6755.72 616.582   1
   6   6   0 6564.33 650.597   1
   6   6   1 5940.58 632.283   1
   6   6   2 2099.45 400.583   1
   6   6   3 2097.92 422.935   1
   6   6   4 22137.0 1330.79   1
   6   6   5 8622.40 881.237   1
   6   6   6 11394.8 1036.64   1
   6   6   7 2237.12 475.469   1
   6   6   8 3351.87 595.431   1
   6   6   9 4906.51 750.864   1
   6  -6  -9 4199.23 693.399   3
   6   6  10-108.419 266.766   1
   6  -6 -10 292.443 305.628   3
   6   6  11 3525.11 686.840   1
   6  -6 -11 4683.48 753.026   3
   6   6  12 35.1892 230.983   1
   6  -6 -12 175.963 295.726   3
   6   6  13 2430.36 622.794   1
   6  -6 -13 3315.58 674.332   3
   6   6  14 170.788 275.014   1
   6  -6 -14 168.591 214.503   3
   6   6  15 1387.89 481.947   1
   6  -6 -15 1715.81 546.969   3
   6   6  16 137.797 251.972   1
   6  -6 -16 1871.35 549.092   3
   6  -6 -17 13.9700 200.941   3
  -6   7   9 757.185 224.047   1
  -6   7   8 462.307 183.015   1
   6   7  -5 10284.3 769.229   1
   6   7  -4 7213.26 652.257   1
   6   7  -3 12129.2 843.370   1
   6   7  -2 1462.37 317.710   1
   6   7  -1 913.349 276.511   1
   6   7   0 30573.2 1422.70   1
   6   7   1 167.224 171.047   1
   6   7   2 836.874 289.705   1
   6   7   3 10954.7 932.356   1
   6   7   4 6386.83 740.438   1
   6   7   5 11158.8 1005.29   1
   6   7   6 400.829 299.469   1
   6   7   7 234.617 280.216   1
   6   7   8 734.872 334.548   1
   6   7   9 998.832 381.299   1
   6   7  10 1725.13 481.726   1
   6   7  11 1012.83 364.209   1
   6  -7 -11 1966.18 531.978   3
   6   7  12 2361.02 602.049   1
   6  -7 -12 2506.90 583.809   3
   6   7  13 1160.00 418.685   1
   6  -7 -13 2914.92 661.020   3
   6   7  14 100.684 192.378   1
   6  -7 -14 956.690 399.966   3
   6   7  15 700.124 394.953   1
   6  -7 -15 994.560 422.502   3
   6  -7 -16 67.3591 210.580   3
  -6   8   8 2200.32 379.081   1
   6   8  -5 2554.24 426.335   1
   6   8  -4 3289.38 472.936   1
   6   8  -3 5808.29 637.820   1
   6   8  -2 13360.8 955.538   1
   6   8  -1 11960.4 917.545   1
   6   8   0 2052.94 410.718   1
   6   8   1 11196.2 941.210   1
   6   8   2 13030.7 1038.77   1
   6   8   3 5378.80 692.829   1
   6   8   4 2343.72 485.252   1
   6   8   5 2188.73 499.112   1
   6   8   6 6058.59 770.822   1
   6   8   7 3549.36 628.581   1
   6   8   8 2497.52 536.124   1
   6   8   9 1316.84 435.433   1
   6   8  10 2155.04 532.959   1
   6   8  11 343.094 279.179   1
   6   8  12-83.1185 196.984   1
   6  -8 -12 222.437 244.830   3
   6   8  13 1392.67 517.506   1
   6  -8 -13 346.863 288.449   3
   6   8  14 756.525 398.060   1
   6  -8 -14 777.976 398.131   3
   6  -8 -15-407.023 300.292   3
   6   9  -5 4168.47 569.245   1
   6   9  -4 8039.64 784.527   1
   6   9  -3 12211.0 977.018   1
   6   9  -2 3414.67 538.496   1
   6   9  -1 2452.76 466.665   1
   6   9   0 7031.67 780.189   1
   6   9   1 2606.64 491.006   1
   6   9   2 2148.62 471.963   1
   6   9   3 11989.8 1058.40   1
   6   9   4 7805.63 874.490   1
   6   9   5 4020.67 660.624   1
   6   9   6 2379.49 525.388   1
   6   9   7 2210.72 519.916   1
   6   9   8 2173.89 522.917   1
   6   9   9 639.760 410.014   1
   6   9  10 3629.11 703.689   1
   6   9  11 1311.41 439.960   1
   6   9  12 1522.67 496.442   1
   6   9  13 314.856 321.355   1
   6  -9 -13 522.571 344.031   3
   6  -9 -14 830.522 460.039   3
   6  10  -5 612.171 275.254   1
   6  10  -4 4101.54 602.727   1
   6  10  -3 1266.26 372.525   1
   6  10  -2 2884.74 540.142   1
   6  10  -1 447.326 276.325   1
   6  10   0 213.157 192.730   1
   6  10   1-58.5221 166.506   1
   6  10   2 2870.99 545.208   1
   6  10   3 1714.79 470.935   1
   6  10   4 4495.67 700.726   1
   6  10   5 421.709 278.724   1
   6  10   6 931.468 371.619   1
   6  10   7 554.055 317.422   1
   6  10   8 2749.18 611.702   1
   6  10   9 704.142 417.976   1
   6  10  10 1181.41 442.438   1
   6  10  11 900.846 401.717   1
   6  10  12 1530.08 498.834   1
   6  11  -5 23.6602 212.955   1
   6  11  -4 42.3147 165.493   1
   6  11  -3 491.821 266.978   1
   6  11  -2 5519.92 747.134   1
   6  11  -1 604.292 283.169   1
   6  11   0 2726.95 542.050   1
   6  11   1 902.067 367.189   1
   6  11   2 6206.15 820.211   1
   6  11   3 510.894 290.773   1
   6  11   4 410.352 258.916   1
   6  11   5 382.279 279.448   1
   6  11   6 472.547 281.784   1
   6  11   7 677.228 331.670   1
   6  11   8 1654.80 496.148   1
   6  11   9-335.616 288.169   1
   6  11  10 994.087 422.462   1
   6  12  -5 1140.68 403.811   1
   6  12  -4 3797.19 671.876   1
   6  12  -3 477.296 306.650   1
   6  12  -2 1433.98 412.548   1
   6  12  -1 3289.50 616.173   1
   6  12   0 519.835 304.081   1
   6  12   1 2365.05 531.954   1
   6  12   2 1595.84 445.409   1
   6  12   3 871.966 356.742   1
   6  12   4 4550.36 772.177   1
   6  12   5 1061.06 405.857   1
   6  12   6 3600.15 715.928   1
   6  12   7 866.857 378.368   1
   6  12   8 1136.05 435.064   1
   6  13  -4 254.892 279.288   1
   6  13  -3 701.580 356.349   1
   6  13  -2 2073.38 535.414   1
   6  13  -1 687.710 354.470   1
   6  13   0 7296.93 970.200   1
   6  13   1 1519.63 472.438   1
   6  13   2 2954.39 622.481   1
   6  13   3 262.904 230.648   1
   6  13   4-279.291 273.510   1
   6  13   5 584.142 362.135   1
   6  14  -4 227.163 265.786   1
   6  14  -3 439.326 384.951   1
   6  14  -2 357.588 296.226   1
   6  14  -1 55.9228 209.550   1
   6  14   0-0.94074 208.672   1
   6  14   1 586.105 362.730   1
   7   0   0 1453.02 327.816   3
   7   0   1 5317.29 548.561   3
   7   0  -1 5210.06 590.526   3
   7   0   2 2398.09 360.080   3
   7   0  -2 3246.63 488.398   3
  -7   0  -3 69.7765 73.9866   2
   7   0   3-20.6715 88.9962   3
   7   0  -3 58.6856 163.681   3
   7   0   4 16503.9 815.410   3
   7   0  -4 16302.4 1127.57   3
   7   0  -4 16075.8 1008.56   2
  -7   0  -4 16068.9 731.220   2
   7   0  -5 3709.29 526.946   2
   7   0  -5 3965.93 605.264   3
  -7   0  -5 4159.66 357.013   2
   7   0  -6 818.780 287.965   2
   7   0  -6 678.384 261.864   3
  -7   0  -6 715.081 149.021   2
   7   0  -7 2834.90 501.063   2
   7   0  -7 1709.19 410.014   3
   7   0  -8-159.223 249.211   2
   7   0  -8-223.953 300.281   3
   7   0  -9 691.953 309.750   2
   7   0  -9 575.231 303.950   3
   7   0 -10 887.467 336.581   2
   7   0 -10 1399.96 442.648   3
   7   0 -11 150.362 235.162   2
   7   0 -11 552.197 287.428   3
   7   0 -12 8046.45 1008.76   3
   7   0 -12 8524.21 962.315   2
   7   0 -13 1091.85 391.619   2
   7   0 -13 1248.14 446.781   3
   7   0 -14 2036.34 519.568   2
   7   0 -14 638.490 390.207   3
   7   0 -15 289.794 288.363   2
   7   0 -15-426.564 316.052   3
   7   0 -16-113.679 201.765   2
   7   0 -16-310.724 295.742   3
   7   0 -17-184.103 245.064   2
   7   0 -17 325.057 274.061   3
   7   0 -18 63.4404 216.175   3
   7   1 -17 642.509 396.270   2
   7   1 -16 1276.44 451.368   2
   7   1 -16 1971.59 571.768   3
   7   1 -15 622.965 312.828   2
   7   1 -15 1238.10 434.473   3
   7   1 -14 342.517 290.166   2
   7   1 -14-67.6268 263.706   3
   7   1 -13 3309.94 617.287   2
   7   1 -13 3105.50 655.745   3
   7   1 -12 3696.25 653.786   2
   7   1 -12 2151.13 534.151   3
   7   1 -11 1297.11 388.769   2
   7   1 -11 996.331 381.738   3
   7   1 -10 4119.65 644.234   2
   7   1 -10 2939.57 598.958   3
   7   1  -9 2488.67 495.140   2
   7   1  -9 2951.92 592.873   3
   7   1  -8 11750.7 1095.66   3
   7   1  -8 9499.03 906.191   2
   7   1  -7 9224.04 949.980   3
   7   1  -7 8686.87 838.665   2
   7  -1   6 2704.80 277.781   3
   7   1  -6 2685.28 528.697   3
   7   1  -6 1968.08 416.481   2
   7   1  -5 36172.8 1753.42   3
   7  -1   5 34323.7 1116.33   3
   7   1  -4 1918.70 415.434   3
   7  -1   4 1937.49 293.640   3
   7   1  -4 1834.81 143.001   1
   7   1  -3 9516.54 857.532   3
   7  -1   3 10810.1 702.392   3
   7   1  -3 9546.62 454.976   1
   7   1  -2 4736.22 583.087   3
   7  -1   2 4314.25 465.478   3
   7   1  -2 3907.89 346.603   1
   7   1  -1 425.075 168.925   3
   7  -1   1 288.353 165.884   3
   7   1   0 2637.07 420.325   3
   7  -1   0 1951.01 339.059   3
   7   1   1 149.260 120.951   3
   7  -1  -1 303.192 151.186   3
   7  -1  -2 4555.54 558.191   3
   7   1   2 3659.36 433.505   3
   7  -1  -2 4790.20 511.296   2
  -7   1  -3 10285.8 554.362   2
   7  -1  -3 11384.0 899.828   3
   7  -1  -3 9750.33 752.746   2
   7  -1  -4 1683.32 342.890   2
  -7   1  -4 1675.14 209.738   2
   7  -1  -4 2385.77 476.755   3
   7  -1  -4 1673.38 131.649   1
  -7   1  -5 35625.5 869.174   2
   7  -1  -5 34913.7 1704.64   3
   7  -1  -5 35365.0 1564.02   2
   7  -1  -6 2623.60 469.489   2
   7  -1  -6 2289.01 476.771   3
  -7   1  -6 2489.04 209.972   2
   7  -1  -7 11435.2 1041.44   3
   7  -1  -7 9425.72 865.093   2
   7  -1  -8 10710.1 1030.44   3
   7  -1  -8 11121.5 971.939   2
   7  -1  -9 3282.53 582.876   2
   7  -1  -9 2077.87 474.791   3
   7  -1 -10 3867.69 626.657   2
   7  -1 -10 3857.09 671.141   3
   7  -1 -11 977.003 366.645   2
   7  -1 -11 1036.28 415.091   3
   7  -1 -12 3051.35 602.254   2
   7  -1 -12 1836.77 486.536   3
   7  -1 -13 4361.50 723.174   2
   7  -1 -13 4279.49 778.844   3
   7  -1 -14 191.309 214.308   2
   7  -1 -14 8.79979 194.293   3
   7  -1 -15 428.863 287.791   2
   7  -1 -15 205.286 213.736   3
   7  -1 -16 2824.85 668.804   2
   7  -1 -16 1016.65 455.945   3
   7  -1 -17 669.263 374.640   2
   7  -1 -17 856.861 392.364   3
   7  -1 -18 592.310 369.295   3
   7   2 -15 118.204 187.507   2
   7   2 -14-292.723 255.335   2
   7   2 -13 15.3183 192.832   2
   7   2 -12 4565.25 784.700   3
   7   2 -12 5036.75 762.698   2
   7   2 -11 2193.15 558.850   3
   7   2 -10 2582.19 566.989   3
   7   2  -9 3548.38 663.368   3
   7   2  -8 6623.66 830.161   3
   7   2  -7 6756.43 828.178   3
   7  -2   7 6521.95 413.888   3
   7   2  -6 22352.7 1454.79   3
   7  -2   6 23411.0 874.012   3
  -7  -2  -6 21150.3 788.071   3
   7   2  -5 1106.14 337.496   3
   7  -2   5 970.060 198.249   3
  -7  -2  -5 1085.36 208.173   3
   7  -2   4 2829.42 353.067   3
   7   2  -4 3028.19 531.362   3
   7   2  -4 2960.98 235.179   1
   7   2  -3 6857.73 743.145   3
   7  -2   3 7045.44 576.277   3
   7   2  -3 6389.73 399.964   1
   7   2  -2 3378.03 335.345   1
   7   2  -2 3710.92 540.103   3
   7  -2   2 3360.40 423.847   3
   7   2  -1 18238.7 863.953   1
   7  -2   1 18278.2 991.969   3
   7  -2   0 1673.04 274.544   2
   7   2   0 2035.49 306.219   1
   7  -2   0 2362.75 372.416   3
   7  -2  -1 15694.9 999.995   3
   7  -2  -1 19031.0 951.453   2
   7  -2  -2 3302.15 422.881   2
   7  -2  -2 3506.29 494.467   3
   7  -2  -3 7416.61 739.569   3
   7  -2  -3 5009.68 554.414   2
   7  -2  -3 6416.32 381.155   1
   7  -2  -4 2657.65 423.055   2
   7  -2  -4 3465.34 520.709   3
   7  -2  -4 3347.55 236.126   1
   7  -2  -5 860.954 96.6202   1
   7  -2  -5 850.171 258.277   2
   7  -2  -5 1610.67 396.715   3
   7  -2  -6 23338.6 1414.21   3
   7  -2  -6 22470.9 1288.44   2
   7  -2  -7 6925.67 807.497   3
   7  -2  -7 7485.78 792.779   2
   7  -2  -8 6694.46 819.380   3
   7  -2  -8 5941.09 732.779   2
   7  -2  -9 4485.45 647.418   2
   7  -2  -9 4157.95 664.687   3
   7  -2 -10 2349.14 499.934   2
   7  -2 -10 1540.57 485.330   3
   7  -2 -11 3292.77 611.083   2
   7  -2 -11 2924.97 592.706   3
   7  -2 -12 4463.03 733.734   2
   7  -2 -12 5445.59 838.956   3
   7  -2 -13 524.237 313.910   2
   7  -2 -13 321.563 268.228   3
   7  -2 -14 50.5621 198.207   2
   7  -2 -14 142.962 271.668   3
   7  -2 -15 125.350 188.785   2
   7  -2 -15-183.869 240.388   3
   7  -2 -16 232.376 271.078   2
   7  -2 -16 620.965 363.767   3
   7  -2 -17 783.270 398.168   2
   7  -2 -17 39.3819 202.672   3
   7  -2 -18 532.011 365.309   3
   7  -3   8 4703.93 350.488   3
   7  -3   7 1358.91 221.002   3
   7  -3   6 11062.1 637.977   3
   7  -3   5 1973.74 287.319   3
   7   3  -5 2186.56 220.051   1
   7  -3   4 7080.89 563.064   3
   7   3  -4 7575.32 439.079   1
   7   3  -3 10103.5 554.284   1
   7  -3   3 9622.96 680.502   3
   7  -3   2 36117.6 1371.13   3
   7   3  -2 36280.9 1148.67   1
   7  -3   1 141.853 73.8090   2
   7   3  -1 227.643 131.504   1
   7  -3   1 361.364 189.453   3
   7  -3   0 736.803 178.097   2
   7   3   0 1037.85 237.889   1
   7  -3   0 708.720 228.323   3
   7   3   1 233.578 154.404   1
   7  -3  -1 309.463 133.341   2
   7  -3  -1 326.770 197.771   3
   7  -3  -2 34942.8 1076.53   1
   7   3   2 35953.1 1509.32   1
   7  -3  -2 37065.7 1594.17   3
   7  -3  -2 36842.3 1380.14   2
   7  -3  -3 10037.8 854.728   3
   7  -3  -3 8860.20 503.696   1
   7  -3  -3 9432.17 734.953   2
   7  -3  -4 6895.41 660.413   2
   7  -3  -4 7008.67 751.923   3
   7  -3  -4 6614.21 402.981   1
   7  -3  -5 2330.25 412.956   2
   7  -3  -5 2351.08 226.553   1
   7  -3  -5 1937.03 406.390   3
   7  -3  -6 10466.7 887.061   2
   7  -3  -6 9658.24 426.555   1
   7  -3  -6 10414.3 967.918   3
   7  -3  -7 1110.48 318.847   2
   7  -3  -7 1790.39 462.611   3
   7  -3  -8 4397.61 646.361   2
   7  -3  -8 3831.36 638.522   3
   7  -3  -9 862.998 316.178   2
   7  -3  -9 1227.12 403.944   3
   7  -3 -10 9980.05 1013.69   2
   7  -3 -10 9355.07 1030.27   3
   7  -3 -11 1995.23 519.565   2
   7  -3 -11 2123.89 545.939   3
   7  -3 -12 4420.29 741.023   2
   7  -3 -12 3408.54 664.961   3
   7  -3 -13 2831.13 609.779   2
   7  -3 -13 1966.40 526.554   3
   7  -3 -14 737.744 330.779   2
   7  -3 -14 677.405 384.370   3
   7  -3 -15 603.511 324.033   2
   7  -3 -15 1149.98 454.103   3
   7  -3 -16 159.093 252.957   2
   7  -3 -16 1085.91 507.102   3
   7  -3 -17 1125.59 433.841   3
   7  -3 -18 131.443 205.904   3
   7   4  -5 437.764 134.454   1
   7   4  -4 489.705 152.525   1
   7   4  -3 1147.57 218.475   1
   7   4  -2 8383.12 594.323   1
   7  -4   2 9837.12 552.266   2
   7  -4   1-57.4525 78.3171   2
   7   4  -1-82.7713 128.989   1
   7   4   0 6287.84 578.587   1
   7  -4   0 5111.87 471.098   2
   7  -4  -1 259.375 149.500   2
   7   4   1-84.4662 124.076   1
   7  -4  -2 8898.72 696.026   2
   7   4   2 8950.67 773.415   1
   7   4   3 1749.35 375.455   1
   7  -4  -3 748.502 222.624   2
   7  -4  -3 1580.25 379.434   3
   7   4   4 215.011 152.717   1
   7  -4  -4 589.592 149.098   1
   7  -4  -4 461.063 183.354   2
   7  -4  -4 118.675 147.737   3
   7  -4  -5 398.771 204.804   2
   7   4   5 273.045 180.990   1
   7  -4  -5 606.683 151.766   1
   7  -4  -5 451.601 237.021   3
   7  -4  -6 5640.81 660.618   2
   7  -4  -6 5462.69 717.438   3
   7  -4  -7 12490.0 1016.57   2
   7  -4  -7 11320.3 1056.75   3
   7  -4  -8 3664.76 600.693   2
   7  -4  -8 3569.55 635.810   3
   7  -4  -9 3064.72 579.395   2
   7  -4  -9 2646.88 581.545   3
   7  -4 -10 1498.75 420.827   2
   7  -4 -10 1108.97 372.460   3
   7  -4 -11 2970.00 591.338   2
   7  -4 -11 2425.32 557.869   3
   7  -4 -12 2680.59 563.758   2
   7  -4 -12 2935.30 630.601   3
   7  -4 -13 35.0100 246.777   2
   7  -4 -13 287.934 227.970   3
   7  -4 -14 1454.79 472.774   2
   7  -4 -14 2025.33 564.272   3
   7  -4 -15 829.654 390.803   2
   7  -4 -15 990.912 388.262   3
   7  -4 -16 769.276 376.883   2
   7  -4 -16 14.6528 174.847   3
   7  -4 -17 1083.02 484.987   3
   7   5  -5 4.28083 84.0026   1
   7   5  -4 14779.2 783.019   1
   7   5  -3 2808.24 365.117   1
   7  -5   3 2246.11 242.769   2
   7   5  -2-49.8602 122.397   1
   7  -5   2 378.243 136.518   2
   7  -5   1 12722.8 713.702   2
   7   5  -1 10966.5 766.761   1
   7  -5   0 17958.2 901.855   2
   7   5   0 17612.7 1001.35   1
   7   5   1 11326.4 844.827   1
   7   5   2 265.038 203.161   1
   7   5   3 2581.09 468.645   1
   7   5   4 13901.7 1060.73   1
   7   5   5-189.924 236.676   1
   7   5   6 7181.72 838.913   1
   7  -5  -6 7747.69 860.779   3
   7   5   7 9629.71 1004.08   1
   7  -5  -7 8766.12 949.881   3
   7   5   8 13957.1 1245.83   1
   7  -5  -8 14599.7 1247.81   3
   7   5   9-4.93031 256.117   1
   7  -5  -9 338.190 263.068   3
   7   5  10 5180.13 809.063   1
   7  -5 -10 4058.85 717.407   3
   7  -5 -11 445.978 236.715   2
   7   5  11 893.376 381.539   1
   7  -5 -11 1092.73 365.101   3
   7  -5 -12 288.775 251.632   2
   7   5  12 200.487 235.846   1
   7  -5 -12 715.220 370.295   3
   7  -5 -13 1424.01 443.306   2
   7   5  13 1170.58 464.285   1
   7  -5 -13 1510.31 517.351   3
   7  -5 -14 1227.96 465.680   2
   7   5  14 871.162 401.485   1
   7  -5 -14 1235.09 457.857   3
   7  -5 -15 2.07513 304.135   2
   7  -5 -15-200.906 269.049   3
   7  -5 -16 129.541 217.001   3
   7  -5 -17 519.695 338.473   3
   7   6  -6 1185.85 265.928   1
   7   6  -5 1827.79 302.658   1
   7   6  -4 6316.56 569.603   1
   7  -6   3 6215.77 427.668   2
   7   6  -3 6420.43 582.097   1
   7   6  -2 3731.58 472.390   1
   7   6  -1 9387.38 749.166   1
   7   6   0 4514.37 554.916   1
   7   6   1 8918.79 775.677   1
   7   6   2 3158.60 498.472   1
   7   6   3 6729.48 743.721   1
   7   6   4 6960.19 785.512   1
   7   6   5 2076.48 449.493   1
   7   6   6 958.050 336.190   1
   7   6   7 25.4584 217.040   1
   7   6   8 84.5669 222.300   1
   7  -6  -8-113.609 236.185   3
   7   6   9 3750.78 686.374   1
   7  -6  -9 5399.27 810.337   3
   7   6  10 3273.24 662.191   1
   7  -6 -10 2576.80 576.939   3
   7   6  11 214.198 257.667   1
   7  -6 -11 551.535 368.334   3
   7   6  12 961.113 410.584   1
   7  -6 -12 1258.03 437.042   3
   7   6  13 543.388 338.673   1
   7  -6 -13 1145.84 464.438   3
   7   6  14-212.616 296.086   1
   7  -6 -14 1026.36 443.707   2
   7  -6 -14 412.603 324.508   3
   7   6  15-421.069 343.019   1
   7  -6 -15 55.6908 225.574   2
   7  -6 -15-85.7339 228.836   3
   7  -6 -16-50.3474 216.125   3
   7   7  -6 3850.62 474.972   1
   7   7  -5 5694.66 588.846   1
   7   7  -4 17224.4 1017.97   1
   7   7  -3 6290.92 614.025   1
   7   7  -2 11214.0 841.675   1
   7   7  -1 2670.87 436.212   1
   7   7   0 7282.09 731.595   1
   7   7   1 2444.60 439.057   1
   7   7   2 9689.36 886.509   1
   7   7   3 5581.99 703.219   1
   7   7   4 15582.4 1180.02   1
   7   7   5 5979.66 756.588   1
   7   7   6 4873.72 720.940   1
   7   7   7 473.984 277.046   1
   7   7   8 1376.04 433.598   1
   7   7   9-39.3610 282.909   1
   7  -7  -9 319.720 274.811   3
   7   7  10 1010.98 414.998   1
   7  -7 -10 1870.57 536.362   3
   7   7  11 2725.42 635.876   1
   7  -7 -11 1969.58 538.933   3
   7   7  12-26.3772 205.909   1
   7  -7 -12 588.181 307.454   3
   7   7  13 489.492 301.992   1
   7  -7 -13-159.245 238.317   3
   7   7  14 1418.87 535.275   1
   7  -7 -14 1242.43 515.582   3
   7  -7 -15 635.275 408.659   3
   7   8  -6 627.797 224.363   1
   7   8  -5 3164.29 474.606   1
   7   8  -4 4060.24 531.873   1
   7   8  -3 1021.55 313.440   1
   7   8  -2 4169.32 554.743   1
   7   8  -1 2411.32 449.749   1
   7   8   0 12609.8 995.510   1
   7   8   1 2314.83 451.825   1
   7   8   2 4403.78 624.272   1
   7   8   3 1048.64 340.663   1
   7   8   4 3714.84 599.854   1
   7   8   5 3322.57 593.764   1
   7   8   6 259.039 241.812   1
   7   8   7 106.799 184.094   1
   7   8   8 5677.26 827.830   1
   7   8   9 110.252 223.092   1
   7   8  10 3885.28 729.929   1
   7  -8 -10 6544.25 969.702   3
   7   8  11 608.297 276.936   1
   7  -8 -11 689.509 408.980   3
   7   8  12 1115.29 447.207   1
   7  -8 -12 967.121 457.502   3
   7   8  13 250.020 251.764   1
   7  -8 -13 755.097 392.821   3
   7  -8 -14 154.959 248.010   3
   7   9  -5-125.437 189.620   1
   7   9  -4 4952.19 627.160   1
   7   9  -3 388.710 212.452   1
   7   9  -2 281.852 171.710   1
   7   9  -1 390.156 198.660   1
   7   9   0 1035.13 329.758   1
   7   9   1 111.659 168.431   1
   7   9   2 498.655 260.200   1
   7   9   3 28.8119 159.303   1
   7   9   4 4689.99 708.010   1
   7   9   5-26.0337 278.504   1
   7   9   6 2739.37 576.631   1
   7   9   7 456.096 283.668   1
   7   9   8 1327.31 456.694   1
   7   9   9 709.818 376.425   1
   7   9  10 1867.91 521.955   1
   7   9  11 2919.61 648.075   1
   7  -9 -11 2768.08 660.907   3
   7   9  12 743.553 360.549   1
   7  -9 -12 1098.64 467.511   3
   7  10  -5 2985.03 523.829   1
   7  10  -4 1739.70 412.493   1
   7  10  -3 4771.80 664.576   1
   7  10  -2 3301.35 552.590   1
   7  10  -1-5.68165 173.550   1
   7  10   0 1294.95 361.316   1
   7  10   1 311.647 218.737   1
   7  10   2 4026.78 648.030   1
   7  10   3 3748.91 662.717   1
   7  10   4 1009.82 359.869   1
   7  10   5 2669.56 571.662   1
   7  10   6 5.80977 212.154   1
   7  10   7 427.827 304.625   1
   7  10   8 1609.35 477.562   1
   7  10   9 589.585 384.259   1
   7  10  10 1157.00 431.552   1
   7  10  11-30.0607 262.757   1
   7  11  -5 1082.93 347.890   1
   7  11  -4 851.720 325.659   1
   7  11  -3 1366.62 387.248   1
   7  11  -2 1502.46 426.855   1
   7  11  -1 4255.63 667.737   1
   7  11   0 697.806 314.513   1
   7  11   1 4877.24 732.760   1
   7  11   2 1713.72 465.747   1
   7  11   3 2202.44 536.891   1
   7  11   4 283.763 272.799   1
   7  11   5 1682.01 483.138   1
   7  11   6 505.678 307.581   1
   7  11   7 454.371 321.835   1
   7  11   8 923.519 383.944   1
   7  11   9 574.142 312.637   1
   7  12  -5 641.721 321.320   1
   7  12  -4 1004.03 355.684   1
   7  12  -3 1372.39 422.821   1
   7  12  -2 906.154 358.114   1
   7  12  -1 2777.07 592.829   1
   7  12   0 462.197 294.862   1
   7  12   1 2684.85 587.870   1
   7  12   2 781.430 323.922   1
   7  12   3 1068.98 422.468   1
   7  12   4 571.532 344.725   1
   7  12   5 1182.81 481.562   1
   7  12   6 30.1742 218.745   1
   7  12   7 264.253 289.523   1
   7  13  -4 394.470 312.629   1
   7  13  -3 1056.39 363.125   1
   7  13  -2 707.993 353.119   1
   7  13  -1 2290.44 574.449   1
   7  13   0-113.705 237.554   1
   7  13   1 2701.18 610.851   1
   7  13   2 1192.66 401.783   1
   7  13   3 435.389 285.731   1
   7  13   4 481.936 310.477   1
   7  14  -4 833.513 387.986   1
   7  14  -3 553.362 324.282   1
   7  14  -2 548.444 366.873   1
   8   0   0 55750.7 1966.05   3
   8   0   1 4488.26 543.658   3
   8   0  -1 4606.11 594.954   3
   8   0   2 7944.75 692.931   3
   8   0  -2 8676.18 834.166   3
   8   0   3 9272.43 716.407   3
   8   0  -3 10150.7 935.006   3
   8   0   4 2970.87 393.573   3
   8   0  -4 2228.56 164.012   1
   8   0  -4 2304.85 479.706   3
   8   0  -5 1596.27 405.057   3
   8   0  -5 1388.44 344.538   2
   8   0  -6 11196.8 1065.87   3
   8   0  -6 10041.5 920.148   2
   8   0  -7-1.19794 202.074   2
   8   0  -7-424.412 324.194   3
   8   0  -8 21782.0 1586.21   3
   8   0  -8 23793.9 1477.23   2
   8   0  -9 126.659 217.169   2
   8   0  -9-205.814 254.018   3
   8   0 -10 9486.56 1084.58   3
   8   0 -10 8799.31 965.978   2
   8   0 -11 1133.34 399.265   2
   8   0 -11 748.758 329.016   3
   8   0 -12 448.466 310.653   2
   8   0 -12 928.511 426.719   3
   8   0 -13 128.192 198.138   2
   8   0 -13-110.874 252.702   3
   8   0 -14 872.875 391.428   2
   8   0 -14 512.077 337.140   3
   8   0 -15-588.492 327.799   2
   8   0 -15-478.446 320.935   3
   8   0 -16-38.9841 208.083   2
   8   0 -16 325.875 304.701   3
   8   0 -17 306.812 293.973   3
   8   1 -16 122.159 216.881   2
   8   1 -16 1312.05 500.357   3
   8   1 -15 455.692 211.605   2
   8   1 -15 829.349 448.863   3
   8   1 -14 949.767 411.880   2
   8   1 -14 1337.48 458.826   3
   8   1 -13 98.3315 214.239   2
   8   1 -13 151.651 221.077   3
   8   1 -12 1893.65 484.761   2
   8   1 -12 1493.64 460.077   3
   8   1 -11 1677.64 461.768   2
   8   1 -11 2210.23 541.629   3
   8   1 -10 2243.58 512.875   2
   8   1 -10 1844.23 523.026   3
   8   1  -9 3228.35 640.896   3
   8   1  -9 3771.03 628.416   2
   8   1  -8 2385.59 519.978   3
   8   1  -8 2520.94 512.401   2
   8   1  -7 9614.53 1016.93   3
   8  -1   6 12448.3 676.633   3
   8   1  -6 11896.3 1104.25   3
   8  -1   5 3809.79 410.237   3
   8   1  -5 2420.18 493.677   3
   8   1  -4 12820.4 1088.88   3
   8  -1   4 13978.6 841.329   3
   8   1  -4 12769.9 425.730   1
   8   1  -3 1717.18 216.651   1
   8   1  -3 1721.47 404.921   3
   8  -1   3 1363.83 278.150   3
   8  -1   2 4497.32 521.952   3
   8   1  -2 3328.44 353.920   1
   8   1  -2 4089.79 588.415   3
   8   1  -1 770.904 267.913   3
   8  -1   1 980.774 273.493   3
   8   1   0 5219.44 600.992   3
   8  -1   0 5025.19 591.712   3
   8   1   1 529.474 194.484   3
   8  -1  -1 1061.27 294.426   3
   8   1   2 3959.23 496.357   3
   8  -1  -2 4739.57 617.128   3
   8  -1  -3 1787.90 357.382   2
   8  -1  -3 1558.72 379.522   3
   8  -1  -4 12876.0 1080.30   3
   8  -1  -4 13459.8 420.519   1
   8  -1  -4 13089.0 967.648   2
   8  -1  -5 3239.59 503.450   2
   8  -1  -5 3712.95 600.430   3
   8  -1  -6 14198.2 1191.75   3
   8  -1  -6 12980.0 1025.90   2
   8  -1  -7 7328.79 888.883   3
   8  -1  -7 8388.86 872.437   2
   8  -1  -8 2402.25 510.045   2
   8  -1  -8 1925.88 480.652   3
   8  -1  -9 3770.39 633.578   2
   8  -1  -9 2970.75 606.102   3
   8  -1 -10 1828.29 471.189   2
   8  -1 -10 2621.76 585.591   3
   8  -1 -11 2445.28 555.092   2
   8  -1 -11 1458.62 476.827   3
   8  -1 -12 1030.92 380.183   2
   8  -1 -12 1300.44 449.717   3
   8  -1 -13-103.605 312.573   2
   8  -1 -13 165.830 222.955   3
   8  -1 -14 800.766 359.621   2
   8  -1 -14 1669.80 522.877   3
   8  -1 -15 126.363 231.372   2
   8  -1 -15 921.882 420.154   3
   8  -1 -16 845.353 334.065   2
   8  -1 -16 44.7619 218.688   3
   8  -1 -17 431.974 321.515   3
   8   2 -12 1433.70 428.630   3
   8   2 -11 251.704 292.558   3
   8   2 -10 650.585 317.473   3
   8   2  -9 5423.34 823.335   3
   8   2  -8 7718.58 953.023   3
   8   2  -7 859.450 377.816   3
   8   2  -6 210.718 219.596   3
   8  -2   6 411.676 152.004   3
   8   2  -5 1182.06 362.595   3
   8  -2   5 1057.61 242.582   3
   8   2  -5 1363.75 122.729   1
   8   2  -4 1930.57 423.743   3
   8  -2   4 1970.69 320.420   3
   8   2  -4 1832.22 194.537   1
   8   2  -3-102.893 229.101   3
   8   2  -3 185.842 78.7998   1
   8  -2   3-17.6176 151.822   3
   8   2  -2 11572.9 985.299   3
   8  -2   2 14067.7 910.846   3
   8   2  -2 13935.3 717.914   1
   8   2  -1 2057.91 316.669   1
   8  -2   1 1921.60 372.771   3
   8   2   0 35701.8 1390.20   1
   8  -2   0 36806.9 1574.32   3
   8  -2  -1 1684.07 320.718   2
   8  -2  -1 1618.21 374.937   3
   8  -2  -2 14618.3 1058.36   3
   8  -2  -2 14000.1 918.862   2
   8  -2  -3 105.581 148.159   2
   8  -2  -3 111.749 70.2237   1
   8  -2  -3 117.068 144.450   3
   8  -2  -4 1811.58 378.468   2
   8  -2  -4 1487.68 396.971   3
   8  -2  -5 2012.02 420.965   2
   8  -2  -5 1579.20 423.294   3
   8  -2  -6 297.340 206.231   2
   8  -2  -6 368.490 236.994   3
   8  -2  -7 652.417 275.933   2
   8  -2  -7 377.662 216.641   3
   8  -2  -8 7375.18 915.376   3
   8  -2  -8 8347.73 896.157   2
   8  -2  -9 5026.69 707.510   2
   8  -2  -9 4619.18 738.937   3
   8  -2 -10 1450.59 426.679   2
   8  -2 -10 1098.59 379.567   3
   8  -2 -11-202.199 251.719   2
   8  -2 -11 214.022 324.724   3
   8  -2 -12 1436.71 440.536   2
   8  -2 -12 1107.77 433.834   3
   8  -2 -13 1074.33 402.998   2
   8  -2 -13 1300.94 450.938   3
   8  -2 -14 383.678 226.222   2
   8  -2 -14-429.312 321.370   3
   8  -2 -15 14.0586 215.464   2
   8  -2 -15 268.793 282.303   3
   8  -2 -16 573.690 340.167   2
   8  -2 -16-402.633 326.447   3
   8  -3   7 7949.73 556.636   3
   8  -3   6 23890.1 1028.02   3
   8  -3   5 13053.9 810.219   3
   8   3  -5 13331.9 526.456   1
   8  -3   4 15984.7 927.085   3
   8   3  -4 16107.9 658.500   1
   8   3  -3 2955.39 321.346   1
   8  -3   3 2659.52 394.680   3
   8  -3   2 11616.2 847.066   3
   8   3  -2 10823.9 662.544   1
   8  -3   1 10817.7 856.883   3
   8   3  -1 10426.3 708.529   1
   8   3   0 3429.83 435.378   1
   8  -3   0 3725.56 510.677   3
   8  -3   0 3622.00 420.203   2
   8   3   1 10510.3 813.086   1
   8  -3  -1 9414.57 845.334   3
   8  -3  -1 10018.3 736.895   2
   8   3   2 11310.9 898.937   1
   8  -3  -2 11393.2 946.064   3
   8  -3  -2 11384.9 826.628   2
   8  -3  -3 3072.28 457.009   2
   8  -3  -3 3104.06 537.228   3
   8  -3  -4 16428.5 1209.02   3
   8  -3  -4 17039.2 1090.77   2
   8  -3  -5 13377.5 1151.15   3
   8  -3  -5 14055.2 1033.55   2
   8  -3  -6 22884.7 1515.33   3
   8  -3  -6 23743.5 1392.40   2
   8  -3  -7 8190.47 928.770   3
   8  -3  -7 7573.91 828.228   2
   8  -3  -8 1171.63 368.314   2
   8  -3  -8 797.590 339.563   3
   8  -3  -9 6062.18 786.917   2
   8  -3  -9 6453.07 892.888   3
   8  -3 -10 1866.17 446.070   2
   8  -3 -10 1284.56 443.681   3
   8  -3 -11 1091.98 360.016   2
   8  -3 -11 1411.72 461.522   3
   8  -3 -12 39.8471 222.413   2
   8  -3 -12 449.167 298.846   3
   8  -3 -13 1577.93 477.948   2
   8  -3 -13 1311.96 457.775   3
   8  -3 -14 944.730 398.800   2
   8  -3 -14 1148.77 456.239   3
   8  -3 -15 1124.94 468.527   2
   8  -3 -15 1862.80 565.305   3
   8  -3 -16 668.657 379.403   3
   8  -4   7 3299.58 391.029   3
   8  -4   6 1665.86 308.765   3
   8   4  -5 943.886 188.264   1
   8  -4   5 776.462 221.686   3
   8   4  -4 774.032 176.758   1
   8  -4   4 978.434 254.701   3
   8   4  -3 744.979 168.889   1
   8  -4   3 875.531 259.970   3
   8  -4   2 3732.75 511.317   3
   8   4  -2 3559.62 409.355   1
   8  -4   2 3619.05 363.132   2
   8  -4   1 2052.06 304.082   2
   8   4  -1 2218.35 334.415   1
   8  -4   1 2174.65 383.893   3
   8  -4   0 279.459 124.759   2
   8   4   0 573.086 221.918   1
   8  -4   0 609.523 266.538   3
   8  -4  -1 2020.74 330.519   2
   8   4   1 2303.69 398.845   1
   8  -4  -1 2459.24 446.529   3
   8   4   2 3715.11 518.003   1
   8  -4  -2 3733.44 555.003   3
   8  -4  -2 4028.91 499.489   2
   8   4   3 542.708 264.535   1
   8  -4  -3 463.942 187.356   2
   8  -4  -3 1153.88 323.780   3
   8   4   4 1742.91 418.756   1
   8  -4  -4 1164.89 322.201   2
   8  -4  -4 863.454 315.790   3
   8   4   5 466.879 271.808   1
   8  -4  -5 649.876 252.122   2
   8  -4  -5 1110.01 357.352   3
   8  -4  -6 2090.38 433.105   2
   8  -4  -6 2414.32 501.339   3
   8  -4  -7 4716.18 661.900   2
   8  -4  -7 3590.19 637.710   3
   8  -4  -8 1883.97 457.999   2
   8  -4  -8 1170.50 416.800   3
   8  -4  -9 5921.59 779.904   2
   8  -4  -9 5555.85 837.789   3
   8  -4 -10 1354.63 425.704   2
   8  -4 -10 1805.58 508.716   3
   8  -4 -11 4176.01 713.981   2
   8  -4 -11 3808.85 742.645   3
   8  -4 -12 991.360 386.434   2
   8  -4 -12 2384.97 584.117   3
   8  -4 -13 2349.28 681.253   2
   8  -4 -13 985.796 370.263   3
   8  -4 -14 369.510 301.982   2
   8  -4 -14 813.339 443.455   3
   8  -4 -15-286.763 284.463   2
   8  -4 -15-314.864 291.525   3
   8  -4 -16 315.167 277.567   3
   8   5  -5 2666.47 333.294   1
   8   5  -4 3550.52 393.066   1
   8   5  -3 12886.2 780.810   1
   8  -5   3 10897.4 549.319   2
   8   5  -2 13303.5 828.407   1
   8  -5   2 13921.7 723.050   2
   8  -5   1 1006.58 223.286   2
   8   5  -1 1208.01 290.036   1
   8   5   0 12060.7 870.850   1
   8  -5   0 13904.9 843.369   2
   8  -5  -1 1143.55 273.399   2
   8   5   1 1174.64 287.740   1
   8  -5  -2 14180.9 938.256   2
   8  -5  -2 12424.8 1036.31   3
   8   5   2 14256.0 1034.33   1
   8  -5  -3 10961.1 868.180   2
   8   5   3 11151.2 956.495   1
   8  -5  -3 10604.2 981.134   3
   8   5   4 4192.27 617.988   1
   8  -5  -4 4323.83 577.721   2
   8  -5  -4 4138.26 634.066   3
   8   5   5 2868.20 560.880   1
   8  -5  -5 3329.77 542.449   2
   8  -5  -5 3004.73 570.734   3
   8   5   6 3295.93 599.369   1
   8  -5  -6 4670.27 641.311   2
   8  -5  -6 4398.19 694.368   3
   8   5   7 3582.17 633.653   1
   8  -5  -7 3642.84 595.501   2
   8  -5  -7 3871.88 652.138   3
   8   5   8 550.382 321.450   1
   8  -5  -8 635.169 305.552   2
   8  -5  -8 1381.65 458.635   3
   8   5   9 1177.69 410.629   1
   8  -5  -9 1277.32 373.397   2
   8  -5  -9 2041.65 527.440   3
   8   5  10 2132.73 572.393   1
   8  -5 -10 2823.94 580.984   2
   8  -5 -10 2385.93 599.272   3
   8   5  11 1753.82 541.414   1
   8  -5 -11 2252.55 555.561   2
   8  -5 -11 1212.72 456.161   3
   8  -5 -12 81.5704 167.049   2
   8   5  12 419.920 295.568   1
   8  -5 -12 322.167 222.504   3
   8  -5 -13 117.407 212.254   2
   8   5  13 50.3805 219.293   1
   8  -5 -13-52.3509 239.643   3
   8  -5 -14-364.923 307.483   2
   8   5  14 588.819 372.453   1
   8  -5 -14 136.217 252.659   3
   8  -5 -15 950.770 441.806   2
   8  -5 -15 919.972 481.754   3
   8   6  -5 2251.45 342.947   1
   8   6  -4 1672.50 312.363   1
   8   6  -3 6992.99 620.803   1
   8   6  -2 4587.16 526.866   1
   8  -6   2 4630.31 427.518   2
   8  -6   1 5287.63 499.942   2
   8   6  -1 6363.76 639.784   1
   8  -6   0 434.545 163.885   2
   8   6   0 461.046 194.039   1
   8  -6  -1 6016.21 612.415   2
   8   6   1 5385.12 634.576   1
   8  -6  -2 4489.43 555.089   2
   8   6   2 4543.89 593.136   1
   8   6   3 6815.33 766.733   1
   8   6   4 1272.46 371.457   1
   8   6   5 2402.47 499.699   1
   8  -6  -5 3358.98 618.784   3
   8   6   6 1648.72 428.528   1
   8  -6  -6 1139.45 347.269   3
   8   6   7 415.645 270.132   1
   8  -6  -7 805.203 362.747   3
   8   6   8 1017.62 382.118   1
   8  -6  -8 814.894 367.000   3
   8   6   9 2525.66 572.828   1
   8  -6  -9 2742.85 607.608   3
   8   6  10 3623.97 731.811   1
   8  -6 -10 3771.42 669.128   2
   8  -6 -10 3542.13 711.804   3
   8   6  11 1607.76 517.327   1
   8  -6 -11 958.047 459.204   2
   8  -6 -11 1445.89 462.623   3
   8   6  12 787.880 358.707   1
   8  -6 -12 630.425 338.510   2
   8  -6 -12 722.978 377.574   3
   8   6  13 1057.34 489.997   1
   8  -6 -13 1640.20 511.402   2
   8  -6 -13 1483.50 542.518   3
   8   6  14 91.3822 286.382   1
   8  -6 -14-257.835 295.638   2
   8   7  -5 3098.17 440.248   1
   8   7  -4 779.280 250.162   1
   8   7  -3 517.168 206.802   1
   8   7  -2 1140.27 305.376   1
   8   7  -1 1626.09 362.529   1
   8  -7   1 1990.29 326.788   2
   8   7   0 2617.87 436.975   1
   8   7   1 2245.25 427.625   1
   8   7   2 549.169 250.601   1
   8   7   3 504.007 239.363   1
   8   7   4 432.603 248.110   1
   8   7   5 3125.32 565.849   1
   8   7   6 61.1061 202.104   1
   8   7   7 4744.44 749.605   1
   8  -7  -7 3927.52 718.816   3
   8   7   8-162.514 244.292   1
   8  -7  -8-242.604 246.886   3
   8   7   9 2572.32 610.823   1
   8  -7  -9 3621.60 707.514   3
   8   7  10 311.673 206.677   1
   8  -7 -10 308.666 275.822   3
   8   7  11 107.265 242.763   1
   8  -7 -11 352.016 290.169   3
   8   7  12 843.431 405.060   1
   8  -7 -12 1518.58 543.761   3
   8   7  13 323.357 314.520   1
   8  -7 -13 522.529 287.269   2
   8  -7 -13-277.423 285.554   3
   8   8  -5 165.424 125.237   1
   8   8  -4 813.631 256.001   1
   8   8  -3 3140.62 485.778   1
   8   8  -2 377.102 222.665   1
   8   8  -1 1494.16 368.338   1
   8   8   0 1174.76 347.718   1
   8   8   1 1073.82 324.812   1
   8   8   2 904.848 325.190   1
   8   8   3 2324.24 498.308   1
   8   8   4 664.600 286.015   1
   8   8   5 160.083 175.154   1
   8   8   6 1147.93 405.645   1
   8   8   7 486.245 297.916   1
   8   8   8-376.808 260.458   1
   8   8   9 4028.02 731.313   1
   8  -8  -9 3569.36 737.632   3
   8   8  10 47.1063 209.172   1
   8  -8 -10 312.520 304.710   3
   8   8  11 2066.13 591.289   1
   8  -8 -11 852.654 406.231   3
   8   8  12 813.315 434.628   1
   8  -8 -12 877.834 492.672   3
   8   9  -5 1785.02 391.619   1
   8   9  -4 24.5424 132.125   1
   8   9  -3 3760.41 559.694   1
   8   9  -2 337.811 228.617   1
   8   9  -1-82.0016 173.324   1
   8   9   0 278.936 256.718   1
   8   9   1 28.3057 152.993   1
   8   9   2 36.2296 166.718   1
   8   9   3 4404.40 673.523   1
   8   9   4-225.234 220.763   1
   8   9   5 988.199 347.253   1
   8   9   6 105.230 207.010   1
   8   9   7 2190.22 551.586   1
   8   9   8-187.112 237.195   1
   8   9   9 796.253 352.587   1
   8   9  10 427.970 307.471   1
   8  -9 -10 600.822 395.560   3
   8   9  11 125.970 243.022   1
   8  -9 -11 791.563 406.057   3
   8  10  -4 272.893 206.827   1
   8  10  -3 3940.01 611.984   1
   8  10  -2 902.530 325.600   1
   8  10  -1 3327.68 562.828   1
   8  10   0 3099.88 557.793   1
   8  10   1 3938.16 653.983   1
   8  10   2 1640.95 451.209   1
   8  10   3 2850.31 578.242   1
   8  10   4-18.1146 166.050   1
   8  10   5-66.5064 176.499   1
   8  10   6 285.717 225.384   1
   8  10   7 1650.08 489.168   1
   8  10   8 257.009 258.718   1
   8  10   9 834.211 420.698   1
   8  11  -4 363.983 255.359   1
   8  11  -3 1223.29 375.964   1
   8  11  -2 1333.30 412.457   1
   8  11  -1 174.195 175.395   1
   8  11   0 1540.13 420.879   1
   8  11   1 655.993 351.904   1
   8  11   2 961.038 345.934   1
   8  11   3 1710.50 491.129   1
   8  11   4 526.137 236.947   1
   8  11   5 1126.42 424.974   1
   8  11   6 1092.62 368.928   1
   8  11   7 1473.14 482.211   1
   8  11   8 133.315 258.649   1
   8  12  -3 725.151 355.686   1
   8  12  -2 393.950 266.470   1
   8  12  -1 366.059 291.599   1
   8  12   0 772.163 363.783   1
   8  12   1 460.462 328.814   1
   8  12   2 229.300 221.280   1
   8  12   3 415.021 306.476   1
   8  12   4-91.6348 216.602   1
   8  12   5 17.8362 211.715   1
   8  13  -3 1036.07 480.804   1
   8  13  -2 893.495 412.715   1
   8  13  -1 400.932 298.363   1
   8  13   0-67.7922 193.008   1
   8  13   1 55.0347 214.600   1
   8  13   2-93.7584 255.938   1
   9   0   0 23.3668 225.687   3
   9   0   1 22782.1 1299.45   3
   9   0  -1 22185.3 1369.81   3
   9   0   2 4919.76 593.612   3
   9   0  -2 3900.38 605.541   3
   9   0  -3 1060.92 178.914   1
   9   0   3 2064.75 385.886   3
   9   0  -3 2033.47 478.578   3
   9   0   4-23.9306 94.3300   3
   9   0  -4-108.088 257.620   3
   9   0  -5 2452.37 503.289   3
   9   0  -6 83.5491 193.718   3
   9   0  -7-333.528 368.590   3
   9   0  -7 416.722 239.826   2
   9   0  -8 994.777 323.613   2
   9   0  -8 467.083 288.392   3
   9   0  -9 3317.22 611.811   2
   9   0  -9 3086.48 644.916   3
   9   0 -10 4184.14 701.065   2
   9   0 -10 3559.03 708.512   3
   9   0 -11 680.270 355.567   2
   9   0 -11-182.572 278.969   3
   9   0 -12-66.7701 237.555   2
   9   0 -12 470.049 291.680   3
   9   0 -13-223.854 261.687   2
   9   0 -13-39.4070 247.001   3
   9   0 -14 1313.31 476.767   2
   9   0 -14 1835.46 552.679   3
   9   0 -15-398.067 302.456   2
   9   0 -15 99.8860 185.075   3
   9   1 -15 750.764 412.893   3
   9   1 -14 762.034 376.076   3
   9   1 -14-409.191 282.925   2
   9   1 -13 2784.88 658.516   3
   9   1 -13 1569.51 484.006   2
   9   1 -12 499.588 340.752   3
   9   1 -11 363.124 252.300   3
   9   1 -10 131.502 229.787   3
   9   1  -9 1568.16 487.261   3
   9   1  -8 70.3158 210.457   3
   9   1  -7 2222.21 545.154   3
   9   1  -6 2943.42 607.587   3
   9   1  -5 23428.7 1581.24   3
   9  -1   5 22417.6 1093.10   3
   9  -1   4 4267.13 514.308   3
   9   1  -4 2839.47 546.366   3
   9   1  -3 20055.5 1395.15   3
   9  -1   3 18985.4 1126.87   3
   9   1  -3 19299.4 746.092   1
   9   1  -2 1617.49 259.868   1
   9   1  -2 1892.89 442.214   3
   9  -1   2 1208.24 323.229   3
   9   1  -1-8.92852 148.926   3
   9  -1   1-227.244 202.218   3
   9   1   0 1448.65 368.138   3
   9  -1   0 1989.37 408.568   3
   9   1   1 30.0495 150.144   3
   9  -1  -1 55.5742 131.839   3
   9  -1  -2 1525.42 401.852   3
   9  -1  -3 18070.8 1301.40   3
   9  -1  -4 4058.27 650.314   3
   9  -1  -4 2932.06 497.774   2
   9  -1  -5 22151.1 1534.27   3
   9  -1  -5 24060.3 1419.21   2
   9  -1  -6 3138.93 550.382   2
   9  -1  -6 1724.81 472.370   3
   9  -1  -7 2259.81 453.396   2
   9  -1  -7 2655.92 576.667   3
   9  -1  -8-153.324 224.043   2
   9  -1  -8-88.0449 240.812   3
   9  -1  -9 1807.25 466.418   2
   9  -1  -9 1285.29 406.862   3
   9  -1 -10 536.522 303.857   2
   9  -1 -10 250.581 201.797   3
   9  -1 -11 1132.98 407.253   2
   9  -1 -11 1259.56 453.215   3
   9  -1 -12 355.407 274.647   2
   9  -1 -12-129.959 307.243   3
   9  -1 -13 2503.63 610.718   2
   9  -1 -13 2425.72 640.411   3
   9  -1 -14-251.580 309.436   2
   9  -1 -14-465.488 330.542   3
   9  -1 -15 568.887 362.980   2
   9  -1 -15 1228.72 504.459   3
   9   2 -11 2517.45 633.285   3
   9   2 -10 875.820 386.770   3
   9   2  -9 2541.98 630.241   3
   9   2  -8 1346.46 502.406   3
   9   2  -7 4431.64 748.581   3
   9   2  -6 1298.15 418.264   3
   9  -2   6 1589.16 278.603   3
   9   2  -5 11383.9 1125.31   3
   9  -2   5 11710.1 814.987   3
   9   2  -4 13546.9 1195.26   3
   9  -2   4 14400.0 939.518   3
   9   2  -3 6268.79 798.104   3
   9  -2   3 6189.50 641.136   3
   9   2  -3 6274.36 447.912   1
   9   2  -2 2728.43 353.489   1
   9  -2   2 2414.79 421.763   3
   9  -2   1 19260.4 1206.50   3
   9   2  -1 19161.3 976.569   1
   9   2   0 69.3881 172.218   1
   9  -2   0 117.459 130.977   3
   9  -2  -1 18058.3 1223.42   3
   9  -2  -2 2494.46 479.481   3
   9  -2  -2 2698.43 430.413   2
   9  -2  -3 7141.68 823.707   3
   9  -2  -3 7283.43 737.838   2
   9  -2  -4 14029.1 1186.95   3
   9  -2  -4 15027.5 1077.32   2
   9  -2  -5 11516.0 1098.06   3
   9  -2  -5 10748.5 957.157   2
   9  -2  -6 1651.99 379.606   2
   9  -2  -6 2663.86 584.964   3
   9  -2  -7 4442.38 658.046   2
   9  -2  -7 4989.28 780.307   3
   9  -2  -8 828.779 339.145   2
   9  -2  -8 622.984 332.044   3
   9  -2  -9 1327.55 424.412   2
   9  -2  -9 951.223 399.104   3
   9  -2 -10 993.839 383.243   2
   9  -2 -10 1409.04 480.415   3
   9  -2 -11 3313.41 650.930   2
   9  -2 -11 2382.93 600.030   3
   9  -2 -12 2421.45 581.032   2
   9  -2 -12 1282.96 463.532   3
   9  -2 -13 1088.70 428.431   2
   9  -2 -13 458.570 346.724   3
   9  -2 -14-109.751 196.737   2
   9  -2 -14-170.982 237.719   3
   9  -2 -15 164.464 248.212   2
   9  -2 -15-405.045 328.749   3
   9  -3   6 1113.16 240.261   3
   9  -3   5 3009.71 426.957   3
   9  -3   4 5452.96 584.429   3
   9  -3   3 6319.07 670.848   3
   9   3  -3 6098.14 474.099   1
   9   3  -2 533.937 167.224   1
   9  -3   2 483.705 215.364   3
   9   3  -1 2285.20 358.414   1
   9  -3   1 2279.71 430.028   3
   9   3   0 1160.44 268.590   1
   9  -3   0 1494.23 382.355   3
   9  -3  -1 2064.98 365.954   2
   9   3   1 2152.56 397.106   1
   9  -3  -1 1899.07 433.553   3
   9   3   2 506.636 246.266   1
   9  -3  -2 412.546 187.203   2
   9  -3  -2 999.626 353.001   3
   9   3   3 5738.57 708.199   1
   9  -3  -3 8006.74 887.574   3
   9  -3  -3 7729.15 762.288   2
   9  -3  -4 5676.49 751.343   3
   9  -3  -4 5164.47 641.412   2
   9  -3  -5 3301.41 538.601   2
   9  -3  -5 2268.16 508.575   3
   9  -3  -6 1040.55 326.493   2
   9  -3  -6 1021.06 360.989   3
   9  -3  -7 4199.41 651.341   2
   9  -3  -7 4879.96 758.372   3
   9  -3  -8 7475.87 965.781   3
   9  -3  -8 7803.19 910.662   2
   9  -3  -9 4110.91 692.027   2
   9  -3  -9 4310.56 765.799   3
   9  -3 -10 1202.54 381.942   2
   9  -3 -10 1567.27 484.144   3
   9  -3 -11 335.937 259.062   2
   9  -3 -11 2.01129 225.680   3
   9  -3 -12 512.496 352.725   2
   9  -3 -12 567.233 319.189   3
   9  -3 -13 183.568 204.119   2
   9  -3 -13 103.264 259.694   3
   9  -3 -14 56.8919 217.894   2
   9  -3 -14 382.371 291.800   3
   9  -3 -15 445.486 316.163   3
   9  -4   6 366.412 159.182   3
   9  -4   5 1585.60 328.360   3
   9  -4   4 4064.26 530.469   3
   9  -4   3 7606.94 741.887   3
   9   4  -3 8575.13 607.699   1
   9  -4   2 2072.38 422.530   3
   9   4  -2 1929.25 321.796   1
   9  -4   1 7466.37 779.739   3
   9   4  -1 7311.41 634.842   1
   9  -4   1 7634.20 602.302   2
   9  -4   0 89.5544 165.291   2
   9   4   0 89.2969 127.636   1
   9  -4   0-146.435 186.082   3
   9  -4  -1 7800.81 828.858   3
   9   4   1 8280.53 762.347   1
   9  -4  -1 6538.49 634.915   2
   9  -4  -2 1727.40 353.029   2
   9   4   2 2710.63 471.066   1
   9  -4  -2 2593.19 507.110   3
   9   4   3 8751.23 868.007   1
   9  -4  -3 7857.38 889.759   3
   9  -4  -3 7798.54 754.714   2
   9   4   4 3749.25 597.874   1
   9  -4  -4 4037.95 582.194   2
   9  -4  -4 2831.27 563.251   3
   9   4   5 1228.79 423.991   1
   9  -4  -5 1759.24 404.296   2
   9  -4  -5 1788.62 471.186   3
   9  -4  -6 545.049 272.885   2
   9   4   6 652.624 307.403   1
   9  -4  -6 355.958 194.385   3
   9  -4  -7 3820.95 614.477   2
   9  -4  -7 3661.88 683.323   3
   9  -4  -8 438.069 257.383   2
   9  -4  -8 820.932 382.746   3
   9  -4  -9 1539.59 429.870   2
   9  -4  -9 1131.45 420.269   3
   9  -4 -10 467.155 232.092   2
   9  -4 -10 100.542 225.300   3
   9  -4 -11 1209.16 437.882   2
   9  -4 -11 1225.55 443.731   3
   9  -4 -12 1886.07 574.092   2
   9  -4 -12 1373.47 495.644   3
   9  -4 -13 327.425 290.243   2
   9  -4 -13-131.107 232.480   3
   9  -4 -14 80.3931 191.708   2
   9  -4 -14 249.580 178.346   3
   9  -5   6 7227.28 677.481   3
   9  -5   5 5894.62 632.706   3
   9  -5   4 5536.04 624.738   3
   9  -5   3 7512.35 748.795   3
   9   5  -3 7725.39 615.137   1
   9   5  -2 1914.47 324.289   1
   9  -5   2 2534.44 460.501   3
   9  -5   1 5303.40 685.558   3
   9   5  -1 4171.21 510.940   1
   9  -5   1 4577.16 478.969   2
   9  -5   0 1520.33 299.745   2
   9   5   0 1023.92 265.008   1
   9  -5   0 1124.79 344.022   3
   9  -5  -1 6362.80 770.298   3
   9   5   1 5713.79 642.598   1
   9  -5  -1 5529.08 593.382   2
   9  -5  -2 1889.59 365.717   2
   9   5   2 1254.89 326.812   1
   9  -5  -2 1675.51 430.684   3
   9  -5  -3 7594.08 878.218   3
   9   5   3 7208.37 792.658   1
   9  -5  -3 7316.23 741.072   2
   9   5   4 5373.26 732.061   1
   9  -5  -4 6954.71 868.222   3
   9  -5  -4 6137.74 716.189   2
   9  -5  -5 5532.81 703.883   2
   9   5   5 5852.82 780.904   1
   9  -5  -5 6272.67 844.613   3
   9  -5  -6 6605.62 795.487   2
   9   5   6 6941.58 871.541   1
   9  -5  -6 6798.13 928.530   3
   9   5   7 1572.23 466.671   1
   9  -5  -7 1256.67 377.990   2
   9  -5  -7 1251.58 427.117   3
   9   5   8 996.543 373.270   1
   9  -5  -8 1625.95 448.984   2
   9  -5  -8 713.107 304.003   3
   9   5   9 339.875 291.592   1
   9  -5  -9 361.556 228.003   2
   9  -5  -9 424.904 286.923   3
   9   5  10 259.984 265.886   1
   9  -5 -10 254.471 274.296   2
   9  -5 -10 178.052 299.127   3
   9   5  11 243.222 228.050   1
   9  -5 -11-117.679 217.113   2
   9  -5 -11 134.231 276.485   3
   9   5  12 1440.31 550.791   1
   9  -5 -12 1728.89 491.954   2
   9  -5 -12 1330.76 515.931   3
   9   5  13-106.845 268.991   1
   9  -5 -13 465.352 312.127   2
   9  -5 -13 699.669 381.599   3
   9  -5 -14 1.24240 466.951   3
   9   6  -3 2811.34 404.730   1
   9   6  -2 2234.18 383.398   1
   9   6  -1 1363.04 300.937   1
   9  -6   0 1553.25 315.224   2
   9   6   0 1638.11 371.238   1
   9  -6  -1 943.145 264.518   2
   9   6   1 773.447 271.765   1
   9  -6  -2 2488.75 423.264   2
   9   6   2 1881.88 411.056   1
   9  -6  -2 1828.26 464.531   3
   9  -6  -3 3009.65 499.559   2
   9   6   3 2759.66 531.989   1
   9  -6  -3 3213.42 595.301   3
   9  -6  -4 1194.39 337.354   2
   9   6   4 1228.24 385.616   1
   9  -6  -4 1419.34 431.438   3
   9  -6  -5-4.48873 160.996   2
   9   6   5 573.007 295.235   1
   9  -6  -5 173.930 217.513   3
   9   6   6 365.358 270.519   1
   9  -6  -6 89.1548 178.664   2
   9  -6  -6 265.474 216.636   3
   9   6   7 488.730 316.943   1
   9  -6  -7 179.530 221.528   2
   9  -6  -7 404.434 335.194   3
   9   6   8 418.960 313.583   1
   9  -6  -8 142.167 189.368   2
   9  -6  -8 596.733 379.181   3
   9   6   9 628.369 359.099   1
   9  -6  -9 906.218 372.589   2
   9  -6  -9 1117.15 412.996   3
   9   6  10 2148.51 568.574   1
   9  -6 -10 2391.65 579.962   2
   9  -6 -10 2583.08 641.699   3
   9   6  11 680.719 411.347   1
   9  -6 -11 805.317 380.507   2
   9  -6 -11 673.700 378.249   3
   9   6  12 1104.67 449.953   1
   9  -6 -12 1132.72 431.563   2
   9  -6 -12 1050.02 430.321   3
   9   6  13 17.9446 232.490   1
   9  -6 -13 619.355 364.853   2
   9  -6 -13 293.758 291.639   3
   9   7  -3 2952.09 434.403   1
   9   7  -2 1032.05 305.229   1
   9   7  -1 310.917 186.990   1
   9   7   0 673.059 256.829   1
   9  -7  -1 513.050 183.359   2
   9   7   1 390.348 220.650   1
   9  -7  -2 1609.55 360.508   2
   9   7   2 1267.77 346.065   1
   9  -7  -3 2713.03 480.870   2
   9   7   3 2940.33 538.767   1
   9  -7  -4 253.014 199.122   2
   9   7   4 812.646 318.544   1
   9  -7  -5 627.612 287.365   2
   9   7   5 704.367 302.276   1
   9  -7  -5 574.434 325.819   3
   9  -7  -6 60.5405 159.210   2
   9   7   6 229.072 210.220   1
   9  -7  -6 29.0088 209.903   3
   9  -7  -7-426.457 275.686   2
   9   7   7 27.2295 166.600   1
   9  -7  -7 324.411 273.113   3
   9   7   8 178.258 267.457   1
   9  -7  -8 648.876 325.187   2
   9  -7  -8 2.99259 252.414   3
   9   7   9-64.1549 210.971   1
   9  -7  -9 504.597 312.383   2
   9  -7  -9 82.3601 236.333   3
   9   7  10 1131.92 460.807   1
   9  -7 -10 2092.71 565.486   2
   9  -7 -10 1389.09 479.060   3
   9   7  11-185.984 240.556   1
   9  -7 -11 172.163 214.734   2
   9  -7 -11-92.8778 286.461   3
   9   7  12 692.251 386.559   1
   9  -7 -12 660.416 362.779   2
   9  -7 -12 1059.00 470.299   3
   9   8  -3 391.955 200.759   1
   9   8  -2 283.416 169.335   1
   9   8  -1 2644.59 475.490   1
   9   8   0 1350.87 351.791   1
   9   8   1 2868.02 517.129   1
   9   8   2 138.100 167.697   1
   9   8   3 927.523 323.326   1
   9   8   4 1697.75 444.265   1
   9   8   5 169.977 212.590   1
   9   8   6 909.321 330.129   1
   9  -8  -6 546.961 345.060   3
   9   8   7 181.269 225.218   1
   9  -8  -7-56.8125 211.610   3
   9   8   8 1415.04 465.351   1
   9  -8  -8 1448.99 493.041   3
   9   8   9 593.367 355.503   1
   9  -8  -9 365.967 311.203   3
   9  -8 -10 1474.84 497.902   2
   9   8  10 2040.93 574.424   1
   9  -8 -11 1868.10 578.167   2
   9   8  11 1680.48 564.556   1
   9  -8 -11 1952.07 675.615   3
   9   9  -3 1154.81 329.867   1
   9   9  -2 5450.70 673.029   1
   9   9  -1-40.3376 145.920   1
   9   9   0 562.025 283.702   1
   9   9   1 121.108 210.995   1
   9   9   2 3394.31 605.285   1
   9   9   3 947.550 339.935   1
   9   9   4 993.450 342.138   1
   9   9   5 174.840 214.197   1
   9   9   6 636.013 325.052   1
   9   9   7 69.0764 188.438   1
   9   9   8 752.129 397.359   1
   9  -9  -8 1697.46 533.121   3
   9   9   9-58.3147 214.453   1
   9  -9  -9 463.872 208.922   3
   9   9  10 795.995 374.495   1
   9  10  -2 938.083 314.211   1
   9  10  -1-60.8412 202.309   1
   9  10   0-6.96216 206.412   1
   9  10   1 282.166 236.589   1
   9  10   2 578.711 266.074   1
   9  10   3 342.593 214.748   1
   9  10   4 263.179 212.099   1
   9  10   5-103.550 197.197   1
   9  10   6 503.138 315.269   1
   9  10   7-25.6138 190.494   1
   9  10   8 360.587 288.026   1
   9  11  -2 1461.49 427.959   1
   9  11  -1 181.466 270.625   1
   9  11   0-148.990 228.814   1
   9  11   1 635.247 324.802   1
   9  11   2 898.060 382.101   1
   9  11   3 1305.13 415.939   1
   9  11   4 1160.84 428.279   1
   9  11   5 305.506 309.259   1
   9  11   6 577.040 317.889   1
   9  12  -1 66.1017 221.525   1
   9  12   0 1100.22 436.221   1
   9  12   1-210.894 251.989   1
   9  12   2 953.914 351.860   1
   9  12   3-53.4651 221.074   1
   9  12   4 535.645 290.650   1
   9  13   0 5.45931 200.587   1
  10   0   0 32672.5 1714.51   3
  10   0   1 5550.76 693.596   3
  10   0  -1 5786.44 757.261   3
  10   0   2 8034.58 803.039   3
  10   0  -2 7785.66 895.403   3
  10   0   3 12002.0 942.557   3
  10   0  -3 11287.6 1095.32   3
  10   0  -4 956.495 393.057   3
  10   0  -5 1959.45 499.570   3
  10   0  -6 465.440 269.817   3
  10   0  -7 6092.70 909.179   3
  10   0  -8 620.572 298.250   3
  10   0  -9-473.544 318.152   3
  10   0 -10-96.3760 258.850   3
  10   0 -10 169.081 226.582   2
  10   0 -11 1239.78 481.022   3
  10   0 -11 796.212 338.425   2
  10   0 -12-209.402 264.911   3
  10   0 -12 395.653 301.157   2
  10   0 -13 22.5198 191.710   3
  10   0 -13-254.718 258.883   2
  10   0 -14-103.128 229.638   3
  10   0 -14-2.11385 252.725   2
  10   1 -14 240.217 310.868   3
  10   1 -13 417.863 254.784   3
  10   1 -12 272.842 306.011   3
  10   1 -11 685.353 326.495   3
  10   1 -10 94.2586 293.677   3
  10   1  -9 77.1392 226.249   3
  10   1  -8 155.535 207.726   3
  10   1  -7 1067.02 402.140   3
  10   1  -6 1742.50 480.471   3
  10   1  -5 1692.72 469.878   3
  10   1  -4 3058.05 588.625   3
  10  -1   4 2002.53 385.118   3
  10   1  -3-142.744 188.733   3
  10  -1   3 134.780 118.434   3
  10   1  -2 840.029 326.796   3
  10  -1   2 1043.30 304.066   3
  10   1  -1 2656.90 381.334   1
  10   1  -1 2773.98 535.100   3
  10  -1   1 3487.98 544.827   3
  10   1   0 180.596 225.636   3
  10  -1   0 385.728 212.593   3
  10  -1  -1 3568.58 595.012   3
  10  -1  -2 918.154 324.187   3
  10  -1  -3 115.421 198.957   3
  10  -1  -4 1797.40 452.128   3
  10  -1  -5 1361.00 421.398   3
  10  -1  -6 1978.10 487.893   3
  10  -1  -6 1159.72 328.469   2
  10  -1  -7 1727.84 429.277   2
  10  -1  -7 673.961 265.653   3
  10  -1  -8 320.591 203.536   2
  10  -1  -8 656.624 336.868   3
  10  -1  -9 58.7391 227.105   2
  10  -1  -9 71.4771 230.800   3
  10  -1 -10 447.860 262.765   2
  10  -1 -10 23.9262 234.873   3
  10  -1 -11 782.032 368.684   2
  10  -1 -11 1360.02 499.854   3
  10  -1 -12-139.347 216.842   2
  10  -1 -12 299.243 245.925   3
  10  -1 -13-167.351 224.762   2
  10  -1 -13 201.995 245.556   3
  10  -1 -14 379.966 332.697   3
  10   2 -10 1578.03 484.805   3
  10   2  -9 871.217 422.307   3
  10   2  -8 2137.06 540.797   3
  10   2  -7 1270.31 446.548   3
  10   2  -6 3888.69 759.554   3
  10   2  -5 3356.17 658.969   3
  10  -2   4 4107.58 538.350   3
  10  -2   3 4924.21 617.474   3
  10  -2   2 418.930 223.255   3
  10   2  -1 1135.71 250.999   1
  10  -2   1 981.372 288.223   3
  10   2   0 2936.50 443.000   1
  10  -2   0 1910.32 432.343   3
  10   2   1 1215.76 335.440   1
  10  -2  -1 1526.70 391.326   3
  10  -2  -2 261.529 180.330   3
  10  -2  -3 5126.49 760.564   3
  10  -2  -4 2698.28 471.646   2
  10  -2  -4 3614.41 662.310   3
  10  -2  -5 3204.31 544.819   2
  10  -2  -5 2530.65 554.003   3
  10  -2  -6 3076.27 560.580   2
  10  -2  -6 3450.28 655.640   3
  10  -2  -7 1550.60 412.837   2
  10  -2  -7 1614.72 474.803   3
  10  -2  -8 1912.80 476.594   2
  10  -2  -8 1904.59 532.857   3
  10  -2  -9 538.244 339.802   2
  10  -2  -9-216.791 278.836   3
  10  -2 -10 1883.92 502.663   2
  10  -2 -10 1683.51 519.684   3
  10  -2 -11-17.4369 192.496   2
  10  -2 -11-443.552 325.335   3
  10  -2 -12 141.845 183.942   2
  10  -2 -12-388.713 311.257   3
  10  -2 -13 1091.37 460.307   2
  10  -2 -13 1604.76 535.196   3
  10  -3   4 4154.04 563.759   3
  10  -3   3-439.873 217.227   3
  10  -3   2 2667.56 475.966   3
  10   3  -1 3424.57 439.645   1
  10  -3   1 3149.83 531.119   3
  10   3   0 306.950 174.965   1
  10  -3   0 120.167 144.785   3
  10   3   1 3080.23 484.382   1
  10  -3  -1 2675.73 517.851   3
  10  -3  -2 2036.23 398.534   2
  10   3   2 3075.14 501.909   1
  10  -3  -2 2380.43 505.597   3
  10   3   3-72.9678 188.018   1
  10  -3  -3-188.243 205.590   2
  10  -3  -3 63.1605 202.684   3
  10  -3  -4 3722.78 570.754   2
  10  -3  -4 3925.65 690.470   3
  10  -3  -5 2203.60 463.372   2
  10  -3  -5 3821.53 693.690   3
  10  -3  -6 1786.42 428.627   2
  10  -3  -6 1989.27 517.042   3
  10  -3  -7 1516.76 407.424   2
  10  -3  -7 864.449 362.441   3
  10  -3  -8 509.309 342.591   2
  10  -3  -8 809.319 395.645   3
  10  -3  -9-75.6130 259.486   2
  10  -3  -9 456.701 368.228   3
  10  -3 -10 1701.20 503.790   2
  10  -3 -10 862.538 423.978   3
  10  -3 -11 922.214 371.536   2
  10  -3 -11 285.059 269.750   3
  10  -3 -12 41.6923 237.649   2
  10  -3 -12 268.880 365.772   3
  10  -3 -13 546.557 342.970   2
  10  -3 -13 369.664 323.157   3
  10  -4   4 1475.42 348.252   3
  10  -4   3 6194.88 724.464   3
  10  -4   2 101.576 143.017   3
  10   4  -1 6139.45 600.920   1
  10  -4   1 4954.09 663.721   3
  10   4   0 883.732 267.073   1
  10  -4   0 1130.23 366.350   3
  10   4   1 5098.89 625.979   1
  10  -4  -1 5932.56 766.098   3
  10  -4  -1 5555.88 614.614   2
  10  -4  -2 227.999 183.052   2
  10   4   2 147.224 180.078   1
  10  -4  -2-46.8023 211.295   3
  10  -4  -3 6763.66 867.288   3
  10   4   3 5651.76 716.838   1
  10  -4  -3 6293.54 732.493   2
  10   4   4 1925.09 476.141   1
  10  -4  -4 1970.71 434.279   2
  10  -4  -4 1062.47 387.919   3
  10   4   5 326.862 245.389   1
  10  -4  -5 428.014 231.617   2
  10  -4  -5-99.5873 229.502   3
  10   4   6 1161.22 386.466   1
  10  -4  -6 1231.83 361.553   2
  10  -4  -6 1850.73 510.154   3
  10  -4  -7 934.245 329.830   2
  10   4   7 882.417 386.499   1
  10  -4  -7 524.426 323.581   3
  10  -4  -8 1121.39 410.643   2
  10  -4  -8 1125.58 465.017   3
  10  -4  -9 592.218 263.114   2
  10  -4  -9 287.232 284.430   3
  10  -4 -10 478.446 254.070   2
  10  -4 -10 693.397 373.169   3
  10  -4 -11 728.929 388.810   2
  10  -4 -11 401.958 341.935   3
  10  -4 -12 634.930 339.465   2
  10  -4 -12 791.421 416.178   3
  10  -4 -13 565.130 306.487   2
  10  -5   4 1581.63 401.745   3
  10  -5   3 2292.67 458.370   3
  10  -5   2 1707.92 433.647   3
  10  -5   1 1604.05 423.329   3
  10   5  -1 1120.43 282.106   1
  10   5   0 76.4814 137.918   1
  10  -5   0 344.429 218.323   3
  10  -5  -1 715.671 229.720   2
  10   5   1 1187.95 334.796   1
  10  -5  -2 1672.45 367.433   2
  10   5   2 2162.15 449.616   1
  10  -5  -2 1127.90 401.384   3
  10  -5  -3 1308.91 346.346   2
  10   5   3 1312.08 371.575   1
  10  -5  -3 1926.66 481.666   3
  10  -5  -4 1213.62 377.361   2
  10   5   4 1581.37 401.597   1
  10  -5  -4 985.582 414.160   3
  10  -5  -5 1158.89 342.501   2
  10   5   5 1751.57 441.162   1
  10  -5  -5 2136.71 536.776   3
  10   5   6 1548.58 451.754   1
  10  -5  -6 1232.76 386.720   2
  10  -5  -6 1647.87 493.224   3
  10   5   7 2396.55 545.834   1
  10  -5  -7 2395.08 524.482   2
  10  -5  -7 2762.15 616.361   3
  10   5   8 361.093 270.111   1
  10  -5  -8 259.546 227.402   2
  10  -5  -8 272.447 213.016   3
  10   5   9 83.8561 214.127   1
  10  -5  -9-98.0242 173.235   2
  10   5  10 161.838 186.028   1
  10  -5 -10 352.687 291.809   2
  10  -5 -10-238.110 278.727   3
  10   5  11 94.6652 239.633   1
  10  -5 -11 248.227 240.991   2
  10  -5 -11 236.159 287.641   3
  10   5  12-459.328 349.658   1
  10  -5 -12-354.776 289.984   2
  10  -5 -12 26.9519 253.414   3
  10  -6   4 196.165 123.839   3
  10  -6   3 5783.33 718.720   3
  10  -6   2 1669.63 397.993   3
  10  -6   1 3453.48 599.415   3
  10   6  -1 3487.29 507.417   1
  10   6   0 1092.56 285.383   1
  10  -6   0 1251.29 388.070   3
  10  -6  -1 3738.94 526.606   2
  10   6   1 3270.37 529.068   1
  10  -6  -1 4240.89 680.208   3
  10  -6  -2 1250.05 326.331   2
  10   6   2 683.086 268.796   1
  10  -6  -2 1496.52 429.618   3
  10  -6  -3 4773.56 639.377   2
  10   6   3 4759.50 676.872   1
  10  -6  -3 4820.28 764.524   3
  10  -6  -4 328.054 211.203   2
  10   6   4 413.407 191.170   1
  10  -6  -4 74.3854 224.247   3
  10  -6  -5 1647.20 404.763   2
  10   6   5 1922.33 489.096   1
  10  -6  -5 2064.12 539.056   3
  10  -6  -6 2060.65 484.536   2
  10   6   6 2119.26 523.771   1
  10  -6  -6 2553.98 630.165   3
  10  -6  -7 844.211 411.997   2
  10   6   7 489.076 283.819   1
  10  -6  -7 434.003 342.373   3
  10   6   8 619.209 324.909   1
  10  -6  -8 564.525 329.150   2
  10  -6  -8 867.307 387.358   3
  10   6   9 3322.49 699.190   1
  10  -6  -9 3791.53 721.222   2
  10  -6  -9 3099.59 743.790   3
  10   6  10 107.088 248.184   1
  10  -6 -10 287.973 320.152   2
  10  -6 -10 379.579 248.289   3
  10   6  11 516.957 367.667   1
  10  -6 -11 1020.58 403.749   2
  10  -6 -11 351.078 384.136   3
  10  -6 -12 182.668 247.817   2
  10   7  -1 4.21130 140.642   1
  10  -7   1-28.3478 165.611   3
  10  -7   0 1726.42 454.457   3
  10   7   0 1234.66 330.643   1
  10   7   1 155.522 138.139   1
  10  -7  -1-304.827 274.961   3
  10   7   2 1821.32 435.630   1
  10  -7  -2 1510.78 415.688   3
  10  -7  -3 2193.59 430.531   2
  10   7   3 2126.47 468.358   1
  10  -7  -3 2856.43 625.915   3
  10  -7  -4 68.2373 179.023   2
  10   7   4-198.118 194.704   1
  10  -7  -4-111.783 321.336   3
  10  -7  -5 3112.28 576.294   2
  10   7   5 4266.92 707.775   1
  10  -7  -5 3119.99 649.744   3
  10  -7  -6-530.245 278.639   2
  10   7   6 169.948 196.755   1
  10  -7  -6-287.349 280.345   3
  10  -7  -7 672.489 315.877   2
  10   7   7 1180.87 426.667   1
  10  -7  -7 1367.55 518.837   3
  10  -7  -8-40.6725 167.657   2
  10   7   8 282.780 275.665   1
  10  -7  -8 180.576 247.777   3
  10  -7  -9 2400.86 584.888   2
  10   7   9 1753.80 524.453   1
  10  -7  -9 2265.81 639.249   3
  10  -7 -10 920.874 389.078   2
  10   7  10 191.896 258.298   1
  10  -7 -10 197.899 256.884   3
  10  -7 -11 603.050 363.327   2
  10   7  11 554.829 403.588   1
  10   8  -1 1557.44 404.312   1
  10   8   0 751.349 248.076   1
  10   8   1 2144.76 464.207   1
  10   8   2 170.622 225.828   1
  10   8   3 1051.87 347.469   1
  10  -8  -3 1420.26 451.163   3
  10  -8  -4 129.790 160.871   2
  10   8   4 141.568 209.934   1
  10  -8  -5 499.155 246.937   2
  10   8   5 532.999 288.314   1
  10  -8  -5 1012.80 407.516   3
  10  -8  -6-379.288 249.361   2
  10   8   6-173.639 230.499   1
  10  -8  -6 25.5806 173.640   3
  10  -8  -7-423.922 262.111   2
  10   8   7-14.3551 154.288   1
  10  -8  -7 41.1107 250.765   3
  10  -8  -8 291.654 258.364   2
  10   8   8 27.9169 247.213   1
  10  -8  -8 352.567 217.841   3
  10  -8  -9 1457.60 487.940   2
  10   8   9 745.040 407.542   1
  10  -8  -9 1213.37 578.627   3
  10  -8 -10 998.960 445.567   2
  10   8  10 72.8402 233.356   1
  10   9   0 411.657 268.991   1
  10   9   1 1051.37 343.072   1
  10   9   2 402.397 230.779   1
  10   9   3 68.0988 209.890   1
  10   9   4 622.246 306.441   1
  10  -9  -5 719.380 248.382   2
  10   9   5 635.795 369.619   1
  10  -9  -5 457.474 309.520   3
  10  -9  -6-127.767 174.376   2
  10   9   6 51.0378 227.822   1
  10  -9  -6-530.056 338.042   3
  10  -9  -7 2343.96 568.435   2
  10   9   7 1533.35 497.804   1
  10  -9  -7 1803.72 571.612   3
  10  -9  -8 1845.93 523.715   2
  10   9   8 1587.06 507.650   1
  10  -9  -9 1513.39 519.167   2
  10  10   0 562.643 274.163   1
  10  10   1 635.721 300.806   1
  10  10   2 393.961 264.589   1
  10  10   3 207.539 253.289   1
  10  10   4 277.306 184.632   1
  10  10   5 1078.02 383.856   1
  10  10   6 435.203 274.757   1
  10  10   7 1070.11 453.698   1
  10 -10  -8-109.681 221.179   2
  10  11   1 599.525 308.012   1
  10  11   2 613.817 341.344   1
  10  11   3 168.448 204.770   1
  10  11   4-481.279 292.752   1
  10  11   5 376.700 318.487   1
  10  12   2 283.970 274.160   1
  11   0   0 155.767 181.783   3
  11   0   1-192.555 177.089   3
  11   0  -1-8.92339 202.703   3
  11   0   2 931.387 302.840   3
  11   0  -2 333.357 234.578   3
  11   0  -3-158.336 219.000   3
  11   0  -4 5481.41 830.388   3
  11   0  -5 360.240 211.007   3
  11   0  -6 1576.75 484.460   3
  11   0  -7 1417.09 455.361   3
  11   0  -8-519.658 335.397   3
  11   0  -9 264.673 260.129   3
  11   0 -10 174.526 283.275   3
  11   0 -11 379.990 291.377   3
  11   0 -12 414.255 326.748   3
  11   1 -12 148.533 242.909   3
  11   1 -11 266.893 293.423   3
  11   1 -10 728.883 380.418   3
  11   1  -9 1677.39 515.007   3
  11   1  -8 1234.79 451.500   3
  11   1  -7 423.936 255.212   3
  11   1  -6 2602.13 579.231   3
  11   1  -5 999.708 382.400   3
  11   1  -4 674.957 310.482   3
  11   1  -3 2396.58 531.457   3
  11  -1   3 1918.28 410.130   3
  11   1  -2 506.229 272.747   3
  11  -1   2 544.929 239.348   3
  11   1  -1 605.041 285.770   3
  11  -1   1 736.002 286.704   3
  11  -1   0 4040.14 645.449   3
  11  -1  -1 1005.47 365.032   3
  11  -1  -2 882.348 339.884   3
  11  -1  -3 1985.50 488.740   3
  11  -1  -4 1191.84 408.137   3
  11  -1  -5 364.391 214.850   3
  11  -1  -6 2375.41 582.333   3
  11  -1  -7 416.693 311.609   3
  11  -1  -8 1300.25 499.499   3
  11  -1  -9 1086.65 478.784   3
  11  -1  -9 1426.74 462.010   2
  11  -1 -10 1290.09 516.332   3
  11  -1 -10 974.700 377.861   2
  11  -1 -11 493.087 287.180   2
  11  -1 -11-125.847 309.779   3
  11  -1 -12-96.4757 232.536   2
  11  -1 -12 409.149 325.015   3
  11  -2   3 319.356 217.112   3
  11  -2   2 3328.75 577.458   3
  11  -2   1 3627.98 590.913   3
  11  -2   0 38.8541 154.551   3
  11   2   1 3923.69 557.261   1
  11  -2  -1 2895.20 567.446   3
  11  -2  -2 2042.54 482.491   3
  11  -2  -3 753.910 305.320   3
  11  -2  -4 393.842 267.870   3
  11  -2  -5 227.780 290.299   3
  11  -2  -6 439.654 302.896   3
  11  -2  -6 138.305 163.415   2
  11  -2  -7 444.478 278.912   2
  11  -2  -7 934.783 405.198   3
  11  -2  -8 1063.20 386.969   2
  11  -2  -8 848.733 376.719   3
  11  -2  -9 715.861 309.573   2
  11  -2  -9 447.994 282.368   3
  11  -2 -10 767.397 348.263   2
  11  -2 -10 870.866 435.108   3
  11  -2 -11-221.038 257.498   2
  11  -2 -11 401.166 354.461   3
  11  -2 -12 127.611 229.318   2
  11  -2 -12 849.326 449.088   3
  11  -3   3 3154.77 540.745   3
  11  -3   2 83.0411 155.402   3
  11  -3   1 365.362 221.511   3
  11  -3   0-68.4330 153.226   3
  11   3   1 65.0896 116.682   1
  11  -3  -1-51.2618 200.072   3
  11   3   2 70.0597 152.416   1
  11  -3  -2 312.096 233.333   3
  11   3   3 1830.51 425.859   1
  11  -3  -3 3219.82 630.204   3
  11  -3  -4 3088.94 538.780   2
  11   3   4 2215.36 504.092   1
  11  -3  -4 3404.22 661.049   3
  11  -3  -5-85.7183 185.420   2
  11  -3  -5 71.6116 215.090   3
  11  -3  -6 927.180 344.909   2
  11  -3  -6 783.261 376.124   3
  11  -3  -7 343.894 184.144   2
  11  -3  -7 373.272 266.041   3
  11  -3  -8 32.7685 159.199   2
  11  -3  -8 129.382 219.557   3
  11  -3  -9 336.993 285.013   2
  11  -3  -9 286.749 334.108   3
  11  -3 -10 73.0384 188.749   2
  11  -3 -10 271.384 271.169   3
  11  -3 -11 268.111 314.353   2
  11  -3 -11-62.1583 242.453   3
  11  -3 -12 463.012 318.417   2
  11  -4   3 2441.60 478.992   3
  11  -4   2 43.5961 191.526   3
  11  -4   1 405.202 209.190   3
  11  -4   0 1274.40 398.209   3
  11   4   1 831.892 300.246   1
  11  -4  -1 744.996 315.192   3
  11   4   2-23.0490 154.613   1
  11  -4  -2 90.4979 228.273   3
  11  -4  -2 26.7040 148.280   2
  11  -4  -3 2113.64 423.696   2
  11   4   3 1822.28 415.410   1
  11  -4  -3 3186.59 626.567   3
  11  -4  -4 5482.53 719.033   2
  11   4   4 5825.57 793.597   1
  11  -4  -4 4445.37 772.152   3
  11   4   5 6725.28 886.666   1
  11  -4  -5 5668.43 883.882   3
  11   4   6 32.2637 234.596   1
  11  -4  -6 139.445 178.931   2
  11  -4  -6 15.7161 198.856   3
  11   4   7 447.889 249.887   1
  11  -4  -7 497.870 268.657   2
  11  -4  -7 766.524 349.830   3
  11  -4  -8 6.88457 168.166   2
  11   4   8-15.5258 164.449   1
  11  -4  -8 271.169 239.510   3
  11  -4  -9 280.090 249.730   2
  11   4   9 519.687 350.545   1
  11  -4  -9-125.518 266.544   3
  11  -4 -10 298.238 238.085   2
  11  -4 -10-756.024 399.373   3
  11  -4 -11 326.406 253.142   2
  11  -4 -11-508.150 339.917   3
  11  -4 -12 1070.41 445.315   2
  11  -5   3 4354.17 670.538   3
  11  -5   2 1238.41 368.273   3
  11  -5   1 5123.26 731.591   3
  11  -5   0 74.0614 179.933   3
  11   5   1 5328.48 667.520   1
  11  -5  -1 5631.35 820.744   3
  11  -5  -2 408.152 222.901   2
  11   5   2 840.616 299.965   1
  11  -5  -2 492.169 270.625   3
  11  -5  -3 4096.80 603.595   2
  11   5   3 3167.49 573.699   1
  11  -5  -3 4837.98 791.780   3
  11  -5  -4 2552.80 502.792   2
  11   5   4 2826.68 551.402   1
  11  -5  -4 2562.38 593.029   3
  11  -5  -5 821.273 283.284   2
  11   5   5 957.755 353.697   1
  11  -5  -5 1862.17 547.955   3
  11  -5  -6 1000.59 342.622   2
  11   5   6 639.873 264.181   1
  11  -5  -6 1172.74 421.651   3
  11  -5  -7 70.3697 169.911   2
  11   5   7 165.154 222.760   1
  11  -5  -7 61.0771 248.757   3
  11   5   8 271.294 303.399   1
  11  -5  -8 566.787 301.173   2
  11  -5  -8 478.877 315.126   3
  11   5   9 1465.30 525.221   1
  11  -5  -9 232.103 260.741   2
  11  -5  -9 931.250 410.738   3
  11   5  10-224.229 286.329   1
  11  -5 -10 16.9035 179.921   2
  11  -5 -10-644.930 395.051   3
  11   5  11-719.080 401.074   1
  11  -5 -11 247.873 273.472   2
  11  -6   3-39.6508 192.613   3
  11  -6   2 805.540 305.487   3
  11  -6   1 2211.43 502.694   3
  11  -6   0 1305.18 438.687   3
  11   6   1 1668.89 391.653   1
  11  -6  -1 1338.98 432.713   3
  11   6   2 1487.89 398.251   1
  11  -6  -2 808.926 356.271   3
  11  -6  -3-65.6679 170.668   2
  11   6   3-138.197 224.590   1
  11  -6  -3-350.453 277.553   3
  11  -6  -4 2334.34 495.419   2
  11   6   4 1080.92 396.427   1
  11  -6  -4 1193.89 424.912   3
  11  -6  -5-123.814 171.928   2
  11   6   5 310.143 295.915   1
  11  -6  -6 446.195 258.260   2
  11   6   6 394.420 287.304   1
  11  -6  -6-95.7713 176.489   3
  11  -6  -7 502.705 316.293   2
  11  -6  -7 634.398 313.056   3
  11  -6  -8 1597.20 478.208   2
  11   6   8 1005.42 419.148   1
  11  -6  -8 2040.01 623.701   3
  11   6   9 749.156 376.765   1
  11  -6  -9 85.0533 213.337   3
  11  -6 -10 1374.76 462.035   2
  11   6  10 1464.81 513.902   1
  11  -6 -11 357.145 269.801   2
  11  -7   3 1437.19 397.440   3
  11  -7   2 1462.72 419.202   3
  11  -7   1-36.9326 153.504   3
  11  -7   0-216.722 219.493   3
  11  -7  -1-0.89548 220.913   3
  11   7   2 695.474 300.772   1
  11  -7  -2 709.908 325.411   3
  11   7   3 1104.98 365.388   1
  11  -7  -3 621.792 372.087   3
  11   7   4 244.139 231.539   1
  11  -7  -4 684.092 382.228   3
  11  -7  -5-329.424 227.159   2
  11   7   5 390.002 268.921   1
  11  -7  -5 414.811 311.558   3
  11  -7  -6-34.5282 160.438   2
  11   7   6 540.209 314.516   1
  11  -7  -6 706.657 338.973   3
  11  -7  -7 251.488 236.940   2
  11   7   7 148.301 187.136   1
  11  -7  -7-374.376 319.644   3
  11  -7  -8-222.576 228.992   2
  11   7   8 549.205 328.991   1
  11  -7  -8-173.849 276.457   3
  11  -7  -9 583.376 367.425   2
  11   7   9 1216.22 492.640   1
  11  -7 -10 475.604 343.486   2
  11  -8   3 737.739 308.196   3
  11  -8   2 1889.74 496.774   3
  11  -8   1 426.691 300.711   3
  11  -8   0 27.5193 165.871   3
  11  -8  -1 478.566 341.365   3
  11  -8  -2 2526.58 625.913   3
  11   8   2 2525.02 524.216   1
  11   8   3 1171.58 392.377   1
  11  -8  -3 1446.59 519.718   3
  11   8   4 357.328 251.321   1
  11  -8  -4 282.123 248.916   3
  11   8   5 887.078 358.805   1
  11  -8  -5 1454.44 512.545   3
  11  -8  -6 674.225 324.251   2
  11   8   6 295.270 212.334   1
  11  -8  -6 249.859 323.397   3
  11  -8  -7 1059.13 395.155   2
  11   8   7 533.690 314.483   1
  11  -8  -8 304.880 226.797   2
  11   8   8 327.765 286.882   1
  11  -8  -9 887.837 408.491   2
  11  -9   0-133.310 208.980   3
  11  -9  -1 321.535 232.947   3
  11   9   2 414.604 272.020   1
  11  -9  -2-222.958 245.936   3
  11  -9  -3 1230.11 466.171   3
  11   9   3 482.924 319.989   1
  11  -9  -4 934.893 443.948   3
  11   9   4 668.491 328.256   1
  11   9   5 8.92203 181.691   1
  11  -9  -5 697.554 399.260   3
  11   9   6 97.4211 209.240   1
  11   9   7 592.011 375.398   1
  11  -9  -8 378.817 282.942   2
  11  10   3 564.056 339.092   1
  11  10   4 667.072 343.879   1
  11  10   5 1233.35 469.524   1
  12   0   0 859.088 326.763   3
  12   0   1 2.23986 142.606   3
  12   0  -1 261.398 249.785   3
  12   0  -2 28.6065 231.419   3
  12   0  -3-509.371 299.996   3
  12   0  -4 94.9430 189.620   3
  12   0  -5 2437.13 612.996   3
  12   0  -6 644.098 349.683   3
  12   0  -7 446.250 362.731   3
  12   0  -8 414.757 328.522   3
  12   0  -9 163.404 248.988   3
  12   0 -10 102.962 283.620   3
  12   1 -10 273.961 314.401   3
  12   1  -9 647.474 411.965   3
  12   1  -8 580.111 311.800   3
  12   1  -7 366.863 290.695   3
  12   1  -6 1128.15 446.813   3
  12   1  -5-53.0030 343.302   3
  12   1  -4 181.962 221.085   3
  12   1  -3 1087.99 400.561   3
  12   1  -2-129.502 209.079   3
  12  -1   2 535.167 272.012   3
  12  -1   1 69.0884 145.897   3
  12  -1   0 608.747 279.187   3
  12  -1  -1 181.832 225.252   3
  12  -1  -2 562.026 307.272   3
  12  -1  -3 784.854 342.301   3
  12  -1  -4-231.086 274.603   3
  12  -1  -5-220.371 305.706   3
  12  -1  -6 1861.22 548.109   3
  12  -1  -7-388.368 295.904   3
  12  -1  -8 350.431 313.186   3
  12  -1  -9 465.022 313.693   3
  12  -1 -10 210.831 288.267   3
  12  -2   2 815.969 312.874   3
  12  -2   1 711.225 313.530   3
  12  -2   0 3588.07 656.780   3
  12  -2  -1 258.076 222.541   3
  12  -2  -2 1082.68 412.711   3
  12  -2  -3 2095.25 567.431   3
  12  -2  -4 480.910 319.598   3
  12  -2  -5 512.266 299.637   3
  12  -2  -6 351.132 308.084   3
  12  -2  -7 2835.38 684.508   3
  12  -2  -8 218.358 293.972   3
  12  -2  -9 113.184 225.964   3
  12  -2  -9 169.714 239.749   2
  12  -2 -10-1.25551 161.489   3
  12  -2 -10-122.161 208.128   2
  12  -2 -11 522.637 392.410   2
  12  -3   2 2031.97 477.547   3
  12  -3   1 486.526 256.167   3
  12  -3   0 1758.68 465.741   3
  12  -3  -1 516.765 284.770   3
  12  -3  -2 2650.97 586.239   3
  12   3   3 208.068 198.485   1
  12  -3  -3 689.554 379.333   3
  12   3   4 1470.65 432.917   1
  12  -3  -4 2928.96 653.662   3
  12   3   5-240.676 229.800   1
  12  -3  -5 198.256 171.696   3
  12  -3  -6-121.950 209.122   3
  12  -3  -6 12.8184 170.904   2
  12  -3  -7 62.8790 160.049   2
  12  -3  -7-508.347 330.835   3
  12  -3  -8 266.943 237.813   2
  12  -3  -8-100.622 202.503   3
  12  -3  -9 36.2903 197.887   2
  12  -3  -9 718.117 380.432   3
  12  -3 -10 153.500 218.661   2
  12  -4   2 2161.39 514.367   3
  12  -4   1 290.082 208.826   3
  12  -4   0 1504.90 435.883   3
  12  -4  -1 354.415 270.167   3
  12  -4  -2 2566.75 593.132   3
  12   4   3 1930.37 471.813   1
  12  -4  -3 1670.44 501.126   3
  12   4   4 710.072 311.714   1
  12  -4  -4 1252.42 445.568   3
  12  -4  -4 281.673 230.689   2
  12  -4  -5 790.735 342.765   2
  12   4   5 894.824 353.635   1
  12  -4  -5 965.330 412.515   3
  12  -4  -6 3056.33 614.769   2
  12   4   6 1918.55 507.871   1
  12  -4  -6 2644.88 661.533   3
  12  -4  -7 729.048 355.006   2
  12   4   7 233.209 255.680   1
  12  -4  -7 599.047 357.707   3
  12   4   8 327.019 340.129   1
  12  -4  -8 30.2872 162.125   2
  12  -4  -8 279.231 320.501   3
  12   4   9-163.903 309.044   1
  12  -4  -9 499.755 332.982   2
  12  -4  -9 340.055 357.080   3
  12   4  10 284.891 302.826   1
  12  -4 -10 187.141 210.057   2
  12  -5   2 422.881 232.238   3
  12  -5   1 1475.70 422.710   3
  12  -5   0 994.906 377.051   3
  12  -5  -1 821.148 368.850   3
  12  -5  -2 609.567 266.468   3
  12  -5  -3 592.239 319.619   3
  12   5   4 3.09254 182.889   1
  12  -5  -4 79.7961 202.440   3
  12  -5  -5 961.910 373.959   2
  12   5   5 1590.07 459.662   1
  12  -5  -5 300.189 277.661   3
  12  -5  -6 1452.01 423.150   2
  12   5   6 1041.58 401.533   1
  12  -5  -6 1002.62 425.444   3
  12  -5  -7-51.3542 206.420   2
  12   5   7-168.831 234.487   1
  12  -5  -7 161.162 274.691   3
  12  -5  -8 1070.96 404.378   2
  12   5   8 1185.40 476.571   1
  12  -5  -8 124.897 337.030   3
  12  -5  -9-343.781 277.358   2
  12   5   9 265.154 328.696   1
  12  -5 -10 385.773 299.485   2
  12  -6   2 584.917 274.606   3
  12  -6   1 294.592 259.677   3
  12  -6   0 28.2344 131.842   3
  12  -6  -1 152.020 198.811   3
  12  -6  -2 1092.88 418.781   3
  12  -6  -3 1310.16 477.671   3
  12   6   4 814.410 325.213   1
  12  -6  -4 1477.75 491.829   3
  12   6   5 1336.11 423.367   1
  12  -6  -5 351.541 314.640   3
  12  -6  -6 1041.31 347.828   2
  12   6   6 1468.99 483.295   1
  12  -6  -6 1560.33 566.068   3
  12  -6  -7 160.581 204.525   2
  12   6   7 208.073 230.071   1
  12  -6  -7-369.117 336.988   3
  12  -6  -8 680.432 374.578   2
  12   6   8 520.574 345.803   1
  12  -6  -9-76.6257 185.865   2
  12   6   9-400.678 310.547   1
  12  -7   1 1094.69 430.562   3
  12  -7   0 795.359 386.544   3
  12  -7  -1 479.357 299.156   3
  12  -7  -2 996.250 400.258   3
  12  -7  -3 984.491 418.996   3
  12   7   4 877.479 329.089   1
  12  -7  -4 763.721 326.776   3
  12   7   5-196.427 224.174   1
  12  -7  -5-212.648 238.551   3
  12   7   6-266.192 234.194   1
  12  -7  -6-57.7362 203.798   3
  12  -7  -7 192.407 249.030   2
  12   7   7 282.079 304.999   1
  12  -7  -8 563.948 378.150   2
  12   7   8 550.954 387.313   1
  12  -7  -9 3.19906 165.154   2
  12  -8   1 90.0248 186.759   3
  12  -8   0 160.172 258.841   3
  12  -8  -1-86.2761 164.340   3
  12  -8  -2 565.021 384.525   3
  12  -8  -3-284.776 271.395   3
  12  -8  -4 556.698 367.149   3
  12   8   5-25.7116 157.495   1
  12   8   6-166.649 239.520   1
  12   8   7-167.457 250.835   1
  12  -9   1 242.645 210.218   3
  12  -9   0 1248.60 450.445   3
  12  -9  -1 206.879 243.614   3
  12  -9  -2 1471.89 518.220   3
  13   0   0 25.4659 144.577   3
  13   0  -1 1179.02 380.850   3
  13   0  -2-65.3934 181.758   3
  13   0  -3 263.878 264.725   3
  13   0  -4-251.392 258.349   3
  13   0  -5 609.978 358.611   3
  13   0  -6 1135.05 450.731   3
  13   0  -7 330.997 333.701   3
  13   0  -8 1788.37 610.455   3
  13   1  -8 652.863 391.456   3
  13   1  -7 570.739 371.716   3
  13   1  -6 156.380 282.384   3
  13   1  -5 939.476 400.690   3
  13  -1   1 565.802 281.730   3
  13  -1   0 161.686 152.195   3
  13  -1  -1 506.003 276.983   3
  13  -1  -2 690.798 336.610   3
  13  -1  -3-407.594 299.074   3
  13  -1  -4 247.902 220.394   3
  13  -1  -5-264.043 272.182   3
  13  -1  -6-155.920 280.719   3
  13  -1  -7-84.7748 241.159   3
  13  -1  -8 544.888 321.565   3
  13  -2   1 173.555 173.975   3
  13  -2   0 81.2314 212.592   3
  13  -2  -1 346.461 267.218   3
  13  -2  -2 640.431 346.288   3
  13  -2  -3-231.540 255.750   3
  13  -2  -4 1025.43 415.656   3
  13  -2  -5 1715.62 554.856   3
  13  -2  -6 1175.21 491.544   3
  13  -2  -7 696.821 401.631   3
  13  -3   0 1544.40 488.765   3
  13  -3  -1 650.130 323.357   3
  13  -3  -2 213.023 251.388   3
  13  -3  -3 162.934 249.091   3
  13  -3  -4 949.839 437.084   3
  13  -3  -5 137.319 256.834   3
  13   3   6-43.3954 169.623   1
  13  -3  -6 559.081 313.773   3
  13   3   7 101.028 206.738   1
  13  -3  -7 595.318 391.812   3
  13   3   8 88.5267 212.322   1
  13  -4   0 717.444 324.352   3
  13  -4  -1 223.091 245.753   3
  13  -4  -2 1092.55 451.122   3
  13  -4  -3 491.619 328.223   3
  13  -4  -4 2575.41 663.825   3
  13  -4  -5 461.457 324.056   3
  13   4   6 547.538 337.993   1
  13  -4  -6 498.084 325.625   3
  13   4   7-151.380 238.986   1
  13  -4  -7 81.3436 195.462   2
  13  -4  -8 427.024 295.583   2
  13   4   8 87.3016 220.742   1
  13  -4  -9 213.893 262.103   2
  13   4   9-226.150 281.306   1
  13  -5   0 210.003 248.041   3
  13  -5  -1 612.049 284.381   3
  13  -5  -2 96.0508 217.020   3
  13  -5  -3 1303.14 462.929   3
  13  -5  -4 145.355 264.008   3
  13  -5  -5 811.749 412.276   3
  13  -5  -7-275.289 232.956   2
  13   5   7-314.644 266.029   1
  13  -5  -8-597.947 326.770   2
  13   5   8-99.5040 211.351   1
  13  -6   0 464.260 281.743   3
  13  -6  -1 613.369 341.512   3
  13  -6  -2 542.620 317.232   3
  13  -6  -3 413.605 316.781   3
  13  -6  -4 458.814 314.148   3
  13   6   7 329.021 289.563   1
  13  -7   0 297.105 173.136   3
  13  -7  -1 264.518 195.613   3
  13  -7  -2-164.429 241.082   3
  13  -7  -3 1056.53 457.362   3
  13  -8  -1 172.053 247.430   3
  14   0  -2-73.1365 179.699   3
  14   0  -3-33.2021 158.242   3
  14   0  -4 379.517 229.463   3
  14   0  -5 496.679 345.855   3
  14  -1  -1-97.0723 147.268   3
  14  -1  -2-94.9962 176.621   3
  14  -1  -3 544.884 328.288   3
  14  -1  -4-21.8098 183.628   3
  14  -1  -5 487.786 294.656   3
  14  -2  -1-23.6412 128.897   3
  14  -2  -2 229.147 232.620   3
  14  -2  -3 231.901 237.966   3
  14  -2  -4-190.390 248.107   3
  14  -2  -5 1042.40 477.934   3
  14  -3  -1 269.222 261.428   3
  14  -3  -2-267.280 242.507   3
  14  -3  -3 1.14718 239.129   3
  14  -3  -4-383.736 316.972   3
  14  -4  -1 113.495 193.934   3
  14  -4  -2-330.898 267.153   3
  14  -4  -3 330.926 283.412   3
  14  -4  -4 12.2628 160.069   3
  14  -5  -1 617.953 389.258   3
  14  -5  -2 293.231 285.800   3
  14  -5  -3 458.795 379.867   3
  14  -6  -2 511.839 386.238   3
   0   0   0    0.00    0.00   0
TITL MSN_IQ in P2(1)2(1)2(1)
REM P2(1)2(1)2(1) (#19 in standard setting)
CELL 0.71073  11.130374  11.960808  15.928468  90.0000  90.0000  90.0000
ZERR    4.00   0.000494   0.000646   0.000706   0.0000   0.0000   0.0000
LATT -1
SYMM -x+1/2,-y, z+1/2
SYMM -x, y+1/2,-z+1/2
SYMM  x+1/2,-y+1/2,-z
SFAC C H N O S
UNIT 100.00 100.00 8.00 8.00 4.00
TREF
HKLF 4
END
;
_shelx_hkl_checksum              15509
loop_
_space_group_symop_operation_xyz
'x, y, z'
'-x+1/2, -y, z+1/2'
'x+1/2, -y+1/2, -z'
'-x, y+1/2, -z+1/2'
loop_
_atom_site_label
_atom_site_type_symbol
_atom_site_fract_x
_atom_site_fract_y
_atom_site_fract_z
_atom_site_U_iso_or_equiv
_atom_site_adp_type
_atom_site_occupancy
_atom_site_site_symmetry_order
_atom_site_calc_flag
_atom_site_refinement_flags_posn
_atom_site_refinement_flags_adp
C1 C 0.8493(3) 0.3673(3) 0.7338(3) 0.0500(10) Uani 1 1 d . .
H1 H 0.8947 0.3481 0.6832 0.060 Uiso 1 1 calc R U
C2 C 0.7886(3) 0.4810(4) 0.7214(3) 0.0598(11) Uani 1 1 d . .
H13A H 0.7717 0.5164 0.7750 0.072 Uiso 1 1 calc R U
H13B H 0.8385 0.5305 0.6881 0.072 Uiso 1 1 calc R U
C3 C 0.6638(4) 0.3294(3) 0.6742(2) 0.0497(10) Uani 1 1 d . .
H11 H 0.5811 0.3088 0.6887 0.060 Uiso 1 1 calc R U
C4 C 0.6944(3) 0.2836(4) 0.5877(3) 0.0493(10) Uani 1 1 d . .
C5 C 0.6428(3) 0.3307(4) 0.5165(3) 0.0586(11) Uani 1 1 d . .
H9 H 0.5915 0.3916 0.5222 0.070 Uiso 1 1 calc R U
C6 C 0.6665(4) 0.2887(4) 0.4375(3) 0.0666(12) Uani 1 1 d . .
H8 H 0.6321 0.3214 0.3903 0.080 Uiso 1 1 calc R U
C7 C 0.7416(4) 0.1978(4) 0.4292(3) 0.0679(13) Uani 1 1 d . .
H7 H 0.7576 0.1688 0.3762 0.081 Uiso 1 1 calc R U
C8 C 0.7927(4) 0.1500(4) 0.4984(3) 0.0625(12) Uani 1 1 d . .
H6 H 0.8438 0.0891 0.4917 0.075 Uiso 1 1 calc R U
C9 C 0.7697(3) 0.1910(3) 0.5790(3) 0.0528(10) Uani 1 1 d . .
C10 C 0.8267(4) 0.1367(4) 0.6541(3) 0.0652(12) Uani 1 1 d . .
H4A H 0.9115 0.1553 0.6552 0.078 Uiso 1 1 calc R U
H4B H 0.8198 0.0561 0.6488 0.078 Uiso 1 1 calc R U
C11 C 0.7695(4) 0.1731(4) 0.7364(3) 0.0618(12) Uani 1 1 d . .
H3A H 0.6949 0.1324 0.7440 0.074 Uiso 1 1 calc R U
H3B H 0.8226 0.1530 0.7823 0.074 Uiso 1 1 calc R U
C12 C 0.9303(4) 0.3582(3) 0.8092(3) 0.0560(10) Uani 1 1 d . .
C13 C 0.8888(5) 0.3794(4) 0.8889(3) 0.0789(15) Uani 1 1 d . .
H19 H 0.8093 0.4006 0.8972 0.095 Uiso 1 1 calc R U
C14 C 0.9667(8) 0.3689(4) 0.9579(3) 0.104(2) Uani 1 1 d . .
H18 H 0.9400 0.3854 1.0118 0.124 Uiso 1 1 calc R U
C15 C 1.0823(8) 0.3342(5) 0.9447(5) 0.112(2) Uani 1 1 d . .
H17 H 1.1336 0.3261 0.9904 0.134 Uiso 1 1 calc R U
C16 C 1.1238(5) 0.3113(5) 0.8665(5) 0.102(2) Uani 1 1 d . .
H16 H 1.2024 0.2869 0.8587 0.123 Uiso 1 1 calc R U
C17 C 1.0493(4) 0.3245(4) 0.7993(3) 0.0741(13) Uani 1 1 d . .
H15 H 1.0785 0.3106 0.7456 0.089 Uiso 1 1 calc R U
C18 C 0.5233(3) 0.5063(3) 0.8073(2) 0.0470(9) Uani 1 1 d . .
C19 C 0.4616(4) 0.4115(3) 0.8314(2) 0.0558(10) Uani 1 1 d . .
H28 H 0.4366 0.3599 0.7914 0.067 Uiso 1 1 calc R U
C20 C 0.4373(4) 0.3936(4) 0.9151(2) 0.0600(11) Uani 1 1 d . .
H27 H 0.3969 0.3290 0.9312 0.072 Uiso 1 1 calc R U
C21 C 0.4719(3) 0.4702(4) 0.9761(2) 0.0557(10) Uani 1 1 d . .
C22 C 0.5339(4) 0.5650(4) 0.9503(3) 0.0620(12) Uani 1 1 d . .
H25 H 0.5589 0.6168 0.9902 0.074 Uiso 1 1 calc R U
C23 C 0.5589(4) 0.5835(3) 0.8668(2) 0.0557(10) Uani 1 1 d . .
H24 H 0.5996 0.6478 0.8505 0.067 Uiso 1 1 calc R U
C24 C 0.4405(5) 0.4504(4) 1.0669(2) 0.0778(14) Uani 1 1 d . .
H29A H 0.4657 0.5134 1.0998 0.117 Uiso 1 1 calc R U
H29B H 0.4805 0.3843 1.0865 0.117 Uiso 1 1 calc R U
H29C H 0.3552 0.4410 1.0723 0.117 Uiso 1 1 calc R U
N2 N 0.7445(3) 0.2930(3) 0.74091(19) 0.0494(8) Uani 1 1 d . .
N1 N 0.6763(3) 0.4528(3) 0.6768(2) 0.0497(8) Uani 1 1 d . .
O1 O 0.4606(2) 0.4856(3) 0.65093(16) 0.0637(8) Uani 1 1 d . .
O2 O 0.5951(3) 0.6429(2) 0.69153(18) 0.0676(8) Uani 1 1 d . .
S1 S 0.55751(9) 0.52836(9) 0.70060(6) 0.0519(3) Uani 1 1 d . .
loop_
_atom_site_aniso_label
_atom_site_aniso_U_11
_atom_site_aniso_U_22
_atom_site_aniso_U_33
_atom_site_aniso_U_23
_atom_site_aniso_U_13
_atom_site_aniso_U_12
C1 0.049(2) 0.041(2) 0.060(2) -0.007(2) 0.003(2) -0.0019(19)
C2 0.058(2) 0.042(2) 0.079(3) 0.002(2) 0.008(2) -0.003(2)
C3 0.050(2) 0.040(2) 0.059(2) 0.0023(19) 0.002(2) -0.0012(19)
C4 0.044(2) 0.045(2) 0.059(2) -0.003(2) -0.0005(19) -0.0033(19)
C5 0.054(2) 0.055(3) 0.067(3) -0.004(2) -0.004(2) 0.002(2)
C6 0.073(3) 0.066(3) 0.061(3) -0.001(3) -0.006(3) -0.009(3)
C7 0.073(3) 0.068(3) 0.063(3) -0.018(3) 0.004(2) -0.016(3)
C8 0.055(2) 0.055(3) 0.078(3) -0.016(3) 0.008(2) -0.003(2)
C9 0.047(2) 0.044(2) 0.067(3) -0.011(2) -0.001(2) -0.0037(19)
C10 0.074(3) 0.043(3) 0.079(3) -0.008(2) -0.013(3) 0.009(2)
C11 0.071(3) 0.042(2) 0.072(3) 0.010(2) -0.009(2) -0.006(2)
C12 0.065(2) 0.042(2) 0.062(2) -0.004(2) -0.004(2) -0.007(2)
C13 0.115(4) 0.055(3) 0.067(3) -0.007(3) -0.002(3) 0.004(3)
C14 0.193(7) 0.052(3) 0.066(3) -0.012(3) -0.018(5) -0.015(5)
C15 0.146(6) 0.069(4) 0.121(6) -0.001(4) -0.075(5) -0.025(4)
C16 0.083(4) 0.093(5) 0.131(5) 0.007(5) -0.042(4) -0.022(3)
C17 0.065(3) 0.068(3) 0.090(3) 0.001(3) -0.017(3) -0.014(3)
C18 0.0453(19) 0.043(2) 0.052(2) -0.0029(19) -0.0021(18) 0.0044(17)
C19 0.064(3) 0.049(2) 0.054(2) -0.006(2) -0.005(2) -0.008(2)
C20 0.066(3) 0.055(3) 0.059(2) 0.005(2) 0.001(2) -0.012(2)
C21 0.059(2) 0.056(3) 0.052(2) -0.002(2) -0.0049(19) 0.008(2)
C22 0.075(3) 0.052(3) 0.059(2) -0.017(2) -0.008(2) 0.002(2)
C23 0.064(3) 0.041(2) 0.062(2) -0.007(2) -0.002(2) -0.005(2)
C24 0.103(4) 0.076(3) 0.055(2) 0.000(2) -0.004(3) 0.014(3)
N2 0.0535(18) 0.0413(19) 0.0534(19) 0.0037(16) -0.0028(16) -0.0049(17)
N1 0.0509(17) 0.0406(19) 0.0577(19) -0.0041(16) 0.0052(16) 0.0014(15)
O1 0.0600(16) 0.075(2) 0.0560(15) -0.0084(15) -0.0138(14) 0.0125(17)
O2 0.090(2) 0.0384(16) 0.0742(19) 0.0110(16) 0.0125(18) 0.0097(15)
S1 0.0607(6) 0.0420(5) 0.0530(5) 0.0028(5) 0.0020(5) 0.0092(5)
loop_
_atom_type_symbol
_atom_type_description
_atom_type_scat_dispersion_real
_atom_type_scat_dispersion_imag
_atom_type_scat_source
C C 0.0033 0.0016 'International Tables Vol C Tables 4.2.6.8 and 6.1.1.4'
H H 0.0000 0.0000 'International Tables Vol C Tables 4.2.6.8 and 6.1.1.4'
N N 0.0061 0.0033 'International Tables Vol C Tables 4.2.6.8 and 6.1.1.4'
O O 0.0106 0.0060 'International Tables Vol C Tables 4.2.6.8 and 6.1.1.4'
S S 0.1246 0.1234 'International Tables Vol C Tables 4.2.6.8 and 6.1.1.4'
loop_
_geom_angle_atom_site_label_1
_geom_angle_atom_site_label_2
_geom_angle_atom_site_label_3
_geom_angle
N2 C1 C12 111.8(3)
N2 C1 C2 101.3(3)
C12 C1 C2 115.6(3)
N1 C2 C1 103.4(3)
N2 C3 N1 102.6(3)
N2 C3 C4 114.5(3)
N1 C3 C4 111.2(3)
C5 C4 C9 119.3(4)
C5 C4 C3 120.0(4)
C9 C4 C3 120.7(4)
C6 C5 C4 121.1(4)
C7 C6 C5 119.4(5)
C8 C7 C6 120.4(4)
C7 C8 C9 121.2(4)
C4 C9 C8 118.6(4)
C4 C9 C10 121.2(4)
C8 C9 C10 120.2(4)
C9 C10 C11 112.7(4)
N2 C11 C10 113.7(3)
C13 C12 C17 118.5(4)
C13 C12 C1 121.5(4)
C17 C12 C1 120.0(4)
C12 C13 C14 119.9(5)
C15 C14 C13 119.1(6)
C16 C15 C14 121.5(6)
C15 C16 C17 119.4(6)
C16 C17 C12 121.6(5)
C19 C18 C23 120.0(4)
C19 C18 S1 120.0(3)
C23 C18 S1 120.0(3)
C20 C19 C18 119.7(4)
C19 C20 C21 121.3(4)
C20 C21 C22 118.0(4)
C20 C21 C24 120.2(4)
C22 C21 C24 121.8(4)
C23 C22 C21 121.1(4)
C22 C23 C18 119.8(4)
C3 N2 C11 112.0(3)
C3 N2 C1 104.6(3)
C11 N2 C1 116.0(3)
C2 N1 C3 108.7(3)
C2 N1 S1 116.3(3)
C3 N1 S1 118.5(3)
O1 S1 O2 120.23(19)
O1 S1 N1 106.38(16)
O2 S1 N1 105.40(17)
O1 S1 C18 108.44(17)
O2 S1 C18 107.60(18)
N1 S1 C18 108.28(17)
loop_
_geom_bond_atom_site_label_1
_geom_bond_atom_site_label_2
_geom_bond_distance
C1 N2 1.471(5)
C1 C12 1.505(5)
C1 C2 1.531(5)
C2 N1 1.476(5)
C3 N2 1.457(5)
C3 N1 1.484(5)
C3 C4 1.522(5)
C4 C5 1.391(5)
C4 C9 1.396(5)
C5 C6 1.380(6)
C6 C7 1.378(6)
C7 C8 1.365(6)
C8 C9 1.399(5)
C9 C10 1.501(6)
C10 C11 1.522(6)
C11 N2 1.463(5)
C12 C13 1.375(6)
C12 C17 1.393(6)
C13 C14 1.405(7)
C14 C15 1.369(9)
C15 C16 1.357(9)
C16 C17 1.363(6)
C18 C19 1.380(5)
C18 C23 1.382(5)
C18 S1 1.761(4)
C19 C20 1.377(5)
C20 C21 1.389(5)
C21 C22 1.389(6)
C21 C24 1.507(5)
C22 C23 1.377(5)
N1 S1 1.646(3)
O1 S1 1.432(3)
O2 S1 1.439(3)
