#------------------------------------------------------------------------------
#$Date: 2016-12-05 17:06:52 +0200 (Mon, 05 Dec 2016) $
#$Revision: 188898 $
#$URL: file:///home/coder/svn-repositories/cod/cif/1/54/47/1544737.cif $
#------------------------------------------------------------------------------
#
# This file is available in the Crystallography Open Database (COD),
# http://www.crystallography.net/
#
# All data on this site have been placed in the public domain by the
# contributors.
#
data_1544737
loop_
_publ_author_name
'Yoon, Won Sik'
'Kim, Dong Won'
'Park, Jun-Mo'
'Cho, Illhun'
'Kwon, Oh Kyu'
'Whang, Dong Ryeol'
'Kim, Jin Hong'
'Park, Jung-Hwa'
'Park, Soo Young'
_publ_section_title
;
 A Novel Bis-Lactam Acceptor with Outstanding Molar Extinction Coefficient
 and Structural Planarity for Donor--Acceptor Type Conjugated Polymer
;
_journal_issue                   22
_journal_name_full               Macromolecules
_journal_page_first              8489
_journal_paper_doi               10.1021/acs.macromol.6b01680
_journal_volume                  49
_journal_year                    2016
_chemical_formula_sum            'C32 H42 N2 O2 S2'
_chemical_formula_weight         550.79
_chemical_name_systematic
; 
 ? 
;
_space_group_crystal_system      monoclinic
_space_group_IT_number           14
_space_group_name_Hall           '-P 2ybc'
_space_group_name_H-M_alt        'P 1 21/c 1'
_symmetry_space_group_name_Hall  '-P 2ybc'
_symmetry_space_group_name_H-M   'P 1 21/c 1'
_atom_sites_solution_hydrogens   geom
_audit_creation_method           SHELXL-2013
_cell_angle_alpha                90
_cell_angle_beta                 111.9180(10)
_cell_angle_gamma                90
_cell_formula_units_Z            2
_cell_length_a                   16.0039(3)
_cell_length_b                   5.66780(10)
_cell_length_c                   17.5189(3)
_cell_measurement_reflns_used    4940
_cell_measurement_temperature    173(2)
_cell_measurement_theta_max      28.18
_cell_measurement_theta_min      2.51
_cell_volume                     1474.22(5)
_computing_cell_refinement       'Bruker SAINT'
_computing_data_collection       'Bruker APEX2'
_computing_data_reduction        'Bruker SAINT'
_computing_molecular_graphics    'Bruker SHELXTL'
_computing_publication_material  'Bruker SHELXTL'
_computing_structure_refinement  'SHELXL-2013 (Sheldrick, 2013)'
_computing_structure_solution    'SHELXS-97 (Sheldrick, 2008)'
_diffrn_ambient_temperature      173(2)
_diffrn_measured_fraction_theta_full 0.999
_diffrn_measured_fraction_theta_max 0.998
_diffrn_measurement_device_type  'Bruker APEX-II CCD'
_diffrn_measurement_method       '\f and \w scans'
_diffrn_radiation_type           MoK\a
_diffrn_radiation_wavelength     0.71073
_diffrn_reflns_av_R_equivalents  0.0256
_diffrn_reflns_av_unetI/netI     0.0232
_diffrn_reflns_Laue_measured_fraction_full 0.999
_diffrn_reflns_Laue_measured_fraction_max 0.998
_diffrn_reflns_limit_h_max       21
_diffrn_reflns_limit_h_min       -21
_diffrn_reflns_limit_k_max       7
_diffrn_reflns_limit_k_min       -7
_diffrn_reflns_limit_l_max       23
_diffrn_reflns_limit_l_min       -22
_diffrn_reflns_number            13647
_diffrn_reflns_point_group_measured_fraction_full 0.999
_diffrn_reflns_point_group_measured_fraction_max 0.998
_diffrn_reflns_theta_full        25.242
_diffrn_reflns_theta_max         28.246
_diffrn_reflns_theta_min         1.372
_diffrn_source                   'turbo x-ray'
_exptl_absorpt_coefficient_mu    0.212
_exptl_absorpt_correction_T_max  0.7457
_exptl_absorpt_correction_T_min  0.6622
_exptl_absorpt_correction_type   multi-scan
_exptl_crystal_colour            violet
_exptl_crystal_density_diffrn    1.241
_exptl_crystal_description       needle
_exptl_crystal_F_000             592
_exptl_crystal_size_max          0.750
_exptl_crystal_size_mid          0.140
_exptl_crystal_size_min          0.100
_refine_diff_density_max         0.320
_refine_diff_density_min         -0.271
_refine_diff_density_rms         0.049
_refine_ls_extinction_method     none
_refine_ls_goodness_of_fit_ref   1.037
_refine_ls_hydrogen_treatment    constr
_refine_ls_matrix_type           full
_refine_ls_number_parameters     172
_refine_ls_number_reflns         3647
_refine_ls_number_restraints     0
_refine_ls_restrained_S_all      1.037
_refine_ls_R_factor_all          0.0504
_refine_ls_R_factor_gt           0.0411
_refine_ls_shift/su_max          0.000
_refine_ls_shift/su_mean         0.000
_refine_ls_structure_factor_coef Fsqd
_refine_ls_weighting_details
'w=1/[\s^2^(Fo^2^)+(0.0653P)^2^+0.3966P] where P=(Fo^2^+2Fc^2^)/3'
_refine_ls_weighting_scheme      calc
_refine_ls_wR_factor_gt          0.1121
_refine_ls_wR_factor_ref         0.1211
_reflns_Friedel_coverage         0.000
_reflns_number_gt                2989
_reflns_number_total             3647
_reflns_threshold_expression     'I > 2\s(I)'
_cod_data_source_file            ma6b01680_si_002.cif
_cod_data_source_block           NTDT
_cod_database_code               1544737
_shelx_space_group_comment
; 
The symmetry employed for this shelxl refinement is uniquely defined 
by the following loop, which should always be used as a source of 
symmetry information in preference to the above space-group names. 
They are only intended as comments. 
;
_shelx_estimated_absorpt_t_min   0.857
_shelx_estimated_absorpt_t_max   0.979
_shelxl_version_number           2013-3
_shelx_res_file
; 
TITL NTDT in P2(1)/c 
CELL 0.71073  16.0039   5.6678  17.5189  90.000 111.918  90.000 
ZERR    2.00   0.0003   0.0001   0.0003   0.000   0.001   0.000 
LATT 1 
SYMM -X, 0.5+Y, 0.5-Z 
SFAC C  H  N  O  S 
UNIT 64  84  4  4  4 
L.S. 10 
BOND 
FMAP 2 
PLAN 20 
SIZE 0.10 0.14 0.75 
TEMP -100.000 
ACTA 
WGHT    0.065300    0.396600 
FVAR       0.17411 
S1    5    1.049545    0.733203    0.198121    11.00000    0.04332    0.03951 = 
         0.03902   -0.00435    0.02276   -0.00262 
O1    4    0.912331    0.458346    0.105891    11.00000    0.03840    0.03531 = 
         0.04587   -0.00179    0.02474    0.00495 
N1    3    0.910839    0.144637    0.024521    11.00000    0.02740    0.03203 = 
         0.03274    0.00270    0.01691    0.00471 
C1    1    1.147920    0.879058    0.246117    11.00000    0.05096    0.04354 = 
         0.03445   -0.00498    0.01879   -0.00788 
AFIX  43 
H1A   2    1.154279    1.009139    0.282056    11.00000   -1.20000 
AFIX   0 
C2    1    1.216515    0.788836    0.227351    11.00000    0.03975    0.05473 = 
         0.04328   -0.00600    0.01429   -0.00819 
AFIX  43 
H2A   2    1.276118    0.849744    0.248532    11.00000   -1.20000 
AFIX   0 
C3    1    1.189815    0.594764    0.172980    11.00000    0.03873    0.04763 = 
         0.04150   -0.00651    0.01766   -0.00189 
AFIX  43 
H3A   2    1.229560    0.510004    0.154068    11.00000   -1.20000 
AFIX   0 
C4    1    1.098876    0.541564    0.150212    11.00000    0.03514    0.03463 = 
         0.02966    0.00410    0.01588    0.00315 
C5    1    1.050461    0.352804    0.095006    11.00000    0.03225    0.03176 = 
         0.02872    0.00596    0.01556    0.00362 
C6    1    0.954355    0.325772    0.077098    11.00000    0.03374    0.02947 = 
         0.03133    0.00598    0.01790    0.00447 
C7    1    0.954216   -0.014081   -0.008665    11.00000    0.02932    0.03096 = 
         0.02826    0.00627    0.01587    0.00648 
C8    1    0.907653   -0.201982   -0.060044    11.00000    0.02815    0.03587 = 
         0.03117    0.00486    0.01514    0.00367 
AFIX  43 
H8A   2    0.845490   -0.223833   -0.070513    11.00000   -1.20000 
AFIX   0 
C9    1    0.813341    0.124889    0.006854    11.00000    0.02585    0.03487 = 
         0.03576    0.00200    0.01555    0.00539 
AFIX  23 
H9A   2    0.782435    0.065243   -0.049891    11.00000   -1.20000 
H9B   2    0.788857    0.283353    0.010102    11.00000   -1.20000 
AFIX   0 
C10   1    0.793813   -0.039609    0.066720    11.00000    0.02924    0.03433 = 
         0.03660    0.00310    0.01668    0.00430 
AFIX  23 
H10A  2    0.829327    0.010756    0.123798    11.00000   -1.20000 
H10B  2    0.812614   -0.201850    0.059549    11.00000   -1.20000 
AFIX   0 
C11   1    0.694091   -0.039236    0.053019    11.00000    0.03020    0.03630 = 
         0.04319    0.00544    0.01875    0.00395 
AFIX  23 
H11A  2    0.677447    0.118612    0.067003    11.00000   -1.20000 
H11B  2    0.658491   -0.068251   -0.005972    11.00000   -1.20000 
AFIX   0 
C12   1    0.669617   -0.224340    0.104116    11.00000    0.03080    0.03715 = 
         0.03824    0.00400    0.01561    0.00211 
AFIX  23 
H12A  2    0.703947   -0.192299    0.163145    11.00000   -1.20000 
H12B  2    0.688106   -0.381512    0.091388    11.00000   -1.20000 
AFIX   0 
C13   1    0.569514   -0.230468    0.088974    11.00000    0.03222    0.03964 = 
         0.04534    0.00678    0.01945    0.00413 
AFIX  23 
H13A  2    0.552478   -0.079377    0.107569    11.00000   -1.20000 
H13B  2    0.534816   -0.244672    0.029104    11.00000   -1.20000 
AFIX   0 
C14   1    0.543673   -0.431797    0.132770    11.00000    0.03245    0.03691 = 
         0.04235    0.00376    0.01858    0.00372 
AFIX  23 
H14A  2    0.577878   -0.415815    0.192666    11.00000   -1.20000 
H14B  2    0.561935   -0.582362    0.114892    11.00000   -1.20000 
AFIX   0 
C15   1    0.443772   -0.443970    0.117452    11.00000    0.03499    0.04527 = 
         0.06039    0.00804    0.02418    0.00355 
AFIX  23 
H15A  2    0.424480   -0.291938    0.133386    11.00000   -1.20000 
H15B  2    0.409260   -0.468182    0.057969    11.00000   -1.20000 
AFIX   0 
C16   1    0.422350   -0.642164    0.165543    11.00000    0.04881    0.05872 = 
         0.08261    0.01010    0.03854   -0.00246 
AFIX  33 
H16A  2    0.357602   -0.643025    0.154328    11.00000   -1.50000 
H16B  2    0.455843   -0.617897    0.224524    11.00000   -1.50000 
H16C  2    0.439778   -0.793508    0.148822    11.00000   -1.50000 
  
AFIX   0 
HKLF 4 
  
REM  NTDT in P2(1)/c 
REM R1 =  0.0411 for    2989 Fo > 4sig(Fo)  and  0.0504 for all    3647 data 
REM    172 parameters refined using      0 restraints 
  
END 
  
WGHT      0.0653      0.3972 
  
REM Highest difference peak  0.320,  deepest hole -0.271,  1-sigma level  0.049 
Q1    1   1.0082  0.3361  0.0889  11.00000  0.05    0.32 
Q2    1   1.0000  0.0000  0.0000  10.50000  0.05    0.31 
Q3    1   1.1491  0.5692  0.1582  11.00000  0.05    0.29 
Q4    1   0.9319 -0.1127 -0.0317  11.00000  0.05    0.28 
Q5    1   1.0787  0.6146  0.1815  11.00000  0.05    0.27 
Q6    1   1.0781  0.2733  0.0871  11.00000  0.05    0.27 
Q7    1   0.7419 -0.0458  0.0629  11.00000  0.05    0.26 
Q8    1   1.0709  0.4629  0.1133  11.00000  0.05    0.26 
Q9    1   0.6796 -0.1114  0.0828  11.00000  0.05    0.25 
Q10   1   0.5001 -0.4467  0.1254  11.00000  0.05    0.24 
Q11   1   0.5535 -0.3300  0.1097  11.00000  0.05    0.24 
Q12   1   0.6191 -0.2337  0.0987  11.00000  0.05    0.24 
Q13   1   1.1987  0.6962  0.1925  11.00000  0.05    0.24 
Q14   1   0.9298  0.0710  0.0049  11.00000  0.05    0.21 
Q15   1   0.8608  0.1205  0.0162  11.00000  0.05    0.20 
Q16   1   0.7997  0.0273  0.0341  11.00000  0.05    0.19 
Q17   1   1.1068  0.8111  0.2228  11.00000  0.05    0.19 
Q18   1   1.1845  0.8106  0.2388  11.00000  0.05    0.19 
Q19   1   0.4305 -0.5534  0.1343  11.00000  0.05    0.18 
Q20   1   0.9293  0.2566  0.0434  11.00000  0.05    0.18 
;
_shelx_res_checksum              33612
_shelx_hkl_file
; 
   1   0   0  398.23    9.35 
  -1   0   0  404.18    9.50 
  -2   0   0  253.53    5.14 
   2   0   0  250.42    5.15 
   2   0   0  216.01    6.05 
  -3   0   0   35.15    0.79 
  -3   0   0   34.87    0.79 
   3   0   0   34.26    0.79 
   3   0   0   33.31    0.79 
   3   0   0   35.13    0.79 
   4   0   0   11.28    0.32 
  -4   0   0   11.57    0.34 
   4   0   0   11.37    0.33 
   4   0   0   11.02    0.32 
   5   0   0    1.24    0.09 
   5   0   0    1.08    0.07 
   5   0   0    1.26    0.08 
  -5   0   0    0.88    0.08 
   6   0   0  130.32    2.91 
   6   0   0  132.47    2.86 
  -6   0   0  132.10    2.86 
   6   0   0  131.22    2.92 
   7   0   0   75.75    1.72 
   7   0   0   74.24    1.71 
  -7   0   0   73.80    1.70 
   7   0   0   74.59    1.71 
  -8   0   0  505.69   10.69 
   8   0   0  514.23   11.22 
   8   0   0  508.21   10.84 
   8   0   0  509.00   11.19 
   9   0   0    1.99    0.16 
   9   0   0    1.97    0.14 
  -9   0   0    1.89    0.15 
   9   0   0    2.08    0.14 
  10   0   0    4.99    0.24 
  10   0   0    5.27    0.23 
  10   0   0    5.04    0.27 
 -10   0   0    5.56    0.27 
  11   0   0    2.33    0.19 
  11   0   0    2.27    0.16 
 -11   0   0    1.99    0.17 
  11   0   0    1.84    0.16 
 -12   0   0    8.24    0.37 
  12   0   0    7.33    0.36 
  12   0   0    7.20    0.34 
  12   0   0    8.20    0.32 
  13   0   0    7.87    0.33 
 -13   0   0    6.95    0.37 
  13   0   0    7.64    0.36 
  14   0   0    2.09    0.17 
  14   0   0    2.13    0.20 
  15   0   0    3.26    0.22 
  15   0   0    3.24    0.25 
  16   0   0    0.21    0.09 
  16   0   0    0.18    0.10 
  17   0   0    3.53    0.25 
  17   0   0    3.08    0.28 
  18   0   0    0.56    0.12 
  18   0   0    0.59    0.17 
  19   0   0    3.71    0.27 
   0  -1   0   -0.02    0.02 
   0   1   0    0.00    0.02 
   0   1   0    0.01    0.03 
  -1  -1   0   26.02    0.68 
   1  -1   0   26.15    0.65 
   1  -1   0   25.64    0.59 
   1  -1   0   26.70    0.60 
  -1   1   0   27.34    0.64 
   1   1   0   25.98    0.68 
  -2  -1   0  466.97   10.03 
   2  -1   0  451.45   10.11 
   2  -1   0  482.54    9.88 
  -2  -1   0  419.71   11.86 
   2  -1   0  446.32   10.64 
   2   1   0  417.21   11.70 
  -3  -1   0    0.00    0.01 
  -3  -1   0    0.01    0.02 
   3  -1   0    0.03    0.03 
   3  -1   0    0.03    0.01 
   3  -1   0    0.01    0.02 
   3  -1   0   -0.01    0.02 
   3   1   0    0.00    0.02 
  -4  -1   0   22.10    0.54 
  -4  -1   0   22.59    0.57 
  -4  -1   0   21.87    0.51 
   4  -1   0   21.81    0.52 
   4  -1   0   20.96    0.54 
   4  -1   0   21.82    0.59 
  -4  -1   0   22.36    0.51 
   4   1   0   21.55    0.54 
  -4   1   0   22.27    0.54 
   4   1   0   22.64    0.53 
   4   1   0   22.05    0.53 
   4   1   0   22.99    0.56 
  -5  -1   0   26.60    0.61 
  -5  -1   0   25.87    0.67 
   5  -1   0   25.59    0.62 
  -5  -1   0   25.99    0.66 
   5  -1   0   25.75    0.69 
   5  -1   0   26.31    0.66 
   5   1   0   25.87    0.62 
   5   1   0   26.21    0.64 
  -5   1   0   25.70    0.64 
   5   1   0   26.21    0.63 
  -6  -1   0  131.09    2.87 
   6  -1   0  132.45    2.87 
  -6  -1   0  135.47    3.11 
   6  -1   0  132.39    2.90 
   6  -1   0  131.15    2.98 
   6   1   0  131.10    2.94 
   6   1   0  135.25    2.91 
   6   1   0  128.60    2.84 
  -6   1   0  126.59    2.84 
   7  -1   0    7.43    0.30 
  -7  -1   0    7.27    0.29 
   7  -1   0    7.12    0.28 
   7  -1   0    7.23    0.24 
  -7  -1   0    7.44    0.25 
   7   1   0    7.07    0.27 
   7   1   0    7.44    0.25 
   7   1   0    6.94    0.23 
  -7   1   0    7.33    0.27 
   8  -1   0    4.49    0.23 
   8  -1   0    4.08    0.22 
  -8  -1   0    4.22    0.22 
   8  -1   0    4.46    0.18 
   8   1   0    4.46    0.18 
   8   1   0    4.57    0.22 
  -8   1   0    4.16    0.21 
   8   1   0    4.59    0.19 
   9  -1   0    1.61    0.15 
   9  -1   0    1.75    0.16 
  -9  -1   0    1.22    0.13 
   9  -1   0    1.54    0.11 
  -9   1   0    1.97    0.15 
   9   1   0    1.38    0.13 
   9   1   0    1.40    0.10 
   9   1   0    1.37    0.11 
  10  -1   0    6.83    0.33 
 -10  -1   0    7.03    0.32 
  10  -1   0    6.89    0.33 
  10  -1   0    7.14    0.27 
  10   1   0    7.41    0.27 
  10   1   0    7.36    0.29 
 -10   1   0    8.03    0.32 
  10   1   0    6.61    0.31 
  11  -1   0    1.96    0.18 
  11  -1   0    2.09    0.15 
  11  -1   0    1.71    0.17 
 -11  -1   0    1.98    0.18 
  11   1   0    2.00    0.14 
  11   1   0    2.31    0.17 
  12  -1   0    2.27    0.21 
  12  -1   0    2.00    0.15 
  12  -1   0    2.35    0.21 
 -12  -1   0    2.29    0.20 
  12   1   0    2.08    0.16 
  12   1   0    2.08    0.17 
  13  -1   0    5.04    0.31 
  13  -1   0    4.98    0.24 
  13  -1   0    4.77    0.31 
 -13  -1   0    5.13    0.31 
  13   1   0    5.10    0.26 
  13   1   0    5.18    0.27 
  14  -1   0    2.85    0.19 
 -14  -1   0    2.85    0.25 
  14  -1   0    2.76    0.25 
  14  -1   0    3.29    0.26 
  14   1   0    3.35    0.22 
  14   1   0    2.97    0.21 
 -15  -1   0    2.83    0.26 
  15  -1   0    3.03    0.27 
  15  -1   0    3.31    0.21 
  15   1   0    3.04    0.23 
  15   1   0    2.80    0.22 
  16  -1   0    1.65    0.16 
  16  -1   0    1.86    0.23 
  16   1   0    1.60    0.17 
  16   1   0    2.05    0.21 
  17  -1   0    1.76    0.24 
  17  -1   0    1.69    0.16 
  17   1   0    1.81    0.19 
  18  -1   0    0.04    0.07 
  18  -1   0    0.05    0.10 
  18   1   0    0.01    0.08 
  19  -1   0    1.17    0.22 
  19  -1   0    1.28    0.16 
  19   1   0    1.36    0.18 
   0   2   0    6.09    0.27 
   1  -2   0   14.32    0.44 
   1   2   0   14.08    0.46 
   2  -2   0   21.15    0.48 
   2  -2   0   20.66    0.61 
  -2  -2   0   20.97    0.48 
   2  -2   0   21.01    0.48 
  -2  -2   0   21.71    0.63 
  -2  -2   0   21.80    0.48 
   2   2   0   20.90    0.61 
   3  -2   0   49.71    1.05 
   3  -2   0   49.72    1.05 
  -3  -2   0   47.31    1.04 
  -3  -2   0   44.76    1.21 
   3  -2   0   45.63    1.19 
   3   2   0   46.15    1.20 
   4  -2   0    2.69    0.13 
   4  -2   0    3.09    0.13 
  -4  -2   0    2.83    0.13 
  -4  -2   0    2.55    0.15 
   4  -2   0    2.76    0.18 
   4   2   0    2.78    0.14 
  -5  -2   0    5.79    0.21 
   5  -2   0    5.58    0.27 
   5  -2   0    5.82    0.22 
  -5  -2   0    5.46    0.24 
   5   2   0    5.85    0.21 
   6  -2   0    0.54    0.07 
   6  -2   0    0.50    0.10 
  -6  -2   0    0.48    0.07 
   6  -2   0    0.51    0.07 
   6   2   0    0.45    0.05 
   6   2   0    0.48    0.05 
   7  -2   0    5.71    0.25 
  -7  -2   0    5.76    0.25 
   7  -2   0    5.67    0.30 
  -7  -2   0    5.65    0.24 
   7   2   0    5.56    0.21 
   7   2   0    5.49    0.20 
   8  -2   0    4.55    0.13 
  -8  -2   0    4.25    0.23 
   8  -2   0    4.59    0.23 
   8   2   0    4.60    0.18 
   8   2   0    4.72    0.20 
   9  -2   0   10.71    0.42 
   9  -2   0   10.98    0.30 
  -9  -2   0   10.63    0.41 
   9  -2   0   11.89    0.48 
   9   2   0   11.78    0.35 
   9   2   0   11.64    0.37 
  10  -2   0   23.30    0.71 
  10  -2   0   22.82    0.77 
 -10  -2   0   22.88    0.71 
  10  -2   0   23.13    0.58 
  10   2   0   22.43    0.61 
  10   2   0   23.81    0.66 
 -11  -2   0   25.76    0.78 
  11  -2   0   25.13    0.78 
 -11  -2   0   23.98    0.58 
  11  -2   0   25.17    0.63 
  11  -2   0   24.20    0.83 
  11   2   0   25.08    0.67 
  11   2   0   24.50    0.71 
  12  -2   0   -0.06    0.03 
  12  -2   0   -0.03    0.07 
  12  -2   0    0.06    0.08 
 -12  -2   0    0.00    0.03 
 -12  -2   0    0.00    0.07 
  12   2   0   -0.01    0.06 
  12   2   0    0.01    0.04 
 -13  -2   0    6.01    0.35 
  13  -2   0    6.59    0.37 
  13  -2   0    6.89    0.40 
 -13  -2   0    6.21    0.21 
  13  -2   0    6.40    0.25 
  13   2   0    6.37    0.28 
  13   2   0    6.99    0.32 
 -14  -2   0   -0.02    0.04 
  14  -2   0    0.00    0.08 
  14  -2   0   -0.03    0.04 
 -14  -2   0   -0.03    0.08 
  14  -2   0    0.06    0.10 
  14   2   0   -0.03    0.06 
  14   2   0   -0.02    0.05 
  15  -2   0   -0.05    0.09 
 -15  -2   0   -0.03    0.08 
  15  -2   0    0.00    0.05 
  15  -2   0    0.00    0.09 
 -15  -2   0    0.01    0.04 
  15   2   0    0.01    0.07 
  16  -2   0   -0.05    0.04 
 -16  -2   0   -0.08    0.08 
 -16  -2   0   -0.01    0.04 
  16  -2   0   -0.04    0.09 
  16   2   0   -0.01    0.07 
  17  -2   0    0.92    0.21 
  17  -2   0    0.77    0.10 
  17   2   0    0.96    0.16 
  18  -2   0    3.01    0.19 
  18  -2   0    2.67    0.32 
  18   2   0    2.79    0.25 
  19  -2   0    1.18    0.12 
  19   2   0    0.84    0.16 
   0   3   0   -0.03    0.05 
  -1   3   0    8.29    0.40 
   1   3   0    8.77    0.38 
   2  -3   0    4.71    0.14 
   2  -3   0    5.11    0.14 
   2  -3   0    4.62    0.26 
   2   3   0    4.47    0.26 
   3  -3   0    2.33    0.10 
  -3  -3   0    2.09    0.09 
   3  -3   0    2.42    0.19 
  -3  -3   0    2.21    0.10 
   3  -3   0    2.29    0.11 
   3   3   0    2.35    0.17 
   4  -3   0   20.04    0.51 
   4  -3   0   19.96    0.51 
   4  -3   0   19.33    0.66 
  -4  -3   0   19.82    0.49 
   4   3   0   19.04    0.61 
   5  -3   0   53.67    1.19 
   5  -3   0   50.43    1.38 
   5  -3   0   51.70    1.19 
  -5  -3   0   49.96    1.17 
   5   3   0   49.67    1.32 
   6  -3   0   38.15    1.15 
   6  -3   0   41.27    0.99 
  -6  -3   0   40.20    0.97 
   6  -3   0   41.66    1.00 
   6   3   0   40.14    1.06 
   7  -3   0   19.80    0.71 
  -7  -3   0   19.36    0.56 
   7  -3   0   20.22    0.59 
   7   3   0   19.94    0.57 
  -8  -3   0   14.49    0.49 
   8  -3   0   15.08    0.50 
   8  -3   0   13.65    0.58 
   8   3   0   15.04    0.45 
   8   3   0   15.45    0.44 
  -9  -3   0   14.57    0.50 
   9  -3   0   14.56    0.61 
   9  -3   0   14.20    0.50 
   9   3   0   13.91    0.42 
 -10  -3   0    1.32    0.15 
  10  -3   0    1.43    0.17 
  10  -3   0    1.71    0.22 
  10   3   0    1.64    0.12 
  11  -3   0    1.08    0.19 
  11  -3   0    1.08    0.16 
 -11  -3   0    1.03    0.16 
  11   3   0    1.25    0.11 
 -12  -3   0   21.13    0.72 
  12  -3   0   21.95    0.74 
  12  -3   0   19.84    0.82 
  12   3   0   21.52    0.61 
  13  -3   0   16.61    0.75 
 -13  -3   0   17.46    0.65 
  13  -3   0   18.62    0.68 
  14  -3   0    6.01    0.38 
  14  -3   0    6.65    0.45 
 -14  -3   0    6.24    0.37 
  15  -3   0    4.55    0.34 
  15  -3   0    3.53    0.36 
 -15  -3   0    4.20    0.32 
  16  -3   0    3.76    0.38 
  16  -3   0    4.03    0.34 
 -16  -3   0    3.73    0.32 
  17  -3   0    2.29    0.32 
  17  -3   0    2.38    0.29 
 -17  -3   0    2.23    0.27 
 -18  -3   0    0.18    0.14 
   0   4   0   14.92    0.62 
  -1   4   0    4.49    0.32 
   1   4   0    4.76    0.31 
   2  -4   0    6.59    0.19 
   2  -4   0    6.85    0.19 
  -2   4   0    6.89    0.41 
   2   4   0    6.08    0.35 
   3  -4   0   16.48    0.63 
  -3  -4   0   16.75    0.41 
   3  -4   0   17.25    0.43 
  -3  -4   0   17.11    0.43 
   3  -4   0   17.14    0.43 
  -3   4   0   16.64    0.71 
   3   4   0   16.53    0.62 
   4  -4   0    3.33    0.27 
   4  -4   0    3.84    0.17 
   4  -4   0    3.58    0.16 
  -4  -4   0    3.56    0.15 
   4   4   0    3.54    0.24 
   5  -4   0    1.54    0.12 
  -5  -4   0    1.73    0.11 
   5  -4   0    1.76    0.12 
   5  -4   0    1.54    0.20 
   5   4   0    1.81    0.17 
   6  -4   0    4.00    0.20 
   6  -4   0    3.76    0.29 
   6   4   0    3.83    0.23 
   7  -4   0    5.58    0.37 
   7  -4   0    5.01    0.25 
   7   4   0    5.42    0.26 
  -8  -4   0    3.42    0.21 
   8  -4   0    3.55    0.22 
   8  -4   0    3.27    0.30 
   8   4   0    3.73    0.20 
   9  -4   0   -0.04    0.06 
  -9  -4   0    0.04    0.06 
   9  -4   0    0.13    0.11 
 -10  -4   0    2.57    0.21 
  10  -4   0    2.70    0.22 
  10  -4   0    2.57    0.29 
 -11  -4   0    7.01    0.36 
  11  -4   0    7.26    0.38 
  11  -4   0    8.18    0.50 
  12  -4   0    2.56    0.24 
 -12  -4   0    2.53    0.23 
  12  -4   0    2.67    0.31 
 -13  -4   0    0.42    0.12 
  13  -4   0    0.73    0.20 
  13  -4   0    0.34    0.12 
 -14  -4   0    0.02    0.09 
  14  -4   0    0.06    0.10 
  14  -4   0    0.05    0.12 
 -15  -4   0    0.46    0.15 
  15  -4   0    0.27    0.14 
  15  -4   0    0.60    0.20 
 -16  -4   0    0.08    0.12 
  16  -4   0    0.06    0.13 
   0   5   0   -0.11    0.07 
  -1   5   0    0.88    0.19 
   1   5   0    0.80    0.17 
   2  -5   0    3.67    0.14 
   2  -5   0    3.69    0.13 
   2   5   0    3.82    0.30 
  -2   5   0    3.41    0.34 
   3  -5   0   10.11    0.30 
  -3  -5   0    9.96    0.28 
   3  -5   0   10.48    0.30 
  -3   5   0   10.12    0.58 
   3   5   0   10.51    0.51 
   4  -5   0    6.10    0.23 
  -4  -5   0    6.28    0.21 
   4   5   0    6.75    0.38 
  -4   5   0    5.83    0.44 
   5  -5   0    9.24    0.51 
   5  -5   0    8.96    0.32 
  -5   5   0    8.51    0.55 
   5   5   0    9.77    0.45 
   6  -5   0    3.51    0.20 
   6  -5   0    3.97    0.34 
   6   5   0    4.08    0.27 
   7  -5   0    0.69    0.11 
   7  -5   0    0.47    0.16 
  -8  -5   0    0.84    0.12 
   8  -5   0    0.83    0.12 
   8  -5   0    0.89    0.21 
   9  -5   0    0.55    0.18 
   9  -5   0    0.56    0.12 
  -9  -5   0    0.53    0.11 
 -10  -5   0   -0.01    0.07 
  10  -5   0   -0.06    0.06 
  10  -5   0   -0.03    0.12 
 -11  -5   0    0.73    0.14 
  11  -5   0    0.79    0.23 
  11  -5   0    0.41    0.12 
 -12  -5   0    0.05    0.08 
  12  -5   0    0.08    0.10 
  12  -5   0   -0.13    0.11 
 -13  -5   0    0.49    0.13 
  13  -5   0    0.51    0.15 
  13  -5   0    0.41    0.19 
 -14  -5   0    0.53    0.15 
  14  -5   0    0.49    0.16 
   0   6   0    1.46    0.24 
   1   6   0    1.39    0.23 
  -1   6   0    1.21    0.24 
   2  -6   0   -0.01    0.04 
  -2   6   0   -0.04    0.13 
   2   6   0   -0.10    0.10 
   3  -6   0    0.37    0.07 
   3   6   0    0.38    0.15 
  -3   6   0    0.37    0.18 
   4  -6   0    0.18    0.06 
  -4   6   0    0.03    0.13 
   5  -6   0    0.31    0.07 
  -5   6   0    0.13    0.14 
   6  -6   0    0.21    0.08 
  -6  -6   0    0.27    0.07 
  -6   6   0    0.17    0.16 
   7  -6   0    0.16    0.08 
  -7  -6   0    0.13    0.07 
   8  -6   0    0.27    0.17 
  -8  -6   0    0.34    0.09 
   8  -6   0    0.52    0.11 
  -9  -6   0    0.51    0.12 
   9  -6   0    0.60    0.13 
   9  -6   0    0.95    0.25 
 -10  -6   0    0.80    0.14 
  10  -6   0    0.53    0.21 
  10  -6   0    0.73    0.15 
  11  -6   0    0.03    0.08 
 -11  -6   0   -0.04    0.07 
   0   7   0   -0.01    0.13 
   2  -7   0    0.72    0.08 
   3  -7   0    0.41    0.07 
   4  -7   0   -0.04    0.05 
  -4  -7   0   -0.05    0.05 
   5  -7   0    0.07    0.07 
  -5  -7   0    0.08    0.06 
  -6  -7   0    1.62    0.13 
   6  -7   0    1.57    0.15 
   7  -7   0    2.09    0.19 
  -7  -7   0    2.54    0.18 
  20   0  -1   -0.08    0.08 
  19   0  -1   -0.10    0.09 
  19   0  -1   -0.11    0.06 
  18   0  -1   -0.04    0.07 
  18   0  -1   -0.10    0.08 
  17   0  -1    0.01    0.08 
  17   0  -1   -0.04    0.07 
  16   0  -1   -0.01    0.07 
  16   0  -1   -0.06    0.07 
  15   0  -1    0.01    0.06 
  15   0  -1   -0.01    0.06 
  14   0  -1   -0.02    0.06 
  14   0  -1    0.00    0.06 
  13   0  -1   -0.05    0.05 
 -13   0   1    0.03    0.07 
  13   0  -1    0.10    0.07 
  12   0  -1   -0.03    0.04 
  12   0  -1   -0.05    0.04 
  12   0  -1   -0.06    0.06 
 -12   0   1    0.00    0.06 
  11   0  -1    0.03    0.04 
 -11   0   1   -0.01    0.05 
  11   0  -1   -0.04    0.05 
  11   0  -1   -0.09    0.03 
 -10   0   1   -0.13    0.04 
  10   0  -1   -0.06    0.04 
  10   0  -1    0.06    0.05 
  10   0  -1    0.00    0.03 
   9   0  -1   -0.06    0.03 
   9   0  -1   -0.01    0.04 
  -9   0   1    0.04    0.05 
   9   0  -1    0.02    0.04 
   8   0  -1   -0.02    0.04 
   8   0  -1    0.00    0.05 
   8   0  -1   -0.05    0.03 
  -8   0   1   -0.12    0.04 
   7   0  -1   -0.04    0.03 
   7   0  -1   -0.03    0.02 
   7   0  -1   -0.02    0.04 
  -7   0   1    0.01    0.04 
  -6   0   1   -0.06    0.02 
   6   0  -1   -0.02    0.02 
   6   0  -1    0.03    0.03 
   6   0  -1    0.02    0.03 
   5   0  -1   -0.03    0.02 
  -5   0   1   -0.06    0.02 
   5   0  -1   -0.03    0.02 
   5   0  -1   -0.04    0.02 
   4   0  -1    0.01    0.02 
   4   0  -1   -0.01    0.02 
   4   0  -1    0.01    0.02 
   3   0  -1   -0.09    0.02 
  -3   0   1   -0.07    0.01 
   3   0  -1   -0.09    0.01 
   3   0  -1   -0.08    0.01 
   2   0  -1   -0.02    0.01 
  -2   0   1    0.00    0.01 
   2   0  -1   -0.01    0.01 
   2   0  -1   -0.02    0.01 
   1   0  -1   -0.15    0.01 
   1   0  -1   -0.14    0.00 
  -1   0   1   -0.15    0.01 
  -1   0   1   -0.14    0.01 
  -1   0   1   -0.14    0.01 
   1   0  -1   -0.15    0.00 
   0   0   1   -0.10    0.00 
   0   0   1   -0.10    0.01 
   0   0   1   -0.10    0.01 
   0   0  -1   -0.10    0.00 
   0   0  -1   -0.10    0.00 
  -1   0  -1   -0.11    0.01 
  -1   0  -1   -0.12    0.01 
   1   0   1   -0.10    0.01 
   1   0   1   -0.11    0.01 
   1   0   1   -0.09    0.01 
  -2   0  -1   -0.01    0.01 
  -2   0  -1   -0.01    0.02 
   2   0   1    0.01    0.01 
   2   0   1    0.00    0.01 
   2   0   1    0.01    0.02 
   3   0   1   -0.07    0.02 
   3   0   1   -0.08    0.02 
   3   0   1   -0.10    0.02 
  -3   0  -1   -0.09    0.02 
  -3   0  -1    0.00    0.02 
   4   0   1   -0.08    0.02 
  -4   0  -1   -0.07    0.02 
   4   0   1   -0.06    0.02 
   4   0   1   -0.08    0.03 
   5   0   1   -0.03    0.02 
   5   0   1   -0.06    0.02 
   5   0   1   -0.05    0.03 
  -5   0  -1   -0.04    0.03 
  -6   0  -1    0.01    0.04 
   6   0   1    0.01    0.03 
   6   0   1   -0.04    0.03 
   6   0   1    0.03    0.03 
   7   0   1    0.04    0.04 
   7   0   1   -0.10    0.03 
   7   0   1    0.03    0.04 
  -7   0  -1   -0.01    0.05 
   8   0   1   -0.09    0.05 
   8   0   1    0.01    0.04 
   8   0   1   -0.05    0.04 
  -8   0  -1   -0.02    0.06 
   9   0   1    0.03    0.04 
   9   0   1   -0.03    0.03 
  -9   0  -1    0.03    0.05 
   9   0   1   -0.03    0.04 
  10   0   1    0.03    0.05 
  10   0   1    0.00    0.04 
 -10   0  -1    0.03    0.06 
  10   0   1   -0.05    0.04 
 -11   0  -1    0.04    0.06 
  11   0   1   -0.02    0.04 
  11   0   1   -0.04    0.05 
  11   0   1    0.06    0.05 
  12   0   1    0.02    0.06 
 -12   0  -1   -0.06    0.06 
  12   0   1   -0.03    0.04 
  12   0   1    0.00    0.05 
  13   0   1    0.11    0.07 
  13   0   1   -0.08    0.04 
  14   0   1   -0.05    0.05 
  14   0   1    0.01    0.07 
  15   0   1   -0.06    0.07 
  15   0   1   -0.08    0.05 
  16   0   1    0.02    0.09 
  16   0   1   -0.03    0.07 
  17   0   1    0.00    0.09 
  17   0   1   -0.08    0.07 
  18   0   1   -0.08    0.07 
  19   0   1   -0.15    0.07 
  19  -1  -1    0.03    0.07 
  19  -1  -1    0.11    0.12 
 -19  -1   1    0.02    0.08 
  19   1  -1    0.12    0.10 
  18  -1  -1    0.37    0.15 
  18  -1  -1    0.30    0.09 
  18   1  -1    0.27    0.11 
  17  -1  -1    0.37    0.10 
  17  -1  -1    0.41    0.15 
  17   1  -1    0.42    0.12 
  17   1  -1    0.43    0.12 
  16  -1  -1    1.72    0.22 
  16  -1  -1    1.65    0.15 
  16   1  -1    1.90    0.18 
  16   1  -1    1.57    0.18 
 -15  -1   1    2.00    0.22 
  15  -1  -1    2.31    0.17 
  15  -1  -1    2.58    0.25 
  15   1  -1    1.68    0.16 
  15   1  -1    2.14    0.19 
 -14  -1   1    1.37    0.18 
  14  -1  -1    1.10    0.17 
  14  -1  -1    1.27    0.17 
  14  -1  -1    1.11    0.12 
  14   1  -1    1.32    0.15 
  14   1  -1    1.28    0.14 
  13  -1  -1   -0.01    0.05 
  13  -1  -1    0.08    0.07 
 -13  -1   1   -0.02    0.07 
  13  -1  -1   -0.06    0.06 
  13   1  -1    0.08    0.06 
  13   1  -1   -0.01    0.05 
  12  -1  -1    5.49    0.25 
  12  -1  -1    5.57    0.31 
 -12  -1   1    5.46    0.31 
  12  -1  -1    5.76    0.32 
  12   1  -1    5.74    0.27 
  12   1  -1    5.80    0.26 
  11  -1  -1    5.93    0.30 
 -11  -1   1    5.79    0.30 
  11  -1  -1    5.81    0.30 
  11  -1  -1    5.79    0.24 
  11   1  -1    5.89    0.25 
  11   1  -1    6.15    0.27 
 -10  -1   1    1.94    0.17 
  10  -1  -1    2.47    0.18 
  10  -1  -1    2.46    0.14 
  10  -1  -1    2.39    0.18 
 -10   1   1    2.22    0.17 
  10   1  -1    2.44    0.15 
  10   1  -1    2.46    0.14 
  10   1  -1    2.61    0.18 
   9  -1  -1    4.10    0.18 
  -9  -1   1    4.49    0.24 
   9  -1  -1    4.16    0.23 
   9  -1  -1    4.52    0.24 
   9   1  -1    4.31    0.18 
  -9   1   1    4.47    0.22 
   9   1  -1    4.18    0.20 
   9   1  -1    4.41    0.23 
   8  -1  -1    1.43    0.13 
  -8  -1   1    1.12    0.12 
   8  -1  -1    1.25    0.12 
   8  -1  -1    1.36    0.09 
   8   1  -1    1.26    0.10 
  -8   1   1    1.19    0.11 
   8   1  -1    1.24    0.11 
   8   1  -1    1.24    0.09 
   7  -1  -1   14.25    0.40 
  -7  -1   1   14.13    0.45 
   7  -1  -1   15.68    0.45 
   7  -1  -1   15.05    0.47 
  -7   1   1   14.50    0.44 
   7   1  -1   14.77    0.40 
   7   1  -1   14.41    0.41 
   7   1  -1   15.27    0.44 
   6  -1  -1   12.17    0.39 
   6  -1  -1   11.75    0.36 
   6  -1  -1   11.32    0.31 
  -6  -1   1   11.99    0.35 
   6   1  -1   11.17    0.35 
   6   1  -1   11.30    0.33 
   6   1  -1   11.71    0.32 
  -6   1   1   11.62    0.35 
   5  -1  -1    0.14    0.05 
   5  -1  -1    0.08    0.04 
   5  -1  -1    0.15    0.03 
  -5  -1   1    0.10    0.02 
  -5  -1   1    0.07    0.02 
  -5  -1   1    0.12    0.03 
  -5   1   1    0.11    0.04 
   5   1  -1    0.17    0.04 
   5   1  -1    0.13    0.03 
   5   1  -1    0.08    0.03 
   4  -1  -1   17.86    0.49 
  -4  -1   1   17.90    0.41 
  -4  -1   1   17.81    0.41 
   4  -1  -1   17.05    0.45 
  -4  -1   1   17.29    0.44 
  -4  -1   1   17.80    0.48 
   4  -1  -1   17.71    0.41 
   4  -1  -1   17.39    0.45 
   4   1  -1   17.45    0.43 
  -4   1   1   17.53    0.44 
   4   1  -1   17.51    0.44 
   4   1  -1   17.56    0.46 
   3  -1  -1    6.59    0.20 
  -3  -1   1    6.88    0.23 
   3  -1  -1    6.81    0.23 
   3   1  -1    6.63    0.21 
  -2  -1   1   81.80    1.77 
   2  -1  -1   82.49    1.86 
   2  -1  -1   84.63    1.78 
  -2  -1   1   80.21    1.98 
   2  -1  -1   81.92    1.79 
  -2  -1   1   83.75    1.78 
   2   1  -1   81.76    1.98 
  -2   1   1   86.91    1.85 
  -1  -1   1    0.14    0.02 
   1  -1  -1    0.12    0.03 
  -1  -1   1    0.09    0.04 
  -1  -1   1    0.14    0.02 
   1   1  -1    0.08    0.04 
  -1   1   1    0.15    0.03 
   0  -1   1    0.69    0.03 
   0  -1   1    0.66    0.03 
   0  -1   1    0.59    0.07 
   0  -1  -1    0.75    0.06 
   0   1  -1    0.83    0.07 
   0   1  -1    0.67    0.07 
   0   1   1    0.74    0.06 
   1  -1   1   62.23    1.35 
   1  -1   1   63.09    1.45 
   1  -1   1   63.10    1.36 
  -1  -1  -1   63.13    1.36 
  -1  -1  -1   63.64    1.52 
  -1   1  -1   64.93    1.45 
   1   1   1   61.95    1.52 
  -2  -1  -1  177.01    4.27 
   2  -1   1  180.91    3.88 
  -2  -1  -1  179.69    3.88 
   2  -1   1  181.84    3.97 
  -2  -1  -1  181.38    3.84 
   2   1   1  180.49    4.27 
  -3  -1  -1    5.06    0.16 
   3  -1   1    5.19    0.17 
   3  -1   1    5.18    0.18 
  -3  -1  -1    4.91    0.17 
   3  -1   1    5.11    0.14 
   3  -1   1    4.99    0.20 
  -3   1  -1    4.90    0.16 
   3   1   1    5.10    0.15 
   3   1   1    5.01    0.14 
   3   1   1    5.06    0.15 
   4  -1   1    0.05    0.02 
   4  -1   1    0.07    0.04 
  -4  -1  -1    0.06    0.02 
  -4  -1  -1    0.41    0.05 
   4  -1   1    0.06    0.04 
  -4  -1  -1    0.08    0.02 
  -4   1  -1    0.01    0.03 
   4   1   1    0.03    0.03 
   4   1   1    0.06    0.02 
   4   1   1    0.09    0.03 
   5  -1   1    9.63    0.27 
  -5  -1  -1   10.22    0.27 
   5  -1   1    9.74    0.32 
  -5  -1  -1   10.30    0.28 
  -5  -1  -1    9.55    0.31 
   5  -1   1    9.19    0.33 
   5   1   1    9.68    0.26 
   5   1   1    9.77    0.28 
  -5   1  -1   10.22    0.31 
   5   1   1    9.55    0.30 
   6  -1   1   60.72    1.42 
   6  -1   1   62.58    1.45 
  -6  -1  -1   61.06    1.44 
  -6  -1  -1   62.32    1.49 
   6   1   1   63.37    1.43 
   6   1   1   63.09    1.40 
  -6   1  -1   62.56    1.43 
   6   1   1   61.55    1.42 
   7  -1   1    0.22    0.04 
  -7  -1  -1    0.18    0.06 
   7  -1   1    0.29    0.07 
  -7  -1  -1    0.31    0.04 
   7  -1   1    0.17    0.06 
   7   1   1    0.14    0.04 
  -7   1  -1    0.24    0.06 
   7   1   1    0.24    0.05 
   7   1   1    0.26    0.06 
   8  -1   1    1.20    0.12 
   8  -1   1    1.55    0.10 
   8  -1   1    1.54    0.14 
  -8  -1  -1    1.36    0.13 
  -8   1  -1    1.23    0.12 
   8   1   1    1.19    0.10 
   8   1   1    1.55    0.13 
   8   1   1    1.31    0.10 
   9  -1   1   14.91    0.52 
  -9  -1  -1   15.03    0.50 
   9  -1   1   15.04    0.44 
   9  -1   1   15.00    0.51 
   9   1   1   15.57    0.45 
   9   1   1   14.54    0.46 
   9   1   1   15.63    0.50 
  -9   1  -1   14.76    0.49 
 -10  -1  -1   13.14    0.48 
  10  -1   1   12.81    0.49 
  10  -1   1   13.41    0.49 
  10  -1   1   13.11    0.41 
  10   1   1   13.67    0.44 
 -10   1  -1   12.58    0.46 
  10   1   1   13.32    0.42 
  11  -1   1    0.94    0.14 
 -11  -1  -1    0.92    0.14 
  11  -1   1    0.75    0.13 
  11  -1   1    0.85    0.10 
  11   1   1    0.79    0.11 
  11   1   1    0.99    0.11 
 -12  -1  -1    0.39    0.11 
  12  -1   1    0.54    0.09 
  12  -1   1    0.41    0.11 
  12  -1   1    0.48    0.12 
  12   1   1    0.45    0.09 
  12   1   1    0.53    0.10 
  13  -1   1    0.29    0.11 
 -13  -1  -1    0.32    0.11 
  13  -1   1    0.22    0.07 
  13  -1   1    0.55    0.13 
  13   1   1    0.28    0.09 
  13   1   1    0.45    0.10 
  14  -1   1    1.01    0.17 
  14  -1   1    0.76    0.11 
  14   1   1    0.81    0.13 
  14   1   1    0.85    0.12 
  15  -1   1    0.89    0.17 
  15  -1   1    0.53    0.10 
  15   1   1    0.79    0.13 
  15   1   1    0.66    0.13 
  16  -1   1    0.23    0.08 
  16  -1   1    0.38    0.14 
  16   1   1    0.31    0.11 
  17  -1   1    0.10    0.08 
  17  -1   1    0.11    0.12 
  17   1   1    0.16    0.10 
  18  -1   1    1.44    0.16 
  18  -1   1    1.94    0.26 
  18   1   1    1.46    0.19 
  19  -1   1    0.37    0.16 
  19  -1   1    0.37    0.11 
  19   1   1    0.23    0.12 
  19  -2  -1    0.66    0.11 
  19   2  -1    0.69    0.17 
  18  -2  -1    1.13    0.23 
  18  -2  -1    1.48    0.13 
  18   2  -1    1.32    0.18 
  17  -2  -1    0.31    0.07 
 -17  -2   1    0.42    0.15 
 -17  -2   1    0.31    0.06 
  17  -2  -1    0.31    0.15 
  17   2  -1    0.20    0.10 
  16  -2  -1    0.67    0.18 
  16  -2  -1    0.53    0.08 
  16  -2  -1    0.79    0.18 
 -16  -2   1    0.78    0.16 
 -16  -2   1    0.59    0.07 
  16   2  -1    0.60    0.12 
  15  -2  -1    0.01    0.09 
 -15  -2   1    0.00    0.04 
  15  -2  -1    0.04    0.05 
  15  -2  -1   -0.05    0.08 
 -15  -2   1   -0.01    0.09 
  15   2  -1    0.03    0.06 
  15   2  -1    0.02    0.07 
  14  -2  -1    4.07    0.32 
  14  -2  -1    4.35    0.31 
  14  -2  -1    3.41    0.17 
 -14  -2   1    3.56    0.27 
 -14  -2   1    3.57    0.16 
  14   2  -1    3.35    0.21 
  14   2  -1    3.95    0.25 
  13  -2  -1    0.22    0.10 
  13  -2  -1    0.09    0.10 
 -13  -2   1    0.10    0.09 
 -13  -2   1    0.11    0.05 
  13  -2  -1    0.22    0.06 
  13   2  -1    0.15    0.08 
  13   2  -1    0.15    0.06 
 -12  -2   1   -0.02    0.03 
  12  -2  -1    0.13    0.09 
 -12  -2   1    0.14    0.09 
  12  -2  -1    0.23    0.10 
  12  -2  -1    0.00    0.04 
  12   2  -1    0.15    0.06 
  12   2  -1    0.16    0.07 
 -11  -2   1    6.27    0.33 
 -11  -2   1    6.05    0.18 
  11  -2  -1    5.87    0.21 
  11  -2  -1    6.33    0.33 
  11  -2  -1    5.89    0.35 
  11   2  -1    6.27    0.28 
  11   2  -1    6.51    0.25 
  10  -2  -1    0.77    0.12 
  10  -2  -1    0.80    0.06 
  10  -2  -1    0.89    0.14 
 -10  -2   1    0.79    0.12 
  10   2  -1    0.83    0.08 
  10   2  -1    0.78    0.09 
   9  -2  -1    0.48    0.04 
   9  -2  -1    0.32    0.10 
  -9  -2   1    0.52    0.10 
   9  -2  -1    0.44    0.09 
   9   2  -1    0.47    0.06 
   9   2  -1    0.57    0.08 
   8  -2  -1    0.31    0.09 
   8  -2  -1    0.19    0.07 
   8   2  -1    0.27    0.05 
   8   2  -1    0.40    0.06 
  -7  -2   1    3.36    0.18 
   7  -2  -1    3.87    0.20 
   7  -2  -1    3.75    0.23 
   7   2  -1    3.62    0.16 
   7   2  -1    3.64    0.16 
   7   2  -1    3.59    0.15 
  -6  -2   1    0.01    0.02 
   6  -2  -1    0.19    0.05 
   6  -2  -1    0.10    0.04 
   6  -2  -1    0.20    0.07 
   6   2  -1    0.12    0.04 
   6   2  -1    0.11    0.03 
  -5  -2   1    2.60    0.16 
   5  -2  -1    2.50    0.17 
   5  -2  -1    2.48    0.13 
   5  -2  -1    2.50    0.13 
  -5  -2   1    2.67    0.13 
   5   2  -1    2.71    0.14 
  -4  -2   1    0.94    0.10 
  -4  -2   1    0.91    0.07 
   4  -2  -1    0.90    0.07 
   4  -2  -1    0.79    0.07 
   4  -2  -1    0.96    0.11 
   4   2  -1    0.98    0.09 
   3  -2  -1    2.97    0.11 
  -3  -2   1    3.13    0.12 
   3  -2  -1    2.95    0.11 
  -3  -2   1    2.88    0.17 
   3  -2  -1    3.04    0.17 
  -3  -2   1    2.76    0.11 
   3   2  -1    2.91    0.16 
  -2  -2   1    4.13    0.12 
   2  -2  -1    4.25    0.12 
  -2  -2   1    3.76    0.20 
   2  -2  -1    3.92    0.19 
  -2  -2   1    4.05    0.12 
   2  -2  -1    4.18    0.12 
   2   2  -1    4.01    0.20 
  -1  -2   1    4.70    0.24 
   1  -2  -1    5.14    0.22 
   1   2  -1    5.01    0.24 
   0   2  -1    9.67    0.38 
   0   2   1    9.87    0.36 
   1  -2   1    0.48    0.08 
   1  -2   1    0.44    0.03 
   1  -2   1    0.41    0.03 
   1   2   1    0.42    0.07 
  -1   2  -1    0.48    0.09 
   2  -2   1    0.80    0.10 
   2  -2   1    0.82    0.06 
   2  -2   1    1.00    0.06 
  -2  -2  -1    0.84    0.05 
  -2  -2  -1    0.79    0.09 
   2   2   1    0.98    0.09 
  -3  -2  -1    1.05    0.07 
   3  -2   1    1.08    0.08 
   3  -2   1    1.02    0.07 
   3  -2   1    0.93    0.11 
  -3  -2  -1    0.93    0.09 
   3   2   1    0.91    0.08 
  -4  -2  -1    7.62    0.28 
  -4  -2  -1    7.84    0.25 
   4  -2   1    8.39    0.26 
   4  -2   1    8.40    0.34 
   4  -2   1    8.43    0.27 
   4   2   1    7.89    0.26 
  -5  -2  -1    0.03    0.03 
   5  -2   1    0.09    0.06 
   5  -2   1    0.03    0.04 
  -5  -2  -1    0.06    0.04 
  -5  -2  -1    0.01    0.04 
   5  -2   1    0.02    0.03 
   5   2   1    0.05    0.03 
   6  -2   1    0.06    0.05 
  -6  -2  -1    0.03    0.03 
   6  -2   1    0.15    0.07 
  -6  -2  -1    0.20    0.05 
  -6  -2  -1    0.19    0.06 
   6   2   1    0.17    0.04 
   6   2   1    0.15    0.04 
   7  -2   1    1.16    0.14 
  -7  -2  -1    1.16    0.10 
  -7  -2  -1    0.88    0.10 
   7  -2   1    1.03    0.11 
   7   2   1    1.24    0.09 
   7   2   1    1.15    0.08 
   8  -2   1    1.00    0.06 
   8  -2   1    0.96    0.12 
   8  -2   1    0.94    0.14 
  -8  -2  -1    1.05    0.12 
   8   2   1    0.96    0.09 
   8   2   1    0.97    0.08 
   9  -2   1    0.17    0.04 
  -9  -2  -1    0.40    0.09 
   9  -2   1    0.27    0.10 
   9  -2   1    0.22    0.08 
   9   2   1    0.26    0.05 
   9   2   1    0.22    0.06 
 -10  -2  -1    3.93    0.24 
  10  -2   1    3.14    0.23 
  10  -2   1    3.46    0.27 
  10  -2   1    3.58    0.16 
  10   2   1    3.57    0.17 
  10   2   1    3.76    0.21 
 -11  -2  -1    9.11    0.25 
  11  -2   1    9.75    0.30 
  11  -2   1    9.18    0.42 
  11  -2   1    8.64    0.45 
 -11  -2  -1    8.86    0.40 
  11   2   1    9.63    0.37 
  11   2   1    9.15    0.32 
  12  -2   1    0.57    0.13 
 -12  -2  -1    0.54    0.13 
  12  -2   1    0.68    0.16 
  12  -2   1    0.67    0.08 
 -12  -2  -1    0.61    0.06 
  12   2   1    0.84    0.12 
  12   2   1    0.69    0.09 
  13  -2   1    0.32    0.07 
 -13  -2  -1    0.26    0.05 
  13  -2   1    0.50    0.15 
 -13  -2  -1    0.24    0.11 
  13  -2   1    0.21    0.11 
  13   2   1    0.32    0.10 
  13   2   1    0.28    0.08 
  14  -2   1    1.25    0.11 
  14  -2   1    1.00    0.19 
 -14  -2  -1    1.49    0.10 
  14  -2   1    1.22    0.19 
 -14  -2  -1    1.41    0.19 
  14   2   1    1.40    0.16 
  15  -2   1   -0.01    0.10 
  15  -2   1    0.02    0.09 
 -15  -2  -1   -0.03    0.03 
 -15  -2  -1    0.06    0.09 
  15  -2   1    0.04    0.05 
  15   2   1    0.01    0.07 
  16  -2   1    0.32    0.15 
  16  -2   1    0.12    0.06 
 -16  -2  -1    0.30    0.13 
 -16  -2  -1    0.21    0.05 
  16   2   1    0.30    0.11 
  17  -2   1    0.02    0.12 
  17  -2   1   -0.01    0.05 
  17   2   1    0.11    0.10 
  18  -2   1    0.56    0.10 
  18  -2   1    0.87    0.23 
  18   2   1    0.86    0.17 
 -18  -3   1    1.01    0.21 
  17  -3  -1    2.83    0.30 
 -17  -3   1    3.67    0.33 
  17  -3  -1    3.75    0.39 
 -16  -3   1    0.16    0.12 
  16  -3  -1    0.10    0.13 
  16  -3  -1    0.08    0.11 
  15  -3  -1    0.16    0.14 
 -15  -3   1   -0.02    0.09 
  15  -3  -1    0.17    0.11 
 -14  -3   1    1.47    0.20 
  14  -3  -1    2.27    0.23 
  14  -3  -1    1.86    0.26 
 -13  -3   1    3.00    0.26 
  13  -3  -1    3.06    0.26 
  13  -3  -1    2.95    0.31 
  13   3  -1    2.99    0.18 
  12  -3  -1   21.08    0.71 
 -12  -3   1   20.54    0.71 
  12  -3  -1   20.13    0.81 
  12   3  -1   21.45    0.60 
  11  -3  -1   49.15    1.46 
 -11  -3   1   50.05    1.31 
  11  -3  -1   49.98    1.32 
  11   3  -1   49.32    1.21 
 -10  -3   1   14.51    0.52 
  10  -3  -1   14.00    0.51 
  10  -3  -1   13.10    0.59 
  10   3  -1   14.45    0.43 
   9  -3  -1   16.17    0.55 
   9  -3  -1   16.18    0.65 
   9   3  -1   17.14    0.50 
   9   3  -1   17.66    0.52 
   8  -3  -1    0.11    0.06 
   8  -3  -1    0.16    0.10 
   8   3  -1    0.11    0.05 
   7  -3  -1    3.30    0.18 
  -7  -3   1    3.08    0.17 
   7  -3  -1    3.30    0.19 
   7  -3  -1    3.03    0.24 
   7   3  -1    2.97    0.17 
   6  -3  -1   16.65    0.60 
  -6  -3   1   15.69    0.45 
   6  -3  -1   15.51    0.46 
   6  -3  -1   16.08    0.47 
   6   3  -1   16.39    0.52 
  -5  -3   1   41.47    0.97 
   5  -3  -1   42.31    1.17 
   5  -3  -1   42.28    0.98 
   5  -3  -1   41.88    0.98 
   5   3  -1   40.60    1.12 
  -4  -3   1   58.32    1.30 
   4  -3  -1   58.70    1.52 
   4  -3  -1   59.45    1.31 
   4  -3  -1   58.68    1.31 
  -4  -3   1   59.74    1.32 
   4   3  -1   58.39    1.54 
   3  -3  -1   71.15    1.81 
  -3  -3   1   72.08    1.57 
   3  -3  -1   75.57    1.59 
  -3  -3   1   74.99    1.59 
   3  -3  -1   71.61    1.58 
   3   3  -1   73.76    1.90 
  -2  -3   1    0.89    0.04 
   2  -3  -1    0.92    0.12 
   2  -3  -1    0.83    0.04 
   2   3  -1    0.96    0.13 
   1  -3  -1    0.02    0.05 
   1   3  -1    0.08    0.06 
  -1   3   1   -0.04    0.04 
   0   3   1    0.67    0.11 
   0   3  -1    0.48    0.11 
   1  -3   1    2.46    0.08 
   1  -3   1    2.52    0.09 
   1   3   1    2.49    0.19 
  -1   3  -1    2.40    0.22 
   2  -3   1    4.10    0.14 
  -2  -3  -1    4.06    0.12 
   2  -3   1    4.26    0.14 
   2  -3   1    4.37    0.26 
   2   3   1    4.35    0.24 
  -2   3  -1    4.35    0.29 
   3  -3   1    1.11    0.08 
   3  -3   1    1.10    0.08 
   3  -3   1    0.96    0.14 
  -3  -3  -1    0.96    0.07 
   3   3   1    1.07    0.11 
   4  -3   1    7.09    0.36 
   4  -3   1    7.69    0.25 
   4  -3   1    7.10    0.25 
  -4  -3  -1    7.49    0.24 
   4   3   1    7.17    0.29 
   5  -3   1    3.07    0.24 
   5  -3   1    2.78    0.16 
   5  -3   1    3.09    0.16 
  -5  -3  -1    2.97    0.15 
   5   3   1    3.19    0.17 
   6  -3   1    1.57    0.13 
   6  -3   1    1.57    0.13 
   6  -3   1    1.65    0.19 
  -6  -3  -1    1.67    0.13 
  -6  -3  -1    1.60    0.12 
   6   3   1    1.70    0.11 
  -7  -3  -1    0.43    0.08 
   7  -3   1    0.31    0.11 
   7  -3   1    0.38    0.08 
   7   3   1    0.32    0.06 
   8  -3   1    4.38    0.25 
  -8  -3  -1    4.66    0.25 
   8  -3   1    4.22    0.30 
   8   3   1    5.02    0.19 
   9  -3   1    9.48    0.40 
   9  -3   1    9.84    0.49 
  -9  -3  -1    8.86    0.38 
   9   3   1   10.07    0.31 
  10  -3   1    6.12    0.33 
  10  -3   1    6.28    0.39 
 -10  -3  -1    6.80    0.33 
  10   3   1    6.38    0.24 
 -11  -3  -1   11.54    0.47 
  11  -3   1   12.10    0.58 
  11  -3   1   11.88    0.50 
  12  -3   1   14.72    0.59 
  12  -3   1   14.42    0.67 
 -12  -3  -1   14.65    0.57 
  13  -3   1    2.36    0.24 
 -13  -3  -1    2.75    0.25 
  13  -3   1    3.25    0.32 
  14  -3   1    1.02    0.21 
  14  -3   1    1.07    0.19 
 -14  -3  -1    1.13    0.18 
  15  -3   1    0.97    0.19 
  15  -3   1    0.87    0.22 
 -15  -3  -1    1.34    0.20 
  16  -3   1    2.58    0.33 
 -16  -3  -1    1.56    0.22 
  16  -3   1    1.96    0.26 
 -17  -3  -1    0.75    0.19 
 -17  -4   1    0.51    0.17 
  17  -4  -1    0.31    0.16 
 -16  -4   1   -0.10    0.09 
  16  -4  -1    0.04    0.12 
  15  -4  -1    0.20    0.15 
  15  -4  -1    0.26    0.13 
 -15  -4   1    0.25    0.12 
  14  -4  -1    1.58    0.27 
  14  -4  -1    1.45    0.21 
 -14  -4   1    1.47    0.20 
 -13  -4   1   -0.01    0.08 
  13  -4  -1    0.13    0.12 
  13  -4  -1    0.11    0.09 
 -12  -4   1    0.25    0.11 
  12  -4  -1    0.56    0.13 
  12  -4  -1    0.60    0.18 
  11  -4  -1    0.12    0.11 
 -11  -4   1   -0.10    0.06 
  11  -4  -1    0.01    0.07 
  11   4  -1    0.01    0.05 
  10  -4  -1    0.08    0.08 
 -10  -4   1   -0.06    0.05 
  10  -4  -1    0.00    0.09 
  10   4  -1   -0.06    0.04 
   9  -4  -1   15.22    0.68 
   9  -4  -1   15.64    0.54 
   9   4  -1   15.90    0.52 
   8  -4  -1    0.47    0.15 
   8  -4  -1    0.28    0.08 
   8   4  -1    0.32    0.08 
   7  -4  -1    3.51    0.29 
   7  -4  -1    3.02    0.19 
   7   4  -1    3.76    0.22 
   6  -4  -1    0.76    0.09 
   6  -4  -1    0.60    0.15 
   6   4  -1    0.95    0.13 
   5  -4  -1    2.34    0.23 
   5  -4  -1    2.60    0.14 
   5  -4  -1    2.36    0.14 
  -5  -4   1    2.38    0.13 
   5   4  -1    2.71    0.21 
  -4  -4   1    0.07    0.04 
   4  -4  -1    0.12    0.08 
   4  -4  -1    0.19    0.05 
  -4  -4   1    0.13    0.04 
   4  -4  -1    0.13    0.04 
   4   4  -1    0.19    0.09 
   3  -4  -1    2.41    0.11 
   3  -4  -1    2.36    0.10 
  -3  -4   1    2.46    0.10 
   3  -4  -1    2.48    0.22 
  -3  -4   1    2.43    0.11 
   3   4  -1    2.03    0.20 
   2  -4  -1    3.21    0.10 
  -2  -4   1    2.94    0.10 
  -2   4   1    3.07    0.26 
   2   4  -1    2.68    0.23 
   1   4  -1   21.02    0.77 
  -1   4   1   19.67    0.76 
   0   4   1    2.95    0.24 
   0   4  -1    2.89    0.26 
   1  -4   1    0.93    0.06 
   1  -4   1    0.93    0.06 
   1   4   1    0.93    0.15 
  -1   4  -1    0.99    0.17 
   2  -4   1    0.49    0.05 
   2  -4   1    0.53    0.05 
   2   4   1    0.63    0.12 
  -2   4  -1    0.51    0.14 
   3  -4   1    2.47    0.23 
  -3  -4  -1    2.54    0.11 
   3  -4   1    2.81    0.13 
   3  -4   1    2.91    0.13 
  -3   4  -1    2.74    0.28 
   3   4   1    2.70    0.21 
   4  -4   1    0.63    0.14 
   4  -4   1    0.57    0.07 
  -4  -4  -1    0.51    0.06 
   4  -4   1    0.50    0.07 
   4   4   1    0.54    0.11 
  -4   4  -1    0.69    0.17 
   5  -4   1    2.58    0.16 
   5  -4   1    2.66    0.26 
  -5  -4  -1    2.50    0.14 
   5   4   1    2.69    0.19 
   6  -4   1    0.06    0.06 
  -6  -4  -1    0.10    0.06 
   6  -4   1    0.08    0.09 
   6   4   1    0.12    0.06 
  -7  -4  -1   -0.01    0.05 
   7  -4   1    0.17    0.11 
   7  -4   1    0.02    0.06 
   7   4   1    0.03    0.05 
   8  -4   1    2.32    0.26 
   8  -4   1    2.09    0.18 
  -8  -4  -1    2.08    0.17 
   9  -4   1   -0.03    0.08 
  -9  -4  -1   -0.04    0.05 
   9  -4   1   -0.06    0.05 
 -10  -4  -1    0.20    0.09 
  10  -4   1    0.19    0.10 
  10  -4   1    0.16    0.12 
  11  -4   1    1.70    0.26 
  11  -4   1    1.78    0.19 
 -11  -4  -1    1.23    0.16 
 -12  -4  -1   -0.03    0.07 
  12  -4   1    0.02    0.11 
  12  -4   1   -0.10    0.07 
  13  -4   1    0.44    0.18 
 -13  -4  -1    0.30    0.11 
  13  -4   1    0.54    0.15 
 -14  -4  -1    0.18    0.11 
  14  -4   1    0.09    0.11 
  14  -4   1    0.05    0.15 
  15  -4   1   -0.03    0.10 
  15  -4   1    0.10    0.15 
 -15  -4  -1   -0.01    0.09 
  16  -4   1   -0.08    0.10 
 -16  -4  -1   -0.03    0.09 
  15  -5  -1    0.00    0.10 
 -15  -5   1    0.06    0.10 
  14  -5  -1    0.03    0.10 
 -14  -5   1    0.13    0.11 
  13  -5  -1    0.39    0.14 
  13  -5  -1    0.36    0.19 
 -13  -5   1    0.18    0.11 
  12  -5  -1    0.64    0.20 
  12  -5  -1    0.44    0.13 
 -12  -5   1    0.70    0.14 
 -11  -5   1    0.55    0.12 
  11  -5  -1    0.46    0.18 
  11  -5  -1    0.41    0.12 
  10  -5  -1    0.20    0.09 
  10  -5  -1    0.15    0.14 
 -10  -5   1    0.10    0.08 
  -9  -5   1   -0.05    0.06 
   9  -5  -1    0.09    0.13 
   9  -5  -1    0.00    0.06 
   8  -5  -1    2.82    0.31 
   8  -5  -1    2.76    0.20 
   7  -5  -1    0.08    0.11 
   7  -5  -1    0.26    0.08 
   7   5  -1    0.34    0.10 
   6  -5  -1    0.05    0.06 
   6  -5  -1    0.02    0.10 
   6   5  -1    0.07    0.08 
   5  -5  -1    0.65    0.08 
   5  -5  -1    0.41    0.15 
  -5   5   1    0.49    0.17 
   5   5  -1    0.54    0.13 
   4  -5  -1    2.06    0.24 
  -4  -5   1    2.12    0.12 
   4  -5  -1    2.10    0.12 
  -4   5   1    1.93    0.27 
   4   5  -1    2.09    0.22 
   3  -5  -1    1.50    0.09 
  -3  -5   1    1.49    0.10 
  -3  -5   1    1.66    0.09 
   3  -5  -1    1.54    0.10 
  -3   5   1    1.43    0.23 
   3   5  -1    1.65    0.21 
   2  -5  -1   -0.01    0.03 
  -2  -5   1    0.00    0.03 
  -2  -5   1    0.02    0.03 
   2  -5  -1   -0.01    0.03 
   2   5  -1    0.01    0.08 
  -2   5   1   -0.07    0.08 
  -1   5   1    1.06    0.20 
   1   5  -1    1.35    0.21 
   0   5  -1    1.41    0.22 
   0   5   1    1.76    0.23 
   1  -5   1    0.48    0.05 
   1  -5   1    0.44    0.05 
   1   5   1    0.35    0.13 
  -1   5  -1    0.39    0.16 
   2  -5   1    0.04    0.03 
   2  -5   1    0.03    0.04 
  -2   5  -1    0.05    0.10 
   2   5   1    0.08    0.09 
   3  -5   1    2.16    0.13 
  -3  -5  -1    2.08    0.11 
   3   5   1    2.53    0.24 
  -3   5  -1    1.69    0.26 
   4  -5   1    1.25    0.11 
   4   5   1    1.37    0.17 
  -4   5  -1    1.46    0.25 
   5  -5   1   -0.05    0.05 
  -5  -5  -1   -0.08    0.04 
   5  -5   1   -0.04    0.09 
  -5   5  -1   -0.14    0.07 
   6  -5   1    0.27    0.08 
   6  -5   1    0.15    0.12 
  -6  -5  -1    0.11    0.06 
  -6   5  -1    0.21    0.14 
   7  -5   1    1.75    0.26 
   7  -5   1    1.97    0.17 
  -7  -5  -1    1.99    0.16 
  -7   5  -1    1.42    0.27 
   8  -5   1    0.30    0.15 
  -8  -5  -1    0.10    0.07 
   8  -5   1    0.31    0.09 
   9  -5   1    3.31    0.35 
   9  -5   1    3.00    0.23 
  -9  -5  -1    3.92    0.24 
  10  -5   1    0.21    0.13 
 -10  -5  -1    0.26    0.10 
  10  -5   1    0.11    0.09 
 -11  -5  -1    0.43    0.12 
  11  -5   1    0.79    0.22 
  11  -5   1    0.41    0.13 
  12  -5   1    0.40    0.18 
 -12  -5  -1    0.31    0.12 
  12  -5   1    0.44    0.14 
 -13  -5  -1    0.15    0.10 
  13  -5   1    0.12    0.11 
 -14  -5  -1   -0.05    0.09 
  14  -5   1    0.12    0.12 
  12  -6  -1    0.98    0.17 
 -12  -6   1    0.89    0.16 
 -11  -6   1    0.06    0.09 
  11  -6  -1    0.02    0.09 
  10  -6  -1    2.49    0.35 
  10  -6  -1    2.31    0.22 
 -10  -6   1    2.50    0.21 
   9  -6  -1    1.80    0.30 
   9  -6  -1    1.66    0.18 
  -9  -6   1    1.32    0.16 
   8  -6  -1    0.51    0.19 
   8  -6  -1    0.59    0.12 
  -8  -6   1    0.73    0.11 
   7  -6  -1    0.00    0.12 
   7  -6  -1   -0.03    0.06 
  -7   6   1    0.24    0.17 
   6  -6  -1    1.14    0.12 
  -6   6   1    1.73    0.31 
   5  -6  -1    2.88    0.17 
  -5   6   1    2.23    0.33 
   4  -6  -1    3.98    0.18 
   4   6  -1    4.13    0.34 
  -4   6   1    3.41    0.38 
   3  -6  -1    5.46    0.20 
  -3  -6   1    5.13    0.20 
  -3   6   1    5.41    0.45 
   3   6  -1    5.41    0.40 
   2  -6  -1    0.11    0.04 
  -2  -6   1    0.12    0.04 
   2   6  -1    0.13    0.12 
  -2   6   1    0.10    0.12 
  -1   6   1    4.18    0.39 
   1   6  -1    4.54    0.38 
   0   6   1    1.50    0.24 
   0   6  -1    1.12    0.23 
   1  -6   1   18.91    0.48 
   1   6   1   18.89    0.81 
  -1   6  -1   18.10    0.86 
   2  -6   1   15.23    0.42 
  -2   6  -1   15.35    0.79 
   2   6   1   15.77    0.71 
  -3  -6  -1    5.54    0.20 
   3  -6   1    5.74    0.23 
  -3   6  -1    6.20    0.50 
  -4  -6  -1    1.84    0.12 
   4  -6   1    2.12    0.15 
  -4   6  -1    2.35    0.34 
   5  -6   1    0.74    0.11 
  -5  -6  -1    0.70    0.09 
  -5   6  -1    0.78    0.24 
  -6  -6  -1    0.08    0.06 
   6  -6   1    0.05    0.06 
  -6   6  -1   -0.04    0.12 
   7  -6   1    0.67    0.12 
  -7  -6  -1    1.16    0.12 
  -8  -6  -1    1.33    0.14 
   8  -6   1    1.21    0.15 
   9  -6   1   10.09    0.44 
  -9  -6  -1    9.01    0.39 
   9  -6   1    9.46    0.62 
  10  -6   1    1.71    0.20 
 -10  -6  -1    2.11    0.20 
 -11  -6  -1    0.07    0.09 
  11  -6   1    0.21    0.11 
   7  -7  -1    0.32    0.09 
  -7  -7   1    0.20    0.08 
   6  -7  -1    0.05    0.07 
  -6  -7   1    0.07    0.07 
   5  -7  -1   -0.04    0.06 
   4  -7  -1    0.86    0.10 
   3  -7  -1   -0.02    0.05 
   1   7  -1    0.87    0.23 
   1  -7   1    0.11    0.05 
   2  -7   1    0.08    0.05 
   3  -7   1    0.85    0.10 
   4  -7   1    0.42    0.09 
  -4  -7  -1    0.29    0.06 
  -5  -7  -1    0.03    0.05 
   5  -7   1    0.01    0.07 
   6  -7   1    0.43    0.10 
  -6  -7  -1    0.34    0.08 
  20   0  -2   -0.11    0.07 
  20   0  -2    0.07    0.12 
  19   0  -2    0.81    0.18 
  19   0  -2    0.92    0.14 
  18   0  -2    4.79    0.34 
  18   0  -2    4.47    0.28 
  17   0  -2    6.57    0.33 
  17   0  -2    5.30    0.35 
  16   0  -2    7.19    0.35 
  16   0  -2    8.36    0.41 
  15   0  -2    6.26    0.31 
  15   0  -2    6.08    0.34 
  14   0  -2   12.85    0.46 
  14   0  -2   12.41    0.49 
 -13   0   2    2.75    0.22 
  13   0  -2    2.27    0.21 
  13   0  -2    2.63    0.19 
  13   0  -2    2.22    0.17 
  12   0  -2    6.47    0.30 
  12   0  -2    6.88    0.29 
 -12   0   2    6.54    0.33 
  12   0  -2    6.43    0.33 
  11   0  -2   12.56    0.43 
 -11   0   2   11.67    0.45 
  11   0  -2   12.79    0.47 
  11   0  -2   12.53    0.41 
  10   0  -2   31.22    0.84 
  10   0  -2   31.75    0.86 
  10   0  -2   31.34    0.82 
 -10   0   2   31.92    0.87 
  -9   0   2   27.00    0.74 
   9   0  -2   26.14    0.73 
   9   0  -2   25.92    0.69 
   9   0  -2   25.93    0.70 
   8   0  -2    0.36    0.06 
   8   0  -2    0.47    0.08 
  -8   0   2    0.52    0.09 
   8   0  -2    0.40    0.06 
  -7   0   2   41.56    1.02 
   7   0  -2   42.52    1.00 
   7   0  -2   42.13    1.01 
   7   0  -2   40.49    0.99 
   6   0  -2   46.63    1.09 
   6   0  -2   46.62    1.09 
   6   0  -2   46.98    1.09 
   5   0  -2    0.02    0.02 
   5   0  -2    0.00    0.03 
   5   0  -2    0.04    0.02 
   4   0  -2   15.04    0.39 
   4   0  -2   14.92    0.37 
   4   0  -2   14.51    0.37 
   3   0  -2  126.22    2.75 
   3   0  -2  125.80    2.78 
   2   0  -2   97.43    2.10 
  -2   0   2  100.79    2.31 
   2   0  -2   94.02    2.16 
   2   0  -2   95.44    2.17 
  -2   0   2   97.22    2.07 
  -2   0   2   95.57    2.15 
  -1   0   2   -0.37    0.01 
  -1   0   2   -0.37    0.01 
   1   0  -2   -0.37    0.01 
   1   0  -2   -0.37    0.01 
  -1   0   2   -0.38    0.02 
   0   0   2   70.75    1.49 
   0   0  -2   70.71    1.67 
   0   0   2   63.17    1.79 
   0   0  -2   68.58    1.49 
   0   0   2   71.24    1.56 
  -1   0  -2   21.32    0.54 
  -1   0  -2   20.21    0.48 
  -1   0  -2   21.10    0.49 
   1   0   2   20.53    0.49 
   1   0   2   21.27    0.49 
   1   0   2   21.04    0.49 
  -2   0  -2   72.81    1.61 
   2   0   2   72.96    1.58 
   2   0   2   71.46    1.62 
   2   0   2   71.98    1.63 
  -2   0  -2   74.47    1.58 
   3   0   2    5.59    0.19 
   3   0   2    5.51    0.20 
  -3   0  -2    5.70    0.20 
   3   0   2    5.55    0.18 
  -3   0  -2    5.86    0.18 
   4   0   2    0.72    0.07 
  -4   0  -2    0.59    0.07 
   4   0   2    0.64    0.06 
   4   0   2    0.72    0.06 
  -5   0  -2   93.51    2.08 
   5   0   2   94.95    2.09 
   5   0   2   95.09    2.13 
   5   0   2   93.85    2.11 
   6   0   2   55.70    1.30 
   6   0   2   56.20    1.31 
   6   0   2   54.40    1.29 
  -6   0  -2   54.41    1.29 
   7   0   2    2.85    0.15 
  -7   0  -2    2.41    0.16 
   7   0   2    2.38    0.17 
   7   0   2    2.83    0.16 
   8   0   2   49.67    1.23 
   8   0   2   49.75    1.20 
   8   0   2   49.35    1.23 
  -8   0  -2   49.15    1.22 
  -9   0  -2    0.44    0.09 
   9   0   2    0.34    0.07 
   9   0   2    0.40    0.08 
   9   0   2    0.33    0.09 
 -10   0  -2   21.92    0.68 
  10   0   2   21.89    0.63 
  10   0   2   21.19    0.68 
  10   0   2   21.60    0.66 
 -11   0  -2   14.56    0.53 
  11   0   2   15.17    0.55 
  11   0   2   14.42    0.48 
  11   0   2   14.68    0.52 
  12   0   2    2.83    0.19 
 -12   0  -2    2.25    0.20 
  12   0   2    2.52    0.20 
  13   0   2    2.51    0.22 
  13   0   2    2.80    0.20 
  14   0   2    0.34    0.11 
  14   0   2    0.40    0.09 
  15   0   2    0.27    0.11 
  15   0   2    0.33    0.10 
  16   0   2    5.79    0.32 
  16   0   2    6.00    0.38 
  17   0   2    0.05    0.08 
  18   0   2    0.64    0.13 
  19   0   2    0.15    0.11 
 -20  -1   2    0.08    0.09 
  20  -1  -2    0.04    0.08 
  20   1  -2    0.11    0.10 
  19  -1  -2    0.06    0.12 
 -19  -1   2    0.04    0.08 
  19  -1  -2    0.00    0.07 
  19   1  -2   -0.05    0.08 
  18  -1  -2    0.11    0.12 
 -18  -1   2    0.08    0.07 
  18  -1  -2    0.02    0.06 
  18   1  -2    0.14    0.10 
  18   1  -2    0.13    0.09 
  17  -1  -2    3.65    0.23 
  17  -1  -2    3.28    0.31 
  17   1  -2    3.39    0.26 
  17   1  -2    3.26    0.25 
  16  -1  -2    0.03    0.08 
  16  -1  -2    0.09    0.06 
  16   1  -2   -0.03    0.06 
  16   1  -2   -0.04    0.06 
  15  -1  -2    0.08    0.06 
  15  -1  -2    0.10    0.09 
  15  -1  -2   -0.03    0.08 
 -15  -1   2    0.02    0.08 
  15   1  -2    0.03    0.06 
  15   1  -2   -0.04    0.05 
  14  -1  -2    3.60    0.27 
  14  -1  -2    4.12    0.22 
  14  -1  -2    3.68    0.28 
 -14  -1   2    3.75    0.27 
  14   1  -2    4.09    0.24 
  14   1  -2    3.93    0.24 
  13  -1  -2   16.04    0.59 
 -13  -1   2   15.31    0.57 
  13  -1  -2   14.68    0.57 
  13  -1  -2   14.80    0.49 
  13   1  -2   15.59    0.51 
  13   1  -2   15.80    0.52 
  12  -1  -2   21.77    0.62 
  12  -1  -2   20.91    0.70 
  12  -1  -2   21.48    0.70 
 -12  -1   2   21.25    0.70 
  12   1  -2   21.05    0.63 
  12   1  -2   22.53    0.65 
  11  -1  -2    6.10    0.31 
  11  -1  -2    6.55    0.32 
 -11  -1   2    5.48    0.30 
  11  -1  -2    6.57    0.26 
  11   1  -2    6.43    0.26 
 -11   1   2    5.70    0.29 
  11   1  -2    6.35    0.27 
  10  -1  -2    0.07    0.04 
  10  -1  -2    0.07    0.05 
  10  -1  -2    0.10    0.06 
 -10  -1   2    0.09    0.06 
  10   1  -2    0.08    0.04 
 -10   1   2    0.12    0.06 
  10   1  -2    0.10    0.05 
  10   1  -2    0.05    0.05 
   9  -1  -2   17.21    0.55 
   9  -1  -2   17.96    0.54 
  -9  -1   2   16.83    0.55 
   9  -1  -2   17.22    0.48 
   9   1  -2   17.19    0.48 
  -9   1   2   17.41    0.53 
   9   1  -2   17.84    0.53 
   9   1  -2   16.76    0.49 
   8  -1  -2    6.22    0.27 
   8  -1  -2    6.12    0.22 
   8  -1  -2    6.85    0.28 
  -8   1   2    6.31    0.26 
   8   1  -2    6.18    0.26 
   8   1  -2    6.07    0.22 
   8   1  -2    6.05    0.23 
  -7  -1   2   31.11    0.75 
   7  -1  -2   31.93    0.82 
   7  -1  -2   30.53    0.75 
   7  -1  -2   31.23    0.79 
  -7   1   2   30.13    0.78 
   7   1  -2   30.57    0.78 
   7   1  -2   31.43    0.77 
   7   1  -2   31.00    0.76 
  -6  -1   2   62.91    1.43 
   6  -1  -2   63.74    1.45 
   6  -1  -2   65.11    1.51 
   6  -1  -2   64.30    1.43 
   6   1  -2   61.21    1.44 
   6   1  -2   64.23    1.43 
   6   1  -2   63.33    1.44 
  -6   1   2   63.65    1.44 
   5  -1  -2   49.88    1.14 
   5  -1  -2   51.67    1.21 
  -5  -1   2   51.19    1.14 
  -5  -1   2   50.84    1.26 
   5  -1  -2   51.25    1.16 
  -5  -1   2   51.00    1.14 
   5   1  -2   51.30    1.24 
   5   1  -2   52.41    1.16 
   5   1  -2   49.11    1.16 
   5   1  -2   49.23    1.14 
  -5   1   2   50.80    1.15 
   4  -1  -2   54.86    1.24 
  -4  -1   2   57.90    1.24 
  -4  -1   2   56.52    1.38 
   4  -1  -2   55.70    1.31 
  -4  -1   2   57.63    1.24 
  -4  -1   2   55.47    1.24 
   4   1  -2   55.12    1.25 
   4   1  -2   55.24    1.36 
  -4   1   2   56.72    1.24 
   4   1  -2   55.48    1.24 
   3  -1  -2    6.01    0.19 
  -3  -1   2    6.12    0.20 
   3  -1  -2    6.30    0.22 
  -3  -1   2    6.30    0.23 
   3   1  -2    6.57    0.22 
  -2  -1   2    6.07    0.23 
   2  -1  -2    6.41    0.17 
   2  -1  -2    6.44    0.20 
  -2  -1   2    6.41    0.19 
  -2   1   2    6.50    0.19 
   2   1  -2    6.52    0.23 
  -1  -1   2    0.54    0.04 
  -1  -1   2    0.53    0.07 
   1  -1  -2    0.54    0.03 
   1  -1  -2    0.53    0.05 
  -1  -1   2    0.56    0.04 
   1   1  -2    0.40    0.06 
  -1   1   2    0.56    0.05 
   0  -1  -2   59.07    1.25 
   0  -1  -2   57.80    1.31 
   0  -1   2   55.68    1.25 
   0  -1  -2   57.53    1.26 
   0  -1   2   59.04    1.26 
   0  -1   2   58.06    1.45 
   0   1   2   57.73    1.30 
   0   1  -2   60.53    1.35 
   0   1  -2   58.38    1.45 
   1  -1   2  196.58    4.40 
  -1  -1  -2  196.92    4.19 
  -1  -1  -2  197.57    4.20 
   1  -1   2  194.09    4.22 
  -1   1  -2  193.72    4.69 
   1   1   2  203.29    4.38 
   1   1   2  194.46    4.72 
  -2  -1  -2   61.33    1.53 
   2  -1   2   63.08    1.48 
   2  -1   2   64.63    1.40 
   2  -1   2   63.57    1.39 
  -2  -1  -2   63.08    1.38 
   2  -1   2   62.98    1.38 
  -2   1  -2   62.55    1.37 
   2   1   2   64.42    1.54 
  -3  -1  -2    5.40    0.19 
   3  -1   2    5.58    0.22 
  -3  -1  -2    5.28    0.19 
  -3  -1  -2    5.31    0.14 
   3  -1   2    5.42    0.19 
   3  -1   2    5.41    0.16 
  -3  -1  -2    5.22    0.16 
   3   1   2    4.97    0.18 
   3   1   2    5.37    0.14 
   3   1   2    5.65    0.17 
  -3   1  -2    5.49    0.18 
  -4  -1  -2    0.83    0.05 
   4  -1   2    0.69    0.09 
   4  -1   2    0.85    0.06 
  -4  -1  -2    0.85    0.05 
  -4  -1  -2    0.81    0.08 
   4  -1   2    0.70    0.07 
  -4   1  -2    0.63    0.07 
   4   1   2    0.80    0.07 
   4   1   2    0.89    0.06 
   4   1   2    0.77    0.05 
  -5  -1  -2    2.08    0.13 
  -5  -1  -2    2.32    0.09 
   5  -1   2    2.19    0.14 
   5  -1   2    1.95    0.14 
   5  -1   2    1.90    0.10 
   5   1   2    2.11    0.13 
   5   1   2    2.23    0.09 
  -5   1  -2    1.95    0.13 
   5   1   2    2.25    0.11 
  -6  -1  -2    0.76    0.09 
   6  -1   2    0.59    0.09 
   6  -1   2    0.82    0.07 
   6  -1   2    0.89    0.10 
  -6  -1  -2    0.73    0.06 
   6   1   2    0.90    0.07 
   6   1   2    0.65    0.08 
   6   1   2    0.68    0.07 
  -6   1  -2    0.77    0.08 
   7  -1   2    8.64    0.33 
  -7  -1  -2    9.13    0.34 
   7  -1   2    9.20    0.36 
  -7  -1  -2    8.59    0.27 
   7  -1   2    8.43    0.28 
   7   1   2    8.77    0.28 
   7   1   2    9.30    0.30 
   7   1   2    9.14    0.33 
  -7   1  -2    8.88    0.32 
   8  -1   2   24.88    0.74 
   8  -1   2   23.87    0.64 
   8  -1   2   24.14    0.71 
  -8  -1  -2   24.22    0.70 
   8   1   2   24.49    0.64 
  -8   1  -2   24.81    0.69 
   8   1   2   25.82    0.70 
   8   1   2   24.89    0.67 
   9  -1   2    0.01    0.04 
   9  -1   2   -0.02    0.05 
  -9  -1  -2    0.01    0.05 
   9  -1   2    0.08    0.06 
   9   1   2    0.00    0.05 
  -9   1  -2    0.01    0.05 
   9   1   2   -0.04    0.03 
   9   1   2    0.01    0.04 
 -10  -1  -2   11.62    0.45 
  10  -1   2   12.23    0.48 
  10  -1   2   11.68    0.46 
  10  -1   2   11.84    0.39 
  10   1   2   10.86    0.38 
  10   1   2   11.89    0.40 
  11  -1   2    0.63    0.12 
  11  -1   2    0.58    0.12 
 -11  -1  -2    0.50    0.11 
  11  -1   2    0.52    0.08 
  11   1   2    0.48    0.09 
  11   1   2    0.62    0.10 
  12  -1   2    1.04    0.15 
  12  -1   2    0.87    0.15 
  12  -1   2    0.80    0.10 
 -12  -1  -2    0.87    0.14 
  12   1   2    0.79    0.11 
  12   1   2    0.74    0.11 
  13  -1   2    2.27    0.17 
  13  -1   2    2.46    0.23 
 -13  -1  -2    2.54    0.23 
  13  -1   2    2.50    0.24 
  13   1   2    2.34    0.19 
  13   1   2    2.32    0.18 
 -14  -1  -2    0.76    0.15 
  14  -1   2    0.65    0.10 
  14  -1   2    0.90    0.17 
  14   1   2    0.82    0.13 
  14   1   2    0.67    0.12 
  15  -1   2    1.75    0.16 
  15  -1   2    1.95    0.24 
  15   1   2    1.69    0.18 
  16  -1   2    3.67    0.24 
  16  -1   2    3.61    0.32 
  16   1   2    3.41    0.26 
  17  -1   2    1.47    0.15 
  17  -1   2    1.42    0.23 
  17   1   2    1.24    0.17 
  18  -1   2    5.14    0.41 
  18  -1   2    4.61    0.28 
  18   1   2    4.98    0.32 
  19  -2  -2   10.23    0.37 
  19   2  -2   10.47    0.50 
  18  -2  -2    0.54    0.18 
  18  -2  -2    0.89    0.11 
  18   2  -2    0.96    0.16 
  17  -2  -2    2.21    0.15 
 -17  -2   2    2.11    0.25 
  17  -2  -2    2.38    0.29 
 -17  -2   2    2.35    0.14 
  17   2  -2    2.35    0.21 
  16  -2  -2    0.71    0.16 
 -16  -2   2    0.64    0.16 
 -16  -2   2    0.56    0.07 
  16  -2  -2    0.61    0.17 
  16  -2  -2    0.84    0.09 
  16   2  -2    0.63    0.12 
  16   2  -2    0.63    0.13 
  15  -2  -2    0.00    0.04 
 -15  -2   2   -0.03    0.04 
 -15  -2   2   -0.08    0.07 
  15  -2  -2    0.01    0.09 
  15  -2  -2   -0.07    0.07 
  15   2  -2   -0.03    0.05 
  15   2  -2   -0.02    0.07 
 -14  -2   2   -0.09    0.08 
  14  -2  -2   -0.03    0.04 
 -14  -2   2    0.00    0.04 
  14  -2  -2    0.04    0.08 
  14  -2  -2   -0.06    0.07 
  14   2  -2    0.00    0.06 
  14   2  -2   -0.02    0.05 
  13  -2  -2    0.09    0.09 
 -13  -2   2   -0.03    0.04 
  13  -2  -2   -0.05    0.07 
 -13  -2   2   -0.11    0.07 
  13  -2  -2   -0.04    0.04 
  13   2  -2    0.03    0.06 
  13   2  -2    0.07    0.05 
  12  -2  -2    4.93    0.32 
 -12  -2   2    4.73    0.17 
 -12  -2   2    4.87    0.29 
  12  -2  -2    4.03    0.28 
  12  -2  -2    4.80    0.19 
  12   2  -2    5.16    0.26 
  12   2  -2    4.85    0.22 
 -11  -2   2   36.83    0.86 
  11  -2  -2   37.85    1.04 
  11  -2  -2   37.63    1.11 
 -11  -2   2   38.38    1.04 
  11  -2  -2   37.28    0.89 
  11   2  -2   37.41    0.95 
  11   2  -2   37.26    0.98 
  10  -2  -2    0.05    0.05 
  10  -2  -2    0.01    0.06 
  10  -2  -2    0.03    0.03 
  10   2  -2   -0.01    0.04 
  10   2  -2    0.03    0.04 
   9  -2  -2    8.09    0.38 
   9  -2  -2    8.17    0.33 
   9   2  -2    8.69    0.30 
   9   2  -2    8.12    0.28 
   8  -2  -2   15.22    0.48 
   8  -2  -2   15.82    0.55 
   8   2  -2   15.49    0.44 
   8   2  -2   15.79    0.47 
   8   2  -2   15.10    0.44 
   7  -2  -2   22.57    0.61 
  -7  -2   2   20.02    0.58 
   7  -2  -2   21.68    0.67 
   7   2  -2   22.41    0.56 
   7   2  -2   21.21    0.60 
   6  -2  -2   12.96    0.39 
   6  -2  -2   12.59    0.45 
   6   2  -2   13.44    0.35 
   6   2  -2   12.93    0.41 
   5  -2  -2    4.88    0.19 
  -5  -2   2    4.76    0.18 
   5  -2  -2    4.93    0.19 
   5  -2  -2    4.74    0.24 
   5   2  -2    4.72    0.21 
  -4  -2   2    1.87    0.11 
   4  -2  -2    2.11    0.15 
  -4  -2   2    2.11    0.10 
   4  -2  -2    2.10    0.10 
   4  -2  -2    2.29    0.11 
   4   2  -2    2.14    0.14 
  -3  -2   2    6.60    0.19 
   3  -2  -2    6.17    0.26 
   3  -2  -2    6.40    0.19 
   3  -2  -2    6.76    0.19 
  -3  -2   2    6.47    0.20 
   3   2  -2    6.56    0.28 
   2  -2  -2   39.00    0.84 
  -2  -2   2   38.52    0.85 
   2  -2  -2   37.65    0.96 
   2  -2  -2   38.25    0.84 
  -2  -2   2   38.81    0.86 
   2   2  -2   38.91    1.05 
  -1  -2   2    9.98    0.25 
   1  -2  -2   10.34    0.33 
  -1  -2   2    9.91    0.24 
   1   2  -2    9.77    0.38 
   0  -2   2   53.10    1.16 
   0  -2   2   54.65    1.16 
   0  -2  -2   53.45    1.26 
   0   2  -2   53.43    1.43 
  -1  -2  -2   52.65    1.13 
   1  -2   2   51.91    1.13 
   1  -2   2   51.14    1.29 
   1  -2   2   52.40    1.14 
  -1  -2  -2   52.24    1.13 
  -1   2  -2   50.15    1.40 
   1   2   2   52.24    1.31 
   2  -2   2   52.47    1.18 
   2  -2   2   54.49    1.20 
  -2  -2  -2   55.06    1.18 
  -2  -2  -2   53.55    1.18 
   2  -2   2   51.83    1.34 
   2   2   2   56.64    1.26 
   2   2   2   52.20    1.33 
   3  -2   2   53.89    1.37 
   3  -2   2   54.23    1.23 
   3  -2   2   54.83    1.22 
  -3  -2  -2   53.98    1.21 
  -3  -2  -2   54.38    1.21 
  -3  -2  -2   53.89    1.34 
   3   2   2   54.44    1.32 
  -4  -2  -2   83.63    1.79 
  -4  -2  -2   77.47    1.94 
   4  -2   2   79.56    1.95 
  -4  -2  -2   80.73    1.78 
   4  -2   2   81.39    1.80 
   4   2   2   80.56    1.90 
   5  -2   2   35.89    0.86 
  -5  -2  -2   35.00    0.86 
   5  -2   2   35.66    0.87 
  -5  -2  -2   32.88    0.89 
   5  -2   2   33.88    0.97 
   5   2   2   35.74    0.85 
   5   2   2   34.25    0.81 
  -6  -2  -2    5.96    0.25 
   6  -2   2    5.95    0.31 
  -6  -2  -2    5.78    0.23 
   6  -2   2    6.56    0.27 
  -6  -2  -2    6.74    0.26 
   6   2   2    6.32    0.19 
   6   2   2    6.40    0.22 
  -7  -2  -2    4.13    0.19 
   7  -2   2    4.27    0.13 
   7  -2   2    3.97    0.22 
  -7  -2  -2    4.52    0.22 
   7  -2   2    4.50    0.27 
   7   2   2    4.30    0.16 
   7   2   2    4.37    0.19 
   8  -2   2   10.88    0.47 
   8  -2   2   11.09    0.41 
   8  -2   2   11.11    0.30 
  -8  -2  -2   10.87    0.36 
  -8  -2  -2   10.55    0.40 
   8   2   2   11.30    0.32 
   8   2   2   11.20    0.36 
   9  -2   2    9.04    0.27 
  -9  -2  -2    8.85    0.37 
   9  -2   2    8.24    0.42 
   9  -2   2    8.39    0.37 
   9   2   2    8.80    0.28 
   9   2   2    9.03    0.33 
  10  -2   2   15.74    0.62 
  10  -2   2   15.93    0.57 
  10  -2   2   16.13    0.44 
 -10  -2  -2   16.14    0.56 
  10   2   2   16.23    0.51 
  10   2   2   15.91    0.46 
  11  -2   2    6.85    0.40 
 -11  -2  -2    7.33    0.21 
 -11  -2  -2    8.25    0.38 
  11  -2   2    7.61    0.26 
  11  -2   2    7.48    0.38 
  11   2   2    7.30    0.32 
  11   2   2    7.44    0.29 
 -12  -2  -2   30.10    0.93 
  12  -2   2   29.65    0.78 
  12  -2   2   32.09    0.96 
 -12  -2  -2   30.77    0.73 
  12  -2   2   30.18    1.02 
  12   2   2   30.76    0.83 
  12   2   2   31.12    0.88 
 -13  -2  -2    3.70    0.15 
 -13  -2  -2    3.76    0.28 
  13  -2   2    3.65    0.31 
  13  -2   2    3.85    0.19 
  13  -2   2    4.08    0.30 
  13   2   2    4.14    0.25 
  14  -2   2    0.05    0.05 
 -14  -2  -2    0.15    0.10 
  14  -2   2   -0.03    0.09 
  14  -2   2   -0.01    0.08 
 -14  -2  -2    0.00    0.03 
  14   2   2    0.05    0.07 
 -15  -2  -2    0.04    0.09 
  15  -2   2    0.03    0.05 
  15  -2   2   -0.09    0.07 
  15  -2   2    0.02    0.11 
 -15  -2  -2    0.00    0.04 
  15   2   2    0.12    0.09 
  16  -2   2    0.17    0.13 
 -16  -2  -2   -0.06    0.09 
  16  -2   2   -0.01    0.05 
  16   2   2   -0.03    0.08 
  17  -2   2    0.01    0.06 
  17  -2   2    0.04    0.14 
  17   2   2    0.04    0.10 
  18  -2   2    0.51    0.10 
  18  -2   2    0.40    0.18 
  18   2   2    0.57    0.15 
 -18  -3   2   -0.02    0.11 
  18  -3  -2    0.04    0.13 
  17  -3  -2    0.12    0.13 
  17  -3  -2    0.44    0.19 
 -17  -3   2    0.26    0.13 
 -16  -3   2    1.10    0.19 
  16  -3  -2    1.17    0.23 
  16  -3  -2    1.05    0.19 
 -15  -3   2    0.93    0.17 
  15  -3  -2    0.73    0.16 
  15  -3  -2    0.56    0.18 
  14  -3  -2    0.32    0.12 
  14  -3  -2    0.09    0.11 
 -14  -3   2    0.03    0.08 
  14   3  -2    0.04    0.06 
  13  -3  -2    3.81    0.28 
 -13  -3   2    3.32    0.26 
  13  -3  -2    3.45    0.32 
  13   3  -2    3.75    0.20 
 -12  -3   2    3.25    0.25 
  12  -3  -2    3.24    0.30 
  12  -3  -2    2.98    0.24 
  12   3  -2    3.36    0.19 
  11  -3  -2   21.47    0.81 
 -11  -3   2   20.58    0.70 
  11  -3  -2   21.83    0.71 
  11   3  -2   22.60    0.62 
  10  -3  -2    3.88    0.30 
  10  -3  -2    4.11    0.25 
  10   3  -2    4.77    0.21 
   9  -3  -2   10.39    0.39 
   9  -3  -2    9.44    0.47 
   9   3  -2   10.43    0.37 
   8  -3  -2    3.13    0.19 
   8  -3  -2    3.52    0.26 
   8   3  -2    3.30    0.18 
   7  -3  -2    0.63    0.09 
   7  -3  -2    0.67    0.09 
  -7  -3   2    0.72    0.09 
   7  -3  -2    0.62    0.13 
   7   3  -2    0.53    0.08 
   6  -3  -2    2.01    0.19 
  -6  -3   2    1.62    0.12 
   6  -3  -2    1.74    0.13 
   6  -3  -2    1.48    0.12 
   6   3  -2    1.74    0.14 
   5  -3  -2   21.44    0.71 
   5  -3  -2   22.16    0.57 
   5  -3  -2   22.18    0.57 
  -5  -3   2   21.94    0.56 
  -5  -3   2   22.67    0.59 
   5   3  -2   22.68    0.69 
   4  -3  -2    0.71    0.06 
  -4  -3   2    0.58    0.07 
   4  -3  -2    0.69    0.06 
   4  -3  -2    0.46    0.10 
  -4  -3   2    0.67    0.06 
   4   3  -2    0.60    0.10 
   3  -3  -2  121.06    2.60 
   3  -3  -2  122.09    2.60 
  -3  -3   2  122.56    2.62 
  -3  -3   2  122.23    2.60 
   3  -3  -2  123.39    2.86 
   3   3  -2  123.25    3.04 
  -2  -3   2   24.30    0.55 
   2  -3  -2   23.77    0.53 
   2  -3  -2   24.84    0.72 
  -2  -3   2   23.40    0.54 
   2   3  -2   22.14    0.76 
   1  -3  -2   27.71    0.78 
  -1  -3   2   27.22    0.61 
  -1  -3   2   27.01    0.61 
   1   3  -2   27.24    0.88 
   0  -3   2    2.24    0.09 
   0  -3   2    2.34    0.09 
   0   3   2    2.26    0.18 
   0   3  -2    2.56    0.22 
   1  -3   2    3.14    0.12 
   1  -3   2    2.87    0.11 
  -1   3  -2    2.82    0.23 
   1   3   2    2.85    0.19 
   2  -3   2    1.51    0.09 
  -2  -3  -2    1.57    0.08 
   2  -3   2    1.49    0.08 
   2  -3   2    1.36    0.16 
   2   3   2    1.56    0.14 
  -2   3  -2    1.36    0.18 
  -3  -3  -2    0.44    0.05 
   3  -3   2    0.40    0.05 
  -3  -3  -2    0.37    0.05 
   3  -3   2    0.46    0.06 
   3  -3   2    0.28    0.09 
   3   3   2    0.35    0.07 
  -4  -3  -2    6.63    0.24 
   4  -3   2    6.73    0.25 
   4  -3   2    5.79    0.33 
  -4  -3  -2    6.80    0.23 
   4  -3   2    6.83    0.24 
   4   3   2    6.98    0.26 
  -5  -3  -2   25.36    0.67 
   5  -3   2   25.83    0.84 
   5  -3   2   26.41    0.68 
  -5  -3  -2   25.81    0.67 
  -5  -3  -2   25.37    0.75 
   5  -3   2   25.67    0.69 
   5   3   2   26.41    0.70 
  -6  -3  -2   18.83    0.53 
  -6  -3  -2   16.35    0.55 
  -6  -3  -2   17.76    0.51 
   6  -3   2   17.34    0.53 
   6  -3   2   16.57    0.64 
   6   3   2   18.29    0.49 
   7  -3   2    6.03    0.28 
   7  -3   2    5.51    0.35 
  -7  -3  -2    6.33    0.28 
   7   3   2    6.43    0.22 
   7   3   2    6.29    0.22 
   8  -3   2    0.43    0.10 
   8  -3   2    0.55    0.14 
  -8  -3  -2    0.55    0.10 
   8   3   2    0.60    0.07 
   9  -3   2    2.84    0.27 
   9  -3   2    2.97    0.22 
  -9  -3  -2    3.22    0.22 
   9   3   2    3.19    0.15 
  10  -3   2    4.52    0.34 
  10  -3   2    4.62    0.29 
 -10  -3  -2    4.20    0.27 
 -11  -3  -2    4.36    0.29 
  11  -3   2    4.63    0.36 
  11  -3   2    4.55    0.30 
  12  -3   2    0.66    0.18 
 -12  -3  -2    0.38    0.13 
  12  -3   2    0.51    0.14 
  13  -3   2    1.57    0.21 
  13  -3   2    1.72    0.26 
 -13  -3  -2    1.08    0.17 
  14  -3   2    1.21    0.24 
 -14  -3  -2    1.12    0.19 
  14  -3   2    1.37    0.21 
  15  -3   2    0.39    0.15 
 -15  -3  -2    0.18    0.11 
  15  -3   2    0.33    0.17 
 -16  -3  -2    0.67    0.18 
  16  -3   2    0.80    0.20 
  16  -3   2    0.58    0.21 
 -17  -3  -2    1.23    0.23 
  17  -4  -2    4.37    0.37 
 -17  -4   2    3.04    0.31 
 -16  -4   2    0.76    0.18 
  16  -4  -2    0.73    0.19 
  15  -4  -2    0.57    0.16 
  15  -4  -2    0.48    0.19 
 -15  -4   2    0.57    0.15 
  14  -4  -2    1.24    0.24 
 -14  -4   2    1.87    0.21 
  14  -4  -2    1.24    0.19 
  13  -4  -2    0.21    0.14 
  13  -4  -2    0.07    0.09 
 -13  -4   2    0.03    0.09 
  12  -4  -2    0.02    0.10 
  12  -4  -2    0.05    0.09 
 -12  -4   2    0.16    0.09 
  12   4  -2    0.12    0.06 
  11  -4  -2    0.34    0.14 
 -11  -4   2    0.36    0.11 
  11  -4  -2    0.21    0.10 
  11   4  -2    0.44    0.08 
  10  -4  -2   -0.07    0.08 
  10  -4  -2   -0.08    0.06 
  10   4  -2   -0.03    0.05 
   9  -4  -2   12.08    0.59 
   9  -4  -2   11.90    0.45 
   9   4  -2   12.91    0.46 
   8  -4  -2    3.44    0.30 
   8  -4  -2    3.09    0.20 
   8   4  -2    2.74    0.20 
   7  -4  -2    9.79    0.49 
   7  -4  -2    9.26    0.34 
   7   4  -2    9.40    0.40 
   6  -4  -2    5.11    0.33 
   6  -4  -2    4.32    0.21 
   6   4  -2    4.66    0.27 
  -5  -4   2    3.89    0.18 
   5  -4  -2    4.05    0.29 
   5  -4  -2    4.09    0.18 
   5  -4  -2    4.00    0.18 
  -5  -4   2    3.79    0.17 
   5   4  -2    4.09    0.26 
   4  -4  -2    1.92    0.11 
   4  -4  -2    2.37    0.22 
  -4  -4   2    1.89    0.11 
  -4  -4   2    1.91    0.12 
   4  -4  -2    1.87    0.11 
   4   4  -2    1.92    0.19 
  -3  -4   2   -0.01    0.03 
   3  -4  -2    0.02    0.02 
   3  -4  -2    0.02    0.03 
   3  -4  -2   -0.10    0.05 
  -3  -4   2    0.00    0.03 
   3   4  -2    0.00    0.06 
  -2  -4   2    0.30    0.04 
   2  -4  -2    0.35    0.10 
  -2  -4   2    0.24    0.04 
   2   4  -2    0.63    0.14 
  -2   4   2    0.28    0.11 
  -1  -4   2   26.35    0.60 
  -1  -4   2   26.47    0.60 
   1   4  -2   26.19    0.92 
  -1   4   2   26.22    0.90 
   0  -4   2    1.60    0.08 
   0  -4   2    1.66    0.08 
   0   4   2    1.51    0.18 
   0   4  -2    1.83    0.22 
   1  -4   2    4.67    0.16 
   1  -4   2    4.78    0.16 
  -1   4  -2    4.40    0.33 
   1   4   2    4.59    0.29 
  -2  -4  -2   14.61    0.36 
   2  -4   2   14.32    0.38 
   2  -4   2   14.80    0.40 
  -2   4  -2   14.81    0.66 
   2   4   2   14.15    0.55 
   3  -4   2    4.72    0.19 
  -3  -4  -2    4.43    0.17 
  -3  -4  -2    4.80    0.18 
   3  -4   2    4.77    0.19 
   3   4   2    5.09    0.28 
  -3   4  -2    4.22    0.35 
  -4  -4  -2   10.14    0.31 
   4  -4   2    9.36    0.48 
   4  -4   2   10.70    0.34 
   4  -4   2    9.65    0.33 
  -4  -4  -2   10.39    0.32 
   4   4   2   10.01    0.40 
  -4   4  -2    9.91    0.55 
  -5  -4  -2    1.60    0.12 
   5  -4   2    2.01    0.24 
   5  -4   2    1.43    0.13 
  -5   4  -2    1.57    0.24 
   5   4   2    1.66    0.14 
  -6  -4  -2    0.09    0.06 
   6  -4   2    0.07    0.06 
   6  -4   2    0.08    0.08 
   6   4   2    0.12    0.05 
  -7  -4  -2    9.22    0.36 
   7  -4   2   10.12    0.39 
   7  -4   2    8.62    0.49 
  -8  -4  -2    0.28    0.08 
   8  -4   2    0.30    0.09 
   8  -4   2    0.28    0.14 
   9  -4   2    0.32    0.10 
   9  -4   2    0.08    0.11 
  -9  -4  -2    0.19    0.08 
 -10  -4  -2    0.72    0.13 
  10  -4   2    0.73    0.14 
  10  -4   2    0.79    0.19 
  11  -4   2    0.27    0.15 
 -11  -4  -2    0.10    0.09 
  11  -4   2    0.29    0.12 
 -12  -4  -2    0.60    0.14 
  12  -4   2    0.92    0.17 
  12  -4   2    0.78    0.21 
  13  -4   2    0.80    0.17 
 -13  -4  -2    0.48    0.13 
  13  -4   2    0.46    0.19 
 -14  -4  -2    0.21    0.12 
  14  -4   2    0.34    0.18 
  14  -4   2    0.35    0.15 
 -15  -4  -2    0.49    0.15 
  15  -4   2    0.26    0.15 
 -16  -4  -2    0.13    0.13 
  16  -4   2   -0.01    0.11 
 -15  -5   2    1.32    0.21 
  15  -5  -2    1.16    0.20 
 -14  -5   2    1.64    0.21 
  14  -5  -2    1.70    0.22 
  13  -5  -2    3.14    0.27 
  13  -5  -2    2.93    0.36 
 -13  -5   2    2.81    0.25 
 -12  -5   2    3.18    0.25 
  12  -5  -2    3.41    0.26 
  12  -5  -2    3.34    0.37 
  11  -5  -2    1.71    0.18 
  11  -5  -2    1.50    0.26 
 -11  -5   2    1.47    0.18 
  10  -5  -2    2.49    0.31 
  10  -5  -2    2.26    0.20 
   9  -5  -2    1.15    0.14 
   9  -5  -2    1.20    0.23 
   8  -5  -2   10.61    0.41 
   8  -5  -2   10.81    0.59 
   8   5  -2   12.08    0.49 
   7  -5  -2    3.11    0.31 
   7  -5  -2    3.26    0.20 
   7   5  -2    3.21    0.25 
   6  -5  -2    1.40    0.23 
   6  -5  -2    2.16    0.15 
   6   5  -2    2.12    0.22 
   5  -5  -2    9.91    0.52 
   5  -5  -2   10.96    0.35 
   5   5  -2   11.33    0.52 
   4  -5  -2   10.37    0.51 
   4  -5  -2   10.46    0.32 
  -4  -5   2   10.17    0.33 
   4  -5  -2   10.31    0.31 
  -4  -5   2   10.61    0.31 
  -4   5   2   10.09    0.57 
   4   5  -2   10.70    0.52 
  -3  -5   2    8.60    0.27 
   3  -5  -2    8.46    0.25 
  -3  -5   2    8.86    0.26 
   3  -5  -2    8.15    0.25 
   3   5  -2    9.01    0.49 
  -3   5   2    8.23    0.50 
  -2  -5   2   16.37    0.42 
  -2  -5   2   16.07    0.41 
  -2   5   2   16.64    0.73 
   2   5  -2   16.34    0.71 
  -1  -5   2    8.43    0.24 
  -1  -5   2    8.36    0.25 
   1   5  -2    8.83    0.51 
  -1   5   2    8.27    0.48 
   0  -5   2   37.88    0.88 
   0  -5   2   38.54    0.87 
   0   5   2   37.79    1.24 
   0   5  -2   40.40    1.33 
   1  -5   2    5.84    0.20 
   1  -5   2    6.17    0.21 
  -1   5  -2    5.02    0.40 
   1   5   2    6.18    0.38 
  -2  -5  -2    0.74    0.06 
  -2  -5  -2    0.67    0.06 
   2  -5   2    0.62    0.08 
   2   5   2    0.79    0.15 
  -2   5  -2    0.53    0.18 
  -3  -5  -2    0.82    0.08 
   3  -5   2    0.86    0.09 
  -3  -5  -2    0.95    0.07 
   3   5   2    1.03    0.16 
  -3   5  -2    0.68    0.19 
  -4  -5  -2    0.91    0.09 
   4  -5   2    0.82    0.10 
  -4   5  -2    0.86    0.21 
   5  -5   2    2.74    0.18 
  -5  -5  -2    2.68    0.16 
  -5   5  -2    2.13    0.31 
  -6  -5  -2    7.48    0.30 
   6  -5   2    7.46    0.32 
   6  -5   2    7.18    0.47 
  -6   5  -2    7.28    0.53 
   7  -5   2    3.47    0.23 
   7  -5   2    2.72    0.31 
  -7  -5  -2    3.15    0.20 
  -7   5  -2    2.60    0.35 
   8  -5   2    9.07    0.40 
  -8  -5  -2    9.16    0.38 
   8  -5   2    8.99    0.55 
  -8   5  -2    9.67    0.64 
   9  -5   2    2.07    0.20 
  -9  -5  -2    2.32    0.19 
   9  -5   2    1.84    0.28 
  10  -5   2    3.51    0.27 
 -10  -5  -2    4.55    0.28 
  10  -5   2    4.45    0.41 
  11  -5   2    2.27    0.32 
  11  -5   2    2.49    0.24 
 -11  -5  -2    2.87    0.23 
  12  -5   2    3.39    0.29 
  12  -5   2    3.43    0.40 
 -12  -5  -2    2.56    0.24 
  13  -5   2    0.20    0.13 
 -13  -5  -2    0.66    0.15 
 -14  -5  -2   -0.05    0.09 
  14  -5   2   -0.09    0.10 
 -12  -6   2    0.80    0.15 
  12  -6  -2    0.72    0.15 
  11  -6  -2    1.51    0.18 
 -11  -6   2    1.80    0.19 
  10  -6  -2    0.64    0.13 
  10  -6  -2    0.87    0.24 
 -10  -6   2    0.52    0.12 
   9  -6  -2    3.46    0.24 
   9  -6  -2    3.04    0.36 
   8  -6  -2    4.08    0.25 
   8  -6  -2    4.98    0.43 
   7  -6  -2    4.26    0.39 
   7  -6  -2    3.57    0.22 
  -7   6   2    3.66    0.41 
   6  -6  -2    4.87    0.23 
  -6   6   2    4.63    0.45 
   5  -6  -2    0.51    0.08 
  -5   6   2    0.33    0.18 
   5   6  -2    0.93    0.18 
   4  -6  -2    0.16    0.05 
  -4  -6   2    0.17    0.06 
  -4   6   2    0.15    0.15 
   4   6  -2    0.32    0.14 
   3  -6  -2    1.09    0.08 
  -3  -6   2    0.91    0.09 
  -3   6   2    0.75    0.21 
   3   6  -2    0.77    0.19 
  -2  -6   2    0.02    0.05 
  -2   6   2    0.07    0.11 
   2   6  -2    0.11    0.12 
  -1  -6   2    7.25    0.24 
  -1   6   2    6.87    0.48 
   1   6  -2    7.12    0.49 
   0  -6   2    7.02    0.24 
   0   6   2    7.01    0.47 
   0   6  -2    7.26    0.51 
   1  -6   2    9.42    0.30 
  -1   6  -2    9.60    0.60 
   1   6   2    8.94    0.52 
   2  -6   2   11.41    0.36 
  -2   6  -2   10.40    0.65 
  -3  -6  -2    1.05    0.09 
   3  -6   2    1.22    0.12 
  -3   6  -2    1.05    0.25 
  -4  -6  -2    2.30    0.14 
   4  -6   2    2.30    0.16 
  -4   6  -2    1.84    0.31 
  -5  -6  -2    0.06    0.06 
   5  -6   2    0.09    0.07 
  -5   6  -2    0.10    0.14 
   6  -6   2    0.60    0.11 
  -6  -6  -2    0.63    0.10 
   7  -6   2    0.41    0.11 
  -7  -6  -2    0.28    0.09 
   8  -6   2    0.17    0.10 
  -8  -6  -2    0.14    0.08 
   9  -6   2    1.86    0.20 
  -9  -6  -2    1.88    0.18 
  10  -6   2    2.08    0.22 
 -10  -6  -2    2.11    0.20 
  11  -6   2    0.20    0.11 
 -11  -6  -2    0.16    0.10 
   7  -7  -2    0.05    0.07 
   6  -7  -2   -0.06    0.06 
   4  -7  -2    0.36    0.07 
   3  -7  -2    3.35    0.15 
  -2  -7   2    2.35    0.13 
   2   7  -2    2.18    0.31 
  -1  -7   2    1.07    0.09 
   0  -7   2    1.21    0.10 
   1  -7   2    2.57    0.15 
   2  -7   2    0.69    0.09 
   3  -7   2    0.07    0.07 
  -4  -7  -2    0.26    0.06 
   4  -7   2    0.35    0.09 
  -5  -7  -2    0.36    0.08 
   5  -7   2    0.36    0.10 
   6  -7   2    0.46    0.11 
  -6  -7  -2    0.38    0.08 
  20   0  -3    0.01    0.08 
  20   0  -3   -0.02    0.10 
  19   0  -3   -0.13    0.08 
  19   0  -3   -0.09    0.07 
  18   0  -3   -0.07    0.06 
  18   0  -3    0.09    0.09 
  17   0  -3   -0.05    0.07 
  17   0  -3   -0.05    0.06 
  16   0  -3    0.06    0.07 
  16   0  -3   -0.03    0.06 
  15   0  -3   -0.02    0.06 
  15   0  -3   -0.03    0.06 
  14   0  -3    0.00    0.06 
  14   0  -3   -0.02    0.06 
 -13   0   3   -0.12    0.05 
  13   0  -3   -0.04    0.05 
  13   0  -3    0.00    0.07 
  13   0  -3    0.07    0.06 
  12   0  -3    0.01    0.05 
  12   0  -3   -0.02    0.04 
 -12   0   3    0.01    0.06 
  12   0  -3    0.02    0.06 
  11   0  -3    0.01    0.04 
  11   0  -3    0.00    0.05 
  11   0  -3   -0.05    0.03 
 -11   0   3   -0.03    0.05 
 -10   0   3   -0.03    0.05 
  10   0  -3    0.01    0.03 
  10   0  -3   -0.02    0.04 
  10   0  -3    0.02    0.04 
   9   0  -3    0.02    0.04 
   9   0  -3    0.05    0.04 
   9   0  -3   -0.03    0.02 
  -9   0   3   -0.01    0.05 
   8   0  -3   -0.04    0.03 
   8   0  -3    0.01    0.03 
   8   0  -3   -0.01    0.03 
   7   0  -3   -0.03    0.03 
   7   0  -3   -0.08    0.02 
   7   0  -3   -0.11    0.03 
   6   0  -3    0.00    0.03 
   6   0  -3    0.00    0.02 
   6   0  -3    0.00    0.02 
   5   0  -3    0.06    0.02 
   5   0  -3    0.02    0.02 
   5   0  -3   -0.01    0.02 
   4   0  -3    0.04    0.03 
   4   0  -3    0.01    0.02 
   4   0  -3    0.02    0.02 
  -4   0   3    0.00    0.02 
   3   0  -3   -0.07    0.01 
   3   0  -3   -0.04    0.02 
  -3   0   3   -0.05    0.02 
   3   0  -3   -0.07    0.02 
  -3   0   3   -0.01    0.03 
  -2   0   3   -0.06    0.01 
  -2   0   3   -0.04    0.02 
   2   0  -3   -0.06    0.01 
  -2   0   3   -0.05    0.02 
   2   0  -3   -0.04    0.01 
   2   0  -3   -0.05    0.02 
   1   0  -3   -0.07    0.01 
   1   0  -3   -0.07    0.02 
  -1   0   3   -0.09    0.01 
  -1   0   3   -0.08    0.02 
  -1   0   3   -0.08    0.02 
   0   0  -3   -0.03    0.02 
   0   0   3   -0.03    0.02 
   0   0  -3    0.00    0.02 
   0   0   3    0.00    0.02 
   0   0   3   -0.02    0.01 
  -1   0  -3   -0.01    0.02 
  -1   0  -3   -0.02    0.02 
  -1   0  -3   -0.01    0.02 
   1   0   3   -0.01    0.02 
   1   0   3   -0.03    0.02 
   1   0   3   -0.02    0.02 
  -2   0  -3   -0.03    0.02 
   2   0   3   -0.04    0.02 
   2   0   3   -0.01    0.03 
   2   0   3    0.00    0.02 
  -2   0  -3   -0.04    0.02 
   3   0   3    0.01    0.03 
   3   0   3   -0.02    0.02 
   3   0   3   -0.01    0.02 
  -3   0  -3   -0.03    0.02 
  -3   0  -3   -0.04    0.02 
   4   0   3    0.00    0.02 
   4   0   3   -0.03    0.03 
   4   0   3   -0.03    0.02 
  -4   0  -3   -0.01    0.03 
   5   0   3    0.01    0.03 
   5   0   3   -0.01    0.02 
   5   0   3   -0.05    0.03 
  -5   0  -3   -0.03    0.03 
   6   0   3   -0.02    0.03 
  -6   0  -3    0.01    0.04 
   6   0   3   -0.05    0.02 
   6   0   3   -0.02    0.05 
  -7   0  -3   -0.02    0.05 
   7   0   3   -0.08    0.04 
   7   0   3    0.04    0.04 
   7   0   3   -0.06    0.03 
  -8   0  -3   -0.08    0.03 
   8   0   3   -0.03    0.04 
   8   0   3   -0.02    0.04 
   8   0   3   -0.02    0.04 
   9   0   3    0.03    0.04 
   9   0   3    0.01    0.06 
  -9   0  -3    0.02    0.06 
   9   0   3    0.00    0.05 
  10   0   3    0.00    0.06 
  10   0   3    0.00    0.05 
  10   0   3   -0.07    0.04 
 -10   0  -3    0.02    0.07 
 -11   0  -3   -0.05    0.06 
  11   0   3   -0.05    0.05 
  11   0   3   -0.01    0.05 
  11   0   3   -0.05    0.06 
  12   0   3   -0.05    0.05 
 -12   0  -3   -0.09    0.05 
  12   0   3   -0.04    0.06 
  13   0   3   -0.06    0.05 
  13   0   3    0.02    0.07 
  14   0   3    0.01    0.06 
  14   0   3   -0.05    0.07 
  15   0   3   -0.06    0.07 
  15   0   3    0.03    0.07 
  16   0   3   -0.04    0.07 
  17   0   3   -0.01    0.08 
  18   0   3   -0.08    0.08 
  20  -1  -3    0.48    0.12 
 -20  -1   3    0.68    0.13 
  20   1  -3    0.65    0.14 
  19  -1  -3    0.04    0.11 
  19  -1  -3   -0.01    0.07 
 -19  -1   3    0.05    0.08 
  19   1  -3    0.08    0.09 
  19   1  -3    0.10    0.10 
 -18  -1   3    0.00    0.07 
  18  -1  -3   -0.02    0.06 
  18  -1  -3    0.03    0.10 
  18   1  -3    0.11    0.09 
  18   1  -3    0.06    0.08 
  17  -1  -3    1.36    0.14 
 -17  -1   3    1.41    0.15 
  17  -1  -3    1.26    0.20 
  17   1  -3    1.45    0.17 
  17   1  -3    1.36    0.17 
  16  -1  -3   -0.03    0.05 
  16  -1  -3    0.03    0.08 
  16   1  -3   -0.07    0.05 
  16   1  -3    0.04    0.07 
 -15  -1   3    0.93    0.16 
  15  -1  -3    0.76    0.15 
  15  -1  -3    0.73    0.10 
  15  -1  -3    0.74    0.15 
  15   1  -3    0.72    0.12 
  15   1  -3    0.86    0.12 
 -14  -1   3    1.82    0.20 
  14  -1  -3    1.29    0.17 
  14  -1  -3    1.52    0.14 
  14  -1  -3    1.38    0.18 
  14   1  -3    1.34    0.14 
  14   1  -3    1.66    0.15 
  13  -1  -3    0.41    0.11 
  13  -1  -3    0.49    0.08 
 -13  -1   3    0.42    0.12 
  13  -1  -3    0.51    0.13 
  13   1  -3    0.49    0.09 
  13   1  -3    0.52    0.10 
  12  -1  -3   -0.08    0.04 
  12  -1  -3   -0.02    0.06 
  12  -1  -3   -0.03    0.06 
 -12  -1   3   -0.15    0.05 
  12   1  -3   -0.08    0.05 
  12   1  -3    0.02    0.04 
 -11  -1   3    4.13    0.26 
  11  -1  -3    4.34    0.26 
  11  -1  -3    4.39    0.20 
  11  -1  -3    4.44    0.25 
  11   1  -3    4.40    0.22 
  11   1  -3    4.05    0.24 
 -11   1   3    4.64    0.25 
  11   1  -3    4.89    0.21 
  10  -1  -3    1.32    0.10 
  10  -1  -3    1.32    0.14 
  10  -1  -3    1.53    0.14 
 -10   1   3    1.39    0.13 
  10   1  -3    1.39    0.13 
  10   1  -3    1.08    0.10 
  10   1  -3    1.34    0.11 
   9  -1  -3    9.60    0.35 
  -9  -1   3    8.46    0.29 
   9  -1  -3    8.21    0.33 
   9  -1  -3    8.73    0.28 
  -9   1   3    8.10    0.32 
   9   1  -3    8.59    0.30 
   9   1  -3    8.42    0.29 
   9   1  -3    8.59    0.33 
   8  -1  -3  100.42    2.32 
   8  -1  -3  103.02    2.25 
   8  -1  -3   98.56    2.25 
  -8  -1   3  100.53    2.25 
   8   1  -3  102.02    2.24 
   8   1  -3   98.86    2.26 
  -8   1   3  100.66    2.25 
   8   1  -3   99.30    2.27 
   7  -1  -3   37.74    0.90 
   7  -1  -3   38.86    0.94 
  -7  -1   3   38.18    0.90 
   7   1  -3   37.43    0.91 
   7   1  -3   37.99    0.91 
  -7   1   3   37.80    0.93 
   7   1  -3   38.69    0.93 
   6  -1  -3   16.81    0.46 
   6  -1  -3   15.73    0.47 
  -6  -1   3   16.74    0.42 
   6  -1  -3   16.16    0.41 
   6   1  -3   17.00    0.45 
   6   1  -3   15.99    0.46 
  -6   1   3   16.40    0.46 
   6   1  -3   16.57    0.43 
   6   1  -3   16.63    0.44 
   5  -1  -3    4.21    0.17 
   5  -1  -3    4.25    0.18 
  -5  -1   3    4.53    0.19 
  -5  -1   3    4.27    0.14 
   5  -1  -3    4.11    0.13 
  -5  -1   3    3.86    0.13 
   5   1  -3    4.39    0.17 
  -5   1   3    4.38    0.17 
   5   1  -3    3.99    0.15 
   5   1  -3    4.21    0.17 
  -4  -1   3   11.35    0.34 
   4  -1  -3   12.13    0.34 
   4  -1  -3   12.06    0.33 
  -4  -1   3   11.48    0.37 
  -4  -1   3   11.83    0.29 
  -4  -1   3   12.07    0.29 
   4   1  -3   12.12    0.31 
   4   1  -3   12.15    0.32 
   4   1  -3   11.66    0.36 
  -3  -1   3    0.07    0.01 
  -3  -1   3    0.03    0.03 
   3  -1  -3    0.05    0.03 
  -3  -1   3    0.03    0.03 
   3  -1  -3    0.05    0.03 
  -3  -1   3    0.03    0.03 
  -3  -1   3    0.07    0.01 
   3   1  -3    0.03    0.03 
   3   1  -3    0.06    0.02 
   3   1  -3    0.07    0.02 
   2  -1  -3   49.05    1.10 
  -2  -1   3   49.26    1.26 
  -2  -1   3   50.69    1.12 
   2  -1  -3   50.90    1.14 
  -2   1   3   51.24    1.13 
   2   1  -3   49.84    1.26 
  -1  -1   3    6.13    0.19 
   1  -1  -3    5.58    0.17 
  -1  -1   3    5.74    0.23 
   1  -1  -3    6.00    0.18 
   1  -1  -3    6.01    0.17 
  -1   1   3    6.04    0.16 
   1   1  -3    5.76    0.23 
   0  -1  -3  600.11   14.37 
   0  -1   3  610.26   14.11 
   0  -1   3  672.90   14.44 
   0  -1  -3  578.78   14.24 
   0  -1   3  605.75   14.07 
   0  -1  -3  536.86   14.12 
   0  -1   3  611.19   14.16 
   0   1   3  607.83   14.11 
   0   1  -3  677.26   14.43 
   0   1  -3  608.62   14.12 
  -1  -1  -3  164.40    3.53 
   1  -1   3  159.05    3.47 
   1  -1   3  165.90    3.59 
   1  -1   3  163.93    3.52 
   1  -1   3  166.71    3.62 
  -1   1  -3  163.38    3.90 
  -1   1  -3  163.82    3.47 
  -2  -1  -3    8.05    0.19 
   2  -1   3    8.18    0.29 
  -2  -1  -3    7.65    0.24 
   2  -1   3    7.97    0.25 
  -2  -1  -3    8.05    0.25 
   2  -1   3    7.99    0.21 
   2   1   3    8.15    0.22 
   2   1   3    8.25    0.20 
  -2   1  -3    8.06    0.24 
   3  -1   3   53.83    1.31 
   3  -1   3   53.78    1.24 
  -3  -1  -3   55.32    1.21 
  -3  -1  -3   52.98    1.32 
   3  -1   3   53.85    1.22 
  -3  -1  -3   53.52    1.23 
   3   1   3   55.22    1.23 
   3   1   3   55.82    1.21 
   3   1   3   54.89    1.23 
  -3   1  -3   53.89    1.22 
  -4  -1  -3   35.56    0.81 
   4  -1   3   33.55    0.91 
  -4  -1  -3   35.65    0.84 
  -4  -1  -3   35.56    0.85 
   4  -1   3   34.25    0.83 
   4  -1   3   35.89    0.87 
   4   1   3   35.35    0.80 
  -4   1  -3   36.02    0.85 
   4   1   3   34.80    0.84 
   4   1   3   35.83    0.85 
  -5  -1  -3   12.42    0.32 
   5  -1   3   12.23    0.41 
   5  -1   3   11.51    0.38 
   5  -1   3   11.47    0.33 
  -5  -1  -3   11.56    0.37 
   5   1   3   11.54    0.37 
   5   1   3   12.21    0.32 
   5   1   3   11.88    0.35 
  -5   1  -3   11.85    0.37 
  -6  -1  -3   17.94    0.54 
  -6  -1  -3   19.32    0.48 
   6  -1   3   18.05    0.49 
   6  -1   3   19.36    0.58 
   6  -1   3   18.05    0.55 
   6   1   3   18.31    0.51 
   6   1   3   18.63    0.53 
  -6   1  -3   18.17    0.53 
   6   1   3   18.90    0.48 
   7  -1   3    0.14    0.07 
   7  -1   3    0.13    0.04 
   7  -1   3    0.25    0.08 
  -7  -1  -3    0.28    0.04 
  -7  -1  -3    0.19    0.06 
   7   1   3    0.10    0.05 
  -7   1  -3    0.16    0.06 
   7   1   3    0.26    0.07 
   7   1   3    0.18    0.05 
   8  -1   3   18.35    0.59 
   8  -1   3   18.83    0.61 
  -8  -1  -3   18.00    0.57 
  -8  -1  -3   18.86    0.50 
   8  -1   3   17.27    0.51 
  -8   1  -3   18.23    0.57 
   8   1   3   17.54    0.53 
   8   1   3   18.44    0.57 
   8   1   3   18.48    0.51 
   9  -1   3   -0.01    0.04 
  -9  -1  -3   -0.04    0.04 
   9  -1   3    0.07    0.06 
   9  -1   3   -0.04    0.05 
  -9   1  -3    0.03    0.05 
   9   1   3    0.05    0.04 
   9   1   3    0.01    0.04 
  10  -1   3    9.54    0.34 
 -10  -1  -3    9.00    0.39 
  10  -1   3    8.99    0.41 
  10  -1   3    8.66    0.40 
  10   1   3    9.44    0.36 
  10   1   3    9.51    0.35 
 -11  -1  -3    6.45    0.33 
  11  -1   3    6.24    0.27 
  11  -1   3    5.87    0.34 
  11  -1   3    6.25    0.34 
  11   1   3    5.91    0.28 
  11   1   3    6.45    0.29 
 -12  -1  -3    1.12    0.16 
  12  -1   3    1.21    0.17 
  12  -1   3    1.08    0.12 
  12  -1   3    1.52    0.18 
  12   1   3    1.10    0.13 
  12   1   3    1.20    0.13 
 -13  -1  -3    5.18    0.32 
  13  -1   3    4.23    0.24 
  13  -1   3    4.23    0.30 
  13   1   3    4.56    0.27 
  13   1   3    4.44    0.26 
  14  -1   3    1.89    0.16 
  14  -1   3    1.49    0.21 
 -14  -1  -3    1.59    0.20 
  14   1   3    1.56    0.17 
  15  -1   3    0.46    0.10 
  15  -1   3    0.43    0.14 
  15   1   3    0.40    0.11 
  16  -1   3    0.09    0.07 
  16  -1   3    0.26    0.14 
  16   1   3    0.19    0.10 
  17  -1   3   -0.12    0.06 
  17   1   3   -0.08    0.07 
  18  -1   3    0.84    0.14 
  18   1   3    1.14    0.17 
  19  -2  -3    2.26    0.16 
  19   2  -3    2.19    0.23 
  18  -2  -3    0.19    0.14 
  18  -2  -3    0.00    0.05 
 -18  -2   3    0.01    0.05 
  18   2  -3    0.05    0.09 
  18   2  -3    0.19    0.10 
 -17  -2   3    0.21    0.13 
 -17  -2   3    0.16    0.06 
  17  -2  -3    0.41    0.15 
  17  -2  -3    0.35    0.07 
  17   2  -3    0.22    0.09 
  17   2  -3    0.07    0.09 
  16  -2  -3    0.52    0.15 
  16  -2  -3    0.17    0.06 
 -16  -2   3    0.19    0.11 
 -16  -2   3    0.34    0.06 
  16  -2  -3    0.32    0.14 
  16   2  -3    0.32    0.09 
  16   2  -3    0.10    0.08 
  15  -2  -3    0.95    0.18 
  15  -2  -3    0.86    0.17 
 -15  -2   3    1.12    0.09 
  15  -2  -3    1.10    0.10 
 -15  -2   3    1.25    0.19 
  15   2  -3    1.11    0.14 
  15   2  -3    1.26    0.14 
  14  -2  -3    0.43    0.07 
  14  -2  -3    0.44    0.13 
  14  -2  -3    0.50    0.14 
 -14  -2   3    0.41    0.07 
 -14  -2   3    0.50    0.14 
  14   2  -3    0.59    0.11 
  14   2  -3    0.47    0.09 
 -13  -2   3   14.07    0.39 
  13  -2  -3   14.20    0.41 
  13  -2  -3   14.15    0.56 
  13  -2  -3   13.54    0.59 
 -13  -2   3   13.96    0.56 
  13   2  -3   15.07    0.50 
  13   2  -3   13.53    0.46 
 -12  -2   3   14.80    0.39 
  12  -2  -3   13.95    0.58 
  12  -2  -3   14.23    0.40 
 -12  -2   3   14.96    0.56 
  12  -2  -3   14.75    0.55 
  12   2  -3   15.01    0.49 
  12   2  -3   14.46    0.46 
  11  -2  -3   13.19    0.50 
  11  -2  -3   13.97    0.55 
  11  -2  -3   13.67    0.37 
 -11  -2   3   13.24    0.35 
  11   2  -3   13.45    0.45 
  11   2  -3   13.67    0.43 
  10  -2  -3    4.97    0.29 
  10  -2  -3    6.08    0.29 
 -10  -2   3    5.62    0.15 
  10   2  -3    5.51    0.23 
  10   2  -3    5.41    0.24 
   9  -2  -3    0.52    0.11 
   9  -2  -3    0.33    0.08 
   9   2  -3    0.56    0.07 
   9   2  -3    0.36    0.06 
   8  -2  -3    0.30    0.08 
   8  -2  -3    0.29    0.07 
   8   2  -3    0.30    0.06 
   8   2  -3    0.23    0.06 
   8   2  -3    0.18    0.05 
  -7  -2   3   14.73    0.45 
   7  -2  -3   14.72    0.45 
   7  -2  -3   15.38    0.52 
   7   2  -3   14.70    0.46 
   7   2  -3   15.24    0.41 
   6  -2  -3    5.47    0.26 
   6  -2  -3    4.90    0.21 
   6   2  -3    5.43    0.23 
   6   2  -3    5.31    0.18 
  -5  -2   3    9.42    0.29 
   5  -2  -3    9.42    0.29 
   5  -2  -3    9.36    0.35 
  -5  -2   3    8.83    0.30 
   5   2  -3    9.17    0.34 
  -4  -2   3    4.75    0.18 
   4  -2  -3    5.06    0.18 
   4  -2  -3    4.96    0.23 
  -4  -2   3    4.66    0.19 
   4   2  -3    4.94    0.23 
   3  -2  -3   37.44    0.93 
  -3  -2   3   36.17    0.85 
  -3  -2   3   36.87    0.83 
   3  -2  -3   36.10    0.82 
   3   2  -3   35.98    1.00 
   2  -2  -3   35.28    0.80 
  -2  -2   3   36.27    0.81 
  -2  -2   3   35.94    0.82 
   2  -2  -3   36.15    0.90 
   2   2  -3   36.26    1.01 
  -1  -2   3    0.01    0.03 
  -1  -2   3   -0.03    0.02 
   1  -2  -3   -0.01    0.02 
   1  -2  -3   -0.02    0.02 
   1  -2  -3    0.04    0.04 
   1   2  -3   -0.01    0.05 
   0  -2   3    1.10    0.07 
   0  -2  -3    1.14    0.09 
   0  -2  -3    1.09    0.06 
   0  -2  -3    1.09    0.06 
   0  -2   3    1.14    0.07 
   0   2  -3    0.96    0.13 
   0   2   3    1.03    0.08 
  -1  -2  -3   50.13    1.08 
   1  -2   3   49.29    1.10 
   1  -2   3   46.27    1.08 
  -1  -2  -3   48.07    1.08 
   1   2   3   47.44    1.22 
   1   2   3   52.45    1.14 
   2  -2   3   93.37    2.03 
   2  -2   3   92.73    2.02 
  -2  -2  -3   94.98    2.01 
  -2  -2  -3   93.43    2.01 
   2  -2   3   92.00    2.20 
  -2   2  -3   92.00    2.38 
   2   2   3   97.49    2.08 
   2   2   3   89.53    2.22 
   3  -2   3   41.40    0.97 
  -3  -2  -3   40.31    0.95 
   3  -2   3   42.19    1.10 
  -3  -2  -3   40.60    0.95 
   3   2   3   40.52    0.99 
  -4  -2  -3   11.78    0.35 
  -4  -2  -3   11.54    0.36 
  -4  -2  -3   11.74    0.36 
   4  -2   3   12.15    0.45 
   4  -2   3   11.69    0.36 
   4  -2   3   11.71    0.37 
   4   2   3   12.05    0.31 
   5  -2   3    0.02    0.05 
  -5  -2  -3   -0.02    0.02 
   5  -2   3   -0.02    0.04 
  -5  -2  -3   -0.01    0.02 
  -5  -2  -3    0.01    0.04 
   5   2   3    0.01    0.02 
   5   2   3    0.04    0.03 
  -6  -2  -3    0.87    0.07 
  -6  -2  -3    0.98    0.10 
  -6  -2  -3    0.77    0.09 
   6  -2   3    0.88    0.11 
   6  -2   3    0.84    0.13 
   6  -2   3    0.84    0.05 
   6   2   3    0.90    0.08 
   6   2   3    0.90    0.06 
  -7  -2  -3    4.65    0.19 
  -7  -2  -3    4.73    0.23 
   7  -2   3    4.23    0.27 
   7  -2   3    4.60    0.15 
   7  -2   3    3.93    0.23 
   7   2   3    4.68    0.16 
   7   2   3    4.63    0.20 
   8  -2   3   15.58    0.42 
  -8  -2  -3   15.74    0.47 
  -8  -2  -3   15.56    0.52 
   8  -2   3   16.72    0.55 
   8  -2   3   15.04    0.59 
   8   2   3   16.60    0.48 
   8   2   3   15.68    0.43 
   9  -2   3   18.72    0.49 
  -9  -2  -3   17.51    0.60 
   9  -2   3   18.09    0.67 
   9  -2   3   17.64    0.61 
   9   2   3   19.51    0.56 
   9   2   3   18.08    0.50 
  10  -2   3    6.68    0.38 
  10  -2   3    6.55    0.35 
 -10  -2  -3    6.82    0.34 
  10  -2   3    6.98    0.25 
  10   2   3    7.00    0.30 
  10   2   3    6.76    0.26 
 -11  -2  -3    4.59    0.28 
  11  -2   3    4.12    0.28 
  11  -2   3    3.90    0.19 
  11  -2   3    4.30    0.32 
  11   2   3    4.41    0.25 
 -12  -2  -3    0.38    0.05 
 -12  -2  -3    0.49    0.12 
  12  -2   3    0.65    0.15 
  12  -2   3    0.69    0.16 
  12  -2   3    0.62    0.08 
  12   2   3    0.46    0.10 
 -13  -2  -3    0.10    0.04 
 -13  -2  -3    0.13    0.10 
  13  -2   3    0.14    0.06 
  13  -2   3    0.10    0.10 
  13  -2   3   -0.01    0.08 
  13   2   3    0.12    0.08 
 -14  -2  -3    0.27    0.12 
  14  -2   3    0.18    0.12 
  14  -2   3    0.36    0.14 
  14  -2   3    0.19    0.06 
 -14  -2  -3    0.29    0.05 
  14   2   3    0.26    0.09 
  15  -2   3    0.09    0.06 
  15  -2   3    0.24    0.14 
 -15  -2  -3    0.32    0.13 
  15   2   3    0.11    0.09 
  16  -2   3    0.89    0.22 
  16  -2   3    1.11    0.12 
  16   2   3    1.07    0.17 
  17  -2   3    1.55    0.14 
  17  -2   3    1.46    0.26 
  17   2   3    1.05    0.18 
  18  -3  -3    0.93    0.21 
 -18  -3   3    0.72    0.19 
  17  -3  -3    0.46    0.17 
  17  -3  -3    0.45    0.16 
 -17  -3   3    0.06    0.11 
  16  -3  -3   -0.02    0.10 
  16  -3  -3   -0.09    0.09 
 -16  -3   3    0.03    0.09 
  15  -3  -3    0.59    0.15 
 -15  -3   3    0.73    0.16 
  15  -3  -3    0.30    0.14 
  15   3  -3    0.70    0.11 
 -14  -3   3   -0.04    0.08 
  14  -3  -3    0.02    0.09 
  14  -3  -3    0.04    0.07 
  14   3  -3   -0.03    0.05 
  13  -3  -3    2.24    0.22 
  13  -3  -3    2.90    0.29 
 -13  -3   3    2.29    0.22 
  13   3  -3    2.40    0.17 
  12  -3  -3    4.73    0.34 
  12  -3  -3    4.27    0.28 
  12   3  -3    3.98    0.21 
  11  -3  -3    6.63    0.34 
  11  -3  -3    6.54    0.39 
  11   3  -3    6.55    0.28 
  10  -3  -3    0.76    0.16 
  10  -3  -3    0.89    0.12 
  10   3  -3    0.97    0.11 
  10   3  -3    0.85    0.10 
   9  -3  -3    1.99    0.17 
   9  -3  -3    2.05    0.21 
   9   3  -3    2.53    0.16 
   8  -3  -3   -0.09    0.04 
   8  -3  -3    0.01    0.06 
   8   3  -3    0.03    0.04 
   7  -3  -3    0.76    0.09 
   7  -3  -3    0.55    0.12 
  -7  -3   3    0.82    0.09 
   7   3  -3    0.63    0.09 
   6  -3  -3    0.51    0.07 
  -6  -3   3    0.60    0.08 
   6  -3  -3    0.63    0.12 
  -6  -3   3    0.46    0.07 
   6   3  -3    0.51    0.09 
  -5  -3   3    5.55    0.21 
  -5  -3   3    5.83    0.23 
   5  -3  -3    5.55    0.21 
   5  -3  -3    5.65    0.30 
   5   3  -3    5.86    0.29 
  -4  -3   3    2.08    0.11 
  -4  -3   3    2.31    0.13 
   4  -3  -3    2.25    0.11 
   4  -3  -3    2.00    0.17 
   4   3  -3    2.29    0.18 
  -3  -3   3    5.50    0.20 
   3  -3  -3    5.49    0.17 
  -3  -3   3    5.39    0.18 
   3  -3  -3    5.55    0.27 
   3   3  -3    5.41    0.30 
  -2  -3   3    0.02    0.03 
   2  -3  -3    0.00    0.02 
   2  -3  -3    0.01    0.05 
  -2  -3   3   -0.02    0.02 
   2   3  -3    0.04    0.06 
   1  -3  -3    0.00    0.04 
  -1  -3   3    0.06    0.03 
  -1  -3   3    0.05    0.03 
   1   3  -3    0.04    0.06 
   0  -3   3    0.01    0.02 
   0  -3   3    0.05    0.03 
   0  -3  -3    0.05    0.02 
   0  -3  -3    0.05    0.02 
   0   3   3    0.11    0.06 
   0   3  -3    0.00    0.06 
  -1  -3  -3    1.38    0.07 
   1  -3   3    1.32    0.08 
   1  -3   3    1.49    0.09 
  -1  -3  -3    1.33    0.07 
  -1   3  -3    1.23    0.17 
   1   3   3    1.31    0.13 
   2  -3   3    2.15    0.12 
  -2  -3  -3    2.06    0.10 
  -2  -3  -3    2.05    0.10 
   2  -3   3    1.90    0.11 
   2   3   3    1.73    0.13 
  -2   3  -3    1.89    0.21 
   3  -3   3    0.28    0.06 
   3  -3   3    0.25    0.09 
   3  -3   3    0.16    0.04 
  -3   3  -3    0.14    0.08 
   3   3   3    0.20    0.05 
  -4  -3  -3    3.21    0.16 
   4  -3   3    3.29    0.17 
   4  -3   3    3.23    0.17 
  -4  -3  -3    3.28    0.16 
   4  -3   3    3.10    0.24 
   4   3   3    3.29    0.16 
  -5  -3  -3   -0.03    0.03 
   5  -3   3   -0.04    0.04 
   5  -3   3   -0.04    0.04 
   5  -3   3    0.01    0.06 
  -5  -3  -3   -0.03    0.04 
   5   3   3    0.02    0.03 
   6  -3   3    1.68    0.20 
  -6  -3  -3    2.00    0.14 
   6  -3   3    1.74    0.15 
   6   3   3    1.83    0.10 
   6   3   3    1.91    0.10 
   7  -3   3    1.40    0.14 
  -7  -3  -3    1.28    0.13 
   7  -3   3    0.77    0.16 
   7   3   3    1.35    0.08 
   8  -3   3    1.96    0.23 
   8  -3   3    2.07    0.18 
  -8  -3  -3    1.58    0.15 
  -9  -3  -3    1.26    0.15 
   9  -3   3    0.82    0.14 
   9  -3   3    1.42    0.21 
  10  -3   3   -0.04    0.07 
  10  -3   3   -0.09    0.07 
 -10  -3  -3   -0.08    0.06 
  11  -3   3    0.02    0.10 
 -11  -3  -3    0.04    0.08 
  11  -3   3    0.00    0.09 
  12  -3   3    0.83    0.19 
 -12  -3  -3    1.26    0.18 
  12  -3   3    1.08    0.18 
  13  -3   3   -0.10    0.09 
 -13  -3  -3   -0.03    0.08 
  13  -3   3   -0.08    0.09 
  14  -3   3   -0.02    0.11 
 -14  -3  -3   -0.08    0.08 
  14  -3   3    0.22    0.12 
  15  -3   3    0.63    0.18 
 -15  -3  -3    0.88    0.19 
  15  -3   3    0.96    0.23 
 -16  -3  -3    0.69    0.18 
  16  -3   3    1.01    0.24 
 -17  -4   3    1.53    0.23 
  17  -4  -3    0.99    0.21 
 -16  -4   3    1.45    0.22 
  16  -4  -3    1.54    0.23 
  16  -4  -3    1.09    0.25 
  15  -4  -3    1.36    0.20 
  15  -4  -3    1.73    0.28 
 -15  -4   3    1.34    0.20 
 -14  -4   3    0.20    0.11 
  14  -4  -3    0.13    0.09 
  14  -4  -3    0.15    0.14 
  13  -4  -3    0.34    0.15 
  13  -4  -3    0.59    0.14 
 -13  -4   3    0.46    0.13 
  13   4  -3    0.62    0.10 
  12  -4  -3    0.12    0.12 
  12  -4  -3    0.25    0.11 
  12   4  -3    0.37    0.08 
  11  -4  -3    2.11    0.26 
  11  -4  -3    2.04    0.19 
  11   4  -3    1.96    0.16 
  11   4  -3    2.18    0.17 
  10  -4  -3   23.85    0.90 
  10  -4  -3   24.27    0.74 
  10   4  -3   25.13    0.76 
   9  -4  -3    8.56    0.47 
   9  -4  -3    8.50    0.35 
   9   4  -3    8.37    0.37 
   8  -4  -3    7.10    0.30 
   8  -4  -3    6.64    0.40 
   8   4  -3    7.35    0.34 
   7  -4  -3    0.39    0.08 
   7  -4  -3    0.41    0.13 
   7   4  -3    0.37    0.10 
   6  -4  -3    0.29    0.11 
   6  -4  -3    0.21    0.06 
  -6  -4   3    0.27    0.07 
   6   4  -3    0.34    0.10 
   5  -4  -3    0.02    0.07 
  -5  -4   3    0.04    0.04 
   5  -4  -3   -0.02    0.03 
  -5  -4   3    0.04    0.05 
   5   4  -3    0.08    0.08 
  -4  -4   3    0.70    0.07 
   4  -4  -3    0.62    0.06 
   4  -4  -3    0.59    0.13 
  -4  -4   3    0.74    0.08 
   4   4  -3    0.73    0.13 
  -3  -4   3    3.95    0.16 
   3  -4  -3    3.80    0.13 
  -3  -4   3    3.45    0.14 
   3  -4  -3    3.35    0.24 
   3   4  -3    3.20    0.26 
   2  -4  -3   31.35    0.92 
  -2  -4   3   31.30    0.73 
   2  -4  -3   30.73    0.69 
  -2  -4   3   30.29    0.71 
   2   4  -3   30.80    1.03 
  -1  -4   3    0.72    0.07 
  -1  -4   3    0.75    0.06 
  -1   4   3    0.37    0.12 
   1   4  -3    0.48    0.13 
   0  -4   3    0.25    0.05 
   0  -4   3    0.26    0.04 
   0   4  -3    0.31    0.12 
   0   4   3    0.24    0.09 
   1  -4   3    2.23    0.12 
  -1  -4  -3    2.25    0.09 
  -1  -4  -3    2.38    0.10 
   1  -4   3    2.09    0.11 
  -1   4  -3    2.33    0.26 
   1   4   3    2.06    0.19 
  -2  -4  -3    5.61    0.19 
  -2  -4  -3    6.00    0.19 
   2  -4   3    6.12    0.22 
   2  -4   3    5.94    0.22 
   2   4   3    6.20    0.31 
  -2   4  -3    5.55    0.39 
  -3  -4  -3    4.10    0.17 
   3  -4   3    3.82    0.19 
  -3  -4  -3    4.09    0.17 
   3  -4   3    3.68    0.18 
  -3   4  -3    3.27    0.32 
   3   4   3    3.67    0.23 
  -4  -4  -3    7.66    0.27 
   4  -4   3    7.58    0.43 
  -4  -4  -3    7.89    0.27 
   4  -4   3    7.59    0.30 
   4   4   3    7.75    0.32 
  -4   4  -3    7.67    0.49 
   5  -4   3    4.33    0.32 
   5  -4   3    4.46    0.23 
  -5  -4  -3    4.11    0.20 
  -5   4  -3    3.41    0.34 
   6  -4   3    1.09    0.13 
  -6  -4  -3    1.23    0.12 
   6  -4   3    1.02    0.19 
  -6   4  -3    1.02    0.22 
   7  -4   3   11.65    0.44 
  -7  -4  -3   11.42    0.41 
   7  -4   3   10.55    0.55 
   8  -4   3   -0.11    0.07 
  -8  -4  -3   -0.07    0.05 
   8  -4   3    0.00    0.06 
  -9  -4  -3    0.01    0.06 
   9  -4   3    0.07    0.08 
   9  -4   3    0.05    0.10 
  10  -4   3   15.18    0.59 
 -10  -4  -3   15.09    0.56 
  10  -4   3   15.79    0.73 
  11  -4   3    4.06    0.38 
 -11  -4  -3    4.51    0.29 
  11  -4   3    3.51    0.28 
 -12  -4  -3    6.47    0.37 
  12  -4   3    6.33    0.48 
  12  -4   3    6.59    0.40 
  13  -4   3    4.02    0.40 
 -13  -4  -3    4.16    0.31 
  13  -4   3    3.84    0.32 
  14  -4   3    1.99    0.31 
 -14  -4  -3    1.76    0.22 
  14  -4   3    2.15    0.26 
 -15  -4  -3    0.15    0.12 
  15  -4   3    0.09    0.13 
 -15  -5   3    1.02    0.19 
  15  -5  -3    0.60    0.16 
 -14  -5   3   -0.03    0.09 
  14  -5  -3   -0.08    0.09 
 -13  -5   3   -0.04    0.08 
  13  -5  -3   -0.09    0.11 
  13  -5  -3   -0.11    0.08 
 -12  -5   3    1.00    0.16 
  12  -5  -3    1.03    0.17 
  12  -5  -3    1.11    0.24 
  11  -5  -3    4.10    0.27 
  11  -5  -3    4.67    0.41 
  10  -5  -3    5.18    0.41 
  10  -5  -3    5.53    0.30 
   9  -5  -3    0.20    0.13 
   9  -5  -3    0.24    0.09 
   9   5  -3    0.39    0.11 
   8  -5  -3    1.23    0.13 
   8  -5  -3    1.66    0.25 
   8   5  -3    1.65    0.18 
   7  -5  -3    0.57    0.09 
   7  -5  -3    0.48    0.16 
   7   5  -3    0.56    0.13 
   6  -5  -3    0.28    0.07 
   6  -5  -3    0.20    0.12 
   6   5  -3    0.17    0.10 
   5  -5  -3    0.29    0.06 
   5  -5  -3    0.27    0.13 
  -5  -5   3    0.19    0.07 
   5   5  -3    0.28    0.12 
   4  -5  -3    6.04    0.38 
   4  -5  -3    6.41    0.22 
  -4  -5   3    6.54    0.25 
   4   5  -3    6.76    0.41 
   3  -5  -3   20.16    0.50 
  -3  -5   3   20.94    0.55 
  -3  -5   3   20.26    0.52 
  -3   5   3   19.53    0.83 
   3   5  -3   21.57    0.84 
  -2  -5   3   23.70    0.59 
  -2  -5   3   22.39    0.56 
   2  -5  -3   22.80    0.53 
   2   5  -3   23.06    0.90 
  -2   5   3   22.80    0.89 
  -1  -5   3    4.09    0.17 
  -1  -5   3    4.08    0.16 
   1   5  -3    4.53    0.36 
  -1   5   3    3.91    0.32 
   0  -5   3    0.00    0.04 
   0  -5   3    0.02    0.04 
   0   5   3    0.04    0.08 
   0   5  -3    0.02    0.10 
   1  -5   3    6.07    0.23 
  -1  -5  -3    6.14    0.18 
  -1  -5  -3    5.92    0.18 
   1   5   3    6.04    0.37 
  -1   5  -3    6.29    0.45 
  -2  -5  -3    0.44    0.05 
  -2  -5  -3    0.35    0.05 
   2  -5   3    0.21    0.06 
   2   5   3    0.33    0.11 
  -2   5  -3    0.29    0.14 
   3  -5   3    0.01    0.05 
  -3  -5  -3    0.05    0.04 
  -3   5  -3    0.02    0.12 
  -4  -5  -3    3.86    0.18 
   4  -5   3    3.76    0.21 
  -4   5  -3    4.29    0.41 
   5  -5   3    4.33    0.24 
  -5  -5  -3    4.22    0.21 
  -5   5  -3    4.04    0.40 
  -6  -5  -3    2.36    0.17 
   6  -5   3    2.67    0.20 
  -6   5  -3    2.83    0.36 
   7  -5   3    0.20    0.09 
  -7  -5  -3    0.11    0.07 
   7  -5   3    0.36    0.16 
  -7   5  -3    0.22    0.15 
  -8  -5  -3    0.45    0.10 
   8  -5   3    0.40    0.11 
   8  -5   3    0.51    0.18 
  -8   5  -3    0.03    0.13 
   9  -5   3    3.75    0.27 
  -9  -5  -3    3.95    0.25 
   9  -5   3    3.78    0.38 
  -9   5  -3    3.30    0.41 
 -10  -5  -3   -0.05    0.07 
  10  -5   3    0.01    0.08 
  10  -5   3    0.09    0.14 
  11  -5   3    0.95    0.24 
 -11  -5  -3    0.51    0.13 
  11  -5   3    0.66    0.16 
  12  -5   3   -0.03    0.10 
 -12  -5  -3   -0.06    0.08 
  13  -5   3   -0.05    0.10 
 -13  -5  -3    0.02    0.10 
  12  -6  -3    0.42    0.13 
 -12  -6   3    0.37    0.12 
  11  -6  -3   -0.03    0.07 
 -11  -6   3   -0.06    0.08 
  11  -6  -3    0.01    0.14 
  10  -6  -3    0.26    0.18 
  10  -6  -3    0.31    0.10 
   9  -6  -3    1.40    0.27 
   9  -6  -3    1.14    0.15 
   8  -6  -3    2.95    0.21 
   8  -6  -3    3.50    0.37 
   7  -6  -3    0.14    0.07 
   7  -6  -3   -0.04    0.12 
  -7   6   3    0.03    0.14 
   6  -6  -3    0.35    0.16 
   6  -6  -3    0.36    0.08 
   6   6  -3    0.48    0.15 
  -6   6   3    0.05    0.12 
  -5  -6   3    1.51    0.13 
   5  -6  -3    1.52    0.12 
   5   6  -3    1.77    0.24 
  -5   6   3    1.85    0.30 
   4  -6  -3    3.07    0.15 
  -4  -6   3    2.96    0.17 
   4   6  -3    3.06    0.31 
  -4   6   3    2.65    0.32 
  -3  -6   3    0.97    0.10 
   3  -6  -3    1.00    0.08 
  -3   6   3    0.86    0.21 
   3   6  -3    0.88    0.20 
  -2  -6   3    0.08    0.06 
  -2   6   3    0.07    0.12 
   2   6  -3    0.00    0.10 
  -1  -6   3    1.67    0.12 
  -1   6   3    1.65    0.25 
   1   6  -3    1.47    0.25 
   0  -6   3    4.21    0.20 
   0   6  -3    4.00    0.39 
   1  -6   3    0.01    0.06 
  -1   6  -3    0.07    0.13 
   2  -6   3    0.58    0.09 
  -2  -6  -3    0.55    0.06 
  -2   6  -3    0.68    0.22 
  -3  -6  -3    4.19    0.18 
   3  -6   3    4.20    0.22 
  -3   6  -3    4.10    0.43 
  -4  -6  -3    0.51    0.08 
  -4   6  -3    0.62    0.21 
   5  -6   3    0.26    0.09 
  -5  -6  -3    0.39    0.08 
  -5   6  -3    0.18    0.16 
   6  -6   3    0.15    0.09 
  -6  -6  -3    0.17    0.07 
  -7  -6  -3    0.27    0.09 
   7  -6   3    0.09    0.09 
  -8  -6  -3    0.21    0.09 
   8  -6   3   -0.03    0.09 
   9  -6   3    0.06    0.09 
  -9  -6  -3    0.02    0.08 
  10  -6   3    0.74    0.16 
 -10  -6  -3    0.78    0.14 
   7  -7  -3   -0.01    0.06 
   6  -7  -3   -0.01    0.06 
   5  -7  -3    0.07    0.06 
   4  -7  -3    1.86    0.13 
   3  -7  -3    1.21    0.09 
  -3  -7   3    1.34    0.12 
  -2  -7   3    4.28    0.20 
  -1  -7   3    0.01    0.05 
   0  -7   3   -0.03    0.05 
   1  -7   3    0.06    0.06 
   2  -7   3    1.02    0.12 
   3  -7   3    1.23    0.14 
  -3  -7  -3    1.48    0.10 
  -4  -7  -3    0.53    0.08 
   4  -7   3    0.52    0.10 
   5  -7   3    0.83    0.13 
  20   0  -4    0.33    0.15 
  20   0  -4    0.20    0.10 
  19   0  -4    2.18    0.20 
  19   0  -4    2.08    0.24 
  18   0  -4    2.39    0.24 
  18   0  -4    2.54    0.21 
  17   0  -4    1.30    0.18 
  17   0  -4    0.90    0.13 
  16   0  -4    2.78    0.20 
  16   0  -4    2.61    0.23 
  15   0  -4    6.37    0.30 
  15   0  -4    5.84    0.32 
  14   0  -4   11.13    0.41 
  14   0  -4   10.52    0.44 
  13   0  -4    5.37    0.31 
  13   0  -4    5.49    0.28 
 -13   0   4    4.97    0.30 
  13   0  -4    5.49    0.26 
  12   0  -4    2.93    0.19 
 -12   0   4    2.86    0.22 
  12   0  -4    3.26    0.19 
  12   0  -4    3.39    0.23 
 -11   0   4   13.86    0.50 
  11   0  -4   13.84    0.44 
  11   0  -4   13.83    0.46 
  11   0  -4   14.45    0.49 
  10   0  -4    2.58    0.15 
  10   0  -4    2.55    0.15 
  10   0  -4    2.83    0.19 
   9   0  -4    0.75    0.08 
   9   0  -4    0.65    0.08 
   9   0  -4    0.72    0.10 
   8   0  -4   23.63    0.62 
   8   0  -4   23.84    0.63 
   8   0  -4   24.34    0.66 
   7   0  -4  188.31    4.19 
   7   0  -4  189.48    4.20 
   7   0  -4  185.90    4.03 
   6   0  -4    1.89    0.10 
   6   0  -4    2.05    0.12 
   6   0  -4    1.93    0.11 
   5   0  -4   26.46    0.65 
   5   0  -4   26.58    0.67 
   5   0  -4   27.82    0.65 
   4   0  -4    0.37    0.04 
   4   0  -4    0.22    0.04 
  -4   0   4    0.37    0.06 
   4   0  -4    0.27    0.04 
  -4   0   4    0.41    0.05 
  -4   0   4    0.34    0.04 
   3   0  -4   86.27    1.98 
   3   0  -4   86.64    1.95 
   3   0  -4   87.81    1.92 
  -3   0   4   88.06    1.93 
  -3   0   4   89.67    2.09 
  -3   0   4   90.51    1.96 
   3   0  -4   91.13    2.11 
   2   0  -4  250.18    7.85 
  -2   0   4  286.61    6.44 
   2   0  -4  272.25    5.89 
  -2   0   4  285.36    5.92 
  -1   0   4   36.52    0.84 
   1   0  -4   36.88    0.89 
  -1   0   4   36.41    0.90 
   1   0  -4   36.00    0.83 
  -1   0   4   35.91    0.84 
   0   0   4   44.71    1.00 
   0   0  -4   41.95    1.07 
   0   0   4   43.04    1.08 
   0   0  -4   44.47    0.99 
   0   0   4   45.00    1.00 
   1   0   4  834.89   21.36 
  -1   0  -4  814.43   20.92 
   1   0   4  855.16   19.11 
  -1   0  -4  805.62   20.07 
   1   0   4  805.96   19.82 
  -1   0  -4  852.91   19.64 
   2   0   4   19.16    0.48 
   2   0   4   18.71    0.48 
  -2   0  -4   18.62    0.52 
  -2   0  -4   19.66    0.48 
   2   0   4   19.31    0.50 
  -2   0  -4   18.62    0.49 
   3   0   4   18.06    0.47 
   3   0   4   17.88    0.49 
  -3   0  -4   18.07    0.46 
  -3   0  -4   17.98    0.48 
   3   0   4   17.51    0.47 
  -4   0  -4   24.35    0.65 
   4   0   4   25.18    0.63 
   4   0   4   24.67    0.66 
   4   0   4   25.54    0.64 
   5   0   4   93.99    2.12 
   5   0   4   95.54    2.15 
   5   0   4   91.61    2.12 
  -5   0  -4   95.14    2.11 
  -6   0  -4  107.44    2.39 
   6   0   4  107.26    2.41 
   6   0   4  105.58    2.40 
   6   0   4  105.86    2.43 
  -7   0  -4   13.83    0.46 
   7   0   4   14.29    0.43 
   7   0   4   13.43    0.44 
   7   0   4   14.13    0.48 
   8   0   4    5.20    0.25 
   8   0   4    5.02    0.22 
   8   0   4    5.28    0.27 
  -8   0  -4    5.08    0.26 
   9   0   4   69.37    1.68 
   9   0   4   67.63    1.67 
  -9   0  -4   66.64    1.66 
   9   0   4   69.44    1.64 
  10   0   4    5.44    0.29 
  10   0   4    5.87    0.27 
 -10   0  -4    5.94    0.31 
  10   0   4    5.71    0.32 
  11   0   4    3.74    0.24 
  11   0   4    3.38    0.21 
 -11   0  -4    3.29    0.25 
  12   0   4    2.72    0.19 
  12   0   4    2.75    0.22 
  13   0   4    3.21    0.22 
  13   0   4    3.51    0.26 
  14   0   4    1.88    0.17 
  15   0   4    0.76    0.13 
  16   0   4    1.67    0.18 
  17   0   4    0.58    0.13 
  18   0   4    4.38    0.30 
  20  -1  -4    4.59    0.27 
 -20  -1   4    4.13    0.27 
  20   1  -4    4.43    0.31 
  20   1  -4    4.18    0.33 
  19  -1  -4    1.71    0.17 
 -19  -1   4    1.79    0.18 
  19  -1  -4    2.25    0.27 
  19   1  -4    1.69    0.21 
  19   1  -4    1.48    0.18 
 -18  -1   4    0.21    0.09 
  18  -1  -4    0.20    0.08 
  18  -1  -4    0.06    0.10 
  18   1  -4   -0.01    0.07 
  18   1  -4    0.04    0.09 
 -17  -1   4    0.03    0.07 
  17  -1  -4    0.08    0.07 
  17  -1  -4   -0.02    0.08 
  17   1  -4    0.04    0.07 
  17   1  -4    0.16    0.09 
  16  -1  -4    0.52    0.14 
  16  -1  -4    0.50    0.10 
 -16  -1   4    0.59    0.15 
 -16  -1   4    0.41    0.09 
  16   1  -4    0.60    0.11 
  16   1  -4    0.36    0.10 
 -15  -1   4    0.17    0.10 
  15  -1  -4    0.27    0.11 
 -15  -1   4    0.06    0.06 
  15  -1  -4    0.14    0.10 
  15  -1  -4    0.19    0.07 
  15   1  -4    0.23    0.08 
  15   1  -4    0.39    0.09 
  14  -1  -4   11.63    0.50 
  14  -1  -4   10.91    0.39 
  14  -1  -4   10.49    0.47 
 -14  -1   4   11.19    0.49 
 -14  -1   4   10.56    0.39 
  14   1  -4   11.55    0.43 
  14   1  -4   10.21    0.41 
  13  -1  -4    4.33    0.27 
  13  -1  -4    4.88    0.30 
  13  -1  -4    4.27    0.22 
 -13  -1   4    4.74    0.23 
 -13  -1   4    3.98    0.28 
  13   1  -4    4.58    0.24 
  13   1  -4    3.80    0.21 
  12  -1  -4   19.63    0.65 
 -12  -1   4   20.60    0.68 
  12  -1  -4   20.42    0.58 
  12  -1  -4   19.63    0.66 
 -12  -1   4   20.25    0.58 
  12   1  -4   18.82    0.58 
  12   1  -4   20.80    0.61 
  11  -1  -4   13.82    0.42 
 -11  -1   4   13.31    0.42 
  11  -1  -4   13.46    0.49 
  11  -1  -4   13.60    0.49 
  11   1  -4   13.56    0.44 
 -11   1   4   13.66    0.48 
  11   1  -4   13.70    0.48 
  11   1  -4   13.72    0.43 
  10  -1  -4    2.40    0.17 
  10  -1  -4    2.51    0.18 
 -10  -1   4    2.73    0.15 
  10  -1  -4    2.59    0.14 
 -10   1   4    2.54    0.18 
  10   1  -4    2.68    0.16 
  10   1  -4    2.54    0.18 
  10   1  -4    2.67    0.15 
   9  -1  -4   76.00    1.81 
   9  -1  -4   77.11    1.74 
   9  -1  -4   75.64    1.77 
  -9  -1   4   75.44    1.74 
  -9   1   4   77.31    1.76 
   9   1  -4   76.63    1.75 
   9   1  -4   75.08    1.76 
   9   1  -4   72.94    1.74 
   8  -1  -4   22.19    0.63 
   8  -1  -4   21.85    0.62 
  -8  -1   4   23.13    0.58 
   8  -1  -4   22.74    0.57 
   8   1  -4   22.53    0.59 
   8   1  -4   22.52    0.62 
  -8   1   4   22.51    0.62 
   8   1  -4   21.34    0.59 
  -7  -1   4   36.10    0.85 
   7  -1  -4   35.13    0.84 
   7  -1  -4   35.70    0.91 
   7  -1  -4   34.95    0.88 
   7   1  -4   35.01    0.86 
   7   1  -4   36.14    0.88 
   7   1  -4   36.41    0.87 
   6  -1  -4    2.80    0.15 
   6  -1  -4    2.83    0.11 
   6  -1  -4    2.78    0.15 
  -6  -1   4    2.89    0.12 
   6   1  -4    2.86    0.14 
   6   1  -4    2.93    0.14 
   6   1  -4    2.60    0.12 
   5  -1  -4    4.25    0.18 
   5  -1  -4    4.60    0.18 
  -5  -1   4    4.28    0.15 
  -5  -1   4    4.24    0.19 
   5   1  -4    4.31    0.18 
   5   1  -4    4.13    0.17 
   5   1  -4    4.08    0.15 
   4  -1  -4    1.03    0.08 
   4  -1  -4    1.11    0.08 
  -4  -1   4    1.12    0.06 
  -4  -1   4    1.05    0.10 
  -4  -1   4    1.12    0.06 
  -4  -1   4    1.07    0.09 
   4   1  -4    0.96    0.08 
   4   1  -4    0.95    0.06 
   3  -1  -4   37.17    0.85 
   3  -1  -4   35.68    0.83 
  -3  -1   4   35.94    0.95 
  -3  -1   4   36.32    0.81 
   3  -1  -4   35.90    0.84 
  -3  -1   4   36.52    0.81 
  -3  -1   4   35.05    0.85 
   3   1  -4   34.83    0.93 
   3   1  -4   36.23    0.83 
   3   1  -4   36.63    0.82 
  -2  -1   4  110.83    2.37 
  -2  -1   4  110.48    2.45 
  -2  -1   4  108.12    2.39 
   2  -1  -4  111.79    2.38 
  -2  -1   4  107.53    2.67 
  -2  -1   4  110.26    2.44 
   2  -1  -4  113.26    2.44 
   2   1  -4  112.87    2.37 
   2   1  -4  110.19    2.66 
   2   1  -4  110.72    2.45 
  -2   1   4  116.00    2.46 
   1  -1  -4 1000.00   22.20 
  -1  -1   4  948.67   26.42 
  -1  -1   4  997.37   22.05 
  -1  -1   4  946.67   23.06 
   1  -1  -4  934.10   22.31 
  -1  -1   4  998.33   22.29 
  -1  -1   4  951.08   22.08 
   1   1  -4  991.21   22.26 
   1   1  -4  931.96   26.13 
   1   1  -4  982.80   22.19 
  -1   1   4  966.57   21.97 
   0  -1   4  188.89    4.25 
   0  -1   4  199.34    4.24 
   0  -1  -4  198.32    4.33 
   0  -1   4  194.20    4.57 
   0  -1   4  193.57    4.16 
   0  -1  -4  196.12    4.12 
   0   1   4  197.35    4.25 
   0   1  -4  182.55    4.62 
   0   1  -4  192.32    4.57 
   0   1   4  189.07    4.46 
   1  -1   4  114.69    2.49 
   1  -1   4  113.55    2.55 
  -1  -1  -4  114.66    2.46 
  -1  -1  -4  114.82    2.47 
   1   1   4  118.66    2.52 
  -1   1  -4  114.55    2.46 
  -1   1  -4  114.22    2.80 
  -2  -1  -4   31.89    0.70 
   2  -1   4   30.00    0.72 
  -2  -1  -4   30.12    0.74 
   2  -1   4   30.96    0.76 
   2  -1   4   30.15    0.80 
  -2   1  -4   29.45    0.87 
  -2   1  -4   31.25    0.74 
   2   1   4   31.40    0.73 
   2   1   4   30.37    0.74 
  -3  -1  -4    0.40    0.04 
   3  -1   4    0.38    0.08 
   3  -1   4    0.54    0.08 
   3  -1   4    0.41    0.05 
  -3  -1  -4    0.35    0.06 
   3   1   4    0.42    0.04 
   3   1   4    0.46    0.05 
  -3   1  -4    0.37    0.06 
   3   1   4    0.44    0.06 
  -4  -1  -4    4.56    0.20 
   4  -1   4    4.41    0.17 
   4  -1   4    4.50    0.22 
   4  -1   4    4.19    0.20 
  -4  -1  -4    4.61    0.13 
  -4  -1  -4    4.56    0.13 
   4   1   4    4.61    0.18 
   4   1   4    4.33    0.20 
  -4   1  -4    4.78    0.20 
   4   1   4    4.49    0.14 
   5  -1   4   12.26    0.41 
  -5  -1  -4   12.62    0.41 
   5  -1   4   12.84    0.36 
  -5  -1  -4   12.86    0.32 
   5  -1   4   12.43    0.44 
   5   1   4   12.86    0.34 
   5   1   4   12.97    0.41 
  -5   1  -4   12.82    0.40 
   5   1   4   12.37    0.37 
   6  -1   4   26.08    0.67 
   6  -1   4   26.71    0.77 
  -6  -1  -4   27.01    0.73 
   6  -1   4   26.34    0.73 
  -6   1  -4   26.66    0.71 
   6   1   4   25.68    0.65 
   6   1   4   25.35    0.69 
   6   1   4   26.89    0.72 
   7  -1   4   89.15    2.09 
   7  -1   4   90.90    2.17 
   7  -1   4   90.38    2.06 
  -7  -1  -4   87.94    2.07 
   7   1   4   89.61    2.04 
   7   1   4   90.27    2.07 
   7   1   4   91.46    2.08 
  -7   1  -4   90.29    2.06 
   8  -1   4    8.71    0.31 
   8  -1   4    8.40    0.37 
   8  -1   4    9.00    0.37 
  -8  -1  -4    8.61    0.36 
   8   1   4    8.70    0.30 
  -8   1  -4    8.54    0.35 
   8   1   4    7.90    0.34 
   8   1   4    8.12    0.31 
   9  -1   4   14.02    0.45 
  -9  -1  -4   13.51    0.50 
   9  -1   4   14.34    0.53 
   9  -1   4   14.09    0.53 
   9   1   4   14.24    0.45 
   9   1   4   14.85    0.47 
  10  -1   4   10.33    0.46 
 -10  -1  -4   10.16    0.43 
  10  -1   4   10.23    0.44 
  10  -1   4   10.02    0.36 
  10   1   4   10.42    0.38 
  10   1   4   10.01    0.38 
  11  -1   4    0.05    0.05 
  11  -1   4    0.02    0.07 
  11  -1   4   -0.04    0.07 
 -11  -1  -4    0.04    0.07 
  11   1   4    0.14    0.07 
  11   1   4    0.05    0.06 
  12  -1   4    3.37    0.27 
  12  -1   4    3.33    0.28 
 -12  -1  -4    4.00    0.28 
  12  -1   4    3.81    0.22 
  12   1   4    3.84    0.24 
  13  -1   4    0.11    0.10 
 -13  -1  -4    0.15    0.10 
  13  -1   4    0.16    0.07 
  13   1   4    0.12    0.08 
  14  -1   4    0.50    0.10 
  14  -1   4    0.81    0.17 
  14   1   4    0.67    0.13 
  15  -1   4    0.15    0.08 
  15  -1   4    0.06    0.11 
  15   1   4    0.12    0.09 
  16  -1   4    0.46    0.11 
  16   1   4    0.40    0.12 
  17  -1   4    0.57    0.12 
  17   1   4    0.73    0.15 
  20  -2  -4    0.77    0.10 
  20   2  -4    0.92    0.17 
  19  -2  -4    3.18    0.19 
  19  -2  -4    3.37    0.35 
  19   2  -4    2.95    0.26 
  19   2  -4    3.40    0.28 
  18  -2  -4    0.47    0.17 
  18  -2  -4    0.28    0.08 
 -18  -2   4    0.11    0.06 
  18   2  -4    0.27    0.10 
  18   2  -4    0.30    0.12 
 -17  -2   4    1.03    0.10 
  17  -2  -4    1.37    0.12 
 -17  -2   4    1.00    0.19 
  17  -2  -4    1.25    0.22 
  17  -2  -4    1.26    0.20 
  17   2  -4    1.37    0.16 
  17   2  -4    1.02    0.15 
 -16  -2   4    1.65    0.12 
 -16  -2   4    1.56    0.21 
  16  -2  -4    1.53    0.20 
  16  -2  -4    1.71    0.13 
  16  -2  -4    1.24    0.21 
  16   2  -4    1.77    0.17 
  16   2  -4    1.61    0.17 
  15  -2  -4    4.95    0.35 
 -15  -2   4    5.75    0.22 
  15  -2  -4    5.63    0.23 
 -15  -2   4    5.07    0.34 
  15  -2  -4    5.63    0.36 
  15   2  -4    4.80    0.26 
  15   2  -4    6.10    0.31 
  14  -2  -4   15.84    0.45 
 -14  -2   4   15.55    0.44 
  14  -2  -4   15.69    0.65 
 -14  -2   4   15.59    0.61 
  14  -2  -4   15.89    0.61 
  14   2  -4   16.42    0.55 
  14   2  -4   14.82    0.51 
 -13  -2   4   30.72    0.76 
  13  -2  -4   30.64    0.77 
  13  -2  -4   30.75    0.99 
 -13  -2   4   30.60    0.95 
  13  -2  -4   32.04    0.94 
  13   2  -4   30.88    0.84 
  13   2  -4   31.28    0.87 
 -12  -2   4    2.17    0.12 
  12  -2  -4    2.42    0.22 
  12  -2  -4    1.78    0.18 
  12  -2  -4    2.12    0.12 
  12   2  -4    2.34    0.16 
  12   2  -4    2.40    0.18 
  11  -2  -4   60.85    1.63 
 -11  -2   4   62.47    1.40 
  11  -2  -4   62.26    1.55 
  11   2  -4   61.65    1.49 
  11   2  -4   64.07    1.51 
  10  -2  -4    0.23    0.09 
 -10  -2   4    0.20    0.03 
  10  -2  -4    0.16    0.08 
  10   2  -4    0.16    0.05 
  10   2  -4    0.28    0.06 
   9  -2  -4    6.07    0.28 
   9  -2  -4    6.41    0.31 
   9   2  -4    5.92    0.25 
   9   2  -4    6.34    0.24 
   9   2  -4    6.23    0.26 
   8  -2  -4   31.75    0.92 
   8  -2  -4   33.75    0.87 
   8   2  -4   33.21    0.90 
   8   2  -4   33.73    0.83 
  -7  -2   4   93.19    2.09 
   7  -2  -4   93.86    2.22 
   7  -2  -4   92.70    2.10 
   7   2  -4   96.56    2.11 
   7   2  -4   92.48    2.29 
   6  -2  -4  133.17    3.03 
  -6  -2   4  129.40    2.90 
   6  -2  -4  131.92    2.87 
   6   2  -4  131.91    3.18 
   6   2  -4  135.36    2.92 
   5  -2  -4  102.58    2.21 
   5  -2  -4  101.78    2.35 
  -5  -2   4  102.42    2.24 
   5   2  -4   98.74    2.48 
   4  -2  -4    2.14    0.14 
  -4  -2   4    2.26    0.13 
   4  -2  -4    2.03    0.11 
  -4  -2   4    2.17    0.11 
   4   2  -4    2.08    0.15 
  -3  -2   4  194.19    4.09 
   3  -2  -4  191.42    4.14 
  -3  -2   4  192.78    4.07 
   3  -2  -4  197.74    4.27 
   3   2  -4  187.03    4.59 
   2  -2  -4   15.33    0.39 
  -2  -2   4   15.07    0.40 
   2  -2  -4   14.25    0.37 
  -2  -2   4   15.02    0.39 
   2  -2  -4   14.70    0.43 
   2   2  -4   14.33    0.51 
  -1  -2   4   17.22    0.45 
   1  -2  -4   17.90    0.44 
  -1  -2   4   17.38    0.44 
   1  -2  -4   17.22    0.42 
   1  -2  -4   17.03    0.47 
   1   2  -4   16.54    0.58 
   0  -2  -4   21.83    0.53 
   0  -2  -4   21.48    0.52 
   0  -2  -4   22.39    0.55 
   0  -2   4   20.77    0.54 
   0  -2   4   21.17    0.53 
   0   2   4   22.46    0.53 
   0   2  -4   21.36    0.71 
  -1  -2  -4    3.09    0.13 
   1  -2   4    2.94    0.15 
  -1  -2  -4    3.13    0.14 
   1  -2   4    2.99    0.13 
   1   2   4    3.43    0.12 
  -1   2  -4    3.54    0.24 
   1   2   4    3.01    0.14 
  -2  -2  -4    0.43    0.06 
  -2  -2  -4    0.49    0.06 
   2  -2   4    0.37    0.06 
  -2   2  -4    0.44    0.11 
   2   2   4    0.58    0.05 
   2   2   4    0.55    0.05 
   3  -2   4    0.01    0.04 
   3  -2   4   -0.02    0.03 
  -3  -2  -4    0.00    0.03 
  -3  -2  -4   -0.03    0.03 
   3  -2   4    0.19    0.07 
   3   2   4    0.09    0.03 
  -3   2  -4    0.02    0.07 
   3   2   4    0.03    0.01 
   4  -2   4    3.00    0.17 
   4  -2   4    2.63    0.20 
  -4  -2  -4    2.63    0.15 
   4   2   4    2.83    0.13 
   4   2   4    2.82    0.09 
  -5  -2  -4   19.90    0.56 
   5  -2   4   20.03    0.66 
  -5  -2  -4   18.48    0.51 
   5  -2   4   19.79    0.58 
  -5  -2  -4   19.91    0.57 
   5  -2   4   20.13    0.46 
   5   2   4   20.61    0.53 
   5   2   4   20.15    0.47 
   6  -2   4    0.91    0.14 
  -6  -2  -4    1.03    0.11 
   6  -2   4    1.04    0.12 
  -6  -2  -4    1.04    0.07 
   6  -2   4    1.11    0.07 
   6   2   4    1.03    0.09 
   6   2   4    1.03    0.06 
  -7  -2  -4    4.58    0.18 
  -7  -2  -4    4.98    0.25 
   7  -2   4    4.87    0.29 
   7  -2   4    4.50    0.25 
   7  -2   4    4.87    0.17 
   7   2   4    4.77    0.21 
   7   2   4    4.60    0.17 
   8  -2   4   13.55    0.55 
   8  -2   4   12.86    0.37 
   8  -2   4   12.40    0.48 
  -8  -2  -4   12.85    0.46 
   8   2   4   13.11    0.37 
   8   2   4   13.37    0.43 
  -9  -2  -4   21.57    0.69 
   9  -2   4   20.68    0.76 
   9  -2   4   21.59    0.71 
   9  -2   4   21.59    0.58 
   9   2   4   22.90    0.59 
   9   2   4   23.16    0.65 
  10  -2   4    8.64    0.29 
  10  -2   4    7.89    0.40 
 -10  -2  -4    7.91    0.38 
  10  -2   4    8.49    0.44 
  10   2   4    8.47    0.34 
  11  -2   4   -0.05    0.04 
  11  -2   4   -0.03    0.08 
 -11  -2  -4   -0.09    0.07 
  11  -2   4   -0.01    0.08 
  11   2   4   -0.11    0.05 
 -12  -2  -4    2.91    0.24 
  12  -2   4    3.08    0.29 
  12  -2   4    3.15    0.27 
 -12  -2  -4    2.70    0.12 
  12  -2   4    2.61    0.16 
  12   2   4    2.80    0.21 
 -13  -2  -4    0.62    0.14 
  13  -2   4    0.47    0.08 
  13  -2   4    0.71    0.16 
  13  -2   4    0.30    0.14 
  13   2   4    0.38    0.10 
  14  -2   4    4.61    0.23 
 -14  -2  -4    4.53    0.33 
  14  -2   4    4.63    0.38 
  15  -2   4    4.24    0.22 
 -15  -2  -4    3.90    0.32 
  15  -2   4    4.26    0.38 
  15   2   4    4.31    0.29 
  16  -2   4    4.85    0.42 
  16  -2   4    4.90    0.24 
  16   2   4    4.94    0.33 
  17  -2   4    3.23    0.36 
  17  -2   4    2.49    0.18 
  17   2   4    2.51    0.25 
 -19  -3   4    6.02    0.43 
  18  -3  -4    0.06    0.12 
 -18  -3   4    0.07    0.13 
  17  -3  -4    0.13    0.12 
 -17  -3   4    0.01    0.11 
  17  -3  -4   -0.05    0.09 
  16  -3  -4    0.44    0.14 
  16  -3  -4    0.35    0.15 
 -16  -3   4    0.53    0.16 
  16   3  -4    0.48    0.10 
  15  -3  -4    0.31    0.14 
 -15  -3   4    0.03    0.10 
  15  -3  -4    0.12    0.11 
  15   3  -4    0.27    0.08 
  14  -3  -4    0.19    0.10 
  14  -3  -4    0.07    0.09 
 -14  -3   4   -0.02    0.08 
  14   3  -4    0.03    0.06 
  13  -3  -4    0.12    0.10 
  13  -3  -4    0.21    0.10 
  13   3  -4    0.22    0.07 
  12  -3  -4    8.72    0.40 
  12  -3  -4    8.04    0.45 
  12   3  -4    7.76    0.32 
  11  -3  -4   26.47    0.90 
  11  -3  -4   25.90    0.78 
  11   3  -4   25.59    0.73 
  10  -3  -4   -0.04    0.07 
  10  -3  -4   -0.06    0.06 
  10   3  -4    0.07    0.06 
   9  -3  -4   22.73    0.68 
   9  -3  -4   22.80    0.78 
   9   3  -4   24.04    0.71 
   8  -3  -4   13.30    0.44 
   8  -3  -4   14.18    0.55 
   8   3  -4   13.46    0.48 
  -7  -3   4    5.05    0.25 
   7  -3  -4    5.41    0.23 
   7  -3  -4    5.50    0.31 
  -7  -3   4    5.37    0.23 
   7   3  -4    4.93    0.26 
   6  -3  -4    0.00    0.04 
  -6  -3   4    0.00    0.03 
   6  -3  -4    0.08    0.07 
  -6  -3   4   -0.01    0.04 
   6   3  -4   -0.04    0.04 
   5  -3  -4    6.74    0.23 
   5  -3  -4    6.83    0.32 
  -5  -3   4    6.60    0.26 
  -5  -3   4    6.30    0.23 
   5   3  -4    6.16    0.32 
  -4  -3   4   42.69    1.02 
   4  -3  -4   43.23    0.98 
   4  -3  -4   43.15    1.14 
  -4  -3   4   42.67    0.99 
   4   3  -4   41.63    1.22 
  -3  -3   4   32.35    0.77 
  -3  -3   4   32.33    0.79 
   3  -3  -4   32.89    0.90 
   3  -3  -4   33.16    0.75 
   3   3  -4   32.66    1.00 
  -2  -3   4    1.58    0.10 
   2  -3  -4    1.60    0.08 
   2  -3  -4    1.78    0.09 
   2  -3  -4    1.67    0.14 
  -2  -3   4    1.77    0.10 
   2   3  -4    1.84    0.19 
   1  -3  -4   39.83    0.88 
  -1  -3   4   39.40    0.91 
  -1  -3   4   37.40    0.89 
   1  -3  -4   38.73    0.86 
   1  -3  -4   38.93    1.00 
   1   3  -4   38.75    1.18 
   0  -3   4    8.93    0.27 
   0  -3   4    8.90    0.28 
   0  -3  -4    9.26    0.26 
   0  -3  -4    9.61    0.25 
   0   3  -4    9.48    0.45 
   0   3   4    8.80    0.36 
  -1  -3  -4    1.98    0.10 
   1  -3   4    1.99    0.12 
   1  -3   4    1.89    0.11 
  -1  -3  -4    1.93    0.10 
  -1   3  -4    1.91    0.21 
   1   3   4    1.87    0.14 
  -2  -3  -4    4.34    0.17 
  -2  -3  -4    4.36    0.17 
   2  -3   4    3.89    0.18 
   2  -3   4    4.12    0.18 
  -2   3  -4    3.78    0.29 
   2   3   4    4.25    0.20 
   3  -3   4    1.80    0.12 
  -3  -3  -4    2.03    0.12 
   3  -3   4    2.09    0.14 
  -3  -3  -4    1.98    0.12 
  -3   3  -4    1.91    0.22 
   3   3   4    1.93    0.12 
  -4  -3  -4   -0.04    0.03 
   4  -3   4   -0.02    0.03 
   4  -3   4    0.00    0.06 
   4  -3   4    0.03    0.05 
  -4  -3  -4   -0.03    0.04 
  -4   3  -4    0.07    0.09 
   4   3   4    0.04    0.03 
   5  -3   4    1.83    0.15 
  -5  -3  -4    1.85    0.14 
   5  -3   4    1.84    0.21 
  -5   3  -4    2.10    0.25 
   5   3   4    1.94    0.09 
   6  -3   4    3.53    0.27 
   6  -3   4    3.71    0.22 
  -6  -3  -4    3.19    0.19 
   6   3   4    3.41    0.13 
   7  -3   4    2.20    0.23 
   7  -3   4    2.17    0.18 
  -7  -3  -4    2.18    0.17 
   8  -3   4    0.02    0.07 
  -8  -3  -4    0.02    0.05 
   8  -3   4    0.07    0.08 
   9  -3   4    0.99    0.18 
  -9  -3  -4    0.78    0.13 
   9  -3   4    0.94    0.14 
 -10  -3  -4    8.65    0.39 
  10  -3   4    7.25    0.45 
  10  -3   4    8.19    0.41 
 -11  -3  -4    5.10    0.32 
  11  -3   4    5.05    0.33 
  11  -3   4    5.43    0.39 
  12  -3   4    6.60    0.40 
  12  -3   4    6.51    0.45 
 -12  -3  -4    6.63    0.37 
 -13  -3  -4    0.10    0.09 
  13  -3   4   -0.02    0.11 
  13  -3   4    0.03    0.10 
  14  -3   4   -0.13    0.08 
  14  -3   4    0.03    0.13 
 -14  -3  -4   -0.08    0.09 
  15  -3   4   -0.03    0.11 
  15  -3   4   -0.08    0.10 
 -15  -3  -4   -0.07    0.10 
 -16  -3  -4   -0.11    0.10 
  16  -3   4    0.06    0.15 
  17  -4  -4    6.26    0.42 
 -17  -4   4    6.25    0.42 
  16  -4  -4    2.11    0.25 
  16  -4  -4    1.58    0.28 
 -16  -4   4    1.53    0.22 
  15  -4  -4    1.70    0.28 
 -15  -4   4    1.92    0.23 
  15  -4  -4    1.77    0.22 
  14  -4  -4    0.90    0.22 
  14  -4  -4    0.88    0.17 
 -14  -4   4    1.37    0.19 
  14   4  -4    1.03    0.13 
  13  -4  -4    2.19    0.28 
  13  -4  -4    1.73    0.20 
  13   4  -4    2.15    0.17 
  12  -4  -4    1.37    0.17 
  12  -4  -4    1.33    0.23 
  12   4  -4    1.41    0.14 
  12   4  -4    1.79    0.16 
  11  -4  -4    6.92    0.45 
  11  -4  -4    6.40    0.34 
  11   4  -4    7.19    0.33 
  10  -4  -4    9.36    0.51 
  10  -4  -4   10.06    0.41 
  10   4  -4   10.55    0.42 
   9  -4  -4    7.33    0.43 
   9  -4  -4    7.73    0.34 
   9   4  -4    8.37    0.37 
   8  -4  -4    1.95    0.15 
   8  -4  -4    1.82    0.22 
   8   4  -4    2.12    0.19 
   7  -4  -4   12.09    0.54 
   7  -4  -4   12.28    0.40 
  -7  -4   4   12.63    0.44 
   7   4  -4   11.88    0.50 
   6  -4  -4   10.85    0.49 
   6  -4  -4   10.44    0.34 
  -6  -4   4    9.66    0.36 
   6   4  -4    9.81    0.45 
  -5  -4   4    3.66    0.19 
   5  -4  -4    3.60    0.17 
  -5  -4   4    3.80    0.18 
   5  -4  -4    3.68    0.27 
   5   4  -4    3.76    0.27 
  -4  -4   4    0.02    0.03 
   4  -4  -4    0.00    0.07 
   4  -4  -4    0.05    0.03 
  -4  -4   4   -0.02    0.04 
   4   4  -4   -0.05    0.05 
   3  -4  -4    0.88    0.14 
  -3  -4   4    1.28    0.10 
   3  -4  -4    0.96    0.07 
  -3  -4   4    0.98    0.08 
   3   4  -4    1.08    0.17 
   2  -4  -4    1.28    0.15 
   2  -4  -4    1.29    0.08 
  -2  -4   4    1.30    0.10 
  -2  -4   4    1.34    0.09 
   2   4  -4    1.31    0.19 
   1  -4  -4    1.18    0.07 
  -1  -4   4    1.00    0.09 
   1  -4  -4    1.04    0.07 
  -1  -4   4    1.21    0.09 
  -1   4   4    1.01    0.15 
   1   4  -4    1.03    0.18 
   0  -4  -4    1.88    0.10 
   0  -4  -4    1.87    0.09 
   0  -4   4    1.74    0.11 
   0  -4   4    1.92    0.12 
   0   4  -4    1.78    0.23 
   0   4   4    1.74    0.18 
   1  -4   4    2.98    0.15 
  -1  -4  -4    3.11    0.14 
  -1  -4  -4    3.10    0.13 
   1  -4   4    3.11    0.16 
  -1   4  -4    3.53    0.32 
   1   4   4    3.02    0.22 
   2  -4   4    5.96    0.23 
  -2  -4  -4    6.25    0.22 
  -2  -4  -4    6.86    0.22 
   2  -4   4    6.67    0.26 
  -2   4  -4    6.17    0.42 
   2   4   4    6.44    0.31 
  -3  -4  -4   16.21    0.45 
  -3  -4  -4   15.62    0.45 
   3  -4   4   16.86    0.49 
  -3   4  -4   15.49    0.73 
   3   4   4   16.26    0.54 
   4  -4   4   35.83    0.92 
  -4  -4  -4   36.06    0.88 
  -4   4  -4   33.92    1.24 
   5  -4   4   17.92    0.74 
  -5  -4  -4   19.30    0.55 
   5  -4   4   19.66    0.59 
  -5   4  -4   18.04    0.83 
   6  -4   4    3.40    0.31 
   6  -4   4    3.96    0.23 
  -6  -4  -4    3.34    0.20 
  -6   4  -4    2.93    0.33 
   7  -4   4    2.58    0.28 
   7  -4   4    3.22    0.22 
  -7  -4  -4    3.12    0.20 
  -7   4  -4    2.65    0.32 
   8  -4   4    0.26    0.09 
   8  -4   4    0.27    0.13 
  -8  -4  -4    0.28    0.09 
  -8   4  -4    0.70    0.20 
  -9  -4  -4    1.29    0.15 
   9  -4   4    1.07    0.16 
   9  -4   4    1.10    0.22 
  10  -4   4    0.57    0.18 
 -10  -4  -4    0.57    0.13 
  11  -4   4    6.36    0.47 
 -11  -4  -4    7.36    0.38 
  11  -4   4    6.05    0.38 
 -12  -4  -4   12.40    0.54 
  12  -4   4   12.73    0.59 
  12  -4   4   13.55    0.71 
 -13  -4  -4    4.95    0.34 
  13  -4   4    4.83    0.45 
  13  -4   4    4.81    0.36 
  14  -4   4    1.61    0.24 
 -14  -4  -4    1.65    0.22 
 -15  -4  -4    0.80    0.18 
  15  -4   4    0.85    0.20 
  15  -5  -4    0.25    0.13 
 -15  -5   4    0.35    0.14 
 -14  -5   4    2.14    0.24 
  14  -5  -4    2.75    0.26 
  14  -5  -4    2.20    0.33 
  13  -5  -4    2.08    0.31 
  13  -5  -4    2.05    0.22 
  12  -5  -4    1.43    0.26 
  12  -5  -4    1.36    0.18 
  12   5  -4    1.18    0.15 
  11  -5  -4    0.00    0.10 
  11  -5  -4    0.01    0.08 
  10  -5  -4   -0.07    0.06 
  10  -5  -4    0.13    0.12 
  10   5  -4   -0.06    0.07 
   9  -5  -4    0.42    0.17 
   9  -5  -4    0.23    0.09 
   9   5  -4    0.33    0.11 
   8  -5  -4    0.51    0.10 
   8  -5  -4    0.69    0.18 
   8   5  -4    0.49    0.13 
   7  -5  -4    0.24    0.13 
   7  -5  -4    0.28    0.07 
   7   5  -4    0.21    0.10 
   6  -5  -4    0.45    0.15 
   6  -5  -4    0.34    0.07 
  -6  -5   4    0.41    0.09 
   6   5  -4    0.38    0.13 
   5  -5  -4    0.06    0.05 
   5  -5  -4    0.29    0.12 
  -5  -5   4    0.09    0.06 
   5   5  -4    0.25    0.12 
   4  -5  -4    1.12    0.18 
  -4  -5   4    1.31    0.12 
   4  -5  -4    0.97    0.08 
   4   5  -4    1.18    0.20 
  -3  -5   4    3.05    0.17 
   3  -5  -4    3.35    0.14 
  -3   5   4    3.33    0.31 
   3   5  -4    3.06    0.30 
   2  -5  -4    0.22    0.04 
   2  -5  -4    0.23    0.05 
  -2  -5   4    0.26    0.06 
   2   5  -4    0.08    0.10 
  -2   5   4    0.19    0.12 
  -1  -5   4    0.08    0.05 
   1  -5  -4    0.06    0.03 
   1  -5  -4    0.10    0.04 
   1   5  -4   -0.02    0.08 
  -1   5   4   -0.04    0.08 
   0  -5  -4    0.00    0.03 
   0  -5   4    0.02    0.05 
   0  -5  -4    0.05    0.03 
   0   5  -4    0.15    0.13 
   0   5   4    0.03    0.08 
  -1  -5  -4   11.05    0.32 
   1  -5   4   11.25    0.37 
  -1  -5  -4   11.38    0.31 
  -1   5  -4   10.89    0.62 
   1   5   4   10.81    0.51 
   2  -5   4   20.72    0.59 
  -2  -5  -4   20.60    0.53 
  -2   5  -4   20.81    0.91 
   3  -5   4    5.13    0.24 
  -3  -5  -4    4.84    0.20 
  -3   5  -4    5.07    0.43 
   4  -5   4    0.28    0.09 
  -4  -5  -4    0.26    0.07 
  -4   5  -4    0.32    0.16 
  -5  -5  -4    0.03    0.05 
   5  -5   4    0.03    0.06 
  -5   5  -4   -0.03    0.11 
   6  -5   4    2.00    0.18 
  -6  -5  -4    1.62    0.14 
  -6   5  -4    2.07    0.32 
   7  -5   4    2.09    0.19 
  -7  -5  -4    2.32    0.18 
  -7   5  -4    2.41    0.35 
   8  -5   4    0.01    0.11 
   8  -5   4   -0.07    0.07 
  -8  -5  -4    0.04    0.07 
  -8   5  -4    0.02    0.14 
  -9  -5  -4    6.31    0.33 
   9  -5   4    7.51    0.52 
   9  -5   4    6.72    0.37 
 -10  -5  -4    3.50    0.26 
  10  -5   4    3.68    0.29 
  10  -5   4    3.77    0.40 
  11  -5   4   -0.03    0.09 
  11  -5   4   -0.14    0.12 
 -11  -5  -4    0.08    0.09 
  12  -5   4    0.34    0.14 
 -12  -5  -4    0.12    0.10 
  13  -5   4   -0.07    0.10 
 -13  -5  -4    0.07    0.10 
  12  -6  -4    0.01    0.08 
  11  -6  -4    0.45    0.20 
  11  -6  -4    0.32    0.11 
  10  -6  -4    0.14    0.16 
  10  -6  -4    0.02    0.07 
   9  -6  -4    1.90    0.29 
   9  -6  -4    1.57    0.16 
   8  -6  -4    0.08    0.07 
   8  -6  -4    0.08    0.14 
   7  -6  -4    2.98    0.33 
   7  -6  -4    2.51    0.17 
   7   6  -4    2.75    0.28 
   6  -6  -4    2.06    0.27 
  -6  -6   4    1.77    0.16 
   6  -6  -4    2.13    0.15 
  -6   6   4    1.53    0.28 
   6   6  -4    2.04    0.26 
  -5  -6   4    0.51    0.09 
   5  -6  -4    0.47    0.08 
   5   6  -4    0.41    0.16 
  -5   6   4    0.35    0.17 
   4  -6  -4    0.71    0.08 
  -4  -6   4    0.68    0.10 
   4   6  -4    0.82    0.20 
  -4   6   4    0.64    0.19 
   3  -6  -4    0.15    0.05 
  -3  -6   4    0.15    0.07 
   3   6  -4    0.22    0.14 
  -3   6   4    0.29    0.15 
   2  -6  -4    0.99    0.08 
  -2  -6   4    0.87    0.10 
   2   6  -4    1.00    0.22 
  -2   6   4    0.85    0.21 
   1  -6  -4    0.02    0.03 
  -1  -6   4   -0.04    0.05 
   1   6  -4    0.04    0.12 
   0  -6  -4    0.66    0.06 
   0  -6   4    0.63    0.10 
   0   6  -4    0.72    0.21 
  -1  -6  -4    2.21    0.11 
   1  -6   4    2.19    0.16 
  -1   6  -4    2.97    0.36 
   2  -6   4    0.14    0.07 
  -2  -6  -4    0.17    0.05 
  -2   6  -4    0.10    0.14 
  -3  -6  -4    1.79    0.13 
  -3   6  -4    2.69    0.36 
   4  -6   4    1.31    0.14 
  -4  -6  -4    0.99    0.10 
  -4   6  -4    1.27    0.28 
   5  -6   4    1.71    0.17 
  -5  -6  -4    1.46    0.13 
  -6  -6  -4    1.21    0.13 
   6  -6   4    1.45    0.17 
  -7  -6  -4    0.66    0.12 
   7  -6   4    1.01    0.16 
  -8  -6  -4    0.71    0.12 
   8  -6   4    0.82    0.15 
   9  -6   4    0.25    0.12 
  -9  -6  -4    0.28    0.11 
 -10  -6  -4    0.05    0.08 
  10  -6   4    0.01    0.10 
   7  -7  -4    0.03    0.07 
   6  -7  -4    0.89    0.11 
   5  -7  -4    1.08    0.11 
   4  -7  -4    2.27    0.14 
  -4  -7   4    2.30    0.17 
   3  -7  -4    1.68    0.11 
  -3  -7   4    2.12    0.16 
  -2  -7   4    0.19    0.08 
  -1  -7   4    1.46    0.13 
   0  -7   4    0.22    0.08 
   1  -7   4    0.96    0.12 
  -2  -7  -4    2.30    0.13 
   2  -7   4    2.28    0.18 
  -3  -7  -4    1.29    0.10 
   3  -7   4    1.25    0.15 
   4  -7   4   -0.05    0.07 
  -4  -7  -4   -0.02    0.05 
   5  -7   4    0.06    0.09 
  -5  -7  -4    0.07    0.06 
  20   0  -5   -0.01    0.08 
  20   0  -5   -0.02    0.09 
  19   0  -5   -0.10    0.07 
  19   0  -5   -0.01    0.09 
  18   0  -5    0.01    0.07 
  18   0  -5   -0.06    0.07 
  17   0  -5    0.01    0.06 
  17   0  -5   -0.01    0.07 
  16   0  -5    0.05    0.07 
  16   0  -5   -0.04    0.05 
  15   0  -5    0.04    0.06 
  15   0  -5   -0.07    0.05 
  14   0  -5   -0.12    0.05 
  14   0  -5    0.03    0.06 
  13   0  -5    0.00    0.05 
  13   0  -5   -0.09    0.08 
 -13   0   5   -0.04    0.06 
  13   0  -5   -0.05    0.05 
 -12   0   5    0.01    0.06 
  12   0  -5   -0.01    0.04 
  12   0  -5   -0.05    0.04 
  12   0  -5   -0.06    0.05 
  11   0  -5   -0.04    0.03 
  11   0  -5    0.02    0.04 
  11   0  -5   -0.02    0.05 
  10   0  -5   -0.02    0.03 
  10   0  -5    0.02    0.05 
  10   0  -5    0.02    0.04 
   9   0  -5   -0.05    0.04 
   9   0  -5   -0.05    0.02 
   9   0  -5    0.00    0.03 
   8   0  -5    0.01    0.04 
   8   0  -5    0.00    0.03 
   8   0  -5   -0.02    0.02 
   7   0  -5   -0.01    0.03 
   7   0  -5   -0.03    0.02 
   7   0  -5    0.00    0.02 
   6   0  -5   -0.04    0.03 
   6   0  -5   -0.03    0.02 
   6   0  -5   -0.04    0.02 
   5   0  -5    0.08    0.03 
   5   0  -5    0.05    0.03 
  -5   0   5    0.08    0.03 
  -5   0   5    0.12    0.05 
   5   0  -5    0.02    0.02 
   4   0  -5   -0.03    0.02 
   4   0  -5   -0.02    0.02 
   4   0  -5   -0.05    0.02 
  -4   0   5    0.12    0.03 
  -4   0   5   -0.04    0.02 
  -4   0   5    0.03    0.04 
  -3   0   5   -0.01    0.03 
   3   0  -5    0.01    0.02 
  -3   0   5   -0.01    0.02 
  -3   0   5    0.01    0.02 
   3   0  -5   -0.01    0.02 
   2   0  -5   -0.01    0.02 
  -2   0   5    0.01    0.03 
  -2   0   5    0.00    0.02 
   2   0  -5    0.00    0.02 
  -2   0   5   -0.01    0.02 
   1   0  -5   -0.06    0.02 
  -1   0   5   -0.06    0.03 
   1   0  -5   -0.02    0.02 
  -1   0   5   -0.04    0.02 
  -1   0   5   -0.06    0.02 
   0   0  -5    0.02    0.03 
   0   0   5   -0.02    0.02 
   0   0   5   -0.01    0.03 
   0   0   5   -0.03    0.04 
   0   0  -5    0.05    0.03 
  -1   0  -5   -0.11    0.03 
   1   0   5   -0.17    0.03 
  -1   0  -5   -0.12    0.03 
   1   0   5   -0.15    0.03 
   1   0   5   -0.14    0.02 
  -1   0  -5   -0.08    0.03 
  -2   0  -5   -0.01    0.03 
  -2   0  -5   -0.04    0.02 
  -2   0  -5   -0.02    0.03 
   2   0   5   -0.03    0.02 
   2   0   5   -0.02    0.03 
   3   0   5    0.01    0.03 
  -3   0  -5   -0.02    0.03 
   3   0   5   -0.07    0.03 
   3   0   5   -0.03    0.02 
  -3   0  -5    0.08    0.04 
   4   0   5   -0.09    0.03 
   4   0   5   -0.04    0.03 
  -4   0  -5   -0.09    0.04 
   4   0   5   -0.05    0.05 
   5   0   5   -0.09    0.03 
   5   0   5   -0.04    0.04 
  -5   0  -5   -0.09    0.04 
   5   0   5   -0.10    0.04 
   6   0   5   -0.04    0.03 
  -6   0  -5   -0.05    0.04 
   6   0   5    0.01    0.04 
   6   0   5   -0.05    0.04 
   7   0   5   -0.02    0.03 
   7   0   5    0.03    0.05 
   7   0   5   -0.01    0.04 
  -7   0  -5    0.00    0.05 
   8   0   5   -0.02    0.05 
  -8   0  -5   -0.15    0.04 
   8   0   5   -0.03    0.05 
   8   0   5   -0.05    0.04 
   9   0   5   -0.01    0.05 
   9   0   5    0.03    0.05 
   9   0   5    0.05    0.07 
  -9   0  -5    0.05    0.07 
 -10   0  -5   -0.11    0.06 
  10   0   5   -0.07    0.04 
  10   0   5   -0.02    0.06 
  11   0   5    0.09    0.06 
 -11   0  -5   -0.07    0.07 
  11   0   5   -0.02    0.07 
  12   0   5   -0.07    0.07 
  12   0   5    0.00    0.06 
  13   0   5   -0.02    0.05 
  14   0   5   -0.10    0.05 
  15   0   5   -0.04    0.06 
  16   0   5   -0.06    0.07 
  17   0   5    0.04    0.09 
  20  -1  -5    0.05    0.08 
 -20  -1   5   -0.19    0.07 
  20   1  -5   -0.02    0.10 
  20   1  -5    0.02    0.10 
  19  -1  -5   -0.04    0.09 
 -19  -1   5   -0.12    0.07 
  19  -1  -5    0.01    0.07 
  19   1  -5   -0.04    0.09 
  19   1  -5    0.07    0.09 
 -18  -1   5    0.28    0.10 
  18  -1  -5    0.18    0.08 
  18  -1  -5    0.38    0.14 
  18   1  -5    0.24    0.10 
  18   1  -5    0.27    0.10 
  17  -1  -5    1.94    0.16 
  17  -1  -5    2.17    0.24 
 -17  -1   5    2.03    0.17 
  17   1  -5    1.99    0.19 
  17   1  -5    1.79    0.18 
  16  -1  -5    2.36    0.18 
  16  -1  -5    2.50    0.24 
 -16  -1   5    2.64    0.19 
 -16  -1   5    3.02    0.27 
  16   1  -5    2.40    0.20 
  16   1  -5    2.84    0.21 
  15  -1  -5    0.43    0.13 
  15  -1  -5    0.42    0.09 
  15  -1  -5    0.44    0.12 
 -15  -1   5    0.41    0.09 
 -15  -1   5    0.55    0.14 
  15   1  -5    0.52    0.11 
  15   1  -5    0.43    0.10 
 -14  -1   5    3.44    0.27 
  14  -1  -5    3.17    0.20 
  14  -1  -5    3.19    0.24 
  14  -1  -5    3.53    0.26 
 -14  -1   5    3.50    0.21 
  14   1  -5    3.65    0.22 
  14   1  -5    3.29    0.22 
  13  -1  -5    1.40    0.12 
  13  -1  -5    1.11    0.16 
 -13  -1   5    1.21    0.12 
  13  -1  -5    1.40    0.16 
  13   1  -5    1.33    0.13 
  13   1  -5    1.09    0.12 
  12  -1  -5    0.93    0.10 
 -12  -1   5    0.73    0.10 
  12  -1  -5    1.09    0.14 
  12  -1  -5    0.82    0.14 
  12   1  -5    0.62    0.10 
  12   1  -5    1.02    0.11 
  11  -1  -5    0.02    0.05 
 -11  -1   5    0.00    0.04 
  11  -1  -5   -0.03    0.04 
  11  -1  -5   -0.05    0.06 
  11   1  -5   -0.06    0.04 
  11   1  -5   -0.04    0.06 
 -11   1   5    0.00    0.06 
  11   1  -5    0.02    0.04 
 -10  -1   5    0.98    0.09 
  10  -1  -5    0.83    0.11 
  10  -1  -5    1.02    0.09 
  10  -1  -5    1.03    0.12 
  10   1  -5    0.95    0.09 
  10   1  -5    0.93    0.10 
 -10   1   5    1.04    0.12 
  10   1  -5    1.13    0.12 
  -9  -1   5    1.90    0.12 
   9  -1  -5    1.74    0.11 
   9  -1  -5    1.86    0.15 
   9  -1  -5    2.11    0.15 
   9   1  -5    1.95    0.13 
   9   1  -5    1.99    0.15 
  -9   1   5    1.75    0.15 
   9   1  -5    1.86    0.12 
   8  -1  -5    0.80    0.07 
  -8  -1   5    0.91    0.08 
   8  -1  -5    1.08    0.10 
   8  -1  -5    0.80    0.09 
   8   1  -5    0.82    0.09 
   8   1  -5    0.93    0.08 
   8   1  -5    0.95    0.09 
   7  -1  -5   31.98    0.81 
  -7  -1   5   32.16    0.77 
   7  -1  -5   31.23    0.75 
   7  -1  -5   30.81    0.80 
   7   1  -5   31.65    0.84 
   7   1  -5   31.06    0.79 
   7   1  -5   30.88    0.78 
   7   1  -5   31.00    0.79 
   6  -1  -5   14.64    0.43 
   6  -1  -5   14.46    0.42 
  -6  -1   5   14.84    0.40 
  -6  -1   5   14.60    0.45 
   6   1  -5   14.69    0.40 
   6   1  -5   14.88    0.42 
   6   1  -5   14.98    0.45 
  -5  -1   5   45.43    1.08 
   5  -1  -5   44.87    1.05 
   5  -1  -5   46.56    1.07 
  -5  -1   5   44.16    1.04 
   5   1  -5   44.43    1.05 
   5   1  -5   45.22    1.05 
   4  -1  -5    5.94    0.21 
   4  -1  -5    6.19    0.20 
  -4  -1   5    6.15    0.24 
  -4  -1   5    5.88    0.18 
   4   1  -5    5.91    0.19 
   4   1  -5    6.03    0.24 
   4   1  -5    6.16    0.21 
  -3  -1   5   31.15    0.78 
  -3  -1   5   31.85    0.73 
   3  -1  -5   31.24    0.75 
   3  -1  -5   33.56    0.75 
   3   1  -5   31.60    0.75 
   3   1  -5   30.47    0.85 
   3   1  -5   31.94    0.75 
  -3   1   5   31.36    0.76 
  -2  -1   5  202.51    4.40 
   2  -1  -5  207.74    4.35 
  -2  -1   5  205.44    4.52 
   2  -1  -5  202.43    4.41 
   2  -1  -5  208.81    4.52 
  -2  -1   5  204.08    4.84 
   2   1  -5  203.45    4.42 
  -2   1   5  208.31    4.50 
  -2   1   5  206.76    4.37 
   2   1  -5  205.79    4.89 
   2   1  -5  201.56    4.53 
  -1  -1   5   64.22    1.46 
   1  -1  -5   64.90    1.46 
   1  -1  -5   65.64    1.45 
   1  -1  -5   66.80    1.47 
  -1  -1   5   64.58    1.47 
  -1  -1   5   64.53    1.66 
   1   1  -5   64.71    1.65 
  -1   1   5   71.87    1.57 
  -1   1   5   67.07    1.46 
  -1   1   5   65.15    1.47 
  -1   1   5   66.56    1.44 
   1   1  -5   64.49    1.47 
   1   1  -5   63.20    1.45 
   0  -1  -5   95.48    2.07 
   0  -1   5   90.17    2.28 
   0  -1  -5   89.66    2.01 
   0  -1   5   92.34    2.03 
   0  -1  -5   93.00    2.02 
   0  -1   5   90.45    2.06 
   0   1  -5   90.39    2.28 
   0   1   5   93.79    2.02 
   0   1  -5   91.81    2.01 
   0   1   5   95.04    2.18 
   0   1   5   94.47    2.05 
   1  -1   5   19.72    0.53 
  -1  -1  -5   20.50    0.47 
   1  -1   5   19.21    0.48 
   1  -1   5   19.69    0.62 
  -1  -1  -5   18.99    0.51 
  -1   1  -5   19.27    0.51 
   1   1   5   20.32    0.50 
   1   1   5   20.38    0.52 
   1   1   5   19.08    0.49 
  -1   1  -5   19.64    0.62 
   2  -1   5    7.23    0.26 
   2  -1   5    7.20    0.22 
  -2  -1  -5    6.82    0.20 
  -2  -1  -5    6.91    0.24 
   2   1   5    6.94    0.22 
  -2   1  -5    6.34    0.30 
  -2   1  -5    6.53    0.24 
   2   1   5    6.92    0.25 
   3  -1   5    2.98    0.18 
   3  -1   5    3.17    0.17 
  -3  -1  -5    3.20    0.16 
   3  -1   5    3.00    0.13 
  -3   1  -5    2.81    0.20 
   3   1   5    2.97    0.14 
  -3   1  -5    3.16    0.16 
   3   1   5    3.17    0.17 
   4  -1   5    0.70    0.07 
   4  -1   5    0.62    0.10 
  -4  -1  -5    0.72    0.09 
  -4  -1  -5    0.78    0.04 
   4  -1   5    0.75    0.10 
  -4   1  -5    0.51    0.10 
   4   1   5    0.67    0.05 
   4   1   5    0.62    0.07 
   4   1   5    0.66    0.09 
  -4   1  -5    0.84    0.09 
   5  -1   5    4.95    0.20 
   5  -1   5    4.83    0.25 
  -5  -1  -5    4.88    0.15 
   5  -1   5    4.97    0.24 
  -5  -1  -5    4.87    0.23 
   5   1   5    5.11    0.18 
   5   1   5    4.81    0.20 
   5   1   5    4.87    0.23 
  -5   1  -5    5.13    0.23 
   6  -1   5   12.81    0.47 
   6  -1   5   13.04    0.46 
  -6  -1  -5   12.94    0.44 
   6  -1   5   13.33    0.40 
   6   1   5   13.11    0.41 
   6   1   5   13.28    0.44 
   6   1   5   12.98    0.37 
  -6   1  -5   13.33    0.44 
   7  -1   5    0.26    0.09 
   7  -1   5    0.17    0.08 
   7  -1   5    0.10    0.05 
  -7  -1  -5    0.09    0.06 
   7   1   5   -0.04    0.05 
   7   1   5    0.11    0.05 
  -7   1  -5    0.16    0.07 
   7   1   5    0.17    0.06 
   8  -1   5   11.37    0.45 
  -8  -1  -5   10.12    0.41 
   8  -1   5   10.57    0.36 
   8  -1   5   10.06    0.43 
   8   1   5   11.13    0.38 
   8   1   5   10.64    0.35 
  -8   1  -5   10.39    0.40 
  -9  -1  -5    1.91    0.18 
   9  -1   5    1.83    0.19 
   9  -1   5    1.48    0.17 
   9  -1   5    1.49    0.13 
   9   1   5    1.84    0.15 
   9   1   5    1.97    0.14 
  10  -1   5    2.74    0.24 
  10  -1   5    2.76    0.23 
  10  -1   5    3.23    0.19 
 -10  -1  -5    2.94    0.23 
  10   1   5    2.84    0.20 
  10   1   5    3.15    0.19 
  11  -1   5    4.95    0.32 
 -11  -1  -5    4.14    0.29 
  11  -1   5    4.42    0.23 
  11  -1   5    4.63    0.31 
  11   1   5    4.48    0.25 
  12  -1   5    1.33    0.19 
  12  -1   5    1.40    0.14 
 -12  -1  -5    1.48    0.19 
  12   1   5    1.44    0.15 
  13  -1   5    0.05    0.09 
  13  -1   5    0.00    0.05 
 -13  -1  -5    0.05    0.09 
  13   1   5    0.00    0.07 
  14  -1   5    0.18    0.08 
  14  -1   5    0.06    0.11 
  14   1   5    0.17    0.09 
  15  -1   5    0.53    0.10 
  15   1   5    0.40    0.12 
  16  -1   5    0.02    0.07 
  16   1   5   -0.01    0.08 
  17  -1   5    0.02    0.08 
  17   1   5    0.01    0.09 
  20  -2  -5    5.67    0.25 
  20   2  -5    5.61    0.36 
  20   2  -5    5.57    0.36 
  19  -2  -5    0.43    0.17 
  19  -2  -5    0.28    0.08 
  19   2  -5    0.28    0.12 
  19   2  -5    0.25    0.11 
  18  -2  -5    1.80    0.14 
  18  -2  -5    1.84    0.26 
 -18  -2   5    1.89    0.13 
  18   2  -5    2.07    0.21 
  18   2  -5    1.78    0.19 
  17  -2  -5    0.98    0.20 
 -17  -2   5    0.79    0.09 
  17  -2  -5    0.80    0.09 
  17  -2  -5    0.63    0.16 
 -17  -2   5    0.95    0.19 
  17   2  -5    1.02    0.15 
  17   2  -5    0.87    0.13 
 -16  -2   5    0.20    0.12 
 -16  -2   5    0.12    0.06 
  16  -2  -5    0.09    0.11 
  16  -2  -5    0.33    0.13 
  16  -2  -5    0.14    0.05 
  16   2  -5    0.13    0.08 
  16   2  -5    0.09    0.07 
 -15  -2   5    1.24    0.18 
  15  -2  -5    0.97    0.18 
  15  -2  -5    1.36    0.19 
 -15  -2   5    1.22    0.10 
  15  -2  -5    1.13    0.10 
  15   2  -5    1.42    0.14 
  15   2  -5    1.63    0.16 
  14  -2  -5    5.50    0.21 
  14  -2  -5    5.30    0.33 
  14  -2  -5    5.40    0.35 
 -14  -2   5    5.34    0.21 
  14   2  -5    5.60    0.29 
  14   2  -5    5.41    0.26 
 -13  -2   5    2.12    0.12 
  13  -2  -5    2.30    0.13 
  13  -2  -5    1.70    0.20 
  13  -2  -5    2.05    0.21 
  13   2  -5    2.12    0.16 
  13   2  -5    2.34    0.18 
  12  -2  -5   39.88    1.17 
  12  -2  -5   40.97    1.11 
 -12  -2   5   41.09    0.95 
  12   2  -5   40.92    1.06 
  12   2  -5   39.55    1.04 
  11  -2  -5    0.33    0.10 
  11  -2  -5    0.35    0.11 
 -11  -2   5    0.32    0.05 
  11   2  -5    0.60    0.09 
  11   2  -5    0.52    0.09 
  10  -2  -5    5.68    0.28 
  10  -2  -5    5.25    0.29 
 -10  -2   5    5.59    0.16 
 -10  -2   5    5.73    0.17 
  10   2  -5    5.50    0.24 
  10   2  -5    5.47    0.24 
   9  -2  -5   15.57    0.55 
   9  -2  -5   16.02    0.51 
   9   2  -5   15.65    0.51 
   9   2  -5   16.62    0.47 
   9   2  -5   16.37    0.49 
   8  -2  -5    2.89    0.20 
   8  -2  -5    3.21    0.18 
   8   2  -5    2.63    0.16 
   8   2  -5    2.87    0.15 
   7  -2  -5   14.54    0.44 
  -7  -2   5   14.73    0.47 
   7  -2  -5   13.86    0.48 
   7   2  -5   14.10    0.47 
   7   2  -5   14.10    0.40 
  -6  -2   5   42.49    1.05 
  -6  -2   5   42.07    1.01 
   6  -2  -5   41.75    1.01 
   6  -2  -5   43.04    1.09 
   6   2  -5   41.52    1.13 
   6   2  -5   42.80    0.99 
   5  -2  -5    6.01    0.26 
   5  -2  -5    6.42    0.23 
  -5  -2   5    6.51    0.26 
   5   2  -5    6.40    0.29 
   5   2  -5    6.43    0.20 
  -4  -2   5   46.39    1.10 
   4  -2  -5   46.25    1.06 
   4  -2  -5   46.08    1.08 
   4  -2  -5   45.98    1.14 
   4   2  -5   46.29    1.25 
   3  -2  -5   56.97    1.27 
  -3  -2   5   59.17    1.32 
  -3  -2   5   57.53    1.29 
   3  -2  -5   57.36    1.30 
   3  -2  -5   56.10    1.35 
   3   2  -5   55.29    1.51 
   2  -2  -5   12.95    0.38 
  -2  -2   5   13.26    0.39 
   2  -2  -5   13.38    0.35 
   2  -2  -5   13.50    0.37 
  -2  -2   5   12.62    0.36 
   2   2  -5   12.80    0.49 
   1  -2  -5   14.13    0.38 
  -1  -2   5   13.91    0.40 
  -1  -2   5   14.88    0.42 
   1  -2  -5   14.72    0.40 
   1  -2  -5   14.58    0.40 
  -1   2   5   15.30    0.38 
   1   2  -5   14.20    0.53 
   0  -2  -5   22.61    0.57 
   0  -2   5   23.45    0.60 
   0  -2  -5   23.09    0.58 
   0  -2  -5   23.09    0.57 
   0   2  -5   22.93    0.76 
   0   2   5   23.87    0.55 
   1  -2   5   17.52    0.49 
  -1  -2  -5   17.43    0.47 
  -1  -2  -5   17.80    0.46 
   1   2   5   16.86    0.47 
  -1   2  -5   17.73    0.64 
   1   2   5   17.78    0.41 
   2  -2   5    0.84    0.09 
  -2  -2  -5    0.97    0.08 
  -2  -2  -5    1.01    0.09 
   2  -2   5    1.06    0.09 
  -2   2  -5    0.96    0.15 
  -3  -2  -5    0.60    0.07 
   3  -2   5    0.47    0.08 
   3  -2   5    0.73    0.12 
  -3   2  -5    0.67    0.13 
   3   2   5    0.53    0.05 
   4  -2   5    0.04    0.02 
   4  -2   5    0.12    0.07 
  -4  -2  -5    0.10    0.05 
  -4  -2  -5    0.10    0.05 
   4  -2   5    0.01    0.04 
   4   2   5    0.02    0.03 
  -4   2  -5    0.05    0.07 
  -5  -2  -5    2.22    0.15 
   5  -2   5    2.53    0.20 
   5  -2   5    2.33    0.10 
   5  -2   5    2.06    0.09 
   5  -2   5    2.36    0.17 
   5   2   5    2.29    0.08 
   5   2   5    2.41    0.13 
  -5   2  -5    2.26    0.15 
  -6  -2  -5    1.02    0.11 
   6  -2   5    1.18    0.13 
   6  -2   5    1.16    0.08 
   6  -2   5    1.21    0.16 
   6   2   5    1.16    0.07 
   6   2   5    1.29    0.10 
   7  -2   5    0.48    0.06 
  -7  -2  -5    0.61    0.10 
   7  -2   5    0.46    0.12 
   7  -2   5    0.54    0.11 
   7   2   5    0.76    0.07 
   7   2   5    0.79    0.09 
   8  -2   5    7.27    0.36 
   8  -2   5    7.53    0.26 
   8  -2   5    8.14    0.41 
  -8  -2  -5    7.51    0.34 
   8   2   5    7.75    0.31 
   9  -2   5    5.09    0.34 
   9  -2   5    5.61    0.22 
  -9  -2  -5    5.71    0.30 
   9  -2   5    5.16    0.31 
   9   2   5    5.50    0.27 
  10  -2   5    0.98    0.16 
 -10  -2  -5    0.67    0.13 
  10  -2   5    0.75    0.16 
  10  -2   5    0.93    0.09 
  10   2   5    0.84    0.12 
  11  -2   5    0.59    0.08 
  11  -2   5    0.67    0.17 
 -11  -2  -5    0.63    0.13 
  11  -2   5    0.54    0.14 
  11   2   5    0.45    0.10 
  12  -2   5    0.32    0.14 
 -12  -2  -5    0.38    0.12 
  12  -2   5    0.61    0.15 
  12  -2   5    0.47    0.08 
  12   2   5    0.45    0.11 
  13  -2   5    1.92    0.26 
 -13  -2  -5    1.61    0.21 
  13  -2   5    1.83    0.14 
  13  -2   5    1.71    0.22 
  14  -2   5    0.71    0.10 
 -14  -2  -5    0.66    0.16 
  14  -2   5    0.66    0.19 
 -15  -2  -5    1.29    0.22 
  15  -2   5    1.53    0.26 
  15  -2   5    1.74    0.14 
  16  -2   5    0.62    0.10 
  16  -2   5    1.02    0.24 
  16   2   5    0.93    0.17 
 -19  -3   5    0.19    0.15 
 -18  -3   5    0.73    0.19 
  18  -3  -5    0.75    0.19 
  18   3  -5    0.46    0.12 
  17  -3  -5    0.44    0.15 
 -17  -3   5    0.42    0.16 
  17  -3  -5    0.36    0.17 
  17   3  -5    0.34    0.10 
  16  -3  -5   -0.08    0.08 
  16  -3  -5    0.00    0.09 
 -16  -3   5    0.03    0.10 
  16   3  -5   -0.03    0.06 
  15  -3  -5    0.65    0.17 
  15  -3  -5    0.60    0.15 
 -15  -3   5    0.92    0.18 
  15   3  -5    0.87    0.12 
  14  -3  -5    0.10    0.09 
  14  -3  -5    0.05    0.09 
  14   3  -5    0.21    0.07 
  13  -3  -5    1.24    0.17 
  13  -3  -5    1.10    0.19 
  13   3  -5    1.21    0.13 
  12  -3  -5    3.73    0.30 
  12  -3  -5    4.13    0.26 
  12   3  -5    3.51    0.21 
  11  -3  -5    0.79    0.16 
  11  -3  -5    0.85    0.13 
  11   3  -5    0.98    0.11 
  11   3  -5    0.94    0.12 
  10  -3  -5    7.12    0.39 
  10  -3  -5    7.47    0.34 
  10   3  -5    7.82    0.33 
   9  -3  -5    2.46    0.22 
   9  -3  -5    2.17    0.17 
   9   3  -5    2.51    0.18 
   8  -3  -5    4.13    0.27 
   8  -3  -5    4.61    0.23 
   8   3  -5    4.40    0.25 
   7  -3  -5    0.80    0.09 
  -7  -3   5    0.73    0.09 
  -7  -3   5    0.71    0.10 
   7  -3  -5    0.62    0.12 
   7   3  -5    0.72    0.11 
  -6  -3   5    5.17    0.24 
   6  -3  -5    5.67    0.29 
  -6  -3   5    5.26    0.22 
   6  -3  -5    5.61    0.22 
   6   3  -5    5.29    0.29 
  -5  -3   5    3.04    0.17 
  -5  -3   5    3.18    0.16 
   5  -3  -5    2.76    0.14 
   5  -3  -5    3.16    0.21 
   5   3  -5    3.24    0.23 
  -4  -3   5    0.11    0.05 
   4  -3  -5    0.06    0.06 
  -4  -3   5    0.12    0.04 
   4  -3  -5    0.03    0.03 
   4   3  -5    0.05    0.06 
  -3  -3   5    8.54    0.29 
   3  -3  -5    8.17    0.34 
   3  -3  -5    8.56    0.27 
  -3  -3   5    8.30    0.27 
   3  -3  -5    8.34    0.26 
   3   3  -5    7.52    0.39 
   2  -3  -5   17.81    0.54 
  -2  -3   5   17.25    0.46 
  -2  -3   5   16.95    0.48 
   2  -3  -5   16.79    0.43 
   2  -3  -5   17.50    0.45 
   2   3  -5   16.53    0.65 
  -1  -3   5   20.92    0.55 
   1  -3  -5   21.10    0.51 
   1  -3  -5   20.49    0.52 
  -1  -3   5   20.89    0.53 
   1  -3  -5   20.99    0.60 
   1   3  -5   19.17    0.74 
   0  -3   5    1.14    0.09 
   0  -3   5    1.36    0.10 
   0  -3  -5    1.24    0.08 
   0  -3  -5    1.21    0.09 
   0   3  -5    1.38    0.18 
  -1  -3  -5    2.37    0.12 
   1  -3   5    2.08    0.14 
   1  -3   5    2.19    0.13 
  -1  -3  -5    2.34    0.13 
   1   3   5    2.25    0.15 
  -1   3  -5    2.30    0.24 
  -2  -3  -5    4.35    0.18 
   2  -3   5    3.97    0.20 
   2  -3   5    3.80    0.18 
  -2  -3  -5    3.91    0.17 
  -2   3  -5    3.52    0.29 
   2   3   5    3.56    0.17 
  -3  -3  -5    0.29    0.06 
   3  -3   5    0.42    0.07 
  -3  -3  -5    0.32    0.06 
   3  -3   5    0.28    0.07 
   3   3   5    0.39    0.05 
  -3   3  -5    0.21    0.11 
  -4  -3  -5    2.54    0.16 
   4  -3   5    2.52    0.17 
   4  -3   5    2.69    0.24 
  -4  -3  -5    2.49    0.16 
  -4   3  -5    2.66    0.27 
   4   3   5    2.78    0.10 
  -5  -3  -5    1.40    0.12 
   5  -3   5    1.39    0.19 
   5  -3   5    1.27    0.13 
  -5   3  -5    0.81    0.18 
   6  -3   5    1.11    0.18 
   6  -3   5    0.78    0.12 
  -6  -3  -5    0.76    0.11 
  -6   3  -5    0.74    0.18 
   7  -3   5    3.18    0.28 
   7  -3   5    3.53    0.24 
  -7  -3  -5    3.30    0.21 
   8  -3   5    0.02    0.07 
  -8  -3  -5   -0.02    0.05 
   8  -3   5   -0.03    0.07 
  -9  -3  -5   -0.09    0.06 
   9  -3   5    0.02    0.07 
   9  -3   5   -0.07    0.07 
 -10  -3  -5    0.04    0.08 
  10  -3   5    0.22    0.12 
  10  -3   5    0.13    0.10 
  11  -3   5   -0.03    0.09 
 -11  -3  -5   -0.03    0.08 
  11  -3   5    0.10    0.12 
  12  -3   5    0.21    0.12 
  12  -3   5   -0.04    0.10 
 -12  -3  -5   -0.01    0.07 
 -13  -3  -5    0.50    0.14 
  13  -3   5    0.47    0.18 
  13  -3   5    0.58    0.16 
  14  -3   5    0.06    0.12 
 -14  -3  -5    0.01    0.09 
  14  -3   5   -0.19    0.09 
 -15  -3  -5   -0.07    0.10 
  15  -3   5    0.09    0.15 
  17  -4  -5    0.76    0.18 
 -17  -4   5    0.93    0.20 
 -16  -4   5   -0.07    0.10 
  16  -4  -5    0.15    0.14 
  16  -4  -5    0.01    0.09 
  15  -4  -5    0.03    0.12 
  15  -4  -5   -0.05    0.09 
 -15  -4   5    0.05    0.10 
  15   4  -5    0.06    0.06 
  14  -4  -5    0.31    0.15 
  14  -4  -5    0.29    0.12 
  14   4  -5    0.37    0.09 
  13  -4  -5    4.07    0.29 
  13  -4  -5    5.09    0.39 
  13   4  -5    4.02    0.24 
  12  -4  -5    0.19    0.09 
  12  -4  -5    0.20    0.13 
  12   4  -5    0.20    0.09 
  12   4  -5    0.29    0.09 
  11  -4  -5    5.06    0.30 
  11  -4  -5    5.60    0.39 
  11   4  -5    5.71    0.30 
  10  -4  -5    7.70    0.35 
  10  -4  -5    6.61    0.43 
  10   4  -5    7.32    0.36 
   9  -4  -5    5.99    0.29 
   9  -4  -5    6.03    0.38 
   9   4  -5    5.30    0.31 
   8  -4  -5    2.22    0.16 
   8  -4  -5    2.21    0.23 
   8   4  -5    1.69    0.18 
  -7  -4   5    0.12    0.07 
   7  -4  -5    0.23    0.07 
   7  -4  -5    0.20    0.11 
   7   4  -5    0.27    0.10 
   6  -4  -5    1.27    0.18 
   6  -4  -5    1.57    0.12 
  -6  -4   5    1.72    0.14 
   6   4  -5    1.47    0.18 
   5  -4  -5   14.36    0.57 
   5  -4  -5   14.91    0.42 
  -5  -4   5   14.45    0.46 
   5   4  -5   15.12    0.61 
   4  -4  -5    6.10    0.22 
  -4  -4   5    6.42    0.26 
  -4  -4   5    6.33    0.24 
   4  -4  -5    6.16    0.33 
   4   4  -5    6.61    0.38 
   3  -4  -5    9.24    0.28 
   3  -4  -5    9.07    0.41 
  -3  -4   5   10.04    0.33 
   3  -4  -5    9.82    0.30 
  -3  -4   5    9.38    0.30 
   3   4  -5    8.95    0.48 
  -2  -4   5    3.10    0.17 
   2  -4  -5    3.20    0.22 
   2  -4  -5    2.97    0.13 
   2  -4  -5    2.77    0.14 
  -2  -4   5    3.22    0.15 
   2   4  -5    2.57    0.26 
   1  -4  -5    0.01    0.03 
  -1  -4   5    0.07    0.04 
   1  -4  -5    0.09    0.04 
  -1  -4   5    0.03    0.05 
  -1   4   5    0.16    0.08 
   1   4  -5    0.01    0.08 
   0  -4   5   13.72    0.40 
   0  -4   5   13.56    0.42 
   0  -4  -5   13.96    0.37 
   0  -4  -5   14.13    0.39 
   0   4   5   13.70    0.53 
   0   4  -5   12.90    0.63 
   1  -4   5    0.51    0.08 
  -1  -4  -5    0.45    0.06 
  -1  -4  -5    0.45    0.07 
   1   4   5    0.42    0.10 
  -1   4  -5    0.59    0.17 
  -2  -4  -5    0.94    0.09 
   2  -4   5    1.03    0.11 
  -2  -4  -5    1.02    0.09 
   2   4   5    0.88    0.12 
  -2   4  -5    1.27    0.22 
  -3  -4  -5   -0.09    0.04 
   3  -4   5   -0.10    0.05 
  -3   4  -5   -0.02    0.08 
  -4  -4  -5   -0.03    0.04 
   4  -4   5   -0.16    0.04 
  -4   4  -5    0.00    0.10 
   5  -4   5    0.15    0.08 
  -5  -4  -5    0.17    0.07 
  -5   4  -5    0.15    0.13 
   6  -4   5    0.11    0.10 
   6  -4   5    0.08    0.07 
  -6  -4  -5    0.01    0.06 
  -6   4  -5   -0.03    0.11 
   7  -4   5   -0.06    0.09 
   7  -4   5   -0.05    0.06 
  -7  -4  -5    0.00    0.06 
  -7   4  -5   -0.07    0.10 
  -8  -4  -5    0.19    0.08 
   8  -4   5    0.31    0.16 
   8  -4   5    0.38    0.11 
  -8   4  -5    0.43    0.19 
   9  -4   5    2.94    0.32 
  -9  -4  -5    2.86    0.23 
   9  -4   5    3.37    0.26 
  -9   4  -5    2.88    0.36 
  10  -4   5    1.13    0.18 
 -10  -4  -5    0.98    0.16 
  10  -4   5    0.84    0.21 
 -10   4  -5    1.13    0.27 
  11  -4   5    1.58    0.22 
 -11  -4  -5    1.65    0.20 
  11  -4   5    2.01    0.30 
 -11   4  -5    1.92    0.33 
 -12  -4  -5    0.03    0.10 
  12  -4   5    0.13    0.16 
  12  -4   5   -0.07    0.10 
  13  -4   5    0.00    0.11 
 -13  -4  -5   -0.13    0.08 
  13  -4   5   -0.06    0.13 
  14  -4   5    0.04    0.12 
 -14  -4  -5    0.09    0.11 
  15  -5  -5    0.13    0.11 
 -15  -5   5    0.29    0.14 
  14  -5  -5    0.37    0.19 
  14  -5  -5    0.21    0.13 
  13  -5  -5    0.21    0.15 
  13  -5  -5    0.38    0.13 
  13   5  -5    0.62    0.12 
  12  -5  -5    0.01    0.12 
  12  -5  -5   -0.05    0.07 
  11  -5  -5   -0.06    0.07 
  11  -5  -5   -0.04    0.10 
  11   5  -5    0.02    0.07 
  10  -5  -5    0.07    0.08 
  10  -5  -5    0.09    0.12 
  10   5  -5    0.21    0.10 
   9  -5  -5    0.17    0.12 
   9  -5  -5   -0.05    0.06 
   9   5  -5    0.01    0.08 
   8  -5  -5   -0.02    0.06 
   8  -5  -5    0.02    0.11 
   8   5  -5   -0.02    0.08 
   7  -5  -5    0.32    0.08 
   7  -5  -5    0.26    0.13 
  -7  -5   5    0.23    0.08 
   7   5  -5    0.27    0.12 
   6  -5  -5   -0.01    0.04 
  -6  -5   5    0.10    0.06 
   6  -5  -5    0.00    0.09 
   6   5  -5    0.04    0.09 
   5  -5  -5    2.74    0.27 
  -5  -5   5    3.36    0.20 
   5  -5  -5    2.97    0.16 
   5   5  -5    2.84    0.28 
   4  -5  -5    4.60    0.31 
  -4  -5   5    3.61    0.20 
   4  -5  -5    3.21    0.16 
   4   5  -5    3.33    0.31 
   3  -5  -5    0.85    0.08 
   3  -5  -5    0.78    0.08 
  -3  -5   5    1.04    0.11 
  -3   5   5    0.88    0.18 
   3   5  -5    0.86    0.18 
  -2  -5   5    0.00    0.05 
   2  -5  -5    0.06    0.04 
   2  -5  -5    0.14    0.05 
  -2   5   5    0.02    0.09 
   2   5  -5    0.24    0.12 
  -1  -5   5   -0.03    0.05 
   1  -5  -5    0.03    0.03 
   1  -5  -5    0.02    0.04 
   1   5  -5   -0.04    0.08 
  -1   5   5   -0.07    0.07 
   0  -5  -5    2.54    0.12 
   0  -5  -5    2.33    0.13 
   0  -5   5    2.13    0.16 
   0   5  -5    2.56    0.31 
   0   5   5    2.54    0.24 
   1  -5   5   -0.05    0.05 
  -1  -5  -5   -0.01    0.04 
  -1   5  -5    0.02    0.10 
   2  -5   5    0.46    0.09 
  -2  -5  -5    0.36    0.07 
  -2   5  -5    0.35    0.16 
   3  -5   5    1.47    0.14 
  -3  -5  -5    1.08    0.10 
  -3   5  -5    1.37    0.26 
  -4  -5  -5    0.46    0.08 
   4  -5   5    0.46    0.10 
  -4   5  -5    0.30    0.16 
   5  -5   5    0.41    0.10 
  -5  -5  -5    0.53    0.09 
  -5   5  -5    0.51    0.19 
  -6  -5  -5    0.10    0.07 
   6  -5   5    0.04    0.07 
  -6   5  -5    0.11    0.14 
  -7  -5  -5    0.02    0.06 
   7  -5   5    0.05    0.08 
  -7   5  -5    0.00    0.13 
   8  -5   5    3.27    0.26 
  -8  -5  -5    3.23    0.23 
  -8   5  -5    3.31    0.41 
  -9  -5  -5    0.10    0.09 
   9  -5   5   -0.06    0.08 
  10  -5   5    0.10    0.15 
 -10  -5  -5   -0.05    0.08 
  10  -5   5    0.13    0.11 
  11  -5   5    0.06    0.11 
 -11  -5  -5    0.03    0.09 
 -12  -5  -5    0.32    0.12 
  12  -5   5    0.36    0.15 
  12  -6  -5    0.94    0.16 
  11  -6  -5   -0.06    0.13 
  11  -6  -5    0.34    0.11 
  10  -6  -5    0.05    0.08 
  10  -6  -5   -0.05    0.12 
   9  -6  -5    4.38    0.26 
   9  -6  -5    4.32    0.41 
   8  -6  -5   -0.11    0.11 
   8  -6  -5    0.18    0.08 
   8   6  -5    0.17    0.11 
   7  -6  -5    0.38    0.08 
   7  -6  -5    0.21    0.14 
   7   6  -5    0.42    0.16 
   6  -6  -5    0.12    0.06 
  -6  -6   5    0.09    0.08 
   6  -6  -5    0.22    0.13 
   6   6  -5    0.27    0.13 
   5  -6  -5    0.26    0.07 
  -5  -6   5    0.28    0.08 
  -5   6   5    0.18    0.14 
   4  -6  -5    0.85    0.09 
  -4  -6   5    1.00    0.12 
   4   6  -5    1.00    0.21 
  -4   6   5    0.54    0.19 
  -3  -6   5    0.03    0.06 
   3  -6  -5    0.00    0.04 
  -3   6   5   -0.10    0.09 
   3   6  -5    0.04    0.12 
  -2  -6   5    0.36    0.09 
   2  -6  -5    0.28    0.05 
   2   6  -5    0.34    0.16 
   1  -6  -5    1.17    0.09 
  -1  -6   5    1.26    0.13 
   1   6  -5    1.30    0.25 
   0  -6  -5    2.23    0.12 
   0  -6   5    2.10    0.16 
   0   6  -5    2.38    0.33 
   1  -6   5   -0.02    0.06 
  -1  -6  -5    0.06    0.04 
  -1   6  -5   -0.10    0.11 
   2  -6   5    1.16    0.13 
  -2  -6  -5    1.46    0.11 
  -2   6  -5    1.30    0.27 
   3  -6   5    0.09    0.07 
  -3  -6  -5    0.05    0.05 
  -3   6  -5    0.25    0.17 
  -4  -6  -5    0.04    0.06 
   4  -6   5    0.06    0.08 
  -5  -6  -5   -0.10    0.05 
   5  -6   5    0.00    0.08 
  -6  -6  -5    1.47    0.15 
   6  -6   5    1.37    0.17 
  -7  -6  -5    0.81    0.13 
   7  -6   5    0.85    0.15 
   8  -6   5    2.80    0.25 
  -8  -6  -5    3.11    0.23 
   9  -6   5    0.07    0.09 
  -9  -6  -5    0.06    0.09 
   7  -7  -5    0.09    0.08 
   6  -7  -5    0.09    0.07 
   5  -7  -5   -0.07    0.05 
  -5  -7   5   -0.03    0.07 
  -4  -7   5    0.35    0.10 
   4  -7  -5    0.39    0.07 
   3  -7  -5    0.99    0.09 
  -3  -7   5    1.13    0.13 
   2  -7  -5   -0.01    0.04 
  -2  -7   5    0.02    0.07 
  -1  -7   5    2.82    0.20 
   0  -7  -5    4.94    0.18 
   0  -7   5    5.06    0.27 
   1  -7   5    5.26    0.28 
  -1  -7  -5    4.87    0.19 
   2  -7   5    3.18    0.23 
  -2  -7  -5    3.16    0.16 
  -3  -7  -5    1.23    0.11 
   3  -7   5    1.45    0.16 
   4  -7   5    0.37    0.11 
  -4  -7  -5    0.34    0.08 
 -21   0   6    0.02    0.10 
  21   0  -6    0.09    0.10 
  20   0  -6   -0.01    0.09 
  20   0  -6    0.04    0.08 
  19   0  -6    0.85    0.17 
  19   0  -6    0.89    0.14 
  18   0  -6    1.86    0.22 
  18   0  -6    1.99    0.18 
  17   0  -6    0.13    0.08 
  17   0  -6    0.05    0.06 
  16   0  -6    0.19    0.08 
  16   0  -6    0.14    0.08 
  15   0  -6    1.75    0.18 
  15   0  -6    1.80    0.16 
  14   0  -6   28.21    0.85 
  14   0  -6   29.38    0.82 
 -13   0   6   22.72    0.71 
  13   0  -6   20.38    0.68 
  13   0  -6   20.53    0.62 
  13   0  -6   18.66    0.63 
  12   0  -6    7.34    0.31 
  12   0  -6    7.66    0.31 
  12   0  -6    7.95    0.36 
  11   0  -6    0.43    0.07 
  11   0  -6    0.40    0.08 
  11   0  -6    0.49    0.10 
  10   0  -6    1.22    0.11 
  10   0  -6    1.50    0.12 
  10   0  -6    1.58    0.15 
   8   0  -6    0.24    0.05 
   8   0  -6    0.29    0.07 
   8   0  -6    0.17    0.05 
  -7   0   6    5.20    0.21 
   7   0  -6    5.36    0.23 
   7   0  -6    5.31    0.20 
   6   0  -6   34.08    0.81 
  -6   0   6   33.73    0.82 
  -6   0   6   32.74    0.85 
   6   0  -6   32.15    0.82 
   5   0  -6  107.83    2.39 
  -5   0   6  108.25    2.40 
   5   0  -6  105.14    2.35 
   5   0  -6  108.24    2.39 
  -5   0   6  107.64    2.38 
  -4   0   6   34.73    0.89 
   4   0  -6   36.52    0.85 
  -4   0   6   35.83    0.86 
   4   0  -6   35.44    0.86 
   4   0  -6   36.93    0.91 
   3   0  -6   24.05    0.61 
  -3   0   6   24.24    0.65 
  -3   0   6   23.82    0.63 
  -3   0   6   24.01    0.60 
   3   0  -6   24.10    0.63 
  -2   0   6   50.62    1.18 
   2   0  -6   51.21    1.24 
  -2   0   6   49.53    1.25 
   2   0  -6   50.11    1.16 
  -2   0   6   50.73    1.17 
  -1   0   6    8.71    0.30 
   1   0  -6    8.58    0.28 
  -1   0   6    8.74    0.26 
  -1   0   6    8.70    0.29 
   1   0  -6    9.10    0.29 
   0   0  -6   17.19    0.47 
   0   0   6   17.52    0.49 
   0   0   6   16.79    0.50 
   0   0  -6   17.38    0.48 
   0   0   6   17.09    0.45 
  -1   0  -6    1.88    0.11 
   1   0   6    2.03    0.13 
  -1   0  -6    1.86    0.12 
  -1   0  -6    1.95    0.11 
   1   0   6    1.94    0.11 
   1   0   6    2.07    0.13 
   2   0   6    3.09    0.17 
   2   0   6    2.97    0.14 
  -2   0  -6    3.16    0.17 
  -2   0  -6    3.07    0.15 
  -3   0  -6   38.49    1.03 
  -3   0  -6   39.96    0.97 
   3   0   6   39.08    0.98 
   4   0   6   10.14    0.33 
  -4   0  -6   10.20    0.36 
   4   0   6   10.45    0.37 
  -4   0  -6    9.44    0.35 
   4   0   6   10.15    0.33 
   5   0   6    4.91    0.25 
  -5   0  -6    4.90    0.24 
   5   0   6    4.77    0.21 
  -5   0  -6    4.84    0.24 
   5   0   6    4.96    0.22 
   6   0   6   16.42    0.49 
  -6   0  -6   16.87    0.53 
   6   0   6   17.20    0.52 
   6   0   6   16.02    0.54 
   7   0   6   12.71    0.42 
   7   0   6   12.98    0.47 
   7   0   6   12.36    0.43 
  -7   0  -6   11.75    0.45 
   8   0   6    0.07    0.08 
   8   0   6    0.20    0.08 
   8   0   6    0.20    0.07 
  -8   0  -6    0.23    0.08 
   9   0   6   14.87    0.51 
   9   0   6   13.96    0.47 
  -9   0  -6   13.88    0.52 
   9   0   6   13.83    0.53 
  10   0   6    0.73    0.13 
 -10   0  -6    0.60    0.12 
  10   0   6    0.78    0.11 
  11   0   6   10.15    0.41 
  11   0   6   11.23    0.46 
  12   0   6    0.88    0.13 
  13   0   6    0.78    0.12 
  14   0   6    0.08    0.08 
  15   0   6    0.48    0.12 
  16   0   6    0.82    0.14 
  17   0   6    6.72    0.37 
 -20  -1   6    5.95    0.32 
  20  -1  -6    5.59    0.41 
  20  -1  -6    6.29    0.32 
  20   1  -6    5.43    0.36 
  20   1  -6    5.34    0.34 
  19  -1  -6    4.62    0.36 
 -19  -1   6    4.47    0.28 
  19  -1  -6    4.29    0.26 
  19   1  -6    4.47    0.30 
  19   1  -6    4.93    0.33 
  18  -1  -6    3.10    0.29 
  18  -1  -6    3.46    0.22 
 -18  -1   6    3.71    0.24 
  18   1  -6    3.15    0.25 
  18   1  -6    3.30    0.25 
  17  -1  -6    3.64    0.30 
 -17  -1   6    3.20    0.21 
  17  -1  -6    3.22    0.21 
  17   1  -6    3.00    0.23 
  17   1  -6    3.36    0.24 
 -16  -1   6    1.56    0.15 
  16  -1  -6    1.78    0.15 
 -16  -1   6    1.77    0.22 
  16  -1  -6    1.50    0.19 
  16   1  -6    1.68    0.17 
  16   1  -6    1.45    0.16 
 -15  -1   6    5.41    0.27 
  15  -1  -6    4.41    0.30 
  15  -1  -6    4.95    0.25 
  15  -1  -6    5.54    0.34 
 -15  -1   6    5.18    0.33 
  15   1  -6    4.89    0.27 
  15   1  -6    5.28    0.28 
 -14  -1   6    1.64    0.15 
  14  -1  -6    1.72    0.15 
  14  -1  -6    1.89    0.19 
  14  -1  -6    1.68    0.20 
  14   1  -6    1.87    0.16 
  14   1  -6    1.94    0.17 
  13  -1  -6    8.90    0.40 
 -13  -1   6    9.57    0.35 
  13  -1  -6    9.10    0.42 
  13  -1  -6    9.09    0.34 
  13   1  -6    9.54    0.37 
  13   1  -6    8.93    0.35 
 -12  -1   6   47.99    1.19 
  12  -1  -6   47.00    1.26 
  12  -1  -6   48.42    1.26 
  12  -1  -6   48.09    1.18 
  12   1  -6   48.08    1.21 
  12   1  -6   46.40    1.19 
  11  -1  -6   29.30    0.84 
  11  -1  -6   30.23    0.77 
  11  -1  -6   29.73    0.84 
 -11  -1   6   29.22    0.78 
  11   1  -6   30.17    0.83 
 -11   1   6   29.26    0.83 
  11   1  -6   28.20    0.78 
  11   1  -6   29.06    0.79 
  10  -1  -6    5.32    0.21 
 -10  -1   6    5.34    0.22 
  10  -1  -6    5.26    0.25 
  10  -1  -6    5.37    0.27 
  10   1  -6    5.28    0.23 
  10   1  -6    5.80    0.27 
  10   1  -6    5.15    0.22 
   9  -1  -6    4.49    0.22 
  -9  -1   6    3.99    0.19 
   9  -1  -6    4.41    0.23 
   9  -1  -6    4.08    0.18 
   9   1  -6    4.32    0.22 
   9   1  -6    4.33    0.20 
   9   1  -6    4.23    0.19 
   8  -1  -6   -0.03    0.03 
   8  -1  -6   -0.04    0.03 
  -8  -1   6   -0.01    0.03 
   8  -1  -6   -0.03    0.02 
   8   1  -6    0.00    0.03 
   8   1  -6   -0.01    0.03 
   8   1  -6    0.00    0.04 
   7  -1  -6   45.98    1.12 
  -7  -1   6   45.64    1.14 
   7  -1  -6   44.59    1.11 
  -7  -1   6   46.31    1.09 
   7   1  -6   45.52    1.09 
   7   1  -6   46.47    1.10 
   7   1  -6   45.97    1.18 
   7   1  -6   46.36    1.11 
  -6  -1   6    9.03    0.27 
  -6  -1   6    8.69    0.33 
   6  -1  -6    8.60    0.29 
   6  -1  -6    8.64    0.31 
   6   1  -6    9.50    0.32 
   6   1  -6    8.89    0.28 
   6   1  -6    8.82    0.30 
   5  -1  -6   14.22    0.42 
  -5  -1   6   14.68    0.45 
  -5  -1   6   14.92    0.39 
   5  -1  -6   14.93    0.41 
   5   1  -6   14.23    0.42 
   5   1  -6   14.13    0.40 
   4  -1  -6    6.40    0.21 
  -4  -1   6    6.32    0.20 
   4  -1  -6    6.18    0.23 
  -4  -1   6    6.35    0.25 
   4   1  -6    5.98    0.21 
  -4   1   6    6.50    0.24 
   4   1  -6    6.25    0.23 
   4   1  -6    6.46    0.26 
  -3  -1   6    0.89    0.06 
   3  -1  -6    0.98    0.06 
  -3  -1   6    0.90    0.09 
   3  -1  -6    1.01    0.08 
   3   1  -6    0.88    0.08 
  -3   1   6    0.78    0.08 
   3   1  -6    0.76    0.09 
  -3   1   6    0.95    0.07 
   3   1  -6    0.89    0.07 
  -2  -1   6    7.04    0.26 
  -2  -1   6    6.59    0.21 
   2  -1  -6    6.61    0.23 
   2  -1  -6    6.68    0.19 
  -2   1   6    6.69    0.21 
  -2   1   6    6.71    0.24 
   2   1  -6    6.89    0.22 
  -2   1   6    7.20    0.21 
   2   1  -6    6.53    0.28 
   2   1  -6    6.44    0.23 
   1  -1  -6    4.85    0.19 
   1  -1  -6    5.23    0.14 
  -1  -1   6    5.28    0.22 
  -1  -1   6    4.90    0.17 
   1   1  -6    5.15    0.24 
  -1   1   6    5.16    0.20 
  -1   1   6    5.13    0.18 
  -1   1   6    5.12    0.17 
   1   1  -6    4.98    0.19 
   0  -1  -6    5.94    0.15 
   0  -1  -6    6.30    0.18 
   0  -1  -6    5.65    0.22 
   0  -1   6    5.99    0.24 
   0  -1   6    6.19    0.19 
   0   1   6    6.12    0.20 
   0   1  -6    6.00    0.27 
   0   1   6    5.69    0.18 
   0   1   6    5.66    0.22 
   0   1  -6    6.02    0.22 
   1  -1   6   93.67    2.08 
  -1  -1  -6   94.63    2.05 
  -1  -1  -6   93.35    2.05 
   1  -1   6   92.37    2.07 
  -1   1  -6   89.90    2.31 
   1   1   6   92.51    2.05 
   1   1   6   90.80    2.19 
  -1   1  -6   93.70    2.05 
   1   1   6   93.46    2.08 
  -2  -1  -6   18.97    0.52 
   2  -1   6   18.70    0.49 
   2  -1   6   18.78    0.54 
  -2   1  -6   18.26    0.52 
  -2   1  -6   18.78    0.62 
   2   1   6   19.29    0.50 
   2   1   6   18.97    0.53 
  -3  -1  -6   27.07    0.71 
   3  -1   6   27.06    0.74 
   3  -1   6   26.73    0.68 
  -3   1  -6   25.22    0.82 
   3   1   6   27.15    0.69 
   3   1   6   26.94    0.72 
  -3   1  -6   29.08    0.72 
   4  -1   6   38.84    0.94 
   4  -1   6   38.62    1.00 
  -4  -1  -6   39.21    0.98 
  -4  -1  -6   38.61    0.86 
   4  -1   6   38.28    1.03 
   4   1   6   39.63    0.96 
   4   1   6   39.48    0.90 
  -4   1  -6   39.34    0.97 
  -4   1  -6   38.34    1.12 
   4   1   6   38.91    0.98 
   5  -1   6   16.57    0.53 
  -5  -1  -6   16.11    0.51 
   5  -1   6   15.28    0.53 
  -5  -1  -6   16.38    0.38 
   5  -1   6   16.52    0.46 
  -5  -1  -6   15.41    0.43 
   5   1   6   15.81    0.51 
  -5   1  -6   16.12    0.50 
   5   1   6   15.58    0.47 
  -5   1  -6   15.33    0.58 
   5   1   6   16.45    0.42 
  -6  -1  -6    2.39    0.17 
   6  -1   6    2.17    0.14 
   6  -1   6    2.49    0.19 
  -6  -1  -6    2.33    0.12 
   6  -1   6    2.50    0.19 
   6   1   6    2.44    0.18 
  -6   1  -6    2.09    0.16 
   6   1   6    2.34    0.15 
   6   1   6    2.05    0.12 
   7  -1   6    0.04    0.04 
  -7  -1  -6    0.07    0.06 
   7  -1   6    0.07    0.06 
   7  -1   6    0.06    0.07 
   7   1   6    0.07    0.04 
  -7   1  -6    0.10    0.06 
   7   1   6   -0.03    0.03 
  -8  -1  -6    6.68    0.34 
   8  -1   6    7.52    0.37 
   8  -1   6    7.51    0.36 
   8  -1   6    8.20    0.30 
   8   1   6    7.79    0.31 
   8   1   6    7.09    0.28 
   9  -1   6   36.36    1.05 
   9  -1   6   34.48    1.02 
  -9  -1  -6   34.04    1.00 
   9  -1   6   34.81    0.92 
   9   1   6   35.36    0.95 
  10  -1   6    7.99    0.41 
  10  -1   6    7.62    0.40 
 -10  -1  -6    8.38    0.40 
  10  -1   6    8.10    0.33 
  10   1   6    8.07    0.35 
  11  -1   6   15.44    0.62 
  11  -1   6   15.81    0.62 
  11  -1   6   14.69    0.50 
 -11  -1  -6   15.19    0.60 
  11   1   6   15.86    0.54 
  12  -1   6    1.94    0.16 
  12  -1   6    2.15    0.24 
 -12  -1  -6    2.13    0.22 
  12   1   6    2.68    0.21 
  13  -1   6    0.08    0.07 
  13  -1   6    0.14    0.11 
  13   1   6   -0.04    0.06 
  14  -1   6    0.06    0.07 
  14   1   6    0.12    0.09 
  15  -1   6    0.62    0.12 
  15   1   6    0.51    0.13 
  16  -1   6    0.15    0.09 
  16   1   6    0.06    0.09 
  20   2  -6    0.11    0.10 
  20   2  -6    0.12    0.11 
  19  -2  -6    0.11    0.06 
  19  -2  -6    0.16    0.14 
 -19  -2   6    0.02    0.06 
  19   2  -6    0.17    0.10 
  19   2  -6    0.10    0.10 
  18  -2  -6    9.11    0.53 
  18  -2  -6    9.73    0.33 
 -18  -2   6    8.67    0.31 
  18   2  -6    9.47    0.45 
  18   2  -6    8.44    0.41 
  17  -2  -6    1.45    0.21 
 -17  -2   6    1.41    0.11 
  17  -2  -6    1.17    0.21 
  17  -2  -6    1.39    0.11 
 -17  -2   6    1.18    0.20 
  17   2  -6    1.42    0.17 
  17   2  -6    1.65    0.17 
  16  -2  -6    1.58    0.12 
  16  -2  -6    1.66    0.22 
 -16  -2   6    1.66    0.12 
  16  -2  -6    1.43    0.20 
 -16  -2   6    1.70    0.22 
  16   2  -6    1.44    0.15 
  16   2  -6    1.51    0.17 
  15  -2  -6    1.25    0.10 
  15  -2  -6    1.52    0.19 
  15  -2  -6    1.16    0.19 
 -15  -2   6    1.08    0.09 
  15   2  -6    1.51    0.16 
  15   2  -6    1.14    0.13 
  14  -2  -6    0.20    0.10 
  14  -2  -6    0.32    0.11 
 -14  -2   6    0.28    0.06 
  14   2  -6    0.32    0.09 
  14   2  -6    0.25    0.08 
 -13  -2   6    0.55    0.07 
  13  -2  -6    0.67    0.13 
  13  -2  -6    0.64    0.14 
  13   2  -6    0.72    0.10 
  13   2  -6    0.60    0.10 
  12  -2  -6    5.35    0.32 
  12  -2  -6    4.97    0.29 
 -12  -2   6    4.93    0.19 
  12   2  -6    4.94    0.24 
  12   2  -6    5.45    0.26 
 -11  -2   6    0.35    0.05 
  11  -2  -6    0.44    0.10 
  11  -2  -6    0.35    0.10 
  11   2  -6    0.47    0.08 
  11   2  -6    0.37    0.08 
 -10  -2   6   18.32    0.45 
 -10  -2   6   18.34    0.45 
  10  -2  -6   17.90    0.58 
  10  -2  -6   18.46    0.62 
  10   2  -6   17.77    0.55 
  10   2  -6   18.64    0.58 
  10   2  -6   18.35    0.54 
  -9  -2   6    4.30    0.13 
  -9  -2   6    4.38    0.13 
   9  -2  -6    4.02    0.23 
   9  -2  -6    4.64    0.26 
   9   2  -6    4.74    0.23 
   9   2  -6    4.26    0.20 
   8  -2  -6    1.70    0.15 
  -8  -2   6    1.64    0.15 
   8  -2  -6    1.50    0.13 
   8   2  -6    1.74    0.12 
   8   2  -6    1.62    0.13 
   7  -2  -6   13.11    0.45 
   7  -2  -6   13.98    0.43 
  -7  -2   6   13.57    0.46 
   7   2  -6   12.91    0.46 
   7   2  -6   13.59    0.39 
   6  -2  -6    9.53    0.35 
  -6  -2   6   10.10    0.36 
   6  -2  -6    9.55    0.32 
   6  -2  -6    9.48    0.34 
   6   2  -6    9.12    0.29 
   6   2  -6    9.10    0.37 
   5  -2  -6    4.07    0.18 
  -5  -2   6    3.83    0.18 
  -5  -2   6    3.94    0.20 
   5  -2  -6    3.89    0.19 
   5   2  -6    3.80    0.15 
   5   2  -6    3.64    0.21 
   4  -2  -6   32.97    0.84 
   4  -2  -6   32.67    0.82 
  -4  -2   6   33.56    0.84 
   4  -2  -6   33.39    0.80 
   4   2  -6   32.92    0.96 
   4   2  -6   32.50    0.78 
   3  -2  -6    0.25    0.05 
  -3  -2   6    0.11    0.05 
   3  -2  -6    0.09    0.04 
   3  -2  -6    0.24    0.05 
   3   2  -6    0.13    0.03 
   3   2  -6    0.15    0.07 
   2  -2  -6    0.10    0.04 
   2  -2  -6    0.12    0.04 
  -2  -2   6    0.12    0.05 
   2  -2  -6    0.17    0.04 
   2   2  -6    0.14    0.03 
   2   2  -6    0.16    0.07 
   1  -2  -6   21.55    0.56 
   1  -2  -6   20.66    0.53 
  -1  -2   6   20.22    0.57 
   1  -2  -6   20.79    0.54 
   1   2  -6   20.68    0.70 
  -1   2   6   21.33    0.50 
   1   2  -6   20.96    0.52 
   0  -2  -6   10.11    0.33 
   0  -2   6   10.02    0.34 
   0  -2  -6   10.27    0.28 
   0  -2   6    9.68    0.32 
   0  -2  -6   10.72    0.32 
   0   2   6   10.42    0.25 
   0   2  -6    9.73    0.44 
   0   2  -6   10.12    0.29 
  -1  -2  -6   25.13    0.62 
   1  -2   6   24.96    0.66 
  -1  -2  -6   23.17    0.63 
  -1   2  -6   23.16    0.80 
   2  -2   6    3.77    0.20 
  -2  -2  -6    4.07    0.18 
   2   2   6    3.79    0.15 
  -2   2  -6    3.90    0.27 
  -3  -2  -6    2.09    0.14 
  -3  -2  -6    1.88    0.14 
   3  -2   6    1.94    0.07 
   3  -2   6    1.84    0.14 
   3  -2   6    1.82    0.07 
  -3   2  -6    1.91    0.21 
   3   2   6    2.05    0.11 
   4  -2   6   10.18    0.27 
   4  -2   6    9.51    0.37 
   4  -2   6    9.93    0.27 
   4  -2   6    9.22    0.41 
  -4  -2  -6   10.10    0.36 
  -4   2  -6   10.16    0.48 
   4   2   6   10.35    0.32 
  -4   2  -6   10.03    0.34 
  -5  -2  -6    6.98    0.30 
   5  -2   6    7.10    0.21 
   5  -2   6    6.86    0.31 
   5  -2   6    6.92    0.22 
   5  -2   6    6.63    0.35 
  -5   2  -6    6.91    0.40 
   5   2   6    7.14    0.26 
  -6  -2  -6    5.65    0.27 
   6  -2   6    5.78    0.20 
   6  -2   6    5.06    0.28 
   6  -2   6    5.82    0.33 
  -6   2  -6    5.04    0.35 
   6   2   6    5.82    0.24 
  -7  -2  -6    5.61    0.29 
   7  -2   6    6.02    0.31 
   7  -2   6    5.88    0.34 
   7  -2   6    6.00    0.22 
   7   2   6    6.00    0.26 
   8  -2   6    0.09    0.08 
   8  -2   6    0.08    0.05 
   8  -2   6    0.29    0.12 
  -8  -2  -6    0.09    0.08 
   8   2   6    0.05    0.06 
   9  -2   6    0.09    0.08 
  -9  -2  -6    0.15    0.09 
   9  -2   6    0.16    0.10 
   9  -2   6    0.20    0.06 
   9   2   6    0.29    0.08 
  10  -2   6    1.44    0.11 
 -10  -2  -6    1.11    0.16 
  10  -2   6    1.59    0.19 
  10  -2   6    1.46    0.20 
  10   2   6    1.55    0.15 
  11  -2   6    0.00    0.09 
  11  -2   6    0.08    0.05 
 -11  -2  -6    0.01    0.08 
  11  -2   6    0.12    0.11 
  12  -2   6    0.20    0.13 
  12  -2   6    0.11    0.06 
  12  -2   6    0.13    0.10 
 -12  -2  -6    0.05    0.09 
  13  -2   6    4.12    0.22 
 -13  -2  -6    3.97    0.31 
  13  -2   6    4.89    0.38 
 -14  -2  -6    1.60    0.23 
  14  -2   6    1.91    0.15 
  14  -2   6    1.63    0.25 
  15  -2   6    1.84    0.28 
  15  -2   6    1.90    0.15 
  16  -2   6    1.35    0.13 
  16   2   6    1.43    0.19 
 -19  -3   6   -0.03    0.12 
  19   3  -6    0.09    0.09 
 -18  -3   6    7.25    0.47 
  18  -3  -6    7.46    0.46 
  18   3  -6    7.60    0.38 
 -17  -3   6    3.77    0.33 
  17  -3  -6    3.39    0.34 
  17  -3  -6    3.00    0.29 
  17   3  -6    2.92    0.22 
  16  -3  -6    0.41    0.14 
 -16  -3   6    0.37    0.14 
  16  -3  -6    0.44    0.16 
  16   3  -6    0.37    0.10 
  15  -3  -6    0.55    0.14 
  15  -3  -6    0.38    0.14 
  15   3  -6    0.60    0.11 
  14  -3  -6    1.88    0.20 
  14  -3  -6    2.06    0.25 
  14   3  -6    1.57    0.15 
  13  -3  -6    0.17    0.09 
  13  -3  -6    0.34    0.13 
  13   3  -6    0.26    0.08 
  12  -3  -6    7.43    0.41 
  12  -3  -6    6.64    0.34 
  12   3  -6    6.57    0.30 
  11  -3  -6    7.00    0.34 
  11  -3  -6    6.50    0.38 
  11   3  -6    6.61    0.31 
  11   3  -6    6.29    0.29 
  10  -3  -6   44.03    1.14 
  10  -3  -6   42.45    1.25 
  10   3  -6   44.18    1.21 
   9  -3  -6   13.08    0.46 
   9  -3  -6   13.75    0.54 
   9   3  -6   12.82    0.48 
   8  -3  -6   15.33    0.58 
  -8  -3   6   16.77    0.55 
   8  -3  -6   16.57    0.51 
   8   3  -6   16.61    0.58 
  -7  -3   6    1.27    0.13 
   7  -3  -6    1.23    0.15 
   7  -3  -6    1.22    0.11 
   7   3  -6    1.39    0.15 
  -6  -3   6    0.03    0.05 
   6  -3  -6    0.05    0.04 
  -6  -3   6    0.05    0.04 
   6  -3  -6    0.13    0.07 
   6   3  -6    0.08    0.06 
  -5  -3   6    0.53    0.07 
  -5  -3   6    0.64    0.09 
   5  -3  -6    0.42    0.07 
   5  -3  -6    0.60    0.10 
   5  -3  -6    0.73    0.09 
   5   3  -6    0.61    0.12 
  -4  -3   6    0.35    0.06 
   4  -3  -6    0.51    0.09 
  -4  -3   6    0.31    0.07 
   4  -3  -6    0.28    0.06 
   4  -3  -6    0.37    0.07 
   4   3  -6    0.32    0.10 
  -3  -3   6   34.52    0.86 
   3  -3  -6   33.73    0.91 
   3  -3  -6   33.74    0.83 
  -3  -3   6   33.85    0.83 
   3  -3  -6   34.29    0.81 
   3   3  -6   32.01    1.05 
   2  -3  -6   60.50    1.32 
   2  -3  -6   58.70    1.34 
   2  -3  -6   59.36    1.43 
  -2  -3   6   57.64    1.34 
  -2  -3   6   58.61    1.37 
   2   3  -6   56.61    1.65 
  -1  -3   6    3.36    0.17 
   1  -3  -6    3.58    0.16 
   1  -3  -6    3.34    0.18 
  -1  -3   6    3.55    0.18 
   1  -3  -6    3.55    0.17 
   1   3  -6    3.26    0.26 
   0  -3   6    9.32    0.32 
   0  -3   6   10.07    0.34 
   0  -3  -6    9.93    0.31 
   0  -3  -6   10.20    0.32 
   0   3  -6    9.50    0.48 
   1  -3   6    1.63    0.13 
   1  -3   6    1.66    0.12 
  -1  -3  -6    1.91    0.12 
  -1  -3  -6    1.77    0.12 
  -1   3  -6    1.74    0.21 
   1   3   6    1.71    0.12 
  -2  -3  -6    9.14    0.31 
   2  -3   6    9.03    0.32 
   2  -3   6    8.12    0.33 
  -2  -3  -6    9.20    0.32 
  -2   3  -6    8.88    0.48 
   2   3   6    8.72    0.28 
  -3  -3  -6   21.39    0.60 
  -3  -3  -6   20.91    0.59 
   3  -3   6   20.99    0.62 
  -3   3  -6   20.55    0.82 
   4  -3   6   16.83    0.53 
  -4  -3  -6   15.75    0.49 
  -4   3  -6   15.78    0.70 
   5  -3   6    4.43    0.32 
  -5  -3  -6    5.13    0.25 
   5  -3   6    4.77    0.26 
  -5   3  -6    5.49    0.39 
   6  -3   6    8.15    0.37 
   6  -3   6    8.49    0.45 
  -6  -3  -6    7.93    0.34 
  -6   3  -6    7.45    0.48 
   7  -3   6    0.16    0.08 
   7  -3   6    0.19    0.11 
  -7  -3  -6    0.15    0.07 
  -7   3  -6    0.24    0.13 
   8  -3   6    0.01    0.07 
   8  -3   6   -0.08    0.08 
  -8  -3  -6    0.01    0.06 
  -8   3  -6   -0.02    0.09 
   9  -3   6    0.06    0.08 
  -9  -3  -6    0.02    0.07 
   9  -3   6   -0.07    0.08 
  -9   3  -6    0.05    0.11 
 -10  -3  -6    3.10    0.25 
  10  -3   6    3.33    0.27 
  10  -3   6    3.19    0.31 
 -11  -3  -6    7.12    0.39 
  11  -3   6    6.75    0.46 
  11  -3   6    7.01    0.42 
  12  -3   6    6.30    0.46 
  12  -3   6    7.55    0.44 
 -12  -3  -6    6.61    0.39 
  13  -3   6    0.63    0.20 
 -13  -3  -6    0.51    0.15 
  13  -3   6    0.72    0.18 
  14  -3   6   -0.08    0.11 
 -14  -3  -6   -0.02    0.10 
  14  -3   6    0.24    0.16 
  15  -3   6    0.05    0.15 
 -15  -3  -6    0.11    0.12 
 -18  -4   6    0.24    0.15 
  18  -4  -6    0.12    0.12 
  17  -4  -6    0.50    0.17 
 -17  -4   6    0.27    0.14 
  16  -4  -6    3.17    0.37 
 -16  -4   6    2.86    0.29 
  16  -4  -6    3.68    0.31 
  16   4  -6    3.45    0.24 
  15  -4  -6    2.06    0.29 
  15  -4  -6    1.58    0.21 
  15   4  -6    1.75    0.17 
  14  -4  -6    5.08    0.33 
  14  -4  -6    6.32    0.45 
  14   4  -6    5.79    0.30 
  13  -4  -6   -0.01    0.09 
  13  -4  -6   -0.01    0.08 
  13   4  -6    0.07    0.07 
  13   4  -6    0.16    0.08 
  12  -4  -6   14.06    0.66 
  12  -4  -6   13.29    0.53 
  12   4  -6   14.50    0.54 
  11  -4  -6   22.28    0.72 
  11  -4  -6   22.02    0.86 
  11   4  -6   23.49    0.76 
  10  -4  -6   19.68    0.77 
  10  -4  -6   19.16    0.63 
  10   4  -6   19.38    0.68 
   9  -4  -6    9.32    0.49 
   9  -4  -6   10.39    0.39 
   9   4  -6   10.25    0.45 
   8  -4  -6    4.22    0.22 
   8  -4  -6    3.84    0.29 
  -8  -4   6    3.94    0.24 
   8   4  -6    3.79    0.27 
  -7  -4   6    2.89    0.20 
   7  -4  -6    2.94    0.18 
   7  -4  -6    2.87    0.25 
   7   4  -6    2.89    0.24 
   6  -4  -6   17.87    0.53 
   6  -4  -6   19.01    0.68 
  -6  -4   6   18.52    0.58 
   6   4  -6   19.13    0.71 
   5  -4  -6    3.99    0.27 
   5  -4  -6    4.15    0.19 
  -5  -4   6    4.19    0.23 
   5   4  -6    4.47    0.32 
   4  -4  -6   37.56    0.89 
   4  -4  -6   38.20    0.92 
  -4  -4   6   36.60    0.95 
   4  -4  -6   36.37    1.06 
   4   4  -6   37.36    1.20 
  -3  -4   6   46.71    1.16 
   3  -4  -6   47.05    1.27 
   3  -4  -6   48.38    1.12 
   3  -4  -6   47.45    1.10 
   3   4  -6   47.70    1.46 
   2  -4  -6   35.02    0.83 
   2  -4  -6   35.13    0.85 
  -2  -4   6   35.36    0.89 
   2  -4  -6   35.27    0.98 
   2   4  -6   33.86    1.17 
   1  -4  -6   26.57    0.67 
  -1  -4   6   26.34    0.71 
   1  -4  -6   26.40    0.65 
   1   4  -6   26.40    0.98 
   0  -4   6    1.32    0.12 
   0  -4  -6    1.06    0.09 
   0  -4  -6    1.25    0.10 
   0   4  -6    0.91    0.19 
   0   4   6    1.08    0.14 
  -1  -4  -6    2.79    0.16 
   1  -4   6    2.45    0.17 
  -1  -4  -6    2.72    0.14 
   1   4   6    2.48    0.19 
  -1   4  -6    2.91    0.30 
  -2  -4  -6   -0.09    0.03 
   2  -4   6   -0.03    0.05 
  -2   4  -6   -0.08    0.09 
   3  -4   6    0.88    0.12 
  -3  -4  -6    1.08    0.11 
  -3   4  -6    0.81    0.19 
  -4  -4  -6    6.17    0.27 
   4  -4   6    5.68    0.29 
  -4   4  -6    6.60    0.46 
   5  -4   6   12.59    0.48 
  -5  -4  -6   12.73    0.44 
  -5   4  -6   12.26    0.67 
  -6  -4  -6    5.83    0.29 
   6  -4   6    5.75    0.31 
  -6   4  -6    6.09    0.47 
  -7  -4  -6    1.99    0.17 
   7  -4   6    1.89    0.26 
   7  -4   6    1.91    0.19 
  -7   4  -6    1.94    0.29 
   8  -4   6    0.26    0.11 
  -8  -4  -6    0.38    0.10 
   8  -4   6    0.63    0.19 
  -8   4  -6    0.22    0.16 
   9  -4   6    7.55    0.49 
  -9  -4  -6    6.93    0.36 
   9  -4   6    6.97    0.39 
  -9   4  -6    7.03    0.54 
 -10  -4  -6    6.88    0.38 
  10  -4   6    7.19    0.41 
  10  -4   6    6.21    0.47 
 -10   4  -6    6.47    0.53 
  11  -4   6    2.25    0.25 
  11  -4   6    1.87    0.29 
 -11  -4  -6    2.10    0.23 
 -11   4  -6    1.77    0.32 
  12  -4   6    1.19    0.21 
  12  -4   6    1.27    0.27 
 -12  -4  -6    1.51    0.21 
 -13  -4  -6    0.07    0.10 
  13  -4   6   -0.02    0.11 
  13  -4   6    0.00    0.13 
  15  -5  -6    0.37    0.14 
  14  -5  -6    0.42    0.14 
  14  -5  -6    0.36    0.18 
  14   5  -6    0.62    0.12 
  13  -5  -6    0.18    0.15 
  13  -5  -6    0.17    0.11 
  13   5  -6    0.32    0.11 
  12  -5  -6   -0.06    0.07 
  12  -5  -6    0.04    0.11 
  12   5  -6    0.09    0.09 
  11  -5  -6    1.64    0.26 
  11  -5  -6    1.44    0.17 
  11   5  -6    1.85    0.20 
  10  -5  -6    1.62    0.25 
  10  -5  -6    1.52    0.17 
  10   5  -6    1.71    0.20 
   9  -5  -6    4.18    0.36 
   9  -5  -6    4.13    0.25 
   9   5  -6    3.87    0.30 
   8  -5  -6    6.63    0.30 
   8  -5  -6    6.80    0.43 
  -8  -5   6    6.57    0.33 
   8   5  -6    6.40    0.39 
  -7  -5   6    8.28    0.36 
   7  -5  -6    8.35    0.47 
   7  -5  -6    8.80    0.33 
   7   5  -6    8.16    0.46 
  -6  -5   6    1.35    0.14 
   6  -5  -6    1.32    0.12 
   6  -5  -6    1.22    0.19 
   6   5  -6    1.05    0.19 
   5  -5  -6    0.35    0.07 
  -5  -5   6    0.28    0.08 
   5  -5  -6    0.53    0.15 
   5   5  -6    0.38    0.15 
  -4  -5   6    0.39    0.09 
   4  -5  -6    0.41    0.13 
   4  -5  -6    0.37    0.06 
   4   5  -6    0.43    0.15 
   3  -5  -6    1.11    0.09 
  -3  -5   6    1.15    0.12 
   3   5  -6    1.12    0.21 
   2  -5  -6    0.88    0.08 
  -2  -5   6    0.71    0.10 
   2   5  -6    0.88    0.20 
  -2   5   6    1.10    0.18 
   1  -5  -6    6.10    0.22 
  -1  -5   6    5.73    0.27 
  -1   5   6    5.54    0.36 
   1   5  -6    5.87    0.44 
   0  -5  -6    5.62    0.22 
   0  -5   6    5.31    0.26 
   0   5  -6    5.16    0.42 
   1  -5   6   18.23    0.57 
  -1  -5  -6   18.69    0.51 
  -1   5  -6   19.48    0.88 
  -2  -5  -6    0.20    0.06 
   2  -5   6    0.14    0.07 
  -2   5  -6    0.09    0.12 
   3  -5   6    2.01    0.17 
  -3  -5  -6    1.77    0.14 
  -3   5  -6    1.90    0.30 
  -4  -5  -6    0.01    0.05 
   4  -5   6   -0.02    0.06 
  -4   5  -6   -0.04    0.10 
  -5  -5  -6    0.16    0.07 
   5  -5   6    0.08    0.08 
  -5   5  -6    0.16    0.15 
  -6  -5  -6    0.11    0.08 
   6  -5   6    0.19    0.09 
  -6   5  -6    0.41    0.18 
  -7  -5  -6    0.92    0.14 
   7  -5   6    0.74    0.15 
  -7   5  -6    1.07    0.28 
   8  -5   6    0.03    0.09 
  -8  -5  -6    0.21    0.09 
   9  -5   6    2.11    0.23 
  -9  -5  -6    1.56    0.18 
  10  -5   6    3.89    0.31 
 -10  -5  -6    2.83    0.25 
  11  -5   6    0.62    0.17 
 -11  -5  -6    0.47    0.14 
  12  -6  -6    3.03    0.25 
  11  -6  -6    0.28    0.11 
  11  -6  -6    0.16    0.16 
  10  -6  -6    0.45    0.11 
  10  -6  -6    0.29    0.18 
   9  -6  -6    1.04    0.14 
   9  -6  -6    1.18    0.24 
   9   6  -6    1.20    0.20 
   8  -6  -6    0.14    0.14 
   8  -6  -6    0.16    0.08 
   8   6  -6    0.09    0.11 
   7  -6  -6    0.28    0.14 
   7  -6  -6    0.03    0.06 
  -7  -6   6    0.01    0.07 
   7   6  -6    0.25    0.14 
   6  -6  -6    2.20    0.16 
   6  -6  -6    2.01    0.26 
  -6  -6   6    2.01    0.18 
   6   6  -6    2.33    0.28 
  -5  -6   6    3.17    0.22 
   5  -6  -6    3.13    0.17 
  -5   6   6    3.01    0.34 
   5   6  -6    2.96    0.32 
   4  -6  -6    4.70    0.21 
  -4  -6   6    4.83    0.26 
   4   6  -6    4.88    0.41 
  -4   6   6    4.56    0.39 
  -3  -6   6    3.52    0.22 
   3  -6  -6    3.17    0.16 
   3   6  -6    3.60    0.36 
  -2  -6   6    1.82    0.16 
   2  -6  -6    1.68    0.12 
   2   6  -6    2.08    0.31 
  -1  -6   6    5.68    0.28 
   1  -6  -6    5.82    0.22 
   1   6  -6    5.36    0.46 
   0  -6  -6    0.57    0.08 
   0  -6   6    0.72    0.11 
   0   6  -6    0.57    0.20 
   1  -6   6    0.29    0.09 
  -1  -6  -6    0.28    0.07 
  -1   6  -6    0.07    0.13 
   2  -6   6    0.20    0.09 
  -2  -6  -6    0.19    0.06 
   3  -6   6    1.33    0.16 
  -3  -6  -6    1.15    0.12 
   4  -6   6    0.32    0.10 
  -4  -6  -6    0.18    0.07 
  -5  -6  -6    1.04    0.13 
   5  -6   6    0.99    0.15 
   6  -6   6    0.38    0.12 
  -6  -6  -6    0.27    0.09 
   7  -6   6    2.74    0.25 
  -7  -6  -6    3.08    0.23 
   8  -6   6    0.78    0.16 
  -8  -6  -6    0.73    0.14 
   7  -7  -6    2.32    0.18 
   6  -7  -6    2.68    0.18 
  -6  -7   6    2.81    0.21 
   5  -7  -6    1.11    0.11 
  -5  -7   6    1.04    0.14 
  -4  -7   6    0.04    0.08 
   4  -7  -6    0.01    0.05 
   3  -7  -6    0.29    0.07 
  -3  -7   6    0.36    0.10 
  -2  -7   6    1.53    0.16 
   2  -7  -6    1.59    0.11 
   1  -7  -6    0.40    0.07 
  -1  -7   6    0.70    0.12 
   0  -7  -6    0.27    0.07 
   0  -7   6    0.29    0.11 
  -1  -7  -6    1.39    0.11 
   1  -7   6    1.46    0.16 
   2  -7   6    2.17    0.20 
  -2  -7  -6    2.12    0.15 
   3  -7   6    1.12    0.16 
  -3  -7  -6    0.92    0.11 
 -21   0   7   -0.09    0.09 
  21   0  -7   -0.16    0.07 
 -20   0   7   -0.05    0.08 
  20   0  -7    0.02    0.08 
  20   0  -7   -0.02    0.09 
  19   0  -7   -0.03    0.09 
  19   0  -7    0.01    0.07 
  18   0  -7    0.01    0.08 
  18   0  -7    0.00    0.06 
  17   0  -7   -0.01    0.05 
  17   0  -7   -0.03    0.07 
  16   0  -7    0.02    0.06 
  16   0  -7    0.02    0.06 
  15   0  -7   -0.10    0.04 
  15   0  -7   -0.02    0.05 
  14   0  -7   -0.09    0.05 
  14   0  -7   -0.01    0.05 
  13   0  -7   -0.13    0.07 
  13   0  -7   -0.14    0.05 
  13   0  -7    0.05    0.05 
  12   0  -7    0.01    0.05 
  12   0  -7    0.03    0.05 
  12   0  -7   -0.02    0.06 
  11   0  -7   -0.04    0.03 
  11   0  -7   -0.05    0.03 
  11   0  -7   -0.02    0.05 
  10   0  -7   -0.01    0.05 
  10   0  -7   -0.08    0.02 
  10   0  -7   -0.03    0.03 
   9   0  -7   -0.03    0.04 
  -9   0   7   -0.03    0.03 
   9   0  -7    0.00    0.03 
   9   0  -7    0.05    0.04 
   8   0  -7    0.01    0.03 
  -8   0   7    0.00    0.03 
   8   0  -7   -0.04    0.03 
   8   0  -7    0.01    0.03 
   7   0  -7    0.28    0.06 
   7   0  -7    0.22    0.04 
   7   0  -7    0.19    0.04 
  -6   0   7   -0.04    0.04 
   6   0  -7   -0.01    0.03 
   6   0  -7   -0.01    0.03 
   6   0  -7   -0.04    0.03 
  -6   0   7    0.00    0.03 
   5   0  -7   -0.03    0.02 
  -5   0   7    0.08    0.03 
  -5   0   7   -0.04    0.03 
   5   0  -7   -0.01    0.02 
   5   0  -7   -0.02    0.03 
  -4   0   7    0.00    0.02 
   4   0  -7   -0.02    0.02 
   4   0  -7   -0.04    0.02 
   4   0  -7    0.03    0.02 
  -4   0   7    0.02    0.04 
  -3   0   7    0.05    0.03 
   3   0  -7   -0.02    0.03 
  -3   0   7    0.03    0.04 
  -3   0   7    0.01    0.02 
   3   0  -7   -0.02    0.02 
  -2   0   7    0.00    0.04 
   2   0  -7    0.00    0.02 
  -2   0   7    0.01    0.03 
   2   0  -7    0.02    0.03 
  -2   0   7   -0.01    0.02 
  -1   0   7   -0.01    0.03 
  -1   0   7   -0.02    0.02 
   1   0  -7    0.00    0.02 
  -1   0   7   -0.01    0.03 
   1   0  -7   -0.02    0.03 
   0   0   7    0.14    0.05 
   0   0  -7    0.24    0.05 
   1   0   7    0.00    0.03 
  -1   0  -7   -0.03    0.03 
   1   0   7    0.02    0.04 
   1   0   7   -0.02    0.04 
  -1   0  -7    0.02    0.03 
  -2   0  -7   -0.05    0.04 
  -2   0  -7   -0.04    0.03 
   2   0   7   -0.08    0.04 
   2   0   7   -0.07    0.02 
   3   0   7   -0.01    0.04 
  -3   0  -7    0.00    0.04 
   3   0   7    0.00    0.03 
  -3   0  -7    0.02    0.04 
  -4   0  -7   -0.05    0.04 
   4   0   7   -0.01    0.03 
  -4   0  -7    0.06    0.05 
   4   0   7   -0.03    0.04 
   5   0   7    0.03    0.04 
   5   0   7   -0.03    0.03 
  -5   0  -7    0.03    0.04 
  -5   0  -7   -0.05    0.04 
   5   0   7   -0.07    0.04 
  -6   0  -7    0.01    0.05 
   6   0   7   -0.07    0.03 
   6   0   7   -0.03    0.04 
   6   0   7   -0.10    0.05 
  -6   0  -7   -0.06    0.04 
  -7   0  -7    0.11    0.07 
   7   0   7    0.16    0.08 
   7   0   7    0.05    0.05 
  -7   0  -7    0.03    0.07 
   7   0   7    0.16    0.07 
   8   0   7   -0.07    0.07 
   8   0   7   -0.04    0.05 
   8   0   7   -0.04    0.05 
  -8   0  -7   -0.10    0.05 
   9   0   7    0.01    0.05 
  -9   0  -7   -0.02    0.07 
   9   0   7   -0.09    0.05 
  10   0   7   -0.07    0.05 
  11   0   7    0.00    0.06 
  12   0   7    0.00    0.07 
  13   0   7    0.01    0.06 
  14   0   7   -0.08    0.06 
  15   0   7   -0.03    0.08 
  16   0   7   -0.04    0.08 
 -21  -1   7    5.10    0.30 
  21  -1  -7    4.73    0.28 
  21   1  -7    4.75    0.33 
  20  -1  -7    0.04    0.08 
 -20  -1   7   -0.08    0.08 
  20   1  -7    0.09    0.11 
  20   1  -7   -0.04    0.08 
  19  -1  -7    2.65    0.29 
  19  -1  -7    2.74    0.21 
 -19  -1   7    2.33    0.20 
  19   1  -7    3.09    0.26 
  19   1  -7    2.66    0.23 
  18  -1  -7    0.74    0.17 
 -18  -1   7    0.60    0.12 
  18  -1  -7    0.51    0.10 
  18   1  -7    0.65    0.13 
  18   1  -7    0.59    0.12 
  17  -1  -7    0.05    0.06 
  17  -1  -7    0.13    0.10 
 -17  -1   7    0.03    0.07 
  17   1  -7    0.03    0.07 
  17   1  -7    0.06    0.07 
  16  -1  -7    0.03    0.07 
 -16  -1   7   -0.07    0.05 
  16  -1  -7   -0.01    0.05 
  16   1  -7   -0.04    0.05 
  16   1  -7   -0.03    0.06 
  15  -1  -7    3.05    0.24 
 -15  -1   7    2.31    0.19 
  15  -1  -7    2.65    0.25 
  15  -1  -7    2.44    0.18 
  15   1  -7    2.86    0.21 
  15   1  -7    2.80    0.20 
  14  -1  -7    6.89    0.36 
  14  -1  -7    7.00    0.38 
  14  -1  -7    7.67    0.31 
 -14  -1   7    7.51    0.32 
  14   1  -7    6.93    0.33 
  14   1  -7    7.09    0.32 
  13  -1  -7   17.91    0.63 
 -13  -1   7   19.90    0.59 
  13  -1  -7   19.51    0.67 
  13  -1  -7   19.21    0.57 
  13   1  -7   19.28    0.59 
  13   1  -7   19.14    0.60 
  12  -1  -7    0.00    0.07 
  12  -1  -7    0.10    0.06 
 -12  -1   7   -0.05    0.04 
  12  -1  -7    0.01    0.05 
  12   1  -7    0.03    0.05 
  12   1  -7   -0.03    0.05 
  11  -1  -7   12.02    0.47 
  11  -1  -7   14.36    0.42 
  11  -1  -7   13.35    0.47 
 -11  -1   7   12.97    0.42 
  11   1  -7   13.46    0.44 
  11   1  -7   13.18    0.47 
  11   1  -7   13.22    0.43 
  10  -1  -7    1.93    0.16 
 -10  -1   7    1.73    0.13 
  10  -1  -7    1.85    0.12 
  10  -1  -7    1.56    0.14 
  10   1  -7    1.46    0.12 
  10   1  -7    1.91    0.13 
  10   1  -7    1.69    0.15 
  -9  -1   7    1.60    0.12 
   9  -1  -7    1.49    0.13 
   9  -1  -7    1.53    0.14 
   9  -1  -7    1.37    0.10 
   9   1  -7    1.62    0.12 
   9   1  -7    1.74    0.14 
   9   1  -7    1.56    0.12 
  -8  -1   7    6.26    0.24 
   8  -1  -7    6.81    0.26 
  -8  -1   7    6.18    0.30 
   8  -1  -7    6.11    0.27 
   8   1  -7    6.17    0.27 
   8   1  -7    6.57    0.27 
   8   1  -7    6.76    0.25 
   8   1  -7    7.05    0.26 
   7  -1  -7    0.24    0.05 
  -7  -1   7    0.20    0.07 
  -7  -1   7    0.23    0.05 
   7  -1  -7    0.16    0.06 
   7   1  -7    0.18    0.06 
   7   1  -7    0.21    0.05 
   7   1  -7    0.23    0.06 
   6  -1  -7   11.52    0.35 
   6  -1  -7   11.51    0.37 
  -6  -1   7   10.90    0.39 
  -6  -1   7   11.44    0.34 
   6   1  -7   11.47    0.34 
   6   1  -7   11.37    0.39 
   6   1  -7   11.06    0.36 
   5  -1  -7   11.07    0.36 
  -5  -1   7   10.68    0.38 
   5  -1  -7   11.45    0.33 
  -5  -1   7   11.36    0.33 
   5   1  -7   11.01    0.38 
   5   1  -7   11.53    0.34 
   5   1  -7   11.66    0.36 
  -5   1   7   10.95    0.37 
   4  -1  -7    1.20    0.08 
   4  -1  -7    1.08    0.09 
  -4  -1   7    1.09    0.11 
  -4  -1   7    1.28    0.08 
  -4   1   7    1.04    0.10 
  -4   1   7    1.31    0.09 
   4   1  -7    1.10    0.08 
   4   1  -7    1.41    0.10 
   4   1  -7    1.11    0.11 
  -3  -1   7    6.97    0.22 
   3  -1  -7    7.09    0.26 
   3  -1  -7    7.04    0.21 
  -3  -1   7    7.03    0.28 
   3   1  -7    7.49    0.26 
   3   1  -7    6.83    0.29 
   3   1  -7    7.18    0.23 
  -3   1   7    7.08    0.27 
  -3   1   7    7.60    0.24 
  -3   1   7    6.84    0.23 
   2  -1  -7    4.99    0.21 
   2  -1  -7    5.09    0.16 
  -2  -1   7    4.92    0.23 
  -2  -1   7    4.95    0.18 
  -2   1   7    5.02    0.22 
   2   1  -7    5.38    0.25 
  -2   1   7    5.01    0.19 
  -2   1   7    5.47    0.19 
   2   1  -7    5.30    0.21 
  -1  -1   7    3.08    0.17 
   1  -1  -7    2.70    0.15 
  -1  -1   7    2.97    0.13 
   1  -1  -7    3.03    0.10 
  -1   1   7    3.11    0.13 
  -1   1   7    3.25    0.17 
   1   1  -7    2.71    0.18 
  -1   1   7    2.74    0.13 
   1   1  -7    2.89    0.15 
   0  -1   7    7.82    0.30 
   0  -1  -7    8.02    0.20 
   0  -1  -7    8.06    0.24 
   0  -1  -7    8.20    0.28 
   0  -1   7    8.06    0.25 
   0   1   7    7.90    0.26 
   0   1   7    8.15    0.25 
   0   1  -7    7.64    0.33 
   0   1   7    7.79    0.29 
   0   1  -7    7.69    0.28 
   1  -1   7  120.95    2.70 
  -1  -1  -7  120.30    2.70 
   1  -1   7  121.43    2.70 
  -1  -1  -7  122.96    2.67 
  -1   1  -7  118.20    2.99 
   1   1   7  123.18    2.68 
  -1   1  -7  122.80    2.66 
   1   1   7  124.32    2.72 
   1   1   7  120.59    2.86 
  -2  -1  -7   59.76    1.38 
   2  -1   7   57.21    1.40 
   2  -1   7   56.39    1.35 
  -2   1  -7   60.28    1.38 
  -2   1  -7   57.18    1.56 
   2   1   7   59.58    1.39 
   2   1   7   59.78    1.38 
   3  -1   7   20.77    0.57 
  -3  -1  -7   22.17    0.62 
   3  -1   7   21.63    0.64 
  -3   1  -7   21.63    0.72 
   3   1   7   22.26    0.59 
   3   1   7   22.60    0.63 
  -3   1  -7   22.32    0.62 
  -4  -1  -7    0.73    0.04 
   4  -1   7    0.74    0.11 
  -4  -1  -7    0.76    0.10 
   4  -1   7    0.72    0.08 
   4   1   7    0.60    0.08 
   4   1   7    0.81    0.11 
  -4   1  -7    0.67    0.10 
  -4   1  -7    0.74    0.12 
  -5  -1  -7   -0.01    0.05 
   5  -1   7    0.08    0.06 
  -5  -1  -7   -0.02    0.02 
   5  -1   7    0.01    0.04 
   5  -1   7    0.01    0.06 
  -5  -1  -7    0.03    0.02 
   5   1   7    0.00    0.05 
  -5   1  -7    0.15    0.07 
   5   1   7    0.01    0.04 
  -5   1  -7    0.06    0.06 
   6  -1   7    0.02    0.05 
  -6  -1  -7    0.02    0.03 
  -6  -1  -7   -0.04    0.05 
   6  -1   7    0.03    0.06 
   6  -1   7    0.03    0.04 
  -6   1  -7    0.02    0.07 
  -6   1  -7    0.06    0.06 
   6   1   7    0.03    0.04 
   6   1   7    0.03    0.04 
  -7  -1  -7    2.66    0.20 
  -7  -1  -7    2.35    0.14 
   7  -1   7    2.46    0.16 
   7  -1   7    2.24    0.20 
   7  -1   7    2.17    0.19 
  -7   1  -7    2.58    0.23 
   7   1   7    2.44    0.17 
   7   1   7    2.51    0.15 
   8  -1   7    2.36    0.21 
   8  -1   7    2.42    0.21 
  -8  -1  -7    1.86    0.19 
   8  -1   7    1.86    0.15 
   8   1   7    2.07    0.16 
   9  -1   7   33.69    1.01 
   9  -1   7   33.32    0.90 
  -9  -1  -7   32.61    0.97 
   9  -1   7   34.13    1.02 
   9   1   7   34.25    0.93 
 -10  -1  -7    9.04    0.44 
  10  -1   7   10.03    0.38 
  10  -1   7    9.75    0.46 
  10  -1   7    9.60    0.47 
  10   1   7   10.05    0.41 
 -11  -1  -7    0.29    0.11 
  11  -1   7    0.12    0.07 
  11  -1   7    0.25    0.12 
  11   1   7    0.19    0.08 
  12  -1   7    0.09    0.07 
  12  -1   7    0.07    0.11 
 -12  -1  -7    0.02    0.10 
  12   1   7    0.14    0.08 
  13  -1   7    0.10    0.07 
  13   1   7    0.08    0.08 
  14  -1   7    0.09    0.08 
  14   1   7   -0.06    0.07 
  15  -1   7    0.60    0.12 
  15   1   7    0.49    0.13 
  16  -1   7    0.51    0.12 
  16   1   7    0.64    0.15 
  20   2  -7    0.06    0.09 
  20   2  -7    0.05    0.10 
  19  -2  -7    0.83    0.21 
 -19  -2   7    1.02    0.10 
  19   2  -7    1.18    0.17 
  19   2  -7    0.90    0.16 
 -18  -2   7    0.09    0.06 
  18  -2  -7    0.25    0.14 
  18   2  -7    0.13    0.10 
  18   2  -7    0.28    0.10 
 -17  -2   7    0.20    0.12 
 -17  -2   7    0.23    0.07 
  17  -2  -7    0.47    0.15 
  17  -2  -7    0.15    0.12 
  17   2  -7    0.29    0.09 
  17   2  -7    0.27    0.10 
  16  -2  -7    0.88    0.17 
  16  -2  -7    0.95    0.18 
 -16  -2   7    1.14    0.10 
  16   2  -7    1.03    0.14 
  16   2  -7    1.19    0.15 
 -15  -2   7    0.08    0.05 
  15  -2  -7    0.16    0.10 
  15  -2  -7    0.21    0.11 
  15   2  -7    0.16    0.08 
  15   2  -7    0.08    0.06 
 -14  -2   7    0.88    0.09 
  14  -2  -7    0.75    0.15 
  14  -2  -7    0.67    0.14 
  14   2  -7    1.12    0.13 
  14   2  -7    1.13    0.14 
  13  -2  -7    0.06    0.08 
 -13  -2   7   -0.06    0.03 
  13  -2  -7    0.01    0.07 
  13   2  -7    0.00    0.05 
  13   2  -7   -0.06    0.04 
  12  -2  -7    4.15    0.26 
  12  -2  -7    3.81    0.26 
 -12  -2   7    4.09    0.17 
  12   2  -7    3.85    0.22 
  12   2  -7    3.68    0.21 
  11  -2  -7    1.58    0.16 
 -11  -2   7    1.34    0.09 
  11  -2  -7    1.43    0.16 
  11   2  -7    1.62    0.14 
  11   2  -7    1.57    0.14 
 -10  -2   7    0.61    0.06 
  10  -2  -7    0.84    0.12 
  10  -2  -7    0.62    0.11 
  10   2  -7    0.66    0.09 
  10   2  -7    0.79    0.11 
  10   2  -7    0.89    0.11 
   9  -2  -7   15.28    0.54 
  -9  -2   7   15.82    0.56 
  -9  -2   7   16.10    0.40 
   9  -2  -7   16.31    0.53 
  -9  -2   7   16.38    0.40 
   9   2  -7   16.79    0.54 
   9   2  -7   17.02    0.49 
  -8  -2   7    3.49    0.22 
  -8  -2   7    3.62    0.11 
  -8  -2   7    3.68    0.11 
   8  -2  -7    3.71    0.20 
   8  -2  -7    3.36    0.21 
   8   2  -7    3.79    0.21 
   8   2  -7    3.35    0.17 
  -7  -2   7    6.85    0.30 
   7  -2  -7    6.53    0.28 
   7  -2  -7    6.88    0.28 
   7   2  -7    6.54    0.24 
   7   2  -7    6.85    0.30 
   6  -2  -7   -0.05    0.04 
   6  -2  -7    0.00    0.03 
   6  -2  -7    0.01    0.04 
  -6  -2   7   -0.06    0.04 
   6   2  -7    0.07    0.05 
   6   2  -7    0.02    0.03 
   5  -2  -7    0.08    0.05 
   5  -2  -7    0.07    0.04 
  -5  -2   7    0.10    0.06 
   5  -2  -7    0.13    0.05 
   5   2  -7    0.05    0.03 
   5   2  -7    0.16    0.06 
   4  -2  -7   11.53    0.36 
  -4  -2   7   11.57    0.40 
   4  -2  -7   11.36    0.36 
   4   2  -7   11.48    0.45 
   4   2  -7   11.24    0.33 
  -3  -2   7    0.62    0.08 
   3  -2  -7    0.33    0.07 
   3  -2  -7    0.92    0.08 
  -3  -2   7    0.71    0.10 
   3  -2  -7    0.67    0.08 
   3   2  -7    1.02    0.13 
   3   2  -7    0.68    0.06 
   2  -2  -7    6.97    0.25 
   2  -2  -7    7.02    0.23 
  -2  -2   7    6.89    0.28 
   2  -2  -7    5.71    0.25 
  -2  -2   7    6.91    0.26 
   2   2  -7    7.02    0.35 
   2   2  -7    6.98    0.23 
   1  -2  -7  121.67    2.66 
  -1  -2   7  121.40    2.70 
   1  -2  -7  122.83    2.70 
   1   2  -7  120.96    2.71 
  -1   2   7  126.81    2.67 
   1   2  -7  118.56    3.06 
   0  -2  -7   62.95    1.42 
   0  -2  -7   61.25    1.39 
   0  -2   7   63.33    1.46 
   0   2  -7   59.98    1.69 
   0   2   7   61.74    1.41 
   1  -2   7   33.61    0.88 
   1  -2   7   34.02    0.75 
  -1  -2  -7   33.60    0.84 
   1   2   7   33.75    0.82 
   1   2   7   34.34    0.81 
  -1   2  -7   32.10    1.04 
   2  -2   7    0.12    0.02 
   2  -2   7    0.12    0.02 
   2  -2   7    0.36    0.08 
  -2  -2  -7    0.09    0.05 
  -2  -2  -7    0.17    0.05 
   2   2   7    0.15    0.04 
  -2   2  -7    0.17    0.05 
  -2   2  -7    0.09    0.07 
   3  -2   7    8.57    0.24 
   3  -2   7    9.05    0.36 
   3  -2   7    9.03    0.25 
  -3  -2  -7    9.67    0.34 
  -3   2  -7    8.41    0.32 
  -3   2  -7    9.01    0.45 
   3   2   7    9.07    0.30 
   4  -2   7    4.64    0.25 
   4  -2   7    4.55    0.16 
   4  -2   7    4.56    0.16 
  -4  -2  -7    4.51    0.23 
   4   2   7    4.73    0.21 
  -4   2  -7    4.72    0.32 
   5  -2   7    6.92    0.32 
   5  -2   7    6.69    0.22 
  -5  -2  -7    6.67    0.30 
   5  -2   7    6.83    0.36 
   5   2   7    6.99    0.27 
  -5   2  -7    6.08    0.38 
   6  -2   7    2.15    0.19 
   6  -2   7    2.29    0.22 
  -6  -2  -7    2.15    0.17 
   6  -2   7    2.00    0.12 
   6   2   7    2.27    0.15 
  -6   2  -7    1.72    0.22 
   7  -2   7   15.58    0.61 
   7  -2   7   15.14    0.57 
   7  -2   7   15.17    0.43 
  -7  -2  -7   15.14    0.54 
  -7   2  -7   13.92    0.65 
   7   2   7   15.77    0.50 
   8  -2   7    1.01    0.15 
   8  -2   7    1.11    0.10 
   8  -2   7    0.90    0.16 
  -8  -2  -7    1.30    0.16 
   8   2   7    1.28    0.13 
  -8   2  -7    1.42    0.22 
   9  -2   7    0.04    0.08 
   9  -2   7    0.02    0.08 
   9  -2   7   -0.04    0.04 
  -9  -2  -7    0.01    0.07 
   9   2   7    0.08    0.06 
  -9   2  -7    0.03    0.10 
 -10  -2  -7    0.40    0.12 
  10  -2   7    0.60    0.08 
  10  -2   7    0.59    0.14 
  10  -2   7    0.73    0.17 
  11  -2   7    0.03    0.05 
  11  -2   7    0.05    0.09 
 -11  -2  -7   -0.08    0.08 
  11  -2   7   -0.10    0.07 
  12  -2   7    0.01    0.11 
  12  -2   7   -0.10    0.09 
  12  -2   7   -0.02    0.05 
 -12  -2  -7    0.04    0.09 
  13  -2   7    0.44    0.09 
  13  -2   7    0.15    0.14 
 -13  -2  -7    0.33    0.13 
  14  -2   7    0.03    0.06 
  15  -2   7    0.09    0.07 
  19  -3  -7   -0.10    0.10 
 -19  -3   7   -0.12    0.12 
  19   3  -7    0.02    0.08 
  18  -3  -7   -0.01    0.13 
  18  -3  -7    0.16    0.14 
 -18  -3   7   -0.02    0.12 
  18   3  -7    0.04    0.08 
  17  -3  -7    0.23    0.14 
 -17  -3   7    0.08    0.11 
  17  -3  -7    0.18    0.12 
  17   3  -7    0.09    0.08 
  16  -3  -7    1.39    0.23 
  16  -3  -7    1.28    0.19 
  16   3  -7    1.49    0.16 
  15  -3  -7    0.00    0.10 
  15  -3  -7    0.01    0.09 
  15   3  -7   -0.01    0.06 
  14  -3  -7    0.29    0.11 
  14  -3  -7    0.50    0.15 
  14   3  -7    0.44    0.09 
  13  -3  -7    0.25    0.10 
  13  -3  -7    0.33    0.13 
  13   3  -7    0.37    0.09 
  12  -3  -7    5.17    0.34 
  12  -3  -7    4.52    0.28 
  12   3  -7    4.80    0.26 
  12   3  -7    5.23    0.28 
  11  -3  -7    0.29    0.11 
  11  -3  -7    0.45    0.11 
  11   3  -7    0.34    0.09 
  10  -3  -7   -0.07    0.06 
  10  -3  -7    0.08    0.07 
  10   3  -7    0.01    0.06 
  -9  -3   7    4.26    0.26 
   9  -3  -7    3.73    0.26 
   9  -3  -7    3.98    0.23 
   9   3  -7    4.50    0.26 
   8  -3  -7   16.85    0.52 
  -8  -3   7   16.74    0.56 
   8  -3  -7   15.94    0.59 
   8   3  -7   16.42    0.59 
   7  -3  -7    6.66    0.28 
  -7  -3   7    6.31    0.30 
   7  -3  -7    6.22    0.32 
   7   3  -7    6.46    0.33 
  -6  -3   7    0.46    0.10 
   6  -3  -7    0.59    0.09 
   6  -3  -7    0.42    0.08 
   6  -3  -7    0.53    0.10 
   6   3  -7    0.58    0.11 
  -5  -3   7    2.07    0.16 
   5  -3  -7    2.27    0.16 
   5  -3  -7    2.04    0.17 
  -5  -3   7    2.22    0.15 
   5  -3  -7    2.08    0.14 
   5   3  -7    2.18    0.20 
   4  -3  -7   15.60    0.45 
  -4  -3   7   15.28    0.46 
   4  -3  -7   15.80    0.47 
   4  -3  -7   15.21    0.51 
  -4  -3   7   15.89    0.50 
   4   3  -7   14.55    0.59 
   3  -3  -7    0.08    0.05 
   3  -3  -7    0.04    0.05 
  -3  -3   7    0.17    0.07 
  -3  -3   7    0.11    0.05 
   3  -3  -7    0.05    0.04 
   3   3  -7    0.06    0.07 
  -2  -3   7    0.05    0.04 
  -2  -3   7    0.19    0.06 
   2  -3  -7    0.18    0.06 
   2  -3  -7    0.15    0.05 
   2  -3  -7    0.12    0.05 
   2   3  -7    0.19    0.10 
   1  -3  -7    3.77    0.18 
   1  -3  -7    4.14    0.19 
  -1  -3   7    3.91    0.21 
   1  -3  -7    3.86    0.19 
  -1  -3   7    3.72    0.18 
   1   3  -7    3.14    0.27 
   0  -3  -7    8.75    0.32 
   0  -3   7    9.03    0.32 
   0  -3  -7    9.25    0.31 
   0  -3   7    8.67    0.34 
   0   3  -7    9.01    0.47 
  -1  -3  -7    6.93    0.28 
  -1  -3  -7    6.75    0.26 
   1  -3   7    7.59    0.31 
   1   3   7    6.95    0.26 
  -1   3  -7    6.67    0.41 
  -2  -3  -7    2.55    0.15 
   2  -3   7    2.44    0.17 
  -2   3  -7    1.98    0.24 
   2   3   7    2.12    0.10 
  -3  -3  -7    0.59    0.09 
   3  -3   7    0.63    0.11 
  -3   3  -7    0.56    0.16 
  -4  -3  -7    1.21    0.12 
   4  -3   7    1.09    0.13 
  -4   3  -7    1.00    0.19 
  -5  -3  -7    0.13    0.07 
   5  -3   7    0.08    0.07 
  -5   3  -7   -0.03    0.09 
  -6  -3  -7    0.85    0.12 
   6  -3   7    0.43    0.11 
  -6   3  -7    0.85    0.20 
   7  -3   7    0.28    0.10 
  -7  -3  -7    0.32    0.10 
   7  -3   7    0.34    0.13 
  -7   3  -7    0.42    0.16 
  -8  -3  -7    0.26    0.10 
   8  -3   7    0.05    0.11 
   8  -3   7    0.11    0.08 
  -8   3  -7    0.33    0.16 
   9  -3   7    0.02    0.10 
   9  -3   7    0.01    0.08 
  -9  -3  -7    0.02    0.07 
  -9   3  -7    0.07    0.13 
  10  -3   7    0.11    0.11 
 -10  -3  -7   -0.02    0.08 
  10  -3   7   -0.13    0.08 
 -10   3  -7    0.21    0.14 
  11  -3   7   -0.08    0.11 
  11  -3   7   -0.03    0.09 
 -11  -3  -7   -0.03    0.08 
 -11   3  -7    0.20    0.16 
  12  -3   7    0.36    0.16 
  12  -3   7    0.48    0.16 
 -12  -3  -7    0.27    0.12 
 -12   3  -7    0.62    0.21 
  13  -3   7    0.40    0.18 
  13  -3   7    0.53    0.17 
 -13  -3  -7    0.48    0.15 
 -13   3  -7    0.29    0.19 
  14  -3   7    0.29    0.17 
 -14  -3  -7    0.25    0.14 
  18  -4  -7    0.06    0.13 
 -18  -4   7    0.02    0.12 
  17  -4  -7    1.04    0.20 
 -17  -4   7    0.71    0.19 
  17   4  -7    0.94    0.15 
  16  -4  -7    1.46    0.21 
  16  -4  -7    1.95    0.30 
  16   4  -7    1.99    0.19 
  15  -4  -7    0.42    0.17 
  15  -4  -7    0.61    0.15 
  15   4  -7    0.55    0.11 
  14  -4  -7    0.38    0.16 
  14  -4  -7    0.32    0.12 
  14   4  -7    0.33    0.10 
  13  -4  -7    0.92    0.16 
  13  -4  -7    0.68    0.18 
  13   4  -7    1.08    0.15 
  13   4  -7    0.92    0.13 
  12  -4  -7    0.17    0.13 
  12  -4  -7    0.11    0.09 
  12   4  -7    0.18    0.09 
  11  -4  -7    9.38    0.51 
  11  -4  -7    9.46    0.41 
  11   4  -7    9.29    0.43 
  10  -4  -7    3.76    0.24 
  10  -4  -7    4.01    0.32 
  10   4  -7    3.75    0.26 
  -9  -4   7    0.20    0.09 
   9  -4  -7    0.11    0.07 
   9  -4  -7    0.18    0.11 
   9   4  -7    0.16    0.08 
   8  -4  -7    0.41    0.12 
  -8  -4   7    0.55    0.11 
   8  -4  -7    0.64    0.10 
   8   4  -7    0.48    0.12 
   7  -4  -7    0.24    0.07 
   7  -4  -7    0.37    0.12 
  -7  -4   7    0.14    0.07 
   7   4  -7    0.20    0.10 
   6  -4  -7    0.71    0.09 
  -6  -4   7    1.09    0.13 
   6  -4  -7    1.00    0.15 
   6   4  -7    0.91    0.16 
   5  -4  -7    1.21    0.16 
  -5  -4   7    1.06    0.13 
   5  -4  -7    1.23    0.11 
   5   4  -7    1.20    0.18 
  -4  -4   7   19.46    0.61 
   4  -4  -7   20.55    0.56 
   4  -4  -7   19.96    0.68 
   4   4  -7   21.09    0.80 
   3  -4  -7   34.06    0.83 
   3  -4  -7   33.01    0.95 
   3  -4  -7   33.41    0.85 
  -3  -4   7   33.46    0.89 
   3   4  -7   32.64    1.13 
   2  -4  -7    9.86    0.32 
   2  -4  -7    9.78    0.34 
   2  -4  -7    9.67    0.39 
  -2  -4   7    9.89    0.37 
   2   4  -7    9.35    0.52 
   1  -4  -7    0.15    0.05 
  -1  -4   7    0.17    0.07 
   1   4  -7    0.06    0.09 
   0  -4  -7    6.18    0.24 
   0  -4   7    5.49    0.27 
   0   4  -7    5.30    0.39 
   0   4   7    5.51    0.29 
   1  -4   7    0.66    0.10 
  -1  -4  -7    0.69    0.09 
  -1   4  -7    0.71    0.18 
   2  -4   7    1.38    0.14 
  -2  -4  -7    1.61    0.13 
  -2   4  -7    1.21    0.22 
  -3  -4  -7    6.10    0.27 
   3  -4   7    5.91    0.30 
  -3   4  -7    6.33    0.46 
   4  -4   7    2.85    0.21 
  -4  -4  -7    2.73    0.18 
  -4   4  -7    2.75    0.32 
   5  -4   7    1.33    0.16 
  -5  -4  -7    1.59    0.15 
  -5   4  -7    1.66    0.27 
   6  -4   7    0.39    0.11 
  -6  -4  -7    0.41    0.10 
  -6   4  -7    0.08    0.12 
   7  -4   7    0.17    0.10 
  -7  -4  -7    0.16    0.09 
  -7   4  -7    0.19    0.14 
  -8  -4  -7    4.39    0.28 
   8  -4   7    5.04    0.33 
  -8   4  -7    4.31    0.43 
  -9  -4  -7    0.06    0.09 
   9  -4   7    0.26    0.12 
   9  -4   7    0.12    0.13 
  -9   4  -7    0.15    0.16 
  10  -4   7    0.46    0.15 
  10  -4   7    0.26    0.16 
 -10  -4  -7    0.10    0.11 
 -10   4  -7    0.08    0.16 
  11  -4   7   -0.01    0.10 
  11  -4   7    0.13    0.15 
 -11  -4  -7    0.16    0.12 
 -12  -4  -7    1.10    0.19 
  12  -4   7    0.86    0.19 
  12  -4   7    1.03    0.26 
  13  -4   7    0.12    0.12 
 -13  -4  -7    0.03    0.10 
  15  -5  -7    0.04    0.10 
  15   5  -7    0.23    0.10 
  14  -5  -7    0.25    0.16 
  14  -5  -7    0.48    0.14 
  14   5  -7    0.80    0.15 
  13  -5  -7    0.20    0.11 
  13  -5  -7    0.29    0.16 
  13   5  -7    0.32    0.11 
  12  -5  -7    0.54    0.19 
  12  -5  -7    0.62    0.14 
  12   5  -7    0.52    0.13 
  11  -5  -7    4.70    0.28 
  11  -5  -7    4.28    0.38 
  11   5  -7    5.10    0.33 
  10  -5  -7    7.99    0.50 
  10  -5  -7    8.36    0.38 
  10   5  -7    8.99    0.45 
  -9  -5   7    7.04    0.37 
   9  -5  -7    7.06    0.45 
   9  -5  -7    6.72    0.32 
   9   5  -7    6.83    0.41 
   8  -5  -7    0.96    0.12 
   8  -5  -7    0.76    0.18 
  -8  -5   7    0.81    0.13 
   8   5  -7    0.98    0.18 
   7  -5  -7   -0.11    0.08 
  -7  -5   7    0.02    0.07 
   7  -5  -7   -0.01    0.05 
   7   5  -7   -0.02    0.08 
  -6  -5   7    0.71    0.12 
   6  -5  -7    0.89    0.17 
   6  -5  -7    0.55    0.09 
   6   5  -7    0.51    0.16 
   5  -5  -7    2.51    0.24 
  -5  -5   7    1.94    0.17 
   5  -5  -7    2.24    0.15 
   5   5  -7    2.13    0.27 
   4  -5  -7    0.02    0.04 
  -4  -5   7   -0.04    0.05 
   4  -5  -7    0.04    0.09 
   4   5  -7    0.01    0.10 
  -3  -5   7    3.32    0.21 
   3  -5  -7    3.34    0.17 
   3   5  -7    2.74    0.31 
  -2  -5   7    5.34    0.27 
   2  -5  -7    5.36    0.22 
   2   5  -7    5.07    0.41 
   1  -5  -7    3.70    0.18 
  -1  -5   7    3.19    0.21 
   1   5  -7    3.58    0.36 
   0  -5  -7    0.26    0.07 
   0  -5   7    0.23    0.08 
   0   5  -7    0.26    0.15 
   1  -5   7    0.06    0.06 
  -1  -5  -7   -0.03    0.05 
  -1   5  -7    0.03    0.11 
  -2  -5  -7    5.98    0.26 
   2  -5   7    5.67    0.29 
  -2   5  -7    5.63    0.46 
  -3  -5  -7    1.89    0.15 
   3  -5   7    1.90    0.18 
  -3   5  -7    1.43    0.27 
   4  -5   7    3.38    0.24 
  -4  -5  -7    3.17    0.20 
  -4   5  -7    3.86    0.41 
  -5  -5  -7    1.40    0.14 
   5  -5   7    1.09    0.16 
  -5   5  -7    1.06    0.26 
  -6  -5  -7    0.70    0.12 
   6  -5   7    0.62    0.14 
  -6   5  -7    0.51    0.21 
   7  -5   7    0.12    0.10 
  -7  -5  -7    0.23    0.09 
  -8  -5  -7    0.09    0.09 
   8  -5   7    0.08    0.10 
  -9  -5  -7    1.16    0.17 
   9  -5   7    1.16    0.20 
 -10  -5  -7    5.80    0.35 
  10  -5   7    5.87    0.40 
 -11  -5  -7    0.62    0.16 
  11  -5   7    0.91    0.20 
  12  -6  -7    0.04    0.09 
  11  -6  -7    0.30    0.17 
  11  -6  -7    0.19    0.11 
  10  -6  -7    0.05    0.08 
  10  -6  -7   -0.02    0.12 
  10   6  -7    0.26    0.12 
   9  -6  -7    0.20    0.15 
   9  -6  -7    0.16    0.08 
   9   6  -7    0.63    0.16 
   8  -6  -7    0.06    0.12 
   8  -6  -7    0.01    0.07 
  -8  -6   7    0.09    0.09 
   8   6  -7    0.06    0.10 
   7  -6  -7   -0.04    0.11 
   7  -6  -7    0.06    0.06 
  -7  -6   7    0.03    0.07 
   7   6  -7   -0.08    0.09 
   6  -6  -7    0.74    0.18 
   6  -6  -7    0.41    0.08 
  -6  -6   7    0.65    0.12 
   6   6  -7    0.66    0.18 
   5  -6  -7    0.58    0.09 
  -5  -6   7    0.54    0.11 
   5   6  -7    0.54    0.18 
   4  -6  -7    0.44    0.08 
  -4  -6   7    0.41    0.11 
   4   6  -7    0.29    0.15 
   3  -6  -7    2.44    0.15 
  -3  -6   7    2.56    0.20 
   3   6  -7    2.35    0.32 
   2  -6  -7    0.53    0.08 
  -2  -6   7    0.51    0.11 
   2   6  -7    0.48    0.19 
   1  -6  -7    1.03    0.10 
  -1  -6   7    0.78    0.13 
   1   6  -7    0.90    0.24 
   0  -6   7    0.13    0.08 
   0  -6  -7    0.18    0.06 
   0   6  -7    0.27    0.17 
  -1  -6  -7    0.04    0.05 
   1  -6   7    0.10    0.08 
   2  -6   7    0.47    0.11 
  -2  -6  -7    0.42    0.09 
   3  -6   7    0.03    0.08 
  -3  -6  -7    0.11    0.07 
  -4  -6  -7    1.12    0.13 
   4  -6   7    0.97    0.16 
  -5  -6  -7    1.13    0.14 
   5  -6   7    1.11    0.17 
  -6  -6  -7    1.31    0.16 
   6  -6   7    1.47    0.20 
   7  -6   7    2.49    0.25 
  -7  -6  -7    2.30    0.20 
   8  -6   7    0.19    0.12 
  -8  -6  -7    0.08    0.09 
  -6  -7   7    0.63    0.13 
   6  -7  -7    0.77    0.11 
  -5  -7   7    0.37    0.11 
   5  -7  -7    0.46    0.09 
  -4  -7   7    0.41    0.11 
   4  -7  -7    0.20    0.07 
   3  -7  -7    0.67    0.09 
  -3  -7   7    1.02    0.14 
   2  -7  -7    0.48    0.08 
  -2  -7   7    0.65    0.13 
  -1  -7   7   -0.06    0.07 
   1  -7  -7    0.05    0.05 
   0  -7   7    1.74    0.18 
   0  -7  -7    1.63    0.13 
   1  -7   7    0.15    0.10 
  -1  -7  -7    0.02    0.06 
   2  -7   7    0.07    0.09 
  21   0  -8    0.81    0.16 
 -21   0   8    1.10    0.18 
 -20   0   8    4.68    0.31 
  20   0  -8    5.26    0.32 
  20   0  -8    5.04    0.36 
  19   0  -8    5.35    0.31 
  19   0  -8    5.92    0.37 
 -19   0   8    5.05    0.32 
  18   0  -8    0.60    0.14 
  18   0  -8    0.43    0.11 
 -18   0   8    0.79    0.13 
 -17   0   8    0.04    0.07 
  17   0  -8    0.20    0.10 
  17   0  -8    0.03    0.06 
 -16   0   8    0.49    0.11 
  16   0  -8    0.47    0.11 
  16   0  -8    0.47    0.10 
  15   0  -8    6.95    0.32 
  15   0  -8    6.33    0.33 
  14   0  -8   -0.03    0.06 
 -14   0   8   -0.06    0.06 
  14   0  -8    0.06    0.06 
 -13   0   8   44.07    1.17 
  13   0  -8   45.59    1.22 
  13   0  -8   42.60    1.16 
  13   0  -8   46.96    1.16 
  12   0  -8   47.13    1.23 
 -12   0   8   48.30    1.23 
  12   0  -8   50.09    1.27 
  12   0  -8   47.84    1.22 
  11   0  -8   19.35    0.56 
  11   0  -8   18.87    0.57 
  11   0  -8   18.73    0.61 
 -11   0   8   18.89    0.57 
  10   0  -8    1.46    0.12 
  10   0  -8    1.10    0.13 
  10   0  -8    1.21    0.11 
 -10   0   8    1.31    0.12 
   9   0  -8    1.67    0.14 
   9   0  -8    1.89    0.13 
   9   0  -8    2.19    0.13 
  -9   0   8    2.08    0.14 
   8   0  -8    3.48    0.17 
   8   0  -8    3.34    0.16 
  -8   0   8    3.20    0.17 
   8   0  -8    3.48    0.20 
   7   0  -8    0.01    0.04 
  -7   0   8   -0.07    0.03 
   7   0  -8   -0.02    0.03 
   7   0  -8    0.02    0.03 
  -7   0   8    0.01    0.03 
  -6   0   8    2.68    0.18 
   6   0  -8    2.29    0.12 
   6   0  -8    2.48    0.16 
   6   0  -8    2.21    0.13 
  -6   0   8    2.37    0.14 
   5   0  -8   32.02    0.83 
   5   0  -8   31.39    0.77 
  -5   0   8   29.94    0.82 
   5   0  -8   31.43    0.80 
  -5   0   8   30.61    0.78 
   4   0  -8   35.60    0.91 
  -4   0   8   35.08    0.86 
   4   0  -8   34.93    0.87 
  -4   0   8   34.19    0.90 
   3   0  -8   12.22    0.37 
   3   0  -8   11.66    0.38 
  -3   0   8   11.66    0.36 
  -3   0   8   11.76    0.40 
   2   0  -8   10.84    0.36 
  -2   0   8   11.45    0.35 
  -2   0   8   11.05    0.39 
   2   0  -8   11.34    0.36 
  -1   0   8   11.49    0.35 
  -1   0   8   11.52    0.39 
   1   0  -8   11.47    0.36 
  -1   0   8   11.11    0.39 
   1   0  -8   11.43    0.37 
   0   0  -8    0.72    0.08 
   0   0  -8    0.77    0.09 
   0   0   8    0.73    0.07 
   0   0   8    0.64    0.09 
   0   0   8    0.79    0.10 
   1   0   8   34.27    0.91 
   1   0   8   34.67    0.87 
  -1   0  -8   35.97    0.90 
  -1   0  -8   34.89    0.92 
   1   0   8   35.14    0.95 
   2   0   8    6.51    0.25 
  -2   0  -8    6.31    0.26 
   2   0   8    6.41    0.29 
  -2   0  -8    6.37    0.27 
   3   0   8   43.78    1.07 
   3   0   8   43.68    1.12 
  -3   0  -8   42.23    1.14 
  -3   0  -8   44.29    1.10 
  -4   0  -8    0.41    0.08 
  -4   0  -8    0.37    0.08 
   4   0   8    0.42    0.07 
   4   0   8    0.19    0.08 
   5   0   8    1.85    0.17 
  -5   0  -8    1.62    0.14 
   5   0   8    1.79    0.14 
  -5   0  -8    1.71    0.16 
  -6   0  -8    8.99    0.37 
  -6   0  -8    9.16    0.38 
   6   0   8    9.96    0.35 
   6   0   8    9.52    0.35 
   6   0   8    8.55    0.39 
  -7   0  -8   13.63    0.51 
   7   0   8   14.41    0.47 
   7   0   8   13.66    0.53 
  -7   0  -8   13.96    0.51 
   7   0   8   13.93    0.48 
  -8   0  -8    7.33    0.36 
   8   0   8    7.37    0.31 
   8   0   8    7.17    0.33 
  -8   0  -8    6.92    0.34 
   9   0   8   14.89    0.51 
  10   0   8    2.92    0.21 
  11   0   8    7.98    0.36 
  12   0   8    0.27    0.09 
  13   0   8    0.01    0.07 
  14   0   8   -0.06    0.06 
  15   0   8    0.10    0.09 
 -21  -1   8    0.32    0.11 
  21  -1  -8    0.49    0.12 
  21   1  -8    0.35    0.13 
  20  -1  -8    1.99    0.18 
 -20  -1   8    1.73    0.18 
  20   1  -8    1.68    0.22 
  20   1  -8    1.87    0.20 
  19  -1  -8    0.11    0.08 
  19  -1  -8    0.26    0.12 
 -19  -1   8    0.14    0.09 
  19   1  -8    0.13    0.10 
  19   1  -8    0.12    0.10 
  18  -1  -8    0.30    0.09 
  18  -1  -8    0.36    0.13 
 -18  -1   8    0.33    0.10 
  18   1  -8    0.38    0.11 
  18   1  -8    0.30    0.11 
 -17  -1   8    1.82    0.17 
  17  -1  -8    1.95    0.22 
  17  -1  -8    1.96    0.16 
  17   1  -8    2.00    0.19 
  17   1  -8    1.86    0.19 
 -16  -1   8    4.21    0.25 
  16  -1  -8    4.45    0.30 
  16  -1  -8    4.58    0.24 
  16   1  -8    4.26    0.26 
  16   1  -8    4.50    0.27 
  15  -1  -8   16.18    0.62 
 -15  -1   8   15.65    0.53 
  15  -1  -8   14.96    0.59 
  15  -1  -8   15.80    0.51 
  15   1  -8   16.18    0.56 
  15   1  -8   15.95    0.55 
 -14  -1   8   37.06    0.99 
  14  -1  -8   37.26    1.08 
  14  -1  -8   35.34    1.06 
  14  -1  -8   37.73    0.97 
  14   1  -8   36.95    1.01 
  14   1  -8   36.18    1.00 
  13  -1  -8    2.39    0.22 
 -13  -1   8    2.71    0.19 
  13  -1  -8    2.71    0.17 
  13  -1  -8    2.87    0.22 
  13   1  -8    2.81    0.19 
  13   1  -8    2.72    0.19 
  12  -1  -8   21.20    0.69 
  12  -1  -8   24.12    0.74 
 -12  -1   8   23.55    0.66 
  12  -1  -8   22.75    0.64 
  12   1  -8   22.85    0.66 
  12   1  -8   22.55    0.67 
  11  -1  -8    0.67    0.08 
 -11  -1   8    0.65    0.09 
  11  -1  -8    0.68    0.11 
  11  -1  -8    0.68    0.10 
  11   1  -8    0.53    0.08 
  11   1  -8    0.64    0.09 
  10  -1  -8    1.56    0.14 
  10  -1  -8    1.73    0.12 
 -10  -1   8    1.80    0.13 
  10  -1  -8    1.52    0.15 
  10   1  -8    1.90    0.16 
  10   1  -8    1.69    0.13 
  10   1  -8    1.89    0.13 
   9  -1  -8    6.23    0.28 
  -9  -1   8    5.95    0.24 
   9  -1  -8    5.66    0.25 
   9   1  -8    5.36    0.24 
   9   1  -8    5.71    0.27 
   9   1  -8    5.65    0.24 
  -8  -1   8   49.89    1.27 
   8  -1  -8   50.49    1.22 
  -8  -1   8   49.39    1.20 
   8  -1  -8   49.46    1.23 
   8   1  -8   49.60    1.22 
   8   1  -8   49.69    1.22 
   8   1  -8   50.38    1.30 
   8   1  -8   49.53    1.21 
  -7  -1   8   56.22    1.33 
   7  -1  -8   56.29    1.34 
  -7  -1   8   55.91    1.40 
   7  -1  -8   56.24    1.36 
   7   1  -8   57.20    1.45 
   7   1  -8   57.64    1.35 
   7   1  -8   56.33    1.34 
  -6  -1   8   86.12    2.03 
  -6  -1   8   87.45    1.99 
   6  -1  -8   88.35    1.99 
   6  -1  -8   88.67    1.99 
   6   1  -8   87.96    2.16 
   6   1  -8   89.08    1.98 
   6   1  -8   86.23    2.00 
  -5  -1   8   14.21    0.48 
   5  -1  -8   14.31    0.40 
  -5  -1   8   14.70    0.41 
   5  -1  -8   13.37    0.44 
   5   1  -8   14.46    0.42 
  -5   1   8   15.49    0.43 
   5   1  -8   16.07    0.45 
   5   1  -8   15.04    0.48 
  -5   1   8   14.12    0.45 
   4  -1  -8   97.06    2.12 
  -4  -1   8   94.49    2.14 
  -4  -1   8   95.84    2.16 
   4  -1  -8   95.29    2.13 
  -4   1   8   95.81    2.15 
   4   1  -8   94.66    2.15 
  -4   1   8   95.80    2.14 
   4   1  -8   94.04    2.12 
   4   1  -8   93.39    2.34 
   3  -1  -8    3.19    0.12 
  -3  -1   8    2.96    0.19 
   3  -1  -8    3.24    0.17 
  -3  -1   8    3.09    0.14 
   3   1  -8    3.57    0.17 
  -3   1   8    3.28    0.15 
  -3   1   8    3.00    0.17 
  -3   1   8    3.00    0.15 
   3   1  -8    3.09    0.19 
  -2  -1   8    2.52    0.17 
   2  -1  -8    2.33    0.09 
  -2  -1   8    2.18    0.12 
   2  -1  -8    2.32    0.14 
  -2   1   8    2.23    0.15 
  -2   1   8    2.08    0.12 
  -2   1   8    2.32    0.12 
   2   1  -8    2.31    0.16 
   2   1  -8    2.24    0.14 
  -1  -1   8    2.31    0.12 
   1  -1  -8    2.28    0.15 
  -1  -1   8    2.23    0.17 
   1  -1  -8    2.41    0.09 
  -1   1   8    2.47    0.12 
   1   1  -8    2.18    0.15 
  -1   1   8    2.01    0.15 
   1   1  -8    2.31    0.17 
  -1   1   8    2.31    0.13 
   0  -1   8   37.18    0.97 
   0  -1  -8   37.80    0.94 
   0  -1   8   36.19    0.90 
   0  -1  -8   37.93    0.84 
   0   1   8   36.42    0.94 
   0   1   8   38.70    0.92 
   0   1   8   38.24    0.95 
   0   1  -8   38.59    0.94 
   0   1  -8   36.25    1.05 
  -1  -1  -8   11.92    0.30 
  -1  -1  -8   11.71    0.28 
   1  -1   8   11.49    0.41 
  -1  -1  -8   11.78    0.39 
   1  -1   8   11.32    0.35 
  -1   1  -8   10.93    0.44 
   1   1   8   11.81    0.35 
   1   1   8   12.46    0.37 
  -1   1  -8   12.92    0.40 
   1   1   8   12.44    0.41 
   2  -1   8    0.58    0.10 
  -2  -1  -8    0.49    0.08 
   2  -1   8    0.50    0.06 
  -2   1  -8    0.65    0.11 
  -2   1  -8    0.62    0.09 
   2   1   8    0.54    0.09 
   2   1   8    0.51    0.07 
  -3  -1  -8    5.08    0.14 
   3  -1   8    5.13    0.21 
   3  -1   8    4.80    0.26 
  -3  -1  -8    4.77    0.24 
   3   1   8    5.19    0.22 
  -3   1  -8    5.39    0.25 
   3   1   8    5.00    0.25 
  -3   1  -8    4.90    0.28 
   4  -1   8   18.73    0.52 
   4  -1   8   17.62    0.59 
  -4  -1  -8   18.20    0.57 
  -4  -1  -8   18.70    0.42 
   4   1   8   18.86    0.58 
   4   1   8   18.06    0.53 
  -4   1  -8   16.42    0.63 
  -4   1  -8   18.31    0.57 
  -5  -1  -8   18.19    0.59 
   5  -1   8   19.07    0.54 
   5  -1   8   18.07    0.61 
  -5  -1  -8   18.56    0.47 
   5   1   8   19.64    0.56 
  -5   1  -8   16.86    0.65 
  -5   1  -8   18.22    0.59 
  -6  -1  -8    5.76    0.29 
   6  -1   8    5.45    0.30 
   6  -1   8    5.83    0.30 
   6  -1   8    5.61    0.24 
  -6   1  -8    5.32    0.33 
   6   1   8    5.73    0.26 
   7  -1   8    9.02    0.42 
  -7  -1  -8    9.28    0.40 
   7  -1   8    9.72    0.35 
   7  -1   8    9.13    0.41 
   7   1   8    9.57    0.37 
  -7   1  -8    9.26    0.46 
   8  -1   8    0.21    0.10 
  -8  -1  -8    0.23    0.10 
   8  -1   8    0.18    0.08 
   8  -1   8    0.08    0.10 
   8   1   8    0.18    0.09 
  -8   1  -8    0.32    0.12 
   9  -1   8   13.35    0.46 
   9  -1   8   14.27    0.58 
   9  -1   8   12.58    0.54 
  -9  -1  -8   13.39    0.53 
  -9   1  -8   12.35    0.58 
   9   1   8   13.39    0.49 
  10  -1   8    0.09    0.10 
  10  -1   8   -0.01    0.06 
 -10  -1  -8    0.11    0.10 
 -10   1  -8    0.01    0.09 
  10   1   8    0.02    0.07 
 -11  -1  -8    1.15    0.18 
  11  -1   8    1.26    0.14 
  11   1   8    1.40    0.16 
  12  -1   8    0.35    0.09 
  12   1   8    0.32    0.10 
  13  -1   8    2.11    0.18 
  13   1   8    2.22    0.21 
  14  -1   8    1.75    0.17 
  14   1   8    1.86    0.20 
  15  -1   8    3.79    0.26 
  15   1   8    3.54    0.28 
  20   2  -8    3.57    0.29 
  20   2  -8    4.11    0.30 
 -19  -2   8    0.40    0.08 
  19  -2  -8    0.43    0.17 
  19   2  -8    0.49    0.13 
  19   2  -8    0.86    0.15 
 -18  -2   8    0.60    0.08 
  18  -2  -8    0.42    0.15 
  18   2  -8    0.92    0.15 
  18   2  -8    0.86    0.15 
  17  -2  -8    1.83    0.24 
 -17  -2   8    1.77    0.13 
  17  -2  -8    2.14    0.24 
  17   2  -8    1.95    0.18 
  17   2  -8    1.88    0.19 
  16  -2  -8    1.15    0.19 
  16  -2  -8    1.28    0.19 
 -16  -2   8    1.47    0.12 
  16   2  -8    1.26    0.15 
  16   2  -8    1.42    0.15 
 -15  -2   8    2.25    0.14 
  15  -2  -8    2.17    0.24 
  15  -2  -8    2.11    0.22 
  15   2  -8    2.10    0.18 
  15   2  -8    2.59    0.19 
 -14  -2   8    5.93    0.23 
  14  -2  -8    5.63    0.35 
  14  -2  -8    6.10    0.35 
  14   2  -8    5.97    0.29 
  14   2  -8    5.98    0.30 
 -13  -2   8    4.40    0.19 
  13  -2  -8    4.55    0.29 
  13  -2  -8    4.17    0.28 
  13   2  -8    4.38    0.24 
  13   2  -8    4.57    0.24 
  12  -2  -8    8.68    0.41 
 -12  -2   8    8.63    0.29 
  12  -2  -8    9.78    0.42 
  12   2  -8    9.41    0.36 
  12   2  -8    9.25    0.36 
  11  -2  -8    0.98    0.14 
  11  -2  -8    0.98    0.14 
 -11  -2   8    1.08    0.09 
  11   2  -8    0.99    0.12 
  11   2  -8    1.38    0.12 
 -10  -2   8   80.74    1.78 
  10  -2  -8   78.48    1.88 
  10  -2  -8   79.73    1.95 
  10   2  -8   76.17    1.88 
  10   2  -8   79.13    2.01 
  10   2  -8   80.28    1.87 
  -9  -2   8   20.07    0.49 
   9  -2  -8   19.95    0.61 
  -9  -2   8   20.25    0.49 
  -9  -2   8   19.20    0.64 
   9  -2  -8   19.87    0.63 
   9   2  -8   18.94    0.63 
   9   2  -8   19.86    0.57 
   8  -2  -8   28.25    0.81 
  -8  -2   8   28.87    0.83 
   8  -2  -8   27.78    0.78 
  -8  -2   8   29.04    0.67 
  -8  -2   8   28.89    0.67 
   8   2  -8   29.69    0.85 
   8   2  -8   28.30    0.75 
  -7  -2   8   10.88    0.42 
  -7  -2   8   11.77    0.29 
   7  -2  -8   11.31    0.40 
  -7  -2   8   11.53    0.29 
   7  -2  -8   11.31    0.39 
   7   2  -8   11.18    0.43 
   7   2  -8   11.60    0.36 
  -6  -2   8    0.06    0.02 
  -6  -2   8   -0.05    0.04 
   6  -2  -8    0.05    0.04 
   6  -2  -8    0.00    0.03 
   6   2  -8    0.07    0.04 
   6   2  -8    0.10    0.06 
   5  -2  -8    0.50    0.07 
  -5  -2   8    0.46    0.09 
   5  -2  -8    0.43    0.08 
   5  -2  -8    0.48    0.08 
   5   2  -8    0.44    0.09 
   5   2  -8    0.46    0.06 
   4  -2  -8   17.30    0.53 
   4  -2  -8   16.61    0.50 
   4  -2  -8   17.21    0.49 
  -4  -2   8   18.47    0.56 
   4   2  -8   17.98    0.48 
  -3  -2   8   20.20    0.61 
   3  -2  -8   20.68    0.58 
   3  -2  -8   21.08    0.55 
   3   2  -8   20.65    0.55 
   3   2  -8   19.63    0.69 
   2  -2  -8  396.75    8.47 
  -2  -2   8  406.03    8.40 
   2  -2  -8  395.03    8.67 
  -2   2   8  399.11    8.63 
   2   2  -8  385.58    9.32 
   2   2  -8  398.04    8.68 
   1  -2  -8   82.01    1.84 
  -1  -2   8   83.27    1.89 
  -1  -2   8   82.88    1.78 
   1  -2  -8   70.46    1.84 
   1  -2  -8   81.42    1.82 
  -1  -2   8   82.26    1.79 
  -1   2   8   82.27    1.85 
   1   2  -8   79.07    2.14 
  -1   2   8   87.17    1.92 
   0  -2  -8   45.02    1.12 
   0  -2  -8   45.98    1.14 
   0  -2   8   45.51    1.16 
   0  -2   8   46.30    1.04 
   0  -2   8   46.59    1.04 
   0   2   8   47.21    1.10 
   0   2   8   47.85    1.11 
   0   2  -8   45.76    1.35 
  -1  -2  -8   14.18    0.46 
   1  -2   8   14.63    0.49 
   1  -2   8   14.44    0.36 
  -1  -2  -8   13.87    0.45 
   1  -2   8   14.73    0.36 
   1   2   8   14.91    0.42 
  -1   2  -8   14.46    0.59 
  -1   2  -8   14.54    0.44 
  -2  -2  -8    3.73    0.20 
   2  -2   8    3.57    0.14 
   2  -2   8    3.40    0.21 
   2  -2   8    3.74    0.13 
   2   2   8    3.90    0.18 
  -2   2  -8    3.19    0.26 
  -3  -2  -8   -0.02    0.04 
   3  -2   8    0.03    0.05 
   3  -2   8    0.00    0.03 
   3   2   8   -0.01    0.04 
  -3   2  -8   -0.03    0.06 
   4  -2   8    7.23    0.34 
   4  -2   8    7.68    0.24 
  -4  -2  -8    7.82    0.33 
  -4   2  -8    6.60    0.40 
   4   2   8    7.80    0.29 
   5  -2   8   15.42    0.56 
  -5  -2  -8   16.06    0.54 
   5  -2   8   15.25    0.43 
  -5   2  -8   15.79    0.67 
   5   2   8   16.59    0.50 
   6  -2   8   37.48    0.93 
  -6  -2  -8   38.34    1.04 
   6  -2   8   39.34    1.09 
  -6   2  -8   35.22    1.23 
   6   2   8   41.19    1.02 
   7  -2   8    0.16    0.09 
  -7  -2  -8    0.24    0.09 
   7  -2   8    0.24    0.10 
   7  -2   8    0.26    0.06 
  -7   2  -8    0.40    0.15 
   7   2   8    0.29    0.08 
   8  -2   8    1.09    0.16 
   8  -2   8    1.04    0.18 
  -8  -2  -8    1.57    0.17 
   8  -2   8    1.35    0.11 
  -8   2  -8    1.08    0.20 
   9  -2   8    4.47    0.32 
   9  -2   8    3.53    0.19 
   9  -2   8    4.47    0.31 
  -9  -2  -8    3.82    0.27 
  -9   2  -8    4.05    0.35 
 -10  -2  -8    5.10    0.32 
  10  -2   8    4.48    0.34 
  10  -2   8    5.05    0.23 
  10  -2   8    4.81    0.34 
 -10   2  -8    4.40    0.37 
 -11  -2  -8    1.57    0.20 
  11  -2   8    1.45    0.21 
  11  -2   8    1.43    0.22 
  11  -2   8    1.39    0.12 
 -11   2  -8    1.78    0.27 
  12  -2   8    0.34    0.16 
  12  -2   8    0.22    0.07 
 -12  -2  -8    0.44    0.14 
  13  -2   8    0.28    0.08 
 -13  -2  -8    0.18    0.12 
  14  -2   8    0.31    0.09 
  15  -2   8    0.75    0.11 
  19  -3  -8    1.52    0.24 
 -19  -3   8    1.76    0.27 
  19   3  -8    2.11    0.21 
  18  -3  -8    5.42    0.39 
 -18  -3   8    5.49    0.41 
  18  -3  -8    5.88    0.45 
  18   3  -8    5.74    0.32 
  17  -3  -8    0.00    0.10 
  17  -3  -8    0.11    0.11 
  17   3  -8    0.09    0.07 
  16  -3  -8    1.03    0.18 
  16  -3  -8    1.39    0.23 
  16   3  -8    1.11    0.14 
  15  -3  -8    1.12    0.17 
  15  -3  -8    0.73    0.18 
  15   3  -8    0.70    0.12 
  14  -3  -8    0.78    0.15 
  14  -3  -8    0.53    0.15 
  14   3  -8    0.70    0.11 
  13  -3  -8    0.91    0.17 
  13  -3  -8    0.83    0.15 
  13   3  -8    0.80    0.12 
  12  -3  -8    0.57    0.14 
  12  -3  -8    0.69    0.13 
  12   3  -8    0.65    0.11 
  12   3  -8    0.65    0.12 
  11  -3  -8   -0.06    0.06 
  11  -3  -8    0.08    0.07 
  11   3  -8    0.00    0.06 
  10  -3  -8    2.76    0.20 
 -10  -3   8    2.65    0.23 
  10  -3  -8    2.41    0.23 
  10   3  -8    2.73    0.20 
  -9  -3   8    0.65    0.13 
   9  -3  -8    0.57    0.10 
   9  -3  -8    0.86    0.14 
   9   3  -8    0.65    0.12 
  -8  -3   8   27.88    0.82 
   8  -3  -8   27.04    0.84 
   8  -3  -8   28.42    0.77 
   8   3  -8   26.87    0.87 
   7  -3  -8   24.68    0.69 
  -7  -3   8   24.80    0.74 
   7  -3  -8   23.88    0.75 
   7   3  -8   24.60    0.81 
   6  -3  -8   13.53    0.44 
   6  -3  -8   14.35    0.50 
  -6  -3   8   14.12    0.49 
   6   3  -8   13.50    0.55 
   5  -3  -8    8.03    0.34 
   5  -3  -8    7.74    0.29 
  -5  -3   8    8.29    0.34 
   5   3  -8    7.55    0.39 
   4  -3  -8   14.07    0.42 
   4  -3  -8   13.49    0.44 
   4  -3  -8   13.28    0.46 
  -4  -3   8   13.55    0.47 
   4   3  -8   13.24    0.56 
  -3  -3   8    2.86    0.19 
   3  -3  -8    2.59    0.16 
   3  -3  -8    2.67    0.17 
   3  -3  -8    2.92    0.17 
   3   3  -8    2.27    0.23 
  -2  -3   8    1.01    0.12 
   2  -3  -8    1.17    0.11 
   2  -3  -8    0.97    0.11 
   2  -3  -8    1.05    0.10 
   2   3  -8    1.09    0.17 
   1  -3  -8    0.55    0.07 
  -1  -3   8    0.51    0.10 
   1  -3  -8    0.53    0.08 
   1  -3  -8    0.51    0.09 
   1   3  -8    0.57    0.14 
   0  -3   8   30.07    0.83 
   0  -3  -8   29.71    0.77 
   0   3  -8   28.94    1.02 
  -1  -3  -8   17.73    0.52 
   1  -3   8   16.84    0.56 
  -1   3  -8   17.91    0.74 
   2  -3   8    9.30    0.38 
  -2  -3  -8    9.06    0.34 
  -2   3  -8    9.32    0.51 
  -3  -3  -8    9.64    0.36 
   3  -3   8    9.71    0.40 
  -3   3  -8    9.61    0.53 
   4  -3   8    8.22    0.37 
  -4  -3  -8    8.18    0.34 
  -4   3  -8    7.48    0.47 
  -5  -3  -8    0.55    0.10 
   5  -3   8    0.63    0.12 
  -5   3  -8    0.53    0.17 
  -6  -3  -8    0.75    0.12 
   6  -3   8    0.73    0.14 
  -6   3  -8    0.67    0.18 
  -7  -3  -8    0.43    0.11 
   7  -3   8    0.28    0.11 
  -7   3  -8    0.51    0.17 
   8  -3   8    0.32    0.14 
   8  -3   8    0.14    0.09 
  -8  -3  -8    0.22    0.10 
  -8   3  -8    0.16    0.13 
  -9  -3  -8    0.07    0.08 
   9  -3   8    0.00    0.10 
   9  -3   8    0.09    0.11 
  -9   3  -8   -0.10    0.11 
  10  -3   8   -0.01    0.09 
 -10  -3  -8   -0.02    0.08 
  10  -3   8    0.03    0.11 
 -10   3  -8   -0.03    0.12 
  11  -3   8    1.13    0.20 
 -11  -3  -8    0.98    0.18 
  11  -3   8    1.12    0.23 
 -11   3  -8    0.81    0.24 
  12  -3   8    1.28    0.22 
  12  -3   8    0.99    0.22 
 -12  -3  -8    1.09    0.19 
 -12   3  -8    0.82    0.24 
 -13  -3  -8    1.56    0.22 
  13  -3   8    1.36    0.26 
  14  -3   8    1.74    0.29 
 -14  -3  -8    1.18    0.21 
  18  -4  -8    0.49    0.17 
 -18  -4   8    0.15    0.14 
  18   4  -8    0.43    0.12 
  17  -4  -8    0.05    0.11 
  17   4  -8    0.05    0.09 
  16  -4  -8    0.09    0.13 
  16  -4  -8    0.15    0.11 
  16   4  -8    0.19    0.09 
  15  -4  -8    0.52    0.14 
  15  -4  -8    0.33    0.15 
  15   4  -8    0.61    0.12 
  14  -4  -8    1.13    0.22 
  14  -4  -8    1.54    0.20 
  14   4  -8    1.61    0.17 
  13  -4  -8    2.51    0.28 
  13  -4  -8    2.68    0.23 
  13   4  -8    2.69    0.22 
  13   4  -8    2.52    0.22 
  12  -4  -8    6.92    0.37 
  12  -4  -8    7.14    0.44 
  12   4  -8    7.33    0.38 
  11  -4  -8    0.06    0.07 
  11  -4  -8   -0.08    0.07 
  11   4  -8   -0.01    0.06 
 -10  -4   8    0.19    0.10 
  10  -4  -8    0.35    0.14 
  10  -4  -8    0.24    0.09 
  10   4  -8    0.26    0.10 
   9  -4  -8    0.75    0.11 
   9  -4  -8    0.66    0.15 
  -9  -4   8    0.66    0.13 
   9   4  -8    0.76    0.14 
   8  -4  -8   -0.02    0.05 
  -8  -4   8    0.10    0.08 
   8  -4  -8    0.04    0.08 
   8   4  -8    0.10    0.08 
   7  -4  -8    0.70    0.10 
   7  -4  -8    0.58    0.13 
  -7  -4   8    0.77    0.13 
   7   4  -8    0.54    0.14 
   6  -4  -8    2.68    0.17 
  -6  -4   8    2.92    0.21 
   6  -4  -8    2.64    0.23 
   6   4  -8    2.65    0.25 
   5  -4  -8    0.39    0.11 
   5  -4  -8    0.36    0.07 
  -5  -4   8    0.48    0.10 
   5   4  -8    0.47    0.14 
  -4  -4   8    0.64    0.11 
   4  -4  -8    0.85    0.10 
   4  -4  -8    0.62    0.12 
   4   4  -8    0.79    0.17 
   3  -4  -8    4.76    0.26 
   3  -4  -8    4.88    0.22 
  -3  -4   8    4.84    0.26 
   3   4  -8    4.98    0.36 
   2  -4  -8    0.06    0.05 
   2  -4  -8    0.14    0.07 
  -2  -4   8    0.05    0.06 
   2   4  -8    0.11    0.10 
   1  -4  -8    2.07    0.14 
  -1  -4   8    1.94    0.16 
   1   4  -8    2.14    0.27 
   0  -4  -8    9.49    0.34 
   0  -4   8    9.77    0.39 
   0   4  -8    9.75    0.55 
  -1  -4  -8    9.14    0.34 
   1  -4   8    9.21    0.38 
  -1   4  -8    8.76    0.53 
  -2  -4  -8    1.57    0.14 
   2  -4   8    1.38    0.15 
  -2   4  -8    1.19    0.23 
  -3  -4  -8    0.85    0.11 
   3  -4   8    1.05    0.14 
  -3   4  -8    0.63    0.19 
   4  -4   8    0.30    0.10 
  -4  -4  -8    0.19    0.08 
  -4   4  -8    0.38    0.16 
  -5  -4  -8    0.16    0.08 
   5  -4   8    0.26    0.10 
  -5   4  -8    0.14    0.14 
   6  -4   8    0.81    0.15 
  -6  -4  -8    0.67    0.12 
  -6   4  -8    0.80    0.22 
  -7  -4  -8    0.64    0.13 
   7  -4   8    0.57    0.14 
  -7   4  -8    0.51    0.19 
   8  -4   8    5.49    0.35 
  -8  -4  -8    5.08    0.31 
  -8   4  -8    4.94    0.46 
   9  -4   8    3.21    0.29 
  -9  -4  -8    2.67    0.24 
  -9   4  -8    3.58    0.41 
  10  -4   8    0.27    0.13 
 -10  -4  -8    0.15    0.12 
  11  -4   8    0.31    0.15 
 -11  -4  -8    0.63    0.16 
  12  -4   8    0.00    0.11 
 -12  -4  -8    0.04    0.10 
  15  -5  -8    3.26    0.29 
  15   5  -8    3.89    0.27 
  14  -5  -8    2.72    0.34 
  14  -5  -8    2.62    0.25 
  14   5  -8    2.84    0.24 
  13  -5  -8    2.31    0.31 
  13  -5  -8    2.38    0.23 
  13   5  -8    2.51    0.24 
  12  -5  -8    2.58    0.22 
  12  -5  -8    2.59    0.31 
  12   5  -8    2.08    0.23 
  11  -5  -8    4.40    0.38 
  11  -5  -8    4.02    0.27 
  11   5  -8    4.42    0.31 
  10  -5  -8    7.90    0.37 
  10  -5  -8    8.35    0.50 
  10   5  -8    8.38    0.45 
   9  -5  -8   10.64    0.42 
   9  -5  -8   11.10    0.57 
  -9  -5   8   10.78    0.47 
   9   5  -8   11.43    0.55 
   8  -5  -8    9.22    0.50 
   8  -5  -8    8.79    0.36 
  -8  -5   8    9.01    0.42 
   8   5  -8    9.36    0.50 
  -7  -5   8    4.90    0.29 
   7  -5  -8    5.09    0.35 
   7  -5  -8    4.23    0.23 
   7   5  -8    5.10    0.37 
  -6  -5   8    0.06    0.08 
   6  -5  -8    0.24    0.12 
   6  -5  -8    0.15    0.07 
   6   5  -8    0.11    0.11 
   5  -5  -8    1.51    0.20 
  -5  -5   8    1.49    0.16 
   5  -5  -8    1.54    0.13 
   5   5  -8    1.49    0.23 
   4  -5  -8    1.25    0.18 
   4  -5  -8    1.10    0.11 
  -4  -5   8    0.66    0.12 
   4   5  -8    1.04    0.21 
   3  -5  -8    0.09    0.05 
  -3  -5   8    0.04    0.07 
   3   5  -8    0.07    0.11 
  -2  -5   8    0.01    0.06 
   2  -5  -8    0.03    0.05 
   2   5  -8   -0.05    0.09 
   1  -5  -8   -0.01    0.04 
  -1  -5   8   -0.02    0.06 
   1   5  -8   -0.05    0.09 
   0  -5   8    0.12    0.08 
   0  -5  -8    0.11    0.06 
   0   5  -8   -0.06    0.09 
   1  -5   8    0.08    0.07 
  -1  -5  -8    0.06    0.06 
  -1   5  -8    0.05    0.11 
   2  -5   8    3.69    0.25 
  -2  -5  -8    3.77    0.21 
  -2   5  -8    3.91    0.40 
   3  -5   8    7.19    0.36 
  -3  -5  -8    7.53    0.32 
  -3   5  -8    7.22    0.54 
   4  -5   8    5.46    0.32 
  -4  -5  -8    5.57    0.28 
  -4   5  -8    5.39    0.49 
   5  -5   8    4.54    0.30 
  -5  -5  -8    4.81    0.27 
  -5   5  -8    4.34    0.45 
   6  -5   8    3.18    0.26 
  -6  -5  -8    3.02    0.23 
   7  -5   8    1.59    0.21 
  -7  -5  -8    1.36    0.17 
   8  -5   8   -0.07    0.09 
  -8  -5  -8    0.03    0.09 
  -9  -5  -8   -0.12    0.08 
   9  -5   8   -0.03    0.10 
  10  -5   8    8.41    0.49 
 -10  -5  -8    7.82    0.43 
  12  -6  -8    0.68    0.15 
  12  -6  -8    0.80    0.23 
  11  -6  -8    0.98    0.16 
  11  -6  -8    0.81    0.23 
  10  -6  -8    0.03    0.15 
  10  -6  -8    0.21    0.10 
  -9  -6   8    0.33    0.12 
   9  -6  -8    0.48    0.18 
   9  -6  -8    0.38    0.11 
   8  -6  -8    0.05    0.07 
   8  -6  -8    0.06    0.13 
  -8  -6   8    0.07    0.09 
  -7  -6   8    0.16    0.10 
   7  -6  -8    0.05    0.06 
   7   6  -8    0.13    0.13 
   6  -6  -8    0.07    0.06 
  -6  -6   8    0.30    0.11 
   6   6  -8    0.27    0.15 
   5  -6  -8    2.26    0.16 
  -5  -6   8    1.84    0.19 
   5   6  -8    1.96    0.28 
   4  -6  -8    0.43    0.08 
  -4  -6   8    0.34    0.10 
   4   6  -8    0.71    0.21 
  -3  -6   8    1.82    0.18 
   3  -6  -8    1.28    0.12 
   3   6  -8    1.36    0.26 
   2  -6  -8    0.88    0.10 
  -2  -6   8    0.83    0.14 
   1  -6  -8    2.16    0.15 
  -1  -6   8    2.06    0.19 
   0  -6   8    0.53    0.12 
   0  -6  -8    0.66    0.10 
  -1  -6  -8    3.69    0.21 
   1  -6   8    3.36    0.25 
   2  -6   8    0.12    0.09 
  -2  -6  -8    0.26    0.08 
   3  -6   8    0.13    0.10 
  -3  -6  -8    0.25    0.08 
  -4  -6  -8   -0.08    0.06 
   4  -6   8    0.03    0.09 
  -5  -6  -8    0.08    0.08 
   5  -6   8    0.11    0.11 
   6  -6   8    0.37    0.14 
  -6  -6  -8    0.25    0.10 
   7  -6   8    1.02    0.19 
  -7  -6  -8    0.53    0.13 
  -5  -7   8    2.17    0.21 
   5  -7  -8    2.38    0.17 
   4  -7  -8    1.76    0.14 
  -4  -7   8    2.01    0.20 
  -3  -7   8    0.22    0.10 
   3  -7  -8    0.10    0.06 
  -2  -7   8    0.02    0.09 
   2  -7  -8    0.19    0.07 
  -1  -7   8   -0.02    0.09 
   1  -7  -8    0.01    0.06 
   0  -7  -8    1.63    0.14 
   0  -7   8    1.34    0.17 
  21   0  -9   -0.05    0.10 
 -21   0   9   -0.08    0.11 
 -20   0   9    0.17    0.11 
  20   0  -9    0.00    0.10 
  20   0  -9   -0.14    0.07 
 -19   0   9   -0.01    0.08 
  19   0  -9    0.07    0.09 
  19   0  -9   -0.12    0.06 
 -18   0   9    0.01    0.07 
  18   0  -9   -0.04    0.06 
  18   0  -9   -0.01    0.07 
  17   0  -9    0.02    0.07 
  17   0  -9    0.00    0.06 
 -17   0   9    0.02    0.07 
 -16   0   9   -0.02    0.07 
  16   0  -9    0.01    0.06 
  16   0  -9   -0.06    0.05 
  15   0  -9   -0.03    0.05 
  15   0  -9    0.04    0.06 
 -15   0   9   -0.09    0.06 
  14   0  -9   -0.02    0.06 
 -14   0   9   -0.07    0.06 
  14   0  -9   -0.08    0.06 
  13   0  -9   -0.03    0.06 
 -13   0   9   -0.17    0.05 
  13   0  -9   -0.11    0.08 
  13   0  -9    0.05    0.06 
  12   0  -9   -0.07    0.06 
  12   0  -9    0.10    0.06 
 -12   0   9   -0.01    0.05 
  12   0  -9    0.02    0.05 
  11   0  -9    0.07    0.05 
  11   0  -9   -0.05    0.04 
  11   0  -9    0.09    0.05 
 -11   0   9   -0.03    0.04 
  10   0  -9   -0.01    0.05 
 -10   0   9   -0.03    0.04 
  10   0  -9   -0.01    0.03 
  10   0  -9   -0.04    0.03 
   9   0  -9    0.00    0.05 
   9   0  -9   -0.02    0.03 
  -9   0   9   -0.03    0.04 
   9   0  -9   -0.04    0.03 
  -8   0   9   -0.02    0.05 
   8   0  -9    0.00    0.03 
   8   0  -9   -0.05    0.03 
  -8   0   9   -0.02    0.03 
   8   0  -9   -0.01    0.03 
  -7   0   9   -0.01    0.04 
   7   0  -9    0.02    0.04 
  -7   0   9   -0.07    0.02 
   7   0  -9   -0.01    0.03 
   7   0  -9    0.01    0.03 
  -6   0   9   -0.02    0.04 
   6   0  -9   -0.01    0.03 
   6   0  -9   -0.05    0.03 
  -6   0   9   -0.02    0.03 
   5   0  -9   -0.08    0.02 
   5   0  -9   -0.04    0.04 
  -5   0   9   -0.05    0.04 
   5   0  -9   -0.03    0.03 
  -5   0   9   -0.04    0.03 
   4   0  -9    0.20    0.06 
   4   0  -9    0.00    0.03 
  -4   0   9    0.02    0.04 
  -4   0   9   -0.02    0.03 
   3   0  -9    0.01    0.03 
  -3   0   9    0.05    0.04 
  -3   0   9   -0.06    0.02 
   3   0  -9   -0.01    0.03 
   2   0  -9    0.00    0.03 
  -2   0   9   -0.06    0.04 
  -2   0   9   -0.05    0.02 
   2   0  -9   -0.02    0.03 
  -1   0   9   -0.08    0.02 
  -1   0   9   -0.08    0.04 
   1   0  -9   -0.01    0.03 
   1   0  -9   -0.05    0.04 
   0   0   9    0.03    0.04 
   0   0   9    0.03    0.05 
   0   0  -9    0.02    0.03 
   0   0   9    0.02    0.03 
   0   0  -9   -0.01    0.04 
   1   0   9    0.00    0.03 
   1   0   9   -0.05    0.05 
  -1   0  -9   -0.04    0.03 
   1   0   9    0.01    0.04 
  -1   0  -9   -0.03    0.04 
  -2   0  -9   -0.04    0.04 
   2   0   9   -0.03    0.04 
  -2   0  -9   -0.02    0.05 
   2   0   9   -0.14    0.04 
   3   0   9    0.01    0.04 
  -3   0  -9   -0.02    0.05 
   3   0   9    0.02    0.06 
  -3   0  -9   -0.03    0.05 
  -4   0  -9    0.04    0.06 
   4   0   9    0.07    0.06 
   4   0   9   -0.01    0.04 
  -4   0  -9   -0.09    0.04 
  -5   0  -9    0.03    0.05 
  -5   0  -9   -0.01    0.06 
   5   0   9   -0.03    0.06 
   5   0   9   -0.09    0.03 
   6   0   9   -0.14    0.04 
   6   0   9   -0.03    0.05 
  -6   0  -9   -0.01    0.05 
  -6   0  -9   -0.06    0.06 
   7   0   9    0.02    0.05 
  -7   0  -9   -0.05    0.06 
  -7   0  -9   -0.03    0.06 
  -8   0  -9   -0.01    0.07 
   8   0   9   -0.10    0.05 
   9   0   9   -0.09    0.06 
  10   0   9   -0.09    0.06 
  11   0   9   -0.18    0.06 
  12   0   9   -0.04    0.07 
  13   0   9    0.06    0.08 
  14   0   9    0.15    0.09 
  15   0   9    0.07    0.09 
 -21  -1   9    3.97    0.27 
  21  -1  -9    3.90    0.25 
  21   1  -9    3.91    0.30 
  20  -1  -9   -0.06    0.07 
 -20  -1   9    0.00    0.08 
  20   1  -9    0.02    0.08 
  20   1  -9    0.13    0.09 
  19  -1  -9    0.06    0.08 
 -19  -1   9    0.01    0.08 
  19  -1  -9    0.04    0.11 
  19   1  -9    0.08    0.09 
  19   1  -9    0.00    0.08 
 -18  -1   9    0.43    0.11 
  18  -1  -9    0.31    0.13 
  18  -1  -9    0.23    0.09 
  18   1  -9    0.39    0.11 
  18   1  -9    0.36    0.11 
  17  -1  -9    1.21    0.13 
 -17  -1   9    1.10    0.14 
  17   1  -9    1.19    0.15 
  17   1  -9    1.16    0.15 
  16  -1  -9    0.69    0.14 
  16  -1  -9    0.50    0.10 
 -16  -1   9    0.42    0.10 
  16   1  -9    0.44    0.11 
  16   1  -9    0.50    0.11 
  15  -1  -9    0.47    0.14 
  15  -1  -9    0.52    0.12 
  15  -1  -9    0.42    0.09 
 -15  -1   9    0.54    0.10 
  15   1  -9    0.24    0.09 
  15   1  -9    0.49    0.10 
 -14  -1   9   13.39    0.47 
  14  -1  -9   13.23    0.45 
  14  -1  -9   12.79    0.54 
  14  -1  -9   12.80    0.51 
  14   1  -9   13.26    0.48 
  14   1  -9   12.99    0.47 
 -13  -1   9   48.48    1.24 
  13  -1  -9   49.97    1.32 
  13  -1  -9   47.95    1.30 
  13  -1  -9   51.04    1.22 
  13   1  -9   49.19    1.26 
  13   1  -9   46.10    1.24 
  12  -1  -9    1.87    0.18 
 -12  -1   9    1.93    0.15 
  12  -1  -9    1.98    0.14 
  12  -1  -9    1.67    0.16 
  12   1  -9    1.64    0.14 
  12   1  -9    1.98    0.15 
  11  -1  -9    1.85    0.13 
  11  -1  -9    2.03    0.16 
  11  -1  -9    1.77    0.17 
 -11  -1   9    2.05    0.14 
  11   1  -9    1.81    0.14 
  11   1  -9    1.70    0.14 
  10  -1  -9   -0.02    0.04 
  10  -1  -9    0.07    0.05 
 -10  -1   9   -0.05    0.03 
  10   1  -9    0.02    0.05 
  10   1  -9    0.03    0.04 
  10   1  -9   -0.01    0.04 
  -9  -1   9    0.73    0.08 
   9  -1  -9    0.64    0.10 
   9  -1  -9    0.77    0.09 
  -9  -1   9    0.69    0.12 
   9   1  -9    0.73    0.09 
   9   1  -9    0.68    0.10 
   9   1  -9    0.66    0.08 
   8  -1  -9   13.69    0.42 
   8  -1  -9   13.39    0.46 
  -8  -1   9   13.53    0.49 
  -8  -1   9   13.44    0.41 
   8   1  -9   12.98    0.45 
   8   1  -9   13.17    0.42 
   8   1  -9   13.45    0.46 
   8   1  -9   13.71    0.43 
   7  -1  -9   21.88    0.60 
   7  -1  -9   21.85    0.64 
  -7  -1   9   22.35    0.68 
  -7  -1   9   22.61    0.60 
   7   1  -9   22.64    0.64 
   7   1  -9   22.65    0.67 
  -7   1   9   22.37    0.62 
   7   1  -9   21.92    0.61 
   6  -1  -9   18.68    0.51 
  -6  -1   9   18.52    0.52 
  -6  -1   9   17.93    0.59 
   6  -1  -9   18.28    0.55 
   6   1  -9   18.28    0.55 
  -6   1   9   19.67    0.53 
  -6   1   9   19.08    0.57 
   6   1  -9   19.35    0.59 
   6   1  -9   18.43    0.52 
  -5  -1   9   34.71    0.93 
  -5  -1   9   35.04    0.86 
   5  -1  -9   35.95    0.90 
   5  -1  -9   33.97    0.84 
   5   1  -9   34.14    0.96 
  -5   1   9   34.06    0.87 
   5   1  -9   34.51    0.87 
   5   1  -9   34.70    0.89 
  -5   1   9   35.27    0.91 
  -4  -1   9   15.86    0.45 
   4  -1  -9   15.77    0.49 
  -4  -1   9   14.87    0.51 
   4  -1  -9   15.88    0.42 
  -4   1   9   16.90    0.51 
   4   1  -9   16.37    0.48 
   4   1  -9   15.97    0.52 
  -4   1   9   15.97    0.46 
  -3  -1   9    8.48    0.28 
  -3  -1   9    8.40    0.34 
   3  -1  -9    8.66    0.25 
   3  -1  -9    8.87    0.32 
   3   1  -9    8.19    0.34 
   3   1  -9    8.54    0.31 
  -3   1   9    8.52    0.29 
  -3   1   9    8.64    0.33 
  -2  -1   9    3.69    0.22 
  -2  -1   9    3.77    0.17 
   2  -1  -9    3.82    0.20 
   2  -1  -9    3.82    0.13 
   2   1  -9    3.86    0.20 
  -2   1   9    3.63    0.17 
  -2   1   9    3.72    0.20 
   2   1  -9    3.81    0.22 
  -2   1   9    3.51    0.17 
  -1  -1   9    3.28    0.15 
   1  -1  -9    3.07    0.11 
   1  -1  -9    2.95    0.18 
  -1  -1   9    2.71    0.19 
  -1   1   9    2.76    0.15 
   1   1  -9    3.76    0.22 
   1   1  -9    2.96    0.17 
  -1   1   9    3.09    0.15 
  -1   1   9    2.91    0.18 
   0  -1   9    1.67    0.11 
   0  -1  -9    1.46    0.13 
   0  -1   9    1.21    0.13 
   0  -1  -9    1.33    0.06 
   0   1  -9    1.15    0.14 
   0   1  -9    1.12    0.11 
   0   1   9    1.44    0.13 
   0   1   9    1.17    0.10 
   0   1   9    1.27    0.10 
   1  -1   9    0.78    0.08 
   1  -1   9    0.77    0.12 
  -1  -1  -9    0.79    0.04 
  -1  -1  -9    0.89    0.11 
  -1  -1  -9    0.82    0.06 
  -1   1  -9    0.88    0.12 
  -1   1  -9    0.88    0.11 
   1   1   9    0.68    0.07 
   1   1   9    0.79    0.09 
   1   1   9    0.74    0.11 
   2  -1   9    0.05    0.04 
   2  -1   9    0.21    0.08 
  -2  -1  -9    0.07    0.06 
  -2  -1  -9    0.11    0.02 
  -2  -1  -9    0.10    0.02 
   2   1   9    0.14    0.07 
  -2   1  -9    0.07    0.06 
   2   1   9    0.03    0.04 
  -2   1  -9    0.07    0.06 
   3  -1   9    0.25    0.06 
  -3  -1  -9    0.27    0.03 
   3  -1   9    0.25    0.09 
  -3  -1  -9    0.27    0.08 
   3   1   9    0.40    0.10 
  -3   1  -9    0.22    0.08 
  -3   1  -9    0.18    0.07 
   3   1   9    0.21    0.06 
   4  -1   9    2.31    0.19 
  -4  -1  -9    2.46    0.19 
   4  -1   9    2.25    0.15 
  -4   1  -9    2.89    0.20 
   4   1   9    2.23    0.16 
  -4   1  -9    2.26    0.21 
   5  -1   9    4.10    0.26 
   5  -1   9    4.18    0.21 
  -5  -1  -9    4.57    0.26 
   5   1   9    4.38    0.23 
  -5   1  -9    4.13    0.28 
   6  -1   9   -0.01    0.07 
  -6  -1  -9   -0.06    0.06 
   6  -1   9   -0.06    0.04 
   6   1   9   -0.09    0.04 
  -6   1  -9   -0.03    0.06 
  -7  -1  -9    6.13    0.33 
   7  -1   9    6.27    0.35 
   7  -1   9    6.25    0.27 
   7   1   9    6.06    0.29 
  -7   1  -9    5.31    0.34 
   8  -1   9    0.33    0.09 
  -8  -1  -9    0.46    0.13 
   8  -1   9    0.36    0.11 
   8  -1   9    0.38    0.13 
   8   1   9    0.44    0.10 
  -8   1  -9    0.24    0.11 
   9  -1   9    6.21    0.36 
   9  -1   9    6.36    0.30 
  -9  -1  -9    6.33    0.35 
   9   1   9    6.02    0.31 
  10  -1   9    0.39    0.09 
 -10  -1  -9    0.36    0.13 
  10   1   9    0.42    0.11 
  11  -1   9   -0.04    0.06 
  11   1   9    0.01    0.07 
  12  -1   9    1.04    0.14 
  12   1   9    1.51    0.17 
  13  -1   9   -0.03    0.06 
  13   1   9   -0.06    0.07 
  14  -1   9    0.02    0.07 
  14   1   9    0.11    0.10 
 -20  -2   9    0.01    0.06 
  20   2  -9    0.19    0.11 
 -19  -2   9    1.84    0.14 
  19  -2  -9    2.28    0.29 
  19   2  -9    1.72    0.20 
  19   2  -9    1.87    0.20 
 -18  -2   9    0.21    0.07 
  18  -2  -9    0.15    0.12 
  18   2  -9    0.22    0.11 
  18   2  -9    0.30    0.10 
  17  -2  -9    0.19    0.11 
  17  -2  -9    0.03    0.11 
 -17  -2   9    0.21    0.06 
  17   2  -9    0.30    0.10 
  17   2  -9    0.23    0.10 
  16  -2  -9    0.04    0.10 
 -16  -2   9    0.13    0.06 
  16  -2  -9    0.06    0.09 
  16   2  -9    0.12    0.08 
  16   2  -9    0.21    0.09 
  15  -2  -9    4.19    0.30 
  15  -2  -9    3.72    0.29 
 -15  -2   9    4.06    0.19 
  15   2  -9    3.95    0.24 
  15   2  -9    3.58    0.24 
  14  -2  -9    2.98    0.26 
 -14  -2   9    3.33    0.17 
  14  -2  -9    4.23    0.28 
  14   2  -9    3.37    0.21 
  14   2  -9    3.50    0.22 
  13  -2  -9    0.05    0.07 
  13  -2  -9    0.19    0.10 
 -13  -2   9    0.08    0.05 
  13   2  -9    0.21    0.08 
  13   2  -9    0.01    0.05 
 -12  -2   9   -0.06    0.03 
  12  -2  -9   -0.10    0.05 
  12  -2  -9    0.00    0.06 
  12   2  -9   -0.02    0.05 
  12   2  -9   -0.01    0.05 
  11  -2  -9   26.13    0.78 
 -11  -2   9   25.79    0.65 
  11  -2  -9   24.34    0.79 
  11   2  -9   26.00    0.79 
  11   2  -9   26.94    0.74 
  11   2  -9   24.38    0.74 
  10  -2  -9    3.12    0.21 
 -10  -2   9    3.25    0.24 
  10  -2  -9    2.86    0.21 
 -10  -2   9    2.91    0.14 
  10   2  -9    3.29    0.21 
  10   2  -9    3.01    0.18 
  -9  -2   9   -0.03    0.03 
   9  -2  -9    0.00    0.04 
  -9  -2   9   -0.04    0.06 
   9  -2  -9   -0.02    0.04 
   9   2  -9    0.03    0.05 
   9   2  -9   -0.04    0.03 
   8  -2  -9    8.16    0.33 
  -8  -2   9    7.97    0.37 
  -8  -2   9    8.50    0.24 
   8  -2  -9    8.39    0.34 
  -8  -2   9    8.57    0.25 
   8   2  -9    8.87    0.37 
   8   2  -9    8.33    0.31 
  -7  -2   9    0.01    0.06 
   7  -2  -9    0.04    0.05 
   7  -2  -9    0.02    0.04 
  -7  -2   9    0.05    0.02 
  -7  -2   9    0.07    0.02 
   7   2  -9    0.06    0.05 
   7   2  -9    0.02    0.03 
  -6  -2   9    0.74    0.05 
   6  -2  -9    0.93    0.10 
  -6  -2   9    0.64    0.11 
   6  -2  -9    0.89    0.11 
  -6  -2   9    0.71    0.05 
   6   2  -9    0.86    0.12 
   6   2  -9    0.64    0.07 
   5  -2  -9    6.36    0.27 
  -5  -2   9    6.64    0.19 
   5  -2  -9    6.16    0.25 
  -5  -2   9    6.74    0.19 
  -5  -2   9    6.85    0.31 
   5   2  -9    6.75    0.33 
   5   2  -9    6.83    0.25 
   5   2  -9    7.03    0.27 
   4  -2  -9    0.02    0.05 
  -4  -2   9    0.00    0.02 
  -4  -2   9    0.09    0.07 
   4  -2  -9    0.09    0.04 
  -4  -2   9    0.02    0.02 
   4   2  -9    0.09    0.06 
   4   2  -9    0.08    0.05 
  -4   2   9    0.06    0.04 
   4   2  -9    0.01    0.03 
   3  -2  -9    3.89    0.17 
   3  -2  -9    3.83    0.21 
  -3  -2   9    3.66    0.13 
  -3  -2   9    4.13    0.24 
   3  -2  -9    3.32    0.21 
  -3  -2   9    3.84    0.13 
   3   2  -9    3.83    0.20 
  -3   2   9    3.80    0.18 
   3   2  -9    4.27    0.27 
   3   2  -9    4.03    0.18 
   2  -2  -9   69.77    1.61 
  -2  -2   9   68.21    1.65 
   2  -2  -9   68.58    1.57 
  -2  -2   9   67.11    1.53 
  -2  -2   9   68.25    1.53 
   2  -2  -9   68.59    1.63 
  -2   2   9   70.00    1.60 
   2   2  -9   66.53    1.85 
   2   2  -9   71.56    1.59 
  -2   2   9   72.18    1.66 
  -1  -2   9   21.84    0.53 
  -1  -2   9   21.82    0.67 
  -1  -2   9   21.77    0.53 
   1  -2  -9   22.44    0.55 
   1  -2  -9   22.85    0.64 
  -1   2   9   22.47    0.60 
   1   2  -9   21.98    0.77 
  -1   2   9   22.75    0.58 
   1   2  -9   22.79    0.62 
   0  -2   9   11.94    0.32 
   0  -2   9   11.70    0.32 
   0  -2  -9   12.49    0.41 
   0  -2   9   12.30    0.44 
   0   2  -9   12.20    0.52 
   0   2   9   11.96    0.34 
   0   2   9   11.91    0.37 
  -1  -2  -9    3.42    0.20 
   1  -2   9    3.23    0.13 
   1  -2   9    3.05    0.13 
   1  -2   9    3.13    0.21 
  -1   2  -9    2.96    0.25 
   1   2   9    3.22    0.17 
   2  -2   9    0.75    0.12 
   2  -2   9    0.73    0.06 
  -2  -2  -9    0.62    0.10 
  -2   2  -9    0.76    0.15 
   2   2   9    0.84    0.09 
   3  -2   9    3.20    0.14 
   3  -2   9    3.38    0.23 
  -3  -2  -9    3.37    0.21 
   3   2   9    3.19    0.18 
  -3   2  -9    3.07    0.27 
   4  -2   9    0.67    0.07 
  -4  -2  -9    0.56    0.10 
   4  -2   9    0.75    0.13 
  -4   2  -9    0.69    0.16 
   4   2   9    0.68    0.09 
   5  -2   9    0.05    0.09 
   5  -2   9   -0.06    0.04 
  -5  -2  -9   -0.02    0.08 
   5   2   9    0.04    0.07 
  -5   2  -9    0.04    0.09 
  -6  -2  -9   10.55    0.44 
   6  -2   9   10.95    0.35 
   6  -2   9   10.71    0.47 
  -6   2  -9   10.97    0.55 
   6   2   9   10.70    0.40 
   7  -2   9    6.83    0.38 
   7  -2   9    6.63    0.25 
  -7  -2  -9    6.01    0.34 
  -7   2  -9    6.06    0.41 
   8  -2   9    0.50    0.14 
   8  -2   9    0.55    0.08 
  -8  -2  -9    0.56    0.13 
  -8   2  -9    0.60    0.17 
   9  -2   9    2.53    0.16 
  -9  -2  -9    2.47    0.23 
   9  -2   9    2.30    0.26 
   9  -2   9    2.87    0.26 
  -9   2  -9    2.65    0.29 
  10  -2   9    0.85    0.10 
  10  -2   9    1.11    0.20 
  10  -2   9    1.03    0.19 
 -10  -2  -9    0.77    0.16 
 -10   2  -9    1.00    0.21 
  11  -2   9    0.16    0.13 
  11  -2   9    0.14    0.07 
 -11  -2  -9    0.05    0.10 
 -12  -2  -9    0.32    0.13 
  12  -2   9    0.45    0.09 
  13  -2   9    0.13    0.07 
  14  -2   9    0.05    0.07 
 -19  -3   9   -0.04    0.11 
  19  -3  -9    0.08    0.13 
  19   3  -9    0.14    0.10 
  18  -3  -9    1.84    0.24 
  18  -3  -9    1.47    0.26 
  18   3  -9    1.26    0.17 
  17  -3  -9    0.53    0.16 
  17  -3  -9    0.86    0.21 
  17   3  -9    0.66    0.13 
  16  -3  -9   -0.12    0.08 
  16  -3  -9    0.03    0.10 
  16   3  -9    0.04    0.07 
  15  -3  -9   -0.03    0.08 
  15  -3  -9    0.03    0.08 
  15   3  -9    0.02    0.06 
  14  -3  -9    0.74    0.15 
  14  -3  -9    0.70    0.17 
  14   3  -9    0.85    0.13 
  13  -3  -9    0.10    0.09 
  13  -3  -9    0.03    0.08 
  13   3  -9    0.08    0.06 
  12  -3  -9   -0.02    0.07 
  12  -3  -9    0.06    0.07 
  12   3  -9    0.01    0.06 
  12   3  -9    0.00    0.06 
  11  -3  -9    0.04    0.07 
  11  -3  -9    0.08    0.08 
  11   3  -9    0.11    0.07 
 -10  -3   9    7.17    0.37 
  10  -3  -9    6.70    0.36 
  10  -3  -9    6.97    0.33 
  10   3  -9    6.34    0.34 
  -9  -3   9    8.34    0.39 
   9  -3  -9    6.74    0.36 
   9  -3  -9    7.26    0.33 
   9   3  -9    7.74    0.37 
   8  -3  -9    1.07    0.13 
  -8  -3   9    0.94    0.14 
   8  -3  -9    1.02    0.14 
   8   3  -9    0.83    0.14 
  -7  -3   9    0.87    0.13 
   7  -3  -9    0.63    0.11 
   7  -3  -9    0.74    0.10 
   7   3  -9    0.82    0.14 
  -6  -3   9    0.09    0.06 
   6  -3  -9    0.11    0.07 
   6  -3  -9    0.08    0.06 
   6   3  -9    0.13    0.08 
   5  -3  -9    1.13    0.13 
   5  -3  -9    1.38    0.12 
  -5  -3   9    0.94    0.13 
   5   3  -9    1.03    0.16 
   4  -3  -9    0.01    0.05 
  -4  -3   9   -0.08    0.05 
   4  -3  -9   -0.01    0.04 
   4   3  -9   -0.07    0.05 
  -3  -3   9    1.52    0.16 
   3  -3  -9    1.74    0.14 
   3  -3  -9    1.66    0.13 
   3   3  -9    1.54    0.20 
  -2  -3   9    5.73    0.29 
   2  -3  -9    6.05    0.26 
   2  -3  -9    6.42    0.25 
   2   3  -9    6.00    0.38 
  -1  -3   9    3.31    0.22 
   1  -3  -9    3.35    0.20 
   1  -3  -9    3.71    0.17 
   1   3  -9    3.67    0.30 
   0  -3  -9    7.63    0.31 
   0  -3   9    8.24    0.35 
   0   3  -9    7.42    0.45 
  -1  -3  -9    5.28    0.25 
   1  -3   9    5.42    0.29 
  -1   3  -9    4.53    0.35 
   2  -3   9    5.08    0.29 
  -2  -3  -9    5.55    0.27 
  -2   3  -9    4.91    0.37 
   3  -3   9    3.74    0.25 
  -3  -3  -9    3.95    0.23 
  -3   3  -9    3.69    0.34 
   4  -3   9    0.19    0.09 
  -4  -3  -9    0.09    0.07 
  -4   3  -9    0.13    0.12 
   5  -3   9    1.52    0.18 
  -5  -3  -9    1.44    0.15 
  -5   3  -9    1.37    0.23 
  -6  -3  -9    0.79    0.13 
   6  -3   9    1.14    0.17 
  -6   3  -9    0.72    0.20 
   7  -3   9    0.05    0.08 
  -7  -3  -9    0.13    0.09 
  -7   3  -9   -0.02    0.12 
  -8  -3  -9    3.02    0.24 
   8  -3   9    2.50    0.25 
  -8   3  -9    2.95    0.34 
   9  -3   9    0.64    0.16 
  -9  -3  -9    0.91    0.16 
  -9   3  -9    0.58    0.19 
  10  -3   9    0.48    0.15 
 -10  -3  -9    0.46    0.14 
 -10   3  -9    0.46    0.20 
  11  -3   9    0.95    0.20 
 -11  -3  -9    0.88    0.17 
 -11   3  -9    1.12    0.26 
 -12  -3  -9    0.46    0.15 
  12  -3   9    0.29    0.16 
  12  -3   9    0.57    0.18 
 -13  -3  -9    0.27    0.14 
  18  -4  -9    0.59    0.18 
  17  -4  -9    0.76    0.18 
  17   4  -9    1.03    0.16 
  16  -4  -9    0.35    0.17 
  16  -4  -9    0.29    0.12 
  16   4  -9    0.11    0.08 
  15  -4  -9    0.19    0.11 
  15  -4  -9    0.03    0.13 
  15   4  -9    0.04    0.07 
  14  -4  -9    3.04    0.32 
  14  -4  -9    2.65    0.24 
  14   4  -9    2.56    0.22 
  14   4  -9    2.76    0.24 
  13  -4  -9    0.14    0.12 
  13  -4  -9    0.26    0.10 
  13   4  -9   -0.01    0.07 
  13   4  -9    0.11    0.09 
  12  -4  -9    2.19    0.26 
  12  -4  -9    2.31    0.21 
  12   4  -9    3.05    0.24 
  11  -4  -9    2.89    0.22 
  11  -4  -9    3.02    0.29 
  11   4  -9    2.47    0.23 
  10  -4  -9    0.70    0.12 
  10  -4  -9    0.39    0.14 
 -10  -4   9    0.65    0.14 
  10   4  -9    0.48    0.13 
   9  -4  -9    0.29    0.12 
  -9  -4   9    0.11    0.09 
   9  -4  -9    0.24    0.09 
   9   4  -9    0.21    0.10 
   8  -4  -9    0.54    0.10 
   8  -4  -9    0.36    0.12 
  -8  -4   9    0.56    0.12 
   8   4  -9    0.45    0.13 
  -7  -4   9    0.24    0.09 
   7  -4  -9    0.37    0.12 
   7  -4  -9    0.35    0.08 
   7   4  -9    0.40    0.12 
  -6  -4   9    0.54    0.11 
   6  -4  -9    0.87    0.14 
   6  -4  -9    0.72    0.10 
   6   4  -9    0.62    0.15 
  -5  -4   9    4.05    0.25 
   5  -4  -9    3.96    0.21 
   5  -4  -9    4.63    0.28 
   5   4  -9    4.07    0.32 
   4  -4  -9    0.21    0.09 
   4  -4  -9    0.17    0.07 
  -4  -4   9    0.36    0.10 
   4   4  -9    0.07    0.08 
  -3  -4   9    8.45    0.37 
   3  -4  -9    8.06    0.35 
   3  -4  -9    7.82    0.31 
   3   4  -9    7.38    0.46 
   2  -4  -9    0.99    0.11 
  -2  -4   9    0.69    0.12 
   2   4  -9    0.95    0.20 
  -1  -4   9    0.39    0.10 
   1  -4  -9    0.66    0.10 
   1   4  -9    0.62    0.17 
   0  -4  -9    1.77    0.15 
   0  -4   9    1.78    0.17 
   0   4  -9    1.39    0.23 
   1  -4   9    0.08    0.08 
  -1  -4  -9    0.10    0.07 
  -1   4  -9    0.23    0.13 
   2  -4   9    3.99    0.26 
  -2  -4  -9    3.42    0.21 
  -2   4  -9    3.28    0.34 
   3  -4   9    0.47    0.11 
  -3  -4  -9    0.32    0.09 
  -3   4  -9    0.41    0.16 
   4  -4   9    0.57    0.13 
  -4  -4  -9    0.57    0.11 
  -4   4  -9    0.67    0.20 
   5  -4   9    0.50    0.13 
  -5  -4  -9    0.57    0.11 
  -5   4  -9    0.54    0.19 
   6  -4   9    0.23    0.11 
  -6  -4  -9    0.16    0.09 
  -6   4  -9    0.19    0.15 
   7  -4   9    1.94    0.23 
  -7  -4  -9    1.66    0.19 
  -7   4  -9    2.40    0.33 
   8  -4   9    0.30    0.14 
  -8  -4  -9    0.14    0.10 
  -8   4  -9    0.43    0.20 
  -9  -4  -9    0.58    0.14 
   9  -4   9    0.57    0.17 
  -9   4  -9    0.63    0.22 
 -10  -4  -9    0.22    0.12 
  10  -4   9    0.25    0.14 
  11  -4   9   -0.01    0.12 
 -11  -4  -9   -0.22    0.07 
  15  -5  -9    0.29    0.13 
  15   5  -9    0.34    0.11 
  14  -5  -9    0.87    0.23 
  14  -5  -9    0.89    0.17 
  14   5  -9    0.87    0.15 
  13  -5  -9    0.49    0.14 
  13  -5  -9    0.41    0.18 
  13   5  -9    0.45    0.14 
  12  -5  -9    0.20    0.14 
  12  -5  -9    0.93    0.15 
  12   5  -9    0.58    0.15 
  11  -5  -9    3.24    0.33 
  11  -5  -9    2.89    0.23 
  11   5  -9    3.71    0.30 
  10  -5  -9    1.06    0.21 
 -10  -5   9    1.44    0.19 
  10  -5  -9    1.41    0.16 
  10   5  -9    1.45    0.21 
   9  -5  -9    0.07    0.11 
  -9  -5   9    0.04    0.08 
   9  -5  -9    0.10    0.07 
   9   5  -9    0.06    0.10 
   8  -5  -9    0.82    0.18 
  -8  -5   9    0.87    0.15 
   8  -5  -9    0.97    0.13 
   8   5  -9    0.95    0.18 
  -7  -5   9    0.94    0.15 
   7  -5  -9    1.20    0.13 
   7  -5  -9    1.14    0.19 
   7   5  -9    1.39    0.22 
   6  -5  -9    2.24    0.17 
  -6  -5   9    2.59    0.22 
   6  -5  -9    2.64    0.25 
   6   5  -9    2.35    0.28 
   5  -5  -9    1.78    0.15 
  -5  -5   9    1.70    0.18 
   5   5  -9    1.80    0.25 
  -4  -5   9    2.43    0.20 
   4  -5  -9    2.23    0.16 
   4   5  -9    2.37    0.29 
   3  -5  -9    2.15    0.16 
  -3  -5   9    2.12    0.19 
   3   5  -9    2.62    0.31 
   2  -5  -9    0.14    0.06 
  -2  -5   9    0.17    0.09 
   2   5  -9    0.16    0.12 
  -1  -5   9    0.20    0.09 
   1  -5  -9    0.29    0.08 
   1   5  -9    0.28    0.16 
   0  -5   9    0.54    0.12 
   0  -5  -9    0.48    0.09 
   0   5  -9    0.15    0.13 
   1  -5   9    0.90    0.14 
  -1  -5  -9    0.98    0.12 
  -1   5  -9    0.96    0.23 
   2  -5   9    0.02    0.09 
  -2  -5  -9    0.22    0.09 
  -2   5  -9    0.31    0.17 
   3  -5   9    0.89    0.15 
  -3  -5  -9    0.73    0.12 
  -3   5  -9    0.82    0.23 
   4  -5   9   -0.03    0.08 
  -4  -5  -9   -0.07    0.06 
  -4   5  -9   -0.14    0.10 
  -5  -5  -9    0.28    0.10 
   5  -5   9    0.16    0.10 
   6  -5   9    0.92    0.18 
  -6  -5  -9    0.76    0.14 
   7  -5   9    0.27    0.13 
  -7  -5  -9    0.19    0.09 
   8  -5   9   -0.04    0.10 
  -8  -5  -9    0.09    0.10 
   9  -5   9    0.25    0.15 
  -9  -5  -9    0.20    0.13 
  12  -6  -9    0.07    0.10 
  12  -6  -9   -0.13    0.11 
  11  -6  -9    2.78    0.35 
  11  -6  -9    3.40    0.26 
  10  -6  -9    1.01    0.15 
  10  -6  -9    0.80    0.22 
  -9  -6   9    0.93    0.16 
   9  -6  -9    1.01    0.14 
  -8  -6   9    0.02    0.09 
   8  -6  -9   -0.02    0.06 
  -7  -6   9    0.00    0.08 
   7  -6  -9    0.04    0.07 
   6  -6  -9    0.32    0.08 
  -6  -6   9    0.34    0.11 
  -5  -6   9    0.00    0.08 
   5  -6  -9    0.03    0.06 
   4  -6  -9    0.67    0.11 
  -4  -6   9    0.84    0.14 
  -3  -6   9    3.80    0.26 
   3  -6  -9    3.58    0.21 
  -2  -6   9    0.62    0.13 
   2  -6  -9    0.59    0.10 
  -1  -6   9    1.13    0.16 
   1  -6  -9    1.16    0.12 
   0  -6  -9   -0.03    0.06 
   0  -6   9   -0.02    0.07 
  -1  -6  -9    1.16    0.13 
   1  -6   9    1.06    0.16 
  -2  -6  -9    0.01    0.06 
   2  -6   9    0.11    0.10 
   3  -6   9    0.00    0.08 
  -3  -6  -9    0.03    0.07 
  -4  -6  -9    0.00    0.08 
   4  -6   9    0.01    0.09 
  -5  -6  -9   -0.06    0.07 
   5  -6   9    0.03    0.10 
   6  -6   9    0.54    0.15 
  -6  -6  -9    0.65    0.13 
 -21   0  10   23.24    0.80 
  21   0 -10   22.09    0.77 
 -20   0  10    2.03    0.21 
  20   0 -10    2.41    0.26 
  20   0 -10    2.10    0.20 
 -19   0  10    3.92    0.28 
  19   0 -10    4.36    0.28 
  19   0 -10    4.52    0.32 
 -18   0  10    2.75    0.22 
  18   0 -10    3.10    0.22 
  18   0 -10    2.55    0.24 
  17   0 -10    0.29    0.10 
  17   0 -10    0.35    0.09 
 -17   0  10    0.45    0.11 
 -16   0  10    2.62    0.21 
  16   0 -10    2.15    0.18 
  16   0 -10    2.17    0.20 
 -15   0  10   -0.01    0.07 
  15   0 -10    0.14    0.07 
  15   0 -10   -0.04    0.05 
  14   0 -10   10.49    0.41 
  14   0 -10   10.34    0.40 
 -14   0  10    9.46    0.41 
 -13   0  10   95.01    2.26 
  13   0 -10   92.87    2.25 
  13   0 -10   96.66    2.24 
  13   0 -10   95.30    2.28 
  12   0 -10   18.33    0.57 
  12   0 -10   18.81    0.63 
  12   0 -10   17.84    0.56 
 -12   0  10   18.13    0.58 
  11   0 -10   11.87    0.41 
 -11   0  10   11.43    0.42 
  11   0 -10   11.46    0.40 
  11   0 -10   11.94    0.46 
 -10   0  10    9.17    0.35 
  10   0 -10    8.99    0.38 
  10   0 -10    8.70    0.33 
  10   0 -10    8.32    0.32 
   9   0 -10    7.87    0.30 
  -9   0  10    8.63    0.33 
   9   0 -10    8.40    0.31 
  -9   0  10    8.36    0.38 
   9   0 -10    7.82    0.34 
   8   0 -10   26.99    0.71 
  -8   0  10   26.25    0.73 
   8   0 -10   27.35    0.72 
   8   0 -10   26.92    0.76 
  -8   0  10   26.39    0.79 
   7   0 -10   16.67    0.48 
   7   0 -10   16.06    0.52 
  -7   0  10   16.32    0.49 
  -7   0  10   16.00    0.55 
  -6   0  10    0.84    0.09 
   6   0 -10    0.80    0.08 
   6   0 -10    0.56    0.09 
  -6   0  10    0.74    0.11 
  -5   0  10   13.68    0.43 
   5   0 -10   14.62    0.46 
   5   0 -10   14.29    0.44 
  -5   0  10   13.12    0.48 
   5   0 -10   13.82    0.41 
   4   0 -10    3.03    0.16 
  -4   0  10    2.75    0.20 
  -4   0  10    3.10    0.16 
   4   0 -10    3.01    0.18 
  -3   0  10    6.18    0.29 
   3   0 -10    6.54    0.25 
   3   0 -10    6.61    0.28 
  -3   0  10    6.41    0.25 
   2   0 -10   23.82    0.66 
  -2   0  10   23.01    0.69 
   2   0 -10   23.54    0.67 
  -2   0  10   22.80    0.63 
   1   0 -10   25.11    0.70 
   1   0 -10   25.27    0.69 
  -1   0  10   23.92    0.67 
  -1   0  10   24.86    0.73 
   0   0 -10   32.93    0.88 
   0   0  10   32.28    0.91 
   0   0  10   32.82    0.85 
   0   0 -10   33.56    0.89 
   1   0  10   35.27    0.95 
  -1   0 -10   33.84    0.91 
  -1   0 -10   34.03    0.92 
   1   0  10   33.26    0.88 
  -2   0 -10   74.87    1.89 
   2   0  10   76.88    1.84 
   2   0  10   75.36    1.79 
  -2   0 -10   78.11    1.81 
   3   0  10   58.00    1.47 
   3   0  10   58.98    1.41 
  -3   0 -10   58.38    1.44 
  -3   0 -10   56.02    1.48 
  -4   0 -10    7.77    0.32 
  -4   0 -10    7.52    0.35 
   4   0  10    7.76    0.37 
   4   0  10    7.42    0.30 
   5   0  10    0.10    0.08 
  -5   0 -10    0.13    0.08 
   5   0  10    0.23    0.07 
  -5   0 -10    0.17    0.07 
  -6   0 -10    5.08    0.30 
   6   0  10    4.86    0.25 
  -7   0 -10   13.03    0.53 
   7   0  10   13.85    0.48 
   8   0  10   28.93    0.85 
   9   0  10   16.60    0.57 
  10   0  10   31.98    0.93 
  11   0  10    5.74    0.32 
  12   0  10   -0.01    0.07 
  13   0  10    0.08    0.08 
  14   0  10    0.08    0.09 
 -21  -1  10   -0.10    0.07 
  21  -1 -10   -0.04    0.07 
  21   1 -10   -0.17    0.07 
 -21   1  10    0.07    0.11 
  20  -1 -10    0.31    0.10 
 -20  -1  10    0.29    0.11 
  20   1 -10    0.13    0.10 
  19  -1 -10    7.43    0.35 
  19  -1 -10    7.60    0.45 
 -19  -1  10    7.66    0.37 
  19   1 -10    7.88    0.40 
  19   1 -10    6.93    0.40 
 -18  -1  10    2.31    0.19 
  18  -1 -10    2.08    0.24 
  18  -1 -10    2.52    0.19 
  18   1 -10    2.21    0.20 
  18   1 -10    2.52    0.22 
  17  -1 -10    1.12    0.13 
 -17  -1  10    1.38    0.15 
  17  -1 -10    1.26    0.18 
  17   1 -10    1.71    0.18 
  17   1 -10    1.15    0.15 
  16  -1 -10    1.32    0.13 
  16  -1 -10    1.29    0.18 
 -16  -1  10    1.30    0.14 
  16   1 -10    1.32    0.15 
  16   1 -10    1.41    0.16 
 -15  -1  10    4.96    0.27 
  15  -1 -10    5.53    0.26 
  15  -1 -10    5.19    0.31 
  15  -1 -10    5.01    0.33 
  15   1 -10    5.27    0.28 
  15   1 -10    4.58    0.27 
  14  -1 -10    1.48    0.19 
 -14  -1  10    1.43    0.14 
  14  -1 -10    1.69    0.18 
  14  -1 -10    1.87    0.15 
  14   1 -10    1.50    0.15 
  14   1 -10    1.75    0.16 
 -13  -1  10    3.81    0.22 
  13  -1 -10    4.12    0.25 
  13  -1 -10    4.22    0.28 
  13  -1 -10    3.76    0.20 
  13   1 -10    3.71    0.22 
  13   1 -10    3.88    0.23 
  12  -1 -10    1.26    0.14 
 -12  -1  10    1.32    0.13 
  12  -1 -10    1.15    0.15 
  12   1 -10    1.33    0.13 
  12   1 -10    1.49    0.14 
  11  -1 -10   13.32    0.46 
  11  -1 -10   12.90    0.49 
 -11  -1  10   12.48    0.43 
  11   1 -10   12.26    0.43 
  11   1 -10   13.02    0.44 
 -10  -1  10    0.06    0.07 
  10  -1 -10    0.03    0.05 
 -10  -1  10    0.01    0.04 
  10  -1 -10    0.03    0.06 
  10   1 -10    0.01    0.04 
  10   1 -10    0.01    0.04 
 -10   1  10    0.05    0.05 
   9  -1 -10    3.15    0.18 
  -9  -1  10    2.89    0.22 
   9  -1 -10    3.16    0.21 
  -9  -1  10    3.18    0.17 
   9   1 -10    3.02    0.20 
   9   1 -10    3.19    0.19 
  -9   1  10    2.99    0.18 
   9   1 -10    3.30    0.18 
   9   1 -10    2.98    0.17 
  -8  -1  10    0.22    0.08 
   8  -1 -10    0.21    0.06 
  -8  -1  10    0.13    0.05 
   8  -1 -10    0.16    0.07 
   8   1 -10    0.16    0.06 
   8   1 -10    0.17    0.06 
  -8   1  10    0.17    0.06 
   8   1 -10    0.20    0.06 
  -7  -1  10    2.60    0.20 
  -7  -1  10    2.31    0.14 
   7  -1 -10    2.54    0.18 
   7  -1 -10    2.32    0.14 
  -7   1  10    2.45    0.15 
   7   1 -10    2.90    0.18 
   7   1 -10    2.80    0.16 
  -7   1  10    2.63    0.19 
   7   1 -10    2.45    0.17 
   6  -1 -10   19.11    0.52 
  -6  -1  10   19.80    0.63 
  -6  -1  10   19.28    0.54 
   6  -1 -10   19.33    0.59 
   6   1 -10   18.95    0.61 
  -6   1  10   20.40    0.61 
   6   1 -10   18.93    0.58 
   6   1 -10   18.87    0.54 
  -6   1  10   19.32    0.56 
  -5  -1  10   26.94    0.79 
   5  -1 -10   26.90    0.75 
  -5  -1  10   26.92    0.70 
   5  -1 -10   26.36    0.68 
  -5   1  10   27.81    0.77 
   5   1 -10   26.66    0.79 
   5   1 -10   27.74    0.74 
  -5   1  10   26.89    0.72 
   4  -1 -10    4.05    0.16 
  -4  -1  10    4.46    0.25 
   4  -1 -10    4.29    0.22 
  -4  -1  10    4.19    0.18 
  -4   1  10    3.95    0.19 
  -4   1  10    3.92    0.22 
   4   1 -10    4.39    0.23 
   4   1 -10    3.91    0.21 
   3  -1 -10    7.29    0.31 
  -3  -1  10    8.34    0.35 
   3  -1 -10    7.51    0.23 
  -3  -1  10    7.67    0.27 
  -3   1  10    7.88    0.29 
  -3   1  10    8.08    0.33 
   3   1 -10    7.32    0.33 
   3   1 -10    7.76    0.31 
  -2  -1  10   10.17    0.41 
   2  -1 -10   11.69    0.40 
  -2  -1  10   10.31    0.34 
   2  -1 -10   10.95    0.29 
  -2   1  10   10.90    0.36 
   2   1 -10    9.85    0.41 
   2   1 -10   10.81    0.38 
  -2   1  10   11.05    0.40 
  -1  -1  10    2.05    0.13 
  -1  -1  10    2.04    0.17 
   1  -1 -10    1.91    0.08 
   1  -1 -10    2.19    0.16 
  -1   1  10    2.14    0.17 
  -1   1  10    2.07    0.14 
   1   1 -10    2.11    0.17 
   1   1 -10    2.07    0.15 
  -1   1  10    2.14    0.14 
   0  -1  10    0.76    0.08 
   0  -1 -10    0.73    0.05 
   0  -1  10    0.91    0.13 
   0  -1 -10    0.87    0.11 
   0   1 -10    0.88    0.11 
   0   1  10    0.89    0.11 
   0   1 -10    0.90    0.12 
   0   1  10    0.90    0.09 
   0   1  10    0.70    0.08 
  -1  -1 -10    0.02    0.05 
   1  -1  10    0.00    0.03 
   1  -1  10   -0.02    0.05 
  -1  -1 -10    0.05    0.03 
  -1  -1 -10    0.04    0.02 
   1   1  10    0.02    0.04 
  -1   1 -10    0.03    0.05 
   1   1  10    0.02    0.05 
  -1   1 -10    0.05    0.06 
   1   1  10    0.08    0.04 
   2  -1  10   16.96    0.60 
  -2  -1 -10   18.61    0.58 
   2  -1  10   17.26    0.52 
  -2  -1 -10   18.31    0.46 
  -2   1 -10   17.18    0.63 
   2   1  10   18.21    0.54 
  -2   1 -10   17.95    0.57 
   3  -1  10    9.42    0.33 
  -3  -1 -10    9.47    0.39 
  -3  -1 -10    9.77    0.26 
   3  -1  10    9.79    0.42 
  -3   1 -10    8.97    0.38 
   3   1  10    9.61    0.36 
  -3   1 -10    9.69    0.43 
  -4  -1 -10   11.01    0.43 
   4  -1  10   10.37    0.36 
   4  -1  10    9.61    0.43 
  -4   1 -10   10.38    0.46 
   4   1  10   10.66    0.38 
   5  -1  10   10.66    0.47 
  -5  -1 -10   11.92    0.46 
   5  -1  10   11.25    0.40 
  -5   1 -10   11.81    0.51 
   5   1  10   12.09    0.42 
   6  -1  10    5.20    0.25 
   6  -1  10    5.42    0.33 
  -6  -1 -10    5.40    0.31 
   6   1  10    5.29    0.27 
  -6   1 -10    5.70    0.34 
   7  -1  10    0.98    0.12 
  -7  -1 -10    1.08    0.16 
   7  -1  10    1.09    0.17 
   7   1  10    1.12    0.13 
  -7   1 -10    1.32    0.18 
  -8  -1 -10    0.57    0.14 
   8  -1  10    0.68    0.11 
   8   1  10    0.80    0.13 
  -9  -1 -10    0.01    0.08 
   9  -1  10   -0.03    0.05 
   9   1  10   -0.03    0.07 
  10  -1  10    3.84    0.24 
  10   1  10    4.12    0.27 
  11  -1  10    0.17    0.08 
  11   1  10    0.17    0.09 
  12  -1  10    0.41    0.11 
  12   1  10    0.44    0.12 
  13  -1  10    0.00    0.07 
  13   1  10    0.11    0.09 
  14  -1  10    0.05    0.08 
  14   1  10    0.13    0.11 
 -20  -2  10    1.88    0.14 
  20   2 -10    1.68    0.21 
 -19  -2  10    6.44    0.27 
  19   2 -10    6.94    0.37 
  19   2 -10    6.60    0.38 
 -18  -2  10    5.86    0.25 
  18  -2 -10    5.10    0.39 
  18   2 -10    5.83    0.33 
  18   2 -10    5.42    0.33 
  17  -2 -10    1.71    0.23 
  17  -2 -10    2.10    0.25 
 -17  -2  10    2.08    0.15 
  17   2 -10    2.08    0.20 
  17   2 -10    2.09    0.20 
  16  -2 -10    1.57    0.21 
 -16  -2  10    1.13    0.11 
  16  -2 -10    1.25    0.20 
  16   2 -10    1.15    0.15 
  16   2 -10    1.06    0.14 
  15  -2 -10    0.31    0.12 
 -15  -2  10    0.27    0.06 
  15  -2 -10    0.45    0.13 
  15   2 -10    0.30    0.09 
  15   2 -10    0.42    0.10 
  14  -2 -10    0.79    0.15 
 -14  -2  10    0.89    0.09 
  14  -2 -10    0.77    0.15 
  14   2 -10    0.71    0.11 
  14   2 -10    0.93    0.13 
  13  -2 -10    3.92    0.27 
 -13  -2  10    4.00    0.18 
  13  -2 -10    3.76    0.26 
  13   2 -10    3.81    0.23 
  13   2 -10    3.92    0.24 
  12  -2 -10    9.19    0.41 
 -12  -2  10    8.97    0.30 
  12  -2 -10    8.66    0.40 
  12   2 -10    9.02    0.37 
  12   2 -10    9.33    0.37 
  11  -2 -10   23.20    0.75 
  11  -2 -10   25.56    0.77 
 -11  -2  10   24.81    0.63 
  11   2 -10   23.59    0.72 
  11   2 -10   24.93    0.71 
  11   2 -10   24.02    0.77 
  10  -2 -10    7.68    0.35 
  10  -2 -10    7.33    0.34 
 -10  -2  10    7.58    0.25 
 -10  -2  10    7.87    0.39 
  10   2 -10    7.43    0.34 
  10   2 -10    7.99    0.32 
   9  -2 -10    1.72    0.15 
  -9  -2  10    1.55    0.09 
   9  -2 -10    1.33    0.14 
  -9  -2  10    1.35    0.17 
   9   2 -10    1.34    0.14 
   9   2 -10    1.31    0.12 
   8  -2 -10   14.38    0.48 
   8  -2 -10   12.55    0.45 
  -8  -2  10   13.99    0.52 
  -8  -2  10   12.87    0.36 
   8   2 -10   13.27    0.43 
   8   2 -10   12.66    0.49 
  -7  -2  10    1.54    0.16 
   7  -2 -10    1.32    0.13 
   7  -2 -10    1.60    0.13 
  -7  -2  10    1.41    0.09 
   7   2 -10    1.22    0.14 
   7   2 -10    1.59    0.12 
   6  -2 -10    0.90    0.10 
  -6  -2  10    0.86    0.07 
   6  -2 -10    0.84    0.11 
  -6  -2  10    0.98    0.07 
  -6  -2  10    0.95    0.13 
   6   2 -10    0.95    0.13 
   6   2 -10    0.84    0.09 
  -6   2  10    0.80    0.09 
  -5  -2  10    0.04    0.03 
   5  -2 -10    0.07    0.05 
  -5  -2  10    0.08    0.03 
  -5  -2  10    0.08    0.07 
   5  -2 -10    0.15    0.05 
   5   2 -10    0.17    0.07 
  -5   2  10    0.08    0.05 
   5   2 -10    0.08    0.04 
  -4  -2  10    0.37    0.04 
  -4  -2  10    0.27    0.04 
  -4  -2  10    0.26    0.08 
   4  -2 -10    0.33    0.08 
   4  -2 -10    0.31    0.06 
   4   2 -10    0.35    0.06 
  -4   2  10    0.32    0.06 
   4   2 -10    0.36    0.10 
   3  -2 -10    7.12    0.30 
  -3  -2  10    6.64    0.21 
  -3  -2  10    6.36    0.31 
   3  -2 -10    6.85    0.24 
  -3  -2  10    6.72    0.21 
  -3   2  10    6.64    0.26 
   3   2 -10    6.83    0.35 
  -2  -2  10    0.09    0.03 
  -2  -2  10    0.00    0.06 
   2  -2 -10    0.11    0.04 
  -2  -2  10    0.03    0.03 
   2  -2 -10    0.08    0.06 
   2   2 -10    0.08    0.07 
  -2   2  10    0.12    0.04 
  -2   2  10    0.10    0.05 
  -1  -2  10    0.98    0.07 
   1  -2 -10    1.28    0.13 
  -1  -2  10    1.02    0.08 
   1  -2 -10    1.07    0.07 
  -1  -2  10    0.86    0.13 
  -1   2  10    1.13    0.10 
  -1   2  10    1.01    0.08 
   1   2 -10    0.97    0.15 
   0  -2  10   20.86    0.53 
   0  -2 -10   21.69    0.64 
   0  -2  10   21.38    0.67 
   0   2 -10   20.53    0.76 
   0   2  10   21.27    0.59 
  -1  -2 -10    1.54    0.14 
   1  -2  10    1.83    0.18 
   1  -2  10    1.40    0.09 
   1   2  10    1.72    0.13 
  -1   2 -10    1.68    0.20 
   2  -2  10    1.45    0.16 
  -2  -2 -10    1.63    0.15 
   2  -2  10    1.54    0.10 
   2   2  10    1.93    0.14 
  -2   2 -10    1.92    0.21 
   3  -2  10    8.42    0.28 
   3  -2  10    8.79    0.40 
  -3  -2 -10    8.48    0.37 
   3   2  10    9.35    0.34 
  -3   2 -10    8.08    0.45 
   4  -2  10    6.10    0.23 
  -4  -2 -10    5.98    0.31 
   4  -2  10    6.18    0.34 
  -4   2 -10    5.60    0.37 
   4   2  10    5.62    0.27 
   5  -2  10    0.00    0.04 
  -5  -2 -10   -0.05    0.07 
   5  -2  10   -0.09    0.06 
  -5   2 -10    0.00    0.08 
   5   2  10    0.00    0.06 
   6  -2  10    0.51    0.08 
  -6  -2 -10    0.45    0.12 
   6  -2  10    0.51    0.13 
  -6   2 -10    0.69    0.17 
  -7  -2 -10    0.14    0.09 
   7  -2  10    0.20    0.11 
   7  -2  10    0.03    0.05 
  -7   2 -10    0.00    0.09 
   8  -2  10    3.45    0.19 
  -8  -2 -10    3.72    0.28 
   8  -2  10    4.42    0.32 
  -8   2 -10    3.31    0.33 
   9  -2  10    0.55    0.09 
   9  -2  10    0.92    0.18 
  -9  -2 -10    0.72    0.15 
  -9   2 -10    0.76    0.19 
  10  -2  10    1.54    0.13 
 -10  -2 -10    1.25    0.19 
 -11  -2 -10    2.82    0.27 
  11  -2  10    3.09    0.19 
  12  -2  10    0.66    0.10 
  13  -2  10    0.32    0.09 
  19  -3 -10    0.78    0.20 
  18  -3 -10    0.13    0.12 
  18  -3 -10    0.28    0.15 
  18   3 -10    0.09    0.09 
  17  -3 -10    3.56    0.31 
  17  -3 -10    4.02    0.36 
  17   3 -10    3.75    0.26 
  16  -3 -10    2.89    0.27 
  16  -3 -10    3.30    0.32 
  16   3 -10    2.84    0.22 
  15  -3 -10    3.81    0.33 
  15  -3 -10    3.46    0.29 
  15   3 -10    4.21    0.26 
  14  -3 -10    4.01    0.32 
  14  -3 -10    4.25    0.30 
  14   3 -10    4.16    0.25 
  13  -3 -10    3.36    0.29 
  13  -3 -10    2.85    0.24 
  13   3 -10    2.67    0.22 
  13   3 -10    2.44    0.20 
  12  -3 -10    7.80    0.42 
  12  -3 -10    8.14    0.39 
  12   3 -10    8.29    0.39 
  11  -3 -10    0.99    0.15 
  11  -3 -10    1.04    0.16 
 -11  -3  10    0.85    0.16 
  11   3 -10    0.93    0.14 
  10  -3 -10   15.00    0.58 
  10  -3 -10   14.47    0.53 
 -10  -3  10   14.76    0.58 
  10   3 -10   15.05    0.57 
   9  -3 -10   10.73    0.42 
  -9  -3  10   10.37    0.46 
   9  -3 -10   10.61    0.45 
   9   3 -10   10.54    0.47 
  -8  -3  10   12.00    0.49 
   8  -3 -10   11.85    0.44 
   8  -3 -10   11.46    0.46 
   8   3 -10   12.05    0.51 
  -7  -3  10   20.58    0.68 
   7  -3 -10   20.35    0.62 
   7  -3 -10   20.00    0.65 
   7   3 -10   20.32    0.73 
   6  -3 -10   11.46    0.42 
   6  -3 -10   11.35    0.41 
  -6  -3  10   10.30    0.44 
   6   3 -10    9.51    0.47 
   5  -3 -10    6.29    0.28 
   5  -3 -10    5.96    0.28 
  -5  -3  10    6.08    0.32 
   5   3 -10    6.00    0.36 
   4  -3 -10   21.54    0.63 
   4  -3 -10   20.66    0.63 
  -4  -3  10   22.36    0.69 
   4   3 -10   21.39    0.80 
   3  -3 -10   13.51    0.47 
   3  -3 -10   14.41    0.45 
  -3  -3  10   13.97    0.52 
   3   3 -10   15.18    0.63 
  -2  -3  10   49.06    1.29 
   2  -3 -10   49.92    1.23 
   2  -3 -10   50.15    1.20 
   2   3 -10   48.94    1.50 
   1  -3 -10   11.25    0.40 
  -1  -3  10   10.72    0.44 
   1   3 -10   11.13    0.55 
   0  -3  10    1.62    0.17 
   0  -3 -10    2.00    0.16 
   0   3 -10    1.81    0.24 
   1  -3  10    5.58    0.30 
  -1  -3 -10    5.21    0.27 
  -1   3 -10    4.43    0.36 
   2  -3  10    1.83    0.18 
  -2  -3 -10    1.70    0.16 
  -2   3 -10    1.37    0.22 
  -3  -3 -10    4.25    0.25 
   3  -3  10    3.91    0.27 
  -3   3 -10    3.25    0.32 
   4  -3  10    6.92    0.37 
  -4  -3 -10    6.87    0.34 
  -4   3 -10    6.65    0.46 
   5  -3  10    3.58    0.27 
  -5  -3 -10    3.55    0.24 
  -5   3 -10    3.38    0.34 
  -6  -3 -10    5.28    0.31 
   6  -3  10    5.62    0.35 
  -6   3 -10    5.05    0.41 
   7  -3  10    3.66    0.29 
  -7  -3 -10    2.84    0.24 
  -7   3 -10    3.44    0.35 
  -8  -3 -10    2.34    0.23 
   8  -3  10    2.44    0.25 
  -8   3 -10    2.58    0.33 
  -9  -3 -10    1.94    0.22 
   9  -3  10    2.59    0.27 
  -9   3 -10    2.31    0.32 
 -10  -3 -10    1.65    0.22 
  10  -3  10    1.98    0.25 
 -10   3 -10    1.58    0.29 
 -11  -3 -10   -0.06    0.10 
  11  -3  10   -0.13    0.10 
 -12  -3 -10    0.10    0.12 
  17  -4 -10    0.15    0.12 
  17   4 -10    0.08    0.08 
  16  -4 -10    0.16    0.15 
  16  -4 -10    0.07    0.10 
  16   4 -10    0.18    0.09 
  15  -4 -10    0.01    0.09 
  15  -4 -10    0.19    0.13 
  15   4 -10    0.09    0.08 
  14  -4 -10    0.11    0.12 
  14  -4 -10    0.18    0.10 
  14   4 -10    0.10    0.09 
  14   4 -10   -0.01    0.08 
  13  -4 -10    1.50    0.23 
  13  -4 -10    1.58    0.19 
  13   4 -10    1.43    0.18 
  12  -4 -10    0.40    0.12 
  12  -4 -10    0.55    0.16 
  12   4 -10    0.41    0.12 
  11  -4 -10    7.42    0.44 
  11  -4 -10    7.33    0.37 
 -11  -4  10    7.78    0.42 
  11   4 -10    7.35    0.40 
 -10  -4  10   14.57    0.59 
  10  -4 -10   13.83    0.61 
  10  -4 -10   14.73    0.54 
  10   4 -10   15.14    0.62 
  -9  -4  10   13.73    0.56 
   9  -4 -10   13.10    0.58 
   9  -4 -10   14.29    0.51 
   9   4 -10   14.43    0.61 
   8  -4 -10    5.60    0.29 
  -8  -4  10    5.57    0.33 
   8  -4 -10    5.43    0.33 
   8   4 -10    5.74    0.37 
   7  -4 -10   -0.01    0.05 
   7  -4 -10    0.26    0.10 
  -7  -4  10    0.06    0.07 
   7   4 -10    0.05    0.08 
  -6  -4  10    0.04    0.07 
   6  -4 -10    0.00    0.05 
   6  -4 -10   -0.09    0.05 
   6   4 -10   -0.06    0.06 
   5  -4 -10    1.15    0.15 
  -5  -4  10    0.74    0.13 
   5  -4 -10    0.87    0.11 
   5   4 -10    0.95    0.18 
  -4  -4  10    2.32    0.20 
   4  -4 -10    2.25    0.17 
   4   4 -10    2.50    0.27 
  -3  -4  10    4.66    0.28 
   3  -4 -10    4.83    0.25 
   3   4 -10    4.44    0.36 
   2  -4 -10   10.06    0.38 
  -2  -4  10    9.34    0.41 
   2   4 -10    9.46    0.54 
   1  -4 -10    8.88    0.35 
  -1  -4  10    8.53    0.40 
   1   4 -10    8.83    0.53 
   0  -4  10    7.40    0.37 
   0  -4 -10    8.13    0.34 
   0   4 -10    7.63    0.50 
   1  -4  10    0.13    0.09 
  -1  -4 -10    0.02    0.06 
  -1   4 -10   -0.03    0.10 
   2  -4  10    4.23    0.28 
  -2  -4 -10    4.36    0.25 
  -2   4 -10    4.24    0.40 
   3  -4  10    1.32    0.17 
  -3  -4 -10    1.50    0.16 
  -3   4 -10    1.21    0.24 
  -4  -4 -10    1.28    0.15 
   4  -4  10    1.55    0.19 
  -4   4 -10    1.32    0.25 
  -5  -4 -10    0.32    0.10 
   5  -4  10    0.41    0.13 
  -5   4 -10    0.45    0.18 
   6  -4  10    0.15    0.11 
  -6  -4 -10    0.45    0.12 
   7  -4  10    0.04    0.11 
  -7  -4 -10   -0.05    0.07 
  -7   4 -10   -0.03    0.13 
   8  -4  10    0.14    0.12 
  -8  -4 -10    0.17    0.11 
  -8   4 -10    0.09    0.15 
   9  -4  10   -0.05    0.10 
  -9  -4 -10    0.07    0.10 
  10  -4  10    5.12    0.39 
 -10  -4 -10    4.42    0.33 
  11  -4  10    1.96    0.27 
 -11  -4 -10    2.26    0.25 
  15  -5 -10    1.01    0.19 
  14  -5 -10    0.16    0.15 
  14  -5 -10    0.01    0.10 
  14   5 -10    0.06    0.09 
  13  -5 -10   12.75    0.67 
  13  -5 -10   11.88    0.53 
  12  -5 -10    5.71    0.34 
  12  -5 -10    6.65    0.46 
  11  -5 -10    4.35    0.28 
 -11  -5  10    4.14    0.32 
  11  -5 -10    4.03    0.36 
  11   5 -10    4.07    0.32 
 -10  -5  10    0.71    0.15 
  10  -5 -10    0.65    0.13 
  10  -5 -10    0.78    0.19 
  10   5 -10    0.92    0.18 
   9  -5 -10    0.19    0.08 
  -9  -5  10    0.25    0.11 
   9  -5 -10    0.04    0.10 
   9   5 -10    0.23    0.12 
   8  -5 -10    0.03    0.06 
   8  -5 -10    0.22    0.12 
  -8  -5  10    0.17    0.10 
   8   5 -10    0.12    0.11 
   7  -5 -10    3.01    0.21 
  -7  -5  10    2.99    0.25 
   7   5 -10    4.02    0.34 
   6  -5 -10    1.40    0.14 
  -6  -5  10    1.71    0.19 
   6   5 -10    1.12    0.22 
   5  -5 -10   12.90    0.46 
  -5  -5  10   13.08    0.52 
   5   5 -10   13.81    0.69 
   4  -5 -10    7.96    0.33 
  -4  -5  10    7.99    0.39 
   4   5 -10    7.70    0.52 
  -3  -5  10    5.79    0.33 
   3  -5 -10    6.11    0.29 
   3   5 -10    6.56    0.48 
   2  -5 -10    3.13    0.20 
  -2  -5  10    2.81    0.23 
   2   5 -10    3.06    0.34 
  -1  -5  10    3.49    0.26 
   1  -5 -10    3.52    0.21 
   1   5 -10    3.38    0.37 
   0  -5 -10    0.43    0.10 
   0  -5  10    0.48    0.12 
   0   5 -10    0.79    0.22 
  -1  -5 -10   -0.01    0.06 
   1  -5  10    0.06    0.08 
  -1   5 -10   -0.01    0.11 
   2  -5  10    1.55    0.19 
  -2  -5 -10    1.11    0.14 
  -2   5 -10    1.29    0.27 
  -3  -5 -10    0.11    0.08 
   3  -5  10    0.13    0.10 
  -3   5 -10    0.19    0.16 
   4  -5  10    1.77    0.21 
  -4  -5 -10    1.43    0.17 
   5  -5  10    0.63    0.16 
  -5  -5 -10    0.46    0.12 
  -6  -5 -10    0.87    0.15 
   6  -5  10    0.81    0.17 
   7  -5  10    2.22    0.25 
  -7  -5 -10    1.77    0.20 
   8  -5  10    1.51    0.23 
  -8  -5 -10    1.06    0.18 
  11  -6 -10    1.23    0.17 
 -10  -6  10    0.02    0.10 
  10  -6 -10    0.06    0.08 
   9  -6 -10    0.51    0.12 
  -9  -6  10    0.75    0.16 
  -8  -6  10    1.54    0.20 
   8  -6 -10    1.78    0.17 
  -7  -6  10    2.10    0.22 
   7  -6 -10    2.20    0.18 
  -6  -6  10    1.69    0.20 
   6  -6 -10    2.00    0.17 
   5  -6 -10    0.36    0.09 
  -5  -6  10    0.42    0.12 
   4  -6 -10    0.30    0.09 
  -4  -6  10    0.43    0.12 
   3  -6 -10    0.57    0.10 
  -3  -6  10    0.60    0.14 
   2  -6 -10   -0.02    0.06 
  -2  -6  10    0.05    0.09 
   1  -6 -10   -0.06    0.06 
  -1  -6  10    0.07    0.09 
   0  -6 -10    0.46    0.10 
   0  -6  10    0.46    0.14 
  -1  -6 -10    0.11    0.08 
   1  -6  10    0.08    0.09 
   2  -6  10    0.12    0.11 
  -2  -6 -10    0.30    0.10 
  -3  -6 -10    0.13    0.09 
   3  -6  10    0.09    0.11 
  -4  -6 -10   -0.02    0.08 
   4  -6  10    0.05    0.10 
  -5  -6 -10    0.07    0.09 
   5  -6  10    0.07    0.12 
  21   0 -11   -0.31    0.09 
 -21   0  11   -0.25    0.10 
  20   0 -11   -0.02    0.08 
 -20   0  11   -0.11    0.08 
 -19   0  11    0.08    0.09 
  19   0 -11    0.04    0.09 
  19   0 -11   -0.08    0.07 
  18   0 -11   -0.01    0.07 
 -18   0  11    0.02    0.07 
  18   0 -11    0.01    0.06 
  17   0 -11    0.11    0.08 
 -17   0  11    0.00    0.07 
  17   0 -11   -0.10    0.05 
  16   0 -11   -0.11    0.05 
  16   0 -11    0.10    0.07 
 -16   0  11   -0.04    0.07 
  15   0 -11    0.09    0.07 
 -15   0  11   -0.01    0.07 
  15   0 -11   -0.05    0.06 
  14   0 -11   -0.22    0.05 
  14   0 -11    0.06    0.06 
 -14   0  11   -0.09    0.07 
  13   0 -11   -0.04    0.07 
  13   0 -11    0.12    0.07 
 -13   0  11   -0.12    0.07 
 -12   0  11   -0.06    0.05 
  12   0 -11    0.10    0.08 
  12   0 -11   -0.02    0.05 
  12   0 -11   -0.03    0.05 
  11   0 -11    0.07    0.05 
  11   0 -11   -0.01    0.06 
  11   0 -11   -0.09    0.03 
 -11   0  11    0.01    0.05 
 -10   0  11   -0.07    0.04 
  10   0 -11   -0.02    0.04 
  10   0 -11    0.03    0.04 
  10   0 -11   -0.06    0.05 
   9   0 -11    0.00    0.04 
   9   0 -11   -0.04    0.03 
  -9   0  11   -0.14    0.05 
   9   0 -11   -0.11    0.04 
  -9   0  11   -0.11    0.04 
  -8   0  11   -0.09    0.06 
   8   0 -11    0.03    0.04 
  -8   0  11   -0.06    0.05 
   8   0 -11   -0.15    0.05 
  -7   0  11   -0.05    0.06 
   7   0 -11   -0.05    0.05 
  -7   0  11   -0.01    0.04 
   7   0 -11    0.03    0.04 
   6   0 -11    0.01    0.05 
   6   0 -11    0.02    0.04 
  -6   0  11   -0.03    0.04 
  -6   0  11    0.00    0.05 
  -5   0  11    0.01    0.06 
   5   0 -11   -0.09    0.04 
  -5   0  11    0.02    0.04 
   5   0 -11    0.02    0.04 
   5   0 -11    0.00    0.03 
   4   0 -11   -0.01    0.03 
  -4   0  11   -0.02    0.03 
   4   0 -11   -0.04    0.04 
  -4   0  11   -0.04    0.04 
  -3   0  11   -0.02    0.03 
   3   0 -11   -0.04    0.04 
   3   0 -11   -0.03    0.03 
  -3   0  11    0.06    0.06 
   2   0 -11   -0.03    0.03 
   2   0 -11   -0.08    0.04 
  -2   0  11   -0.04    0.04 
  -2   0  11    0.04    0.06 
   1   0 -11   -0.06    0.05 
  -1   0  11    0.04    0.06 
   1   0 -11    0.00    0.03 
  -1   0  11   -0.04    0.04 
   0   0 -11    0.07    0.04 
   0   0  11   -0.05    0.06 
   0   0 -11    0.01    0.06 
   0   0  11   -0.01    0.04 
   1   0  11   -0.03    0.07 
   1   0  11   -0.08    0.04 
  -1   0 -11   -0.12    0.05 
  -1   0 -11    0.09    0.05 
  -2   0 -11   -0.03    0.04 
   2   0  11   -0.09    0.06 
   2   0  11   -0.05    0.04 
  -2   0 -11   -0.16    0.04 
   3   0  11   -0.01    0.05 
  -3   0 -11   -0.02    0.06 
   3   0  11   -0.12    0.06 
  -3   0 -11   -0.03    0.05 
   4   0  11   -0.03    0.04 
  -4   0 -11   -0.03    0.04 
  -4   0 -11   -0.03    0.05 
   5   0  11   -0.02    0.05 
  -5   0 -11   -0.03    0.07 
  -6   0 -11   -0.02    0.08 
   6   0  11   -0.09    0.05 
   7   0  11   -0.10    0.07 
   8   0  11    0.03    0.08 
   9   0  11   -0.20    0.07 
  10   0  11   -0.07    0.07 
  11   0  11    0.10    0.08 
  12   0  11   -0.08    0.07 
  13   0  11   -0.01    0.08 
  20  -1 -11    0.92    0.13 
 -20  -1  11    0.87    0.14 
 -20   1  11    0.75    0.16 
  20   1 -11    0.78    0.15 
 -19  -1  11    2.19    0.20 
  19  -1 -11    1.88    0.18 
  19  -1 -11    1.94    0.25 
  19   1 -11    1.86    0.20 
  19   1 -11    2.25    0.23 
 -19   1  11    2.04    0.22 
 -18  -1  11    0.21    0.09 
  18  -1 -11    0.38    0.13 
  18  -1 -11    0.21    0.08 
  18   1 -11    0.20    0.09 
 -18   1  11    0.24    0.10 
  18   1 -11    0.17    0.09 
  17  -1 -11    0.28    0.11 
  17  -1 -11    0.45    0.09 
 -17  -1  11    0.25    0.09 
  17   1 -11    0.37    0.10 
  17   1 -11    0.38    0.11 
 -17   1  11    0.32    0.11 
 -16  -1  11    0.14    0.08 
  16  -1 -11    0.09    0.09 
  16  -1 -11    0.10    0.06 
  16   1 -11    0.16    0.08 
 -16   1  11    0.03    0.08 
  16   1 -11    0.02    0.06 
  15  -1 -11    2.25    0.23 
  15  -1 -11    2.25    0.17 
 -15  -1  11    2.37    0.19 
  15  -1 -11    1.63    0.18 
 -15   1  11    1.75    0.18 
  15   1 -11    1.90    0.17 
  15   1 -11    1.94    0.18 
  14  -1 -11    2.30    0.22 
 -14  -1  11    2.11    0.17 
  14  -1 -11    2.56    0.21 
 -14   1  11    2.50    0.20 
  14   1 -11    2.54    0.19 
  14   1 -11    1.97    0.17 
  13  -1 -11    0.02    0.06 
 -13  -1  11    0.00    0.05 
  13  -1 -11    0.00    0.08 
  13   1 -11    0.04    0.06 
 -13   1  11   -0.11    0.04 
  13   1 -11    0.02    0.06 
  12  -1 -11    0.17    0.07 
 -12  -1  11    0.04    0.06 
  12  -1 -11    0.03    0.07 
  12   1 -11    0.02    0.05 
  12   1 -11    0.07    0.06 
 -12   1  11    0.00    0.06 
  11  -1 -11   12.97    0.47 
  11  -1 -11   14.22    0.52 
 -11  -1  11   14.38    0.46 
  11   1 -11   13.50    0.46 
 -11   1  11   13.70    0.48 
  11   1 -11   13.26    0.46 
  10  -1 -11    3.67    0.24 
 -10  -1  11    3.35    0.19 
 -10  -1  11    3.45    0.25 
  10  -1 -11    3.66    0.20 
  10   1 -11    3.82    0.21 
 -10   1  11    3.30    0.20 
  10   1 -11    3.62    0.20 
   9  -1 -11    4.63    0.22 
   9  -1 -11    5.05    0.27 
  -9  -1  11    4.60    0.29 
  -9  -1  11    5.10    0.23 
   9   1 -11    5.06    0.26 
  -9   1  11    4.71    0.24 
   9   1 -11    5.03    0.26 
   9   1 -11    4.87    0.23 
   9   1 -11    5.10    0.24 
   8  -1 -11    1.57    0.12 
   8  -1 -11    1.59    0.15 
  -8  -1  11    1.59    0.12 
  -8  -1  11    1.39    0.16 
  -8   1  11    1.67    0.13 
   8   1 -11    1.36    0.13 
   8   1 -11    1.56    0.13 
   8   1 -11    1.52    0.14 
   7  -1 -11    0.09    0.04 
  -7  -1  11    0.01    0.04 
  -7  -1  11    0.09    0.07 
   7  -1 -11    0.02    0.05 
   7   1 -11   -0.02    0.05 
   7   1 -11    0.05    0.04 
  -7   1  11   -0.04    0.05 
   7   1 -11    0.08    0.05 
  -7   1  11    0.02    0.04 
   6  -1 -11    1.88    0.16 
  -6  -1  11    2.03    0.18 
  -6  -1  11    1.76    0.12 
   6  -1 -11    1.88    0.12 
   6   1 -11    1.85    0.15 
  -6   1  11    1.86    0.17 
   6   1 -11    1.94    0.16 
  -6   1  11    1.75    0.13 
   5  -1 -11    1.55    0.10 
   5  -1 -11    1.65    0.15 
  -5  -1  11    1.28    0.15 
  -5  -1  11    1.74    0.12 
  -5   1  11    1.54    0.12 
   5   1 -11    1.56    0.14 
  -5   1  11    1.70    0.16 
   5   1 -11    1.48    0.14 
  -4  -1  11    0.56    0.11 
  -4  -1  11    0.66    0.08 
   4  -1 -11    0.64    0.10 
   4  -1 -11    0.64    0.06 
   4   1 -11    0.43    0.09 
  -4   1  11    0.67    0.08 
   4   1 -11    0.54    0.09 
  -4   1  11    0.42    0.10 
   3  -1 -11    2.96    0.13 
  -3  -1  11    2.57    0.20 
   3  -1 -11    2.95    0.19 
  -3  -1  11    3.05    0.16 
  -3   1  11    2.93    0.20 
  -3   1  11    2.76    0.16 
   3   1 -11    2.65    0.18 
   3   1 -11    2.76    0.19 
   2  -1 -11    5.32    0.18 
   2  -1 -11    5.39    0.27 
  -2  -1  11    5.56    0.23 
  -2  -1  11    5.13    0.28 
   2   1 -11    5.36    0.28 
  -2   1  11    5.41    0.27 
  -2   1  11    5.39    0.24 
   2   1 -11    5.21    0.26 
   1  -1 -11    0.02    0.02 
   1  -1 -11   -0.01    0.04 
  -1  -1  11    0.00    0.03 
  -1  -1  11    0.00    0.05 
  -1   1  11    0.04    0.04 
  -1   1  11    0.00    0.04 
   1   1 -11   -0.07    0.04 
   1   1 -11   -0.01    0.05 
  -1   1  11    0.00    0.05 
   0  -1  11    0.80    0.09 
   0  -1 -11    0.66    0.11 
   0  -1  11    1.02    0.14 
   0  -1 -11    0.84    0.05 
   0   1 -11    0.97    0.13 
   0   1  11    0.83    0.10 
   0   1  11    0.80    0.09 
   0   1 -11    0.77    0.11 
   1  -1  11    8.82    0.39 
  -1  -1 -11    9.08    0.37 
  -1  -1 -11    8.54    0.22 
   1  -1  11    8.20    0.31 
  -1   1 -11    8.67    0.37 
  -1   1 -11    8.57    0.39 
   1   1  11    8.53    0.33 
   2  -1  11    1.57    0.17 
  -2  -1 -11    1.62    0.16 
   2  -1  11    1.74    0.13 
   2   1  11    1.54    0.13 
  -2   1 -11    1.57    0.16 
  -2   1 -11    1.74    0.18 
   3  -1  11   -0.08    0.06 
  -3  -1 -11    0.09    0.08 
   3  -1  11    0.37    0.07 
  -3   1 -11    0.02    0.07 
   3   1  11    0.00    0.05 
   4  -1  11   -0.08    0.07 
  -4  -1 -11   -0.06    0.05 
   4  -1  11   -0.04    0.04 
   4   1  11   -0.04    0.05 
  -4   1 -11    0.01    0.07 
  -5  -1 -11   -0.09    0.06 
   5  -1  11   -0.10    0.04 
   5  -1  11    0.01    0.08 
  -5   1 -11   -0.06    0.06 
   5   1  11   -0.08    0.05 
  -6  -1 -11    0.12    0.09 
   6  -1  11    0.07    0.10 
   6  -1  11    0.17    0.07 
  -6   1 -11    0.14    0.10 
   6   1  11    0.04    0.07 
   7  -1  11    0.65    0.11 
  -7  -1 -11    0.50    0.13 
   7   1  11    0.86    0.13 
  -8  -1 -11    1.74    0.20 
   8  -1  11    1.94    0.16 
   8   1  11    1.76    0.17 
   9  -1  11    2.25    0.18 
   9   1  11    2.41    0.21 
  10  -1  11    0.90    0.13 
  10   1  11    1.00    0.15 
  11  -1  11    0.07    0.08 
  11   1  11    0.10    0.09 
  12  -1  11    0.09    0.08 
  12   1  11    0.12    0.09 
  13  -1  11    0.14    0.09 
  13   1  11    0.11    0.10 
 -20  -2  11    0.26    0.07 
  20   2 -11    0.32    0.13 
 -19  -2  11    0.29    0.08 
  19   2 -11    0.34    0.12 
  19   2 -11    0.15    0.10 
  18  -2 -11    0.23    0.13 
 -18  -2  11    0.03    0.06 
  18   2 -11    0.05    0.08 
  18   2 -11   -0.05    0.07 
 -17  -2  11    0.48    0.09 
  17  -2 -11    0.46    0.15 
  17  -2 -11    0.43    0.15 
  17   2 -11    0.41    0.11 
  17   2 -11    0.34    0.11 
 -16  -2  11    0.60    0.09 
  16  -2 -11    0.65    0.16 
  16  -2 -11    0.74    0.16 
  16   2 -11    0.93    0.14 
  16   2 -11    0.72    0.12 
  15  -2 -11    0.50    0.14 
  15  -2 -11    0.36    0.13 
 -15  -2  11    0.43    0.08 
  15   2 -11    0.57    0.11 
  15   2 -11    0.55    0.11 
 -14  -2  11    0.47    0.07 
  14  -2 -11    0.59    0.14 
  14  -2 -11    0.37    0.12 
  14   2 -11    0.58    0.11 
  14   2 -11    0.50    0.10 
  13  -2 -11    0.01    0.07 
 -13  -2  11    0.09    0.05 
  13  -2 -11   -0.04    0.06 
  13   2 -11    0.07    0.06 
  13   2 -11    0.02    0.05 
 -12  -2  11    0.92    0.09 
  12  -2 -11    0.86    0.14 
  12  -2 -11    0.72    0.13 
  12   2 -11    0.89    0.11 
  12   2 -11    1.12    0.13 
  11  -2 -11    2.15    0.19 
 -11  -2  11    2.18    0.22 
 -11  -2  11    2.43    0.13 
  11  -2 -11    2.42    0.20 
  11   2 -11    1.92    0.17 
  11   2 -11    2.28    0.19 
  11   2 -11    2.07    0.17 
 -10  -2  11    4.59    0.19 
  10  -2 -11    3.95    0.25 
 -10  -2  11    4.10    0.29 
  10  -2 -11    4.48    0.26 
  10   2 -11    4.25    0.26 
  10   2 -11    4.93    0.24 
   9  -2 -11    6.92    0.31 
  -9  -2  11    6.74    0.36 
  -9  -2  11    7.08    0.24 
   9  -2 -11    6.69    0.33 
   9   2 -11    6.56    0.29 
   9   2 -11    7.33    0.34 
  -8  -2  11    0.52    0.06 
  -8  -2  11    0.56    0.12 
   8  -2 -11    0.61    0.11 
   8  -2 -11    0.44    0.09 
   8   2 -11    0.56    0.08 
   8   2 -11    0.48    0.10 
   7  -2 -11    0.48    0.10 
   7  -2 -11    0.55    0.09 
  -7  -2  11    0.37    0.05 
  -7  -2  11    0.31    0.10 
   7   2 -11    0.40    0.07 
  -7   2  11    0.46    0.08 
   7   2 -11    0.62    0.11 
   6  -2 -11    0.14    0.05 
  -6  -2  11    0.01    0.06 
  -6  -2  11    0.08    0.03 
   6  -2 -11    0.14    0.06 
   6   2 -11    0.10    0.07 
   6   2 -11    0.15    0.05 
  -6   2  11    0.08    0.05 
  -5  -2  11    0.70    0.06 
   5  -2 -11    0.85    0.09 
   5  -2 -11    0.79    0.11 
  -5  -2  11    0.73    0.12 
   5   2 -11    0.66    0.09 
  -5   2  11    0.69    0.09 
   5   2 -11    0.89    0.13 
   4  -2 -11    2.09    0.13 
  -4  -2  11    1.97    0.11 
   4  -2 -11    2.02    0.16 
  -4  -2  11    2.00    0.18 
   4   2 -11    2.02    0.19 
  -4   2  11    2.16    0.14 
   3  -2 -11    0.36    0.09 
   3  -2 -11    0.46    0.06 
  -3  -2  11    0.29    0.10 
  -3  -2  11    0.41    0.05 
  -3   2  11    0.32    0.07 
   3   2 -11    0.38    0.11 
   2  -2 -11    1.14    0.08 
   2  -2 -11    0.81    0.11 
  -2  -2  11    0.94    0.07 
  -2  -2  11    0.69    0.13 
   2   2 -11    0.85    0.15 
  -2   2  11    0.92    0.10 
  -1  -2  11    0.28    0.10 
   1  -2 -11    0.35    0.09 
  -1  -2  11    0.26    0.05 
   1  -2 -11    0.39    0.04 
  -1   2  11    0.29    0.07 
   1   2 -11    0.30    0.11 
   0  -2  11   10.76    0.45 
   0  -2 -11   10.46    0.41 
   0  -2  11   10.37    0.32 
   0   2 -11   10.72    0.50 
   0   2  11   10.92    0.38 
  -1  -2 -11    0.92    0.13 
   1  -2  11    0.90    0.14 
   1  -2  11    0.62    0.07 
  -1   2 -11    0.77    0.16 
   1   2  11    0.73    0.10 
   2  -2  11    0.59    0.13 
   2  -2  11    0.50    0.07 
  -2  -2 -11    0.78    0.12 
   2   2  11    0.44    0.08 
  -2   2 -11    0.54    0.14 
   3  -2  11    0.22    0.06 
   3  -2  11   -0.03    0.07 
  -3  -2 -11    0.05    0.07 
   3   2  11    0.27    0.08 
  -3   2 -11    0.20    0.11 
  -4  -2 -11    0.26    0.10 
   4  -2  11    0.36    0.07 
   4  -2  11    0.44    0.12 
  -4   2 -11    0.30    0.12 
   5  -2  11    0.97    0.10 
  -5  -2 -11    0.90    0.14 
   5  -2  11    0.73    0.15 
  -5   2 -11    0.88    0.18 
  -6  -2 -11    0.04    0.07 
   6  -2  11    0.04    0.09 
   6  -2  11    0.03    0.05 
  -6   2 -11   -0.02    0.09 
   7  -2  11    0.35    0.13 
   7  -2  11    0.12    0.06 
  -7  -2 -11    0.42    0.12 
  -7   2 -11    0.18    0.13 
   8  -2  11    1.62    0.13 
  -8  -2 -11    1.38    0.19 
   8  -2  11    1.58    0.22 
  -8   2 -11    1.29    0.23 
  -9  -2 -11    0.01    0.09 
   9  -2  11   -0.10    0.05 
 -10  -2 -11    0.08    0.10 
  10  -2  11    0.31    0.08 
 -11  -2 -11    0.29    0.14 
  11  -2  11    0.29    0.08 
  12  -2  11    0.33    0.09 
  19  -3 -11    0.84    0.20 
  18  -3 -11    0.54    0.16 
  18   3 -11    0.71    0.14 
  17  -3 -11    2.47    0.27 
  17  -3 -11    2.59    0.30 
  17   3 -11    2.09    0.21 
  16  -3 -11    1.48    0.21 
  16  -3 -11    1.43    0.23 
  16   3 -11    1.57    0.17 
  15  -3 -11    0.17    0.11 
  15  -3 -11    0.12    0.11 
  15   3 -11    0.21    0.09 
  14  -3 -11    0.27    0.12 
  14  -3 -11    0.11    0.09 
  14   3 -11    0.06    0.07 
  13  -3 -11    0.34    0.12 
  13  -3 -11    0.09    0.10 
  13   3 -11    0.27    0.09 
  13   3 -11    0.41    0.12 
  12  -3 -11    5.94    0.34 
  12  -3 -11    6.57    0.38 
  12   3 -11    6.45    0.35 
  11  -3 -11    1.62    0.18 
 -11  -3  11    1.62    0.20 
  11  -3 -11    1.61    0.19 
  11   3 -11    2.17    0.20 
 -10  -3  11   10.68    0.49 
  10  -3 -11   10.46    0.46 
  10  -3 -11   10.90    0.45 
  10   3 -11   10.97    0.48 
  -9  -3  11    5.83    0.34 
   9  -3 -11    5.20    0.29 
   9  -3 -11    5.13    0.30 
   9   3 -11    5.42    0.33 
   8  -3 -11    3.58    0.23 
  -8  -3  11    3.38    0.26 
   8  -3 -11    3.34    0.23 
   8   3 -11    3.08    0.25 
  -7  -3  11    0.63    0.13 
   7  -3 -11    0.76    0.11 
   7  -3 -11    0.77    0.12 
   7   3 -11    0.56    0.13 
   6  -3 -11    0.01    0.06 
  -6  -3  11    0.01    0.08 
   6  -3 -11    0.01    0.05 
   6   3 -11   -0.03    0.06 
  -5  -3  11    4.80    0.30 
   5  -3 -11    4.92    0.25 
   5  -3 -11    4.83    0.26 
   5   3 -11    4.57    0.32 
  -4  -3  11   30.64    0.91 
   4  -3 -11   30.27    0.85 
   4  -3 -11   30.49    0.83 
   4   3 -11   31.69    1.05 
   3  -3 -11   18.14    0.58 
  -3  -3  11   18.39    0.64 
   3   3 -11   17.98    0.73 
  -2  -3  11   56.74    1.45 
   2  -3 -11   56.28    1.39 
   2   3 -11   54.01    1.65 
   1  -3 -11   37.79    0.99 
  -1  -3  11   36.05    1.04 
   1   3 -11   36.38    1.22 
   0  -3 -11    5.13    0.28 
   0  -3  11    5.86    0.33 
   0   3 -11    5.48    0.39 
  -1  -3 -11    0.27    0.09 
   1  -3  11    0.41    0.12 
  -1   3 -11    0.28    0.14 
  -2  -3 -11    2.56    0.20 
   2  -3  11    2.69    0.23 
  -2   3 -11    2.50    0.29 
   3  -3  11    4.90    0.31 
  -3  -3 -11    5.40    0.30 
  -3   3 -11    4.74    0.38 
  -4  -3 -11    6.14    0.33 
   4  -3  11    6.25    0.36 
  -4   3 -11    7.05    0.47 
  -5  -3 -11    1.69    0.18 
   5  -3  11    1.25    0.19 
  -5   3 -11    1.41    0.24 
   6  -3  11    4.74    0.33 
  -6  -3 -11    4.87    0.31 
  -6   3 -11    3.99    0.39 
  -7  -3 -11    2.71    0.24 
   7  -3  11    3.10    0.29 
  -7   3 -11    2.77    0.33 
   8  -3  11    0.08    0.12 
  -8  -3 -11    0.02    0.10 
  -8   3 -11    0.16    0.16 
   9  -3  11   -0.11    0.11 
  -9  -3 -11    0.14    0.11 
  -9   3 -11    0.00    0.14 
 -10  -3 -11    0.19    0.12 
  10  -3  11    0.32    0.16 
 -11  -3 -11    0.84    0.19 
  17  -4 -11    0.16    0.12 
  16  -4 -11    0.12    0.13 
  16  -4 -11    0.21    0.13 
  16   4 -11    0.15    0.09 
  15  -4 -11    0.92    0.18 
  15  -4 -11    1.13    0.22 
  15   4 -11    0.90    0.15 
  14  -4 -11    0.17    0.11 
  14  -4 -11    0.13    0.11 
  14   4 -11    0.03    0.09 
  14   4 -11    0.12    0.09 
  13  -4 -11    0.00    0.08 
  13  -4 -11   -0.07    0.09 
  13   4 -11    0.09    0.08 
  12  -4 -11    1.13    0.20 
  12  -4 -11    1.30    0.17 
  12   4 -11    1.20    0.18 
  11  -4 -11    0.09    0.09 
  11  -4 -11    0.18    0.11 
 -11  -4  11    0.16    0.11 
  11   4 -11    0.35    0.12 
  10  -4 -11    3.45    0.25 
 -10  -4  11    3.64    0.29 
  10  -4 -11    3.85    0.30 
  10   4 -11    4.31    0.31 
  -9  -4  11    2.39    0.23 
   9  -4 -11    2.09    0.19 
   9  -4 -11    2.46    0.24 
   9   4 -11    2.29    0.24 
   8  -4 -11    1.09    0.14 
   8  -4 -11    1.11    0.17 
  -8  -4  11    1.08    0.17 
   8   4 -11    0.92    0.17 
  -7  -4  11    1.45    0.18 
   7  -4 -11    1.32    0.14 
   7  -4 -11    1.49    0.18 
   7   4 -11    1.59    0.21 
   6  -4 -11    4.31    0.27 
  -6  -4  11    3.77    0.27 
   6  -4 -11    3.93    0.23 
   6   4 -11    4.53    0.34 
  -5  -4  11    0.25    0.11 
   5  -4 -11    0.27    0.09 
   5   4 -11    0.26    0.13 
  -4  -4  11    1.35    0.17 
   4  -4 -11    1.21    0.14 
   4   4 -11    1.57    0.23 
   3  -4 -11    2.59    0.20 
  -3  -4  11    2.57    0.22 
   3   4 -11    2.28    0.28 
   2  -4 -11    6.84    0.31 
  -2  -4  11    6.35    0.35 
   2   4 -11    6.09    0.44 
   1  -4 -11    4.04    0.24 
  -1  -4  11    3.58    0.27 
   1   4 -11    4.10    0.37 
   0  -4 -11    0.80    0.12 
   0  -4  11    0.80    0.14 
   0   4 -11    0.86    0.21 
   1  -4  11    8.55    0.41 
  -1  -4 -11    7.75    0.36 
  -1   4 -11    8.07    0.53 
  -2  -4 -11    0.50    0.11 
   2  -4  11    0.72    0.15 
  -2   4 -11    0.69    0.20 
   3  -4  11    0.01    0.08 
  -3  -4 -11   -0.03    0.06 
  -3   4 -11   -0.10    0.09 
   4  -4  11    0.02    0.08 
  -4  -4 -11    0.00    0.07 
  -4   4 -11    0.09    0.13 
  -5  -4 -11    0.22    0.10 
   5  -4  11    0.25    0.12 
  -5   4 -11    0.22    0.15 
  -6  -4 -11    0.39    0.12 
   6  -4  11    0.39    0.15 
  -6   4 -11    0.47    0.20 
   7  -4  11    0.32    0.14 
  -7  -4 -11    0.26    0.12 
  -7   4 -11    0.51    0.20 
  -8  -4 -11   -0.13    0.07 
   8  -4  11   -0.05    0.10 
   9  -4  11    2.28    0.28 
  -9  -4 -11    1.64    0.22 
 -10  -4 -11    0.36    0.15 
  10  -4  11    0.27    0.16 
  15  -5 -11    0.53    0.16 
  14  -5 -11    0.88    0.18 
  14  -5 -11    1.29    0.26 
  13  -5 -11    0.74    0.16 
  13  -5 -11    0.83    0.22 
  12  -5 -11    0.45    0.17 
  12  -5 -11    0.47    0.14 
  11  -5 -11    0.09    0.11 
 -11  -5  11    0.03    0.10 
  11  -5 -11    0.09    0.08 
 -10  -5  11    0.20    0.12 
  10  -5 -11    0.10    0.12 
  10  -5 -11    0.18    0.09 
  10   5 -11    0.26    0.13 
   9  -5 -11    0.05    0.08 
   9  -5 -11    0.00    0.10 
  -9  -5  11    0.04    0.09 
   9   5 -11   -0.04    0.09 
   8  -5 -11    0.03    0.07 
  -8  -5  11   -0.01    0.09 
   8   5 -11    0.18    0.11 
   7  -5 -11   -0.03    0.06 
  -7  -5  11    0.10    0.09 
   7   5 -11    0.04    0.10 
   6  -5 -11    0.36    0.10 
  -6  -5  11    0.77    0.15 
   6   5 -11    0.39    0.15 
  -5  -5  11    0.52    0.13 
   5  -5 -11    0.46    0.10 
   5   5 -11    0.67    0.19 
   4  -5 -11    3.01    0.21 
  -4  -5  11    2.96    0.25 
   4   5 -11    2.89    0.33 
   3  -5 -11    0.39    0.10 
  -3  -5  11    0.36    0.12 
   3   5 -11    0.41    0.17 
   2  -5 -11    0.13    0.07 
  -2  -5  11   -0.03    0.07 
   2   5 -11   -0.05    0.11 
   1  -5 -11    0.20    0.09 
  -1  -5  11    0.25    0.11 
   1   5 -11    0.11    0.14 
   0  -5 -11    0.14    0.08 
   0  -5  11    0.09    0.09 
   0   5 -11    0.18    0.15 
  -1  -5 -11   -0.04    0.06 
   1  -5  11    0.01    0.08 
  -1   5 -11   -0.09    0.11 
  -2  -5 -11    0.03    0.07 
   2  -5  11   -0.01    0.08 
   3  -5  11    0.95    0.17 
  -3  -5 -11    1.41    0.17 
   4  -5  11    0.47    0.15 
  -4  -5 -11    0.41    0.12 
  -5  -5 -11    0.58    0.13 
   5  -5  11    0.61    0.17 
   6  -5  11    0.66    0.17 
  -6  -5 -11    0.61    0.14 
  -7  -5 -11    0.59    0.15 
   7  -5  11    0.32    0.15 
  11  -6 -11    1.40    0.18 
  10  -6 -11    3.72    0.26 
 -10  -6  11    3.29    0.29 
   9  -6 -11    1.93    0.19 
  -9  -6  11    2.21    0.24 
  -8  -6  11    2.07    0.22 
   8  -6 -11    1.96    0.18 
  -7  -6  11    1.62    0.21 
   7  -6 -11    1.67    0.17 
   6  -6 -11    0.24    0.09 
  -6  -6  11    0.33    0.13 
  -5  -6  11    0.09    0.11 
   5  -6 -11    0.14    0.09 
   4  -6 -11    6.04    0.30 
  -4  -6  11    6.32    0.37 
   3  -6 -11    0.11    0.08 
  -3  -6  11    0.02    0.09 
   2  -6 -11    0.09    0.08 
  -2  -6  11   -0.03    0.08 
  -1  -6  11    0.70    0.15 
   1  -6 -11    0.69    0.12 
   0  -6 -11    0.01    0.07 
   0  -6  11   -0.10    0.08 
   1  -6  11   -0.04    0.08 
  -1  -6 -11    0.06    0.08 
   2  -6  11    0.13    0.12 
  -2  -6 -11    0.17    0.09 
  -3  -6 -11    1.02    0.15 
   3  -6  11    1.15    0.20 
 -21   0  12   15.06    0.61 
  21   0 -12   14.70    0.58 
  20   0 -12    1.15    0.16 
 -20   0  12    1.45    0.19 
  19   0 -12    0.02    0.08 
  19   0 -12   -0.05    0.07 
 -19   0  12    0.05    0.09 
  18   0 -12    1.06    0.17 
  18   0 -12    1.04    0.14 
 -18   0  12    1.05    0.16 
 -17   0  12    1.19    0.16 
  17   0 -12    1.20    0.16 
  17   0 -12    0.87    0.13 
  16   0 -12    7.03    0.36 
 -16   0  12    7.65    0.37 
  16   0 -12    7.72    0.35 
  15   0 -12   39.27    1.12 
  15   0 -12   41.38    1.10 
 -15   0  12   40.41    1.13 
 -14   0  12   20.42    0.67 
  14   0 -12   20.83    0.65 
  14   0 -12   20.35    0.66 
  13   0 -12  113.54    2.71 
 -13   0  12  116.33    2.74 
  13   0 -12  117.83    2.70 
  12   0 -12    5.07    0.26 
 -12   0  12    5.12    0.27 
  12   0 -12    5.58    0.31 
  12   0 -12    5.42    0.26 
  11   0 -12    0.01    0.04 
  11   0 -12    0.04    0.07 
 -11   0  12    0.00    0.05 
  11   0 -12    0.00    0.05 
 -10   0  12    6.85    0.36 
  10   0 -12    6.77    0.28 
  10   0 -12    7.27    0.34 
 -10   0  12    6.30    0.29 
   9   0 -12   20.97    0.61 
   9   0 -12   20.81    0.67 
  -9   0  12   21.47    0.64 
  -9   0  12   21.83    0.72 
   8   0 -12   62.05    1.52 
  -8   0  12   66.54    1.57 
   8   0 -12   62.96    1.57 
  -8   0  12   64.38    1.62 
   7   0 -12  113.26    2.54 
   7   0 -12  109.27    2.56 
  -7   0  12  111.25    2.58 
  -7   0  12  113.26    2.62 
   6   0 -12   63.24    1.51 
  -6   0  12   63.83    1.55 
  -6   0  12   64.44    1.61 
   6   0 -12   64.44    1.57 
   5   0 -12   81.63    1.99 
  -5   0  12   77.45    1.93 
   5   0 -12   81.26    1.90 
  -5   0  12   81.04    1.89 
   5   0 -12   78.81    1.85 
   4   0 -12    0.00    0.05 
  -4   0  12    0.20    0.06 
   4   0 -12    0.16    0.05 
  -4   0  12    0.12    0.08 
  -3   0  12   16.39    0.50 
   3   0 -12   15.85    0.53 
  -3   0  12   15.75    0.56 
   3   0 -12   15.89    0.50 
  -2   0  12   16.35    0.58 
  -2   0  12   16.95    0.51 
   2   0 -12   15.99    0.51 
   2   0 -12   15.78    0.54 
  -1   0  12    0.28    0.10 
  -1   0  12    0.59    0.09 
   1   0 -12    0.68    0.09 
   1   0 -12    0.44    0.10 
   0   0 -12    3.17    0.22 
   0   0  12    3.08    0.23 
   0   0 -12    3.22    0.18 
   0   0  12    3.33    0.19 
  -1   0 -12    8.09    0.31 
   1   0  12    8.06    0.38 
   1   0  12    7.47    0.31 
  -1   0 -12    7.76    0.36 
  -2   0 -12    0.41    0.08 
   2   0  12    0.37    0.12 
   2   0  12    0.34    0.08 
  -2   0 -12    0.33    0.10 
   4   0  12    2.77    0.19 
  -4   0 -12    2.91    0.23 
  -5   0 -12    0.37    0.11 
   5   0  12    0.35    0.09 
   6   0  12    3.95    0.24 
   7   0  12   15.64    0.55 
   8   0  12   15.80    0.57 
   9   0  12    7.81    0.38 
  10   0  12   -0.01    0.06 
  11   0  12    0.20    0.09 
  12   0  12    2.43    0.22 
 -20  -1  12    0.41    0.12 
  20   1 -12    0.46    0.13 
 -20   1  12    0.44    0.14 
 -19  -1  12    2.48    0.21 
  19   1 -12    2.50    0.22 
 -19   1  12    2.50    0.24 
 -18  -1  12    0.00    0.07 
  18  -1 -12    0.07    0.09 
 -18   1  12    0.06    0.08 
  18   1 -12    0.04    0.08 
  18   1 -12   -0.03    0.06 
  17  -1 -12    0.03    0.08 
 -17  -1  12   -0.02    0.06 
  17   1 -12    0.11    0.08 
  17   1 -12    0.07    0.07 
 -17   1  12    0.00    0.07 
 -16  -1  12    1.66    0.16 
  16  -1 -12    1.70    0.19 
 -16   1  12    1.74    0.18 
  16   1 -12    1.49    0.16 
  16   1 -12    1.68    0.17 
  15  -1 -12    0.26    0.10 
  15  -1 -12    0.28    0.13 
 -15  -1  12    0.16    0.09 
 -15   1  12    0.21    0.10 
  15   1 -12    0.23    0.09 
  15   1 -12    0.47    0.11 
  14  -1 -12    8.34    0.39 
 -14  -1  12    8.91    0.37 
  14  -1 -12    8.51    0.43 
  14   1 -12    8.20    0.36 
 -14   1  12    7.87    0.37 
  14   1 -12    8.64    0.37 
  13  -1 -12   22.87    0.72 
  13  -1 -12   24.61    0.78 
 -13  -1  12   22.81    0.69 
  13   1 -12   23.63    0.71 
  13   1 -12   22.03    0.69 
 -13   1  12   21.39    0.71 
 -12  -1  12    1.56    0.14 
  12  -1 -12    1.70    0.16 
  12  -1 -12    1.69    0.19 
  12   1 -12    1.61    0.15 
  12   1 -12    1.47    0.14 
 -12   1  12    1.71    0.16 
  11  -1 -12   25.39    0.76 
 -11  -1  12   27.09    0.75 
 -11  -1  12   27.83    0.88 
  11  -1 -12   26.60    0.82 
  11   1 -12   26.03    0.76 
  11   1 -12   25.18    0.75 
 -11   1  12   27.66    0.78 
 -10  -1  12    3.39    0.20 
 -10  -1  12    3.23    0.26 
  10  -1 -12    3.26    0.23 
  10  -1 -12    3.27    0.20 
  10   1 -12    3.53    0.20 
 -10   1  12    3.54    0.21 
  10   1 -12    3.21    0.20 
   9  -1 -12    4.70    0.28 
  -9  -1  12    4.88    0.30 
  -9  -1  12    5.13    0.24 
   9  -1 -12    4.72    0.23 
   9   1 -12    4.99    0.24 
   9   1 -12    4.98    0.26 
  -9   1  12    4.95    0.25 
   9   1 -12    4.98    0.24 
   8  -1 -12    0.49    0.10 
  -8  -1  12    0.56    0.12 
  -8  -1  12    0.43    0.08 
   8  -1 -12    0.56    0.08 
  -8   1  12    0.54    0.09 
   8   1 -12    0.53    0.08 
   8   1 -12    0.53    0.10 
   7  -1 -12    0.88    0.09 
   7  -1 -12    0.71    0.11 
  -7  -1  12    0.69    0.13 
  -7  -1  12    0.72    0.09 
   7   1 -12    0.77    0.11 
  -7   1  12    0.59    0.09 
   7   1 -12    0.73    0.11 
   6  -1 -12    6.57    0.32 
  -6  -1  12    6.63    0.27 
   6  -1 -12    6.70    0.25 
  -6  -1  12    6.02    0.33 
   6   1 -12    7.10    0.31 
  -6   1  12    6.76    0.29 
   6   1 -12    6.61    0.31 
  -5  -1  12   19.23    0.56 
   5  -1 -12   19.02    0.61 
  -5  -1  12   19.31    0.66 
   5  -1 -12   19.60    0.52 
  -5   1  12   20.00    0.58 
   5   1 -12   19.15    0.61 
   5   1 -12   19.45    0.63 
   4  -1 -12    7.32    0.33 
  -4  -1  12    7.32    0.29 
   4  -1 -12    7.39    0.24 
  -4  -1  12    7.53    0.37 
  -4   1  12    7.25    0.30 
   4   1 -12    7.73    0.34 
   4   1 -12    7.29    0.33 
  -3  -1  12   55.68    1.35 
  -3  -1  12   55.42    1.44 
   3  -1 -12   54.75    1.28 
   3  -1 -12   57.79    1.40 
   3   1 -12   55.87    1.38 
   3   1 -12   56.17    1.49 
  -3   1  12   54.77    1.37 
  -2  -1  12    4.41    0.21 
   2  -1 -12    4.93    0.26 
  -2  -1  12    4.40    0.28 
   2  -1 -12    4.50    0.16 
   2   1 -12    4.74    0.26 
   2   1 -12    4.62    0.26 
  -2   1  12    4.46    0.22 
  -1  -1  12    0.13    0.05 
  -1  -1  12    0.09    0.08 
   1  -1 -12    0.12    0.03 
   1  -1 -12    0.07    0.06 
   1   1 -12    0.08    0.07 
   1   1 -12    0.13    0.07 
  -1   1  12    0.11    0.06 
   0  -1 -12    1.95    0.17 
   0  -1  12    1.97    0.20 
   0  -1  12    2.02    0.14 
   0  -1 -12    1.92    0.09 
   0   1 -12    2.07    0.18 
   0   1 -12    2.13    0.18 
   0   1  12    2.03    0.15 
   1  -1  12    0.14    0.09 
   1  -1  12    0.11    0.06 
  -1  -1 -12    0.20    0.09 
   1   1  12    0.10    0.06 
  -1   1 -12    0.14    0.08 
  -2  -1 -12    8.55    0.39 
   2  -1  12    8.04    0.40 
   2  -1  12    8.95    0.33 
  -2   1 -12    8.87    0.41 
   2   1  12    8.67    0.35 
  -3  -1 -12   -0.02    0.05 
   3  -1  12    0.01    0.05 
   3  -1  12   -0.04    0.07 
  -3   1 -12    0.08    0.08 
   3   1  12   -0.02    0.05 
  -4  -1 -12    4.07    0.27 
   4  -1  12    3.65    0.28 
   4  -1  12    3.96    0.22 
   4   1  12    3.77    0.23 
  -4   1 -12    4.51    0.29 
   5  -1  12   10.80    0.50 
   5  -1  12   10.45    0.40 
  -5  -1 -12   11.18    0.48 
   5   1  12   11.30    0.43 
  -5   1 -12   11.44    0.51 
   6  -1  12    0.78    0.11 
  -6  -1 -12    0.90    0.15 
   6   1  12    0.70    0.12 
  -7  -1 -12   -0.12    0.07 
   7  -1  12   -0.02    0.05 
   7   1  12    0.09    0.07 
   8  -1  12    2.17    0.18 
   8   1  12    2.27    0.20 
   9  -1  12    0.56    0.11 
   9   1  12    0.48    0.12 
  10  -1  12    3.83    0.25 
  10   1  12    4.17    0.29 
  11  -1  12   -0.05    0.07 
  11   1  12    0.03    0.08 
  12  -1  12    0.11    0.09 
  12   1  12    0.16    0.10 
 -20  -2  12    2.12    0.15 
  20   2 -12    1.85    0.21 
 -19  -2  12    3.26    0.19 
  19   2 -12    3.82    0.29 
 -18  -2  12    0.57    0.09 
  18  -2 -12    0.92    0.19 
  18   2 -12    0.45    0.13 
  18   2 -12    0.54    0.13 
  17  -2 -12    2.42    0.26 
  17  -2 -12    2.95    0.28 
 -17  -2  12    2.64    0.17 
  17   2 -12    2.08    0.20 
  17   2 -12    2.48    0.22 
  16  -2 -12    2.46    0.25 
 -16  -2  12    2.51    0.16 
  16  -2 -12    2.80    0.27 
  16   2 -12    2.24    0.20 
  16   2 -12    2.39    0.20 
  15  -2 -12    4.27    0.31 
  15  -2 -12    4.67    0.33 
 -15  -2  12    4.05    0.20 
  15   2 -12    4.35    0.26 
  15   2 -12    4.03    0.26 
  14  -2 -12    0.04    0.08 
 -14  -2  12   -0.03    0.04 
  14  -2 -12   -0.02    0.07 
  14   2 -12    0.13    0.07 
  14   2 -12   -0.01    0.06 
 -13  -2  12    2.93    0.16 
  13  -2 -12    2.97    0.24 
  13  -2 -12    2.57    0.23 
  13   2 -12    2.83    0.21 
  13   2 -12    2.69    0.20 
  12  -2 -12    1.11    0.15 
 -12  -2  12    1.04    0.10 
 -12  -2  12    1.18    0.19 
  12  -2 -12    1.18    0.16 
  12   2 -12    0.99    0.13 
  12   2 -12    1.12    0.15 
  12   2 -12    1.13    0.13 
  11  -2 -12    1.49    0.16 
 -11  -2  12    1.61    0.12 
 -11  -2  12    1.38    0.19 
  11  -2 -12    1.70    0.18 
  11   2 -12    1.84    0.18 
  11   2 -12    1.45    0.14 
  11   2 -12    1.74    0.16 
  10  -2 -12    1.16    0.15 
 -10  -2  12    0.83    0.15 
  10  -2 -12    1.14    0.14 
 -10  -2  12    1.05    0.09 
  10   2 -12    1.04    0.14 
  10   2 -12    1.02    0.12 
 -10   2  12    0.96    0.12 
  -9  -2  12   20.96    0.74 
   9  -2 -12   21.98    0.70 
  -9  -2  12   21.99    0.58 
   9  -2 -12   21.73    0.67 
  -9   2  12   22.82    0.66 
   9   2 -12   22.83    0.66 
   9   2 -12   20.68    0.72 
   8  -2 -12    7.30    0.34 
  -8  -2  12    7.23    0.38 
   8  -2 -12    6.78    0.30 
  -8  -2  12    7.08    0.25 
   8   2 -12    7.75    0.36 
  -8   2  12    7.08    0.30 
   8   2 -12    7.48    0.31 
   7  -2 -12    8.97    0.34 
  -7  -2  12    9.71    0.44 
  -7  -2  12    9.25    0.30 
   7  -2 -12   10.09    0.40 
   7   2 -12    9.35    0.35 
  -7   2  12    8.68    0.34 
   7   2 -12    9.76    0.42 
   6  -2 -12    4.48    0.26 
   6  -2 -12    4.76    0.22 
  -6  -2  12    4.32    0.18 
  -6  -2  12    4.54    0.29 
   6   2 -12    4.28    0.22 
  -6   2  12    4.37    0.23 
   6   2 -12    4.58    0.28 
   5  -2 -12    4.38    0.20 
  -5  -2  12    4.26    0.18 
  -5  -2  12    4.22    0.27 
   5  -2 -12    4.58    0.26 
   5   2 -12    4.25    0.27 
  -5   2  12    4.14    0.22 
  -4  -2  12   11.41    0.34 
  -4  -2  12   11.86    0.48 
   4  -2 -12   12.14    0.45 
   4  -2 -12   11.59    0.36 
  -4   2  12   12.11    0.41 
   4   2 -12   11.13    0.49 
  -3  -2  12    3.39    0.25 
   3  -2 -12    3.48    0.15 
  -3  -2  12    3.16    0.15 
   3  -2 -12    3.39    0.22 
   3   2 -12    3.30    0.25 
  -3   2  12    3.24    0.19 
  -2  -2  12    4.23    0.18 
   2  -2 -12    3.80    0.24 
  -2  -2  12    4.48    0.29 
   2   2 -12    4.39    0.30 
  -2   2  12    4.23    0.22 
  -1  -2  12   40.59    0.99 
  -1  -2  12   41.35    1.15 
   1  -2 -12   41.48    1.10 
   1   2 -12   40.99    1.25 
  -1   2  12   40.64    1.06 
   0  -2  12    0.88    0.08 
   0  -2  12    0.80    0.15 
   0  -2 -12    0.81    0.13 
   0   2 -12    0.58    0.15 
   0   2  12    0.81    0.10 
   1  -2  12    5.39    0.32 
  -1  -2 -12    5.48    0.30 
   1  -2  12    5.22    0.21 
   1   2  12    4.97    0.25 
  -1   2 -12    4.92    0.34 
  -2  -2 -12   10.01    0.43 
   2  -2  12   10.34    0.33 
   2  -2  12   10.13    0.46 
  -2   2 -12   10.19    0.51 
   3  -2  12   12.69    0.54 
   3  -2  12   12.40    0.39 
  -3  -2 -12   12.39    0.50 
  -3   2 -12   13.08    0.60 
  -4  -2 -12    8.22    0.40 
   4  -2  12    8.38    0.31 
   4  -2  12    9.21    0.45 
  -4   2 -12    8.64    0.48 
  -5  -2 -12    1.86    0.20 
   5  -2  12    2.09    0.23 
   5  -2  12    1.82    0.14 
  -5   2 -12    1.70    0.23 
  -6  -2 -12    0.66    0.15 
   6  -2  12    0.61    0.15 
   6  -2  12    0.49    0.08 
  -6   2 -12    0.62    0.17 
   7  -2  12    4.75    0.36 
   7  -2  12    5.22    0.24 
  -7  -2 -12    5.22    0.34 
  -7   2 -12    5.69    0.41 
  -8  -2 -12    1.34    0.19 
   8  -2  12    1.23    0.12 
   9  -2  12    0.10    0.06 
  -9  -2 -12    0.06    0.11 
  10  -2  12    1.48    0.14 
 -10  -2 -12    0.87    0.19 
  11  -2  12    1.13    0.13 
  12  -2  12    0.36    0.09 
  19  -3 -12    0.37    0.16 
  18  -3 -12   -0.01    0.10 
  17  -3 -12    0.51    0.17 
  17  -3 -12    0.36    0.14 
  17   3 -12    0.13    0.10 
  16  -3 -12    3.15    0.31 
  16  -3 -12    2.42    0.26 
  16   3 -12    2.47    0.22 
  15  -3 -12    4.82    0.36 
  15  -3 -12    4.90    0.34 
  15   3 -12    5.17    0.30 
  14  -3 -12    6.55    0.38 
  14  -3 -12    6.51    0.40 
  14   3 -12    6.18    0.33 
  13  -3 -12    3.14    0.28 
  13  -3 -12    3.62    0.27 
  13   3 -12    3.51    0.24 
  13   3 -12    3.37    0.25 
 -12  -3  12    0.86    0.17 
  12  -3 -12    0.86    0.16 
  12  -3 -12    0.62    0.13 
  12   3 -12    0.78    0.14 
  11  -3 -12    1.22    0.17 
 -11  -3  12    0.84    0.16 
  11  -3 -12    0.82    0.14 
  11   3 -12    0.95    0.15 
  10  -3 -12    1.52    0.17 
  10  -3 -12    1.65    0.18 
 -10  -3  12    1.14    0.18 
  10   3 -12    1.51    0.18 
   9  -3 -12    0.51    0.11 
  -9  -3  12    0.70    0.15 
   9  -3 -12    0.66    0.12 
   9   3 -12    0.41    0.12 
  -8  -3  12    2.12    0.22 
   8  -3 -12    2.58    0.20 
   8  -3 -12    2.28    0.20 
   8   3 -12    2.64    0.24 
   7  -3 -12    0.20    0.08 
   7  -3 -12    0.18    0.08 
  -7  -3  12    0.12    0.09 
   7   3 -12    0.31    0.11 
  -6  -3  12    0.70    0.14 
   6  -3 -12    0.80    0.12 
   6  -3 -12    0.83    0.11 
   6   3 -12    0.65    0.14 
  -5  -3  12    1.96    0.20 
   5  -3 -12    2.03    0.18 
   5  -3 -12    2.22    0.16 
   5   3 -12    2.12    0.23 
  -4  -3  12    0.59    0.14 
   4  -3 -12    0.39    0.11 
   4   3 -12    0.72    0.16 
   3  -3 -12   12.94    0.48 
  -3  -3  12   12.80    0.53 
   3   3 -12   12.79    0.60 
  -2  -3  12   18.23    0.66 
   2  -3 -12   17.72    0.60 
   2   3 -12   18.24    0.75 
   1  -3 -12   31.53    0.90 
  -1  -3  12   33.17    0.98 
   1   3 -12   30.43    1.10 
   0  -3  12   33.84    1.01 
   0  -3 -12   33.77    0.96 
   0   3 -12   33.28    1.17 
  -1  -3 -12    1.40    0.17 
   1  -3  12    1.46    0.19 
  -1   3 -12    1.36    0.22 
  -2  -3 -12    0.67    0.13 
   2  -3  12    0.51    0.13 
  -2   3 -12    0.45    0.16 
  -3  -3 -12    0.20    0.09 
   3  -3  12    0.21    0.11 
  -3   3 -12    0.26    0.14 
   4  -3  12    0.47    0.14 
  -4  -3 -12    0.67    0.14 
  -4   3 -12    0.61    0.19 
   5  -3  12    5.89    0.38 
  -5  -3 -12    5.41    0.33 
  -5   3 -12    5.85    0.44 
   6  -3  12    2.02    0.24 
  -6  -3 -12    2.03    0.22 
  -6   3 -12    1.98    0.29 
   7  -3  12    7.90    0.46 
  -7  -3 -12    7.96    0.42 
  -7   3 -12    6.76    0.51 
   8  -3  12    4.84    0.37 
  -8  -3 -12    4.01    0.31 
  -8   3 -12    5.10    0.45 
  -9  -3 -12    0.15    0.12 
   9  -3  12    0.21    0.13 
 -10  -3 -12   -0.08    0.10 
  17  -4 -12    0.75    0.18 
  16  -4 -12    3.06    0.29 
  16  -4 -12    3.19    0.34 
  16   4 -12    3.23    0.26 
  15  -4 -12    2.20    0.25 
  15  -4 -12    2.67    0.31 
  15   4 -12    2.48    0.23 
  14  -4 -12    0.11    0.10 
  14  -4 -12    0.09    0.13 
  14   4 -12    0.06    0.08 
  13  -4 -12    0.31    0.12 
  13  -4 -12    0.22    0.14 
  13   4 -12    0.26    0.11 
  12  -4 -12    0.56    0.13 
 -12  -4  12    0.06    0.10 
  12  -4 -12    0.25    0.13 
  12   4 -12    0.10    0.09 
  11  -4 -12    3.17    0.28 
 -11  -4  12    2.95    0.27 
  11  -4 -12    3.04    0.24 
  11   4 -12    3.21    0.27 
 -10  -4  12    0.62    0.16 
  10  -4 -12    0.48    0.12 
  10  -4 -12    0.76    0.16 
  10   4 -12    0.64    0.15 
   9  -4 -12    9.40    0.46 
  -9  -4  12    8.27    0.44 
   9  -4 -12    8.44    0.39 
   9   4 -12    8.48    0.47 
   8  -4 -12   14.89    0.54 
  -8  -4  12   14.10    0.60 
   8  -4 -12   15.19    0.59 
   8   4 -12   15.05    0.66 
  -7  -4  12    4.86    0.32 
   7  -4 -12    4.42    0.27 
   7   4 -12    5.08    0.36 
   6  -4 -12    0.33    0.09 
  -6  -4  12    0.20    0.10 
   6   4 -12    0.19    0.11 
  -5  -4  12    0.87    0.15 
   5  -4 -12    0.80    0.12 
   5   4 -12    0.54    0.16 
   4  -4 -12    0.59    0.11 
  -4  -4  12    0.48    0.13 
   4   4 -12    0.33    0.14 
  -3  -4  12    0.35    0.11 
   3  -4 -12    0.34    0.10 
   3   4 -12    0.21    0.13 
  -2  -4  12    0.42    0.13 
   2  -4 -12    0.72    0.12 
   2   4 -12    0.93    0.20 
  -1  -4  12    2.82    0.25 
   1  -4 -12    2.59    0.21 
   1   4 -12    3.02    0.33 
   0  -4  12    6.39    0.36 
   0  -4 -12    5.85    0.31 
   0   4 -12    5.93    0.45 
   1  -4  12    4.32    0.31 
  -1  -4 -12    5.20    0.29 
  -1   4 -12    4.86    0.42 
   2  -4  12    1.31    0.19 
  -2  -4 -12    1.51    0.17 
  -2   4 -12    1.37    0.26 
  -3  -4 -12    0.25    0.10 
   3  -4  12    0.12    0.10 
  -3   4 -12    0.14    0.14 
   4  -4  12    0.28    0.12 
  -4  -4 -12    0.35    0.12 
  -4   4 -12    0.22    0.16 
  -5  -4 -12    1.85    0.20 
   5  -4  12    2.03    0.24 
  -5   4 -12    1.60    0.29 
   6  -4  12    2.27    0.26 
  -6  -4 -12    2.22    0.23 
  -6   4 -12    2.95    0.37 
  -7  -4 -12    0.28    0.12 
   7  -4  12    0.52    0.17 
   8  -4  12    0.06    0.12 
  -8  -4 -12    0.00    0.10 
  -9  -4 -12    1.07    0.20 
   9  -4  12    1.29    0.24 
  14  -5 -12    2.47    0.32 
  14  -5 -12    2.15    0.24 
  13  -5 -12    5.17    0.43 
  13  -5 -12    5.01    0.34 
  12  -5 -12    0.05    0.09 
  12  -5 -12    0.04    0.12 
 -12  -5  12   -0.03    0.10 
  11  -5 -12    2.89    0.24 
  11  -5 -12    3.27    0.33 
 -11  -5  12    3.44    0.30 
 -10  -5  12    4.65    0.34 
  10  -5 -12    4.20    0.28 
   9  -5 -12    0.82    0.14 
  -9  -5  12    0.86    0.17 
   8  -5 -12   -0.06    0.06 
  -8  -5  12   -0.10    0.08 
  -7  -5  12    1.41    0.20 
   7  -5 -12    1.86    0.18 
   7   5 -12    1.54    0.24 
  -6  -5  12    3.71    0.29 
   6  -5 -12    3.59    0.24 
   6   5 -12    4.62    0.38 
   5  -5 -12    1.82    0.17 
  -5  -5  12    1.76    0.21 
   5   5 -12    2.15    0.29 
  -4  -5  12    0.06    0.10 
   4  -5 -12    0.21    0.09 
   4   5 -12    0.02    0.11 
   3  -5 -12    3.53    0.24 
  -3  -5  12    3.63    0.28 
   3   5 -12    3.40    0.36 
   2  -5 -12    5.09    0.29 
  -2  -5  12    5.55    0.35 
   2   5 -12    5.18    0.46 
  -1  -5  12    1.52    0.20 
   1  -5 -12    1.77    0.17 
   1   5 -12    1.63    0.29 
   0  -5 -12    0.52    0.12 
   0  -5  12    0.48    0.14 
  -1  -5 -12    0.05    0.08 
   1  -5  12   -0.10    0.08 
  -2  -5 -12   -0.03    0.07 
   2  -5  12    0.00    0.09 
  -3  -5 -12    0.02    0.08 
   3  -5  12   -0.02    0.09 
  -4  -5 -12    0.02    0.08 
   4  -5  12   -0.07    0.09 
  -5  -5 -12    0.15    0.10 
   5  -5  12    0.10    0.12 
   6  -5  12    0.82    0.19 
  -6  -5 -12    0.56    0.15 
 -10  -6  12    1.24    0.21 
  10  -6 -12    1.32    0.18 
   9  -6 -12    1.11    0.16 
  -9  -6  12    0.77    0.17 
  -8  -6  12    0.57    0.15 
   8  -6 -12    0.56    0.12 
   7  -6 -12    0.20    0.10 
  -7  -6  12    0.28    0.13 
  -6  -6  12    0.42    0.14 
   6  -6 -12    0.41    0.11 
  -5  -6  12    0.68    0.16 
   5  -6 -12    0.58    0.12 
  -4  -6  12    0.45    0.14 
   4  -6 -12    0.51    0.11 
  -3  -6  12    0.07    0.10 
   3  -6 -12    0.10    0.08 
  -2  -6  12    1.15    0.19 
   2  -6 -12    1.03    0.14 
   1  -6 -12    1.03    0.15 
  -1  -6  12    0.81    0.18 
   0  -6 -12    2.10    0.20 
   0  -6  12    1.62    0.22 
   1  -6  12    1.18    0.20 
  -1  -6 -12    1.52    0.18 
   2  -6  12    3.50    0.31 
  -2  -6 -12    3.36    0.25 
  20   0 -13   -0.24    0.07 
 -20   0  13   -0.09    0.09 
 -19   0  13   -0.08    0.08 
  19   0 -13   -0.01    0.08 
  19   0 -13   -0.02    0.08 
 -18   0  13    0.05    0.09 
  18   0 -13    0.01    0.08 
  18   0 -13   -0.05    0.06 
  17   0 -13   -0.03    0.06 
  17   0 -13   -0.08    0.06 
 -17   0  13    0.01    0.07 
  16   0 -13    0.05    0.06 
 -16   0  13   -0.05    0.07 
  16   0 -13    0.15    0.09 
  15   0 -13    0.07    0.07 
 -15   0  13    0.01    0.08 
  15   0 -13    0.06    0.07 
  14   0 -13    0.04    0.07 
  14   0 -13    0.00    0.05 
 -14   0  13    0.07    0.08 
  13   0 -13   -0.03    0.06 
  13   0 -13   -0.04    0.06 
 -13   0  13   -0.04    0.08 
 -12   0  13   -0.02    0.06 
  12   0 -13   -0.02    0.05 
  11   0 -13   -0.02    0.06 
 -11   0  13    0.00    0.05 
  11   0 -13   -0.01    0.04 
  10   0 -13    0.00    0.04 
  10   0 -13   -0.05    0.06 
 -10   0  13   -0.03    0.05 
   9   0 -13    0.00    0.07 
  -9   0  13   -0.08    0.07 
  -9   0  13   -0.03    0.05 
   9   0 -13   -0.03    0.04 
  -8   0  13   -0.02    0.05 
   8   0 -13   -0.02    0.06 
  -8   0  13   -0.11    0.05 
   8   0 -13    0.02    0.04 
  -7   0  13   -0.06    0.06 
   7   0 -13    0.00    0.04 
  -7   0  13   -0.06    0.05 
   7   0 -13    0.06    0.07 
  -6   0  13   -0.04    0.04 
   6   0 -13    0.06    0.07 
   6   0 -13    0.01    0.04 
  -6   0  13   -0.01    0.06 
   5   0 -13   -0.02    0.05 
  -5   0  13   -0.04    0.06 
   5   0 -13    0.05    0.05 
   5   0 -13    0.03    0.04 
  -5   0  13   -0.02    0.04 
   4   0 -13    0.02    0.06 
   4   0 -13   -0.02    0.03 
  -4   0  13   -0.04    0.06 
  -4   0  13    0.00    0.04 
  -3   0  13    0.06    0.07 
   3   0 -13    0.02    0.06 
   3   0 -13   -0.03    0.03 
  -3   0  13   -0.04    0.04 
  -2   0  13    0.03    0.07 
   2   0 -13   -0.01    0.04 
   2   0 -13   -0.05    0.05 
  -2   0  13   -0.01    0.04 
  -1   0  13   -0.04    0.06 
  -1   0  13   -0.03    0.04 
   1   0 -13    0.06    0.07 
   1   0 -13   -0.01    0.04 
   0   0 -13    0.13    0.08 
   0   0  13    0.14    0.06 
   0   0  13    0.16    0.09 
   0   0 -13    0.16    0.06 
  -1   0 -13    0.02    0.05 
   1   0  13   -0.01    0.04 
  -1   0 -13   -0.05    0.06 
  -2   0 -13   -0.02    0.06 
  -2   0 -13   -0.03    0.04 
   2   0  13   -0.06    0.04 
   3   0  13    0.10    0.06 
  -3   0 -13    0.06    0.08 
   4   0  13   -0.09    0.05 
   5   0  13   -0.09    0.06 
   6   0  13   -0.14    0.06 
   7   0  13   -0.19    0.06 
   8   0  13   -0.13    0.07 
   9   0  13   -0.01    0.07 
  10   0  13    0.00    0.07 
  11   0  13   -0.03    0.07 
 -20  -1  13    0.66    0.14 
 -20   1  13    0.44    0.14 
  20   1 -13    0.73    0.15 
  19  -1 -13    1.36    0.21 
 -19  -1  13    1.08    0.15 
  19   1 -13    1.53    0.18 
  19   1 -13    1.34    0.19 
 -19   1  13    1.23    0.18 
 -18  -1  13    1.20    0.15 
  18  -1 -13    1.14    0.19 
  18   1 -13    1.21    0.16 
  18   1 -13    1.21    0.17 
 -18   1  13    1.00    0.16 
 -17  -1  13    0.54    0.11 
  17  -1 -13    0.81    0.16 
  17   1 -13    0.84    0.14 
  17   1 -13    0.54    0.12 
 -17   1  13    0.72    0.14 
 -16  -1  13    0.09    0.08 
  16  -1 -13    0.11    0.09 
  16   1 -13    0.15    0.08 
 -16   1  13    0.15    0.09 
  16   1 -13    0.12    0.09 
 -15  -1  13    2.72    0.21 
  15  -1 -13    2.73    0.23 
 -15   1  13    2.34    0.21 
  15   1 -13    2.26    0.19 
  15   1 -13    2.88    0.21 
  14  -1 -13    1.82    0.21 
 -14  -1  13    1.86    0.17 
  14  -1 -13    2.05    0.19 
 -14   1  13    1.93    0.18 
  14   1 -13    1.94    0.18 
  14   1 -13    1.71    0.17 
  13  -1 -13    0.88    0.16 
 -13  -1  13    1.34    0.14 
  13  -1 -13    1.23    0.15 
  13   1 -13    1.27    0.14 
  13   1 -13    0.94    0.13 
 -13   1  13    1.06    0.15 
 -12  -1  13    9.21    0.37 
  12  -1 -13    9.19    0.38 
  12  -1 -13    8.44    0.42 
 -12   1  13    8.72    0.39 
  12   1 -13    9.14    0.37 
  12   1 -13    9.21    0.38 
 -11  -1  13    0.91    0.12 
  11  -1 -13    1.05    0.12 
  11  -1 -13    1.39    0.17 
 -11  -1  13    1.41    0.19 
  11   1 -13    1.21    0.13 
  11   1 -13    1.26    0.13 
 -11   1  13    1.26    0.14 
  10  -1 -13   -0.03    0.06 
 -10  -1  13   -0.05    0.07 
  10  -1 -13   -0.08    0.04 
 -10  -1  13   -0.01    0.05 
  10   1 -13    0.07    0.05 
  10   1 -13    0.01    0.05 
 -10   1  13   -0.03    0.05 
  -9  -1  13    0.10    0.09 
   9  -1 -13    0.08    0.05 
  -9  -1  13    0.06    0.05 
   9  -1 -13    0.07    0.07 
  -9   1  13   -0.01    0.05 
   9   1 -13    0.04    0.05 
   9   1 -13    0.08    0.06 
   9   1 -13   -0.02    0.05 
  -8  -1  13    1.45    0.18 
   8  -1 -13    1.09    0.15 
  -8  -1  13    1.74    0.14 
   8  -1 -13    1.33    0.12 
   8   1 -13    1.57    0.15 
  -8   1  13    1.26    0.13 
   7  -1 -13    2.05    0.13 
  -7  -1  13    1.88    0.20 
  -7  -1  13    1.91    0.14 
   7  -1 -13    2.02    0.18 
  -7   1  13    1.96    0.16 
   7   1 -13    1.94    0.16 
  -6  -1  13    0.00    0.06 
   6  -1 -13    0.01    0.06 
   6  -1 -13    0.07    0.04 
  -6  -1  13   -0.01    0.04 
   6   1 -13    0.12    0.06 
  -6   1  13    0.05    0.05 
   5  -1 -13    1.23    0.15 
  -5  -1  13    0.81    0.10 
   5  -1 -13    1.14    0.09 
  -5  -1  13    1.07    0.15 
   5   1 -13    1.23    0.13 
  -5   1  13    0.98    0.11 
   4  -1 -13   11.76    0.35 
  -4  -1  13   11.94    0.40 
   4  -1 -13   12.06    0.46 
  -4  -1  13   11.57    0.49 
  -4   1  13   11.79    0.42 
   4   1 -13   11.63    0.46 
  -3  -1  13    2.83    0.17 
  -3  -1  13    2.83    0.23 
   3  -1 -13    3.05    0.22 
   3  -1 -13    3.06    0.13 
  -3   1  13    2.97    0.19 
   3   1 -13    2.62    0.20 
  -2  -1  13    0.81    0.14 
  -2  -1  13    0.49    0.08 
   2  -1 -13    0.75    0.13 
   2  -1 -13    0.81    0.07 
   2   1 -13    0.55    0.11 
  -2   1  13    0.76    0.10 
  -1  -1  13    0.57    0.09 
  -1  -1  13    0.79    0.15 
   1  -1 -13    0.70    0.06 
   1  -1 -13    0.81    0.13 
   1   1 -13    0.65    0.12 
  -1   1  13    0.72    0.10 
   0  -1  13    3.35    0.26 
   0  -1 -13    3.56    0.25 
   0  -1  13    3.53    0.20 
   0   1  13    3.67    0.21 
   0   1 -13    3.51    0.24 
   1  -1  13    0.08    0.09 
  -1  -1 -13    0.05    0.07 
   1  -1  13    0.18    0.07 
  -1   1 -13    0.05    0.07 
   1   1  13    0.13    0.07 
  -2  -1 -13    0.04    0.07 
   2  -1  13    0.03    0.05 
   2  -1  13   -0.04    0.07 
   2   1  13    0.02    0.06 
  -2   1 -13    0.05    0.08 
   3  -1  13    0.26    0.08 
   3  -1  13    0.11    0.10 
  -3  -1 -13    0.16    0.09 
  -3   1 -13    0.59    0.13 
   3   1  13    0.22    0.08 
  -4  -1 -13    0.58    0.14 
   4  -1  13    0.36    0.09 
   4   1  13    0.46    0.11 
  -4   1 -13    0.52    0.13 
   5  -1  13    2.97    0.20 
  -5  -1 -13    3.33    0.27 
   5   1  13    3.53    0.23 
  -6  -1 -13    0.12    0.10 
   6  -1  13    0.06    0.06 
   6   1  13    0.02    0.06 
   7  -1  13   -0.02    0.06 
   7   1  13    0.08    0.08 
   8  -1  13    2.07    0.18 
   8   1  13    2.25    0.20 
   9  -1  13    0.00    0.08 
   9   1  13    0.06    0.09 
  10  -1  13    1.18    0.15 
  10   1  13    1.01    0.17 
  11  -1  13    0.06    0.08 
  11   1  13    0.18    0.11 
 -19  -2  13    0.23    0.08 
  19   2 -13    0.28    0.12 
 -19   2  13    0.23    0.12 
 -18  -2  13    0.17    0.07 
  18  -2 -13    0.22    0.13 
  18   2 -13    0.15    0.10 
  18   2 -13    0.13    0.09 
 -18   2  13    0.25    0.11 
  17  -2 -13    0.87    0.19 
  17  -2 -13    0.67    0.16 
 -17  -2  13    0.79    0.10 
  17   2 -13    0.68    0.14 
  17   2 -13    0.70    0.13 
 -16  -2  13    0.92    0.11 
  16  -2 -13    0.68    0.17 
  16  -2 -13    1.22    0.19 
  16   2 -13    0.77    0.14 
  15  -2 -13    0.04    0.08 
  15  -2 -13   -0.17    0.06 
 -15  -2  13   -0.02    0.05 
  15   2 -13   -0.03    0.06 
  15   2 -13    0.02    0.06 
 -15   2  13   -0.03    0.07 
 -14  -2  13    0.35    0.07 
  14  -2 -13    0.38    0.12 
  14  -2 -13    0.27    0.12 
 -14   2  13    0.31    0.10 
  14   2 -13    0.29    0.09 
  14   2 -13    0.22    0.08 
  13  -2 -13    0.36    0.12 
 -13  -2  13    0.51    0.08 
  13  -2 -13    0.77    0.14 
  13   2 -13    0.38    0.10 
 -13   2  13    0.27    0.09 
  13   2 -13    0.26    0.09 
  12  -2 -13   -0.04    0.06 
 -12  -2  13   -0.01    0.04 
 -12  -2  13    0.11    0.09 
  12  -2 -13    0.04    0.07 
  12   2 -13   -0.10    0.06 
 -12   2  13    0.05    0.07 
  12   2 -13    0.07    0.06 
  12   2 -13    0.00    0.06 
  11  -2 -13    0.74    0.12 
  11  -2 -13    1.04    0.15 
 -11  -2  13    0.77    0.16 
 -11  -2  13    0.86    0.09 
  11   2 -13    0.60    0.11 
 -11   2  13    0.89    0.12 
  11   2 -13    0.62    0.10 
  11   2 -13    0.64    0.12 
  10  -2 -13   12.95    0.51 
 -10  -2  13   12.43    0.55 
  10  -2 -13   12.65    0.48 
 -10  -2  13   12.97    0.40 
 -10   2  13   12.83    0.47 
  10   2 -13   12.82    0.46 
  10   2 -13   13.11    0.52 
   9  -2 -13    0.14    0.07 
   9  -2 -13    0.18    0.09 
  -9  -2  13    0.13    0.05 
  -9  -2  13    0.22    0.11 
   9   2 -13    0.11    0.08 
   9   2 -13    0.21    0.07 
  -9   2  13    0.21    0.08 
   8  -2 -13    0.03    0.07 
   8  -2 -13    0.16    0.07 
  -8  -2  13    0.09    0.05 
  -8  -2  13    0.04    0.08 
  -8   2  13    0.05    0.06 
   8   2 -13    0.09    0.06 
   8   2 -13    0.14    0.08 
   7  -2 -13    0.28    0.09 
  -7  -2  13    0.25    0.06 
  -7  -2  13    0.18    0.10 
   7  -2 -13    0.27    0.07 
   7   2 -13    0.17    0.07 
  -7   2  13    0.14    0.07 
   7   2 -13    0.20    0.09 
  -6  -2  13    1.45    0.18 
   6  -2 -13    1.25    0.11 
   6  -2 -13    1.16    0.14 
  -6  -2  13    1.28    0.10 
   6   2 -13    1.16    0.16 
  -6   2  13    1.16    0.12 
   5  -2 -13    0.79    0.13 
  -5  -2  13    0.57    0.07 
   5  -2 -13    0.78    0.09 
  -5  -2  13    0.81    0.15 
   5   2 -13    0.70    0.13 
  -5   2  13    0.60    0.10 
   4  -2 -13    0.87    0.09 
  -4  -2  13    0.69    0.08 
   4  -2 -13    0.91    0.13 
  -4  -2  13    0.85    0.15 
  -4   2  13    0.68    0.10 
   4   2 -13    0.87    0.15 
   3  -2 -13    0.93    0.14 
  -3  -2  13    1.03    0.16 
  -3  -2  13    1.09    0.09 
  -3   2  13    0.88    0.11 
   3   2 -13    1.12    0.17 
  -2  -2  13   12.09    0.37 
   2  -2 -13   12.39    0.48 
  -2  -2  13   11.94    0.52 
   2   2 -13   12.93    0.55 
  -2   2  13   12.04    0.43 
  -1  -2  13    0.85    0.09 
   1  -2 -13    1.12    0.15 
  -1  -2  13    1.02    0.16 
   1   2 -13    1.25    0.18 
  -1   2  13    0.99    0.12 
   0  -2  13    1.50    0.12 
   0  -2 -13    1.81    0.18 
   0  -2  13    1.84    0.21 
   0   2 -13    1.97    0.23 
   1  -2  13    0.70    0.15 
   1  -2  13    0.60    0.08 
  -1  -2 -13    0.75    0.13 
  -1   2 -13    0.77    0.16 
   2  -2  13    3.76    0.29 
  -2  -2 -13    4.40    0.29 
   2  -2  13    4.03    0.19 
  -2   2 -13    3.41    0.30 
   3  -2  13   -0.03    0.04 
   3  -2  13    0.07    0.09 
  -3  -2 -13    0.03    0.08 
  -3   2 -13    0.08    0.10 
   4  -2  13    1.62    0.22 
  -4  -2 -13    2.04    0.21 
   4  -2  13    1.60    0.13 
  -4   2 -13    1.69    0.23 
  -5  -2 -13    0.79    0.16 
   5  -2  13    1.25    0.12 
   5  -2  13    1.03    0.18 
  -5   2 -13    1.14    0.20 
   6  -2  13    0.25    0.13 
   6  -2  13    0.20    0.07 
  -6  -2 -13    0.27    0.12 
  -7  -2 -13    2.31    0.24 
   7  -2  13    2.02    0.16 
  -8  -2 -13   -0.01    0.10 
   8  -2  13    0.10    0.07 
   9  -2  13    0.21    0.08 
  -9  -2 -13    0.19    0.13 
  10  -2  13    2.46    0.18 
  11  -2  13    0.61    0.10 
  18  -3 -13    2.24    0.27 
  17  -3 -13    0.42    0.16 
  17  -3 -13    0.63    0.17 
  17   3 -13    0.56    0.13 
  16  -3 -13    0.97    0.20 
  16  -3 -13    1.16    0.20 
  16   3 -13    0.94    0.15 
  15  -3 -13    0.15    0.12 
  15  -3 -13    0.38    0.14 
  15   3 -13    0.41    0.11 
  14  -3 -13    0.41    0.13 
  14  -3 -13    0.40    0.13 
  14   3 -13    0.49    0.12 
  13  -3 -13    0.33    0.12 
  13  -3 -13    0.52    0.14 
  13   3 -13    0.34    0.10 
  13   3 -13    0.27    0.11 
  12  -3 -13    1.06    0.17 
 -12  -3  13    1.11    0.19 
  12  -3 -13    1.12    0.17 
  12   3 -13    1.22    0.17 
  11  -3 -13   -0.05    0.07 
  11  -3 -13    0.00    0.07 
 -11  -3  13   -0.04    0.08 
  11   3 -13    0.06    0.08 
  10  -3 -13    0.92    0.15 
 -10  -3  13    0.77    0.16 
  10  -3 -13    1.34    0.17 
  10   3 -13    0.89    0.15 
   9  -3 -13   13.43    0.51 
   9  -3 -13   12.22    0.49 
  -9  -3  13   12.73    0.56 
   9   3 -13   11.82    0.54 
   8  -3 -13    6.57    0.34 
  -8  -3  13    7.35    0.40 
   8  -3 -13    6.83    0.33 
   8   3 -13    6.82    0.39 
   7  -3 -13    0.55    0.11 
   7  -3 -13    0.72    0.13 
  -7  -3  13    0.55    0.14 
   7   3 -13    0.56    0.14 
   6  -3 -13   -0.06    0.06 
  -6  -3  13   -0.08    0.07 
   6  -3 -13   -0.01    0.06 
   6   3 -13    0.06    0.08 
   5  -3 -13    2.24    0.19 
  -5  -3  13    1.76    0.21 
   5   3 -13    2.68    0.26 
  -4  -3  13    4.65    0.32 
   4  -3 -13    5.11    0.29 
   4   3 -13    4.70    0.34 
   3  -3 -13    8.54    0.40 
  -3  -3  13    9.21    0.44 
   3   3 -13    8.89    0.49 
  -2  -3  13    8.47    0.43 
   2  -3 -13    8.57    0.39 
   2   3 -13    7.96    0.47 
   1  -3 -13    6.54    0.34 
  -1  -3  13    7.02    0.39 
   1   3 -13    5.56    0.40 
   0  -3  13    0.56    0.14 
   0  -3 -13    0.80    0.14 
   0   3 -13    0.78    0.19 
  -1  -3 -13    3.50    0.25 
   1  -3  13    3.55    0.28 
  -1   3 -13    3.13    0.32 
  -2  -3 -13   -0.04    0.06 
   2  -3  13   -0.09    0.07 
  -2   3 -13    0.00    0.10 
   3  -3  13    0.31    0.13 
  -3  -3 -13    0.25    0.11 
  -3   3 -13    0.40    0.16 
   4  -3  13    0.70    0.17 
  -4  -3 -13    0.75    0.15 
  -4   3 -13    1.01    0.22 
  -5  -3 -13    0.83    0.16 
   5  -3  13    0.91    0.18 
  -5   3 -13    1.08    0.23 
   6  -3  13    0.45    0.15 
  -6  -3 -13    0.70    0.16 
  -6   3 -13    0.54    0.19 
  -7  -3 -13   -0.12    0.09 
   7  -3  13    0.00    0.11 
  -7   3 -13    0.16    0.15 
   8  -3  13    0.17    0.13 
  -8  -3 -13   -0.01    0.11 
  -9  -3 -13    1.74    0.23 
  17  -4 -13    0.77    0.19 
  16  -4 -13    1.58    0.23 
  16  -4 -13    1.76    0.27 
  15  -4 -13    0.28    0.15 
  15  -4 -13   -0.08    0.09 
  15   4 -13    0.13    0.09 
  14  -4 -13    2.25    0.27 
  14  -4 -13    2.08    0.23 
  14   4 -13    2.38    0.23 
  13  -4 -13    1.46    0.19 
  13  -4 -13    1.21    0.21 
  12  -4 -13   -0.01    0.08 
 -12  -4  13   -0.09    0.09 
  12  -4 -13    0.04    0.10 
  12   4 -13   -0.08    0.08 
  11  -4 -13    5.65    0.34 
  11  -4 -13    5.60    0.37 
 -11  -4  13    6.18    0.39 
  11   4 -13    5.51    0.37 
  10  -4 -13    0.41    0.14 
 -10  -4  13    0.25    0.13 
  10  -4 -13    0.40    0.11 
  10   4 -13    0.16    0.11 
  -9  -4  13    0.89    0.17 
   9  -4 -13    1.12    0.16 
   9  -4 -13    1.46    0.19 
   9   4 -13    1.04    0.18 
  -8  -4  13    1.66    0.21 
   8  -4 -13    1.79    0.18 
   8   4 -13    1.62    0.22 
  -7  -4  13    0.34    0.13 
   7  -4 -13    0.34    0.11 
   7   4 -13    0.34    0.13 
  -6  -4  13    0.75    0.16 
   6  -4 -13    1.06    0.14 
   6   4 -13    0.92    0.19 
  -5  -4  13    0.47    0.14 
   5  -4 -13    0.36    0.11 
   5   4 -13    0.59    0.17 
   4  -4 -13    0.04    0.07 
  -4  -4  13    0.15    0.10 
   4   4 -13    0.10    0.11 
   3  -4 -13    3.00    0.22 
  -3  -4  13    2.78    0.25 
   3   4 -13    2.41    0.29 
   2  -4 -13    0.69    0.13 
  -2  -4  13    0.40    0.13 
   2   4 -13    0.56    0.18 
  -1  -4  13    0.17    0.12 
   1  -4 -13    0.25    0.10 
   1   4 -13    0.18    0.15 
   0  -4  13    2.77    0.26 
   0  -4 -13    2.75    0.22 
   0   4 -13    2.88    0.33 
   1  -4  13    1.89    0.22 
  -1  -4 -13    1.69    0.19 
  -1   4 -13    1.94    0.30 
  -2  -4 -13    0.00    0.07 
   2  -4  13    0.07    0.10 
  -2   4 -13   -0.07    0.11 
  -3  -4 -13    0.24    0.11 
   3  -4  13    0.30    0.12 
  -3   4 -13    0.14    0.15 
  -4  -4 -13    0.03    0.08 
   4  -4  13   -0.05    0.09 
  -4   4 -13   -0.01    0.13 
   5  -4  13    0.02    0.11 
  -5  -4 -13    0.06    0.09 
   6  -4  13    0.73    0.19 
  -6  -4 -13    0.80    0.16 
  -7  -4 -13    0.16    0.12 
   7  -4  13   -0.03    0.10 
   8  -4  13    2.14    0.28 
  -8  -4 -13    1.40    0.22 
  14  -5 -13    0.18    0.12 
  14  -5 -13    0.30    0.17 
  13  -5 -13    0.40    0.14 
  13  -5 -13    0.77    0.21 
  12  -5 -13    0.81    0.16 
 -12  -5  13    1.09    0.21 
  11  -5 -13    0.02    0.09 
 -11  -5  13   -0.13    0.09 
  10  -5 -13    1.22    0.17 
 -10  -5  13    1.09    0.20 
   9  -5 -13    0.22    0.10 
  -9  -5  13    0.28    0.13 
   8  -5 -13    0.07    0.08 
  -8  -5  13    0.01    0.09 
   7  -5 -13    0.24    0.10 
  -7  -5  13    0.39    0.13 
  -6  -5  13    0.26    0.12 
   6  -5 -13    0.02    0.08 
   5  -5 -13    1.69    0.18 
  -5  -5  13    1.52    0.20 
  -4  -5  13    0.91    0.17 
   4  -5 -13    0.88    0.14 
  -3  -5  13    0.12    0.10 
   3  -5 -13    0.16    0.09 
   2  -5 -13    0.92    0.15 
  -2  -5  13    1.19    0.19 
   1  -5 -13    1.06    0.15 
  -1  -5  13    0.70    0.16 
   0  -5 -13    0.27    0.10 
   0  -5  13    0.22    0.13 
  -1  -5 -13    0.23    0.11 
   1  -5  13    0.10    0.11 
  -2  -5 -13    0.04    0.08 
   2  -5  13   -0.04    0.10 
  -3  -5 -13    0.05    0.09 
   3  -5  13    0.12    0.11 
  -4  -5 -13    0.17    0.11 
   4  -5  13    0.00    0.12 
   5  -5  13    0.19    0.14 
  -5  -5 -13    0.21    0.12 
  -9  -6  13    0.14    0.12 
   9  -6 -13    0.24    0.10 
  -8  -6  13    0.06    0.11 
   8  -6 -13    0.03    0.08 
   7  -6 -13    1.39    0.17 
  -7  -6  13    1.31    0.21 
  -6  -6  13    1.19    0.20 
   6  -6 -13    1.02    0.15 
   5  -6 -13    2.04    0.20 
  -5  -6  13    2.03    0.24 
   4  -6 -13    2.78    0.22 
  -4  -6  13    2.30    0.26 
  -3  -6  13    0.18    0.12 
   3  -6 -13    0.30    0.11 
  -2  -6  13    1.32    0.20 
   2  -6 -13    1.53    0.18 
  -1  -6  13    0.25    0.13 
   1  -6 -13    0.18    0.11 
   0  -6 -13    0.59    0.13 
   0  -6  13    0.27    0.14 
 -20   0  14   15.77    0.63 
  20   0 -14   15.36    0.59 
  19   0 -14    1.67    0.18 
 -19   0  14    1.46    0.18 
 -18   0  14    4.95    0.32 
  18   0 -14    4.75    0.29 
  18   0 -14    4.98    0.33 
 -17   0  14    5.03    0.31 
  17   0 -14    4.87    0.31 
  17   0 -14    4.79    0.28 
 -16   0  14    1.08    0.15 
  16   0 -14    0.92    0.14 
  16   0 -14    0.75    0.12 
  15   0 -14    0.94    0.14 
 -15   0  14    0.84    0.14 
  15   0 -14    0.88    0.12 
  14   0 -14    0.27    0.09 
 -14   0  14    0.32    0.10 
 -13   0  14    3.86    0.25 
  13   0 -14    3.48    0.22 
  12   0 -14   23.78    0.72 
 -12   0  14   24.29    0.75 
  11   0 -14    2.13    0.16 
 -11   0  14    2.03    0.17 
 -10   0  14    0.72    0.11 
  10   0 -14    0.80    0.14 
  10   0 -14    0.86    0.11 
   9   0 -14    0.53    0.12 
  -9   0  14    0.42    0.09 
   9   0 -14    0.54    0.09 
   8   0 -14    1.09    0.15 
  -8   0  14    1.16    0.13 
   8   0 -14    1.30    0.12 
  -7   0  14    6.04    0.28 
  -7   0  14    5.54    0.33 
   7   0 -14    6.07    0.32 
   7   0 -14    5.93    0.25 
  -6   0  14    5.16    0.26 
  -6   0  14    5.21    0.32 
   6   0 -14    5.87    0.31 
   6   0 -14    5.06    0.23 
   5   0 -14    0.87    0.14 
  -5   0  14    0.98    0.16 
   5   0 -14    0.83    0.09 
   5   0 -14    0.77    0.10 
  -5   0  14    0.72    0.10 
  -4   0  14    1.23    0.17 
   4   0 -14    1.36    0.16 
  -4   0  14    1.40    0.13 
   4   0 -14    1.56    0.13 
   3   0 -14   20.07    0.62 
  -3   0  14   20.57    0.71 
   3   0 -14   19.88    0.67 
  -3   0  14   20.33    0.62 
   2   0 -14    1.50    0.17 
   2   0 -14    1.59    0.13 
  -2   0  14    1.73    0.15 
   1   0 -14    2.10    0.20 
  -1   0  14    1.95    0.16 
   1   0 -14    2.22    0.15 
   0   0 -14    0.40    0.08 
   0   0  14    0.31    0.08 
   0   0 -14    0.38    0.11 
  -1   0 -14    1.29    0.12 
  -1   0 -14    1.14    0.16 
   1   0  14    1.00    0.12 
  -2   0 -14    4.05    0.28 
   2   0  14    3.72    0.23 
   3   0  14    8.75    0.37 
   4   0  14   13.07    0.49 
   5   0  14    6.68    0.33 
   6   0  14   -0.06    0.07 
   7   0  14    0.41    0.11 
   8   0  14    0.06    0.08 
   9   0  14    0.07    0.08 
  10   0  14    0.02    0.08 
  11   0  14    1.01    0.16 
 -20  -1  14    5.36    0.31 
  20   1 -14    5.76    0.35 
 -20   1  14    4.95    0.35 
 -19  -1  14    6.62    0.34 
 -19   1  14    5.92    0.37 
  19   1 -14    5.75    0.35 
 -18  -1  14    0.88    0.14 
  18  -1 -14    1.01    0.18 
 -18   1  14    0.84    0.16 
  18   1 -14    0.78    0.14 
  18   1 -14    0.86    0.15 
 -17  -1  14    1.34    0.16 
  17  -1 -14    1.20    0.19 
  17   1 -14    1.18    0.16 
  17   1 -14    1.32    0.17 
 -17   1  14    1.47    0.18 
  16  -1 -14    0.23    0.10 
 -16  -1  14    0.06    0.08 
  16   1 -14    0.13    0.09 
  16   1 -14    0.09    0.08 
 -16   1  14    0.05    0.09 
 -15  -1  14    2.98    0.22 
  15  -1 -14    3.51    0.26 
  15   1 -14    2.67    0.22 
  15   1 -14    3.25    0.23 
 -15   1  14    3.10    0.25 
  14  -1 -14   20.51    0.73 
  14  -1 -14   18.95    0.67 
 -14  -1  14   19.15    0.63 
 -14   1  14   20.03    0.68 
  14   1 -14   18.98    0.64 
  13  -1 -14    7.42    0.35 
  13  -1 -14    7.66    0.41 
 -13  -1  14    7.81    0.34 
  13   1 -14    7.20    0.34 
  13   1 -14    6.95    0.33 
 -13   1  14    6.83    0.35 
  12  -1 -14   17.81    0.60 
 -12  -1  14   18.99    0.60 
 -12  -1  14   18.21    0.72 
  12  -1 -14   18.88    0.68 
  12   1 -14   18.63    0.61 
  12   1 -14   18.18    0.60 
 -12   1  14   18.57    0.63 
 -11  -1  14   12.22    0.55 
 -11  -1  14   12.13    0.44 
  11  -1 -14   11.87    0.44 
  11  -1 -14   12.52    0.51 
  11   1 -14   11.79    0.44 
 -11   1  14   12.19    0.47 
  11   1 -14   11.69    0.44 
  10  -1 -14    7.02    0.36 
  10  -1 -14    6.53    0.29 
 -10  -1  14    6.01    0.29 
  10   1 -14    6.55    0.30 
  10   1 -14    6.42    0.30 
 -10   1  14    7.09    0.33 
   9  -1 -14   17.80    0.64 
  -9  -1  14   17.96    0.68 
  -9  -1  14   18.62    0.57 
   9  -1 -14   18.78    0.56 
   9   1 -14   18.62    0.59 
  -9   1  14   17.94    0.59 
   9   1 -14   18.02    0.62 
   8  -1 -14    7.94    0.38 
   8  -1 -14    7.27    0.29 
  -8  -1  14    7.06    0.30 
  -8  -1  14    7.10    0.39 
   8   1 -14    7.32    0.34 
  -8   1  14    7.46    0.33 
   7  -1 -14    0.05    0.04 
  -7  -1  14   -0.02    0.07 
   7  -1 -14    0.01    0.06 
  -7  -1  14    0.03    0.05 
   7   1 -14    0.10    0.07 
  -7   1  14    0.07    0.06 
   6  -1 -14    1.64    0.12 
  -6  -1  14    1.51    0.19 
   6  -1 -14    1.45    0.16 
  -6  -1  14    1.64    0.14 
   6   1 -14    1.56    0.15 
  -6   1  14    1.57    0.15 
  -5  -1  14    1.02    0.11 
   5  -1 -14    1.12    0.09 
   5  -1 -14    0.93    0.14 
  -5  -1  14    1.04    0.16 
   5   1 -14    1.09    0.13 
  -5   1  14    1.10    0.12 
   4  -1 -14   11.10    0.34 
   4  -1 -14   11.25    0.46 
  -4  -1  14   10.99    0.49 
  -4  -1  14   11.37    0.40 
  -4   1  14   11.07    0.41 
   4   1 -14   11.06    0.45 
   3  -1 -14    5.89    0.33 
  -3  -1  14    6.40    0.28 
  -3  -1  14    6.43    0.36 
   3  -1 -14    6.34    0.22 
  -3   1  14    6.21    0.29 
   3   1 -14    6.39    0.32 
   2  -1 -14    8.78    0.40 
  -2  -1  14    8.20    0.32 
  -2  -1  14    8.00    0.41 
  -2   1  14    7.46    0.33 
   2   1 -14    8.12    0.37 
   1  -1 -14   15.21    0.57 
  -1  -1  14   15.12    0.50 
  -1  -1  14   16.17    0.62 
  -1   1  14   15.43    0.52 
   1   1 -14   15.41    0.57 
   0  -1 -14   11.22    0.47 
   0  -1  14   10.45    0.38 
   0  -1  14    9.67    0.47 
   0   1  14   10.19    0.40 
   0   1 -14   10.82    0.46 
  -1  -1 -14    9.27    0.43 
   1  -1  14    9.11    0.46 
   1  -1  14    9.83    0.37 
  -1   1 -14    9.28    0.42 
   1   1  14    9.32    0.39 
   2  -1  14   16.40    0.65 
  -2  -1 -14   16.98    0.62 
   2  -1  14   15.37    0.52 
   2   1  14   16.32    0.56 
  -2   1 -14   15.70    0.61 
   3  -1  14    4.38    0.24 
  -3  -1 -14    5.12    0.32 
   3   1  14    4.43    0.26 
  -3   1 -14    4.11    0.29 
  -4  -1 -14   -0.05    0.07 
   4  -1  14    0.05    0.07 
   4   1  14    0.01    0.06 
  -5  -1 -14    0.24    0.11 
   5  -1  14    0.35    0.09 
   5   1  14    0.27    0.09 
   6  -1  14    2.07    0.18 
   6   1  14    2.64    0.22 
   7  -1  14    4.96    0.28 
   7   1  14    5.44    0.32 
   8  -1  14    4.07    0.26 
   8   1  14    4.16    0.29 
   9  -1  14    4.72    0.29 
   9   1  14    5.92    0.34 
  10  -1  14    4.00    0.27 
  10   1  14    4.12    0.30 
 -19  -2  14    1.19    0.12 
 -19   2  14    1.48    0.20 
  19   2 -14    1.26    0.18 
 -18  -2  14    2.61    0.17 
  18  -2 -14    2.38    0.27 
  18   2 -14    2.68    0.24 
 -18   2  14    2.19    0.23 
  18   2 -14    2.11    0.21 
 -17  -2  14    2.49    0.17 
  17  -2 -14    2.91    0.28 
 -17   2  14    2.38    0.23 
  17   2 -14    2.93    0.23 
  17   2 -14    2.79    0.24 
 -16  -2  14    7.70    0.31 
  16  -2 -14    8.05    0.45 
  16  -2 -14    7.70    0.45 
 -16   2  14    8.20    0.42 
  16   2 -14    8.32    0.40 
  16   2 -14    8.37    0.40 
 -15  -2  14    2.65    0.17 
  15  -2 -14    2.40    0.24 
  15  -2 -14    2.90    0.27 
 -15   2  14    2.23    0.21 
  15   2 -14    2.95    0.23 
  15   2 -14    2.44    0.21 
 -14  -2  14    5.22    0.24 
  14  -2 -14    6.01    0.36 
  14  -2 -14    5.13    0.32 
 -14   2  14    5.00    0.30 
  14   2 -14    4.85    0.29 
  14   2 -14    5.25    0.29 
  13  -2 -14    3.77    0.29 
 -13  -2  14    3.75    0.20 
 -13  -2  14    3.74    0.32 
  13  -2 -14    3.69    0.26 
  13   2 -14    3.93    0.25 
 -13   2  14    3.77    0.25 
  13   2 -14    3.68    0.25 
  12  -2 -14    2.25    0.22 
 -12  -2  14    2.21    0.25 
 -12  -2  14    2.04    0.14 
  12  -2 -14    2.18    0.20 
  12   2 -14    2.16    0.19 
  12   2 -14    2.27    0.18 
 -12   2  14    2.28    0.19 
  11  -2 -14    1.44    0.18 
 -11  -2  14    1.40    0.11 
  11  -2 -14    1.34    0.16 
 -11  -2  14    1.70    0.22 
  11   2 -14    1.49    0.16 
  11   2 -14    1.51    0.15 
 -11   2  14    1.58    0.16 
  11   2 -14    1.43    0.17 
  10  -2 -14   -0.05    0.06 
 -10  -2  14    0.07    0.09 
 -10  -2  14    0.10    0.05 
  10  -2 -14    0.02    0.06 
  10   2 -14   -0.01    0.06 
  10   2 -14   -0.01    0.06 
 -10   2  14    0.07    0.07 
  -9  -2  14    0.71    0.16 
  -9  -2  14    0.59    0.08 
   9  -2 -14    0.44    0.11 
   9  -2 -14    0.51    0.10 
   9   2 -14    0.52    0.12 
  -9   2  14    0.51    0.10 
   9   2 -14    0.64    0.10 
  -8  -2  14    3.60    0.18 
   8  -2 -14    4.13    0.27 
   8  -2 -14    3.85    0.22 
  -8  -2  14    3.95    0.30 
   8   2 -14    4.04    0.23 
  -8   2  14    3.56    0.23 
   8   2 -14    3.91    0.26 
   7  -2 -14   10.86    0.39 
   7  -2 -14   10.86    0.46 
  -7  -2  14   11.62    0.37 
  -7  -2  14   10.41    0.50 
   7   2 -14   12.23    0.50 
  -7   2  14   12.13    0.44 
  -6  -2  14   12.14    0.53 
  -6  -2  14   11.32    0.36 
   6  -2 -14   11.76    0.48 
   6  -2 -14   10.97    0.38 
   6   2 -14   11.41    0.50 
  -6   2  14   11.49    0.43 
   5  -2 -14   15.57    0.57 
  -5  -2  14   14.87    0.60 
   5  -2 -14   15.16    0.46 
  -5  -2  14   15.30    0.45 
   5   2 -14   15.22    0.60 
  -5   2  14   14.82    0.51 
   4  -2 -14   21.02    0.68 
  -4  -2  14   20.22    0.55 
  -4  -2  14   19.47    0.72 
  -4   2  14   19.19    0.62 
   4   2 -14   19.41    0.73 
   3  -2 -14   22.19    0.72 
  -3  -2  14   21.53    0.59 
  -3  -2  14   21.24    0.76 
   3   2 -14   21.14    0.78 
  -2  -2  14    1.16    0.18 
   2  -2 -14    0.99    0.15 
  -2  -2  14    1.33    0.11 
   2   2 -14    1.02    0.17 
  -1  -2  14    2.62    0.25 
  -1  -2  14    2.13    0.14 
   1  -2 -14    2.45    0.22 
   1   2 -14    2.09    0.22 
   0  -2 -14   -0.06    0.06 
   0  -2  14   -0.07    0.08 
   0   2 -14    0.12    0.10 
  -1  -2 -14    8.17    0.40 
   1  -2  14    7.64    0.29 
   1  -2  14    7.74    0.42 
  -1   2 -14    7.64    0.44 
   2  -2  14    4.88    0.22 
  -2  -2 -14    5.28    0.33 
   2  -2  14    4.69    0.33 
  -2   2 -14    4.47    0.34 
  -3  -2 -14    6.96    0.39 
   3  -2  14    6.83    0.41 
   3  -2  14    7.31    0.29 
  -3   2 -14    6.36    0.42 
  -4  -2 -14    7.47    0.41 
   4  -2  14    7.64    0.44 
   4  -2  14    6.92    0.29 
  -4   2 -14    7.67    0.46 
   5  -2  14    3.86    0.33 
   5  -2  14    4.34    0.22 
  -5  -2 -14    4.40    0.32 
  -6  -2 -14    0.11    0.10 
   6  -2  14   -0.06    0.05 
  -7  -2 -14    2.38    0.26 
   7  -2  14    2.81    0.18 
  -8  -2 -14    0.57    0.17 
   8  -2  14    0.24    0.08 
   9  -2  14    0.40    0.09 
  10  -2  14    0.00    0.06 
  18  -3 -14    0.09    0.13 
  17  -3 -14    0.08    0.12 
  17  -3 -14    0.27    0.14 
  16  -3 -14    3.29    0.31 
  16  -3 -14    2.40    0.26 
  16   3 -14    3.06    0.24 
  15  -3 -14    0.46    0.15 
  15  -3 -14    0.29    0.13 
  15   3 -14    0.34    0.11 
  14  -3 -14    1.32    0.20 
  14  -3 -14    1.24    0.19 
  14   3 -14    1.16    0.16 
  14   3 -14    1.18    0.17 
  13  -3 -14    5.23    0.34 
  13  -3 -14    5.52    0.36 
 -13  -3  14    4.68    0.36 
  13   3 -14    4.98    0.33 
  13   3 -14    5.55    0.32 
  12  -3 -14    2.95    0.26 
 -12  -3  14    2.95    0.29 
  12  -3 -14    4.06    0.29 
  12   3 -14    3.49    0.27 
  11  -3 -14    7.42    0.39 
  11  -3 -14    7.28    0.39 
 -11  -3  14    7.59    0.44 
  11   3 -14    7.77    0.41 
 -10  -3  14    4.05    0.32 
  10  -3 -14    3.73    0.27 
  10  -3 -14    4.17    0.28 
  10   3 -14    3.74    0.28 
   9  -3 -14   11.32    0.48 
  -9  -3  14   13.59    0.58 
   9  -3 -14   12.85    0.52 
   9   3 -14   13.08    0.57 
   8  -3 -14    0.67    0.12 
  -8  -3  14    0.65    0.16 
   8  -3 -14    0.71    0.13 
   8   3 -14    0.72    0.15 
  -7  -3  14   -0.03    0.08 
   7  -3 -14   -0.05    0.06 
   7   3 -14    0.00    0.07 
   6  -3 -14    0.42    0.11 
  -6  -3  14    0.59    0.14 
   6   3 -14    0.73    0.15 
  -5  -3  14    0.19    0.11 
   5  -3 -14    0.04    0.08 
   5   3 -14    0.01    0.08 
   4  -3 -14   -0.09    0.07 
  -4  -3  14    0.11    0.10 
   4   3 -14    0.07    0.09 
   3  -3 -14    3.77    0.27 
  -3  -3  14    3.73    0.29 
   3   3 -14    4.07    0.33 
  -2  -3  14    2.44    0.25 
   2  -3 -14    2.62    0.23 
   2   3 -14    2.95    0.29 
  -1  -3  14   19.30    0.73 
   1  -3 -14   18.41    0.67 
   1   3 -14   20.00    0.82 
   0  -3  14    0.21    0.12 
   0  -3 -14    0.18    0.10 
   0   3 -14    0.36    0.15 
  -1  -3 -14    1.90    0.20 
   1  -3  14    2.01    0.23 
  -1   3 -14    2.30    0.28 
  -2  -3 -14    0.72    0.14 
   2  -3  14    0.68    0.16 
  -2   3 -14    0.64    0.19 
   3  -3  14    0.51    0.16 
  -3  -3 -14    0.58    0.14 
  -3   3 -14    0.70    0.20 
  -4  -3 -14    0.25    0.12 
   4  -3  14    0.11    0.11 
  -4   3 -14    0.14    0.14 
  -5  -3 -14   -0.07    0.08 
   5  -3  14   -0.06    0.11 
  -5   3 -14   -0.04    0.11 
  -6  -3 -14    0.01    0.10 
   6  -3  14    0.12    0.11 
  -6   3 -14   -0.02    0.12 
  -7  -3 -14    1.50    0.22 
  -8  -3 -14    0.18    0.14 
  16  -4 -14    0.67    0.19 
  16  -4 -14    0.49    0.16 
  15  -4 -14    0.19    0.12 
  15  -4 -14    0.63    0.19 
  14  -4 -14    6.57    0.40 
  14  -4 -14    6.69    0.45 
  14   4 -14    6.92    0.39 
  13  -4 -14    1.90    0.22 
  13  -4 -14    1.90    0.25 
 -13  -4  14    1.65    0.24 
 -12  -4  14    0.18    0.12 
  12  -4 -14   -0.05    0.07 
  12  -4 -14    0.03    0.10 
  11  -4 -14    0.80    0.17 
  11  -4 -14    0.86    0.15 
 -11  -4  14    0.78    0.17 
 -10  -4  14    0.94    0.19 
  10  -4 -14    0.89    0.16 
  10   4 -14    0.98    0.18 
   9  -4 -14    2.56    0.23 
  -9  -4  14    2.91    0.28 
   9   4 -14    3.01    0.29 
   8  -4 -14    4.02    0.27 
  -8  -4  14    3.60    0.31 
   8   4 -14    3.94    0.33 
  -7  -4  14    2.66    0.27 
   7  -4 -14    2.82    0.23 
   7   4 -14    2.78    0.29 
   6  -4 -14    5.37    0.32 
  -6  -4  14    5.31    0.36 
   6   4 -14    5.54    0.40 
   5  -4 -14    3.87    0.27 
  -5  -4  14    3.69    0.30 
   5   4 -14    4.08    0.35 
   4  -4 -14    1.14    0.16 
  -4  -4  14    1.01    0.18 
   4   4 -14    1.77    0.26 
   3  -4 -14    6.98    0.36 
  -3  -4  14    6.45    0.40 
   3   4 -14    6.71    0.47 
   2  -4 -14    0.02    0.09 
  -2  -4  14    0.02    0.10 
   2   4 -14    0.01    0.12 
  -1  -4  14    1.56    0.21 
   1  -4 -14    1.28    0.17 
   1   4 -14    1.39    0.26 
   0  -4  14    1.07    0.19 
   0  -4 -14    1.31    0.18 
   0   4 -14    1.47    0.27 
   1  -4  14    1.53    0.22 
  -1  -4 -14    2.01    0.21 
  -1   4 -14    2.21    0.31 
   2  -4  14    0.35    0.14 
  -2  -4 -14    0.37    0.12 
  -2   4 -14    0.36    0.17 
   3  -4  14    1.44    0.22 
  -3  -4 -14    1.43    0.19 
  -3   4 -14    1.41    0.27 
  -4  -4 -14    0.21    0.11 
   4  -4  14    0.40    0.15 
   5  -4  14    1.26    0.23 
  -5  -4 -14    1.08    0.18 
   6  -4  14   -0.02    0.12 
  -6  -4 -14    0.28    0.13 
   7  -4  14    0.24    0.17 
  -7  -4 -14    0.34    0.15 
 -13  -5  14    2.11    0.28 
  13  -5 -14    1.86    0.23 
 -12  -5  14    6.74    0.45 
  12  -5 -14    7.24    0.41 
 -11  -5  14    2.20    0.26 
  11  -5 -14    1.64    0.20 
 -10  -5  14    1.35    0.22 
  10  -5 -14    1.33    0.18 
   9  -5 -14    0.51    0.13 
  -9  -5  14    0.32    0.15 
   8  -5 -14    0.80    0.15 
  -8  -5  14    0.85    0.18 
   7  -5 -14    1.58    0.18 
  -7  -5  14    1.58    0.22 
  -6  -5  14    0.08    0.11 
   6  -5 -14    0.05    0.08 
  -5  -5  14    1.93    0.24 
   5  -5 -14    1.95    0.20 
   4  -5 -14    3.88    0.27 
  -4  -5  14    3.79    0.31 
  -3  -5  14    0.10    0.10 
   3  -5 -14    0.14    0.10 
  -2  -5  14    0.22    0.12 
   2  -5 -14   -0.04    0.07 
   1  -5 -14    0.03    0.08 
  -1  -5  14    0.05    0.10 
   0  -5  14    0.20    0.12 
   0  -5 -14    0.16    0.10 
   1  -5  14    0.05    0.12 
  -1  -5 -14    0.18    0.11 
  -2  -5 -14    0.29    0.12 
   2  -5  14    0.25    0.14 
  -3  -5 -14    0.57    0.15 
   3  -5  14    0.49    0.17 
  -4  -5 -14    0.17    0.12 
   4  -5  14   -0.03    0.11 
  -6  -6  14    2.79    0.28 
   6  -6 -14    2.29    0.22 
  -5  -6  14    2.38    0.27 
   5  -6 -14    2.36    0.22 
  -4  -6  14    1.48    0.22 
   4  -6 -14    0.97    0.16 
  -3  -6  14    1.38    0.22 
 -20   0  15   -0.04    0.09 
  20   0 -15   -0.01    0.09 
 -19   0  15    0.05    0.09 
  19   0 -15   -0.09    0.07 
  18   0 -15   -0.02    0.07 
  18   0 -15    0.02    0.08 
 -18   0  15   -0.04    0.08 
  17   0 -15   -0.01    0.07 
 -17   0  15   -0.05    0.07 
  16   0 -15   -0.02    0.06 
 -16   0  15   -0.06    0.07 
  15   0 -15   -0.02    0.06 
 -15   0  15   -0.03    0.07 
  14   0 -15   -0.07    0.05 
 -14   0  15   -0.09    0.06 
 -13   0  15   -0.02    0.08 
  13   0 -15   -0.01    0.05 
  12   0 -15    0.02    0.06 
 -12   0  15    0.00    0.07 
 -11   0  15    0.01    0.06 
  11   0 -15   -0.03    0.05 
  10   0 -15   -0.06    0.04 
 -10   0  15   -0.06    0.04 
  -9   0  15    0.02    0.06 
   9   0 -15   -0.02    0.07 
   9   0 -15   -0.05    0.04 
  -8   0  15    0.03    0.05 
   8   0 -15    0.02    0.07 
   8   0 -15    0.02    0.04 
   7   0 -15    0.00    0.04 
  -7   0  15   -0.03    0.05 
   7   0 -15   -0.03    0.07 
  -6   0  15    0.06    0.06 
   6   0 -15   -0.06    0.05 
   6   0 -15    0.00    0.04 
   5   0 -15   -0.03    0.04 
   5   0 -15    0.05    0.05 
   5   0 -15    0.08    0.08 
  -5   0  15    0.03    0.05 
  -4   0  15    0.01    0.05 
   4   0 -15   -0.03    0.04 
   4   0 -15   -0.11    0.05 
   3   0 -15    0.00    0.05 
   3   0 -15    0.00    0.07 
  -3   0  15   -0.02    0.05 
   2   0 -15    0.00    0.04 
  -2   0  15    0.02    0.05 
   2   0 -15   -0.07    0.06 
   1   0 -15    0.05    0.08 
   1   0 -15   -0.04    0.04 
  -1   0  15   -0.05    0.05 
   0   0  15    0.04    0.06 
   1   0  15   -0.01    0.06 
   2   0  15   -0.16    0.05 
   3   0  15   -0.12    0.06 
   4   0  15   -0.10    0.06 
   5   0  15   -0.10    0.07 
   6   0  15   -0.09    0.06 
   7   0  15    0.03    0.07 
   8   0  15   -0.12    0.06 
   9   0  15    0.02    0.08 
  10   0  15   -0.02    0.08 
 -20  -1  15    0.73    0.14 
 -20   1  15    0.59    0.16 
 -19  -1  15    0.61    0.13 
 -19   1  15    0.62    0.15 
  19   1 -15    0.77    0.15 
 -18  -1  15    0.41    0.11 
  18  -1 -15    0.50    0.15 
  18   1 -15    0.37    0.11 
  18   1 -15    0.37    0.12 
 -18   1  15    0.60    0.14 
  17  -1 -15    0.09    0.09 
 -17  -1  15   -0.16    0.05 
  17   1 -15    0.04    0.07 
 -17   1  15    0.03    0.09 
  17   1 -15   -0.03    0.07 
  16  -1 -15    0.17    0.10 
 -16  -1  15    0.08    0.08 
  16   1 -15    0.21    0.09 
  16   1 -15    0.09    0.07 
 -16   1  15    0.05    0.09 
  15  -1 -15    5.46    0.32 
 -15  -1  15    5.45    0.30 
 -15   1  15    4.97    0.31 
  15   1 -15    4.84    0.29 
  15   1 -15    5.16    0.30 
  14  -1 -15    0.64    0.13 
 -14  -1  15    0.64    0.12 
 -14   1  15    0.67    0.14 
  14   1 -15    0.52    0.11 
  14   1 -15    0.65    0.12 
 -13  -1  15   13.42    0.49 
  13  -1 -15   13.73    0.51 
  13  -1 -15   13.47    0.57 
  13   1 -15   13.12    0.49 
  13   1 -15   13.62    0.50 
 -13   1  15   12.97    0.52 
  12  -1 -15    0.75    0.12 
 -12  -1  15    0.89    0.12 
  12  -1 -15    0.72    0.15 
 -12   1  15    0.76    0.13 
  12   1 -15    0.78    0.12 
  12   1 -15    0.73    0.12 
  11  -1 -15    0.21    0.12 
  11  -1 -15    0.12    0.07 
 -11  -1  15    0.08    0.11 
 -11  -1  15    0.21    0.09 
 -11   1  15    0.12    0.08 
  11   1 -15    0.18    0.08 
  10  -1 -15   12.60    0.52 
 -10  -1  15   11.55    0.55 
  10  -1 -15   12.21    0.44 
 -10  -1  15   12.58    0.45 
 -10   1  15   12.53    0.48 
  10   1 -15   12.85    0.46 
   9  -1 -15    0.07    0.08 
   9  -1 -15    0.13    0.06 
  -9  -1  15    0.01    0.06 
  -9  -1  15    0.01    0.08 
   9   1 -15    0.25    0.08 
   9   1 -15    0.17    0.08 
  -9   1  15    0.07    0.07 
  -8  -1  15   -0.04    0.04 
  -8  -1  15   -0.10    0.06 
   8  -1 -15   -0.01    0.06 
   8  -1 -15    0.04    0.05 
   8   1 -15    0.09    0.07 
  -8   1  15    0.05    0.06 
  -7  -1  15    1.59    0.14 
   7  -1 -15    1.63    0.12 
   7  -1 -15    1.73    0.19 
  -7  -1  15    1.51    0.20 
   7   1 -15    1.79    0.17 
  -7   1  15    1.71    0.16 
   6  -1 -15    0.66    0.08 
  -6  -1  15    0.45    0.09 
   6  -1 -15    0.47    0.12 
  -6  -1  15    0.57    0.15 
   6   1 -15    0.61    0.11 
  -6   1  15    0.61    0.10 
  -5  -1  15    3.44    0.21 
  -5  -1  15    3.83    0.29 
   5  -1 -15    3.58    0.17 
   5  -1 -15    4.05    0.27 
  -5   1  15    3.61    0.23 
   5   1 -15    3.99    0.24 
   4  -1 -15    0.06    0.08 
   4  -1 -15    0.12    0.04 
  -4  -1  15    0.06    0.09 
  -4  -1  15    0.00    0.06 
  -4   1  15    0.10    0.07 
   4   1 -15    0.21    0.08 
  -3  -1  15    3.39    0.28 
  -3  -1  15    3.42    0.21 
  -3   1  15    3.31    0.22 
   3   1 -15    3.19    0.22 
  -2  -1  15   10.47    0.39 
  -2  -1  15   11.46    0.52 
   2  -1 -15    9.99    0.47 
  -2   1  15   11.07    0.43 
   2   1 -15   10.91    0.45 
  -1  -1  15    1.79    0.15 
   1  -1 -15    2.01    0.21 
  -1  -1  15    1.81    0.22 
   1   1 -15    2.19    0.20 
  -1   1  15    1.63    0.16 
   0  -1 -15    2.95    0.25 
   0  -1  15    3.11    0.20 
   0  -1  15    2.66    0.27 
   0   1  15    2.91    0.21 
   0   1 -15    2.98    0.23 
  -1  -1 -15    3.53    0.27 
   1  -1  15    3.64    0.22 
  -1   1 -15    3.31    0.24 
   1   1  15    3.45    0.23 
  -2  -1 -15    1.37    0.18 
   2  -1  15    1.04    0.13 
   2   1  15    1.06    0.14 
   3  -1  15    0.61    0.10 
  -3  -1 -15    0.93    0.16 
   3   1  15    1.12    0.14 
   4  -1  15    0.02    0.06 
  -4  -1 -15    0.02    0.09 
   4   1  15   -0.02    0.06 
   5  -1  15   -0.09    0.06 
   5   1  15    0.07    0.08 
   6  -1  15    0.23    0.09 
   6   1  15    0.26    0.11 
   7  -1  15    4.73    0.28 
   7   1  15    4.98    0.32 
   8  -1  15    2.32    0.20 
   8   1  15    2.51    0.23 
   9  -1  15    0.59    0.13 
   9   1  15    0.44    0.13 
 -19  -2  15    0.05    0.06 
  19   2 -15   -0.03    0.08 
 -19   2  15    0.14    0.11 
  18  -2 -15    0.85    0.19 
 -18  -2  15    0.98    0.11 
 -18   2  15    0.90    0.17 
  18   2 -15    1.16    0.17 
 -17  -2  15    0.29    0.08 
  17  -2 -15    0.32    0.13 
  17   2 -15    0.33    0.12 
 -17   2  15    0.28    0.12 
  17   2 -15    0.31    0.11 
  16  -2 -15    0.50    0.15 
 -16  -2  15    0.58    0.10 
  16  -2 -15    0.27    0.14 
  16   2 -15    0.45    0.12 
 -16   2  15    0.38    0.13 
  16   2 -15    0.63    0.13 
 -15  -2  15    0.70    0.10 
  15  -2 -15    0.71    0.17 
  15  -2 -15    0.76    0.16 
 -15   2  15    0.93    0.16 
  15   2 -15    1.07    0.15 
  15   2 -15    0.80    0.14 
 -14  -2  15    0.37    0.08 
  14  -2 -15    0.46    0.13 
  14  -2 -15    0.24    0.12 
  14   2 -15    0.40    0.11 
  14   2 -15    0.47    0.11 
 -14   2  15    0.28    0.11 
  13  -2 -15    7.55    0.39 
 -13  -2  15    7.55    0.30 
 -13  -2  15    7.49    0.45 
  13  -2 -15    8.08    0.43 
  13   2 -15    7.18    0.36 
 -13   2  15    7.98    0.39 
  13   2 -15    6.89    0.35 
 -12  -2  15    9.71    0.34 
 -12  -2  15   10.34    0.52 
  12  -2 -15   10.04    0.48 
  12  -2 -15    9.26    0.42 
 -12   2  15    9.28    0.42 
  12   2 -15    9.16    0.40 
  12   2 -15    9.82    0.45 
  12   2 -15    9.09    0.41 
  11  -2 -15    2.08    0.19 
 -11  -2  15    2.56    0.27 
  11  -2 -15    2.34    0.23 
 -11  -2  15    2.18    0.15 
 -11   2  15    2.41    0.20 
  11   2 -15    2.12    0.20 
  11   2 -15    2.71    0.21 
  11   2 -15    2.47    0.20 
  10  -2 -15    0.02    0.06 
 -10  -2  15    0.00    0.08 
 -10  -2  15   -0.07    0.04 
  10  -2 -15    0.05    0.08 
  10   2 -15    0.05    0.06 
 -10   2  15    0.02    0.07 
  10   2 -15    0.15    0.08 
  -9  -2  15    0.05    0.05 
   9  -2 -15    0.02    0.06 
   9  -2 -15    0.07    0.08 
  -9  -2  15    0.03    0.09 
   9   2 -15    0.01    0.06 
  -9   2  15   -0.06    0.05 
   8  -2 -15    0.25    0.08 
  -8  -2  15    0.12    0.06 
   8  -2 -15    0.23    0.10 
  -8  -2  15    0.31    0.12 
  -8   2  15    0.21    0.08 
   8   2 -15    0.20    0.09 
  -7  -2  15    0.19    0.11 
   7  -2 -15    0.59    0.09 
   7  -2 -15    0.59    0.13 
  -7  -2  15    0.46    0.08 
   7   2 -15    0.59    0.13 
  -6  -2  15    1.18    0.11 
  -6  -2  15    1.10    0.18 
   6  -2 -15    1.26    0.17 
   6   2 -15    1.60    0.19 
  -5  -2  15   12.44    0.56 
   5  -2 -15   14.40    0.55 
  -5  -2  15   12.58    0.41 
   5   2 -15   12.85    0.55 
  -4  -2  15   15.38    0.64 
  -4  -2  15   15.68    0.48 
   4  -2 -15   17.32    0.62 
   4   2 -15   16.17    0.64 
  -3  -2  15    6.03    0.25 
   3  -2 -15    5.79    0.34 
  -3  -2  15    6.21    0.38 
   3   2 -15    6.15    0.37 
   2  -2 -15    5.07    0.32 
  -2  -2  15    4.86    0.22 
  -2  -2  15    5.14    0.35 
   2   2 -15    3.92    0.30 
   1  -2 -15    0.13    0.09 
  -1  -2  15    0.14    0.06 
  -1  -2  15   -0.02    0.10 
   1   2 -15    0.10    0.10 
   0  -2  15    0.63    0.09 
   0  -2  15    0.96    0.18 
   0  -2 -15    0.70    0.14 
   0   2 -15    0.60    0.15 
   1  -2  15    1.03    0.19 
  -1  -2 -15    1.09    0.17 
   1  -2  15    0.96    0.11 
  -1   2 -15    1.17    0.19 
  -2  -2 -15    0.01    0.09 
   2  -2  15    0.07    0.06 
   2  -2  15    0.28    0.14 
  -2   2 -15    0.05    0.09 
  -3  -2 -15    0.40    0.14 
   3  -2  15    0.42    0.15 
   3  -2  15    0.42    0.08 
  -3   2 -15    0.57    0.16 
  -4  -2 -15    0.24    0.12 
   4  -2  15    0.28    0.08 
   5  -2  15   -0.03    0.05 
  -5  -2 -15   -0.06    0.08 
   6  -2  15    1.04    0.12 
  -6  -2 -15    1.03    0.19 
   7  -2  15    0.01    0.06 
  -7  -2 -15    0.04    0.11 
   8  -2  15    0.07    0.08 
   9  -2  15    0.04    0.07 
  18  -3 -15   -0.03    0.11 
  17  -3 -15    0.29    0.15 
  17  -3 -15    0.14    0.14 
  16  -3 -15    0.97    0.19 
  16  -3 -15    0.97    0.20 
  15  -3 -15   -0.09    0.08 
  15  -3 -15    0.11    0.11 
  15   3 -15    0.08    0.09 
  14  -3 -15    0.78    0.17 
  14  -3 -15    0.91    0.18 
  14   3 -15    0.84    0.15 
 -13  -3  15    0.08    0.12 
  13  -3 -15    0.02    0.09 
  13  -3 -15   -0.04    0.08 
  13   3 -15    0.04    0.07 
  12  -3 -15    0.84    0.16 
 -12  -3  15    0.93    0.19 
  12  -3 -15    1.19    0.18 
  12   3 -15    1.04    0.17 
 -11  -3  15    3.23    0.30 
  11  -3 -15    3.22    0.26 
  11  -3 -15    3.13    0.26 
  11   3 -15    3.81    0.29 
  10  -3 -15    0.69    0.14 
 -10  -3  15    0.62    0.16 
  10  -3 -15    0.59    0.14 
  10   3 -15    0.57    0.14 
  -9  -3  15    0.39    0.13 
   9  -3 -15    0.51    0.12 
   9  -3 -15    0.51    0.13 
   9   3 -15    0.30    0.12 
   8  -3 -15   -0.06    0.06 
  -8  -3  15    0.08    0.09 
   8   3 -15   -0.04    0.06 
   7  -3 -15    0.62    0.13 
  -7  -3  15    0.48    0.14 
   7   3 -15    0.39    0.13 
   6  -3 -15    1.72    0.19 
  -6  -3  15    2.12    0.23 
   6   3 -15    1.76    0.22 
  -5  -3  15    0.18    0.11 
   5  -3 -15    0.10    0.08 
   5   3 -15    0.21    0.10 
   4  -3 -15    0.03    0.08 
  -4  -3  15    0.13    0.10 
   4   3 -15    0.09    0.10 
   3  -3 -15    2.66    0.23 
  -3  -3  15    2.31    0.25 
   3   3 -15    3.04    0.29 
   2  -3 -15    0.50    0.13 
  -2  -3  15    0.42    0.14 
   2   3 -15    0.45    0.17 
   1  -3 -15    4.07    0.29 
  -1  -3  15    4.59    0.34 
   1   3 -15    4.63    0.36 
   0  -3  15    2.69    0.27 
   0  -3 -15    3.19    0.26 
   0   3 -15    2.81    0.30 
   1  -3  15    0.19    0.12 
  -1  -3 -15    0.24    0.11 
  -1   3 -15    0.16    0.12 
  -2  -3 -15    0.00    0.09 
   2  -3  15    0.11    0.11 
  -2   3 -15   -0.05    0.10 
   3  -3  15    0.11    0.11 
  -3  -3 -15   -0.04    0.08 
  -3   3 -15    0.09    0.13 
   4  -3  15    0.14    0.12 
  -4  -3 -15   -0.05    0.08 
  -4   3 -15    0.10    0.13 
  -5  -3 -15    0.13    0.12 
   5  -3  15   -0.06    0.10 
  -6  -3 -15   -0.06    0.10 
  -7  -3 -15    0.79    0.19 
  16  -4 -15    1.62    0.24 
  15  -4 -15    2.59    0.28 
  15  -4 -15    2.86    0.32 
  14  -4 -15    0.08    0.11 
  14  -4 -15    0.03    0.12 
 -13  -4  15    0.20    0.14 
  13  -4 -15    0.14    0.12 
  13  -4 -15   -0.01    0.10 
  12  -4 -15    0.11    0.10 
 -12  -4  15    0.24    0.14 
  11  -4 -15    0.94    0.17 
 -11  -4  15    0.75    0.19 
  10  -4 -15    0.12    0.10 
 -10  -4  15    0.20    0.12 
  -9  -4  15    0.06    0.10 
   9  -4 -15    0.01    0.08 
  -8  -4  15    0.40    0.15 
   8  -4 -15    0.65    0.14 
   8   4 -15    0.64    0.17 
   7  -4 -15    0.02    0.08 
  -7  -4  15   -0.06    0.08 
   7   4 -15    0.01    0.10 
   6  -4 -15   -0.08    0.07 
  -6  -4  15    0.04    0.10 
   6   4 -15    0.16    0.12 
  -5  -4  15    1.36    0.21 
   5  -4 -15    1.29    0.18 
   5   4 -15    2.22    0.27 
   4  -4 -15    0.93    0.16 
  -4  -4  15    0.96    0.19 
   4   4 -15    1.15    0.23 
  -3  -4  15    8.33    0.47 
   3  -4 -15    8.60    0.43 
   3   4 -15    9.70    0.57 
   2  -4 -15    5.01    0.33 
  -2  -4  15    4.57    0.35 
   2   4 -15    4.85    0.41 
  -1  -4  15    4.21    0.34 
   1  -4 -15    4.25    0.31 
   1   4 -15    4.68    0.42 
   0  -4 -15    2.22    0.23 
   0  -4  15    2.07    0.26 
   0   4 -15    2.17    0.31 
  -1  -4 -15    0.31    0.12 
   1  -4  15    0.46    0.16 
  -1   4 -15    0.63    0.21 
   2  -4  15    0.86    0.19 
  -2  -4 -15    0.68    0.15 
   3  -4  15    0.94    0.20 
  -3  -4 -15    1.39    0.20 
   4  -4  15    1.13    0.22 
  -4  -4 -15    1.04    0.19 
  -5  -4 -15    3.70    0.31 
   5  -4  15    3.24    0.34 
 -12  -5  15    0.30    0.15 
  12  -5 -15    0.22    0.12 
 -11  -5  15    1.57    0.24 
  11  -5 -15    1.63    0.21 
  10  -5 -15    1.04    0.18 
 -10  -5  15    1.12    0.21 
  -9  -5  15    2.15    0.27 
   9  -5 -15    2.44    0.23 
  -8  -5  15    3.09    0.31 
   8  -5 -15    2.53    0.24 
  -7  -5  15    2.34    0.27 
   7  -5 -15    2.40    0.22 
   6  -5 -15   -0.10    0.07 
  -6  -5  15   -0.02    0.10 
  -5  -5  15    1.52    0.22 
   5  -5 -15    1.63    0.19 
  -4  -5  15    0.06    0.11 
   4  -5 -15    0.02    0.09 
   3  -5 -15    0.27    0.12 
  -3  -5  15    0.24    0.14 
  -2  -5  15    0.15    0.12 
   2  -5 -15    0.21    0.11 
  -1  -5  15   -0.02    0.10 
   1  -5 -15    0.04    0.09 
   0  -5  15    0.16    0.13 
   0  -5 -15    0.32    0.13 
   1  -5  15    0.30    0.15 
  -1  -5 -15    0.35    0.13 
  -2  -5 -15   -0.04    0.08 
   2  -5  15   -0.09    0.11 
 -19   0  16    0.16    0.10 
  18   0 -16    1.60    0.20 
 -18   0  16    1.26    0.18 
  17   0 -16    2.37    0.23 
 -17   0  16    1.92    0.20 
 -16   0  16    1.39    0.17 
  16   0 -16    0.85    0.14 
 -15   0  16    0.36    0.11 
  15   0 -16    0.56    0.12 
  14   0 -16    4.63    0.28 
 -14   0  16    4.36    0.28 
  13   0 -16   -0.02    0.05 
 -13   0  16   -0.05    0.07 
  12   0 -16   36.41    1.01 
 -12   0  16   36.52    1.04 
 -11   0  16    2.78    0.21 
  11   0 -16    2.34    0.18 
  10   0 -16    3.23    0.20 
 -10   0  16    2.88    0.21 
   9   0 -16    1.23    0.13 
  -9   0  16    1.05    0.13 
  -8   0  16    0.07    0.07 
   8   0 -16    0.26    0.07 
   7   0 -16    0.72    0.09 
  -7   0  16    0.76    0.12 
  -6   0  16    9.47    0.40 
   6   0 -16   10.22    0.36 
   5   0 -16    6.05    0.35 
   5   0 -16    6.00    0.28 
  -5   0  16    5.01    0.28 
   5   0 -16    5.57    0.25 
   4   0 -16   62.89    1.50 
  -4   0  16   61.05    1.57 
   4   0 -16   63.55    1.62 
  -3   0  16    1.00    0.14 
   3   0 -16    1.43    0.14 
   2   0 -16    0.09    0.06 
  -2   0  16    0.09    0.07 
  -1   0  16    0.21    0.08 
   0   0  16    2.73    0.21 
   1   0  16    1.31    0.15 
   2   0  16    0.05    0.08 
   3   0  16    4.08    0.27 
   4   0  16   10.51    0.45 
   5   0  16    0.16    0.09 
   6   0  16    0.27    0.10 
   7   0  16    0.00    0.07 
   8   0  16    1.50    0.18 
 -19  -1  16    0.39    0.11 
  19   1 -16    0.41    0.12 
 -19   1  16    0.31    0.13 
 -18  -1  16    1.38    0.17 
  18  -1 -16    1.34    0.20 
 -18   1  16    0.99    0.17 
  18   1 -16    1.23    0.17 
  17  -1 -16    1.30    0.19 
 -17  -1  16    1.10    0.15 
 -17   1  16    1.13    0.17 
  17   1 -16    0.93    0.15 
  17   1 -16    1.11    0.16 
 -16  -1  16    4.87    0.29 
  16  -1 -16    5.03    0.33 
 -16   1  16    4.84    0.32 
  16   1 -16    5.30    0.31 
  16   1 -16    5.14    0.30 
 -15  -1  16    2.97    0.23 
  15  -1 -16    3.11    0.24 
  15   1 -16    3.06    0.23 
 -15   1  16    2.98    0.25 
  15   1 -16    3.06    0.23 
  14  -1 -16   11.06    0.47 
 -14  -1  16   10.45    0.43 
  14   1 -16   10.03    0.43 
  14   1 -16   10.24    0.44 
 -14   1  16   10.90    0.47 
  13  -1 -16    1.58    0.17 
 -13  -1  16    1.67    0.16 
 -13   1  16    1.13    0.16 
  13   1 -16    1.59    0.16 
 -12  -1  16   -0.03    0.05 
  12  -1 -16    0.13    0.07 
  12  -1 -16   -0.11    0.06 
 -12   1  16    0.06    0.07 
  12   1 -16    0.04    0.06 
  11  -1 -16    0.47    0.10 
  11  -1 -16    0.38    0.13 
 -11  -1  16    0.40    0.10 
 -11   1  16    0.52    0.12 
  11   1 -16    0.36    0.09 
  10  -1 -16   12.75    0.54 
  10  -1 -16   12.75    0.45 
 -10  -1  16   12.74    0.47 
  10   1 -16   12.85    0.47 
 -10   1  16   13.32    0.51 
  -9  -1  16   11.14    0.55 
   9  -1 -16   12.86    0.44 
   9  -1 -16   13.07    0.54 
  -9  -1  16   11.79    0.45 
   9   1 -16   12.40    0.46 
  -9   1  16   12.33    0.48 
   9   1 -16   12.68    0.50 
  -8  -1  16   22.99    0.69 
  -8  -1  16   21.36    0.81 
   8  -1 -16   23.51    0.78 
   8  -1 -16   22.94    0.65 
  -8   1  16   21.91    0.72 
   8   1 -16   23.13    0.75 
   7  -1 -16   13.89    0.44 
   7  -1 -16   14.38    0.57 
  -7  -1  16   13.16    0.59 
  -7  -1  16   12.99    0.47 
  -7   1  16   13.49    0.51 
   7   1 -16   14.17    0.53 
  -6  -1  16   15.50    0.65 
   6  -1 -16   16.92    0.62 
  -6  -1  16   15.16    0.52 
   6  -1 -16   15.61    0.47 
   6   1 -16   16.13    0.58 
  -6   1  16   15.59    0.55 
   5  -1 -16    2.92    0.24 
  -5  -1  16    2.44    0.25 
  -5  -1  16    2.49    0.18 
  -5   1  16    2.90    0.21 
   5   1 -16    2.63    0.20 
  -4  -1  16   -0.09    0.05 
  -4  -1  16    0.01    0.10 
   4  -1 -16    0.07    0.09 
   4   1 -16    0.13    0.07 
  -4   1  16   -0.07    0.05 
  -3  -1  16    0.04    0.09 
   3  -1 -16   -0.12    0.07 
  -3  -1  16   -0.07    0.05 
  -3   1  16   -0.10    0.05 
   3   1 -16   -0.05    0.06 
   2  -1 -16   12.14    0.53 
  -2  -1  16   12.65    0.45 
   2   1 -16   12.14    0.49 
  -2   1  16   11.84    0.47 
   1  -1 -16    0.20    0.11 
  -1  -1  16    0.11    0.07 
   1   1 -16    0.31    0.11 
  -1   1  16    0.08    0.08 
   0  -1  16    0.09    0.07 
   0  -1 -16   -0.01    0.08 
   0   1  16    0.09    0.07 
   0   1 -16    0.08    0.08 
   1  -1  16    1.40    0.14 
  -1  -1 -16    1.62    0.20 
   1   1  16    1.27    0.15 
   2  -1  16    3.53    0.23 
  -2  -1 -16    2.98    0.27 
   2   1  16    4.01    0.26 
   3  -1  16    2.06    0.18 
   3   1  16    2.12    0.20 
   4  -1  16    0.17    0.08 
   4   1  16    0.15    0.09 
   5  -1  16    0.08    0.08 
   5   1  16    0.04    0.08 
   6  -1  16    0.01    0.08 
   6   1  16    0.02    0.09 
   7  -1  16    3.15    0.24 
   7   1  16    2.91    0.25 
   8  -1  16    1.77    0.18 
   8   1  16    1.70    0.21 
 -18  -2  16    0.24    0.08 
  18   2 -16    0.26    0.11 
 -18   2  16    0.31    0.13 
  17  -2 -16    0.18    0.12 
 -17  -2  16    0.15    0.08 
  17   2 -16    0.25    0.11 
 -17   2  16    0.01    0.09 
  16  -2 -16    0.42    0.14 
 -16  -2  16    0.45    0.09 
 -16   2  16    0.42    0.13 
  16   2 -16    0.42    0.12 
  16   2 -16    0.51    0.12 
  15  -2 -16    8.73    0.47 
 -15  -2  16    8.30    0.33 
  15  -2 -16    9.23    0.46 
  15   2 -16    7.91    0.39 
 -15   2  16    8.04    0.43 
  15   2 -16    8.24    0.41 
 -14  -2  16   14.71    0.47 
  14  -2 -16   14.18    0.62 
  14  -2 -16   14.76    0.59 
  14   2 -16   14.99    0.56 
 -14   2  16   13.24    0.56 
 -13  -2  16    3.20    0.19 
  13  -2 -16    3.16    0.28 
  13  -2 -16    2.81    0.24 
 -13  -2  16    2.77    0.29 
  13   2 -16    3.09    0.23 
  13   2 -16    3.25    0.24 
 -13   2  16    3.17    0.25 
  12  -2 -16    0.06    0.08 
  12  -2 -16    0.03    0.08 
 -12  -2  16   -0.06    0.09 
 -12  -2  16    0.02    0.05 
  12   2 -16    0.02    0.06 
  12   2 -16    0.13    0.09 
  12   2 -16    0.07    0.07 
 -12   2  16   -0.06    0.07 
 -11  -2  16    0.25    0.07 
  11  -2 -16    0.14    0.08 
  11  -2 -16    0.28    0.11 
 -11  -2  16    0.27    0.13 
  11   2 -16    0.18    0.08 
 -11   2  16    0.14    0.09 
  11   2 -16    0.11    0.09 
  11   2 -16    0.09    0.08 
  10  -2 -16    0.14    0.10 
 -10  -2  16    0.02    0.05 
 -10  -2  16    0.11    0.11 
  10  -2 -16    0.05    0.07 
  10   2 -16    0.19    0.10 
 -10   2  16    0.16    0.08 
  -9  -2  16   -0.04    0.05 
   9  -2 -16    0.07    0.08 
  -9  -2  16    0.11    0.10 
   9  -2 -16    0.01    0.06 
   9   2 -16    0.09    0.08 
   8  -2 -16    5.59    0.34 
  -8  -2  16    5.43    0.38 
  -8  -2  16    5.89    0.25 
   8  -2 -16    5.57    0.27 
   8   2 -16    5.57    0.33 
   7  -2 -16    2.82    0.24 
  -7  -2  16    2.68    0.16 
  -7  -2  16    2.84    0.27 
   7   2 -16    2.60    0.23 
   6  -2 -16    0.26    0.10 
  -6  -2  16    0.21    0.12 
  -6  -2  16    0.28    0.07 
   6   2 -16    0.22    0.10 
  -5  -2  16    1.06    0.10 
  -5  -2  16    1.34    0.20 
   5  -2 -16    1.11    0.16 
   5   2 -16    0.81    0.15 
  -4  -2  16    0.97    0.18 
   4  -2 -16    1.04    0.16 
  -4  -2  16    0.69    0.09 
   4   2 -16    0.64    0.14 
  -3  -2  16    0.54    0.08 
  -3  -2  16    0.43    0.14 
   3  -2 -16    0.46    0.13 
   3   2 -16    0.48    0.13 
   2  -2 -16    0.62    0.14 
  -2  -2  16    0.62    0.09 
  -2  -2  16    0.43    0.15 
   2   2 -16    0.48    0.13 
  -1  -2  16    4.90    0.23 
   1  -2 -16    5.23    0.33 
  -1  -2  16    5.44    0.38 
   1   2 -16    5.41    0.36 
   0  -2  16    0.27    0.13 
   0  -2  16    0.35    0.08 
   0  -2 -16    0.54    0.15 
   0   2 -16    0.59    0.16 
   1  -2  16    4.07    0.22 
   1  -2  16    4.34    0.35 
  -1  -2 -16    4.12    0.31 
  -1   2 -16    4.36    0.33 
  -2  -2 -16    1.54    0.21 
   2  -2  16    1.27    0.12 
  -2   2 -16    1.37    0.21 
  -3  -2 -16    0.10    0.10 
   3  -2  16    0.00    0.06 
  -4  -2 -16    0.61    0.17 
   4  -2  16    0.45    0.09 
  -5  -2 -16    1.20    0.21 
   5  -2  16    1.49    0.14 
   6  -2  16    1.25    0.13 
   7  -2  16    1.99    0.16 
  17  -3 -16    3.04    0.31 
  16  -3 -16    5.11    0.39 
  16  -3 -16    5.81    0.40 
  15  -3 -16    0.11    0.11 
  15  -3 -16   -0.07    0.10 
  15   3 -16    0.09    0.09 
  14  -3 -16    0.17    0.11 
 -14  -3  16    0.16    0.13 
  14  -3 -16   -0.09    0.09 
  14   3 -16   -0.02    0.07 
  13  -3 -16    0.91    0.17 
 -13  -3  16    0.98    0.21 
  13  -3 -16    1.50    0.21 
  13   3 -16    1.26    0.18 
  12  -3 -16    2.79    0.25 
 -12  -3  16    2.47    0.28 
  12  -3 -16    2.29    0.24 
  11  -3 -16    2.19    0.23 
 -11  -3  16    2.11    0.26 
  11  -3 -16    2.41    0.23 
  11   3 -16    2.23    0.23 
 -10  -3  16    4.80    0.37 
  10  -3 -16    4.99    0.33 
  10   3 -16    5.09    0.34 
  -9  -3  16    7.31    0.45 
   9  -3 -16    7.08    0.39 
   9   3 -16    6.54    0.40 
  -8  -3  16    3.06    0.30 
   8  -3 -16    3.00    0.26 
   8   3 -16    3.09    0.28 
  -7  -3  16    0.74    0.17 
   7  -3 -16    0.98    0.16 
   7   3 -16    0.78    0.17 
  -6  -3  16    0.35    0.14 
   6  -3 -16    0.30    0.11 
   6   3 -16    0.19    0.11 
  -5  -3  16    1.00    0.19 
   5  -3 -16    0.51    0.13 
   5   3 -16    0.88    0.17 
   4  -3 -16    0.56    0.14 
  -4  -3  16    0.82    0.18 
   4   3 -16    0.69    0.17 
  -3  -3  16    0.55    0.16 
   3  -3 -16    0.45    0.14 
   3   3 -16    0.77    0.18 
  -2  -3  16    1.05    0.20 
   2  -3 -16    1.44    0.19 
   2   3 -16    1.47    0.23 
   1  -3 -16    1.09    0.18 
  -1  -3  16    1.21    0.21 
   1   3 -16    1.29    0.22 
   0  -3 -16    2.32    0.24 
   0  -3  16    2.37    0.27 
   0   3 -16    2.10    0.27 
  -1  -3 -16    3.85    0.30 
   1  -3  16    2.78    0.30 
  -1   3 -16    3.70    0.35 
  -2  -3 -16    0.30    0.13 
   2  -3  16    0.10    0.13 
  -2   3 -16    0.28    0.15 
   3  -3  16    1.87    0.26 
  -3  -3 -16    1.31    0.20 
  -3   3 -16    1.39    0.24 
   4  -3  16    1.15    0.22 
  -4  -3 -16    1.18    0.20 
  -5  -3 -16    1.41    0.22 
  -6  -3 -16   -0.04    0.10 
  15  -4 -16    3.25    0.33 
  15  -4 -16    3.49    0.32 
  14  -4 -16    3.62    0.32 
 -14  -4  16    3.69    0.37 
  13  -4 -16    0.31    0.13 
 -13  -4  16    0.47    0.17 
 -12  -4  16    3.97    0.35 
  12  -4 -16    4.36    0.33 
 -11  -4  16    3.55    0.34 
  11  -4 -16    3.32    0.28 
 -10  -4  16    1.03    0.21 
  10  -4 -16    1.05    0.17 
   9  -4 -16    3.24    0.27 
  -9  -4  16    2.80    0.30 
  -8  -4  16    0.03    0.11 
   8  -4 -16    0.02    0.09 
  -7  -4  16    0.51    0.17 
   7  -4 -16    0.52    0.14 
   6  -4 -16    0.28    0.12 
  -6  -4  16    0.45    0.16 
  -5  -4  16    0.80    0.19 
   5  -4 -16    1.15    0.18 
  -4  -4  16   11.24    0.58 
   4  -4 -16   12.81    0.55 
   3  -4 -16   13.09    0.56 
  -3  -4  16   12.58    0.61 
  -2  -4  16    9.77    0.53 
   2  -4 -16    9.84    0.49 
  -1  -4  16   10.65    0.56 
   1  -4 -16    9.55    0.48 
   0  -4 -16    1.18    0.19 
   0  -4  16    1.01    0.20 
  -1  -4 -16   -0.12    0.08 
   1  -4  16    0.05    0.12 
  -2  -4 -16    0.16    0.11 
   2  -4  16   -0.04    0.11 
   3  -4  16   -0.02    0.13 
  -3  -4 -16    0.04    0.10 
   4  -4  16    0.62    0.20 
  -4  -4 -16    0.91    0.19 
 -11  -5  16    1.63    0.25 
  11  -5 -16    1.82    0.23 
  10  -5 -16    0.30    0.13 
 -10  -5  16    0.59    0.18 
   9  -5 -16    1.28    0.19 
  -9  -5  16    1.26    0.23 
   8  -5 -16    0.96    0.17 
  -8  -5  16    0.66    0.19 
   7  -5 -16    1.65    0.20 
  -7  -5  16    1.41    0.23 
  -6  -5  16    1.93    0.26 
   6  -5 -16    1.59    0.20 
  -5  -5  16    0.48    0.16 
   5  -5 -16    0.48    0.13 
   4  -5 -16    0.42    0.14 
  -4  -5  16    0.58    0.18 
   3  -5 -16    0.33    0.13 
  -3  -5  16    0.21    0.14 
   2  -5 -16    3.27    0.28 
  -2  -5  16    3.40    0.33 
  -1  -5  16    4.56    0.38 
   1  -5 -16    5.22    0.36 
   0  -5 -16    2.59    0.26 
   0  -5  16    2.26    0.29 
 -19   0  17    0.04    0.09 
 -18   0  17    0.03    0.08 
  17   0 -17    0.03    0.08 
 -17   0  17   -0.03    0.08 
  16   0 -17    0.02    0.08 
 -16   0  17    0.12    0.09 
 -15   0  17   -0.04    0.08 
  15   0 -17   -0.05    0.06 
  14   0 -17    0.03    0.07 
 -14   0  17   -0.01    0.07 
  13   0 -17    0.03    0.06 
 -13   0  17   -0.07    0.07 
  12   0 -17    0.07    0.07 
 -12   0  17   -0.17    0.06 
  11   0 -17    0.03    0.05 
 -11   0  17   -0.08    0.06 
  10   0 -17    0.05    0.06 
 -10   0  17   -0.04    0.06 
  -9   0  17   -0.11    0.05 
   9   0 -17    0.06    0.06 
   8   0 -17    0.03    0.05 
  -8   0  17   -0.02    0.06 
   7   0 -17   -0.07    0.04 
  -7   0  17   -0.04    0.06 
   6   0 -17    0.03    0.05 
  -6   0  17   -0.03    0.06 
  -5   0  17   -0.09    0.05 
   5   0 -17    0.03    0.05 
  -4   0  17   -0.05    0.06 
   4   0 -17    0.02    0.06 
  -3   0  17   -0.07    0.06 
   3   0 -17    0.05    0.06 
  -2   0  17   -0.03    0.06 
  -1   0  17    0.01    0.07 
   0   0  17   -0.05    0.06 
   1   0  17   -0.05    0.06 
   2   0  17   -0.04    0.07 
   3   0  17   -0.02    0.07 
   4   0  17   -0.07    0.07 
   5   0  17   -0.02    0.07 
   6   0  17   -0.05    0.07 
   7   0  17    0.02    0.08 
 -19  -1  17    1.19    0.16 
 -19   1  17    0.88    0.17 
  19   1 -17    1.18    0.17 
 -18  -1  17    0.02    0.08 
 -18   1  17    0.04    0.10 
  18   1 -17    0.06    0.09 
  17  -1 -17    0.38    0.12 
 -17  -1  17    0.07    0.08 
  17   1 -17    0.23    0.11 
  17   1 -17    0.18    0.10 
 -17   1  17   -0.06    0.08 
  16  -1 -17    2.65    0.24 
 -16  -1  17    1.99    0.19 
 -16   1  17    2.35    0.23 
  16   1 -17    2.55    0.22 
 -15  -1  17    3.63    0.25 
  15  -1 -17    4.09    0.28 
  15   1 -17    3.77    0.26 
 -15   1  17    4.10    0.29 
  14  -1 -17    2.16    0.20 
 -14  -1  17    1.92    0.18 
  14   1 -17    2.19    0.20 
 -14   1  17    1.79    0.20 
 -13  -1  17    2.30    0.19 
  13  -1 -17    2.43    0.20 
  13   1 -17    2.50    0.20 
 -13   1  17    2.13    0.21 
 -12  -1  17    6.55    0.32 
  12  -1 -17    6.82    0.33 
  12   1 -17    6.74    0.33 
 -12   1  17    6.64    0.36 
  11  -1 -17    5.42    0.35 
  11  -1 -17    5.26    0.27 
 -11  -1  17    4.34    0.26 
  11   1 -17    4.52    0.27 
 -11   1  17    4.32    0.28 
  10  -1 -17    1.07    0.18 
 -10  -1  17    1.63    0.16 
  10  -1 -17    1.75    0.15 
 -10   1  17    1.17    0.16 
  10   1 -17    1.67    0.16 
   9  -1 -17    1.33    0.13 
  -9  -1  17    1.11    0.13 
   9  -1 -17    0.96    0.16 
   9   1 -17    1.22    0.15 
   9   1 -17    1.35    0.15 
  -9   1  17    1.28    0.16 
  -8  -1  17    2.24    0.18 
   8  -1 -17    2.07    0.22 
   8  -1 -17    2.06    0.15 
  -8   1  17    1.71    0.17 
   8   1 -17    2.06    0.18 
   8   1 -17    2.18    0.19 
   7  -1 -17    1.09    0.17 
  -7  -1  17    1.01    0.13 
   7  -1 -17    1.33    0.12 
  -7   1  17    1.22    0.15 
   7   1 -17    1.11    0.15 
   6  -1 -17    0.08    0.09 
  -6  -1  17    0.11    0.07 
   6   1 -17    0.03    0.07 
  -6   1  17    0.13    0.08 
  -5  -1  17    0.05    0.07 
   5  -1 -17    0.08    0.09 
   5   1 -17    0.06    0.07 
  -5   1  17    0.04    0.07 
  -4  -1  17    0.45    0.10 
   4  -1 -17    0.35    0.13 
   4   1 -17    0.61    0.12 
  -4   1  17    0.42    0.10 
   3  -1 -17    2.81    0.25 
  -3  -1  17    2.87    0.20 
   3   1 -17    3.10    0.23 
  -3   1  17    2.78    0.22 
  -2  -1  17    0.46    0.10 
   2  -1 -17    0.95    0.17 
  -2   1  17    0.65    0.12 
   2   1 -17    1.04    0.15 
   1  -1 -17    3.49    0.29 
  -1  -1  17    2.87    0.20 
   1   1 -17    3.10    0.23 
  -1   1  17    2.43    0.20 
   0  -1 -17    2.62    0.26 
   0  -1  17    2.74    0.20 
   0   1  17    2.93    0.23 
   1  -1  17    1.32    0.15 
   1   1  17    1.29    0.16 
   2  -1  17    0.09    0.07 
   2   1  17    0.15    0.09 
   3  -1  17    0.03    0.08 
   3   1  17    0.19    0.09 
   4  -1  17    0.07    0.08 
   4   1  17    0.12    0.09 
   5  -1  17    0.37    0.11 
   5   1  17    0.45    0.13 
   6  -1  17    0.12    0.09 
   6   1  17    0.19    0.11 
   7  -1  17    1.47    0.17 
   7   1  17    1.53    0.19 
 -18  -2  17   -0.10    0.06 
 -18   2  17    0.04    0.10 
  18   2 -17    0.15    0.10 
 -17  -2  17    0.20    0.08 
  17  -2 -17    0.18    0.13 
 -17   2  17    0.13    0.11 
  17   2 -17    0.18    0.10 
 -16  -2  17    0.37    0.09 
  16  -2 -17    0.54    0.15 
  16   2 -17    0.45    0.12 
 -16   2  17    0.36    0.14 
  16   2 -17    0.49    0.13 
  15  -2 -17    0.34    0.15 
 -15  -2  17    0.23    0.08 
  15  -2 -17    0.26    0.12 
  15   2 -17    0.34    0.11 
 -15   2  17    0.31    0.13 
  15   2 -17    0.38    0.12 
 -14  -2  17    2.35    0.18 
  14  -2 -17    2.71    0.25 
  14  -2 -17    2.52    0.27 
  14   2 -17    3.06    0.24 
 -14   2  17    2.49    0.24 
  14   2 -17    2.80    0.23 
  13  -2 -17    0.31    0.11 
 -13  -2  17    0.09    0.07 
  13  -2 -17   -0.03    0.10 
  13   2 -17    0.12    0.09 
 -13   2  17    0.04    0.09 
  13   2 -17    0.15    0.09 
  12  -2 -17    0.03    0.07 
 -12  -2  17    0.05    0.12 
 -12  -2  17   -0.07    0.05 
  12  -2 -17   -0.05    0.08 
  12   2 -17    0.03    0.08 
  12   2 -17    0.01    0.08 
  11  -2 -17    0.42    0.14 
 -11  -2  17    0.26    0.13 
 -11  -2  17    0.26    0.07 
  11  -2 -17    0.22    0.09 
  11   2 -17    0.19    0.09 
  11   2 -17    0.21    0.09 
  10  -2 -17    0.76    0.16 
  10  -2 -17    0.95    0.13 
 -10  -2  17    0.66    0.17 
 -10  -2  17    0.91    0.11 
  10   2 -17    0.76    0.15 
  -9  -2  17    3.14    0.30 
   9  -2 -17    2.94    0.27 
  -9  -2  17    3.10    0.19 
   9   2 -17    3.27    0.26 
   8  -2 -17    0.10    0.09 
  -8  -2  17    0.04    0.05 
  -8  -2  17   -0.08    0.08 
   8   2 -17    0.06    0.08 
   7  -2 -17    0.22    0.11 
  -7  -2  17    0.21    0.11 
  -7  -2  17    0.25    0.07 
   7   2 -17    0.06    0.09 
  -6  -2  17    0.70    0.09 
  -6  -2  17    0.60    0.16 
   6  -2 -17    0.61    0.14 
   6   2 -17    0.57    0.14 
   5  -2 -17    1.21    0.18 
  -5  -2  17    0.88    0.18 
  -5  -2  17    1.01    0.11 
   5   2 -17    0.91    0.16 
   4  -2 -17    0.01    0.08 
  -4  -2  17    0.32    0.07 
  -4  -2  17    0.30    0.14 
   4   2 -17    0.11    0.09 
  -3  -2  17    0.06    0.11 
  -3  -2  17   -0.08    0.04 
   3  -2 -17   -0.04    0.09 
   3   2 -17    0.04    0.08 
  -2  -2  17    0.16    0.07 
  -2  -2  17    0.52    0.16 
   2  -2 -17    0.16    0.12 
   2   2 -17    0.18    0.11 
  -1  -2  17    0.06    0.12 
   1  -2 -17    0.20    0.12 
  -1  -2  17    0.31    0.08 
   1   2 -17    0.24    0.11 
   0  -2  17    1.68    0.14 
   0  -2 -17    1.54    0.21 
   0   2 -17    1.67    0.22 
   1  -2  17    0.06    0.06 
  -1  -2 -17    0.07    0.09 
  -2  -2 -17    0.43    0.14 
   2  -2  17    0.51    0.09 
   3  -2  17    0.28    0.08 
  -3  -2 -17    0.38    0.15 
   4  -2  17    0.46    0.09 
  -4  -2 -17    0.11    0.12 
   5  -2  17   -0.01    0.06 
   6  -2  17    0.19    0.08 
  16  -3 -17    0.78    0.20 
  16  -3 -17    0.46    0.16 
  15  -3 -17    1.56    0.24 
  15  -3 -17    2.20    0.26 
  14  -3 -17    0.71    0.17 
  14  -3 -17    0.77    0.18 
 -14  -3  17    0.54    0.18 
  14   3 -17    0.63    0.14 
 -13  -3  17    0.29    0.15 
  13  -3 -17    0.11    0.11 
  13  -3 -17    0.25    0.13 
  13   3 -17    0.31    0.12 
 -12  -3  17    0.69    0.19 
  12  -3 -17    0.78    0.17 
  11  -3 -17    1.58    0.21 
 -11  -3  17    1.61    0.24 
 -10  -3  17    1.18    0.21 
  10  -3 -17    1.44    0.20 
  10   3 -17    1.23    0.19 
  -9  -3  17    0.87    0.20 
   9  -3 -17    0.80    0.16 
   9   3 -17    1.37    0.20 
  -8  -3  17    0.05    0.10 
   8  -3 -17    0.20    0.11 
   8   3 -17    0.08    0.10 
  -7  -3  17    0.49    0.16 
   7  -3 -17    0.48    0.14 
   7   3 -17    0.43    0.14 
  -6  -3  17    0.06    0.10 
   6  -3 -17    0.17    0.11 
   6   3 -17    0.13    0.10 
  -5  -3  17    0.03    0.11 
   5  -3 -17    0.10    0.09 
   5   3 -17    0.08    0.10 
   4  -3 -17   -0.01    0.08 
  -4  -3  17    0.04    0.11 
   4   3 -17    0.24    0.12 
   3  -3 -17    0.25    0.12 
  -3  -3  17    0.24    0.13 
   3   3 -17    0.07    0.10 
   2  -3 -17    0.62    0.16 
  -2  -3  17    0.39    0.15 
   2   3 -17    0.77    0.19 
   1  -3 -17    0.93    0.17 
  -1  -3  17    0.88    0.20 
   1   3 -17    0.74    0.19 
   0  -3 -17    0.01    0.09 
   0  -3  17    0.27    0.14 
   0   3 -17    0.11    0.13 
   1  -3  17   -0.19    0.09 
  -1  -3 -17    0.04    0.11 
  -1   3 -17   -0.08    0.10 
  -2  -3 -17    0.14    0.12 
   2  -3  17    0.14    0.13 
  -2   3 -17    0.10    0.14 
  -3  -3 -17    0.02    0.11 
  -4  -3 -17   -0.06    0.09 
  -5  -3 -17    0.26    0.15 
 -14  -4  17   -0.01    0.13 
  14  -4 -17    0.05    0.11 
  13  -4 -17    7.47    0.45 
 -13  -4  17    7.87    0.51 
 -12  -4  17    0.13    0.13 
  12  -4 -17   -0.07    0.08 
 -11  -4  17    0.50    0.17 
  11  -4 -17    0.57    0.15 
  10  -4 -17    1.11    0.19 
 -10  -4  17    1.17    0.22 
  -9  -4  17    0.19    0.14 
   9  -4 -17    0.27    0.11 
  -8  -4  17    0.68    0.19 
   8  -4 -17    0.44    0.14 
  -7  -4  17    1.55    0.25 
   7  -4 -17    1.69    0.21 
  -6  -4  17    0.80    0.20 
   6  -4 -17    0.69    0.16 
   5  -4 -17    2.52    0.25 
  -5  -4  17    2.76    0.30 
  -4  -4  17    0.81    0.20 
   4  -4 -17    0.81    0.17 
  -3  -4  17    0.45    0.16 
   3  -4 -17    0.59    0.16 
  -2  -4  17    1.86    0.26 
   2  -4 -17    1.26    0.20 
   1  -4 -17    0.21    0.13 
  -1  -4  17    0.41    0.16 
   0  -4 -17    0.00    0.10 
   0  -4  17    0.16    0.14 
  -1  -4 -17    0.02    0.10 
   1  -4  17   -0.05    0.11 
  -2  -4 -17   -0.04    0.10 
   2  -4  17   -0.19    0.11 
  -9  -5  17    0.14    0.14 
   9  -5 -17    0.28    0.13 
  -8  -5  17    0.69    0.19 
   8  -5 -17    0.42    0.14 
  -7  -5  17    0.83    0.20 
   7  -5 -17    0.64    0.16 
   6  -5 -17    0.33    0.13 
  -6  -5  17    0.12    0.13 
   5  -5 -17    0.39    0.14 
  -5  -5  17    0.28    0.15 
  -4  -5  17    0.74    0.20 
   4  -5 -17    0.44    0.15 
  -3  -5  17    0.46    0.17 
   3  -5 -17    0.66    0.16 
 -18   0  18    1.87    0.21 
  17   0 -18    0.04    0.08 
 -17   0  18    0.04    0.09 
 -16   0  18    1.90    0.21 
  16   0 -18    1.85    0.20 
  15   0 -18    3.15    0.24 
 -15   0  18    3.14    0.25 
 -14   0  18    4.38    0.29 
  14   0 -18    4.96    0.29 
  13   0 -18    3.14    0.22 
 -13   0  18    2.99    0.24 
 -12   0  18    6.14    0.33 
  12   0 -18    5.76    0.30 
  11   0 -18    2.52    0.19 
 -11   0  18    2.49    0.22 
  10   0 -18   31.74    0.89 
 -10   0  18   30.79    0.93 
  -9   0  18    7.01    0.36 
   9   0 -18    7.67    0.33 
   8   0 -18    0.03    0.05 
  -8   0  18   -0.02    0.06 
   7   0 -18    0.97    0.11 
  -7   0  18    0.80    0.13 
  -6   0  18    0.88    0.13 
   6   0 -18    0.97    0.11 
  -5   0  18    1.54    0.16 
  -4   0  18    1.29    0.15 
  -3   0  18    3.70    0.25 
  -2   0  18   22.41    0.73 
  -1   0  18    3.25    0.24 
   0   0  18    0.30    0.10 
   1   0  18    1.36    0.16 
   2   0  18    1.45    0.17 
   3   0  18   -0.06    0.07 
   4   0  18    0.05    0.08 
   5   0  18    1.25    0.17 
   6   0  18    2.22    0.21 
 -18  -1  18    5.60    0.33 
 -18   1  18    5.47    0.37 
  17  -1 -18    4.07    0.31 
 -17  -1  18    3.57    0.26 
 -17   1  18    4.62    0.32 
 -16  -1  18    2.80    0.22 
  16  -1 -18    2.60    0.24 
  16   1 -18    2.70    0.23 
 -16   1  18    2.34    0.23 
 -15  -1  18   -0.04    0.06 
  15  -1 -18    0.06    0.09 
 -15   1  18    0.11    0.10 
  15   1 -18    0.14    0.09 
  14  -1 -18    0.11    0.09 
 -14  -1  18    0.07    0.07 
  14   1 -18    0.02    0.07 
 -14   1  18   -0.04    0.08 
  13  -1 -18    0.53    0.12 
 -13  -1  18    0.46    0.11 
  13   1 -18    0.80    0.13 
 -13   1  18    0.40    0.12 
 -12  -1  18    4.71    0.28 
  12  -1 -18    4.93    0.28 
 -12   1  18    5.14    0.32 
  12   1 -18    4.93    0.28 
 -11  -1  18    0.37    0.10 
  11  -1 -18    0.44    0.10 
  11   1 -18    0.42    0.11 
 -11   1  18    0.41    0.12 
 -10  -1  18    0.32    0.10 
  10  -1 -18    0.40    0.09 
  10   1 -18    0.35    0.10 
 -10   1  18    0.20    0.10 
   9  -1 -18    1.71    0.15 
  -9  -1  18    1.08    0.14 
   9  -1 -18    1.16    0.19 
   9   1 -18    1.65    0.16 
  -9   1  18    1.15    0.16 
   9   1 -18    1.40    0.17 
  -8  -1  18    5.78    0.30 
   8  -1 -18    6.66    0.39 
   8   1 -18    5.90    0.33 
  -8   1  18    6.03    0.33 
   8   1 -18    6.47    0.32 
   7  -1 -18    3.04    0.28 
  -7  -1  18    2.86    0.21 
   7   1 -18    3.24    0.23 
  -7   1  18    2.66    0.22 
   6  -1 -18    2.78    0.26 
  -6  -1  18    3.28    0.22 
   6   1 -18    3.39    0.24 
  -6   1  18    2.89    0.23 
   5  -1 -18    6.31    0.38 
  -5  -1  18    6.18    0.31 
   5   1 -18    6.26    0.34 
  -5   1  18    5.40    0.32 
  -4  -1  18   21.66    0.68 
   4  -1 -18   21.23    0.79 
   4   1 -18   22.61    0.75 
  -4   1  18   21.34    0.72 
  -3  -1  18    2.79    0.21 
   3  -1 -18    3.04    0.28 
   3   1 -18    2.91    0.23 
  -3   1  18    3.13    0.24 
  -2  -1  18    0.87    0.13 
   2  -1 -18    1.11    0.19 
  -2   1  18    0.78    0.14 
  -1  -1  18    0.00    0.06 
  -1   1  18    0.01    0.07 
   0  -1  18    1.14    0.14 
   0   1  18    1.41    0.17 
   1  -1  18    1.84    0.18 
   1   1  18    1.98    0.20 
   2  -1  18    3.93    0.25 
   2   1  18    4.06    0.28 
   3  -1  18    6.17    0.33 
   3   1  18    6.35    0.36 
   4  -1  18    4.29    0.28 
   4   1  18    4.91    0.32 
   5  -1  18    0.07    0.09 
   5   1  18   -0.04    0.09 
   6  -1  18    0.08    0.09 
   6   1  18    0.12    0.11 
 -17  -2  18    0.05    0.07 
  17   2 -18   -0.01    0.09 
 -17   2  18    0.08    0.12 
  16  -2 -18    0.16    0.12 
 -16  -2  18    0.09    0.07 
  16   2 -18    0.13    0.10 
 -16   2  18    0.12    0.11 
  15  -2 -18    7.24    0.42 
 -15  -2  18    7.19    0.31 
  15   2 -18    7.47    0.39 
 -15   2  18    7.12    0.41 
  15   2 -18    7.53    0.39 
 -14  -2  18    1.89    0.15 
  14  -2 -18    1.82    0.22 
  14  -2 -18    1.20    0.21 
  14   2 -18    1.99    0.20 
 -14   2  18    1.80    0.21 
  13  -2 -18    6.96    0.43 
  13  -2 -18    6.85    0.38 
 -13  -2  18    7.11    0.30 
  13   2 -18    7.96    0.39 
 -13   2  18    7.28    0.40 
  12  -2 -18   11.23    0.48 
  12  -2 -18   11.48    0.55 
 -12  -2  18   11.40    0.40 
  12   2 -18   11.31    0.49 
  11  -2 -18    9.44    0.49 
 -11  -2  18    9.41    0.36 
  11   2 -18    8.79    0.42 
  11   2 -18    9.40    0.46 
  10  -2 -18    9.40    0.48 
 -10  -2  18    8.26    0.34 
  10   2 -18    8.88    0.44 
   9  -2 -18    3.26    0.29 
  -9  -2  18    2.95    0.19 
  -9  -2  18    2.72    0.30 
   9   2 -18    3.10    0.25 
  -8  -2  18    0.16    0.07 
   8  -2 -18    0.49    0.14 
  -8  -2  18    0.00    0.12 
   8   2 -18    0.18    0.10 
   7  -2 -18    0.29    0.13 
  -7  -2  18    0.58    0.09 
  -7  -2  18    0.31    0.15 
   7   2 -18    0.55    0.13 
  -6  -2  18    0.34    0.15 
  -6  -2  18    0.17    0.07 
   6  -2 -18    0.42    0.14 
   6   2 -18    0.35    0.12 
   5  -2 -18    2.81    0.27 
  -5  -2  18    2.79    0.30 
  -5  -2  18    2.77    0.18 
   5   2 -18    2.92    0.26 
   4  -2 -18    7.49    0.43 
  -4  -2  18    7.09    0.30 
  -4  -2  18    7.90    0.47 
   4   2 -18    6.67    0.40 
  -3  -2  18    6.55    0.28 
   3  -2 -18    6.91    0.42 
   3   2 -18    6.24    0.38 
   2  -2 -18    7.90    0.44 
  -2  -2  18    6.95    0.30 
   2   2 -18    8.01    0.44 
   1  -2 -18    2.10    0.25 
  -1  -2  18    2.19    0.17 
   1   2 -18    2.02    0.24 
   0  -2  18    4.94    0.25 
   0  -2 -18    5.34    0.37 
  -1  -2 -18    4.19    0.34 
   1  -2  18    3.95    0.22 
   2  -2  18    1.01    0.12 
  -2  -2 -18    1.18    0.21 
   3  -2  18    0.02    0.06 
   4  -2  18    0.19    0.08 
   5  -2  18    0.20    0.08 
  15  -3 -18    8.08    0.50 
  15  -3 -18    8.88    0.50 
 -14  -3  18    2.15    0.29 
  14  -3 -18    2.58    0.28 
  13  -3 -18   -0.10    0.08 
 -13  -3  18    0.16    0.15 
  13   3 -18   -0.11    0.08 
 -12  -3  18    0.76    0.20 
  12  -3 -18    0.66    0.17 
 -11  -3  18   -0.05    0.10 
  11  -3 -18    0.07    0.10 
 -10  -3  18    0.25    0.13 
  10  -3 -18    0.22    0.12 
   9  -3 -18    0.27    0.12 
  -9  -3  18    0.02    0.12 
   8  -3 -18    1.67    0.22 
  -8  -3  18    2.04    0.27 
   7  -3 -18    5.27    0.36 
  -7  -3  18    5.65    0.42 
   7   3 -18    6.01    0.40 
  -6  -3  18    3.18    0.32 
   6  -3 -18    3.15    0.28 
   6   3 -18    3.32    0.31 
   5  -3 -18    2.03    0.23 
  -5  -3  18    1.67    0.24 
   5   3 -18    2.19    0.25 
  -4  -3  18    1.77    0.25 
   4  -3 -18    1.50    0.21 
   4   3 -18    1.78    0.24 
   3  -3 -18    1.77    0.23 
  -3  -3  18    2.23    0.27 
   3   3 -18    1.73    0.24 
   2  -3 -18   -0.09    0.09 
  -2  -3  18    0.04    0.11 
   2   3 -18    0.08    0.11 
   1  -3 -18   -0.03    0.10 
  -1  -3  18    0.17    0.14 
   1   3 -18    0.11    0.12 
   0  -3  18    1.81    0.27 
   0  -3 -18    1.78    0.24 
   0   3 -18    1.74    0.26 
  -1  -3 -18    0.24    0.14 
  -2  -3 -18    1.47    0.23 
  -3  -3 -18    1.62    0.24 
 -13  -4  18    6.52    0.47 
  13  -4 -18    5.75    0.40 
  12  -4 -18    1.12    0.20 
 -12  -4  18    0.92    0.22 
 -11  -4  18    0.06    0.13 
  11  -4 -18   -0.02    0.10 
 -10  -4  18    0.93    0.21 
  10  -4 -18    0.83    0.18 
  -9  -4  18    0.74    0.21 
   9  -4 -18    1.24    0.20 
  -8  -4  18    0.63    0.20 
   8  -4 -18    0.87    0.18 
  -7  -4  18    0.36    0.16 
   7  -4 -18    0.36    0.13 
  -6  -4  18    0.02    0.12 
   6  -4 -18    0.26    0.13 
  -5  -4  18    1.09    0.22 
   5  -4 -18    0.88    0.18 
   4  -4 -18    0.09    0.10 
  -4  -4  18    0.15    0.14 
  -3  -4  18    0.11    0.14 
   3  -4 -18    0.18    0.12 
  -2  -4  18    0.31    0.16 
   2  -4 -18    0.19    0.12 
  -1  -4  18    0.15    0.14 
   1  -4 -18   -0.03    0.10 
   0  -4 -18   -0.03    0.10 
   0  -4  18    0.14    0.15 
 -17   0  19    0.00    0.08 
  16   0 -19    0.07    0.08 
 -16   0  19   -0.03    0.07 
 -15   0  19   -0.19    0.06 
  15   0 -19   -0.03    0.07 
  14   0 -19   -0.07    0.06 
 -14   0  19    0.02    0.08 
 -13   0  19    0.05    0.09 
  13   0 -19    0.02    0.06 
  12   0 -19   -0.07    0.05 
 -12   0  19   -0.10    0.06 
  11   0 -19   -0.06    0.06 
 -11   0  19    0.09    0.08 
 -10   0  19    0.04    0.08 
  10   0 -19    0.01    0.06 
  -9   0  19   -0.09    0.06 
   9   0 -19    0.00    0.06 
   8   0 -19   -0.01    0.05 
  -8   0  19   -0.04    0.06 
  -7   0  19    0.02    0.08 
  -6   0  19   -0.10    0.06 
  -5   0  19   -0.07    0.07 
  -4   0  19   -0.06    0.07 
  -3   0  19   -0.04    0.07 
  -2   0  19    0.00    0.07 
  -1   0  19   -0.02    0.07 
   0   0  19    0.06    0.08 
   1   0  19    0.08    0.08 
   2   0  19    0.02    0.08 
   3   0  19    0.00    0.07 
   4   0  19   -0.09    0.07 
 -17  -1  19   -0.02    0.08 
 -17   1  19    0.22    0.13 
  16  -1 -19    0.28    0.12 
 -16  -1  19    0.21    0.10 
 -16   1  19    0.16    0.11 
  15  -1 -19    0.05    0.09 
 -15  -1  19    0.02    0.07 
 -15   1  19    0.06    0.09 
  15   1 -19   -0.02    0.07 
  14  -1 -19    1.72    0.19 
 -14  -1  19    1.49    0.17 
  14   1 -19    1.61    0.18 
 -14   1  19    1.78    0.20 
 -13  -1  19   -0.04    0.06 
  13  -1 -19   -0.04    0.07 
  13   1 -19    0.01    0.07 
 -13   1  19   -0.01    0.08 
 -12  -1  19    6.64    0.33 
  12  -1 -19    6.47    0.33 
  12   1 -19    6.32    0.33 
 -12   1  19    6.18    0.36 
 -11  -1  19    1.23    0.15 
  11  -1 -19    1.39    0.16 
 -11   1  19    1.46    0.18 
  11   1 -19    1.51    0.17 
  10  -1 -19    0.78    0.12 
 -10  -1  19    0.41    0.10 
  10   1 -19    0.80    0.13 
 -10   1  19    0.51    0.12 
  -9  -1  19   -0.01    0.07 
  -9   1  19    0.15    0.09 
   9   1 -19    0.18    0.08 
  -8  -1  19    0.17    0.09 
   8   1 -19    0.42    0.12 
  -8   1  19    0.44    0.12 
   8   1 -19    0.53    0.11 
  -7  -1  19   -0.08    0.07 
   7   1 -19   -0.08    0.06 
  -7   1  19   -0.04    0.08 
  -6  -1  19    4.56    0.27 
  -6   1  19    4.36    0.29 
   6   1 -19    4.07    0.28 
  -5  -1  19    4.03    0.26 
  -5   1  19    4.24    0.29 
   5   1 -19    4.98    0.30 
  -4  -1  19   14.77    0.53 
  -4   1  19   13.90    0.56 
   4   1 -19   15.94    0.59 
  -3  -1  19    3.09    0.23 
  -3   1  19    3.35    0.26 
  -2  -1  19   -0.07    0.06 
  -2   1  19    0.06    0.08 
  -1  -1  19    2.39    0.19 
  -1   1  19    2.18    0.21 
   0  -1  19   -0.05    0.07 
   0   1  19   -0.06    0.07 
   1  -1  19    0.08    0.08 
   1   1  19    0.01    0.08 
   2  -1  19    0.15    0.09 
   2   1  19    0.11    0.10 
   3  -1  19    0.31    0.10 
   3   1  19    0.37    0.12 
   4  -1  19    0.52    0.12 
   4   1  19    0.71    0.15 
 -16  -2  19    0.19    0.08 
  16  -2 -19    0.06    0.11 
 -16   2  19    0.13    0.12 
 -15  -2  19    1.32    0.13 
  15  -2 -19    1.23    0.20 
 -15   2  19    1.26    0.19 
 -14  -2  19    6.06    0.28 
  14  -2 -19    5.55    0.35 
  14   2 -19    5.83    0.34 
 -14   2  19    6.17    0.38 
 -13  -2  19    1.17    0.13 
  13   2 -19    1.22    0.17 
  12  -2 -19   -0.06    0.11 
 -12  -2  19    0.05    0.07 
  12   2 -19    0.15    0.09 
 -11  -2  19    0.55    0.10 
  11  -2 -19    0.33    0.14 
  11   2 -19    0.46    0.12 
  10  -2 -19   -0.11    0.09 
 -10  -2  19   -0.06    0.05 
  10   2 -19    0.04    0.08 
   9  -2 -19    0.05    0.09 
  -9  -2  19   -0.03    0.06 
   9   2 -19   -0.09    0.08 
   8  -2 -19    1.25    0.20 
  -8  -2  19    1.24    0.13 
   8   2 -19    1.44    0.19 
  -7  -2  19    1.79    0.15 
   7  -2 -19    1.74    0.23 
   7   2 -19    2.05    0.22 
   6  -2 -19    5.34    0.37 
  -6  -2  19    5.05    0.25 
   6   2 -19    5.42    0.35 
   5  -2 -19    0.11    0.11 
  -5  -2  19   -0.07    0.05 
   5   2 -19    0.15    0.11 
   4  -2 -19    1.72    0.23 
  -4  -2  19    1.57    0.14 
   4   2 -19    1.86    0.22 
   3  -2 -19    2.70    0.27 
  -3  -2  19    2.71    0.18 
   3   2 -19    2.41    0.25 
   2  -2 -19    0.12    0.11 
  -2  -2  19    0.14    0.07 
   2   2 -19    0.06    0.10 
   1  -2 -19   -0.16    0.09 
  -1  -2  19    0.00    0.06 
   0  -2  19    0.80    0.11 
   0  -2 -19    0.83    0.19 
   1  -2  19    0.82    0.11 
   2  -2  19    0.08    0.07 
   3  -2  19   -0.08    0.06 
  14  -3 -19    1.00    0.21 
  13  -3 -19    3.72    0.33 
  12  -3 -19    0.07    0.11 
 -11  -3  19    0.27    0.15 
  11  -3 -19    0.72    0.18 
  10  -3 -19    0.50    0.16 
 -10  -3  19    0.31    0.16 
  -9  -3  19    0.23    0.16 
   9  -3 -19    0.17    0.11 
   8  -3 -19    0.08    0.10 
  -8  -3  19   -0.20    0.08 
  -7  -3  19    0.01    0.12 
   7  -3 -19   -0.01    0.09 
   6  -3 -19    0.94    0.18 
  -6  -3  19    0.82    0.21 
  -5  -3  19    1.87    0.27 
   5  -3 -19    1.76    0.23 
  -4  -3  19    0.08    0.13 
   4  -3 -19    0.09    0.10 
   3  -3 -19    0.05    0.11 
  -3  -3  19    0.09    0.13 
   2  -3 -19   -0.11    0.08 
   1  -3 -19    0.07    0.13 
   0  -3 -19   -0.07    0.10 
  -1  -3 -19    0.08    0.12 
  11  -4 -19    1.47    0.22 
 -11  -4  19    1.78    0.28 
  10  -4 -19    1.83    0.24 
 -10  -4  19    1.76    0.28 
  -9  -4  19    1.03    0.23 
   9  -4 -19    1.02    0.19 
  -8  -4  19    0.80    0.21 
   8  -4 -19    0.84    0.18 
   7  -4 -19    0.34    0.14 
  -7  -4  19   -0.01    0.11 
   6  -4 -19    0.84    0.18 
  -6  -4  19    1.37    0.25 
   5  -4 -19   -0.04    0.09 
  -5  -4  19    0.08    0.13 
  -4  -4  19    0.21    0.15 
   4  -4 -19    0.37    0.14 
  -3  -4  19    0.15    0.14 
   3  -4 -19    0.03    0.10 
  -2  -4  19   -0.09    0.12 
   2  -4 -19   -0.02    0.10 
 -17   0  20    0.44    0.13 
 -16   0  20    0.05    0.10 
 -15   0  20    0.59    0.14 
  15   0 -20    0.65    0.14 
 -14   0  20    0.16    0.10 
  14   0 -20    0.20    0.09 
  13   0 -20    0.93    0.14 
 -13   0  20    0.37    0.12 
 -12   0  20    0.12    0.10 
  12   0 -20    0.48    0.11 
 -11   0  20    9.39    0.44 
  11   0 -20   10.32    0.42 
  10   0 -20    2.41    0.19 
 -10   0  20    2.45    0.22 
  -9   0  20    3.88    0.27 
  -8   0  20    1.97    0.19 
  -7   0  20    1.04    0.15 
  -6   0  20    1.76    0.19 
  -5   0  20    0.30    0.11 
  -4   0  20    1.15    0.16 
  -3   0  20   10.30    0.46 
  -2   0  20    0.04    0.09 
  -1   0  20    1.56    0.18 
   0   0  20    4.63    0.30 
   1   0  20    5.22    0.32 
   2   0  20    2.17    0.22 
   3   0  20   -0.05    0.08 
 -16  -1  20    1.79    0.19 
  16  -1 -20    2.58    0.25 
 -16   1  20    1.91    0.23 
  15  -1 -20    4.47    0.31 
 -15  -1  20    4.13    0.28 
 -15   1  20    4.81    0.33 
  15   1 -20    4.33    0.29 
  14  -1 -20    0.87    0.15 
 -14  -1  20    0.77    0.13 
  14   1 -20    0.87    0.15 
 -14   1  20    1.10    0.18 
  13  -1 -20    2.42    0.22 
 -13  -1  20    2.03    0.19 
  13   1 -20    2.04    0.20 
 -13   1  20    2.22    0.23 
  12  -1 -20    0.11    0.09 
 -12  -1  20    0.11    0.08 
 -12   1  20    0.00    0.08 
  12   1 -20    0.07    0.08 
 -11  -1  20    0.10    0.08 
  11   1 -20    0.20    0.09 
 -11   1  20    0.07    0.09 
 -10  -1  20    0.06    0.08 
 -10   1  20    0.08    0.09 
  10   1 -20    0.13    0.08 
  -9  -1  20    2.25    0.19 
  -9   1  20    1.44    0.18 
   9   1 -20    1.79    0.18 
  -8  -1  20    1.50    0.16 
   8   1 -20    1.30    0.17 
  -8   1  20    1.36    0.17 
   8   1 -20    1.56    0.17 
  -7  -1  20    1.07    0.14 
   7   1 -20    1.45    0.18 
  -7   1  20    1.33    0.17 
   7   1 -20    1.26    0.15 
  -6  -1  20    0.05    0.08 
   6   1 -20    0.14    0.09 
  -6   1  20    0.05    0.08 
  -5  -1  20    0.36    0.10 
  -5   1  20    0.47    0.12 
  -4  -1  20    0.04    0.07 
  -4   1  20    0.05    0.08 
  -3  -1  20   -0.02    0.07 
  -3   1  20    0.05    0.09 
  -2  -1  20    1.58    0.17 
  -2   1  20    1.46    0.18 
  -1  -1  20   -0.05    0.07 
  -1   1  20    0.01    0.08 
   0  -1  20    0.86    0.14 
   0   1  20    0.73    0.15 
   1  -1  20    0.11    0.08 
   1   1  20    0.00    0.08 
   2  -1  20    0.04    0.08 
   2   1  20   -0.08    0.08 
   3   1  20    0.86    0.16 
 -15  -2  20    9.04    0.36 
 -15   2  20    8.78    0.48 
 -14  -2  20    0.37    0.09 
 -14   2  20    0.52    0.15 
 -13  -2  20    0.33    0.09 
  13   2 -20    0.40    0.12 
 -12  -2  20    0.12    0.08 
  12   2 -20    0.20    0.10 
 -11  -2  20    1.18    0.13 
  11   2 -20    1.35    0.18 
 -10  -2  20    6.77    0.30 
  10  -2 -20    7.41    0.45 
  10   2 -20    7.18    0.38 
   9  -2 -20    8.90    0.50 
  -9  -2  20    8.53    0.35 
  -8  -2  20    5.68    0.27 
   8  -2 -20    5.76    0.40 
   8   2 -20    5.29    0.35 
   7  -2 -20    4.99    0.36 
  -7  -2  20    4.49    0.24 
   7   2 -20    4.19    0.31 
   6  -2 -20   -0.02    0.10 
  -6  -2  20    0.04    0.06 
   6   2 -20    0.08    0.09 
  -5  -2  20   -0.02    0.06 
   5  -2 -20    0.08    0.11 
   5   2 -20    0.15    0.10 
  -4  -2  20   -0.09    0.05 
   4  -2 -20    0.11    0.12 
   4   2 -20    0.03    0.09 
   3  -2 -20    0.17    0.12 
  -3  -2  20    0.20    0.08 
  -2  -2  20    0.82    0.11 
   2  -2 -20    0.78    0.19 
  -1  -2  20    0.22    0.08 
   0  -2  20    0.28    0.08 
   1  -2  20    0.02    0.06 
  13  -3 -20    5.38    0.40 
  12  -3 -20    1.82    0.25 
  11  -3 -20    0.63    0.18 
  10  -3 -20   -0.04    0.10 
   9  -3 -20    0.24    0.13 
   8  -3 -20    1.29    0.21 
   7  -3 -20    1.73    0.24 
   6  -3 -20    0.63    0.18 
   5  -3 -20    4.35    0.35 
   4  -3 -20    2.77    0.30 
   3  -3 -20    0.39    0.16 
   2  -3 -20    0.45    0.16 
   1  -3 -20    0.03    0.11 
  15   0 -21   -0.10    0.07 
 -15   0  21    0.01    0.09 
  14   0 -21   -0.01    0.07 
 -14   0  21    0.00    0.08 
 -13   0  21    0.04    0.09 
  13   0 -21    0.07    0.08 
 -12   0  21   -0.02    0.08 
  12   0 -21   -0.11    0.06 
 -11   0  21   -0.01    0.08 
  11   0 -21    0.01    0.07 
 -10   0  21    0.01    0.08 
  -9   0  21    0.03    0.08 
  -8   0  21   -0.11    0.07 
  -7   0  21   -0.02    0.08 
  -6   0  21   -0.13    0.06 
  -5   0  21   -0.20    0.06 
  -4   0  21    0.08    0.09 
  -3   0  21    0.11    0.09 
  -2   0  21   -0.06    0.08 
  -1   0  21   -0.02    0.08 
   0   0  21    0.01    0.09 
   1   0  21   -0.01    0.08 
 -15  -1  21    0.29    0.11 
  15  -1 -21    0.47    0.14 
 -15   1  21    0.33    0.13 
 -14  -1  21   -0.06    0.08 
 -14   1  21   -0.04    0.09 
  14   1 -21    0.03    0.08 
 -13  -1  21   -0.05    0.07 
 -13   1  21   -0.03    0.10 
  13   1 -21   -0.04    0.07 
 -12  -1  21    0.06    0.08 
  12   1 -21    0.12    0.09 
 -12   1  21    0.19    0.11 
 -11  -1  21    1.79    0.18 
  11   1 -21    2.12    0.20 
 -11   1  21    1.91    0.21 
 -10  -1  21    0.87    0.13 
  10   1 -21    1.03    0.15 
 -10   1  21    1.02    0.17 
  -9  -1  21    0.12    0.08 
  -9   1  21    0.12    0.10 
   9   1 -21    0.07    0.08 
  -8  -1  21   -0.01    0.07 
  -8   1  21    0.06    0.09 
  -7  -1  21    0.23    0.10 
  -7   1  21    0.25    0.11 
   7   1 -21    0.48    0.13 
  -6  -1  21    1.19    0.15 
  -6   1  21    1.38    0.18 
  -5  -1  21   -0.02    0.08 
  -5   1  21   -0.04    0.08 
  -4  -1  21    0.41    0.11 
  -4   1  21    0.35    0.12 
  -3  -1  21    0.23    0.10 
  -3   1  21    0.05    0.09 
  -2  -1  21    0.06    0.08 
  -2   1  21    0.08    0.09 
  -1  -1  21    0.73    0.13 
  -1   1  21    0.43    0.13 
   0  -1  21    0.07    0.08 
   0   1  21    0.01    0.09 
   1  -1  21    0.05    0.08 
   1   1  21   -0.02    0.08 
 -13  -2  21    5.57    0.28 
 -12  -2  21    0.36    0.09 
  12   2 -21    0.37    0.12 
 -11  -2  21   -0.03    0.06 
  11   2 -21    0.03    0.09 
 -10  -2  21    0.09    0.07 
  10   2 -21    0.08    0.09 
  -9  -2  21    0.04    0.06 
  -8  -2  21    0.17    0.08 
  -7  -2  21    0.37    0.09 
  -6  -2  21    0.18    0.08 
  -5  -2  21    0.19    0.08 
  -4  -2  21    0.23    0.08 
  -3  -2  21    0.00    0.06 
  -2  -2  21    0.73    0.11 
  -1  -2  21    1.13    0.13 
  10  -3 -21    0.02    0.12 
   9  -3 -21    0.00    0.10 
   8  -3 -21    0.33    0.15 
   7  -3 -21    1.24    0.22 
   6  -3 -21    2.23    0.27 
   5  -3 -21    0.18    0.13 
   4  -3 -21    0.86    0.20 
  14   0 -22    1.81    0.20 
 -14   0  22    1.93    0.21 
 -13   0  22    2.31    0.23 
 -12   0  22    1.98    0.21 
 -11   0  22    0.11    0.10 
 -10   0  22   -0.24    0.07 
  -9   0  22    5.15    0.33 
  -8   0  22    1.66    0.20 
  -7   0  22    1.80    0.20 
  -6   0  22    5.16    0.33 
  -5   0  22   12.32    0.53 
  -4   0  22   10.43    0.49 
  -3   0  22    5.72    0.34 
  -2   0  22    1.17    0.18 
  -1   0  22    1.62    0.19 
 -13  -1  22    3.28    0.25 
  13   1 -22    3.49    0.26 
 -13   1  22    3.42    0.29 
 -12  -1  22    2.72    0.23 
 -12   1  22    2.95    0.26 
  12   1 -22    2.48    0.22 
 -11  -1  22   11.66    0.49 
  11   1 -22   12.88    0.51 
 -11   1  22   12.48    0.56 
 -10  -1  22    3.74    0.26 
 -10   1  22    3.40    0.28 
  -9  -1  22    0.14    0.09 
  -9   1  22    0.08    0.10 
  -8  -1  22    0.13    0.10 
  -8   1  22    0.12    0.11 
  -7  -1  22    0.25    0.10 
  -7   1  22    0.39    0.13 
  -6  -1  22    0.18    0.10 
  -6   1  22    0.38    0.12 
  -5  -1  22    1.74    0.18 
  -5   1  22    1.65    0.20 
  -4  -1  22    2.89    0.23 
  -4   1  22    2.23    0.23 
  -3  -1  22    9.82    0.43 
  -3   1  22    9.37    0.47 
  -2  -1  22    1.67    0.18 
  -2   1  22    1.30    0.20 
 -11  -2  22    0.52    0.10 
 -10  -2  22    0.64    0.11 
  10   2 -22    0.56    0.14 
  -9  -2  22    0.98    0.12 
   9   2 -22    0.94    0.16 
  -8  -2  22    1.50    0.14 
  -7  -2  22    0.85    0.12 
  -6  -2  22    0.37    0.09 
  -5  -2  22    3.55    0.22 
  -4  -2  22    0.37    0.09 
 -11   0  23    0.01    0.09 
 -10   0  23   -0.12    0.07 
  -9   0  23   -0.03    0.08 
  -8   0  23   -0.16    0.07 
  -7   0  23   -0.11    0.08 
  -6   0  23   -0.09    0.08 
  -5   0  23    0.15    0.11 
  -9  -1  23    0.06    0.09 
  -9   1  23   -0.02    0.09 
  -8  -1  23    0.29    0.11 
  -8   1  23    0.15    0.11 
  -7  -1  23    0.00    0.08 
  -7   1  23    0.07    0.10 
  -6  -1  23   -0.07    0.07 
  -6   1  23   -0.11    0.08 
   0   0   0    0.00    0.00 
;
_shelx_hkl_checksum              61251
loop_
_space_group_symop_operation_xyz
'x, y, z'
'-x, y+1/2, -z+1/2'
'-x, -y, -z'
'x, -y-1/2, z-1/2'
loop_
_atom_site_label
_atom_site_type_symbol
_atom_site_fract_x
_atom_site_fract_y
_atom_site_fract_z
_atom_site_U_iso_or_equiv
_atom_site_adp_type
_atom_site_occupancy
_atom_site_site_symmetry_order
_atom_site_calc_flag
_atom_site_refinement_flags_posn
_atom_site_refinement_flags_adp
S1 S 1.04955(3) 0.73320(7) 0.19812(2) 0.03848(13) Uani 1 1 d . .
O1 O 0.91233(7) 0.45835(18) 0.10589(6) 0.0373(2) Uani 1 1 d . .
N1 N 0.91084(7) 0.1446(2) 0.02452(7) 0.0291(2) Uani 1 1 d . .
C1 C 1.14792(11) 0.8791(3) 0.24612(9) 0.0422(4) Uani 1 1 d . .
H1A H 1.1543 1.0091 0.2821 0.051 Uiso 1 1 calc R U
C2 C 1.21651(11) 0.7888(3) 0.22735(10) 0.0463(4) Uani 1 1 d . .
H2A H 1.2761 0.8497 0.2485 0.056 Uiso 1 1 calc R U
C3 C 1.18982(10) 0.5948(3) 0.17298(10) 0.0418(4) Uani 1 1 d . .
H3A H 1.2296 0.5100 0.1541 0.050 Uiso 1 1 calc R U
C4 C 1.09888(9) 0.5416(3) 0.15021(8) 0.0320(3) Uani 1 1 d . .
C5 C 1.05046(9) 0.3528(2) 0.09501(8) 0.0297(3) Uani 1 1 d . .
C6 C 0.95435(9) 0.3258(2) 0.07710(8) 0.0299(3) Uani 1 1 d . .
C7 C 0.95422(8) -0.0141(2) -0.00867(8) 0.0280(3) Uani 1 1 d . .
C8 C 0.90765(9) -0.2020(2) -0.06004(8) 0.0306(3) Uani 1 1 d . .
H8A H 0.8455 -0.2238 -0.0705 0.037 Uiso 1 1 calc R U
C9 C 0.81334(8) 0.1249(3) 0.00685(8) 0.0310(3) Uani 1 1 d . .
H9A H 0.7824 0.0652 -0.0499 0.037 Uiso 1 1 calc R U
H9B H 0.7889 0.2834 0.0101 0.037 Uiso 1 1 calc R U
C10 C 0.79381(9) -0.0396(3) 0.06672(9) 0.0321(3) Uani 1 1 d . .
H10A H 0.8293 0.0108 0.1238 0.039 Uiso 1 1 calc R U
H10B H 0.8126 -0.2019 0.0595 0.039 Uiso 1 1 calc R U
C11 C 0.69409(9) -0.0392(3) 0.05302(9) 0.0351(3) Uani 1 1 d . .
H11A H 0.6774 0.1186 0.0670 0.042 Uiso 1 1 calc R U
H11B H 0.6585 -0.0683 -0.0060 0.042 Uiso 1 1 calc R U
C12 C 0.66962(9) -0.2243(3) 0.10412(9) 0.0346(3) Uani 1 1 d . .
H12A H 0.7039 -0.1923 0.1631 0.042 Uiso 1 1 calc R U
H12B H 0.6881 -0.3815 0.0914 0.042 Uiso 1 1 calc R U
C13 C 0.56951(10) -0.2305(3) 0.08897(10) 0.0376(3) Uani 1 1 d . .
H13A H 0.5525 -0.0794 0.1076 0.045 Uiso 1 1 calc R U
H13B H 0.5348 -0.2447 0.0291 0.045 Uiso 1 1 calc R U
C14 C 0.54367(9) -0.4318(3) 0.13277(9) 0.0359(3) Uani 1 1 d . .
H14A H 0.5779 -0.4158 0.1927 0.043 Uiso 1 1 calc R U
H14B H 0.5619 -0.5824 0.1149 0.043 Uiso 1 1 calc R U
C15 C 0.44377(10) -0.4440(3) 0.11745(11) 0.0450(4) Uani 1 1 d . .
H15A H 0.4245 -0.2919 0.1334 0.054 Uiso 1 1 calc R U
H15B H 0.4093 -0.4682 0.0580 0.054 Uiso 1 1 calc R U
C16 C 0.42235(12) -0.6422(4) 0.16554(13) 0.0593(5) Uani 1 1 d . .
H16A H 0.3576 -0.6430 0.1543 0.089 Uiso 1 1 calc R U
H16B H 0.4558 -0.6179 0.2245 0.089 Uiso 1 1 calc R U
H16C H 0.4398 -0.7935 0.1488 0.089 Uiso 1 1 calc R U
loop_
_atom_site_aniso_label
_atom_site_aniso_U_11
_atom_site_aniso_U_22
_atom_site_aniso_U_33
_atom_site_aniso_U_23
_atom_site_aniso_U_13
_atom_site_aniso_U_12
S1 0.0433(2) 0.0395(2) 0.0390(2) -0.00435(15) 0.02276(18) -0.00262(16)
O1 0.0384(5) 0.0353(5) 0.0459(6) -0.0018(5) 0.0247(5) 0.0050(4)
N1 0.0274(5) 0.0320(6) 0.0327(6) 0.0027(5) 0.0169(5) 0.0047(5)
C1 0.0510(9) 0.0435(9) 0.0345(8) -0.0050(7) 0.0188(7) -0.0079(7)
C2 0.0397(8) 0.0547(10) 0.0433(9) -0.0060(8) 0.0143(7) -0.0082(7)
C3 0.0387(8) 0.0476(9) 0.0415(8) -0.0065(7) 0.0177(7) -0.0019(7)
C4 0.0351(7) 0.0346(7) 0.0297(7) 0.0041(6) 0.0159(6) 0.0032(6)
C5 0.0322(6) 0.0318(7) 0.0287(6) 0.0060(5) 0.0156(5) 0.0036(5)
C6 0.0337(7) 0.0295(6) 0.0313(7) 0.0060(6) 0.0179(6) 0.0045(5)
C7 0.0293(7) 0.0310(7) 0.0283(6) 0.0063(5) 0.0159(5) 0.0065(5)
C8 0.0282(6) 0.0359(7) 0.0312(7) 0.0049(6) 0.0151(5) 0.0037(5)
C9 0.0258(6) 0.0349(7) 0.0358(7) 0.0020(6) 0.0155(5) 0.0054(5)
C10 0.0292(6) 0.0343(7) 0.0366(7) 0.0031(6) 0.0167(6) 0.0043(5)
C11 0.0302(7) 0.0363(7) 0.0432(8) 0.0054(6) 0.0187(6) 0.0039(6)
C12 0.0308(7) 0.0371(8) 0.0382(8) 0.0040(6) 0.0156(6) 0.0021(6)
C13 0.0322(7) 0.0396(8) 0.0453(8) 0.0068(7) 0.0195(7) 0.0041(6)
C14 0.0325(7) 0.0369(7) 0.0424(8) 0.0038(6) 0.0186(6) 0.0037(6)
C15 0.0350(7) 0.0453(9) 0.0604(10) 0.0080(8) 0.0242(7) 0.0036(7)
C16 0.0488(10) 0.0587(11) 0.0826(14) 0.0101(10) 0.0385(10) -0.0025(9)
loop_
_atom_type_symbol
_atom_type_description
_atom_type_scat_dispersion_real
_atom_type_scat_dispersion_imag
_atom_type_scat_source
C C 0.0033 0.0016 'International Tables Vol C Tables 4.2.6.8 and 6.1.1.4'
H H 0.0000 0.0000 'International Tables Vol C Tables 4.2.6.8 and 6.1.1.4'
N N 0.0061 0.0033 'International Tables Vol C Tables 4.2.6.8 and 6.1.1.4'
O O 0.0106 0.0060 'International Tables Vol C Tables 4.2.6.8 and 6.1.1.4'
S S 0.1246 0.1234 'International Tables Vol C Tables 4.2.6.8 and 6.1.1.4'
loop_
_geom_angle_atom_site_label_1
_geom_angle_atom_site_label_2
_geom_angle_atom_site_label_3
_geom_angle
_geom_angle_site_symmetry_1
_geom_angle_site_symmetry_3
C1 S1 C4 92.25(7) . .
C6 N1 C7 123.63(11) . .
C6 N1 C9 115.22(10) . .
C7 N1 C9 121.12(11) . .
C2 C1 S1 112.39(13) . .
C1 C2 C3 112.83(15) . .
C4 C3 C2 112.51(14) . .
C3 C4 C5 126.16(13) . .
C3 C4 S1 110.02(11) . .
C5 C4 S1 123.82(10) . .
C8 C5 C4 121.98(12) 3_755 .
C8 C5 C6 119.53(13) 3_755 .
C4 C5 C6 118.49(12) . .
O1 C6 N1 120.58(12) . .
O1 C6 C5 122.66(13) . .
N1 C6 C5 116.75(11) . .
N1 C7 C7 119.00(16) . 3_755
N1 C7 C8 121.81(11) . .
C7 C7 C8 119.18(15) 3_755 .
C5 C8 C7 121.82(12) 3_755 .
N1 C9 C10 112.02(11) . .
C9 C10 C11 111.32(11) . .
C12 C11 C10 113.01(12) . .
C11 C12 C13 113.45(12) . .
C14 C13 C12 113.38(12) . .
C13 C14 C15 114.35(12) . .
C16 C15 C14 112.08(14) . .
loop_
_geom_bond_atom_site_label_1
_geom_bond_atom_site_label_2
_geom_bond_distance
_geom_bond_site_symmetry_2
S1 C1 1.6973(16) .
S1 C4 1.7327(14) .
O1 C6 1.2348(16) .
N1 C6 1.3815(19) .
N1 C7 1.3894(16) .
N1 C9 1.4773(15) .
C1 C2 1.358(2) .
C2 C3 1.413(2) .
C3 C4 1.391(2) .
C4 C5 1.456(2) .
C5 C8 1.3645(18) 3_755
C5 C6 1.4585(18) .
C7 C7 1.390(2) 3_755
C7 C8 1.414(2) .
C8 C5 1.3645(18) 3_755
C9 C10 1.5204(19) .
C10 C11 1.5227(18) .
C11 C12 1.522(2) .
C12 C13 1.5234(19) .
C13 C14 1.516(2) .
C14 C15 1.5207(19) .
C15 C16 1.518(2) .
