#------------------------------------------------------------------------------
#$Date: 2016-11-09 04:25:35 +0200 (Wed, 09 Nov 2016) $
#$Revision: 188338 $
#$URL: file:///home/coder/svn-repositories/cod/cif/1/54/45/1544525.cif $
#------------------------------------------------------------------------------
#
# This file is available in the Crystallography Open Database (COD),
# http://www.crystallography.net/. The original data for this entry
# were provided by IUCr Journals, http://journals.iucr.org/.
#
# The file may be used within the scientific community so long as
# proper attribution is given to the journal article from which the
# data were obtained.
#
data_1544525
loop_
_publ_author_name
'Kennedy, Alan R.'
'Silva de Moraes, Lygia'
_publ_section_title
;
 4-Ammonio-5-methoxy-2-methylbenzenesulfonate
;
_journal_coeditor_code           SU4094
_journal_issue                   11
_journal_name_full               IUCrData
_journal_page_first              x161778
_journal_paper_doi               10.1107/S2414314616017788
_journal_volume                  1
_journal_year                    2016
_chemical_formula_iupac          'N H4 +, C8 H7 O4 S -'
_chemical_formula_moiety         'H4 N +, C8 H7 O4 S -'
_chemical_formula_sum            'C8 H11 N O4 S'
_chemical_formula_weight         217.24
_chemical_name_systematic        4-Azaniumyl-5-methoxy-2-methylbenzenesulfonate
_space_group_crystal_system      monoclinic
_space_group_IT_number           11
_space_group_name_Hall           '-P 2yb'
_space_group_name_H-M_alt        'P 1 21/m 1'
_symmetry_space_group_name_Hall  '-P 2yb'
_symmetry_space_group_name_H-M   'P 1 21/m 1'
_atom_sites_solution_hydrogens   mixed
_atom_sites_solution_primary     direct
_atom_sites_solution_secondary   difmap
_audit_creation_method           SHELXL-2014/7
_cell_angle_alpha                90
_cell_angle_beta                 105.039(4)
_cell_angle_gamma                90
_cell_formula_units_Z            2
_cell_length_a                   8.0644(3)
_cell_length_b                   6.9410(2)
_cell_length_c                   8.6192(3)
_cell_measurement_reflns_used    3052
_cell_measurement_temperature    123(2)
_cell_measurement_theta_max      28.38
_cell_measurement_theta_min      3.82
_cell_volume                     465.94(3)
_computing_cell_refinement
;
Crysalis PRO (Agilent, 2014)
;
_computing_data_collection
;
Crysalis PRO (Agilent, 2014)
;
_computing_data_reduction
;
Crysalis PRO (Agilent, 2014)
;
_computing_molecular_graphics
;
ORTEP-3 for Windows (Farrugia, 2012) and Mercury (Macrae <i>et al.</i>,
2008)
;
_computing_publication_material
;
SHELXL2014 (Sheldrick, 2015)
;
_computing_structure_refinement
;
SHELXL2014 (Sheldrick, 2015)
;
_computing_structure_solution
;
SHELXS97 (Sheldrick, 2008)
;
_diffrn_ambient_temperature      123(2)
_diffrn_measured_fraction_theta_full 0.998
_diffrn_measured_fraction_theta_max 0.901
_diffrn_measurement_device_type  'Oxford Diffraction Xcalibur E'
_diffrn_measurement_method       '\w scans'
_diffrn_radiation_type           MoK\a
_diffrn_radiation_wavelength     0.71073
_diffrn_reflns_av_R_equivalents  0.0170
_diffrn_reflns_limit_h_max       10
_diffrn_reflns_limit_h_min       -10
_diffrn_reflns_limit_k_max       8
_diffrn_reflns_limit_k_min       -9
_diffrn_reflns_limit_l_max       11
_diffrn_reflns_limit_l_min       -11
_diffrn_reflns_number            4897
_diffrn_reflns_theta_full        25.242
_diffrn_reflns_theta_max         28.897
_diffrn_reflns_theta_min         3.084
_diffrn_standards_decay_%        0
_diffrn_standards_interval_count 0
_diffrn_standards_number         0
_exptl_absorpt_coefficient_mu    0.335
_exptl_absorpt_correction_T_max  1.00000
_exptl_absorpt_correction_T_min  0.95959
_exptl_absorpt_correction_type   multi-scan
_exptl_absorpt_process_details
;
(CrysAlis PRO; Agilent, 2014)
;
_exptl_crystal_colour            colourless
_exptl_crystal_density_diffrn    1.548
_exptl_crystal_description       plate
_exptl_crystal_F_000             228
_exptl_crystal_size_max          0.34
_exptl_crystal_size_mid          0.19
_exptl_crystal_size_min          0.08
_refine_diff_density_max         0.338
_refine_diff_density_min         -0.456
_refine_ls_extinction_method     none
_refine_ls_goodness_of_fit_ref   1.098
_refine_ls_hydrogen_treatment    mixed
_refine_ls_matrix_type           full
_refine_ls_number_parameters     103
_refine_ls_number_reflns         1187
_refine_ls_number_restraints     0
_refine_ls_restrained_S_all      1.098
_refine_ls_R_factor_all          0.0315
_refine_ls_R_factor_gt           0.0289
_refine_ls_shift/su_max          0.000
_refine_ls_shift/su_mean         0.000
_refine_ls_structure_factor_coef Fsqd
_refine_ls_weighting_details
'w=1/[\s^2^(Fo^2^)+(0.0421P)^2^+0.2128P] where P=(Fo^2^+2Fc^2^)/3'
_refine_ls_weighting_scheme      calc
_refine_ls_wR_factor_gt          0.0792
_refine_ls_wR_factor_ref         0.0813
_reflns_number_gt                1101
_reflns_number_total             1187
_reflns_threshold_expression     'I > 2\s(I)'
_cod_data_source_file            su4094sup1.cif
_cod_data_source_block           I
_cod_database_code               1544525
_shelx_space_group_comment
;
The symmetry employed for this shelxl refinement is uniquely defined
by the following loop, which should always be used as a source of
symmetry information in preference to the above space-group names.
They are only intended as comments.
;
_shelx_hkl_file
;
   0   0   2 247632. 986.949   7
   0   0  -2 242014. 959.010   3
   0   0  -2 240330. 804.768   4
   0   0   3 150949. 772.220   4
   0   0  -3 151494. 934.945   3
   0   0  -3 149635. 780.075   4
   0   0   3 150850. 917.695   7
   0   0  -4 9786.71 230.270   4
   0   0   4 9396.97 224.479   4
   0   0   4 9685.45 268.706   7
   0   0  -4 9255.33 270.726   3
   0   0   5 1166.87 91.2400   4
   0   0  -5 1165.90 91.4928   4
   0   0  -5 1327.14 119.017   3
   0   0  -6 4680.66 243.261   3
   0   0   6 4684.57 180.262   2
   0   0   6 4769.50 201.770   4
   0   0  -7 4648.99 262.926   3
   0   0   7 5051.90 223.948   4
   0   0   7 4997.59 200.157   2
   0   0  -8 4173.43 275.054   3
   0   0   8 4327.52 225.354   4
   0   0   8 4198.90 193.744   2
   0   0  -9 2477.99 227.176   3
   0   0 -10 2141.63 227.611   3
   0   1   0 557.634 40.1389   1
   0  -1   0 640.514 36.1602   4
   0  -1   0 631.367 43.4447   6
   0   1   0 582.214 41.8037   5
   0   1   0 616.778 28.9951   3
   0   1  -1 29613.4 251.391   1
   0  -1   1 29248.5 304.071   4
   0   1  -1 28954.9 289.373   3
   0  -1  -1 28347.7 200.744   3
   0  -1  -1 28592.4 215.679   2
   0   1   1 29794.1 296.676   1
   0  -1  -2 12069.4 217.795   1
   0   1  -2 12130.5 241.328   3
   0  -1  -2 12162.2 142.044   2
   0  -1  -2 12133.1 193.112   3
   0   1   2 12297.3 196.907   3
   0  -1  -2 12069.0 216.175   7
   0   1   2 12122.3 140.341   2
   0   1   2 11989.5 220.487   7
   0  -1   2 11973.4 233.961   4
   0   1   3 55736.1 556.777   7
   0  -1  -3 56780.0 535.312   3
   0  -1  -3 57053.9 525.683   1
   0  -1  -3 55903.5 546.837   7
   0   1  -3 56925.0 575.767   4
   0   1  -3 55685.4 618.986   3
   0  -1   3 55141.9 570.088   4
   0  -1  -3 57783.3 351.209   4
   0   1   3 55957.7 340.597   4
   0   1   3 56096.8 536.346   3
   0   1   3 53173.4 349.591   2
   0  -1  -4 653.697 49.2033   4
   0  -1  -4 686.123 82.2851   7
   0   1   4 536.139 42.9344   2
   0  -1  -4 584.404 62.2800   1
   0  -1   4 662.396 73.3434   4
   0  -1  -4 581.320 69.2597   3
   0   1  -4 487.981 71.8094   3
   0   1   4 578.113 66.3237   3
   0   1   4 597.628 46.5551   4
   0   1   4 558.878 67.8999   7
   0   1  -5 31356.2 589.716   3
   0   1   5 31650.0 359.265   2
   0   1   5 31999.5 390.763   4
   0  -1  -5 30583.4 700.071   7
   0  -1  -5 31836.7 537.261   3
   0  -1  -5 32260.4 477.506   1
   0  -1   5 31575.1 532.388   4
   0  -1  -5 32412.2 392.527   4
   0  -1  -6 26606.6 553.713   3
   0  -1   6 27077.0 535.993   4
   0   1   6 27319.2 409.006   4
   0   1   6 27029.1 367.235   2
   0   1  -6 27052.6 600.006   3
   0  -1  -6 27034.7 406.090   4
   0  -1   7 71757.1 939.467   4
   0   1   7 71334.0 646.797   2
   0   1  -7 68914.7 1046.96   3
   0  -1  -7 70595.6 992.611   3
   0   1   7 72848.5 726.388   4
   0  -1   8 769.694 111.453   4
   0  -1  -8 736.007 116.349   3
   0   1  -8 702.598 122.792   3
   0   1  -9 2118.55 221.844   3
   0  -1  -9 1961.81 202.208   3
   0  -1   9 2012.41 181.015   4
   0  -1 -10 5164.73 344.783   3
   0   1 -10 5010.34 359.706   3
   0  -1 -11 299.299 109.736   3
   0   2   0 982380. 1520.91   3
   0   2   0 989233. 2161.07   5
   0   2   0 981433. 1920.01   4
   0   2   0 999999. 2156.91   1
   0  -2   0 967186. 1926.44   4
   0   2  -1 60558.1 518.710   1
   0   2  -1 63383.0 569.417   5
   0   2  -1 61378.8 498.876   3
   0   2   1 62300.2 572.586   1
   0   2   1 60816.4 388.656   4
   0  -2   1 62531.3 529.247   1
   0  -2  -1 62199.2 385.052   4
   0  -2   1 60991.0 556.183   4
   0  -2   1 62320.2 502.807   3
   0  -2  -1 63856.5 541.064   6
   0  -2   2 97390.9 797.416   4
   0   2   2 91623.4 674.508   6
   0   2   2 95865.9 761.443   1
   0  -2  -2 94882.7 513.547   3
   0   2  -2 98612.4 757.947   3
   0   2  -2 94086.6 640.562   1
   0  -2   2 97700.1 756.966   3
   0  -2  -2 95053.4 561.081   2
   0  -2  -3 2513.04 86.5118   2
   0  -2   3 2180.27 135.297   4
   0   2   3 2347.51 85.4835   2
   0   2  -3 2259.22 135.855   3
   0   2  -3 2315.74 105.012   1
   0   2   3 2229.98 112.525   6
   0  -2  -3 2364.28 125.782   7
   0  -2  -3 2363.14 103.341   3
   0  -2  -3 2344.18 131.263   1
   0  -2  -4 16154.4 358.535   7
   0   2  -4 16298.8 404.942   3
   0   2   4 16409.0 327.255   3
   0  -2  -4 16602.0 326.124   3
   0  -2  -4 16660.3 219.684   2
   0  -2   4 16550.8 395.732   4
   0   2   4 16448.1 225.004   2
   0   2   5 4304.70 121.414   2
   0   2  -5 4141.46 227.772   3
   0  -2   5 4072.72 215.625   4
   0  -2  -5 4495.12 208.616   7
   0  -2  -5 4186.02 189.673   3
   0   2   5 4105.64 89.2586   4
   0  -2   6 1036.28 121.679   4
   0   2   6 1086.57 57.8526   4
   0  -2  -6 1210.30 114.727   3
   0   2   6 1056.75 63.8932   2
   0   2  -6 922.437 123.516   3
   0  -2  -6 1411.51 132.836   7
   0  -2  -7 2722.65 190.566   3
   0   2  -7 2487.41 210.360   3
   0  -2   7 2479.32 192.023   4
   0  -2  -7 1717.23 203.608   7
   0   2  -8 9.30753 47.3198   3
   0  -2  -8 97.2178 60.4038   3
   0  -2   8-38.5870 55.0907   4
   0   2  -9 2890.41 263.457   3
   0  -2   9 3168.93 245.597   4
   0  -2  -9 3226.55 247.802   3
   0   2 -10 159.608 89.4866   3
   0  -2  10-28.3806 54.2120   4
   0  -2 -10 22.1399 51.8855   3
   0   3   0 77.3759 43.1701   1
   0  -3   0 72.8851 23.1293   3
   0   3   0 83.2806 24.8998   3
   0   3   0 69.6712 32.4241   5
   0   3   0 77.8320 30.0652   4
   0  -3   0 103.135 36.7722   4
   0  -3   1 2663.56 139.056   1
   0  -3  -1 2535.03 135.296   6
   0   3  -1 2493.52 134.700   1
   0   3   1 2581.73 108.070   4
   0  -3  -1 2589.94 84.2091   3
   0  -3   1 2897.06 145.762   4
   0   3   1 2604.05 145.895   1
   0  -3   1 2616.53 119.598   3
   0   3  -1 2429.13 114.695   3
   0  -3  -1 2480.87 104.377   4
   0   3   1 2365.32 134.426   6
   0   3  -1 2421.13 135.637   4
   0   3  -2 71172.8 687.815   1
   0   3   2 70236.7 714.512   6
   0   3  -2 70562.4 708.067   3
   0   3   2 71878.9 783.771   1
   0  -3  -2 72402.0 454.332   4
   0  -3  -2 73954.3 719.236   6
   0  -3   2 73398.7 724.694   3
   0   3   2 71235.3 452.278   4
   0  -3  -2 72469.5 631.616   2
   0  -3   2 71292.1 784.021   4
   0  -3  -3 68638.4 531.537   3
   0   3   3 66898.7 721.242   6
   0   3  -3 67807.3 673.188   1
   0   3  -3 67063.7 786.604   3
   0  -3   3 67590.9 834.129   4
   0  -3  -3 68747.0 576.340   2
   0   3   3 67570.1 800.853   1
   0  -3   4 3056.99 190.575   4
   0   3  -4 3143.75 189.092   3
   0  -3  -4 3177.11 134.108   3
   0  -3  -4 3168.02 118.206   2
   0   3  -4 3051.41 145.898   1
   0   3   4 3018.44 157.117   6
   0  -3  -4 3104.45 173.018   7
   0  -3  -5 71138.4 521.485   2
   0   3  -5 70321.7 977.073   3
   0  -3   5 69398.9 968.111   4
   0   3  -5 71653.3 706.069   1
   0  -3  -5 68671.9 878.606   7
   0  -3  -5 70246.1 739.833   3
   0   3   5 70772.0 800.303   6
   0  -3   6 57229.7 938.684   4
   0   3   6 58320.3 771.284   6
   0  -3  -6 57945.1 851.843   7
   0   3  -6 57495.1 651.307   1
   0  -3  -6 58283.8 755.113   3
   0   3  -6 56787.3 955.450   3
   0  -3  -7 49900.8 783.617   3
   0  -3   7 49649.1 928.258   4
   0  -3  -7 50681.6 872.205   7
   0   3  -7 48700.9 956.974   3
   0   3   7 50367.5 753.662   6
   0  -3  -8 4899.20 363.153   7
   0  -3   8 4566.01 298.672   4
   0   3  -8 4883.99 330.944   3
   0  -3  -8 4670.64 263.059   3
   0   3  -9 297.716 103.534   3
   0  -3   9 193.729 77.0351   4
   0  -3  10 1086.10 167.049   4
   0   4   0 304766. 1220.16   3
   0  -4   0 308219. 1245.76   3
   0  -4   0 304490. 1740.62   5
   0   4   0 312638. 1757.55   1
   0  -4   0 306852. 1546.08   4
   0   4  -1 21713.7 454.860   1
   0  -4  -1 21542.1 371.323   4
   0   4   1 22466.5 375.843   4
   0  -4   1 22511.1 388.236   3
   0  -4  -1 23137.8 292.842   3
   0  -4   1 22156.4 454.251   4
   0   4  -1 21826.2 380.053   3
   0   4   1 22047.3 481.959   1
   0   4   2 39595.3 668.626   1
   0   4  -2 39800.9 576.537   3
   0  -4  -2 39972.8 435.289   4
   0  -4  -2 40489.5 358.454   3
   0   4  -2 39753.5 604.011   1
   0   4   2 39085.8 619.661   6
   0  -4   2 40372.4 662.962   4
   0   4   2 40198.9 436.784   4
   0  -4   3 585.348 93.1404   4
   0   4  -3 826.712 89.6223   1
   0  -4  -3 818.404 78.9285   2
   0   4   3 731.712 96.6411   1
   0   4  -3 687.765 87.9820   3
   0   4   3 877.066 98.8396   6
   0   4   3 679.109 44.4289   4
   0  -4  -3 774.092 55.4724   3
   0  -4  -3 832.460 104.522   5
   0  -4  -4 10288.0 352.102   7
   0   4  -4 10639.6 310.884   1
   0  -4   4 10269.1 382.164   4
   0  -4  -4 10729.0 260.534   2
   0   4  -4 10886.5 373.736   3
   0  -4  -4 10658.0 235.491   3
   0   4   4 10369.3 329.058   6
   0  -4  -4 10693.4 387.239   5
   0   4  -5 3232.73 172.124   1
   0   4   5 3315.86 193.476   6
   0  -4  -5 3141.64 151.387   3
   0  -4   5 3344.81 236.064   4
   0  -4  -5 3193.96 204.590   7
   0   4  -5 3286.92 224.133   3
   0   4   6 1140.55 122.943   6
   0  -4   6 1026.58 138.062   4
   0  -4  -6 1074.55 102.581   3
   0   4  -6 1055.42 102.276   1
   0   4  -6 1050.51 145.147   3
   0  -4  -6 1067.09 130.026   7
   0  -4   7 2197.77 213.350   4
   0  -4  -7 1953.99 185.658   7
   0   4   7 2055.87 165.775   6
   0   4  -7 1878.99 199.743   3
   0   4  -8 96.0780 75.1002   3
   0  -4   8 54.2937 72.5225   4
   0  -4  -8 45.2111 52.1634   7
   0   4  -9 1992.11 238.671   3
   0  -4   9 1784.37 211.785   4
   0  -4  -9 1666.84 234.297   7
   0  -5   0 34.4347 48.5092   5
   0   5   0 11.8497 19.1553   3
   0  -5   0-0.07921 21.3639   3
   0   5   0-19.4799 41.5511   1
   0  -5   0-19.2543 36.6085   4
   0  -5  -1 12312.4 324.894   4
   0   5  -1 12415.1 392.092   1
   0  -5   1 12849.8 386.468   4
   0  -5  -1 12295.1 406.160   5
   0   5   1 12518.6 411.341   1
   0   5  -1 12665.9 317.181   3
   0  -5  -1 12596.1 241.829   3
   0  -5  -2 30.9390 17.5972   3
   0   5   2 10.2064 18.7030   4
   0   5  -2 33.9771 33.1964   3
   0   5  -2-6.73015 31.9872   1
   0   5   2 31.7281 33.5927   1
   0  -5  -2-20.2153 39.0851   5
   0  -5   2-28.5001 52.6463   4
   0  -5  -2 3.36004 20.3877   4
   0  -5  -3 11506.4 200.175   3
   0  -5   3 11504.3 412.715   4
   0  -5  -3 10723.5 233.889   4
   0   5   3 11040.7 375.618   6
   0   5   3 10934.9 407.910   1
   0   5  -3 11446.0 365.933   3
   0   5  -3 11329.3 366.912   1
   0  -5  -3 11514.7 414.623   5
   0  -5  -4 915.219 127.504   5
   0  -5  -4 903.629 64.0447   3
   0  -5   4 891.333 128.995   4
   0   5  -4 1103.53 130.638   3
   0   5  -4 895.463 107.200   1
   0   5   4 729.627 102.810   6
   0   5   5 8335.47 346.316   6
   0  -5  -5 8123.13 384.939   5
   0   5  -5 8404.88 374.751   3
   0   5  -5 7938.75 305.524   1
   0  -5   5 7863.30 383.224   4
   0  -5  -5 8140.66 354.215   7
   0  -5  -6 13188.1 521.827   5
   0  -5   6 14246.3 541.674   4
   0   5  -6 13468.0 511.749   3
   0   5   6 13658.1 449.437   6
   0  -5  -6 13538.1 475.412   7
   0   5  -6 13912.1 399.762   1
   0  -5   7 35448.7 896.276   4
   0   5  -7 35991.1 898.492   3
   0  -5  -7 35213.3 900.072   5
   0   5   7 35749.0 740.808   6
   0  -5  -7 35417.3 801.097   7
   0  -5  -8 47.6116 69.8312   5
   0   5  -8 168.824 92.5370   3
   0  -5  -8 66.4199 60.8651   7
   0  -5   8 37.5942 73.1457   4
   0  -6   0 175856. 1470.47   4
   0   6   0 177292. 1679.71   1
   0  -6   0 180053. 1698.47   5
   0   6   1 1046.09 144.555   1
   0  -6  -1 1131.99 141.487   5
   0  -6   1 1038.23 129.600   4
   0  -6  -1 1003.89 112.459   4
   0   6  -1 1090.87 140.016   1
   0   6  -1 978.744 98.9604   3
   0   6   2 21577.0 613.490   1
   0  -6   2 21913.3 587.288   4
   0   6  -2 21304.7 483.525   3
   0  -6  -2 21192.0 602.953   5
   0  -6  -2 21292.5 433.290   4
   0   6  -2 21365.4 567.871   1
   0  -6  -3 8075.83 383.690   5
   0   6  -3 8459.22 339.513   3
   0  -6   3 8404.74 387.963   4
   0   6   3 7968.47 384.257   1
   0   6  -3 8138.35 347.900   1
   0   6  -4 146.244 61.8223   3
   0   6  -4 57.9483 52.6116   1
   0  -6   4 137.605 75.0334   4
   0  -6  -4 102.621 63.1865   5
   0  -6  -5 819.172 127.888   7
   0   6  -5 856.468 114.559   1
   0  -6   5 891.322 147.561   4
   0   6  -5 804.839 128.622   3
   0   6   5 682.346 112.270   6
   0  -6  -5 744.145 133.099   5
   0   6   6 76.9414 63.7202   6
   0   6  -6-6.31224 46.3791   3
   0  -6  -6 93.1830 64.1070   7
   0  -6  -6-26.7603 50.8649   5
   0  -6   6 84.1546 75.0866   4
   0  -6   7 6.64524 62.5566   4
   0   6  -7 171.123 82.3828   3
   0  -6  -7 97.9951 64.9124   7
   0  -6  -7 5.96970 68.9419   5
   0  -7   0 88.6789 47.3845   4
   0   7   0-42.8057 44.0839   1
   0  -7  -1 3863.83 281.799   5
   0   7   1 3738.26 279.300   1
   0   7  -1 3827.03 271.622   1
   0  -7   1 4047.68 260.241   4
   0  -7  -1 4159.46 232.595   4
   0   7   2 10.9307 51.1071   1
   0   7  -2 0.71434 32.4427   3
   0  -7   2-38.1599 53.0767   4
   0  -7  -2 32.6819 52.3067   5
   0   7  -2 12.0532 37.6397   1
   0  -7   3 4589.15 309.624   4
   0   7  -3 4743.42 293.494   1
   0   7   3 4691.61 324.309   1
   0   7  -3 4573.45 261.774   3
   0  -7  -3 4633.82 317.065   5
   0  -7  -4 460.801 119.332   5
   0  -7   4 409.940 111.737   4
   0   7  -4 399.386 88.3081   3
   0   7  -4 490.244 107.992   1
   0  -7   5 6081.59 387.667   4
   0   7  -5 5545.14 337.465   3
   0  -7  -5 5596.95 351.216   7
   0  -7  -5 5857.28 381.810   5
   0   7  -5 5848.54 322.767   1
   0   7  -6 8354.30 441.766   3
   0  -7  -6 8733.79 487.250   5
   0  -7  -6 8262.97 430.429   7
   0  -7   6 8947.49 487.540   4
   0  -7  -7 22497.8 724.118   7
   0  -8   0 40539.2 838.258   4
   0   8   0 41347.6 985.244   1
   0  -8   1 4264.40 296.146   4
   0   8   1 4606.47 339.071   1
   0  -8  -1 4449.36 335.932   5
   0   8  -1 4282.68 318.680   1
   0   8  -2 6531.49 385.594   1
   0  -8  -2 7077.44 415.220   5
   0   8   2 6949.77 417.778   1
   0  -8   2 6715.32 384.196   4
   0   8  -3-13.8959 69.3341   1
   0   8   3 95.8296 84.7694   1
   0  -8   3-16.1547 61.8775   4
   0  -8  -3 99.0342 85.6836   5
   0  -8   4 3891.12 320.042   4
   0   8  -4 3690.18 284.961   1
   0  -8  -5 1600.36 208.075   7
   0  -9   2 844.190 157.410   4
   1   0 -10 5317.16 355.521   3
   1   0  -9 6588.69 367.547   3
  -1   0   9 6929.34 304.689   4
  -1   0   8 80.0089 50.8620   4
   1   0  -8 0.63714 39.1652   3
  -1   0   7 58236.6 767.984   4
   1   0  -7 59667.9 930.377   3
  -1   0   6 7737.66 256.729   4
   1   0  -6 7457.13 302.485   3
   1   0  -6 7600.48 181.515   1
   1   0  -5 26630.9 516.694   3
  -1   0   5 25975.5 430.729   4
   1   0  -5 26296.2 436.434   4
   1   0  -5 26656.4 302.290   1
  -1   0   5 26407.0 439.589   7
   1   0  -4 22713.6 423.615   3
  -1   0   4 22238.8 359.627   4
   1   0  -4 22697.1 238.226   1
   1   0  -4 23251.0 366.026   4
  -1   0   4 22832.8 365.297   7
   1   0  -3 28978.1 366.566   4
   1   0  -3 28970.4 412.186   3
   1   0  -3 27594.2 210.623   1
  -1   0   3 30471.4 394.488   7
  -1   0   3 27891.9 355.196   4
  -1   0   2 27368.2 302.813   4
   1   0  -2 27912.4 336.359   3
  -1   0   2 27752.0 228.135   2
   1   0  -1 4439.45 86.3423   2
   1   0   1 121940. 544.317   4
   1   0   1 117095. 639.783   7
  -1   0  -1 120185. 586.590   3
   1   0   1 116682. 594.613   2
   1   0   2 22594.1 309.987   2
  -1   0  -2 21661.8 311.325   3
   1   0   2 21208.0 267.200   4
   1   0   2 21054.1 334.198   7
  -1   0  -2 20867.3 270.793   4
  -1   0  -3 132.609 37.6163   3
   1   0   3 185.841 49.0445   7
   1   0   3 108.394 30.9674   4
   1   0   3 138.368 37.6273   3
  -1   0  -3 147.090 33.8110   4
  -1   0  -4 34.2531 28.8863   4
  -1   0  -4 21.4748 30.9036   3
   1   0   5 1395.64 102.088   4
   1   0   5 1535.07 113.730   2
  -1   0  -5 1246.52 117.619   3
  -1   0  -5 1283.36 99.8494   4
   1   0   6 107.898 56.0186   2
   1   0   6 26.3549 36.3719   4
  -1   0  -6 105.920 49.4395   3
   1   0   7 3653.03 195.413   4
  -1   0  -7 3252.50 224.460   3
   1   0   7 3457.18 184.954   2
   1   0   8 219.213 42.6506   2
  -1   0  -8 470.014 98.5355   3
   1   0   8 599.774 88.8428   4
  -1   0  -9 8825.44 433.408   3
  -1   0 -10 333.266 102.502   3
   1  -1 -11 7987.29 457.161   3
   1   1 -10 9871.95 498.317   3
   1  -1 -10 9731.29 469.456   3
   1  -1  -9 49.0353 54.3444   3
   1   1  -9 0.83290 51.9390   3
  -1  -1   9 119.736 58.7342   4
  -1  -1   8 100.026 45.6197   4
   1   1  -8 181.395 64.3943   3
   1  -1  -8 84.9233 48.6647   3
  -1   1   8 90.1103 36.8914   4
   1   1  -7 46774.3 854.668   3
  -1   1   7 47650.3 392.321   2
   1  -1  -7 45188.2 799.552   3
  -1   1   7 48456.1 616.334   4
  -1  -1   7 47218.7 758.809   4
  -1   1   6 10476.5 164.638   2
   1  -1  -6 10203.1 345.600   3
  -1   1   6 10736.4 266.310   4
  -1  -1   6 10656.7 336.741   4
   1  -1  -6 10312.7 257.795   1
   1   1  -6 10421.5 371.079   3
  -1   1   5 2342.99 64.7017   2
  -1  -1   5 2386.00 149.126   4
  -1   1   5 2337.55 113.481   4
  -1   1   5 2158.38 127.787   7
   1  -1  -5 2410.56 117.158   1
   1   1  -5 2434.27 165.494   3
   1  -1  -5 2469.73 154.371   3
  -1  -1   4 10743.3 283.753   4
   1  -1  -4 10670.5 224.064   1
  -1   1   4 11388.2 291.989   3
  -1   1   4 10810.3 215.662   4
   1   1  -4 11178.2 310.378   3
   1  -1  -4 10902.1 283.056   3
   1  -1  -4 12105.0 284.143   7
  -1   1   4 10552.1 238.220   7
   1   1  -3 60863.8 632.277   3
   1  -1  -3 61187.4 491.419   1
  -1  -1   3 60774.0 610.723   4
  -1   1   3 60495.6 477.302   7
  -1   1   3 61107.8 495.928   1
   1  -1  -3 63494.3 471.958   7
   1  -1  -3 61199.6 581.620   3
  -1   1   3 61283.6 445.443   4
   1  -1  -2 135744. 545.772   7
   1  -1  -2 133711. 675.574   1
  -1  -1   2 131267. 410.798   1
   1   1  -2 133306. 409.695   1
   1   1  -2 129208. 765.899   3
  -1  -1   2 129296. 788.024   4
  -1   1   2 132796. 665.254   1
  -1  -1   1-13.6412 23.0611   4
   1   1  -1 23.7703 19.2416   3
  -1  -1   1 48.2847 18.4686   1
  -1   1   1 16.9623 21.2578   1
  -1   1   1 12.3469 20.3623   5
   1   1   0 341591. 1039.54   2
   1  -1   0 335660. 993.316   6
   1  -1   0 336044. 1033.20   4
  -1  -1   0 337661. 903.495   4
  -1   1   0 344576. 1024.23   5
  -1   1   0 347531. 1031.18   3
  -1  -1  -1 1435.86 49.7510   3
  -1  -1  -1 1478.77 51.0855   6
   1   1   1 1426.71 50.4030   3
  -1   1  -1 1381.79 79.1855   3
   1  -1   1 1500.28 81.7348   4
   1   1   1 1375.59 70.6126   2
   1  -1   1 1411.75 68.7310   6
   1   1   2 11115.4 210.044   2
  -1  -1  -2 11364.1 140.398   4
   1   1   2 11332.9 256.740   7
  -1   1  -2 11258.6 255.500   3
   1  -1   2 11226.5 243.200   4
   1   1   2 11541.8 197.061   3
   1   1   2 11613.0 148.394   6
  -1  -1  -2 11400.1 195.348   3
  -1  -1  -2 11151.6 207.121   2
   1  -1   3 17972.4 342.217   4
   1   1   3 17999.5 288.230   2
  -1   1  -3 18652.7 377.841   3
   1   1   3 18729.3 372.763   7
  -1   1  -3 18947.5 351.596   4
  -1  -1  -3 18691.9 219.230   4
  -1  -1  -3 18255.8 366.414   7
  -1  -1  -3 18312.1 312.111   3
   1   1   3 18365.5 217.538   4
   1   1   3 18714.3 316.450   3
  -1  -1  -3 18124.3 285.327   2
  -1   1  -4 21351.8 452.600   3
   1   1   4 20327.3 338.438   2
  -1  -1  -4 20809.3 390.472   3
  -1  -1  -4 21261.6 452.588   7
   1  -1   4 20874.8 405.639   4
   1   1   4 21226.6 280.247   4
  -1  -1  -4 21041.1 281.210   4
   1   1   4 21563.4 396.805   3
   1  -1   5 1032.30 100.980   4
  -1  -1  -5 843.645 115.955   7
   1   1   5 954.870 79.6060   2
  -1  -1  -5 1011.01 101.883   3
  -1   1  -5 1019.41 114.294   3
  -1  -1  -5 972.661 71.0444   4
   1   1   5 979.971 71.0194   4
   1  -1   6 115.394 45.7970   4
  -1   1  -6 41.5241 42.2341   3
  -1  -1  -6 71.6987 39.5787   3
   1   1   6 111.990 31.7824   4
   1   1   6 124.843 37.1641   2
  -1  -1  -6 65.6982 25.8426   4
  -1  -1  -7 3270.37 218.140   3
   1  -1   7 3652.47 207.426   2
   1   1   7 3420.19 171.469   2
   1   1   7 3727.64 165.728   4
   1  -1   7 3461.09 208.841   4
  -1   1  -7 3373.59 240.173   3
  -1  -1  -8 4626.42 284.066   3
   1  -1   8 4768.83 261.364   4
   1  -1   8 4936.57 258.644   2
  -1   1  -8 4653.26 306.106   3
   1  -1   9 11281.7 425.796   4
  -1   1  -9 11754.2 516.879   3
  -1  -1  -9 11478.9 479.727   3
  -1  -1 -10 1250.21 174.937   3
  -1   1 -10 1301.47 193.225   3
   1  -2 -11 248.978 103.022   3
   1   2 -10 4070.06 328.486   3
  -1  -2  10 3432.62 269.201   4
   1  -2 -10 3613.54 280.422   3
   1  -2  -9 199.926 75.4180   3
   1   2  -9 233.051 89.3846   3
  -1  -2   9 233.030 80.7800   4
   1  -2  -8 8403.08 363.728   3
   1   2  -8 8332.67 405.664   3
  -1  -2   8 7765.53 360.879   4
  -1   2   7 71110.5 618.240   4
  -1  -2   7 66465.3 983.550   4
   1   2  -7 68570.0 1069.71   3
   1  -2  -7 67828.9 955.758   3
  -1   2   6 23873.8 326.327   4
   1  -2  -6 25897.3 532.215   7
   1   2  -6 23338.2 576.382   3
  -1  -2   6 23794.7 545.765   4
   1  -2  -6 23522.2 507.987   3
   1   2  -6 23657.0 275.545   1
   1   2  -5 95374.7 1065.24   3
   1   2  -5 98360.6 553.640   1
  -1  -2   5 95713.7 1026.89   4
  -1   2   5 98620.5 602.944   4
   1  -2  -5 96134.4 923.029   3
   1  -2  -5 96372.9 863.367   7
  -1   2   4 950.296 83.6337   1
  -1   2   4 1001.61 57.6669   4
  -1  -2   4 908.709 97.6396   4
   1  -2  -4 967.794 79.4553   7
   1   2  -4 942.066 99.5828   3
   1  -2  -4 1010.15 88.0541   1
   1   2  -4 948.691 54.5253   1
   1  -2  -4 1028.65 87.8942   3
   1   2  -3 24443.6 421.163   3
  -1  -2   3 23598.0 433.712   4
  -1   2   3 23832.8 388.895   1
   1  -2  -3 23920.3 362.818   3
   1  -2  -3 23003.6 188.700   2
   1  -2  -3 23396.6 345.682   7
  -1  -2   3 25139.9 429.659   3
   1   2  -3 23661.3 277.594   1
  -1   2   3 24030.9 266.810   4
   1  -2  -3 24170.8 394.042   1
   1   2  -2 12629.0 259.532   3
  -1  -2   2 12684.5 218.096   1
  -1  -2   2 13229.9 266.294   3
   1  -2  -2 12740.1 276.417   1
   1   2  -2 12689.1 216.706   1
  -1  -2   2 12812.8 290.872   4
  -1   2   2 12270.5 269.369   1
  -1   2   2 13049.0 201.932   4
   1  -2  -1 57597.2 468.028   4
   1  -2  -1 59937.6 565.823   6
  -1   2   1 59132.9 568.333   1
   1   2  -1 59188.5 503.933   1
   1   2  -1 57670.8 438.100   3
  -1   2   1 59200.4 483.404   4
  -1   2   1 59234.1 569.961   5
  -1  -2   1 59856.7 547.124   4
  -1  -2   1 58317.9 446.021   3
   1   2  -1 58805.6 504.617   5
  -1  -2   1 59100.8 504.635   1
   1   2   0 16182.2 145.615   3
  -1   2   0 16238.8 264.363   3
  -1  -2   0 16047.5 246.524   4
   1   2   0 16537.4 288.720   1
   1  -2   0 16432.8 278.371   4
   1  -2   0 16879.3 297.919   6
  -1   2   0 16660.1 296.670   1
  -1  -2   0 15879.8 262.677   5
   1  -2   0 16495.2 268.925   3
   1   2   0 16651.0 267.764   5
   1   2   0 16213.0 251.097   4
  -1   2   0 16654.6 298.637   5
  -1  -2   0 16475.7 148.773   3
  -1  -2  -1 16078.9 261.518   6
  -1  -2  -1 17127.1 290.172   2
   1  -2   1 17306.8 310.536   6
  -1  -2  -1 16833.5 300.319   5
   1   2   1 16513.8 286.167   2
  -1   2  -1 16831.0 305.718   3
  -1  -2  -1 16906.5 202.397   4
   1  -2   1 16835.9 316.707   4
   1  -2   2 21282.5 391.145   4
   1   2   2 21693.8 306.139   6
  -1  -2  -2 21352.9 215.755   3
  -1   2  -2 20449.4 378.525   3
  -1  -2  -2 21516.0 324.834   2
   1   2   2 20823.7 318.806   2
  -1  -2  -2 21121.9 289.662   6
   1   2   2 21517.1 217.653   3
  -1  -2  -3 31155.5 359.457   3
  -1  -2  -3 30934.8 395.660   2
   1   2   3 30060.8 392.353   2
   1   2   3 31130.6 359.945   3
   1   2   3 30631.0 368.268   6
  -1  -2  -3 30686.3 503.082   7
   1  -2   3 29969.9 509.407   4
  -1   2  -3 30321.7 521.562   3
   1   2   4 18.7580 21.6707   3
   1  -2   4 10.6838 32.3555   4
   1   2   4 9.22426 18.6004   2
  -1   2  -4 29.9370 35.3518   3
  -1  -2  -4 31.2483 21.1239   2
  -1  -2  -4 15.3636 20.5048   3
   1   2   4 10.0089 19.4055   6
   1  -2   5 7279.56 292.335   4
  -1  -2  -5 7825.12 301.445   7
   1   2   5 7327.84 215.791   2
  -1   2  -5 7225.32 310.443   3
   1   2   5 7834.07 215.359   6
  -1  -2  -5 7692.85 256.930   3
   1   2   6 11918.2 288.260   6
   1  -2   6 11342.4 390.552   4
  -1   2  -6 11123.3 416.364   3
  -1  -2  -6 11328.0 350.081   3
   1   2   6 11916.6 286.842   2
  -1  -2  -6 12035.8 419.963   7
  -1   2  -7 272.563 80.2265   3
  -1  -2  -7 317.510 72.1436   3
   1  -2   7 310.771 79.5315   4
   1   2   7 402.255 61.6590   6
  -1  -2  -7 131.020 82.1122   7
   1  -2   8 2488.22 207.133   4
  -1   2  -8 2445.69 233.247   3
  -1  -2  -8 2589.20 206.161   3
   1  -2   9 1211.57 157.900   4
   1  -2   9 1347.80 160.073   2
  -1  -2  -9 1320.35 163.955   3
  -1   2  -9 1193.22 183.246   3
  -1  -3  10 917.521 149.650   4
   1  -3  -9 766.172 124.738   3
   1   3  -9 716.809 137.926   3
  -1  -3   9 639.460 123.034   4
  -1  -3   8 1765.79 187.333   4
   1  -3  -8 938.982 156.103   7
   1   3  -8 1646.47 188.691   3
   1  -3  -8 1497.14 155.181   3
   1   3  -7 8715.99 397.275   3
  -1  -3   7 8510.85 382.054   4
   1  -3  -7 8823.65 338.878   7
   1  -3  -7 8884.01 337.137   3
   1  -3  -6 36008.6 614.599   7
   1   3  -6 36287.1 420.265   1
   1   3  -6 34967.5 731.502   3
  -1  -3   6 35010.8 725.866   4
   1  -3  -6 34784.5 607.694   3
  -1   3   6 33993.2 632.665   6
   1   3  -5 894.106 112.216   3
  -1  -3   5 856.595 111.673   4
  -1   3   5 756.173 93.3736   6
   1  -3  -5 777.397 86.6593   3
   1   3  -5 915.481 69.7371   1
  -1   3   5 814.857 42.4989   4
  -1   3   5 763.501 40.2090   4
   1  -3  -5 852.524 93.7217   7
   1  -3  -4 37417.4 544.187   7
  -1   3   4 36145.0 584.927   6
  -1   3   4 38090.4 324.952   4
   1   3  -4 36940.3 448.074   1
  -1  -3   4 37259.0 652.510   4
  -1   3   4 36105.1 593.230   1
   1   3  -4 36465.3 619.899   3
   1  -3  -4 38264.9 321.593   2
   1  -3  -4 36757.3 509.685   3
  -1   3   3 192.099 54.4473   1
  -1  -3   3 125.295 49.8164   4
   1   3  -3 94.0422 30.3633   1
   1  -3  -3 121.199 25.1099   2
   1   3  -3 172.588 46.7042   3
  -1   3   3 128.513 24.0873   4
  -1   3   3 130.607 47.7617   6
   1   3  -2 13696.1 293.915   3
   1   3  -2 14356.5 323.286   5
  -1  -3   2 14003.6 298.714   1
   1  -3  -2 12901.8 251.958   4
  -1  -3   2 14224.5 343.099   4
   1   3  -2 13804.3 290.771   1
  -1  -3   2 14372.5 300.158   3
  -1   3   2 14026.0 343.950   1
  -1   3   2 13777.9 339.478   6
  -1   3   2 13544.3 248.934   4
   1  -3  -1 694.724 62.2895   3
   1   3  -1 696.193 73.0208   1
   1  -3  -1 625.968 62.7186   4
  -1   3   1 734.779 68.0253   4
  -1  -3   1 686.932 69.3360   1
  -1  -3   1 735.066 78.6589   5
   1   3  -1 647.159 71.6388   4
  -1  -3   1 722.653 56.5859   3
   1   3  -1 734.814 74.3485   5
  -1  -3   1 739.930 77.0547   4
   1   3  -1 674.410 56.7315   3
  -1   3   1 642.917 78.4047   1
   1  -3   0 39824.8 517.466   4
  -1   3   0 39945.9 553.702   1
  -1  -3   0 39770.1 467.731   4
  -1   3   0 39680.5 469.058   3
  -1  -3   0 41288.9 554.243   2
  -1   3   0 40717.9 527.104   4
  -1  -3   0 39956.4 295.725   3
   1   3   0 41256.7 527.996   5
   1   3   0 40276.4 545.237   1
  -1  -3   0 39323.2 517.113   5
   1   3   0 40276.7 292.123   3
   1  -3   0 40355.4 474.565   3
  -1  -3   0 41557.6 542.531   6
   1   3   0 41204.0 474.267   4
  -1  -3  -1 51729.6 631.608   5
  -1   3  -1 50828.7 588.452   3
  -1  -3  -1 53662.9 588.126   6
  -1  -3  -1 52517.5 457.939   4
   1   3   1 52058.7 656.375   1
   1  -3   1 53748.4 605.090   3
   1  -3   1 53148.7 644.176   4
  -1   3  -1 51796.4 636.293   1
  -1  -3  -1 54343.9 611.507   2
   1   3   1 51724.9 465.851   4
  -1   3  -2 28562.1 491.545   3
  -1  -3  -2 28858.2 506.383   5
  -1   3  -2 28580.5 474.219   1
  -1  -3  -2 31094.7 443.573   6
  -1  -3  -2 29412.1 266.176   4
  -1  -3  -2 29825.3 442.272   2
   1  -3   2 29581.6 521.041   4
   1   3   3 31014.7 465.234   6
   1   3   3 30284.5 446.283   2
  -1   3  -3 30132.9 551.824   3
   1  -3   3 29477.2 562.699   4
  -1   3  -3 30052.5 497.860   1
  -1  -3  -3 30522.3 442.177   2
  -1  -3  -3 30350.4 303.093   3
  -1  -3  -3 30082.0 555.432   7
   1  -3   4 3511.05 208.887   4
   1   3   4 3638.01 159.990   6
  -1  -3  -4 3534.89 200.318   7
  -1  -3  -4 3603.39 137.722   3
  -1   3  -4 3277.78 203.687   3
   1   3   4 3712.83 156.623   2
  -1  -3  -4 3671.90 153.219   2
  -1  -3  -5 4905.72 180.047   2
  -1   3  -5 5254.81 275.286   3
  -1  -3  -5 5124.26 195.694   3
  -1  -3  -5 5028.95 257.904   7
   1   3   5 5136.78 201.612   6
   1   3   5 5187.12 186.539   2
   1  -3   5 4798.76 260.160   4
  -1  -3  -6 772.937 120.961   7
  -1  -3  -6 527.472 75.7178   3
  -1   3  -6 528.406 103.163   3
   1   3   6 481.299 68.9984   6
   1   3   6 497.326 60.1344   2
   1  -3   6 466.416 97.6991   4
   1  -3   7 14741.0 508.153   4
  -1  -3  -7 15600.1 520.841   7
  -1  -3  -7 15135.5 427.473   3
  -1   3  -7 14456.3 538.361   3
   1  -3   8 48.2135 60.0468   4
  -1   3  -8-73.4007 65.4871   3
  -1  -3  -8-125.111 109.084   7
   1  -3   9 4845.45 329.257   4
  -1   3  -9 4997.42 367.122   3
   1  -3  10 111.783 71.9485   4
   1   4  -9 395.973 112.016   3
  -1  -4   9 376.601 109.418   4
   1   4  -8 4039.18 307.637   3
  -1   4   8 4264.16 259.154   6
   1  -4  -8 3891.78 254.476   7
  -1  -4   8 3778.04 290.312   4
  -1  -4   7 40476.7 890.560   4
   1   4  -7 39444.5 881.251   3
   1  -4  -7 41291.9 750.180   7
  -1   4   7 39702.0 764.439   6
   1  -4  -7 41860.0 711.880   3
   1  -4  -6 16069.2 402.095   3
  -1  -4   6 15626.4 525.200   4
   1   4  -6 14895.9 501.663   3
  -1   4   6 15509.0 457.874   6
   1   4  -6 16151.3 339.889   1
   1  -4  -6 15644.4 439.869   7
   1  -4  -5 43986.3 609.616   3
   1  -4  -5 42691.5 813.310   5
  -1  -4   5 44425.0 828.942   4
  -1   4   5 43344.5 763.300   1
   1   4  -5 44962.1 581.515   1
   1  -4  -5 44666.9 703.415   7
   1   4  -5 43553.2 787.159   3
  -1   4   5 42357.9 730.861   6
   1  -4  -4 63.1773 24.9368   2
   1   4  -4 94.0711 48.9764   3
  -1  -4   4 33.3443 45.3396   4
  -1   4   4 49.7187 44.2037   1
   1  -4  -4 127.432 36.9038   3
   1  -4  -4 37.8041 43.6151   5
   1   4  -4 47.0519 29.5269   1
  -1   4   4 66.1098 19.4651   4
  -1   4   4 114.269 45.5149   6
   1  -4  -3 11206.3 271.367   2
  -1   4   3 11256.9 235.466   4
  -1   4   3 11159.7 349.378   6
  -1   4   3 11086.0 362.266   1
   1   4  -3 11665.2 333.066   3
  -1  -4   3 11350.8 369.044   4
   1  -4  -3 10130.4 355.292   5
   1   4  -3 11392.7 307.696   1
  -1   4   2 1699.00 104.712   4
   1  -4  -2 1529.91 99.1210   4
  -1   4   2 1801.78 143.976   1
  -1   4   2 1736.21 140.419   6
   1  -4  -2 1707.31 99.9274   3
   1   4  -2 1640.09 123.105   1
   1   4  -2 1646.10 111.751   3
  -1  -4   2 1676.53 137.550   4
   1   4  -1 7782.50 272.157   1
  -1   4   1 7984.65 243.335   4
   1  -4  -1 8015.91 221.238   3
   1  -4  -1 7722.22 238.474   4
  -1  -4   1 7932.12 206.344   3
  -1   4   1 8721.72 304.551   1
   1   4  -1 7887.63 204.363   3
  -1  -4   1 8195.14 279.024   5
  -1  -4   1 7636.34 263.019   4
   1   4   0 7673.38 241.343   4
  -1  -4   0 7668.06 154.533   3
  -1  -4   0 7726.94 241.164   4
   1  -4   0 7660.38 232.056   3
   1  -4   0 7298.08 253.169   4
  -1   4   0 7504.59 277.921   1
   1   4   0 7680.79 276.533   1
  -1  -4   0 7447.59 266.798   5
  -1   4   0 7531.04 226.873   3
   1   4   0 7577.80 152.858   3
  -1  -4  -1 13624.4 286.580   4
  -1  -4  -1 13857.6 375.861   5
   1   4   1 13503.6 385.664   1
  -1   4  -1 13866.6 337.320   3
   1   4   1 13958.6 287.683   4
  -1   4  -1 14215.5 378.617   1
   1  -4   1 13723.1 371.343   4
   1   4   2 3398.84 120.485   4
  -1  -4  -2 3429.16 195.756   5
   1  -4   2 3484.74 200.452   4
  -1  -4  -2 3512.43 121.065   4
  -1   4  -2 3465.15 190.959   1
  -1   4  -2 3290.21 183.124   3
  -1   4  -3 16850.3 419.631   1
   1  -4   3 17575.6 476.897   4
  -1  -4  -3 17190.5 465.493   5
  -1   4  -3 16690.5 442.710   3
  -1   4  -4 516.543 90.5580   3
   1  -4   4 528.855 94.2708   4
  -1  -4  -4 632.557 95.4233   7
  -1  -4  -4 507.896 45.2501   3
  -1   4  -4 564.246 82.5278   1
   1   4   4 444.474 67.8195   6
  -1   4  -5 3805.75 252.646   3
  -1  -4  -5 3991.54 155.812   3
  -1  -4  -5 3885.77 247.187   7
  -1   4  -5 4204.95 216.336   1
   1   4   5 4124.82 206.986   6
   1  -4   5 3814.62 252.289   4
   1  -4   6 5699.02 324.924   4
  -1   4  -6 5690.18 329.538   3
  -1  -4  -6 6262.31 325.228   7
   1   4   6 6227.25 257.708   6
  -1   4  -6 6201.79 267.442   1
  -1   4  -7 511.614 109.679   3
  -1  -4  -7 636.890 116.458   7
   1  -4   7 645.940 122.426   4
  -1  -4  -8 1269.29 170.077   7
   1  -4   8 1026.19 160.688   4
  -1   4  -8 1081.89 172.026   3
   1  -4   9 1532.95 201.231   4
  -1  -4  -9 1437.00 226.295   7
  -1   5   8 129.520 72.1017   6
   1   5  -8 155.276 82.1496   3
  -1  -5   8 188.979 92.3501   4
   1  -5  -8 108.891 78.7895   5
   1  -5  -7 20008.2 564.558   7
  -1  -5   7 19576.1 665.856   4
  -1   5   7 20833.2 598.504   6
   1   5  -7 20148.5 654.547   3
   1  -5  -7 20183.4 671.344   5
  -1  -5   6 6029.90 352.966   4
   1  -5  -6 5826.01 344.385   5
  -1   5   6 5937.55 307.496   6
   1  -5  -6 5686.65 289.421   7
   1   5  -6 5692.12 327.590   3
   1  -5  -5 1528.94 170.061   5
  -1  -5   5 1466.35 168.981   4
  -1   5   5 1517.90 161.291   1
   1  -5  -5 1497.99 111.368   3
   1   5  -5 1509.57 159.475   3
  -1   5   5 1429.90 147.275   6
   1   5  -5 1311.00 119.757   1
   1  -5  -5 1496.12 148.236   7
   1   5  -4 3522.23 216.199   3
  -1   5   4 3592.82 229.937   6
   1   5  -4 3398.08 192.656   1
   1  -5  -4 3380.97 239.498   5
  -1   5   4 3292.34 230.822   1
   1  -5  -4 3480.96 156.195   3
  -1  -5   4 3059.52 227.492   4
   1  -5  -3 13179.1 448.757   5
  -1  -5   3 13972.7 451.702   4
  -1   5   3 14100.2 459.047   1
   1  -5  -3 13861.1 301.684   3
   1   5  -3 14334.2 402.384   1
   1   5  -3 14413.8 396.091   3
  -1   5   3 14823.9 459.297   6
  -1   5   3 13503.4 296.361   4
   1  -5  -2 25803.2 452.861   4
  -1  -5   2 25577.7 572.755   4
   1  -5  -2 25457.6 601.301   5
   1  -5  -2 25229.9 408.925   3
  -1   5   2 24505.3 589.107   1
   1   5  -2 25646.4 544.796   1
  -1   5   2 24719.9 576.964   6
   1   5  -2 25806.6 469.718   3
   1   5  -1 600.180 92.6969   1
   1  -5  -1 606.801 81.2905   4
  -1  -5   1 574.542 62.4850   3
   1   5  -1 556.251 64.1547   3
  -1  -5   1 803.628 98.9141   4
  -1   5   1 686.928 103.467   1
   1  -5  -1 634.481 100.377   5
   1  -5  -1 468.522 62.1793   3
  -1  -5   0 74250.5 845.496   4
   1  -5   0 73474.3 998.685   5
   1  -5   0 73224.8 894.873   4
  -1   5   0 72324.2 969.730   1
   1   5   0 74508.2 540.599   3
  -1  -5   0 73761.9 950.667   5
   1   5   0 73396.5 975.009   1
  -1  -5   0 74256.4 546.139   3
   1   5   1 25.2399 39.0087   1
  -1  -5  -1-14.1977 40.6523   5
   1  -5   1 76.3639 44.1231   4
  -1  -5  -1 11.0948 28.6269   4
  -1   5  -1 44.7495 30.0999   3
  -1   5  -1 30.6442 50.5520   1
   1  -5   2 11106.2 391.685   4
   1   5   2 11446.1 412.419   1
  -1   5  -2 11469.0 383.050   1
   1   5   2 11118.0 260.370   4
  -1  -5  -2 11809.5 263.824   4
  -1  -5  -2 11528.7 399.816   5
  -1   5  -2 11310.8 355.123   3
  -1  -5  -3 426.174 90.4771   5
  -1  -5  -3 403.138 39.6280   4
   1  -5   3 428.674 88.0862   4
  -1   5  -3 448.387 88.3081   1
  -1   5  -3 331.300 75.4399   3
  -1  -5  -4 2148.60 192.502   5
  -1  -5  -4 1884.61 175.452   7
   1  -5   4 1721.64 175.126   4
  -1   5  -4 1937.71 159.948   1
  -1   5  -4 1824.42 171.628   3
  -1  -5  -5 25.6349 48.6435   5
  -1   5  -5 42.1513 59.2511   3
  -1   5  -5 106.461 52.0239   1
   1  -5   5 102.116 68.1439   4
  -1  -5  -5-4.11901 44.4659   7
   1  -5   6-17.2062 41.5225   4
  -1  -5  -6 111.626 72.7361   7
  -1   5  -6 8.51815 58.6688   3
  -1  -5  -6 46.6008 58.3962   5
   1   5   6 14.4966 30.7703   6
  -1   5  -6 53.0042 45.5561   1
   1  -5   7 1577.88 197.537   4
  -1  -5  -7 1711.53 199.578   7
  -1   5  -7 1627.56 200.994   3
  -1  -5  -8 2590.62 245.016   7
  -1   5  -8 2987.54 287.518   3
   1  -5   8 2672.41 268.181   4
  -1  -5  -9 4353.63 348.585   7
   1   6  -8 75.0442 88.5418   3
   1  -6  -7 18464.0 686.154   5
  -1  -6   7 18908.3 698.875   4
   1   6  -7 18467.0 655.521   3
  -1   6   7 18000.4 602.160   6
   1  -6  -7 18407.4 584.489   7
  -1  -6   6 3662.13 295.181   4
   1   6  -6 3686.25 276.782   3
   1  -6  -6 3762.40 297.402   5
  -1   6   6 3809.00 272.926   6
   1  -6  -6 3795.34 257.940   7
   1  -6  -5 5137.76 334.742   5
  -1  -6   5 5210.70 334.969   4
   1   6  -5 5658.75 313.266   3
   1   6  -5 5267.55 264.881   1
  -1   6   5 5346.52 320.109   6
   1  -6  -5 5349.43 303.194   7
  -1   6   5 5249.58 326.152   1
   1   6  -4 5514.09 276.305   1
  -1   6   4 5089.82 300.935   6
  -1  -6   4 5280.27 320.620   4
   1  -6  -4 5066.35 316.052   5
   1   6  -4 5494.98 284.777   3
  -1   6   4 5163.98 314.031   1
   1   6  -3 4284.67 247.274   1
  -1  -6   3 4068.36 266.813   4
  -1   6   3 4019.18 262.055   6
  -1   6   3 4076.13 274.394   1
   1  -6  -3 3983.01 274.596   5
   1   6  -3 4109.19 225.338   3
   1  -6  -2 3044.70 232.501   5
   1   6  -2 2873.55 207.913   1
  -1  -6   2 2870.52 214.223   4
  -1   6   2 2698.45 220.016   1
   1  -6  -2 2803.60 169.312   4
   1   6  -2 2850.94 168.681   3
   1   6  -1 2998.26 216.309   1
   1  -6  -1 2660.55 213.320   5
   1  -6  -1 2900.58 182.386   4
  -1   6   1 2649.58 216.554   1
  -1  -6   1 2806.76 196.805   4
   1   6  -1 2788.83 142.572   3
   1  -6   0 11627.8 391.105   4
  -1  -6   0 11536.4 423.299   5
  -1   6   0 11602.4 434.845   1
   1   6   0 11303.7 425.119   1
  -1  -6   0 11717.2 373.308   4
  -1  -6  -1 16007.8 401.187   4
   1  -6   1 15259.3 479.137   4
  -1  -6  -1 16016.3 505.873   5
  -1   6  -1 15353.6 497.443   1
  -1   6  -1 16402.3 427.650   3
   1   6   1 15232.9 510.720   1
   1  -6   2 3175.41 231.906   4
  -1   6  -2 3291.65 209.940   3
  -1  -6  -2 2949.65 224.076   5
   1   6   2 3213.86 241.478   1
  -1   6  -2 3177.63 228.241   1
  -1  -6  -2 3294.57 162.750   4
   1  -6   3 974.411 142.671   4
  -1   6  -3 929.768 121.528   3
  -1   6  -3 1006.06 131.626   1
  -1  -6  -3 1010.46 141.116   5
  -1   6  -4 211.926 59.8791   1
   1  -6   4 244.317 92.2063   4
  -1  -6  -4 238.804 84.0043   5
  -1   6  -4 85.3987 65.7801   3
  -1  -6  -4 180.714 67.9430   7
  -1  -6  -5 199.555 72.3434   7
  -1   6  -5 181.396 72.5379   3
   1  -6   5 213.738 90.3240   4
  -1  -6  -5 116.862 64.6182   5
  -1   6  -5 217.120 74.3758   1
  -1  -6  -6 30.8727 62.9653   5
  -1   6  -6 64.2848 70.0917   3
   1  -6   6 30.1330 54.5143   4
  -1  -6  -6 61.2289 65.8209   7
  -1  -6  -7 3064.62 268.965   7
  -1   6  -7 3427.51 300.436   3
   1  -6   7 3108.90 289.057   4
  -1  -6  -7 3338.38 296.374   5
  -1  -6  -8 495.007 124.709   7
  -1   7   7 7833.56 424.033   6
   1   7  -7 7651.80 437.263   3
   1   7  -6 5923.52 358.486   3
  -1  -7   6 6151.43 408.094   4
   1  -7  -6 5819.37 347.953   7
  -1   7   6 5900.64 362.180   6
   1  -7  -6 5628.42 389.699   5
   1  -7  -5 245.447 92.7083   5
   1   7  -5 287.157 86.7976   3
  -1  -7   5 313.535 99.9571   4
  -1   7   5 309.083 99.6760   1
   1  -7  -4 3063.81 270.300   5
   1   7  -4 2847.22 216.487   3
  -1  -7   4 2829.11 254.768   4
   1   7  -4 2958.91 225.408   1
  -1   7   4 2615.02 249.237   1
   1  -7  -3 2520.75 241.300   5
  -1  -7   3 2297.69 218.802   4
  -1   7   3 2352.29 229.879   1
   1   7  -3 2569.02 216.493   1
   1  -7  -2 7108.14 391.844   5
  -1   7   2 7425.91 396.826   1
  -1  -7   2 7423.35 369.446   4
   1   7  -2 7295.01 366.146   1
   1  -7  -1 70.3384 70.0960   5
   1   7  -1-3.45120 51.2978   1
  -1   7   1-6.05488 41.6416   1
  -1  -7   1 35.1874 50.1943   4
   1  -7  -1 13.7232 45.8444   4
  -1  -7   0 23067.3 663.590   5
  -1   7   0 22604.4 669.857   1
  -1  -7   0 22394.6 560.877   4
   1  -7   0 22337.7 592.495   4
   1   7   0 22162.2 656.966   1
  -1  -7  -1 416.198 107.464   5
  -1   7  -1 308.202 84.2231   1
   1  -7   1 476.677 103.231   4
  -1  -7  -1 367.468 71.5005   4
   1   7   1 343.180 91.4916   1
  -1  -7  -2 5799.29 343.487   5
  -1   7  -2 5797.83 334.420   1
  -1   7  -2 6098.46 302.904   3
   1  -7   2 6203.25 349.485   4
  -1  -7  -3 886.322 144.217   5
  -1   7  -3 872.809 126.492   3
  -1   7  -3 923.338 137.721   1
   1  -7   3 790.642 138.182   4
  -1   7  -4-7.21888 46.2216   3
  -1   7  -4 30.4673 47.9165   1
   1  -7   4 1.63570 55.3792   4
  -1  -7  -4-7.64475 52.2619   5
   1  -7   5 65.3712 64.3266   4
  -1   7  -5 125.938 68.9598   1
  -1  -7  -5 179.208 87.6080   5
  -1  -7  -5 173.040 76.3778   7
  -1   7  -5 152.463 65.4050   3
  -1  -7  -6 296.818 99.5972   7
  -1   7  -6 408.332 112.234   3
  -1   8   4 339.288 110.872   1
   1   8  -4 317.153 92.7041   1
  -1  -8   4 350.932 115.466   4
  -1  -8   3 2524.77 245.197   4
   1   8  -3 2425.25 233.505   1
  -1   8   3 2492.20 260.228   1
   1  -8  -3 2412.30 253.055   5
   1   8  -2 287.521 97.2531   1
  -1   8   2 483.359 125.499   1
  -1  -8   2 267.594 91.9411   4
   1  -8  -2 439.318 112.392   5
  -1   8   1 815.284 150.441   1
   1   8  -1 485.445 115.272   1
  -1  -8   1 470.097 105.758   4
  -1   8   0 3244.46 281.683   1
   1  -8   0 3193.57 246.449   4
   1   8   0 3232.11 279.727   1
  -1   8  -1 3104.58 273.995   1
   1  -8   1 2931.44 250.307   4
   1   8   1 3103.43 276.065   1
  -1  -8  -1 2886.86 263.660   5
  -1   8  -2 217.463 88.9056   1
  -1  -8  -2 207.709 94.3444   5
   1  -8   2 195.144 84.3283   4
   1  -8   3 4105.79 324.543   4
  -1   8  -3 4448.47 319.933   1
  -1  -8  -3 4484.12 342.290   5
  -1   8  -4 68.8015 64.4621   1
   1  -8   4 169.339 84.9150   4
  -1   8  -5 2496.43 248.367   3
  -1  -9   2 1019.20 160.360   4
   1  -9   1 2087.34 226.764   4
   1  -9   2 4415.45 338.126   4
   2   0 -10 6120.12 384.357   3
   2   0  -9 366.536 96.2028   3
  -2   0   9 427.945 85.9191   4
   2   0  -8 17.3803 44.7955   3
  -2   0   8 59.4123 33.7240   4
   2   0  -7 266.455 73.5919   3
  -2   0   7 366.930 73.5408   4
  -2   0   6 3504.38 129.952   2
   2   0  -6 3509.51 210.543   3
  -2   0   6 3641.85 185.877   4
  -2   0   6 3539.13 161.963   7
   2   0  -5 28122.8 542.436   3
  -2   0   5 29127.2 484.221   4
  -2   0   5 29491.5 407.228   7
  -2   0   5 29274.6 348.430   2
   2   0  -4 126299. 1025.84   3
  -2   0   4 129885. 688.259   2
  -2   0   3 228282. 1156.47   4
   2   0  -3 228310. 1239.45   3
  -2   0   3 229524. 869.700   2
  -2   0   3 225800. 641.502   1
  -2   0   2 134475. 671.172   2
   2   0  -2 134066. 671.313   2
   2   0  -1 2221.75 91.6250   2
  -2   0   1 2062.36 64.0152   7
  -2   0   0 36671.5 357.459   7
   2   0   0 36551.8 401.049   2
   2   0   0 36929.0 365.570   7
   2   0   1 12132.7 250.401   2
  -2   0  -1 12088.1 232.213   4
   2   0   1 12393.6 239.184   3
   2   0   1 12229.7 255.473   7
  -2   0  -1 11810.9 125.949   6
  -2   0  -1 12033.4 236.293   3
  -2   0  -2 1564.92 100.376   3
   2   0   2 1774.70 115.197   7
  -2   0  -2 1738.40 97.1196   4
   2   0   2 1594.38 101.139   2
   2   0   2 1752.59 96.6552   4
   2   0   2 1558.52 99.2504   3
   2   0   3 2086.19 112.705   4
  -2   0  -3 2206.34 115.163   4
  -2   0  -3 2009.17 126.062   3
   2   0   3 1788.53 118.358   2
  -2   0  -4 7587.32 268.351   3
  -2   0  -4 7846.85 237.645   4
   2   0   4 7324.06 251.137   2
   2   0   4 7807.71 232.345   4
   2   0   5 79.5360 40.4370   2
   2   0   5 243.382 50.4929   4
  -2   0  -5 255.580 61.7727   3
   2   0   6 27259.7 549.152   2
  -2   0  -6 27352.3 619.192   3
   2   0   6 27283.9 513.012   4
  -2   0  -7 63.6461 59.6878   3
   2   0   7 119.807 47.9783   4
  -2   0  -8 12915.7 499.934   3
   2   0   8 13196.5 427.633   2
  -2   0  -9 19289.9 659.743   3
  -2   0 -10 13328.0 582.124   3
   2  -1 -11 4661.17 355.499   3
  -2  -1  10 11927.3 469.074   4
   2   1 -10 12310.9 551.832   3
   2  -1 -10 11953.2 524.294   3
   2   1  -9 8538.05 430.894   3
   2  -1  -9 8601.66 415.053   3
  -2  -1   9 8433.23 372.576   4
   2  -1  -8 9284.35 398.729   3
   2   1  -8 9151.32 409.716   3
  -2  -1   8 9012.44 362.641   4
  -2   1   8 9357.11 311.127   4
   2  -1  -7 5023.81 269.744   3
  -2   1   7 5376.22 221.533   4
   2   1  -7 5228.73 287.054   3
  -2  -1   7 5150.85 258.983   4
   2  -1  -6 5071.08 164.870   1
  -2  -1   6 5237.28 241.610   4
  -2   1   6 5240.96 204.584   4
   2   1  -6 5443.62 271.241   3
   2  -1  -6 5311.93 252.584   3
  -2   1   6 5183.82 190.020   7
  -2   1   5 3999.04 143.364   7
   2  -1  -5 4117.27 142.273   1
  -2  -1   5 4012.19 198.482   4
  -2   1   5 4184.42 169.360   4
  -2  -1   5 4100.37 169.256   2
   2  -1  -5 4297.85 208.984   3
   2   1  -5 4237.60 216.135   3
   2   1  -4 81006.8 845.067   3
  -2  -1   4 82699.9 709.532   2
  -2   1   4 80423.5 597.868   1
  -2  -1   4 81346.0 821.346   4
  -2   1   4 79500.9 685.586   4
   2  -1  -4 83540.6 602.980   1
   2  -1  -4 80489.1 817.083   3
   2  -1  -3 146.467 18.6645   2
   2  -1  -3 115.855 16.7634   7
  -2   1   3 267.822 32.2587   2
  -2   1   3 109.534 27.3739   1
  -2  -1   3 98.7543 30.9718   2
   2   1  -3 113.302 40.6421   3
  -2  -1   3 172.090 51.3412   4
   2  -1  -2 132726. 596.703   2
   2   1  -2 131052. 828.838   3
   2  -1  -2 126050. 726.578   5
  -2  -1   2 135706. 885.516   4
   2   1  -2 128545. 809.848   2
  -2  -1   2 132340. 823.343   2
  -2   1   2 131005. 738.057   1
  -2   1   1 87021.9 550.349   5
   2  -1  -1 88041.7 565.343   2
   2  -1  -1 84425.2 542.653   5
   2   1  -1 86690.9 658.009   2
   2  -1   0 35602.6 408.877   2
   2   1   0 33193.0 412.744   2
  -2   1   0 33051.6 356.230   6
   2  -1   0 33683.6 411.313   4
   2   1   1 47443.0 536.365   7
   2   1   1 45673.1 391.470   3
   2  -1   1 46890.0 513.585   4
   2  -1   1 43896.9 502.053   2
  -2   1  -1 44713.4 512.658   3
  -2   1  -1 47500.7 408.814   6
  -2  -1  -1 46662.0 394.035   3
   2   1   1 44961.8 498.411   2
   2  -1   1 46818.6 401.051   6
  -2  -1  -2 36315.5 472.638   2
  -2   1  -2 35511.2 483.689   4
   2  -1   2 30120.6 675.433   7
   2   1   2 36040.4 523.565   7
  -2  -1  -2 34520.3 366.165   4
  -2  -1  -2 34455.3 401.247   3
   2  -1   2 35471.3 353.461   6
   2  -1   2 34459.1 478.290   4
  -2   1  -2 35017.7 500.963   3
   2   1   2 34229.8 458.866   2
   2   1   2 35202.5 403.136   3
   2   1   3 69716.2 666.808   3
   2  -1   3 69515.5 734.781   4
  -2   1  -3 70396.7 784.335   3
  -2  -1  -3 72455.7 551.540   4
  -2  -1  -3 69550.5 656.020   3
  -2  -1  -3 70010.3 688.456   2
   2  -1   3 71948.4 543.730   6
   2   1   3 68859.6 698.788   2
  -2  -1  -4 358.851 46.3422   4
   2   1   4 411.024 48.6175   4
  -2   1  -4 365.160 68.2514   3
  -2  -1  -4 349.219 60.2410   3
   2   1   4 377.823 58.1249   2
   2  -1   4 405.271 67.3889   4
   2   1   4 352.706 27.4471   6
  -2  -1  -4 407.810 72.3883   7
   2  -1   4 489.793 79.8803   2
   2  -1   5 4777.18 229.954   2
   2   1   5 4711.17 168.725   4
  -2  -1  -5 4356.77 299.134   7
  -2  -1  -5 4242.40 162.122   4
   2  -1   5 4528.43 216.318   4
  -2   1  -5 4388.47 238.118   3
   2   1   5 4423.18 199.830   2
  -2  -1  -5 4463.27 216.357   3
   2  -1   6 13454.9 399.008   4
   2  -1   6 13507.0 407.936   2
   2   1   6 13392.1 309.490   4
  -2   1  -6 12892.7 444.437   3
  -2  -1  -6 13488.6 415.177   3
   2   1   6 13542.3 369.932   2
   2  -1   7 10226.8 371.213   4
   2  -1   7 10313.5 383.756   2
   2   1   7 9845.74 334.615   2
  -2  -1  -7 10037.6 392.096   3
  -2   1  -7 9891.22 421.426   3
   2  -1   8 11156.9 415.871   2
  -2   1  -8 10924.3 478.254   3
   2  -1   8 10645.0 402.950   4
  -2  -1  -8 10877.2 440.820   3
  -2  -1  -9 3825.11 283.611   3
  -2   1  -9 3684.89 301.152   3
  -2  -1 -10 4660.61 338.870   3
   2  -2 -11 2856.46 272.169   3
  -2  -2  10 134.805 64.7541   4
   2   2 -10 125.635 87.7504   3
   2  -2 -10 141.981 74.0038   3
  -2  -2   9 7404.24 373.527   4
   2  -2  -9 7180.31 370.472   3
   2   2  -9 7530.34 411.125   3
   2  -2  -8 117.007 63.9027   3
   2   2  -8 64.2885 64.4383   3
  -2  -2   8 52.8858 53.4808   4
  -2   2   7 4486.81 182.248   4
   2  -2  -7 4393.36 247.219   3
  -2  -2   7 4566.06 263.912   4
   2   2  -7 4484.67 276.104   3
   2  -2  -6 35713.2 651.759   3
  -2  -2   6 36360.2 693.026   4
  -2   2   6 37008.0 490.861   4
   2   2  -6 36529.8 719.130   3
   2  -2  -6 38031.2 697.145   7
   2  -2  -5 4440.97 212.023   3
   2  -2  -5 4636.31 187.501   1
  -2   2   5 4391.87 160.320   4
  -2  -2   5 4306.16 222.251   4
   2  -2  -5 4624.59 163.656   7
   2   2  -5 4217.21 225.157   3
  -2   2   5 4477.83 184.596   1
   2   2  -4 135749. 1135.62   3
   2  -2  -4 137310. 1070.17   3
  -2  -2   4 139795. 1179.09   4
   2  -2  -4 139240. 988.628   1
   2  -2  -4 141272. 778.494   7
  -2   2   4 132509. 960.095   1
   2  -2  -3 29167.8 257.220   2
  -2  -2   3 30366.3 503.736   4
  -2   2   3 28628.9 433.676   1
   2  -2  -3 29011.4 468.527   5
   2  -2  -3 29480.8 441.346   1
  -2  -2   3 29252.1 304.623   1
   2   2  -3 28868.4 462.942   3
   2  -2  -2 7711.54 224.276   5
  -2  -2   2 7589.60 235.292   4
   2   2  -2 7628.93 178.535   5
  -2   2   2 7444.59 220.395   1
  -2  -2   2 7846.76 184.097   1
  -2  -2   2 7991.24 211.540   3
  -2   2   2 7576.43 203.063   4
   2   2  -2 7374.96 202.935   3
  -2   2   1 5141.24 176.642   5
  -2  -2   1 5360.36 138.499   5
   2   2  -1 5162.35 138.575   3
  -2   2   1 5380.80 178.063   4
   2  -2  -1 5015.48 176.354   5
   2   2  -1 5063.55 136.768   5
   2   2  -1 5105.64 191.131   2
   2   2  -1 5041.54 175.883   4
  -2   2   1 5333.29 187.391   1
   2  -2  -1 5033.03 174.669   3
  -2  -2   1 5358.45 176.568   4
  -2  -2   1 5459.81 168.864   1
  -2  -2   0 221.476 38.7798   5
  -2   2   0 206.031 46.2834   3
  -2  -2   0 229.871 40.9904   4
   2  -2   0 261.188 49.8489   6
   2   2   0 163.416 41.6967   2
  -2   2   0 262.873 50.0884   5
   2  -2   0 272.607 51.3174   4
  -2   2   0 209.786 49.8198   6
   2   2   1 23139.3 210.836   3
  -2   2  -1 22642.9 404.324   3
  -2  -2  -1 22867.9 301.079   4
  -2   2  -1 22392.9 363.050   6
   2   2   1 23037.8 393.455   2
   2  -2   1 22658.6 410.834   4
  -2  -2  -1 23951.7 399.645   2
   2  -2   1 23486.1 367.488   6
   2  -2   2 10593.0 301.470   4
  -2   2  -2 10589.5 301.158   3
   2   2   2 10515.0 270.345   2
  -2  -2  -2 10792.8 183.445   3
  -2  -2  -2 10924.5 275.407   2
  -2  -2  -2 10636.0 187.255   6
   2  -2   2 10982.6 257.213   6
   2   2   2 10598.9 181.274   3
   2  -2   3 7911.06 230.274   6
   2  -2   3 7582.63 274.277   4
  -2  -2  -3 7582.78 192.135   3
  -2   2  -3 7454.73 278.424   3
  -2  -2  -3 7621.55 145.275   4
   2   2   3 7544.25 193.273   3
   2   2   3 7039.72 230.136   2
  -2  -2  -3 7714.73 236.364   2
   2  -2   4 5053.29 238.393   4
  -2  -2  -4 5165.33 122.426   4
   2   2   4 5081.02 132.404   6
  -2  -2  -4 4947.64 243.348   7
   2   2   4 5067.12 185.160   3
   2   2   4 5345.16 208.666   2
  -2  -2  -4 5244.35 188.581   3
  -2   2  -4 5299.73 250.649   3
   2  -2   5 8641.49 332.697   4
  -2  -2  -5 8640.64 168.795   4
   2   2   5 8726.27 279.610   2
  -2  -2  -5 8742.00 282.702   3
  -2  -2  -5 8888.14 351.873   7
  -2   2  -5 9304.77 362.067   3
   2   2   5 8995.10 187.388   6
  -2  -2  -6 18814.1 573.892   7
   2  -2   6 18273.2 512.903   4
  -2  -2  -6 18185.8 455.828   3
   2   2   6 18627.5 425.629   2
  -2   2  -6 18193.9 547.532   3
  -2  -2  -7 1024.11 172.990   7
   2  -2   7 1598.72 164.327   4
   2  -2   7 1719.49 170.299   2
   2   2   7 1519.07 127.992   2
  -2   2  -7 1570.16 176.665   3
  -2  -2  -7 1508.36 150.494   3
   2  -2   8 2208.02 200.231   4
  -2   2  -8 1891.82 205.794   3
  -2  -2  -8 2247.59 195.699   3
   2  -2   8 2405.98 215.937   2
   2  -2   9 10509.0 449.081   2
   2  -2   9 9560.91 437.114   4
  -2   2  -9 9434.42 493.268   3
   2  -3 -10 11340.0 494.849   3
  -2  -3  10 11241.1 517.092   4
  -2  -3   9 1005.04 151.191   4
   2  -3  -9 1099.76 147.222   3
   2   3  -9 1222.89 178.966   3
  -2  -3   8 30269.5 759.231   4
   2   3  -8 29858.3 786.704   3
   2  -3  -8 30228.5 694.764   3
   2  -3  -7 14877.6 452.045   3
  -2  -3   7 14658.0 500.453   4
   2  -3  -7 16447.2 419.784   7
   2   3  -7 15138.1 519.755   3
  -2  -3   6 8177.96 355.445   4
  -2   3   6 8393.13 305.599   1
  -2   3   6 8561.36 210.203   4
   2  -3  -6 8105.16 308.040   3
   2  -3  -6 8366.97 265.869   7
   2   3  -6 8502.87 361.110   3
   2  -3  -5 38174.7 524.036   7
  -2   3   5 37969.4 452.356   4
   2  -3  -5 37377.4 614.274   3
   2   3  -5 37373.2 687.911   3
  -2   3   5 37681.8 625.915   1
  -2  -3   5 37031.8 707.364   4
   2   3  -5 39115.3 386.342   1
  -2   3   4 2502.38 158.110   1
  -2   3   4 2509.87 118.906   4
   2   3  -4 2674.92 169.217   3
  -2  -3   4 2611.40 180.222   4
   2  -3  -4 2542.66 80.9809   2
   2  -3  -4 2531.94 131.699   7
  -2   3   4 2336.77 162.300   6
   2  -3  -4 2679.79 176.302   5
   2   3  -4 2629.49 111.868   1
  -2   3   3 167.722 44.8912   1
  -2   3   3 168.891 37.0539   4
  -2  -3   3 142.680 33.1647   1
   2   3  -3 166.139 46.8146   3
  -2  -3   3 184.816 57.1235   4
   2   3  -3 169.814 37.4625   1
   2  -3  -3 137.303 49.0382   5
   2  -3  -2 7532.53 260.370   5
  -2  -3   2 7705.83 262.290   4
  -2  -3   2 7468.79 222.485   1
   2   3  -2 7671.97 216.928   3
  -2   3   2 7379.37 255.640   1
  -2  -3   2 7707.05 218.293   3
  -2   3   2 7843.43 223.722   4
   2   3  -2 7763.97 222.557   5
   2   3  -1 612.036 64.4133   5
   2   3  -1 718.300 54.9862   3
  -2  -3   1 555.059 57.3903   5
  -2   3   1 693.347 84.0908   1
   2  -3  -1 680.681 74.0431   4
  -2   3   1 622.718 71.9841   4
  -2  -3   1 774.102 78.1057   4
   2   3  -1 666.095 74.6905   4
   2  -3  -1 732.156 76.8068   3
   2  -3   0 58538.9 688.175   4
  -2  -3   0 58061.3 595.623   4
   2   3   0 59616.1 611.771   4
  -2   3   0 59207.0 719.712   1
  -2   3   0 58452.3 661.658   3
  -2  -3   0 57878.4 613.224   5
   2   3   0 60221.0 332.028   3
  -2  -3  -1 12639.7 311.116   5
   2  -3   1 13334.2 348.331   4
  -2   3  -1 13119.9 347.284   1
  -2  -3  -1 12947.6 251.595   4
  -2   3  -1 12922.0 334.828   3
   2   3   1 12715.6 327.616   2
  -2  -3  -1 13563.3 299.964   6
  -2  -3  -2 563.187 44.8755   4
   2   3   2 537.576 71.6127   2
   2  -3   2 654.552 89.6449   4
  -2  -3  -2 501.027 58.6230   6
  -2   3  -2 472.787 74.4705   3
  -2   3  -3 113331. 1147.50   3
   2   3   3 116333. 609.114   3
   2  -3   3 116754. 1174.46   4
  -2  -3  -3 110621. 453.885   4
   2   3   3 114265. 986.020   2
  -2  -3  -3 114266. 1165.57   7
  -2  -3  -3 117719. 600.433   3
  -2   3  -4 2372.65 183.822   3
   2   3   4 2176.37 108.706   3
  -2  -3  -4 2310.40 176.175   7
   2   3   4 2234.80 143.380   2
  -2  -3  -4 2285.06 110.833   3
   2  -3   4 2393.52 183.556   4
   2  -3   5 11364.3 415.920   4
  -2  -3  -5 12351.7 300.923   3
   2   3   5 11876.3 333.283   2
  -2  -3  -5 11645.2 419.982   7
   2   3   5 11564.4 261.420   6
  -2   3  -5 11461.3 425.838   3
   2  -3   6 28221.2 687.765   4
  -2  -3  -6 28457.1 530.795   3
   2   3   6 29291.3 534.971   2
  -2   3  -6 29285.1 726.920   3
  -2  -3  -6 28756.1 697.689   7
   2  -3   7 1671.52 182.495   4
  -2  -3  -7 1569.76 180.145   7
  -2   3  -7 1716.05 199.450   3
   2  -3   8 7047.37 380.680   4
  -2  -3  -8 6738.07 478.835   7
  -2   3  -8 6728.34 404.715   3
   2  -3   9 571.071 125.063   4
   2  -3   9 896.565 161.709   2
  -2  -4   9 4271.53 323.871   4
  -2   4   9 3772.75 272.488   6
   2   4  -9 4300.19 336.822   3
   2  -4  -8 4.58940 41.2167   3
   2   4  -8 81.7697 60.2116   3
  -2  -4   8-36.2602 51.1434   4
  -2   4   8-8.77907 42.2477   6
   2  -4  -7 1948.59 164.104   3
   2  -4  -7 1918.18 197.769   5
  -2  -4   7 2000.89 202.759   4
   2   4  -7 1751.27 188.162   3
   2  -4  -7 2047.86 157.838   7
  -2   4   7 1952.82 183.300   6
  -2  -4   6 17844.3 560.014   4
   2   4  -6 18071.3 544.437   3
   2  -4  -6 18828.5 439.401   7
  -2   4   6 17784.6 501.188   1
  -2   4   6 18703.2 527.059   6
   2  -4  -6 17938.7 459.204   3
   2  -4  -6 17835.0 551.587   5
  -2   4   5 3489.97 216.814   1
   2  -4  -5 3650.84 194.533   3
  -2  -4   5 3709.36 244.005   4
   2  -4  -5 3752.97 239.218   5
   2  -4  -5 3681.46 187.658   7
  -2   4   5 3538.78 223.066   6
   2   4  -5 3735.69 157.777   1
   2   4  -5 3796.73 230.999   3
  -2   4   4 62727.4 885.507   1
  -2   4   4 64024.8 627.569   4
   2   4  -4 65210.2 862.010   3
  -2  -4   4 64172.9 946.725   4
   2   4  -4 64997.4 697.467   1
   2  -4  -4 64638.9 566.805   2
   2  -4  -4 62639.6 932.569   5
  -2   4   4 62769.9 899.864   6
  -2   4   3 17558.7 349.889   4
  -2   4   3 17399.2 454.628   1
   2   4  -3 17874.0 382.982   1
  -2  -4   3 17135.5 458.143   4
   2   4  -3 17931.8 401.257   3
  -2   4   3 17217.7 453.991   6
   2  -4  -3 17099.3 459.653   5
   2  -4  -2 9068.07 267.676   4
   2  -4  -2 9042.89 324.938   5
   2   4  -2 9232.48 250.281   3
  -2  -4   2 9117.70 252.462   3
  -2  -4   2 9105.29 313.102   4
  -2   4   2 8851.95 321.092   1
   2   4  -2 9370.73 290.777   1
   2   4  -1 2746.10 110.845   3
  -2  -4   1 2468.12 147.052   5
   2  -4  -1 2682.25 159.520   4
  -2  -4   1 2783.37 114.769   3
  -2  -4   1 2730.10 158.808   4
  -2   4   1 2790.24 177.394   1
  -2  -4   0 2863.04 162.416   5
  -2  -4   0 2837.63 150.080   4
  -2   4   0 2812.90 180.731   1
   2  -4   0 2733.53 168.219   4
   2   4   0 2747.60 69.7381   3
  -2  -4  -1 3555.79 151.127   4
   2  -4   1 3415.84 197.419   4
  -2  -4  -1 3502.49 186.760   5
  -2   4  -1 3333.60 199.525   1
  -2   4  -1 3561.95 193.624   3
   2  -4   2 8226.23 324.949   4
  -2   4  -2 7992.56 305.032   1
  -2   4  -2 7856.95 302.138   3
  -2  -4  -2 8070.93 303.653   5
  -2  -4  -2 8443.60 194.908   4
   2   4   3 1836.62 140.297   2
  -2  -4  -3 1643.90 149.965   5
  -2  -4  -3 1491.46 57.5685   4
  -2  -4  -3 1624.49 153.473   7
  -2   4  -3 1836.74 158.734   3
  -2   4  -3 1673.26 145.535   1
   2  -4   3 1717.09 160.113   4
  -2   4  -4 2583.00 200.983   3
   2   4   4 2709.18 169.869   2
  -2  -4  -4 2371.94 194.058   7
  -2  -4  -4 2694.11 86.9657   3
   2  -4   4 2671.03 209.324   4
  -2   4  -4 2851.04 192.179   1
  -2   4  -5 5028.92 260.091   1
   2  -4   5 4609.51 289.433   4
  -2  -4  -5 4754.48 284.612   7
   2   4   5 4785.19 224.717   2
  -2   4  -5 4726.81 291.648   3
   2  -4   6 12869.9 501.284   4
  -2  -4  -6 12860.2 488.355   7
  -2   4  -6 12165.6 495.381   3
  -2   4  -7 148.933 73.1510   3
  -2  -4  -7 250.094 82.8400   7
   2  -4   7 261.311 92.4705   4
  -2   4  -8 2251.49 248.713   3
   2  -4   8 1943.99 220.331   4
  -2  -4  -8 2351.08 240.268   7
  -2  -4  -9 6385.82 543.010   7
  -2   5   8 4867.07 314.502   6
  -2  -5   8 5157.62 361.344   4
   2   5  -8 5016.59 345.965   3
   2  -5  -8 5269.12 359.209   5
   2  -5  -7 948.049 151.592   5
   2   5  -7 818.010 135.613   3
  -2  -5   7 877.055 143.120   4
  -2   5   7 761.653 121.406   6
   2  -5  -6 3487.32 266.729   5
   2  -5  -6 3599.98 203.502   3
  -2   5   6 3569.24 250.120   1
   2  -5  -6 3666.28 218.374   7
  -2   5   6 3677.95 257.358   6
   2   5  -6 3662.63 256.573   3
  -2  -5   6 3435.25 265.060   4
   2   5  -5 2852.95 166.308   1
   2  -5  -5 2399.80 213.210   5
   2  -5  -5 2844.04 172.162   3
  -2  -5   5 2675.48 219.607   4
   2   5  -5 2721.64 205.520   3
  -2   5   5 2823.04 215.753   6
   2  -5  -5 2912.64 190.373   7
  -2   5   5 2852.99 219.778   1
   2  -5  -4 21800.7 596.872   5
  -2   5   4 21959.5 584.581   1
  -2  -5   4 21637.6 591.689   4
  -2   5   4 21041.3 571.181   6
   2   5  -4 22067.3 479.202   1
   2   5  -4 21786.6 522.429   3
   2  -5  -3 3158.15 223.791   5
  -2   5   3 3193.37 223.497   1
  -2  -5   3 3479.72 230.577   4
   2   5  -3 3321.01 186.312   3
   2   5  -3 3130.06 186.494   1
  -2   5   3 3379.92 226.082   6
   2  -5  -2 12830.6 353.942   4
  -2  -5   2 12895.5 408.178   4
  -2   5   2 12786.2 431.537   1
  -2   5   2 13304.2 443.737   6
   2   5  -2 13212.0 318.844   3
   2   5  -2 12900.9 391.966   1
   2  -5  -2 12868.0 434.340   5
   2  -5  -1 20312.6 536.082   5
  -2  -5   1 20485.2 479.655   4
   2  -5  -1 19677.9 465.520   4
  -2  -5   1 20417.2 326.543   3
   2   5  -1 19772.4 501.386   1
  -2   5   1 20399.2 537.059   1
   2   5  -1 21072.7 324.421   3
  -2   5   1 20616.0 538.521   6
  -2  -5   1 19936.1 482.635   5
   2  -5   0 1244.15 125.878   4
  -2  -5   0 1279.26 114.933   4
  -2  -5   0 1220.18 120.377   5
  -2   5   0 1316.09 139.781   1
   2  -5   1 10783.1 384.477   4
  -2  -5  -1 11125.0 297.059   4
  -2   5  -1 10794.8 357.668   3
  -2  -5  -1 10775.4 370.776   5
  -2   5  -1 10615.2 386.932   1
  -2  -5  -2 7945.90 330.946   5
   2  -5   2 8063.96 347.187   4
  -2   5  -2 7965.72 324.370   3
  -2  -5  -2 8072.51 222.605   4
  -2   5  -2 7795.93 335.083   1
   2  -5   3 21193.7 594.084   4
  -2   5  -3 20920.9 554.299   1
  -2  -5  -3 21503.3 595.047   7
  -2   5  -3 21103.3 558.460   3
  -2  -5  -3 21103.7 568.905   5
  -2   5  -4 51.1329 49.7182   3
   2  -5   4 29.8281 54.9059   4
  -2  -5  -4 16.3630 31.8860   7
  -2   5  -4-16.3132 40.2272   1
  -2  -5  -4 23.6627 36.7783   5
   2  -5   5 2842.46 244.081   4
  -2  -5  -5 2355.14 216.035   7
  -2   5  -5 2576.17 230.199   3
  -2   5  -5 2608.40 206.694   1
  -2  -5  -5 2598.40 227.654   5
  -2  -5  -6 3823.46 292.620   5
  -2   5  -6 3728.89 290.783   3
   2  -5   6 3783.99 295.400   4
  -2   5  -6 3954.48 253.988   1
  -2  -5  -6 3816.98 282.884   7
   2  -5   7 6257.98 393.049   4
  -2  -5  -7 6115.65 374.387   7
  -2   5  -7 6012.16 390.816   3
  -2  -5  -8 4437.92 339.041   7
   2   6  -8 45.8363 58.4888   3
  -2   6   8-42.7266 54.1097   6
   2  -6  -7 474.332 123.092   5
   2   6  -7 308.945 97.5593   3
  -2  -6   7 505.574 125.652   4
  -2   6   7 304.796 91.9192   6
   2  -6  -6 2102.78 223.693   5
   2  -6  -6 1622.61 162.715   7
  -2  -6   6 1858.37 212.370   4
   2   6  -6 1684.83 185.297   3
  -2   6   6 2175.34 219.284   1
  -2   6   6 1867.72 197.344   6
  -2  -6   5 4282.20 302.111   4
   2   6  -5 4187.14 265.511   3
   2  -6  -5 3669.03 279.734   5
   2   6  -5 4219.39 229.993   1
  -2   6   5 4125.40 287.038   6
  -2   6   5 3874.83 281.864   1
   2  -6  -4 19863.5 624.281   5
  -2   6   4 19512.8 612.502   1
  -2  -6   4 19381.9 606.334   4
  -2   6   4 19667.6 607.928   6
   2   6  -4 20180.3 532.421   3
   2   6  -4 19958.1 514.185   1
  -2   6   3 24922.7 678.618   1
  -2  -6   3 25165.7 657.861   4
   2  -6  -3 24522.0 675.905   5
  -2   6   3 25439.1 677.451   6
   2   6  -3 25781.9 535.895   3
   2   6  -3 25867.7 602.189   1
   2  -6  -2 18388.7 573.542   5
   2  -6  -2 19236.7 477.409   4
  -2   6   2 18855.1 573.919   6
  -2   6   2 18602.3 578.057   1
   2   6  -2 20007.5 409.682   3
   2   6  -2 19329.0 535.306   1
  -2  -6   2 19368.6 543.011   4
   2  -6  -1 603.240 101.485   4
  -2  -6   1 620.480 94.7077   4
  -2   6   1 682.922 113.918   1
   2   6  -1 697.340 109.424   1
   2  -6  -1 808.096 127.025   5
  -2  -6   0 11675.6 416.739   5
  -2  -6   0 12122.4 378.464   4
  -2   6   0 11677.3 451.883   1
   2  -6   0 11686.6 409.420   4
   2  -6   1 2364.95 198.632   4
  -2  -6  -1 2204.66 151.917   4
  -2  -6  -1 2154.38 186.538   5
  -2   6  -1 2438.46 182.046   3
  -2   6  -1 2100.20 192.451   1
  -2  -6  -2 958.215 126.932   5
  -2   6  -2 993.335 134.860   1
   2  -6   2 763.945 120.121   4
  -2   6  -2 1023.94 135.428   3
  -2  -6  -3 202.257 75.8836   5
  -2   6  -3 116.691 59.7019   3
   2  -6   3 275.291 94.0614   4
  -2   6  -3 158.181 72.3741   1
  -2   6  -4-8.34188 41.9738   3
  -2  -6  -4 28.0048 57.7156   5
  -2  -6  -4 10.0617 33.7683   7
  -2   6  -4-13.8266 38.4885   1
   2  -6   4-6.71759 60.0500   4
  -2  -6  -5 31.4879 40.6820   7
  -2  -6  -5 14.4528 47.9267   5
  -2   6  -5-20.8775 54.5439   3
   2  -6   5 25.8840 52.4468   4
  -2   6  -5-1.68598 45.5694   1
  -2  -6  -6 11397.5 529.587   5
   2  -6   6 11997.4 553.179   4
  -2   6  -6 12030.5 470.748   1
  -2  -6  -6 11321.2 517.775   7
  -2   6  -6 11255.2 523.950   3
  -2  -6  -7 396.322 123.099   7
   2   7  -7 574.319 122.764   3
  -2   7   7 515.930 128.060   6
  -2  -7   6 1638.88 212.711   4
  -2   7   6 1734.77 215.476   1
   2  -7  -6 1447.62 201.289   5
   2   7  -6 1755.16 197.033   3
  -2   7   6 1499.27 196.179   6
   2  -7  -5 2332.92 240.149   5
   2   7  -5 2198.23 202.527   3
  -2  -7   5 2385.36 243.468   4
  -2   7   5 2087.99 225.019   6
  -2   7   5 2356.08 243.565   1
   2  -7  -4 7290.67 416.751   5
  -2  -7   4 7209.74 404.219   4
   2   7  -4 7555.72 355.390   1
  -2   7   4 7393.37 402.995   6
  -2   7   4 7251.00 408.952   1
  -2   7   3 1395.94 183.886   1
  -2  -7   3 1545.61 179.836   4
   2   7  -3 1441.31 163.075   1
   2  -7  -3 1277.71 176.765   5
   2  -7  -2 3441.99 276.296   5
   2  -7  -2 3245.64 216.998   4
  -2   7   2 3522.13 282.779   1
  -2  -7   2 3571.51 256.985   4
   2   7  -2 3583.39 255.897   1
   2  -7  -1 7072.64 328.675   4
  -2  -7   1 6919.97 336.202   4
  -2   7   1 6877.70 381.260   1
   2  -7   0 874.170 128.259   4
  -2  -7   0 729.839 108.046   4
  -2   7   0 642.065 125.155   1
  -2  -7   0 879.213 136.131   5
  -2  -7  -1 5718.01 332.147   5
  -2   7  -1 5503.24 338.586   1
   2  -7   1 5764.27 331.457   4
   2  -7   2 1865.86 199.326   4
  -2   7  -2 1665.92 191.941   1
  -2   7  -2 1786.22 181.706   3
  -2  -7  -2 1884.12 194.508   5
   2  -7   3 15582.6 589.415   4
  -2  -7  -3 15800.2 583.495   5
  -2   7  -3 15521.9 564.747   1
  -2   7  -3 15846.1 549.046   3
  -2   7  -4-33.4759 55.1520   1
   2  -7   4 13.2700 56.4955   4
  -2  -7  -4 33.1015 55.6731   7
  -2   7  -4 62.5658 63.7273   3
  -2  -7  -5 3226.13 291.752   5
   2  -7   5 2992.13 282.597   4
  -2   7  -5 3173.93 277.070   3
  -2   7  -5 2819.82 244.159   1
  -2  -7  -5 2886.37 270.195   7
  -2  -8   4 13082.4 577.557   4
  -2   8   3 1647.13 217.152   1
  -2  -8   3 1947.61 217.622   4
   2  -8  -3 1877.06 230.447   5
  -2   8   2 1404.53 195.876   1
  -2  -8   2 1483.56 181.384   4
   2  -8  -2 1574.49 205.356   5
  -2   8   1 576.594 127.165   1
   2  -8  -1 695.822 118.321   4
  -2  -8   1 587.327 112.921   4
   2  -8   0 1013.15 152.872   4
  -2   8   0 1085.11 171.731   1
  -2  -8  -1 920.795 151.936   5
   2  -8   1 767.643 138.462   4
  -2   8  -1 822.160 152.663   1
  -2  -8  -2 3494.32 296.558   5
  -2   8  -2 3479.33 293.423   1
   2  -8   2 3532.21 295.285   4
  -2   8  -3 705.522 138.410   1
   2  -8   3 701.965 147.730   4
  -2  -8  -3 669.035 139.328   5
  -2   8  -4 2088.06 232.998   1
  -2   8  -4 2074.22 226.509   3
   2  -9   1 2978.49 276.360   4
   3   0 -10 19917.0 692.858   3
  -3   0   9 17959.9 520.810   4
   3   0  -9 17078.3 600.058   3
   3   0  -8 504.975 99.8352   3
  -3   0   8 480.754 89.3493   4
   3   0  -7 7868.54 350.478   3
  -3   0   7 7524.56 302.116   4
   3   0  -6 12567.8 408.710   3
  -3   0   6 12858.7 369.954   4
  -3   0   6 12871.6 263.980   7
  -3   0   6 12792.3 258.240   2
  -3   0   5 2023.26 88.5336   7
   3   0  -5 1913.49 149.763   3
  -3   0   5 1918.40 100.140   2
  -3   0   5 1808.01 134.672   4
  -3   0   5 1800.56 59.6836   1
  -3   0   4 12923.9 189.231   1
   3   0  -4 12596.8 345.460   3
  -3   0   4 12177.9 323.750   4
  -3   0   4 12292.4 249.217   2
   3   0  -3 30850.6 396.667   2
  -3   0   3 31599.2 402.197   2
  -3   0   2 6553.05 119.714   7
   3   0  -2 6377.59 188.204   2
   3   0  -2 6205.77 106.640   5
  -3   0   2 6575.70 188.964   2
  -3   0   1 41216.2 262.213   5
   3   0  -1 41456.0 395.871   7
  -3   0   1 40347.6 383.199   7
   3   0  -1 40669.6 495.310   2
   3   0   0 23027.4 370.879   3
  -3   0   0 22064.5 343.329   7
   3   0   0 22267.9 384.473   2
   3   0   0 22646.6 350.860   7
  -3   0  -1 2053.85 118.708   4
   3   0   1 2024.21 127.074   2
  -3   0  -1 2162.60 131.109   7
  -3   0  -1 1904.77 113.637   3
   3   0   1 2039.00 117.367   3
   3   0   1 2142.65 127.496   7
   3   0   2 18591.5 396.207   2
  -3   0  -2 19582.1 369.944   4
  -3   0  -2 18883.3 378.672   3
   3   0   3 3977.49 175.324   4
   3   0   3 3814.78 192.421   2
  -3   0  -3 4145.97 196.748   3
   3   0   4 23.9280 28.5784   4
   3   0   4-74.6178 59.4582   2
  -3   0  -4-15.9411 32.1571   3
   3   0   5 12256.1 386.082   2
   3   0   5 12649.3 352.262   4
  -3   0  -5 12313.4 399.852   3
   3   0   6 24046.4 569.509   2
   3   0   6 23634.2 508.085   4
  -3   0  -6 22747.5 587.185   3
   3   0   7 36301.6 670.426   4
   3   0   7 36736.9 739.252   2
  -3   0  -7 35855.4 797.312   3
   3   0   8 14050.3 479.098   2
  -3   0  -8 13342.6 524.971   3
  -3   0  -9 1332.81 178.301   3
   3  -1 -11 160.662 82.1313   3
  -3  -1  10 7152.30 369.203   4
   3  -1 -10 6879.57 405.299   3
   3   1 -10 7348.00 429.037   3
   3   1  -9 7468.23 401.960   3
   3  -1  -9 6522.16 366.823   3
  -3  -1   9 6745.48 341.645   4
  -3  -1   8 1909.09 174.904   4
   3  -1  -8 1840.01 183.584   3
  -3   1   8 1886.85 153.081   4
   3   1  -8 1623.23 177.094   3
   3   1  -7 23859.4 617.400   3
  -3  -1   7 23305.1 564.561   4
  -3   1   7 22895.7 494.511   4
   3  -1  -7 22615.6 585.220   3
   3   1  -6 1552.24 148.027   3
   3  -1  -6 1506.02 143.737   3
  -3  -1   6 1548.11 141.561   4
  -3   1   6 1742.12 131.309   4
   3   1  -5 33820.9 627.349   3
  -3   1   5 33052.2 288.213   2
  -3   1   5 34981.2 414.390   1
   3  -1  -5 34138.3 615.479   3
  -3  -1   5 33638.9 597.740   4
  -3   1   5 33917.7 539.605   4
  -3  -1   5 34822.5 509.693   2
  -3  -1   4 84005.4 896.160   4
  -3   1   4 84796.1 528.746   2
   3  -1  -4 85746.4 529.886   2
  -3  -1   4 88450.7 787.502   2
   3   1  -4 84105.7 901.885   3
  -3   1   4 83895.1 648.340   1
  -3   1   3 65335.8 513.276   2
   3   1  -3 64972.6 720.201   3
  -3  -1   3 64012.8 736.413   4
   3   1  -3 65447.5 666.875   2
  -3  -1   3 65996.1 670.063   2
   3  -1  -3 65685.6 587.299   5
   3  -1  -3 67170.7 522.036   2
  -3   1   3 64119.1 586.346   1
  -3   1   2 41882.5 445.942   2
   3  -1  -2 42391.0 419.954   5
   3   1  -2 41738.6 529.337   2
   3  -1  -2 42856.1 459.680   2
   3  -1  -2 41672.9 265.865   7
  -3  -1   2 41588.4 534.617   2
   3  -1  -1 60935.9 602.944   2
  -3   1   1 60685.7 587.965   2
  -3  -1   1 60398.9 555.364   7
   3  -1  -1 65656.7 504.735   7
   3   1  -1 59464.0 638.896   2
  -3   1   1 60587.7 498.874   5
   3  -1   0 107048. 859.383   2
   3   1   0 107050. 888.513   2
   3  -1   0 112215. 827.106   7
   3   1   0 105911. 730.191   3
  -3  -1   0 103721. 809.659   7
  -3   1   0 106738. 727.209   6
   3  -1   1 47877.5 607.924   4
   3  -1   1 46698.3 609.449   2
   3   1   1 49011.3 512.322   3
  -3   1  -1 46170.7 602.826   3
   3   1   1 47406.1 608.662   2
  -3   1  -1 48937.9 454.632   6
   3   1   2 482.152 59.7174   3
  -3  -1  -2 238.037 42.0924   3
  -3   1  -2 308.433 61.3470   3
   3  -1   2 301.813 55.7859   4
  -3  -1  -2 321.767 48.1156   4
   3   1   2 273.365 53.0402   2
   3   1   3 37565.5 599.024   2
  -3  -1  -3 38620.8 491.193   4
   3  -1   3 36568.6 615.424   2
  -3   1  -3 37792.5 627.251   3
  -3  -1  -3 37622.2 533.035   3
   3  -1   3 38084.5 598.414   4
   3  -1   3 38393.5 384.520   6
  -3  -1  -4 33.2928 32.0642   3
  -3   1  -4 67.4927 44.3456   3
   3  -1   4 51.1651 20.5967   6
   3  -1   4 44.8282 33.3616   4
  -3  -1  -4 59.5717 29.6987   4
   3   1   4 44.7562 29.5802   2
   3  -1   4 247.545 85.3760   2
  -3  -1  -4 143.720 61.7051   7
   3  -1   5 3877.72 234.905   2
   3  -1   5 3535.63 206.883   4
  -3  -1  -5 3263.44 196.894   3
  -3   1  -5 3368.24 220.391   3
  -3  -1  -5 4002.15 342.824   7
   3   1   5 3344.54 200.451   2
   3  -1   6 3648.85 224.319   4
   3  -1   6 3550.04 232.993   2
  -3  -1  -6 3684.23 227.308   3
  -3   1  -6 3248.34 232.283   3
   3   1   6 3410.90 211.141   2
  -3   1  -7 36.6675 64.6762   3
  -3  -1  -7 29.7616 51.4587   3
   3  -1   7 88.3048 49.1141   4
   3   1   7 64.8161 50.6291   2
   3  -1   7-38.8035 69.1405   2
   3  -1   8 5557.90 317.177   2
   3  -1   8 6173.18 317.044   4
  -3   1  -8 6071.91 369.385   3
  -3  -1  -8 6211.42 343.795   3
  -3  -1  -9 957.458 148.894   3
  -3   1  -9 1001.85 165.314   3
   3  -2 -11 10404.8 521.776   3
  -3  -2  11 10440.3 496.130   4
   3  -2 -10 29448.3 817.997   3
  -3  -2  10 29638.3 796.976   4
   3   2 -10 29967.2 887.016   3
   3  -2  -9 10321.6 454.065   3
  -3  -2   9 10650.2 453.556   4
   3   2  -9 10417.8 486.017   3
   3  -2  -8 11004.7 435.608   3
  -3  -2   8 10948.2 439.835   4
  -3   2   8 11237.1 338.815   4
   3   2  -8 10776.4 460.818   3
   3   2  -7 34328.8 761.236   3
   3  -2  -7 33753.6 712.509   3
  -3  -2   7 34029.5 730.691   4
  -3   2   7 34529.9 568.415   4
   3   2  -6 4093.65 243.946   3
   3  -2  -6 4219.15 237.870   3
  -3  -2   6 4261.90 244.755   4
  -3   2   6 4204.74 191.354   4
  -3   2   6 4203.35 185.945   1
   3  -2  -5 3562.73 202.742   3
  -3   2   5 3374.72 161.393   1
  -3  -2   5 3360.72 204.648   4
   3  -2  -5 3345.90 132.522   7
   3   2  -5 3384.68 203.305   3
   3   2  -4 9530.22 309.659   3
  -3  -2   4 9571.38 323.576   4
   3  -2  -4 9562.86 153.718   7
  -3  -2   4 9639.60 165.135   1
   3  -2  -4 9232.36 285.244   5
  -3   2   4 9511.97 265.302   1
   3  -2  -4 9567.88 164.003   2
   3  -2  -3-2.93249 33.1602   5
   3   2  -3 4.44016 33.8375   3
  -3   2   3 5.44055 29.7879   1
  -3  -2   3 23.9339 35.7534   4
   3  -2  -3-21.8118 35.1405   2
  -3  -2   3 13.2063 19.1440   1
   3   2  -2 1895.88 75.4644   5
   3  -2  -2 1735.93 112.129   5
  -3   2   2 1896.25 121.709   4
   3   2  -2 1949.59 112.229   3
   3  -2  -2 2531.11 125.551   2
  -3   2   2 1787.17 121.638   1
  -3  -2   2 1867.33 128.113   4
   3   2  -2 1742.71 127.705   2
  -3   2   2 1921.55 115.735   5
  -3  -2   1 1764.42 73.6650   5
   3  -2  -1 1648.48 109.186   5
   3  -2  -1 1743.46 116.294   2
  -3  -2   1 2048.30 126.150   4
   3   2  -1 1494.35 115.313   2
  -3   2   1 1778.41 108.320   5
  -3   2   1 1644.99 115.804   6
   3  -2   0 16515.6 369.981   4
  -3   2   0 16872.7 345.340   5
   3   2   0 15846.8 369.461   2
  -3   2   0 15993.7 331.971   6
  -3  -2   0 16372.4 267.209   5
   3  -2   1 3762.39 186.855   4
  -3   2  -1 3472.67 179.905   3
   3   2   1 3655.71 183.287   2
   3   2   1 3622.15 120.502   3
   3  -2   1 3787.50 157.259   6
  -3   2  -1 3674.23 159.410   6
  -3   2  -2 165.426 61.8882   3
   3   2   2 143.157 29.7455   3
   3   2   2 149.205 47.6925   2
   3  -2   2 51.5244 40.3099   4
  -3  -2  -2 145.150 29.0630   3
   3  -2   2 135.444 36.2277   6
  -3  -2  -2 140.101 22.9696   6
  -3  -2  -3 53768.2 573.407   3
   3  -2   3 52940.7 772.802   4
  -3  -2  -3 53852.4 519.420   4
  -3   2  -3 51907.4 782.145   3
   3   2   3 51524.6 723.350   2
   3  -2   3 52762.3 592.786   6
   3   2   3 52700.6 573.533   3
   3  -2   4 8773.61 331.335   4
  -3  -2  -4 8654.89 210.399   4
   3  -2   4 8753.04 336.475   2
  -3   2  -4 8853.40 348.594   3
  -3  -2  -4 8676.55 351.108   7
  -3  -2  -4 8656.62 263.616   3
   3   2   4 8890.25 310.346   2
   3  -2   4 8332.88 242.649   6
  -3   2  -5 12314.5 440.283   3
   3  -2   5 12402.1 418.921   4
   3  -2   5 12961.1 431.269   2
  -3  -2  -5 12698.5 458.377   7
   3   2   5 12680.5 385.588   2
  -3  -2  -5 12513.1 353.136   3
   3  -2   6 46796.8 853.039   4
   3  -2   6 45445.9 849.303   2
  -3  -2  -6 48470.2 1014.37   7
  -3  -2  -6 46574.9 751.565   3
   3   2   6 46390.9 763.647   2
  -3   2  -6 46836.7 919.510   3
   3  -2   7 12880.9 473.032   4
   3  -2   7 13053.0 484.192   2
   3   2   7 13109.0 421.839   2
  -3  -2  -7 13622.2 443.759   3
  -3   2  -7 12659.5 517.046   3
  -3  -2  -7 10997.2 679.742   7
   3  -2   8 7471.65 381.726   4
   3  -2   8 7538.43 391.580   2
  -3   2  -8 7695.57 432.499   3
   3  -2   9 4.37756 85.5024   2
   3  -3 -11 34.9787 71.9136   3
   3  -3 -10 748.197 140.010   3
  -3  -3  10 644.441 133.846   4
   3  -3  -9 19865.5 626.641   3
  -3  -3   9 20802.2 672.005   4
   3   3  -9 21440.8 719.692   3
   3  -3  -8 6005.55 324.544   3
  -3  -3   8 5923.23 341.262   4
   3   3  -8 5671.03 347.867   3
   3   3  -7 30575.1 738.481   3
   3  -3  -7 29742.4 667.213   3
  -3  -3   7 29729.4 731.962   4
  -3   3   7 30946.1 503.523   4
  -3   3   7 30450.3 591.726   1
   3   3  -6 26881.5 640.191   3
  -3   3   6 26620.3 541.050   1
   3  -3  -6 26087.9 589.521   3
  -3  -3   6 26211.1 646.349   4
  -3   3   6 26984.1 467.940   4
   3  -3  -6 26116.8 614.707   5
   3  -3  -6 27858.2 414.170   7
   3  -3  -5 607.920 93.6174   3
  -3   3   5 623.031 85.5521   1
   3   3  -5 675.923 95.4548   3
  -3  -3   5 600.137 97.3960   4
   3  -3  -5 669.675 100.286   5
   3  -3  -5 619.741 60.7397   7
   3  -3  -4 56299.2 790.368   5
   3   3  -4 56932.8 780.245   3
   3  -3  -4 58370.8 473.490   2
  -3  -3   4 57282.0 846.831   4
  -3   3   4 56156.5 752.796   1
  -3  -3   4 58143.4 544.184   1
   3  -3  -3 1338.38 120.382   5
   3   3  -3 1404.81 112.381   3
   3  -3  -3 1539.40 93.2157   2
  -3  -3   3 1524.37 100.395   1
  -3  -3   3 1625.43 136.447   4
  -3   3   3 1446.43 123.162   1
   3   3  -3 1491.84 98.2722   5
   3  -3  -2 388.057 69.1633   5
   3   3  -2 389.786 53.5764   3
  -3  -3   2 378.101 70.2479   4
  -3   3   2 476.500 74.8480   1
   3   3  -2 463.523 54.1695   5
  -3  -3   1 8979.46 223.744   5
   3  -3  -1 8845.74 286.559   5
   3   3  -1 8804.82 206.495   3
  -3  -3   1 9027.52 275.709   4
   3   3  -1 8881.90 308.451   2
  -3   3   1 9195.07 303.427   1
  -3  -3   0 28122.1 423.404   5
   3  -3   0 28317.7 528.194   4
   3   3   0 28740.3 301.559   3
  -3  -3   0 27919.4 458.112   4
   3   3   0 28150.5 541.768   2
  -3   3   0 28520.3 514.123   6
  -3  -3  -1 277.518 56.1099   5
  -3   3  -1 186.087 58.6558   3
   3   3   1 166.127 52.5916   2
   3  -3   1 152.658 53.9538   4
  -3  -3  -1 261.183 46.2906   4
   3   3   1 185.908 22.8061   3
  -3   3  -1 101.803 41.1901   6
   3  -3   2 13936.9 411.321   4
  -3  -3  -2 13654.3 270.749   4
   3   3   2 13634.2 383.144   2
  -3   3  -2 13505.8 401.341   3
  -3  -3  -2 13670.7 275.231   6
   3   3   2 13540.4 196.048   3
   3   3   3 23555.2 317.196   3
  -3  -3  -3 23255.4 317.362   4
   3  -3   3 22453.4 546.779   4
  -3  -3  -3 24761.9 327.089   4
  -3  -3  -3 23364.2 565.225   7
  -3   3  -3 22503.9 543.899   3
   3   3   3 23556.4 507.193   2
  -3  -3  -3 24381.2 321.270   3
  -3   3  -4 5870.42 301.411   3
  -3  -3  -4 6232.96 313.236   7
  -3  -3  -4 6313.73 196.564   3
  -3  -3  -4 6240.15 142.988   4
   3   3   4 6144.99 269.121   2
   3  -3   4 6052.03 298.302   4
   3  -3   5 15710.5 507.167   4
  -3  -3  -5 16030.8 358.623   3
   3   3   5 15518.8 436.196   2
  -3  -3  -5 14984.6 510.674   7
  -3   3  -5 15642.3 526.709   3
  -3   3  -6 279.330 89.6087   3
   3   3   6 449.111 83.3748   2
   3  -3   6 408.423 99.5894   4
  -3  -3  -6 435.866 99.8366   7
  -3   3  -7 203.155 87.1897   3
   3  -3   7 224.307 69.2411   4
   3  -3   7 221.081 101.030   2
  -3  -3  -7 198.654 67.2840   7
   3  -3   8 1244.65 197.875   2
  -3   3  -8 906.309 161.198   3
   3  -3   8 833.598 144.240   4
  -3  -3  -8 634.704 155.883   7
   3  -3   9 79.3136 61.3798   4
   3  -3   9 470.610 158.758   2
  -3   4  10 16954.4 629.158   6
   3  -4  -9 6453.10 354.146   3
  -3  -4   9 5668.74 377.021   4
  -3   4   9 5732.79 349.574   6
   3   4  -9 6491.38 408.918   3
   3  -4  -9 6282.44 388.453   5
   3  -4  -8 6358.83 331.645   3
  -3  -4   8 6249.77 376.493   4
  -3   4   8 6087.84 343.544   6
   3   4  -8 6141.92 368.749   3
   3  -4  -8 6512.37 374.137   5
   3  -4  -7 19501.0 543.729   3
  -3  -4   7 19391.1 625.594   4
  -3   4   7 20265.4 548.805   1
  -3   4   7 19889.4 594.054   6
   3   4  -7 18954.1 606.344   3
   3  -4  -7 19320.9 603.183   5
   3  -4  -6 3241.50 237.107   5
  -3   4   6 3421.58 222.120   1
   3  -4  -6 3598.68 221.665   3
  -3  -4   6 3362.30 249.747   4
   3  -4  -6 3599.33 173.996   7
  -3   4   6 3191.72 231.260   6
   3   4  -6 3497.44 241.322   3
   3  -4  -5 2327.47 189.263   5
  -3   4   5 2152.25 170.731   1
  -3  -4   5 2239.82 195.727   4
   3  -4  -5 2152.42 133.772   7
  -3   4   5 2223.99 186.911   6
   3   4  -5 2147.58 174.056   3
   3   4  -4 2636.97 175.720   3
  -3  -4   4 2582.66 195.526   4
  -3   4   4 2565.04 183.875   1
   3  -4  -4 2784.14 199.386   5
  -3   4   4 2457.53 189.578   6
   3   4  -3 909.545 96.5100   3
   3  -4  -3 984.180 117.524   5
  -3  -4   3 1024.23 121.416   4
  -3   4   3 868.361 108.486   1
  -3   4   3 967.659 115.235   6
   3  -4  -2 1954.04 159.004   5
  -3  -4   2 1997.71 155.246   4
   3   4  -2 1950.12 117.715   3
  -3   4   2 1972.01 159.784   6
  -3   4   2 1967.72 158.515   1
  -3  -4   1 387.138 59.5914   5
   3  -4  -1 516.441 83.8222   5
   3  -4  -1 484.776 76.6731   4
  -3  -4   1 473.819 74.2863   4
  -3   4   1 373.335 74.1003   1
  -3   4   1 457.811 82.1667   6
   3   4  -1 461.957 47.8411   3
  -3  -4   0 8028.15 268.811   5
   3  -4   0 7730.01 302.503   4
  -3  -4   0 8267.82 268.378   4
  -3   4   0 8287.71 325.272   1
   3   4   0 8076.63 126.679   3
  -3   4   0 8096.05 313.941   6
  -3  -4  -1 7290.00 273.082   5
   3  -4   1 7501.30 312.249   4
  -3  -4  -1 7628.16 235.236   4
   3   4   1 6809.47 293.356   2
  -3   4  -1 6913.61 291.077   3
  -3   4  -1 7232.01 309.553   1
   3   4   2 653.321 92.6651   2
  -3  -4  -2 561.914 84.6106   5
  -3   4  -2 635.052 101.387   1
  -3   4  -2 432.120 81.3138   3
  -3  -4  -2 620.939 62.7277   4
   3  -4   2 589.531 97.8395   4
  -3  -4  -2 532.879 93.1336   7
   3  -4   3 30493.3 688.536   4
  -3  -4  -3 31205.7 353.734   4
   3   4   3 30683.3 625.180   2
  -3  -4  -3 30599.6 696.185   7
  -3   4  -3 30577.2 680.546   3
   3  -4   4 5585.79 310.086   4
   3   4   4 5526.81 267.855   2
  -3   4  -4 5810.86 316.007   3
  -3  -4  -4 5446.79 306.428   7
   3  -4   5 6454.70 351.625   4
  -3   4  -5 5838.08 340.268   3
   3   4   5 6104.04 285.404   2
  -3  -4  -5 5750.91 334.105   7
   3  -4   6 31046.6 805.731   4
  -3   4  -6 30041.8 815.594   3
  -3  -4  -6 29966.1 796.602   7
   3  -4   7 9399.31 462.600   4
  -3   4  -7 9284.08 482.029   3
  -3  -4  -7 10014.5 486.554   7
   3  -4   8 4291.09 331.297   4
   3  -4   8 4388.74 333.155   2
  -3  -4  -8 4311.91 352.758   7
  -3   5   9 2628.20 248.949   6
   3  -5  -9 3081.65 291.015   5
   3  -5  -8 1209.99 173.377   5
   3   5  -8 1069.94 159.403   3
  -3  -5   8 1125.88 173.843   4
  -3   5   8 1180.68 166.100   6
   3  -5  -7 8552.37 431.187   5
  -3  -5   7 8883.46 452.087   4
   3  -5  -7 8944.75 368.711   3
  -3   5   7 9212.58 410.073   1
  -3   5   7 8991.16 427.446   6
   3   5  -7 9322.46 437.801   3
  -3   5   6 1638.40 172.533   1
   3  -5  -6 1593.10 151.275   3
   3  -5  -6 1597.39 181.195   5
  -3  -5   6 1493.77 180.606   4
  -3   5   6 1552.70 172.983   6
   3   5  -6 1566.55 168.936   3
  -3   5   5 8207.02 370.371   1
   3  -5  -5 8326.79 386.423   5
  -3  -5   5 8244.83 394.111   4
  -3   5   5 8315.43 383.898   6
   3   5  -5 8295.17 352.532   3
   3  -5  -4 31844.0 727.593   5
  -3   5   4 31171.2 710.588   1
  -3  -5   4 32924.5 747.442   4
  -3   5   4 32337.0 734.570   6
   3   5  -4 33119.6 640.127   3
   3  -5  -3 14323.6 476.024   5
  -3  -5   3 14520.6 468.930   4
  -3   5   3 14698.1 485.913   6
  -3   5   3 14320.6 473.476   1
   3   5  -3 15231.0 385.947   3
   3  -5  -2 16051.4 493.678   5
  -3  -5   2 16825.7 479.432   4
  -3   5   2 16598.9 504.681   1
   3   5  -2 17079.7 353.161   3
  -3   5   2 17005.3 513.845   6
  -3  -5   1 14340.1 396.109   5
   3  -5  -1 13440.0 418.251   4
  -3  -5   1 14430.0 417.941   4
   3   5  -1 14634.3 253.876   3
  -3   5   1 14125.7 465.711   1
  -3   5   1 14075.7 465.635   6
  -3   5   0 31098.5 693.319   1
   3  -5   0 31495.4 656.078   4
  -3  -5   0 31780.5 576.643   4
  -3  -5   0 30989.8 601.855   5
  -3  -5  -1 7897.22 317.859   5
   3  -5   1 7912.09 350.059   4
  -3   5  -1 7551.82 344.792   1
  -3  -5  -1 7873.89 262.392   4
  -3   5  -1 7607.34 324.513   3
  -3  -5  -2 103.589 53.7360   5
  -3   5  -2 139.369 56.9169   3
   3  -5   2 198.214 72.6927   4
  -3  -5  -2 122.239 33.2732   4
  -3   5  -2 113.563 54.7082   1
   3  -5   3 8751.34 397.368   4
  -3   5  -3 8193.44 370.774   1
  -3  -5  -3 8634.70 367.753   5
  -3   5  -3 8258.87 377.224   3
  -3  -5  -3 8167.19 388.677   7
  -3   5  -4 198.486 74.1647   1
  -3  -5  -4 224.936 76.6039   5
  -3   5  -4 220.544 82.7411   3
   3  -5   4 214.414 82.3803   4
  -3  -5  -4 140.024 63.6128   7
  -3  -5  -5 570.781 110.186   5
  -3   5  -5 584.040 128.311   3
   3  -5   5 607.192 126.311   4
  -3   5  -5 613.239 111.465   1
  -3  -5  -5 483.102 105.819   7
   3  -5   6 2620.17 254.491   4
  -3   5  -6 2746.51 227.959   1
  -3   5  -6 3193.20 279.992   3
  -3  -5  -6 2917.43 261.588   7
   3  -5   7 33.5016 61.9924   4
  -3  -5  -7 122.454 65.4438   7
   3   6  -8 224.969 89.9535   3
  -3   6   8 200.352 85.3316   6
   3  -6  -7 3693.20 305.772   5
  -3  -6   7 3506.88 307.932   4
  -3   6   7 3934.38 298.126   1
   3   6  -7 3613.37 284.557   3
  -3   6   7 3778.40 298.087   6
   3  -6  -6 3291.86 274.635   5
  -3  -6   6 3333.21 284.175   4
   3   6  -6 3408.45 252.937   3
  -3   6   6 2966.28 254.407   6
  -3   6   6 3132.69 259.657   1
   3  -6  -5-7.25245 51.2653   5
   3   6  -5 25.1300 40.0675   3
  -3   6   5 3.06260 58.9304   1
  -3  -6   5 69.0809 53.1714   4
  -3   6   5 50.0034 68.9191   6
   3  -6  -4 1087.52 153.967   5
  -3   6   4 1229.20 158.059   1
  -3  -6   4 1170.61 158.446   4
   3   6  -4 1312.78 134.609   3
  -3   6   4 1304.44 169.479   6
   3  -6  -3 8883.51 413.903   5
  -3  -6   3 9272.95 403.822   4
  -3   6   3 8699.11 404.474   1
   3   6  -3 9554.21 317.656   3
  -3   6   3 9174.99 422.363   6
  -3  -6   2 1268.64 146.848   4
  -3   6   2 1471.04 169.243   1
   3  -6  -2 1307.20 161.103   5
  -3   6   2 1400.51 165.594   6
   3  -6  -1 10835.1 405.830   4
  -3  -6   1 10380.8 380.796   4
  -3   6   1 10851.2 446.376   1
  -3  -6   0 162.861 50.8841   5
  -3   6   0 269.463 87.7147   1
   3  -6   0 315.630 85.4506   4
  -3  -6   0 249.339 66.9852   4
   3  -6   1 1908.82 189.535   4
  -3  -6  -1 1755.35 137.817   4
  -3   6  -1 1819.96 187.375   1
  -3  -6  -1 2003.91 180.063   5
  -3   6  -2 2454.90 220.467   1
  -3  -6  -2 2212.10 195.156   5
   3  -6   2 2282.29 212.517   4
  -3   6  -2 2284.26 202.094   3
  -3  -6  -3 4829.54 300.390   5
   3  -6   3 4987.27 327.694   4
  -3   6  -3 4858.87 308.035   1
  -3   6  -3 4652.11 301.682   3
  -3  -6  -3 4855.15 324.176   7
  -3   6  -4 51.3106 52.9290   3
  -3   6  -4 25.9117 46.7946   1
   3  -6   4 68.1396 70.8033   4
  -3  -6  -4 15.2854 42.6739   7
  -3  -6  -4-1.32658 51.0545   5
  -3  -6  -5 3044.94 264.936   5
  -3   6  -5 3084.14 276.258   3
   3  -6   5 2934.63 273.941   4
  -3   6  -5 3124.53 253.742   1
  -3  -6  -5 2863.63 262.708   7
  -3  -6  -6 10118.3 507.377   5
  -3   6  -6 11022.2 480.938   1
  -3   6  -6 10130.9 520.175   3
  -3  -6  -6 10243.8 515.545   7
  -3   7   7 4365.99 338.601   1
  -3   7   7 4229.75 340.091   6
   3  -7  -6 1515.81 201.578   5
  -3  -7   6 1341.43 200.709   4
  -3   7   6 1489.39 203.284   6
  -3   7   6 1513.91 201.877   1
   3  -7  -5 2238.91 241.286   5
  -3   7   5 2266.38 238.683   1
  -3  -7   5 2184.41 235.974   4
  -3   7   5 2348.73 246.509   6
   3  -7  -4 16283.0 624.851   5
  -3   7   4 16614.2 626.311   1
  -3  -7   4 17374.8 622.594   4
  -3   7   4 16123.7 615.898   6
   3  -7  -3 4726.55 329.731   5
  -3   7   3 4887.70 335.741   1
  -3  -7   3 5159.26 328.784   4
  -3   7   3 5010.52 336.787   6
   3  -7  -2 6825.27 390.497   5
  -3  -7   2 6669.56 350.155   4
  -3   7   2 6536.68 380.878   1
   3  -7  -1 5111.70 299.935   4
  -3  -7   1 5333.08 297.719   4
  -3   7   1 5275.68 344.722   1
   3  -7   0 14887.2 527.343   4
  -3  -7   0 14888.6 519.040   5
  -3  -7   0 15038.1 464.732   4
  -3   7   0 14514.1 564.910   1
   3  -7   1 1454.75 181.221   4
  -3  -7  -1 1421.02 165.851   5
  -3   7  -1 1172.23 166.877   1
  -3  -7  -2 582.412 114.531   5
  -3   7  -2 407.921 101.365   1
   3  -7   2 590.373 126.216   4
  -3   7  -2 474.174 105.964   3
  -3  -7  -3 2598.69 235.825   5
   3  -7   3 2979.20 268.893   4
  -3   7  -3 2736.32 245.045   3
  -3  -7  -3 2852.94 265.399   7
  -3   7  -3 3025.60 263.961   1
  -3  -7  -4 922.536 149.279   5
   3  -7   4 1094.89 182.209   4
  -3   7  -4 808.734 150.122   3
  -3   7  -4 717.789 134.114   1
  -3  -7  -4 835.216 153.355   7
  -3   7  -5 376.247 119.740   3
  -3  -7  -5 565.425 133.071   5
  -3   7  -5 405.059 102.160   1
  -3  -8   4 1383.61 191.993   4
   3  -8  -3 1187.84 186.088   5
  -3  -8   3 1222.86 175.015   4
  -3   8   3 1222.69 185.862   1
  -3   8   2 151.292 81.5575   1
  -3  -8   2 168.408 83.1423   4
  -3   8   1 647.223 135.113   1
   3  -8  -1 495.214 108.983   4
   3  -8   0 1834.67 207.710   4
  -3   8   0 2009.72 235.738   1
  -3  -8  -1 2431.79 234.250   5
   3  -8   1 2326.46 240.831   4
  -3   8  -1 2492.68 254.800   1
  -3   8  -2-1.87999 58.9409   1
  -3  -8  -2-19.0258 36.1126   5
   3  -8   2 74.8780 69.8610   4
  -3  -8  -3 9629.03 494.010   5
  -3   8  -3 9076.95 466.663   3
   4   0 -10 8073.47 451.661   3
  -4   0  10 8034.60 384.723   4
   4   0  -9 1383.09 174.758   3
  -4   0   9 1633.08 166.836   4
   4   0  -8 6336.66 348.618   3
  -4   0   8 6559.41 315.659   4
   4   0  -7 1803.69 174.740   3
  -4   0   7 1754.25 161.552   4
   4   0  -6 6264.58 301.929   3
  -4   0   6 6472.36 285.425   4
  -4   0   6 6379.43 141.685   7
  -4   0   6 6600.51 208.317   2
  -4   0   6 6338.61 116.018   1
  -4   0   5 47996.9 417.692   1
   4   0  -5 45998.8 759.596   3
  -4   0   5 45723.2 724.620   4
  -4   0   5 46851.2 560.025   2
   4   0  -4 4229.56 170.488   2
  -4   0   4 4090.06 168.522   2
  -4   0   3 28709.0 455.992   2
   4   0  -3 28625.7 277.614   5
  -4   0   3 29739.9 257.651   7
   4   0  -3 28869.4 457.401   2
  -4   0   2 57809.5 467.991   7
   4   0  -2 56912.5 664.902   2
  -4   0   1 50718.4 357.668   5
   4   0  -1 50407.7 536.779   7
  -4   0   1 50687.9 526.652   7
   4   0  -1 50199.6 648.502   2
   4   0   0 96063.1 834.921   7
  -4   0   0 93778.3 850.832   7
   4   0   0 89934.7 909.542   2
   4   0   1 41473.2 647.273   2
  -4   0  -1 43450.1 708.752   7
   4   0   2 11618.6 354.168   2
  -4   0  -2 11590.8 337.746   3
  -4   0  -2 10925.8 466.230   7
   4   0   3 4526.05 235.913   2
  -4   0  -3 4376.25 218.946   3
   4   0   4 1709.42 156.844   2
  -4   0  -4 1649.24 145.626   3
   4   0   5 4778.78 267.959   2
  -4   0  -5 4729.45 265.492   3
   4   0   6 11150.3 425.815   2
  -4   0  -6 10622.3 426.084   3
   4   0   7 969.859 142.375   2
  -4   0  -7 828.214 131.926   3
   4   0   8 12441.4 490.800   2
  -4   0  -8 12619.1 530.942   3
  -4   0  -9 5064.68 360.017   3
   4  -1 -10 8768.84 462.072   3
  -4  -1  10 8934.81 430.735   4
   4   1 -10 9140.67 487.216   3
   4  -1  -9 1025.10 155.731   3
  -4  -1   9 1165.08 154.361   4
  -4   1   9 1092.55 133.626   4
   4   1  -9 1064.96 160.259   3
   4   1  -8 3242.32 253.080   3
   4  -1  -8 3128.67 244.676   3
  -4  -1   8 3327.89 240.179   4
  -4   1   8 3364.45 217.167   4
   4   1  -7 6602.51 334.222   3
   4  -1  -7 6933.29 337.422   3
  -4  -1   7 6771.01 319.863   4
  -4   1   7 7159.01 300.957   4
   4   1  -6 12762.5 433.855   3
  -4   1   6 12890.4 225.208   2
  -4   1   6 13191.6 269.837   1
   4  -1  -6 13140.6 433.925   3
  -4  -1   6 12552.1 413.155   4
  -4   1   6 13435.9 394.978   4
  -4   1   5 4468.71 149.197   2
   4   1  -5 4508.85 239.411   3
   4  -1  -5 4244.25 233.577   3
  -4  -1   5 4395.61 235.427   4
  -4  -1   5 4306.18 91.2025   1
   4  -1  -5 4557.85 149.982   2
  -4   1   5 4192.76 160.203   1
   4  -1  -4 482.669 57.8154   5
  -4   1   4 557.261 59.0009   2
   4   1  -4 488.799 69.1076   2
   4   1  -4 488.055 79.0333   3
  -4  -1   4 474.454 78.5303   4
  -4   1   4 502.269 59.5617   1
   4  -1  -4 483.314 54.5720   2
   4  -1  -3 8546.84 208.266   5
   4  -1  -3 8715.20 237.229   2
  -4   1   3 9698.02 250.195   2
   4   1  -3 8481.14 270.732   2
  -4   1   2 2473.10 156.186   2
   4  -1  -2 1751.20 114.861   2
  -4  -1   2 1911.56 105.523   7
   4   1  -2 1846.44 129.917   2
   4  -1  -2 1801.20 77.8926   7
  -4   1   2 1773.17 91.7730   5
  -4   1   1 9360.36 214.608   5
   4  -1  -1 9473.32 277.409   2
  -4  -1   1 9209.95 249.729   7
   4  -1  -1 9620.32 223.445   7
   4   1  -1 9271.65 293.186   2
   4  -1   0 13589.3 357.134   2
   4   1   0 14394.2 321.117   3
  -4  -1   0 14194.4 341.050   7
   4  -1   0 14814.3 328.394   7
   4   1   0 14277.9 372.128   2
  -4   1   0 14120.2 295.054   6
   4  -1   1 3117.72 173.460   2
  -4   1  -1 3372.42 182.819   3
   4   1   1 3347.11 158.752   3
  -4  -1  -1 3075.94 166.238   7
   4   1   1 3550.91 193.642   2
  -4   1  -1 3259.96 130.959   6
  -4   1  -2 261.299 65.5751   3
   4  -1   2 181.544 44.5076   2
   4   1   2 269.865 63.9967   2
  -4  -1  -2 252.907 51.2937   3
  -4  -1  -2 306.188 68.1446   7
   4  -1   3 22478.4 507.518   4
   4  -1   3 21904.4 533.953   2
  -4  -1  -3 22063.8 458.121   3
  -4   1  -3 21858.1 520.460   3
  -4  -1  -3 22099.9 551.564   7
   4   1   3 22019.0 517.722   2
  -4  -1  -4-1.47155 34.0881   3
  -4   1  -4 52.2492 47.9150   3
   4  -1   4 1.66125 33.5061   4
   4   1   4 15.9017 40.4766   2
  -4  -1  -4-49.5905 58.5282   7
   4  -1   5 21793.2 593.319   2
   4  -1   5 22413.6 556.638   4
  -4  -1  -5 21997.3 529.619   3
  -4   1  -5 22267.9 598.548   3
   4   1   5 22828.7 575.819   2
   4  -1   6 5778.46 313.454   2
   4  -1   6 6282.99 308.129   4
  -4   1  -6 5593.51 323.416   3
  -4  -1  -6 5665.23 296.282   3
   4   1   6 6240.18 312.034   2
   4  -1   7 14024.2 519.497   2
   4  -1   7 14054.5 484.572   4
  -4  -1  -7 14173.2 498.245   3
  -4   1  -7 13411.9 536.455   3
   4   1   7 14302.7 495.711   2
   4  -1   8 2562.10 234.662   2
  -4  -1  -8 2642.50 234.969   3
  -4   1  -8 2752.39 262.450   3
  -4  -2  11 180.883 87.5263   4
   4   2 -10 2609.64 267.716   3
   4  -2 -10 2705.73 258.117   3
  -4  -2  10 2362.11 233.520   4
   4   2  -9 13729.8 568.186   3
   4  -2  -9 13152.8 526.463   3
  -4  -2   9 13676.8 533.104   4
   4   2  -8 42.8007 56.1326   3
   4  -2  -8 33.3003 51.8749   3
  -4  -2   8 76.3194 57.4182   4
  -4   2   8 105.370 54.6567   4
   4   2  -7 2121.56 196.389   3
   4  -2  -7 2044.57 185.347   3
  -4  -2   7 1895.10 181.917   4
  -4   2   7 1910.80 151.067   4
  -4   2   7 1955.58 130.680   1
   4   2  -6 1211.06 136.685   3
   4  -2  -6 1261.46 141.860   3
  -4   2   6 1254.78 104.288   1
  -4  -2   6 1270.06 141.459   4
  -4   2   6 1227.56 120.066   4
   4  -2  -6 1339.87 126.692   5
   4  -2  -5 2795.05 169.664   5
   4   2  -5 2803.13 192.482   3
  -4  -2   5 2907.86 202.338   4
  -4  -2   5 2595.33 80.3542   1
   4  -2  -5 2844.00 104.675   2
  -4   2   5 2840.22 155.556   1
   4  -2  -4-15.3736 29.9517   5
  -4  -2   4 56.5916 25.3126   1
  -4   2   4 71.5155 38.2390   1
   4   2  -4-12.2926 31.8293   3
   4  -2  -4 26.3091 19.5565   2
  -4  -2   4-49.2595 50.2874   4
   4   2  -3 4419.09 104.030   5
   4  -2  -3 4516.42 170.737   2
   4  -2  -3 4277.62 182.080   5
   4   2  -3 4236.62 200.678   3
  -4  -2   3 4252.28 220.527   4
   4   2  -3 4398.44 216.008   2
   4  -2  -3 3829.98 140.349   7
  -4   2   3 5024.48 212.325   1
  -4   2   2 952.140 87.2630   5
   4  -2  -2 967.647 87.7024   5
  -4  -2   2 864.601 96.2646   4
   4   2  -2 986.233 103.742   2
   4  -2  -2 545.874 63.3679   2
  -4   2   1 1688.87 113.514   5
  -4  -2   1 1740.09 69.2942   5
   4  -2  -1 2043.32 148.186   2
   4   2  -1 1699.52 133.674   2
  -4   2   1 1649.32 122.596   6
   4  -2   0 66953.9 812.198   2
   4   2   0 68151.9 650.602   3
   4   2   0 68854.7 856.286   2
  -4  -2   0 66683.3 811.616   7
  -4   2   0 70618.8 746.076   6
   4   2   1 2312.14 120.294   3
   4  -2   1 2425.38 172.038   2
  -4   2  -1 2240.57 161.919   3
   4   2   1 2236.62 156.402   2
  -4  -2  -1 2270.01 163.450   7
  -4   2  -1 2271.62 132.820   6
   4  -2   2 57644.3 839.234   4
   4  -2   2 53330.7 810.245   2
  -4   2  -2 55845.6 834.969   3
  -4  -2  -2 55169.4 835.526   7
   4   2   2 55188.3 808.119   2
   4   2   2 54683.1 620.156   3
  -4  -2  -2 57755.8 382.183   6
  -4  -2  -3 71.4956 34.2029   3
  -4   2  -3 32.9099 41.4334   3
   4  -2   3 154.487 60.3316   4
   4   2   3 37.2866 43.5078   2
  -4  -2  -3 48.9879 43.2742   7
   4  -2   4 5540.94 285.369   4
   4  -2   4 5366.10 291.804   2
  -4  -2  -4 4997.52 219.803   3
  -4   2  -4 4700.17 271.240   3
  -4  -2  -4 4801.17 281.830   7
   4   2   4 4768.69 255.520   2
  -4  -2  -5 66.0709 42.9725   3
  -4   2  -5-1.60806 46.7326   3
   4  -2   5 96.4298 54.0979   4
   4   2   5 36.5819 45.3697   2
   4  -2   5 221.082 107.926   2
  -4  -2  -5 36.9219 54.6698   7
   4  -2   6 1701.90 176.257   4
   4  -2   6 1646.58 192.792   2
  -4   2  -6 1809.80 199.927   3
  -4  -2  -6 1712.99 154.329   3
   4   2   6 1591.46 158.134   2
  -4  -2  -6 1723.67 229.768   7
  -4   2  -7 345.569 99.1843   3
   4  -2   7 561.253 114.375   4
   4   2   7 558.144 105.362   2
   4  -2   7 446.996 91.3631   2
  -4  -2  -7 521.720 193.391   7
   4  -2   8 5389.25 347.249   2
   4  -2   8 5901.43 350.402   4
  -4   2  -8 5688.68 388.597   3
   4  -3 -10 17874.8 651.543   3
  -4  -3  10 17878.2 671.049   4
   4   3  -9 1945.21 222.515   3
   4  -3  -9 1849.24 199.975   3
  -4  -3   9 1767.55 206.273   4
   4  -3  -9 1790.88 197.511   5
   4   3  -8 9426.35 451.165   3
   4  -3  -8 9456.29 420.903   3
  -4  -3   8 9912.75 456.258   4
   4  -3  -8 9419.74 417.526   5
  -4   3   7 30856.7 598.820   1
   4  -3  -7 29792.9 705.018   3
  -4  -3   7 29496.5 741.621   4
  -4   3   7 30423.5 576.942   4
   4   3  -7 29072.2 733.540   3
   4  -3  -7 29864.0 693.745   5
   4  -3  -6 1230.39 133.935   5
   4   3  -6 1139.48 139.279   3
   4  -3  -6 1373.91 145.096   3
  -4   3   6 1123.31 117.048   1
  -4  -3   6 1146.19 146.582   4
   4  -3  -5 7545.13 309.546   5
   4  -3  -5 7520.10 155.258   7
   4   3  -5 7487.87 317.523   3
  -4  -3   5 7299.48 337.557   4
  -4   3   5 7338.05 287.413   1
   4  -3  -5 7717.07 171.857   2
   4  -3  -4 8132.27 300.834   5
   4  -3  -4 8584.43 224.142   2
   4   3  -4 8301.74 307.940   3
  -4  -3   4 8148.56 229.129   1
  -4  -3   4 8008.65 335.081   4
   4   3  -4 8368.59 222.626   5
  -4   3   4 8115.88 302.231   1
   4   3  -3 2459.28 109.021   5
   4  -3  -3 1987.84 146.113   5
   4   3  -3 2261.00 147.540   3
   4  -3  -3 2217.14 129.553   2
  -4   3   3 2255.92 161.962   1
  -4  -3   3 2456.44 178.553   4
  -4   3   3 2270.71 169.379   6
   4  -3  -2 983.202 102.303   5
   4   3  -2 1020.23 91.0838   3
   4  -3  -2 1108.93 104.783   2
  -4  -3   2 1049.94 110.606   4
   4   3  -2 977.881 112.960   2
  -4   3   2 918.962 107.943   1
  -4   3   2 993.047 112.415   6
   4   3  -1 16714.0 320.915   3
   4  -3  -1 16459.1 397.058   2
  -4  -3   1 16584.3 410.993   4
   4   3  -1 16444.9 448.301   2
  -4   3   1 16259.3 418.838   6
  -4  -3   1 16703.5 293.834   5
  -4  -3   0 2970.55 139.482   5
   4  -3   0 2927.80 183.961   2
  -4  -3   0 2922.37 163.472   4
   4   3   0 2679.71 185.532   2
   4   3   0 2873.68 119.567   3
  -4   3   0 3010.77 176.141   6
   4  -3   1 22343.1 543.001   4
  -4  -3  -1 22656.2 429.229   5
  -4  -3  -1 23237.4 438.029   4
   4   3   1 21543.8 523.002   2
  -4   3  -1 21942.6 531.432   3
  -4  -3  -1 21518.4 526.249   7
   4   3   1 22052.8 316.286   3
  -4   3  -1 21867.8 469.128   6
  -4   3  -2 423.862 86.0686   3
  -4  -3  -2 430.125 86.7994   7
   4   3   2 354.676 75.8613   2
   4  -3   2 402.189 85.1725   4
   4   3   2 390.667 45.1004   3
  -4  -3  -2 449.797 50.7843   6
   4  -3   3 39143.4 768.405   4
   4  -3   3 36974.6 750.743   2
   4   3   3 38556.7 725.789   2
  -4   3  -3 38736.2 775.065   3
  -4  -3  -3 38012.7 783.849   7
   4  -3   4 5959.15 314.025   4
   4  -3   4 5317.06 304.773   2
  -4  -3  -4 6322.58 216.734   3
   4   3   4 5923.61 290.864   2
  -4   3  -4 5847.91 320.026   3
  -4  -3  -4 5795.20 322.316   7
   4  -3   5 9101.80 413.377   2
   4  -3   5 9018.37 408.493   4
  -4   3  -5 9052.36 418.386   3
   4   3   5 9052.11 369.909   2
  -4  -3  -5 9546.03 434.547   7
   4  -3   6 8121.83 405.907   4
   4  -3   6 7971.19 407.583   2
   4   3   6 7841.10 351.879   2
  -4   3  -6 8150.90 425.251   3
  -4  -3  -6 8310.46 436.931   7
   4  -3   7 4332.98 308.396   4
   4  -3   7 4431.42 324.585   2
  -4  -3  -7 4346.28 371.472   7
  -4   3  -7 4108.44 323.562   3
   4  -3   8 341.755 100.956   4
   4  -3   8 766.579 168.699   2
   4  -4 -10 1897.28 216.520   3
  -4   4  10 1688.27 213.523   6
   4  -4 -10 1703.38 214.041   5
   4  -4  -9 8553.24 445.077   5
   4  -4  -9 7773.06 403.811   3
  -4  -4   9 8201.69 458.565   4
  -4   4   9 7922.10 429.099   6
   4   4  -9 8089.32 459.011   3
   4  -4  -8 194.379 73.5869   5
   4   4  -8 349.300 98.6875   3
   4  -4  -8 464.819 108.179   3
  -4  -4   8 392.717 110.795   4
  -4   4   8 293.476 88.4592   6
   4   4  -7 1207.11 156.601   3
   4  -4  -7 1477.78 165.447   5
  -4   4   7 1300.85 144.361   1
   4  -4  -7 1273.59 155.095   3
  -4  -4   7 1337.98 172.755   4
  -4   4   7 1017.69 141.851   6
   4   4  -6 1107.91 139.702   3
   4  -4  -6 916.900 124.429   5
  -4   4   6 1041.47 126.408   1
   4  -4  -6 852.913 119.829   3
  -4  -4   6 883.821 135.954   4
  -4   4   6 893.795 131.345   6
   4  -4  -5 3526.00 232.285   5
   4   4  -5 3766.11 233.729   3
  -4  -4   5 3427.60 246.017   4
  -4   4   5 3596.43 225.972   1
   4  -4  -5 3489.00 150.496   7
  -4   4   5 3740.33 251.764   6
   4   4  -4 645.959 94.6270   3
   4  -4  -4 401.023 82.3682   5
   4  -4  -4 491.033 64.7672   2
  -4   4   4 500.953 87.2781   1
  -4  -4   4 526.802 98.3793   4
  -4   4   4 394.032 86.7368   6
   4   4  -3 4212.68 202.340   3
   4  -4  -3 3788.12 225.487   5
   4  -4  -3 4480.37 202.171   2
  -4  -4   3 3990.79 238.854   4
  -4   4   3 3874.28 240.183   6
  -4   4   3 3882.47 233.313   1
   4   4  -2 3274.81 158.734   3
   4  -4  -2 2946.14 196.176   5
  -4   4   2 3171.91 213.736   1
  -4  -4   2 3278.35 205.166   4
  -4   4   2 3076.52 208.086   6
  -4  -4   1 924.361 85.8197   5
   4   4  -1 880.055 72.5696   3
  -4  -4   1 810.740 98.2105   4
  -4   4   1 1047.69 125.070   1
  -4   4   1 835.572 110.531   6
  -4  -4   0 41723.4 604.351   5
   4   4   0 42535.0 388.440   3
   4  -4   0 41092.8 757.440   4
  -4  -4   0 41799.5 647.778   4
   4   4   0 40737.7 770.612   2
   4   4   0 41921.5 386.260   3
  -4   4   0 41619.7 742.660   6
  -4   4   0 40928.6 774.057   1
  -4  -4  -1 1503.59 127.690   5
   4   4   1 1358.96 48.8639   3
   4  -4   1 1615.06 159.540   4
  -4  -4  -1 1596.80 121.179   4
   4   4   1 1590.23 152.373   2
  -4   4  -1 1582.86 154.541   3
  -4  -4  -1 1426.99 151.606   7
   4  -4   2 32049.9 717.336   4
  -4  -4  -2 31949.2 729.824   7
  -4  -4  -2 33321.9 503.399   4
   4   4   2 31951.7 681.918   2
  -4   4  -2 32262.0 719.000   3
  -4  -4  -2 32150.4 625.705   5
  -4   4  -3 144.304 63.4735   3
   4   4   3 128.122 60.6580   2
   4  -4   3 73.5624 49.6103   4
  -4  -4  -3 178.122 72.2670   7
   4  -4   4 2327.94 215.358   4
   4   4   4 2151.62 186.496   2
  -4   4  -4 2016.51 200.959   3
  -4  -4  -4 2345.74 218.745   7
  -4   4  -5 12.3063 50.5509   3
   4   4   5 38.1116 39.1757   2
   4  -4   5-1.57483 43.5646   4
  -4  -4  -5 14.9707 40.6548   7
  -4   4  -6 623.499 139.795   3
   4  -4   6 1132.79 177.883   2
   4  -4   6 937.642 152.469   4
  -4  -4  -6 839.199 142.737   7
  -4   4  -7 387.090 120.308   3
   4  -4   7 180.946 90.4217   4
  -4  -4  -7 475.905 121.602   7
   4  -5  -9 730.913 147.626   5
  -4   5   9 476.648 118.811   6
   4  -5  -8 821.922 151.555   5
   4   5  -8 743.028 136.651   3
   4  -5  -8 682.364 117.148   3
  -4  -5   8 950.148 167.786   4
  -4   5   8 797.459 143.462   6
   4  -5  -7 4577.42 315.957   5
  -4   5   7 4136.49 279.055   1
   4  -5  -7 4515.01 283.241   3
  -4  -5   7 4309.78 323.298   4
  -4   5   7 4329.07 309.034   6
   4   5  -7 4526.19 306.565   3
   4  -5  -6 6414.00 357.176   5
  -4   5   6 6345.66 336.756   1
   4  -5  -6 6406.23 322.921   3
  -4  -5   6 6366.90 373.841   4
  -4   5   6 6329.97 359.363   6
   4   5  -6 6473.15 340.803   3
   4  -5  -5 2162.30 203.809   5
  -4   5   5 2153.83 196.280   1
  -4  -5   5 2140.49 209.670   4
  -4   5   5 2466.56 218.575   6
   4   5  -5 2289.04 189.858   3
   4  -5  -4 1298.62 157.860   5
   4  -5  -4 1568.67 125.979   2
  -4  -5   4 1388.00 159.777   4
  -4   5   4 1259.23 150.118   1
  -4   5   4 1361.11 159.917   6
   4   5  -4 1422.15 137.660   3
   4  -5  -3 5827.47 310.671   5
  -4  -5   3 5674.54 304.613   4
  -4   5   3 5794.74 308.951   1
  -4   5   3 6056.38 323.243   6
   4   5  -3 6211.66 250.138   3
   4  -5  -2 304.312 82.4185   5
   4   5  -2 408.154 56.6275   3
  -4  -5   2 259.062 70.3584   4
  -4   5   2 297.309 80.8341   1
  -4   5   2 288.100 79.2401   6
  -4  -5   1 48.3033 35.2745   5
   4  -5  -1 63.1957 51.2146   4
  -4   5   1-18.3647 44.3654   1
  -4  -5   1 84.2566 47.5924   4
  -4   5   1 62.9218 46.1724   6
  -4  -5   0 3767.74 209.217   5
   4  -5   0 3804.93 247.264   4
  -4   5   0 3789.83 255.065   1
  -4  -5   0 3920.81 213.693   4
  -4   5   0 4059.27 256.479   6
  -4  -5  -1 2957.21 194.509   5
   4  -5   1 2984.95 227.698   4
  -4  -5  -1 3028.00 176.324   4
  -4   5  -1 2813.65 226.280   1
  -4  -5  -2 16.8105 41.0255   5
  -4   5  -2-7.07665 48.5384   3
   4   5   2-22.6180 50.4108   2
   4  -5   2 35.2787 46.7056   4
  -4  -5  -2 45.6075 52.1233   7
  -4   5  -2 52.3442 62.0085   1
  -4  -5  -3 5567.15 299.465   5
   4  -5   3 5241.06 327.501   4
   4   5   3 5409.37 304.210   2
  -4   5  -3 5454.80 327.358   3
  -4  -5  -3 5362.03 331.829   7
  -4   5  -3 5275.15 318.111   1
  -4  -5  -4 133.604 68.9718   5
  -4   5  -4-1.11052 52.5354   3
   4   5   4 73.2799 65.0655   2
   4  -5   4 19.7464 50.5235   4
  -4   5  -4 5.83471 47.3605   1
  -4  -5  -4 167.419 80.1382   7
  -4   5  -5 7231.08 391.217   1
   4  -5   5 7299.86 417.375   4
   4   5   5 7092.25 354.923   2
  -4  -5  -5 7358.11 418.982   7
  -4  -5  -5 7763.26 408.285   5
  -4   5  -5 6993.66 411.088   3
   4  -5   6 1732.25 217.902   4
  -4   5  -6 1785.35 225.336   3
  -4  -5  -6 1824.47 218.603   7
  -4   5  -6 1879.84 205.948   1
  -4   6   8 2090.49 238.017   6
   4   6  -8 2161.98 240.179   3
   4  -6  -7 319.966 102.955   5
  -4   6   7 363.973 108.186   1
   4   6  -7 318.601 94.5856   3
  -4  -6   7 459.788 124.486   4
  -4   6   7 349.835 110.971   6
   4  -6  -6 231.249 86.8214   5
   4   6  -6 321.242 92.3837   3
  -4   6   6 274.064 90.1481   1
  -4  -6   6 194.644 92.2191   4
  -4   6   6 384.737 118.538   6
   4  -6  -5 11653.8 501.501   5
  -4   6   5 11085.2 485.321   1
  -4  -6   5 11743.4 509.340   4
  -4   6   5 11215.1 501.015   6
   4   6  -5 11177.8 424.104   3
   4  -6  -4 3309.51 264.476   5
  -4  -6   4 3287.64 261.932   4
  -4   6   4 3325.65 265.803   1
  -4   6   4 2958.45 252.096   6
   4  -6  -3 5263.82 324.663   5
  -4  -6   3 5550.60 320.908   4
  -4   6   3 5311.17 331.153   1
  -4   6   3 5542.79 339.605   6
  -4  -6   2 12478.2 457.857   4
  -4   6   2 12318.8 497.476   1
  -4   6   2 13121.8 522.006   6
  -4  -6   1 4685.39 252.926   5
   4  -6  -1 4938.48 291.754   4
  -4  -6   1 4878.56 274.443   4
  -4   6   1 4679.90 306.812   1
  -4   6   1 4656.07 301.785   6
  -4   6   0 17961.4 603.076   1
  -4  -6   0 18841.1 518.938   5
   4  -6   0 18126.8 577.572   4
  -4  -6   0 18509.8 496.230   4
  -4  -6  -1 3103.77 221.310   5
  -4   6  -1 2966.37 248.201   1
   4  -6   1 3094.40 249.609   4
  -4  -6  -2 6324.17 328.074   5
   4  -6   2 6483.08 370.693   4
  -4   6  -2 6842.80 378.237   1
  -4   6  -2 6639.89 364.749   3
  -4  -6  -2 5993.96 368.840   7
  -4  -6  -3 2619.63 227.026   5
   4  -6   3 2745.61 255.610   4
  -4   6  -3 2700.02 244.141   1
  -4  -6  -3 2300.80 236.707   7
  -4   6  -3 2550.39 241.589   3
  -4  -6  -4 946.656 141.121   5
  -4   6  -4 948.059 155.613   3
  -4   6  -4 976.803 157.573   1
   4  -6   4 897.062 158.935   4
  -4  -6  -4 997.353 161.749   7
  -4  -6  -5 1254.30 176.252   5
  -4   6  -5 1216.30 176.490   1
  -4   6  -5 1127.04 179.061   3
  -4  -6  -5 1199.91 178.582   7
  -4   6  -6 2493.16 246.229   1
   4  -7  -6 2056.77 243.051   5
  -4   7   6 2389.43 253.760   1
   4  -7  -5 1691.70 217.837   5
  -4   7   5 2180.54 238.658   1
  -4  -7   5 2004.82 226.068   4
  -4   7   5 1722.23 217.227   6
   4  -7  -4 281.966 99.5985   5
  -4  -7   4 247.340 82.2186   4
  -4   7   4 337.625 117.111   1
  -4   7   4 314.898 101.635   6
   4  -7  -3 2723.41 259.709   5
  -4  -7   3 2519.49 235.116   4
  -4   7   3 2348.37 240.871   1
  -4   7   3 2362.69 239.133   6
  -4   7   2 614.740 129.748   1
  -4  -7   2 442.164 107.367   4
  -4   7   2 340.132 97.4125   6
   4  -7  -1 68.2043 52.9114   4
  -4   7   1 32.1709 68.2043   1
  -4  -7   1 101.651 62.1034   4
  -4  -7   0 595.895 106.113   5
  -4   7   0 578.511 122.030   1
   4  -7   0 701.633 126.295   4
  -4  -7  -1 1818.36 185.547   5
   4  -7   1 1759.97 208.348   4
  -4   7  -1 1871.66 210.968   1
  -4  -7  -2 254.613 88.0647   5
   4  -7   2 111.401 76.4425   4
  -4  -7  -2 44.6761 44.5904   7
  -4   7  -2 45.6244 56.4308   1
  -4  -7  -3 3724.71 290.192   5
   4  -7   3 3874.99 321.277   4
  -4   7  -3 3655.64 297.881   3
  -4  -7  -3 3960.84 328.606   7
  -4   7  -3 4064.85 318.979   1
  -4  -7  -4-35.4062 53.3005   5
  -4   7  -4 0.78625 53.3978   1
  -4   7  -4 62.5152 69.7970   3
  -4  -8   4 523.147 122.228   4
  -4  -8   3 440.722 115.515   4
  -4  -8   2 460.543 110.741   4
   4  -8   0 8271.24 447.875   4
  -4  -8  -1 35.9643 43.0914   5
   4  -8   1 197.346 96.5294   4
  -4  -8  -2 10752.8 505.193   5
  -4  -8  -3 570.441 131.571   5
   5   0 -10 3901.79 321.799   3
  -5   0  10 3956.89 284.716   4
   5   0  -9 89.8816 75.4211   3
  -5   0   9 114.060 60.6220   4
   5   0  -8 9623.37 441.202   3
  -5   0   8 9541.09 403.933   4
   5   0  -7-6.54228 46.1019   3
  -5   0   7 51.0084 47.0084   4
   5   0  -6 14850.0 487.824   3
  -5   0   6 14592.7 458.597   4
  -5   0   6 15372.5 255.017   1
   5   0  -5 22372.5 564.050   3
  -5   0   5 22424.2 550.546   4
   5   0  -5 22587.4 447.534   2
   5   0  -5 23368.0 359.070   5
   5   0  -4 25247.4 295.925   5
   5   0  -4 25267.5 480.321   2
  -5   0   4 25629.4 242.406   7
   5   0  -3 33771.5 568.799   2
  -5   0   3 36856.1 377.680   7
  -5   0   2 882.106 72.9440   7
   5   0  -2 916.879 100.439   2
  -5   0   1 21489.8 268.364   5
   5   0  -1 21943.8 403.447   7
  -5   0   1 22052.5 421.212   7
   5   0  -1 20712.1 477.649   2
  -5   0   0 6691.46 281.611   7
   5   0   0 6209.77 270.711   2
  -5   0  -1 25793.1 719.124   7
  -5   0  -1 24767.0 338.188   6
   5   0   1 24605.1 557.715   2
   5   0   2 28357.7 623.548   2
  -5   0  -2 28391.6 283.360   6
   5   0   3 79250.5 1088.81   2
  -5   0  -3 79828.0 1021.46   3
  -5   0  -4 271.454 67.7477   3
   5   0   4 354.625 82.5499   2
   5   0   5 11367.3 450.871   2
  -5   0  -5 10717.8 424.354   3
   5   0   6 1930.35 194.512   2
  -5   0  -6 2082.06 202.841   3
  -5   0  -7 488.366 115.488   3
   5   0   7 626.338 120.491   2
  -5   0  -8 1519.93 195.221   3
   5   0   8 1775.68 207.563   2
  -5  -1  11 8485.81 452.097   4
  -5  -1  10 1063.76 158.058   4
   5   1 -10 1030.61 167.915   3
   5  -1 -10 1010.20 169.171   3
   5   1  -9 6176.18 383.238   3
   5  -1  -9 6743.16 391.459   3
  -5  -1   9 6172.24 350.790   4
  -5   1   9 6287.03 329.744   4
   5   1  -8 1965.94 203.284   3
   5  -1  -8 1734.54 190.806   3
  -5  -1   8 2017.18 195.971   4
  -5   1   8 1866.94 173.283   4
   5   1  -7 2045.33 196.183   3
   5  -1  -7 1916.34 187.608   3
  -5  -1   7 1838.46 180.276   4
  -5   1   7 1915.99 172.719   4
   5  -1  -6 368.068 61.6032   5
   5   1  -6 482.429 96.5000   3
   5  -1  -6 422.859 89.4412   3
  -5  -1   6 406.832 88.1873   4
  -5   1   6 452.426 90.1658   4
  -5   1   6 442.447 57.9193   1
   5  -1  -5 207.883 41.2775   5
   5  -1  -5 239.678 46.2184   2
   5   1  -5 302.493 73.4510   3
   5   1  -5 198.560 54.3874   2
  -5  -1   5 263.990 74.9400   4
  -5   1   5 268.171 51.1654   1
  -5   1   5 243.128 53.0071   2
   5  -1  -4 71673.1 652.616   5
   5   1  -4 69693.9 937.776   3
  -5  -1   4 71040.5 973.262   4
   5   1  -4 71689.4 867.660   2
   5  -1  -4 70677.0 767.152   2
   5  -1  -3 2368.84 109.911   5
   5   1  -3 2365.61 163.178   2
  -5  -1   3 2435.72 121.277   7
   5  -1  -3 2404.20 148.186   2
  -5   1   2 79267.2 624.903   5
   5   1  -2 77363.8 920.156   2
   5  -1  -2 83474.4 643.304   7
  -5  -1   2 79356.7 754.398   7
   5  -1  -2 78539.2 876.460   2
   5  -1  -1 9923.87 325.371   2
  -5   1   1 9839.56 237.546   5
  -5  -1   1 8890.76 276.797   7
   5  -1  -1 10135.1 266.997   7
   5   1  -1 10065.0 341.117   2
   5  -1   0 19261.3 476.228   2
  -5  -1   0 18738.9 435.278   7
   5   1   0 19557.9 491.009   2
  -5   1   0 19469.5 381.113   6
   5  -1   1 4980.92 253.721   2
  -5  -1  -1 4849.15 239.102   7
   5   1   1 4804.36 251.847   2
  -5   1  -1 4943.82 176.465   6
   5  -1   2 19531.0 525.794   2
  -5   1  -2 20050.9 517.404   3
  -5  -1  -2 20043.9 533.226   7
   5   1   2 20073.3 529.933   2
  -5   1  -2 21158.2 330.357   6
   5  -1   3 24057.2 619.866   2
  -5  -1  -3 24279.0 531.102   3
  -5   1  -3 24433.1 599.234   3
  -5  -1  -3 25047.0 658.893   7
   5   1   3 23735.6 600.624   2
   5  -1   4 7143.82 352.372   2
  -5  -1  -4 7373.35 312.694   3
  -5   1  -4 7437.58 346.672   3
  -5  -1  -4 7117.43 450.738   7
   5   1   4 7575.77 350.968   2
   5  -1   5 2221.68 196.082   2
  -5  -1  -5 2617.88 198.923   3
  -5   1  -5 2781.46 227.171   3
   5   1   5 2515.45 210.929   2
   5  -1   6 14431.0 545.207   2
  -5  -1  -6 15060.2 505.978   3
  -5   1  -6 14470.6 548.077   3
   5   1   6 15029.4 532.748   2
   5  -1   7 5205.11 340.505   2
  -5  -1  -7 5085.94 316.501   3
  -5   1  -7 4977.16 339.876   3
   5   1   7 5341.89 331.141   2
  -5   1  -8 823.587 157.754   3
   5  -1   8 893.252 152.689   2
   5  -2 -10 16303.7 642.403   3
  -5  -2  10 15871.0 620.502   4
   5   2  -9 2229.03 237.490   3
   5  -2  -9 1981.37 217.161   3
  -5  -2   9 2186.07 221.843   4
   5   2  -8 15864.1 580.792   3
   5  -2  -8 15504.2 559.152   3
  -5  -2   8 15135.9 552.416   4
  -5   2   8 15764.7 484.382   4
   5  -2  -8 16178.9 502.738   5
   5   2  -7 9538.18 421.110   3
  -5   2   7 10306.6 306.294   1
   5  -2  -7 9618.46 419.009   3
  -5  -2   7 9896.15 427.939   4
  -5   2   7 10503.8 387.340   4
   5  -2  -7 10258.6 371.207   5
   5  -2  -6 525.362 81.5811   5
  -5   2   6 440.809 70.7807   1
   5   2  -6 455.784 91.4014   3
   5  -2  -6 414.207 88.9219   3
  -5  -2   6 513.516 103.907   4
   5  -2  -5 17618.3 420.642   5
  -5   2   5 17854.9 420.661   1
   5   2  -5 17368.8 495.834   3
  -5  -2   5 18192.3 532.695   4
   5  -2  -5 18457.9 344.401   2
   5  -2  -4 2682.66 155.316   5
   5   2  -4 2626.22 183.494   3
  -5  -2   4 2762.30 200.225   4
   5   2  -4 2475.85 179.863   2
  -5   2   4 2579.87 166.418   1
   5  -2  -4 2829.84 149.925   2
   5  -2  -3 1013.09 92.3383   5
   5   2  -3 1068.72 112.224   3
  -5  -2   3 1142.45 128.990   4
   5  -2  -3 1183.11 64.7110   7
   5   2  -3 1151.29 123.234   2
   5  -2  -3 1138.61 101.607   2
   5  -2  -2 9117.93 303.110   2
   5   2  -2 8950.02 336.883   2
  -5  -2   2 9400.35 296.770   7
   5  -2  -2 9511.39 230.995   7
  -5  -2   1 8060.56 141.030   5
   5  -2  -1 7902.60 301.373   2
   5   2  -1 8443.97 331.499   2
  -5  -2   1 8256.76 292.268   7
  -5   2   1 8016.39 284.587   6
   5  -2   0 1609.41 141.829   2
   5   2   0 1690.44 152.163   2
  -5  -2   0 1818.43 148.670   7
  -5   2   0 1786.81 130.380   6
   5  -2   1 52777.6 847.066   2
   5   2   1 50455.9 838.055   2
  -5  -2  -1 51085.0 819.975   7
  -5   2  -1 51820.4 657.248   6
   5  -2   2 30408.3 675.444   2
  -5   2  -2 31036.7 675.103   3
  -5  -2  -2 30118.4 668.447   7
   5   2   2 31193.0 674.699   2
  -5  -2  -2 31068.2 276.438   6
   5  -2   3 94282.0 1249.74   2
  -5   2  -3 95685.7 1250.00   3
  -5  -2  -3 95189.3 1260.56   7
   5   2   3 92940.6 1202.90   2
   5  -2   4 7152.26 347.049   4
   5  -2   4 6961.95 354.579   2
  -5  -2  -4 7019.86 283.238   3
  -5   2  -4 6635.61 345.739   3
  -5  -2  -4 7351.94 375.629   7
   5   2   4 6943.83 341.806   2
   5  -2   5 3647.85 258.302   4
   5  -2   5 3567.42 268.821   2
  -5  -2  -5 3657.86 221.703   3
  -5   2  -5 3524.83 268.695   3
   5   2   5 3671.33 256.696   2
  -5  -2  -5 4254.43 329.181   7
   5  -2   6 2083.81 204.654   4
   5  -2   6 2105.21 209.561   2
   5   2   6 2180.09 206.254   2
  -5  -2  -6 2036.66 296.077   7
  -5   2  -6 2096.60 225.614   3
  -5   2  -7 77.3799 61.3920   3
   5  -2   7 73.4919 44.2216   4
   5   2   7 82.1020 62.0237   2
   5  -2   7-101.286 112.790   2
   5  -2   8-339.501 168.124   2
   5  -3 -10 485.161 118.679   5
   5  -3 -10 467.434 116.888   3
   5   3  -9 16472.8 644.067   3
   5  -3  -9 17192.9 628.837   3
  -5  -3   9 16463.7 631.925   4
   5  -3  -9 16650.6 578.817   5
   5  -3  -8 1365.46 161.869   5
   5   3  -8 1244.84 175.034   3
   5  -3  -8 1206.85 162.118   3
  -5  -3   8 1380.92 181.676   4
   5  -3  -7 39.6252 48.9721   5
   5   3  -7 5.83336 47.5254   3
   5  -3  -7 173.522 76.9170   3
  -5   3   7 45.6813 40.0876   1
  -5  -3   7 157.537 67.7420   4
   5  -3  -6 4975.26 263.245   5
   5   3  -6 4866.58 285.027   3
  -5  -3   6 4842.26 302.563   4
  -5   3   6 5148.42 251.048   1
   5  -3  -5 8634.80 327.185   5
   5   3  -5 8961.80 361.193   3
  -5  -3   5 8812.60 387.579   4
  -5   3   5 8172.92 317.681   1
   5  -3  -5 8646.25 237.222   2
   5  -3  -4 20499.6 413.663   2
   5  -3  -4 20231.4 479.898   5
   5   3  -4 21082.2 514.871   3
  -5   3   4 20392.1 507.718   1
  -5  -3   4 19398.6 545.774   4
   5  -3  -3 1948.57 145.533   5
   5  -3  -3 1713.09 121.598   2
   5   3  -3 1944.27 147.923   3
  -5  -3   3 2024.97 172.507   4
   5   3  -3 2023.17 176.004   2
  -5   3   3 2169.49 169.711   1
  -5   3   3 2100.90 172.425   6
   5  -3  -2 14684.9 401.061   2
   5   3  -2 14761.6 368.287   3
  -5  -3   2 15211.6 444.516   4
   5   3  -2 14846.7 465.949   2
  -5   3   2 14805.0 439.291   6
  -5  -3   1 3590.11 127.867   5
   5  -3  -1 3539.55 213.351   2
  -5  -3   1 3472.73 205.949   4
   5   3  -1 3407.03 225.115   2
  -5  -3   1 3388.87 205.944   7
  -5   3   1 3439.52 204.285   6
  -5  -3   0 29218.6 430.600   5
   5  -3   0 27604.5 606.168   2
  -5  -3   0 28013.2 562.880   4
  -5  -3   0 28439.4 620.806   7
   5   3   0 27689.1 641.605   2
   5   3   0 27979.6 443.691   3
  -5   3   0 26917.2 556.358   6
   5   3   1 50.5463 26.2437   3
   5   3   1 26.3842 40.9837   2
  -5  -3  -1 97.4521 65.3347   7
  -5   3  -1 32.7777 37.9325   6
   5  -3   2 49972.5 899.201   4
   5  -3   2 47675.4 871.622   2
   5   3   2 47798.6 874.593   2
  -5   3  -2 49049.7 900.873   3
  -5  -3  -2 48243.1 891.247   7
   5  -3   3 4984.39 298.241   4
   5  -3   3 4917.83 302.597   2
  -5   3  -3 5238.93 307.578   3
   5   3   3 4656.66 280.518   2
  -5  -3  -3 5016.96 303.418   7
   5  -3   4 5693.19 330.918   4
   5  -3   4 5507.04 338.004   2
  -5   3  -4 5185.59 322.688   3
   5   3   4 5261.66 302.121   2
  -5  -3  -4 5161.26 326.694   7
  -5   3  -5-31.0855 50.5545   3
   5   3   5 6.28222 47.3952   2
   5  -3   5-59.2840 47.6775   4
  -5  -3  -5 33.3052 55.8063   7
   5  -3   6 3447.56 281.686   4
   5  -3   6 3797.38 304.196   2
   5   3   6 3606.05 264.622   2
  -5   3  -6 3215.35 287.305   3
  -5  -3  -6 3621.31 324.381   7
   5  -3   7 1889.18 218.640   4
   5  -3   7 1666.12 207.564   2
   5  -4 -10 9887.54 501.984   5
   5  -4 -10 10059.9 503.333   3
   5  -4  -9 1418.65 182.896   5
  -5   4   9 1365.30 190.835   6
   5  -4  -9 1338.31 182.937   3
  -5  -4   9 1579.40 208.418   4
   5   4  -9 1452.68 200.912   3
   5   4  -8 11676.9 517.964   3
   5  -4  -8 12155.5 502.764   5
   5  -4  -8 11696.3 492.809   3
  -5  -4   8 12637.2 559.392   4
  -5   4   8 11104.1 509.454   6
   5  -4  -7 6199.17 338.775   5
   5   4  -7 5957.50 349.753   3
  -5   4   7 6638.82 323.663   1
   5  -4  -7 6132.55 343.659   3
  -5  -4   7 6418.60 378.843   4
  -5   4   7 6022.58 362.928   6
   5  -4  -6 1264.54 148.084   5
   5   4  -6 1528.58 168.361   3
  -5  -4   6 1381.18 174.502   4
  -5   4   6 1460.57 153.180   1
  -5   4   6 1172.09 157.674   6
   5  -4  -5 15001.8 479.338   5
   5   4  -5 15242.2 476.940   3
  -5  -4   5 14769.5 526.430   4
  -5   4   5 15174.6 479.912   1
  -5   4   5 14711.4 519.471   6
   5  -4  -4 4134.46 245.167   5
   5   4  -4 4651.88 244.265   3
   5  -4  -4 4234.79 196.878   2
  -5  -4   4 4155.23 269.215   4
  -5   4   4 4402.54 278.581   6
  -5   4   4 4257.11 258.229   1
   5  -4  -3 2830.01 200.016   5
   5   4  -3 3010.91 180.762   3
   5  -4  -3 2988.10 183.526   2
  -5   4   3 2910.21 216.754   1
  -5  -4   3 2727.59 209.954   4
  -5   4   3 2832.85 216.458   6
   5   4  -2 4573.53 201.484   3
   5  -4  -2 4987.32 254.962   2
  -5  -4   2 4363.43 252.307   4
  -5   4   2 4155.48 257.484   1
  -5   4   2 4448.73 262.457   6
  -5  -4   1 7459.12 228.520   5
   5   4  -1 7310.87 228.198   3
   5  -4  -1 7282.43 315.909   2
  -5  -4   1 7351.70 309.237   4
   5   4  -1 7112.82 345.681   2
  -5   4   1 6928.47 319.064   6
  -5   4   1 7198.92 344.219   1
  -5  -4   0 53.4686 29.7134   5
   5   4   0 66.2658 49.8232   2
   5   4   0 108.924 28.2736   3
  -5  -4   0 55.7891 48.0136   4
  -5  -4   0 65.1521 51.4791   7
  -5   4   0 116.033 59.8289   6
  -5  -4  -1 23510.6 491.399   5
   5  -4   1 22868.5 627.304   4
   5  -4   1 22285.3 598.685   2
  -5  -4  -1 23686.5 509.178   4
   5   4   1 22089.9 611.279   2
  -5  -4  -1 22309.4 622.894   7
  -5   4  -1 22502.6 554.557   6
   5  -4   2 22221.6 642.570   4
   5  -4   2 21735.4 619.400   2
  -5  -4  -2 23299.3 477.324   4
   5   4   2 21837.7 616.154   2
  -5   4  -2 21707.8 633.118   3
  -5  -4  -2 22324.4 643.097   7
  -5  -4  -2 22982.6 537.193   5
   5  -4   3 54435.7 1041.06   4
   5  -4   3 52870.8 1005.24   2
   5   4   3 54459.4 979.096   2
  -5   4  -3 54517.5 1040.88   3
  -5  -4  -3 55084.6 1050.23   7
   5  -4   4 2789.09 249.354   4
   5  -4   4 3296.22 276.931   2
   5   4   4 2422.26 217.045   2
  -5   4  -4 2518.86 237.782   3
  -5  -4  -4 2785.84 249.287   7
   5  -4   5 2784.77 259.228   4
   5  -4   5 3174.23 285.348   2
   5   4   5 2853.62 237.827   2
  -5   4  -5 2656.37 258.076   3
  -5  -4  -5 3011.00 272.938   7
   5  -4   6 1330.31 213.847   2
  -5   4  -6 856.020 160.699   3
   5  -4   6 923.261 165.219   4
  -5  -4  -6 1012.09 170.055   7
   5  -5  -9 2987.77 280.973   5
   5  -5  -8 977.344 160.721   5
   5   5  -8 894.224 153.344   3
   5  -5  -8 961.508 150.073   3
  -5   5   8 874.275 162.047   6
   5  -5  -7 1045.60 157.176   5
  -5   5   7 901.859 136.356   1
   5  -5  -7 1028.86 148.736   3
  -5  -5   7 1051.49 175.235   4
  -5   5   7 950.964 159.688   6
   5   5  -7 1164.58 158.394   3
   5  -5  -6 472.705 100.989   5
   5   5  -6 608.720 113.131   3
  -5  -5   6 549.226 126.664   4
  -5   5   6 555.058 109.305   1
  -5   5   6 405.483 104.256   6
  -5   5   5 279.881 82.1460   1
   5  -5  -5 251.966 83.7557   5
   5   5  -5 156.728 69.5601   3
  -5  -5   5 263.078 82.2386   4
   5   5  -4 34122.3 668.006   3
   5  -5  -4 33562.5 764.247   5
   5  -5  -4 33231.3 599.260   2
  -5  -5   4 33391.6 799.994   4
  -5   5   4 33086.5 778.570   1
  -5   5   4 32179.6 798.630   6
   5   5  -3 2751.01 172.281   3
   5  -5  -3 2684.67 218.132   5
  -5  -5   3 2553.65 215.842   4
  -5   5   3 2546.33 222.487   6
  -5   5   3 2521.05 219.445   1
  -5   5   2 26342.9 699.648   1
   5  -5  -2 26370.6 597.464   2
  -5  -5   2 26931.1 657.759   4
  -5   5   2 25924.4 683.930   6
  -5  -5   1 827.873 93.8820   5
  -5   5   1 880.390 131.274   1
   5  -5  -1 888.085 125.142   2
  -5  -5   1 773.897 117.598   4
  -5   5   1 814.644 126.237   6
  -5  -5   0 9523.11 324.491   5
  -5  -5   0 9693.14 357.492   4
  -5   5   0 8657.95 410.579   1
  -5   5   0 9221.28 399.726   6
  -5  -5  -1 1376.92 136.612   5
   5  -5   1 1341.60 166.653   4
  -5  -5  -1 1124.84 119.211   4
   5   5   1 1103.29 152.851   2
  -5  -5  -1 1214.65 162.484   7
  -5   5  -1 1233.22 161.472   1
  -5  -5  -2 13125.1 438.676   5
  -5   5  -2 12311.5 506.777   1
   5  -5   2 12531.8 514.145   4
   5   5   2 12635.0 493.365   2
  -5  -5  -2 12418.1 514.080   7
  -5  -5  -3 10121.9 411.112   5
   5  -5   3 10525.5 485.582   4
   5   5   3 10217.8 449.715   2
  -5   5  -3 9548.78 461.623   3
  -5  -5  -3 10412.6 485.509   7
   5  -5   4 3760.65 305.593   4
   5  -5   4 3370.73 292.569   2
   5   5   4 3479.87 268.314   2
  -5   5  -4 3463.26 294.139   3
  -5  -5  -4 3579.37 300.733   7
  -5  -5  -4 3471.71 261.842   5
  -5   5  -5 688.482 139.768   3
   5  -5   5 976.298 183.029   2
   5   5   5 725.808 126.000   2
   5  -5   5 609.686 136.744   4
  -5  -5  -5 675.532 135.423   7
  -5  -5  -5 780.676 143.855   5
   5   6  -8 3797.86 312.614   3
   5  -6  -7 238.767 97.6183   5
  -5   6   7 117.937 75.4935   1
   5   6  -7 171.365 72.5225   3
   5  -6  -6 6313.69 386.052   5
  -5   6   6 6252.06 374.379   1
  -5  -6   6 6283.48 401.699   4
  -5   6   6 5930.69 388.064   6
   5  -6  -5 11008.4 494.823   5
  -5  -6   5 11362.9 519.253   4
  -5   6   5 10576.6 483.073   1
  -5   6   5 10995.1 514.085   6
   5  -6  -4 10518.6 474.751   5
  -5  -6   4 11188.7 493.860   4
  -5   6   4 11125.8 494.462   1
  -5   6   4 11640.2 514.658   6
   5  -6  -3 11151.2 477.912   5
   5  -6  -3 10981.8 394.487   2
  -5  -6   3 11133.9 470.791   4
  -5   6   3 10862.8 483.366   1
  -5   6   3 10947.3 491.822   6
  -5  -6   2 411.421 102.972   4
  -5   6   2 211.293 90.0614   1
  -5   6   2 383.956 107.378   6
  -5   6   1 6158.45 367.813   1
  -5  -6   1 5786.75 306.963   4
  -5   6   1 5894.57 351.344   6
  -5  -6   0 2087.05 172.895   5
  -5   6   0 1866.04 208.400   1
  -5  -6   0 2303.39 184.788   4
  -5  -6  -1 2945.32 216.745   5
   5  -6   1 3184.97 268.320   4
  -5   6  -1 2880.47 259.879   1
  -5  -6  -1 2905.31 262.834   7
  -5  -6  -2 10046.5 412.434   5
   5  -6   2 10285.1 493.879   4
  -5   6  -2 10122.7 487.324   1
  -5  -6  -2 10068.5 494.195   7
  -5  -6  -3 23632.1 675.232   5
   5  -6   3 23551.9 773.729   4
  -5   6  -3 23229.7 747.462   1
  -5   6  -3 24166.9 767.490   3
  -5  -6  -3 23984.8 781.932   7
  -5  -6  -4 60.7595 69.5196   5
  -5   6  -4 116.075 77.5767   3
  -5   6  -4 62.8600 78.5985   1
  -5  -6  -5 4911.26 346.411   5
   5  -7  -5 97.9737 78.8217   5
  -5  -7   5 9.32300 63.4647   4
  -5   7   5 14.6176 52.5548   1
   5  -7  -4 15895.8 630.039   5
  -5  -7   4 16344.2 625.705   4
  -5   7   4 16783.9 653.264   1
  -5   7   4 17298.4 680.804   6
  -5  -7   3 1223.73 167.089   4
  -5   7   3 1077.75 169.739   1
  -5   7   3 1185.41 182.515   6
  -5  -7   2 9010.38 428.677   4
  -5   7   2 9367.05 487.159   1
  -5   7   2 8731.05 465.784   6
  -5   7   1 16.8174 63.7776   1
  -5   7   0 4259.53 333.139   1
  -5   7  -1-8.05792 59.3578   1
   5  -7   1 112.024 84.1643   4
  -5  -7  -1 112.948 73.1764   7
  -5   7  -2 10039.3 517.366   1
   5  -7   2 10252.2 526.393   4
  -5  -8   3 430.323 118.311   4
  -6   0  10 117.914 74.9272   4
   6   0  -9 1003.39 167.653   3
  -6   0   9 856.182 141.842   4
   6   0  -8 528.206 119.193   3
  -6   0   8 544.813 113.159   4
   6   0  -7 13804.7 523.343   3
  -6   0   7 14087.1 504.408   4
   6   0  -6 6150.99 332.482   3
   6   0  -6 6635.59 266.993   2
  -6   0   6 6376.75 327.563   4
  -6   0   6 6599.86 209.300   1
   6   0  -5 592.563 49.4072   5
   6   0  -5 512.948 79.8217   2
   6   0  -4 208356. 1553.02   2
   6   0  -3 587.937 87.9070   2
  -6   0   3 799.701 97.9827   7
  -6   0   2 67852.6 889.809   7
   6   0  -2 58528.4 872.227   2
  -6   0   1 12988.8 228.948   5
  -6   0   1 13265.6 443.751   7
   6   0  -1 12543.9 411.786   2
   6   0   0 80.2315 58.5369   2
  -6   0   0 101.926 86.0483   7
  -6   0  -1 5010.78 170.055   6
   6   0   1 5081.97 284.751   2
   6   0   2 7582.09 359.508   2
   6   0   3 7736.05 376.326   2
  -6   0  -4 5511.66 308.585   3
   6   0   4 5709.99 336.589   2
  -6   0  -5 1701.23 184.567   3
   6   0   5 1741.87 193.721   2
  -6   0  -6 5464.92 344.781   3
   6   0   6 5782.02 365.407   2
  -6   0  -7 2963.98 270.386   3
   6   0   7 3073.81 275.943   2
  -6  -1  10 4185.85 315.995   4
   6   1  -9 6989.14 415.977   3
   6  -1  -9 6372.33 396.319   3
  -6  -1   9 6892.82 391.526   4
  -6   1   9 6841.32 361.694   4
   6   1  -8 1084.69 160.059   3
   6  -1  -8 1088.09 163.051   3
  -6  -1   8 1020.19 152.678   4
  -6   1   8 1098.16 146.384   4
   6  -1  -7 3364.92 188.948   5
   6   1  -7 3316.01 256.488   3
   6  -1  -7 3273.91 257.208   3
  -6  -1   7 3051.97 243.769   4
  -6   1   7 3035.25 235.257   4
   6  -1  -6 2102.28 134.238   5
  -6   1   6 2289.54 143.007   1
   6   1  -6 2116.95 195.669   3
   6  -1  -6 1825.55 183.751   3
  -6  -1   6 2059.06 197.739   4
   6  -1  -6 2108.06 138.459   2
   6  -1  -5 13.8313 18.7974   5
   6   1  -5 66.9902 46.4170   2
   6   1  -5 20.6999 37.2937   3
   6  -1  -5 13.9370 29.5950   2
  -6  -1   5-2.90721 42.3015   4
  -6  -1   5 12.1617 14.7024   7
   6  -1  -4 74.1821 29.9539   5
   6   1  -4 27.5983 44.5501   2
   6  -1  -4 24.1969 35.3178   2
  -6  -1   4 51.5941 25.0868   7
   6   1  -3 13751.5 426.192   2
  -6  -1   3 14207.5 323.403   7
   6  -1  -3 13833.7 400.042   2
  -6   1   2 6516.24 186.778   5
   6  -1  -2 6804.45 215.298   7
   6   1  -2 6404.54 295.052   2
  -6  -1   2 6527.25 239.595   7
   6  -1  -2 6339.85 282.323   2
  -6   1   1 24460.0 400.330   5
  -6  -1   1 23149.0 224.485   5
   6   1  -1 24962.4 600.462   2
  -6  -1   1 24327.2 502.077   7
   6  -1  -1 24382.4 573.935   2
   6  -1   0 2448.08 190.178   2
  -6  -1   0 2548.56 176.643   7
   6   1   0 2492.27 197.315   2
  -6   1   0 2359.46 143.894   6
   6  -1   1 8205.93 361.177   2
  -6  -1  -1 9040.90 357.510   7
   6   1   1 8532.49 369.530   2
  -6   1  -1 8809.57 255.019   6
   6  -1   2 16000.3 521.260   2
  -6  -1  -2 16890.3 546.136   7
   6   1   2 16741.0 530.843   2
  -6   1  -2 16925.3 314.478   6
   6  -1   3 38387.5 843.453   2
  -6   1  -3 38499.3 812.430   3
  -6  -1  -3 40091.3 1010.83   7
   6   1   3 39165.9 843.835   2
  -6   1  -4 64.6229 66.4605   3
   6   1   4-14.0322 44.5600   2
   6  -1   4 14.4208 47.7962   2
   6  -1   5 3164.95 262.737   2
  -6  -1  -5 2992.72 230.338   3
  -6   1  -5 3047.74 253.561   3
   6   1   5 3083.73 258.331   2
  -6  -1  -6 131.914 69.7740   3
  -6   1  -6 100.699 68.4731   3
   6   1   6 57.1683 55.9096   2
   6  -1   6 71.3100 42.5853   2
  -6   1  -7-22.2592 50.9120   3
   6   1   7-11.1057 61.1198   2
   6  -1   7-35.2419 54.2851   2
  -6  -2  10 514.409 130.375   4
   6   2  -9 5231.29 364.582   3
   6  -2  -9 5173.51 357.346   3
  -6  -2   9 4782.52 338.025   4
   6   2  -8 3731.12 290.259   3
   6  -2  -8 3712.47 290.768   3
  -6  -2   8 3387.40 276.434   4
  -6   2   8 3618.63 253.680   4
   6  -2  -7 2806.02 189.829   5
   6   2  -7 2653.37 235.850   3
   6  -2  -7 2595.05 231.392   3
  -6  -2   7 2702.58 237.580   4
  -6   2   7 2533.12 209.098   4
   6  -2  -6 8264.93 303.276   5
   6   2  -6 7614.81 371.187   3
  -6  -2   6 7522.53 379.968   4
  -6   2   6 8281.46 302.234   1
   6  -2  -5 13932.8 365.694   5
   6   2  -5 13649.7 467.657   3
  -6   2   5 13752.4 399.840   1
  -6  -2   5 13587.0 488.377   4
   6  -2  -5 14343.1 365.107   2
   6  -2  -4 97438.9 912.945   5
   6   2  -4 96185.2 1168.29   3
  -6  -2   4 92225.6 1227.23   4
   6   2  -4 94783.6 1183.90   2
   6  -2  -4 98126.1 1007.47   2
   6   2  -3 520.417 94.1816   2
   6  -2  -3 485.028 81.1810   2
  -6  -2   3 438.358 94.3288   4
  -6  -2   3 474.481 73.8415   7
   6  -2  -2 24898.3 561.365   2
   6   2  -2 24693.3 609.201   2
  -6  -2   2 25262.9 522.258   7
   6  -2  -2 25649.8 429.438   7
  -6  -2   1 137.015 18.4457   5
   6   2  -1 142.659 56.8910   2
   6  -2  -1 198.675 64.1554   2
  -6  -2   1 241.057 64.7743   7
  -6   2   1 218.775 57.3581   6
   6  -2   0 4583.90 257.171   2
   6   2   0 4825.89 278.192   2
  -6  -2   0 5167.30 267.909   7
  -6   2   0 5237.28 235.279   6
   6  -2   1 4013.51 254.026   2
   6   2   1 4561.67 279.769   2
  -6  -2  -1 4623.38 268.719   7
  -6   2  -1 4824.76 214.401   6
   6   2   2 199.604 67.1646   2
  -6  -2  -2 238.782 76.5934   7
  -6   2  -3 120.356 65.0732   3
   6   2   3 155.012 59.9880   2
   6  -2   3-27.4162 95.1242   2
  -6  -2  -3 227.929 79.2952   7
   6  -2   4 1682.93 186.526   2
  -6   2  -4 2184.46 217.180   3
   6   2   4 2337.82 219.783   2
  -6  -2  -4 2380.13 240.002   7
  -6   2  -5 336.517 99.2029   3
   6   2   5 341.676 94.2584   2
  -6  -2  -5 478.720 162.145   7
  -6   2  -6 894.485 153.309   3
   6  -2   6 532.815 90.5574   2
   6   2   6 981.755 155.021   2
  -6  -2  -6 658.157 234.405   7
   6   3  -9 15127.3 629.392   3
   6  -3  -9 15398.3 614.340   3
  -6  -3   9 15996.5 643.309   4
   6  -3  -8 926.583 133.781   5
   6   3  -8 735.342 137.640   3
   6  -3  -8 767.647 132.952   3
  -6   3   8 843.697 130.034   4
  -6  -3   8 910.465 157.110   4
   6  -3  -7 11137.0 409.806   5
   6   3  -7 10959.2 474.453   3
   6  -3  -7 10999.9 476.918   3
  -6  -3   7 10555.9 481.996   4
   6  -3  -6 1263.73 134.049   5
   6   3  -6 1261.48 157.195   3
  -6  -3   6 1213.35 164.002   4
  -6   3   6 1177.83 128.645   1
   6  -3  -5 2883.12 190.666   5
  -6   3   5 2747.03 201.637   1
   6   3  -5 2719.60 213.231   3
  -6  -3   5 2447.95 219.481   4
   6  -3  -5 2824.22 162.102   2
   6  -3  -4 873.664 104.391   5
   6   3  -4 805.784 112.576   3
  -6  -3   4 873.336 129.308   4
   6   3  -4 758.269 123.990   2
  -6   3   4 877.958 121.179   1
   6  -3  -4 837.700 99.0055   2
   6   3  -3 65.4512 51.9554   2
   6   3  -3 114.445 42.7492   3
  -6   3   3 164.119 63.4563   1
  -6  -3   3 31.6181 46.9000   4
   6  -3  -3 129.973 54.5739   2
  -6   3   3 86.9517 54.8301   6
   6  -3  -2 22306.6 553.309   2
   6   3  -2 23647.5 513.317   3
  -6  -3   2 22232.2 584.301   4
   6   3  -2 22558.6 614.403   2
  -6  -3   2 22173.6 545.673   7
  -6   3   2 22097.9 570.245   6
   6  -3  -1 19489.0 536.390   2
  -6  -3   1 19923.8 536.182   4
   6   3  -1 19830.6 579.425   2
  -6  -3   1 19732.4 534.813   7
  -6   3   1 19808.7 517.214   6
  -6  -3   0 10452.3 258.636   5
   6  -3   0 9079.21 382.316   2
   6   3   0 9663.04 412.735   2
  -6  -3   0 9696.21 388.850   7
  -6   3   0 9991.26 357.420   6
   6  -3   1 23475.2 646.431   2
   6   3   1 23254.0 649.412   2
  -6  -3  -1 23452.5 635.064   7
  -6   3  -1 24736.3 560.019   6
   6  -3   2 23415.3 669.956   2
   6   3   2 23958.9 670.089   2
  -6  -3  -2 23755.4 670.799   7
   6  -3   3 36323.4 872.774   2
  -6   3  -3 35629.6 860.706   3
   6   3   3 36257.0 847.988   2
  -6  -3  -3 36002.1 867.402   7
   6  -3   4 2473.72 240.188   2
  -6   3  -4 2343.29 239.095   3
   6   3   4 2475.04 225.910   2
  -6  -3  -4 2363.68 234.521   7
  -6   3  -5 359.439 104.281   3
   6   3   5 226.807 83.5412   2
   6  -3   5 124.165 74.3924   2
  -6  -3  -5 305.406 105.974   7
   6   3   6 348.862 99.7254   2
   6  -4  -9 3524.55 300.438   3
   6  -4  -8 2316.56 216.751   5
   6   4  -8 2318.33 241.393   3
   6  -4  -8 2206.44 233.255   3
  -6  -4   8 2555.52 264.765   4
   6  -4  -7 2643.00 221.602   5
   6   4  -7 2467.30 228.729   3
   6  -4  -7 2454.70 233.538   3
  -6   4   7 2571.34 208.313   1
  -6  -4   7 2231.29 239.621   4
  -6   4   7 2520.90 243.371   6
   6  -4  -6 4969.46 289.201   5
   6   4  -6 4950.05 304.383   3
  -6  -4   6 5116.03 339.155   4
  -6   4   6 4935.85 290.469   1
  -6   4   6 5007.12 331.624   6
   6  -4  -5 8509.50 364.261   5
   6   4  -5 8523.21 372.356   3
  -6  -4   5 8403.11 416.538   4
  -6   4   5 8420.88 374.648   1
  -6   4   5 8119.84 404.266   6
   6  -4  -4 66242.1 872.384   2
   6  -4  -4 65719.9 982.543   5
   6   4  -4 64975.6 953.464   3
  -6   4   4 63877.6 1049.51   1
  -6  -4   4 63663.5 1099.53   4
  -6   4   4 63679.2 1099.48   6
   6   4  -3 1037.03 115.217   3
  -6   4   3 918.419 134.453   1
  -6  -4   3 705.563 120.032   4
   6  -4  -3 406.168 74.9384   2
  -6   4   3 799.907 125.779   6
   6  -4  -2 17404.1 507.782   2
   6   4  -2 18002.0 431.625   3
  -6  -4   2 17301.0 529.655   4
   6   4  -2 17602.5 581.076   2
  -6   4   2 17593.0 561.810   1
  -6   4   2 18093.0 549.063   6
   6   4  -1 105.301 56.3952   2
   6   4  -1 123.297 39.1868   3
  -6  -4   1 150.853 70.2849   4
   6  -4  -1 333.479 93.1423   2
  -6  -4   1 165.914 68.0751   7
  -6   4   1 117.810 56.2775   6
   6  -4   0 3347.90 251.584   2
  -6  -4   0 3752.07 231.061   4
   6   4   0 3417.31 258.103   2
  -6  -4   0 3550.95 255.698   7
  -6   4   0 3791.44 244.859   6
  -6  -4  -1 2053.89 150.342   5
   6  -4   1 2017.54 207.378   2
  -6  -4  -1 2302.88 175.696   4
   6   4   1 2010.20 202.377   2
  -6  -4  -1 2000.10 201.522   7
  -6   4  -1 2027.20 175.777   6
  -6  -4  -2 376.413 77.9809   5
   6   4   2 487.604 106.860   2
  -6  -4  -2 368.692 89.8540   7
   6   4   3 17.2348 53.5649   2
  -6   4  -3-8.30690 48.0065   3
  -6  -4  -3 16.8996 45.9037   7
   6  -4   4 1326.91 185.308   4
   6  -4   4 1457.33 207.981   2
   6   4   4 1356.99 178.087   2
  -6   4  -4 1125.97 178.467   3
  -6  -4  -4 1308.71 184.178   7
  -6   4  -5 735.367 154.724   3
   6   4   5 518.453 116.912   2
   6  -4   5 495.876 123.550   4
   6  -4   5 806.308 167.923   2
  -6  -4  -5 631.269 141.454   7
   6  -5  -9 2854.03 269.915   5
   6  -5  -9 2774.87 270.865   3
   6   5  -8 1242.65 185.804   3
   6  -5  -8 912.821 148.844   5
   6  -5  -8 1182.51 176.167   3
   6  -5  -7 846.446 142.996   5
   6   5  -7 806.766 141.897   3
   6  -5  -7 963.012 154.795   3
  -6   5   7 850.167 135.704   1
  -6  -5   7 715.865 149.368   4
  -6   5   7 777.916 151.016   6
   6   5  -6 3150.80 245.612   3
   6  -5  -6 3218.45 258.283   5
  -6  -5   6 3563.89 298.278   4
  -6   5   6 3209.96 252.878   1
  -6   5   6 3040.18 273.068   6
   6  -5  -5 83.6429 69.0740   5
  -6   5   5 28.7229 48.9692   1
   6   5  -5 49.0158 56.3092   3
  -6  -5   5 40.3519 51.5295   4
  -6   5   5-19.3949 49.5096   6
   6  -5  -4 113.001 68.3476   5
   6   5  -4 139.055 61.5483   3
  -6  -5   4 163.202 96.7605   4
  -6   5   4 139.798 63.5091   1
  -6   5   4 186.107 80.1122   6
  -6   5   3 8195.15 406.884   1
   6  -5  -3 7302.32 328.586   2
  -6  -5   3 7100.72 368.941   4
  -6   5   3 7568.55 395.935   6
   6  -5  -2 2257.12 201.821   2
  -6   5   2 2236.95 217.734   1
  -6  -5   2 2123.82 196.901   4
  -6   5   2 2131.07 208.381   6
   6  -5  -1 9385.09 411.937   2
  -6  -5   1 8829.10 382.517   4
  -6   5   1 9262.52 442.786   1
  -6  -5   1 9334.18 429.165   7
  -6   5   1 9281.93 424.641   6
  -6   5   0 475.696 109.884   1
   6  -5   0 813.812 158.624   2
   6   5   0 550.770 125.594   2
  -6  -5   0 532.294 92.3357   4
  -6  -5   0 482.273 113.977   7
  -6   5   0 510.142 107.175   6
  -6   5  -1 2348.92 232.387   1
   6  -5   1 2864.27 254.923   2
   6   5   1 2512.38 237.102   2
  -6  -5  -1 2581.20 238.399   7
   6  -5   2 9215.15 463.268   2
   6   5   2 9013.48 448.530   2
  -6  -5  -2 8606.23 448.050   7
   6  -5   3 20900.1 724.246   4
   6  -5   3 21345.4 720.233   2
   6   5   3 21003.1 691.059   2
  -6  -5  -3 20944.2 728.700   7
  -6   5  -4 37.0526 60.1465   3
   6   5   4-15.7567 43.6275   2
   6  -5   4-4.77824 55.0226   4
   6   5   5 2591.98 253.836   2
   6  -6  -7 4839.99 353.650   5
  -6   6   7 4557.05 331.800   1
   6  -6  -6 1978.24 221.677   5
  -6   6   6 1774.35 205.844   1
  -6  -6   6 1671.11 216.100   4
  -6   6   5 902.883 156.825   1
   6  -6  -5 831.655 146.166   5
  -6  -6   5 1057.59 171.209   4
  -6   6   5 970.936 163.793   6
  -6  -6   4 55742.9 1131.11   4
  -6   6   4 55859.2 1140.38   1
  -6   6   4 54397.7 1154.88   6
  -6  -6   3 150.280 79.1996   4
  -6   6   3 132.527 81.5150   1
  -6   6   3 210.183 95.8670   6
  -6   6   2 14350.4 583.629   1
   6  -6  -2 13404.2 492.680   2
  -6  -6   2 14316.8 529.787   4
  -6   6   2 13534.0 564.851   6
   6  -6  -1 1355.54 177.187   2
  -6  -6   1 964.340 139.217   4
  -6   6   1 905.982 153.022   1
  -6   6   1 949.402 148.356   6
  -6   6   0 215.351 101.696   1
   6  -6   0 405.682 132.738   2
  -6  -6   0 108.997 75.2183   7
   6  -6   1 1591.34 206.585   2
  -6   6  -1 1427.90 196.339   1
  -6  -6  -1 1173.16 173.465   7
   6  -6   2 2012.18 246.823   2
  -6   6  -2 1702.81 216.951   1
  -6  -6  -2 1634.95 211.452   7
   6   6   4 2033.83 230.746   2
  -6  -7   4 95.9110 67.7113   4
  -6  -7   3 2870.11 262.158   4
   6  -7  -2 1424.37 192.134   2
  -6  -7   2 921.191 146.881   4
   6  -7  -1 3229.44 280.524   2
   6  -7   0 837.264 170.103   2
  -7   0  10 1984.66 227.743   4
   7   0  -9 4852.43 358.768   3
  -7   0   9 4532.54 323.888   4
   7   0  -8 6377.96 392.062   3
  -7   0   8 6024.30 363.570   4
   7   0  -7 3232.79 267.607   3
  -7   0   7 3091.38 255.093   4
   7   0  -6 26156.7 723.940   3
  -7   0   6 25743.7 709.446   4
   7   0  -6 26366.1 589.587   2
   7   0  -5 104.315 46.5624   2
   7   0  -4 326.405 77.9975   2
   7   0  -3 20990.1 559.863   2
   7   0  -2 1437.22 154.244   2
   7   0  -1 12297.6 450.962   2
   7   0   0 3188.23 239.613   2
   7   0   1 2813.15 235.152   2
   7   0   2 2727.64 233.472   2
   7   0   3 6978.80 387.035   2
   7   0   4 2.02276 53.0721   2
   7   0   5 16114.2 632.755   2
  -7   0  -6 8.75362 52.4349   3
   7   0   6 98.9810 80.9345   2
  -7   1  10 80.5205 54.2844   4
   7   1  -9 2758.12 275.503   3
   7  -1  -9 2704.44 270.420   3
  -7  -1   9 2378.09 246.514   4
  -7   1   9 2520.42 240.530   4
   7  -1  -8 1284.97 183.957   3
   7   1  -8 971.292 156.807   3
  -7  -1   8 1112.55 167.794   4
  -7   1   8 1177.07 164.056   4
   7   1  -7 22696.9 700.485   3
   7  -1  -7 22611.4 708.705   3
  -7  -1   7 22203.1 692.001   4
  -7   1   7 22250.0 666.745   4
   7   1  -6 17670.8 593.696   3
   7   1  -6 17692.8 517.001   2
  -7  -1   6 18759.6 614.551   4
   7  -1  -6 18545.9 462.580   2
   7   1  -5 13194.5 488.999   3
  -7  -1   5 13143.5 501.768   4
   7   1  -5 13301.1 452.978   2
   7  -1  -5 13234.8 411.583   2
   7   1  -4 45966.4 844.354   2
   7  -1  -4 47209.9 799.621   2
  -7  -1   4 47271.3 580.642   7
   7   1  -3 2720.34 211.185   2
  -7  -1   3 2779.10 158.258   7
   7  -1  -3 2810.49 202.272   2
   7   1  -2 18456.9 548.608   2
  -7  -1   2 19401.4 455.603   7
   7  -1  -2 18307.0 531.719   2
   7   1  -1 7187.25 352.643   2
  -7  -1   1 7255.58 304.041   7
   7  -1  -1 6721.74 331.955   2
   7   1   0 2170.36 201.981   2
  -7  -1   0 2409.95 195.139   7
  -7   1   0 2217.91 150.206   6
   7  -1   0 2335.04 202.879   2
   7   1   1 9248.20 419.857   2
  -7   1  -1 9374.95 281.650   6
   7  -1   1 9064.82 416.372   2
   7   1   2 671.319 119.687   2
   7  -1   2 721.737 130.742   2
  -7  -1  -2 1018.07 203.900   7
   7   1   3 18.6790 55.0192   2
   7  -1   3 33.6027 55.2246   2
   7  -1   4 4427.50 323.159   2
   7   1   4 4315.31 317.135   2
   7  -1   5 5128.99 360.553   2
  -7   1  -5 4840.19 340.583   3
   7   1   5 4728.71 339.796   2
  -7   1  -6 5419.46 380.038   3
   7   1   6 5149.10 367.649   2
   7   2  -9 16569.2 663.981   3
   7  -2  -9 17250.2 677.678   3
  -7  -2   9 16964.1 661.553   4
  -7   2   9 16043.1 585.555   4
   7   2  -8 2221.52 232.403   3
   7  -2  -8 2258.38 244.188   3
  -7  -2   8 2311.20 242.219   4
  -7   2   8 2089.50 211.674   4
   7   2  -7 7507.91 405.075   3
   7  -2  -7 7407.36 411.817   3
  -7  -2   7 7556.60 413.456   4
   7   2  -6 5037.36 316.330   3
  -7   2   6 5345.63 263.752   1
  -7  -2   6 5034.98 329.693   4
   7   2  -5 6918.50 350.566   3
  -7  -2   5 6503.32 360.423   4
   7   2  -5 6788.93 343.064   2
   7  -2  -5 6971.57 291.428   2
  -7   2   5 6536.31 302.472   1
   7   2  -4 322.279 85.9874   2
   7   2  -4 268.247 72.6936   3
   7  -2  -4 259.763 66.8312   2
  -7  -2   4 220.338 73.3576   4
  -7  -2   4 209.067 52.5569   7
  -7  -2   3 4138.58 276.189   4
   7   2  -3 4108.17 270.213   2
  -7  -2   3 4337.33 221.598   7
   7  -2  -3 4125.37 244.281   2
   7   2  -2 13842.6 497.783   2
  -7  -2   2 14323.0 425.850   7
   7  -2  -2 13498.5 460.251   2
   7  -2  -1 20888.5 592.333   2
   7   2  -1 21182.5 622.358   2
  -7  -2   1 21589.8 552.425   7
  -7   2   1 21055.1 523.381   6
   7  -2   0 6230.00 337.525   2
   7   2   0 6254.72 344.316   2
  -7  -2   0 6508.44 318.804   7
  -7   2   0 6450.42 276.423   6
   7  -2   1 13541.2 511.825   2
   7   2   1 14247.9 529.761   2
  -7  -2  -1 13663.7 491.072   7
  -7   2  -1 14036.8 386.868   6
   7   2   2-40.3722 58.3352   2
   7  -2   2 120.920 76.3835   2
  -7  -2  -2-16.1027 55.7148   7
   7  -2   3 5725.18 363.814   2
   7   2   3 5609.79 350.949   2
  -7  -2  -3 5615.56 366.997   7
   7   2   4 656.743 136.657   2
   7  -2   4 433.683 116.382   2
  -7  -2  -4 765.959 184.017   7
   7  -2   5 7800.55 454.297   2
  -7   2  -5 7469.90 440.121   3
   7   2   5 7241.39 425.785   2
  -7  -2  -5 7605.38 696.711   7
   7   2   6 278.150 96.1342   2
   7   3  -8 7526.88 428.593   3
   7  -3  -8 7561.37 438.119   3
  -7  -3   8 7193.82 433.579   4
  -7   3   8 7222.13 383.339   4
   7   3  -7 5513.79 350.130   3
  -7  -3   7 5731.16 371.247   4
   7   3  -6 9519.70 434.643   3
  -7  -3   6 9298.27 456.755   4
  -7   3   6 9286.31 379.858   1
   7  -3  -5 3520.14 210.235   5
   7   3  -5 3785.11 259.097   3
  -7   3   5 3621.20 242.025   1
  -7  -3   5 3561.92 277.406   4
   7   3  -4 11934.8 440.467   3
  -7  -3   4 11874.0 489.004   4
   7   3  -4 12197.2 489.133   2
  -7  -3   4 13040.4 411.404   7
  -7   3   4 13032.1 468.226   1
   7  -3  -4 12930.0 417.920   2
   7   3  -3 10221.1 385.772   3
  -7  -3   3 9883.03 431.759   4
   7   3  -3 9694.89 432.725   2
  -7  -3   3 9977.35 373.224   7
  -7   3   3 9976.55 414.563   6
   7  -3  -3 10021.0 387.255   2
   7  -3  -2 15155.3 493.072   2
  -7  -3   2 15463.2 527.315   4
   7   3  -2 14940.1 537.389   2
  -7  -3   2 15241.4 477.851   7
  -7   3   2 15160.9 493.040   6
   7  -3  -1 16366.8 535.308   2
  -7  -3   1 16559.1 531.124   4
   7   3  -1 15881.1 564.879   2
  -7  -3   1 16177.1 511.898   7
  -7   3   1 15687.8 487.513   6
   7  -3   0 10112.9 441.757   2
   7   3   0 10958.9 472.344   2
  -7  -3   0 11135.8 447.270   7
  -7   3   0 10941.2 390.918   6
   7  -3   1 2644.26 234.682   2
   7   3   1 2732.68 244.299   2
  -7  -3  -1 2821.87 235.180   7
  -7   3  -1 3017.80 202.859   6
   7  -3   2 1836.50 194.059   2
   7   3   2 1980.84 212.373   2
  -7  -3  -2 1763.81 197.516   7
   7  -3   3 1934.49 209.299   2
   7   3   3 2114.42 225.419   2
  -7  -3  -3 2147.07 227.729   7
   7   3   4 706.460 138.283   2
   7  -3   4 593.236 102.089   2
  -7  -3  -4 638.864 143.433   7
   7   3   5 2868.14 270.152   2
   7   4  -8 2333.36 244.319   3
   7  -4  -8 2233.67 245.867   3
   7   4  -7 4523.34 319.993   3
  -7  -4   7 4170.10 332.336   4
  -7   4   7 4282.52 333.136   6
   7   4  -6 5274.51 327.533   3
  -7  -4   6 5685.98 376.912   4
  -7   4   6 5318.85 313.789   1
  -7   4   6 5182.38 349.678   6
  -7   4   5 3832.28 270.235   1
   7  -4  -5 4105.40 256.478   5
   7   4  -5 4209.11 275.338   3
  -7  -4   5 4171.90 311.241   4
  -7   4   5 3807.86 292.580   6
  -7   4   4 114.877 62.2588   1
   7   4  -4 48.6565 52.6804   3
   7  -4  -4 139.622 53.6612   2
  -7  -4   4 95.5150 69.2340   4
  -7   4   4 74.1759 54.4759   6
   7  -4  -3 3652.29 241.795   2
   7   4  -3 4061.76 236.364   3
  -7  -4   3 4042.55 283.901   4
   7   4  -3 3845.58 291.259   2
  -7   4   3 3914.17 282.390   1
  -7  -4   3 3917.34 262.614   7
  -7   4   3 3989.49 279.616   6
  -7   4   2 6073.85 353.643   1
   7  -4  -2 6092.33 325.148   2
  -7  -4   2 6229.47 344.841   4
   7   4  -2 5958.47 364.709   2
  -7  -4   2 6595.00 341.681   7
  -7   4   2 6697.65 354.539   6
   7  -4  -1 14580.9 525.211   2
  -7  -4   1 14956.2 515.226   4
   7   4  -1 14933.9 573.008   2
  -7  -4   1 15338.5 537.408   7
  -7   4   1 14792.3 510.538   6
   7  -4   0 2971.29 247.836   2
  -7  -4   0 3571.78 245.611   4
   7   4   0 3577.69 282.246   2
  -7  -4   0 3418.72 265.108   7
  -7   4   0 3684.60 253.397   6
   7  -4   1 8614.06 433.433   2
  -7  -4  -1 9229.91 383.400   4
   7   4   1 9026.15 450.701   2
  -7  -4  -1 8876.91 443.186   7
  -7   4  -1 9065.39 381.788   6
   7   4   2 30.3418 60.7537   2
   7  -4   2-29.3975 83.0161   2
  -7  -4  -2 15.4036 60.6303   7
   7  -4   3 3987.92 322.914   2
   7   4   3 4118.07 316.811   2
  -7  -4  -3 3991.55 321.347   7
   7   4   4 213.154 87.3660   2
   7   4   5 6061.25 399.044   2
   7   5  -8 243.674 92.7002   3
   7   5  -7 11955.9 523.369   3
   7   5  -6 7109.97 380.404   3
   7  -5  -6 7274.42 385.245   5
  -7  -5   6 7504.24 445.263   4
  -7   5   6 7121.85 399.235   1
  -7   5   6 6776.10 422.583   6
   7  -5  -5 7704.58 389.171   5
  -7  -5   5 7708.40 436.144   4
  -7   5   5 8010.50 419.305   1
  -7   5   5 7860.17 442.372   6
  -7   5   4 22285.4 703.870   1
  -7  -5   4 22873.8 724.689   4
  -7   5   4 22089.8 719.682   6
   7  -5  -3 1469.92 158.247   2
  -7   5   3 1663.52 198.192   1
  -7  -5   3 1454.97 179.403   4
  -7   5   3 1671.51 201.244   6
   7  -5  -2 14410.4 523.563   2
  -7  -5   2 14061.0 529.769   4
  -7   5   2 14933.2 586.356   1
  -7  -5   2 14654.3 551.313   7
  -7   5   2 14055.7 544.077   6
   7  -5  -1 2250.03 216.291   2
  -7  -5   1 2382.71 211.105   4
   7   5  -1 2454.90 248.536   2
  -7  -5   1 2499.78 236.823   7
  -7   5   1 2530.86 250.671   1
  -7   5   1 2410.73 228.153   6
  -7  -5   0 1413.62 160.723   4
   7   5   0 1369.96 188.680   2
   7  -5   0 1207.88 169.793   2
  -7  -5   0 1230.85 173.286   7
  -7   5   0 1421.65 172.504   6
  -7   5   0 1329.99 181.562   1
   7  -5   1 2757.36 265.931   2
   7   5   1 2726.35 262.345   2
  -7  -5  -1 2525.80 256.867   7
   7   5   2 114.801 72.5524   2
  -7  -5  -2 48.0296 59.0057   7
   7   5   3-38.1871 60.7917   2
   7  -6  -6 9673.95 483.418   5
  -7   6   6 10603.3 514.825   1
  -7   6   5 133.267 76.0154   1
  -7   6   4 27.3929 60.2827   1
  -7  -6   4 167.552 84.1903   4
  -7   6   3 6372.04 408.285   1
  -7  -6   3 5545.33 358.506   4
  -7   6   3 5579.83 377.988   6
  -7   6   2 124.010 75.6594   1
  -7  -6   2 104.195 73.1719   4
  -7  -6   2 48.8062 74.7863   7
   7  -6  -2-17.7632 65.5516   2
  -7   6   2 117.141 71.9564   6
   7  -6  -1 4634.02 330.140   2
  -7   6   1 4782.21 359.954   1
  -7  -6   1 4688.26 345.401   7
  -7   6   1 4863.87 344.407   6
   7  -6   0 1737.27 227.249   2
  -7  -6   0 1342.84 195.162   7
   7  -6   1 2525.92 277.704   2
  -7  -7   3 1045.33 174.753   4
   7  -7  -1 2990.67 287.791   2
  -8   0   9 1672.42 210.696   4
   8   0  -8 15423.5 637.641   3
  -8   0   8 14690.7 599.390   4
   8   0  -7 23144.5 750.636   3
  -8   0   7 23523.0 741.129   4
   8   0  -6 19965.5 670.457   3
  -8   0   6 19738.8 661.169   4
   8   0  -6 20171.5 562.801   2
   8   0  -5 7797.49 360.381   2
   8   0  -4 14235.7 495.272   2
   8   0  -3 428.835 95.7318   2
   8   0  -2 1476.59 174.065   2
   8   0  -1 202.111 70.5724   2
   8   0   0 425.364 114.390   2
   8   0   1 69.5729 72.9814   2
   8   0   2 8752.56 456.026   2
   8   0   3-47.2130 54.4683   2
   8   0   4 2266.69 250.361   2
  -8   1   9 1842.44 215.235   4
   8   1  -8 9264.40 491.285   3
   8  -1  -8 9663.34 507.468   3
  -8  -1   8 9348.21 495.617   4
  -8   1   8 9447.66 479.388   4
   8   1  -7 5212.33 355.275   3
   8  -1  -7 5497.74 371.434   3
  -8  -1   7 5345.27 364.452   4
  -8   1   7 4930.66 341.709   4
   8   1  -6 14265.0 561.413   3
  -8  -1   6 14045.1 571.671   4
   8   1  -6 14482.0 506.527   2
  -8  -1   5 10983.6 494.098   4
   8   1  -5 11667.3 457.443   2
   8  -1  -5 11867.6 430.301   2
   8   1  -4 5119.08 307.203   2
   8  -1  -4 5395.85 302.255   2
   8   1  -3 7635.66 382.628   2
   8  -1  -3 7370.61 363.265   2
   8   1  -2 3191.93 250.864   2
  -8  -1   2 3901.09 234.371   7
   8  -1  -2 3502.68 256.104   2
   8   1  -1 14786.2 550.644   2
  -8  -1   1 16236.5 530.378   7
  -8   1   1 14939.4 440.311   6
   8  -1  -1 13956.1 524.800   2
   8   1   0 78.0022 56.8882   2
   8  -1   0 14.9510 50.2466   2
   8   1   1 318.484 90.4917   2
   8  -1   1 389.186 103.707   2
  -8  -1  -1 555.790 179.883   7
   8   1   2 3248.05 280.415   2
  -8  -1  -2 2415.87 365.865   7
   8  -1   2 3357.72 286.985   2
   8   1   3 4387.14 333.129   2
   8  -1   3 4122.34 325.610   2
   8   1   4 1238.89 185.784   2
  -8   2   9 623.679 131.691   4
   8   2  -8 25478.9 818.933   3
  -8  -2   8 25159.5 814.622   4
  -8   2   8 23656.5 748.030   4
   8   2  -7 5419.27 361.868   3
   8  -2  -7 5896.81 388.463   3
  -8  -2   7 5486.09 376.781   4
   8   2  -6 8090.01 422.340   3
  -8  -2   6 8165.60 442.552   4
  -8   2   5 3751.52 251.290   1
   8   2  -5 4303.96 296.900   3
  -8  -2   5 3767.35 295.944   4
   8   2  -5 3960.38 281.067   2
   8  -2  -5 4456.92 259.989   2
  -8  -2   4 1957.75 214.235   4
   8   2  -4 1875.58 197.397   2
   8  -2  -4 1939.09 179.569   2
   8   2  -3 6273.64 358.878   2
  -8  -2   3 6593.95 291.221   7
   8  -2  -3 6508.55 339.289   2
   8   2  -2 2754.69 243.274   2
  -8  -2   2 2767.60 197.798   7
  -8   2   2 2692.41 206.741   6
   8  -2  -2 2937.07 238.206   2
   8   2  -1 2895.37 251.949   2
  -8  -2   1 2724.40 213.583   7
  -8   2   1 3120.52 214.823   6
   8  -2  -1 3072.98 250.258   2
   8   2   0 5283.84 346.561   2
  -8  -2   0 5296.42 313.084   7
  -8   2   0 5301.77 265.503   6
   8  -2   0 5322.03 337.262   2
   8  -2   1 1490.70 191.760   2
   8   2   1 1032.58 158.307   2
  -8  -2  -1 1283.65 170.317   7
   8  -2   2 9549.23 482.798   2
   8   2   2 9238.92 477.990   2
  -8  -2  -2 9919.99 495.907   7
   8   2   3 689.166 143.399   2
   8  -2   3 584.418 136.115   2
  -8  -2  -3 598.630 175.945   7
   8   3  -8 2310.70 250.681   3
   8   3  -7 4593.27 332.650   3
  -8  -3   7 4943.50 363.258   4
  -8   3   6 3619.58 255.987   1
   8   3  -6 3233.34 267.863   3
  -8  -3   6 3418.19 294.258   4
   8   3  -5 1510.41 173.811   3
  -8  -3   5 1666.83 207.489   4
   8   3  -5 1548.82 190.745   2
  -8   3   5 1439.46 170.394   1
  -8   3   4 7355.13 382.498   1
   8   3  -4 6917.22 355.776   3
  -8  -3   4 7392.98 408.741   4
   8   3  -4 7518.12 409.060   2
  -8   3   4 7112.51 381.117   6
   8  -3  -4 7672.29 357.086   2
   8   3  -3 3110.84 228.503   3
  -8  -3   3 2876.67 255.129   4
   8   3  -3 3007.29 260.600   2
  -8  -3   3 2930.96 213.539   7
  -8   3   3 2952.01 241.865   6
   8  -3  -3 3026.25 233.657   2
   8   3  -2 113.193 80.7643   2
   8  -3  -2-17.0704 44.1320   2
  -8  -3   2-0.16067 55.6387   4
  -8  -3   2 50.2719 57.7897   7
  -8   3   2 14.9026 59.7078   6
   8  -3  -1 24331.2 708.852   2
  -8  -3   1 24683.9 701.204   4
   8   3  -1 24376.5 751.188   2
  -8  -3   1 25041.4 679.130   7
  -8   3   1 25348.4 649.584   6
   8   3   0 116.625 84.5493   2
   8  -3   0 25.2735 56.3460   2
  -8  -3   0-13.2583 63.6472   7
  -8   3   0-0.16030 42.6121   6
   8  -3   1 2505.57 248.199   2
   8   3   1 2475.98 250.060   2
  -8  -3  -1 2096.77 217.715   7
   8  -3   2 8071.31 453.392   2
   8   3   2 7839.92 447.558   2
  -8  -3  -2 7799.35 435.047   7
   8   3   3 1428.97 195.860   2
  -8  -3  -3 1823.74 228.645   7
   8   4  -7 4238.19 322.316   3
   8   4  -6 5604.77 351.156   3
  -8  -4   6 5948.93 401.469   4
  -8   4   6 5527.36 380.258   6
  -8   4   6 6024.80 352.271   1
   8   4  -5 3561.17 268.857   3
  -8   4   5 3631.06 277.367   1
  -8  -4   5 3831.03 311.041   4
  -8   4   5 3382.64 290.815   6
  -8  -4   4 2356.02 241.612   4
  -8   4   4 2717.54 245.625   1
  -8   4   4 2036.09 218.107   6
   8  -4  -3 3700.24 265.449   2
  -8  -4   3 3857.67 296.887   4
   8   4  -3 4128.66 319.409   2
  -8  -4   3 4088.29 273.870   7
  -8   4   3 3799.03 295.621   1
  -8   4   3 3724.57 289.640   6
   8  -4  -2 2951.82 244.186   2
  -8  -4   2 2789.65 247.481   4
   8   4  -2 2874.04 271.835   2
  -8  -4   2 2668.78 231.738   7
  -8   4   2 2967.24 246.159   6
   8  -4  -1 1346.66 175.669   2
  -8  -4   1 1198.79 162.327   4
   8   4  -1 1390.21 194.241   2
  -8  -4   1 1404.65 177.101   7
  -8   4   1 1177.07 153.029   6
   8  -4   0 2933.77 259.437   2
  -8  -4   0 3178.13 249.064   4
   8   4   0 3233.39 290.507   2
  -8  -4   0 2917.05 258.955   7
  -8   4   0 3313.80 251.172   6
   8   4   1 721.845 147.529   2
   8  -4   1 531.163 99.7491   2
  -8  -4  -1 740.101 140.821   7
   8   4   2 6452.23 420.127   2
  -8  -4  -2 6517.27 412.302   7
  -8   5   6 6854.17 403.399   1
  -8   5   5 6911.36 408.451   1
  -8   5   4 1721.25 210.815   1
  -8  -5   4 1649.73 209.840   4
  -8   5   4 1750.64 212.092   6
   8  -5  -3 4500.05 301.443   2
  -8   5   3 4221.10 329.606   1
  -8  -5   3 4514.33 330.604   4
  -8  -5   3 4280.06 305.130   7
  -8   5   3 4514.87 333.214   6
   8  -5  -2 2703.72 245.533   2
  -8  -5   2 2813.89 254.653   4
   8   5  -2 3112.09 293.772   2
  -8   5   2 2908.54 278.743   1
  -8  -5   2 2860.76 259.130   7
  -8   5   2 3001.90 265.811   6
   8  -5  -1 8939.07 461.880   2
  -8  -5   1 9439.48 447.090   4
   8   5  -1 9844.73 521.105   2
  -8  -5   1 9350.78 472.824   7
  -8   5   1 9985.57 515.646   1
  -8   5   1 10031.0 477.470   6
  -8  -5   0-7.69584 49.5827   7
  -8   5   0 8.58237 51.1485   6
  -8  -6   3 187.951 80.8087   4
  -8  -6   3 43.1509 52.3596   7
  -8  -6   2 1094.46 168.655   4
   8  -6  -2 775.224 119.763   2
  -8  -6   2 990.118 167.144   7
   8  -6  -1-124.531 113.488   2
   9   0  -7 1504.15 207.494   3
  -9   0   7 1375.72 201.696   4
   9   0  -6 14316.3 518.510   2
   9   0  -5 2601.41 229.240   2
   9   0  -4 1624.39 185.155   2
   9   0  -3 1017.42 151.408   2
   9   0  -2-10.2183 48.8564   2
   9   0  -1 2910.83 263.292   2
   9   0   0 1862.72 218.336   2
   9   0   1 835.917 154.858   2
   9   1  -7 10536.5 529.681   3
  -9   1   7 10234.8 515.640   4
   9   1  -6 717.001 123.706   2
   9   1  -6 607.759 133.492   3
  -9  -1   6 644.714 138.619   4
   9   1  -5 343.565 93.3864   2
   9  -1  -5 285.702 84.0102   2
  -9  -1   5 356.197 112.704   4
   9   1  -4 6658.77 381.329   2
   9  -1  -4 6692.19 364.518   2
   9   1  -3 422.011 103.211   2
   9  -1  -3 430.533 104.719   2
   9   1  -2 174.855 88.1191   2
   9  -1  -2 101.593 79.3823   2
   9   1  -1 477.209 115.178   2
   9  -1  -1 458.350 115.086   2
   9   1   0 420.074 112.311   2
   9  -1   0 472.115 110.978   2
   9   1   1 1520.79 202.524   2
   9  -1   1 1502.48 200.545   2
   9   2  -7 359.976 101.679   3
   9   2  -6 6924.14 410.974   3
  -9  -2   6 6453.37 418.504   4
   9   2  -6 6227.09 379.200   2
   9   2  -5 55.3445 69.1480   2
   9   2  -5 83.3060 72.3156   3
  -9  -2   5 205.223 85.4494   4
  -9  -2   4 6596.60 405.106   4
   9   2  -4 6541.70 389.261   2
   9  -2  -4 6346.23 355.452   2
   9   2  -3 929.065 151.311   2
   9  -2  -3 901.224 144.367   2
  -9   2   3 959.193 143.438   6
   9   2  -2 1752.65 209.716   2
  -9   2   2 1713.27 176.792   6
   9  -2  -2 1656.71 194.519   2
   9   2  -1 10045.1 503.832   2
  -9  -2   1 10957.4 458.845   7
   9  -2  -1 10109.1 487.020   2
   9   2   0 550.643 137.013   2
   9  -2   0 591.581 131.277   2
  -9  -2   0 648.859 135.332   7
   9   2   1 1775.25 224.471   2
  -9  -2  -1 2176.99 274.816   7
   9  -2   1 1928.86 231.310   2
  -9  -2  -2 11789.7 749.636   7
   9   3  -7 2040.84 234.410   3
   9   3  -6 373.456 112.842   3
  -9   3   5 146.777 80.2682   1
   9   3  -5 65.1118 55.2604   2
   9   3  -5 50.2803 50.8265   3
  -9  -3   5 167.810 93.9100   4
  -9   3   5 78.2708 79.5535   6
   9   3  -4 2201.66 214.926   3
  -9  -3   4 2128.26 238.145   4
   9   3  -4 2215.02 242.867   2
   9  -3  -4 2065.53 203.475   2
  -9   3   4 2033.21 215.720   6
   9   3  -3 4182.43 286.690   3
  -9  -3   3 4058.95 321.329   4
   9   3  -3 4415.63 335.959   2
  -9   3   3 4058.25 298.342   6
   9  -3  -3 4364.22 304.859   2
   9   3  -2 550.107 139.743   2
   9  -3  -2 384.445 104.889   2
  -9  -3   2 352.101 109.287   4
  -9   3   2 500.921 106.472   6
   9   3  -1 208.297 102.111   2
   9  -3  -1 56.9628 54.7266   2
  -9  -3   1 102.125 62.8614   4
  -9  -3   1-1.35106 62.0177   7
   9   3   0 2806.14 283.408   2
  -9  -3   0 2519.94 243.429   7
   9  -3   0 2688.61 266.018   2
  -9  -3  -1 89.8083 88.8834   7
  -9   4   5 3.52285 50.3081   1
  -9  -4   4 4918.49 363.047   4
  -9   4   4 4701.16 342.639   1
  -9   4   4 4573.59 341.841   6
  -9  -4   3 1245.01 183.912   4
  -9   4   3 1269.46 177.079   6
   9  -4  -3 1309.25 178.654   2
  -9   4   3 1184.03 185.929   1
   9  -4  -2 912.225 156.191   2
  -9  -4   2 1002.74 163.147   4
  -9  -4   2 1024.94 157.303   7
  -9   4   2 780.661 141.104   6
   9  -4  -1 7507.41 436.377   2
  -9  -4   1 7512.40 421.273   4
  -9  -4   1 6595.41 391.812   7
  -9  -4   0 71.8880 62.0237   7
  -9  -5   2 32.3507 55.2785   4
   9  -5  -2-60.1545 69.8133   2
  -9  -5   2 73.4313 79.5743   7
  -9   5   2 31.0392 60.6589   6
  10   0  -5 20.8889 53.3211   2
  10   0  -4 13269.8 565.730   2
  10   0  -3 3062.98 279.400   2
  10   0  -2 9710.40 504.565   2
  10   1  -6 6655.56 397.759   2
  10   1  -5 289.857 99.1169   2
  10  -1  -5 268.200 86.4320   2
  10   1  -4 226.943 84.1267   2
  10  -1  -4 330.110 97.9247   2
  10   1  -3 1518.49 205.349   2
  10  -1  -3 1702.55 208.394   2
  10   1  -2 445.987 117.903   2
  10  -1  -2 367.269 109.382   2
  10   2  -6 1443.22 196.881   2
  10   2  -5 801.775 154.607   2
  10   2  -5 736.668 146.023   3
  10   2  -4 9510.50 501.984   2
  10  -2  -4 9336.89 464.763   2
  10  -2  -3 217.569 89.8651   2
 -10   2   3 197.459 83.9823   6
  10  -2  -2 16904.1 659.733   2
 -10  -2  -1 1345.80 340.526   7
 -10   3   4 2487.25 252.575   6
  10  -3  -3 2735.13 262.130   2
 -10   3   3 2420.03 244.460   6
  10  -3  -2 1062.52 174.266   2
 -10  -3   0 97.1591 60.1261   4
   0   0   0    0.00    0.00   0
TITL 176RMEpdMMBS in P2(1)/m
REM P2(1)/m (#11 in standard setting)
CELL 0.71073   8.064354   6.940995   8.619170  90.0000 105.0387  90.0000
ZERR    2.00   0.000304   0.000235   0.000315   0.0000   0.0037   0.0000
LATT  1
SYMM -x, y+1/2,-z
SFAC C H N O
UNIT 22.00 20.00 2.00 2.00
TREF
HKLF 4
END
;
_shelx_hkl_checksum              62778
_shelx_res_file
;
    shelx.res created by SHELXL-2014/7
TITL SIR2014 run in space group P 21/m
CELL  0.71073   8.0644   6.9410   8.6192   90.000  105.039   90.000
ZERR     2.00   0.0003   0.0002   0.0003    0.000    0.004    0.000
LATT   1
SYMM  - X, 1/2 + Y, - Z
SFAC  C    H    N    O    S
UNIT  16 22 2 8 2
MERG   2
OMIT    -3.00 180.00
EQIV $1 -x+1, -y, -z+1
HTAB N1 O3_$1
HTAB N1 O1
EQIV $2 x, y, z-1
HTAB N1 O3_$2
EQIV $3 x, -y+1/2, z-1
HTAB N1 O3_$3
HTAB N1 S1_$2
EQIV $4 -x, -y, -z+1
HTAB C7 O3_$4
FMAP   2
PLAN   25
ACTA
HTAB    2.00000
BOND   $H
CONF
L.S.  10
TEMP  -150.00
WGHT    0.042100    0.212800
FVAR       8.55917
C1    1    0.338964    0.250000    0.597475    10.50000    0.01454    0.01599 =
         0.01273    0.00000    0.00553    0.00000
C2    1    0.222895    0.250000    0.446512    10.50000    0.01261    0.01953 =
         0.01420    0.00000    0.00414    0.00000
AFIX  43
H2    2    0.102863    0.250000    0.436992    10.50000   -1.20000
AFIX   0
C3    1    0.283815    0.250000    0.310024    10.50000    0.01446    0.01640 =
         0.01161    0.00000    0.00166    0.00000
C4    1    0.460406    0.250000    0.328643    10.50000    0.01633    0.01461 =
         0.01159    0.00000    0.00655    0.00000
C5    1    0.575294    0.250000    0.478447    10.50000    0.01182    0.01631 =
         0.01493    0.00000    0.00382    0.00000
AFIX  43
H5    2    0.695106    0.250000    0.486848    10.50000   -1.20000
AFIX   0
C6    1    0.517370    0.250000    0.618304    10.50000    0.01401    0.01533 =
         0.01233    0.00000    0.00329    0.00000
C8    1    0.648999    0.250000    0.778815    10.50000    0.01417    0.02583 =
         0.01274    0.00000    0.00177    0.00000
N1    3    0.521134    0.250000    0.182683    10.50000    0.01563    0.02192 =
         0.01167    0.00000    0.00588    0.00000
O1    4    0.186866    0.250000    0.156129    10.50000    0.01487    0.03442 =
         0.01047    0.00000    0.00100    0.00000
O2    4    0.064373    0.250000    0.702989    10.50000    0.01498    0.05219 =
         0.01954    0.00000    0.00768    0.00000
O3    4    0.314046    0.078348    0.859503    11.00000    0.03316    0.02414 =
         0.02007    0.00573    0.01556    0.00684
S1    5    0.247560    0.250000    0.765436    10.50000    0.01495    0.01921 =
         0.01181    0.00000    0.00628    0.00000
C7    1    0.005189    0.250000    0.129004    10.50000    0.01509    0.08776 =
         0.01667    0.00000   -0.00207    0.00000
H1N   2    0.582713    0.145701    0.177130    11.00000    0.02344
H2N   2    0.429963    0.250000    0.097412    10.50000    0.03721
H8B   2    0.642409    0.139576    0.844092    11.00000    0.03280
H7B   2   -0.033341    0.135670    0.177984    11.00000    0.05255
H7A   2   -0.035756    0.250000    0.021528    10.50000    0.05617
H8A   2    0.762463    0.250000    0.763166    10.50000    0.04327
HKLF 4
REM  SIR2014 run in space group P 21/m
REM R1 =  0.0289 for    1101 Fo > 4sig(Fo)  and  0.0315 for all    1187 data
REM    103 parameters refined using      0 restraints
END
WGHT      0.0419      0.2159
REM Instructions for potential hydrogen bonds
HTAB N1 O3_$1
HTAB N1 O1
HTAB N1 O3_$2
HTAB N1 O3_$3
HTAB N1 S1_$2
HTAB C7 O3_$4
REM Highest difference peak  0.338,  deepest hole -0.456,  1-sigma level  0.056
Q1    1   0.4255  0.2500  0.6067  10.50000  0.05    0.34
Q2    1   0.3753  0.2500  0.3227  10.50000  0.05    0.32
Q3    1   0.3045  0.2500  0.6732  10.50000  0.05    0.31
Q4    1   0.5440  0.2500  0.5475  10.50000  0.05    0.31
Q5    1   0.5800  0.2500  0.6983  10.50000  0.05    0.29
Q6    1   0.2436  0.0801  0.7839  11.00000  0.05    0.28
Q7    1   0.2572  0.2500  0.3807  10.50000  0.05    0.27
Q8    1   0.2848  0.2500  0.5231  10.50000  0.05    0.27
Q9    1   0.5117  0.2224  0.4045  11.00000  0.05    0.26
Q10   1   0.4893  0.2500  0.2640  10.50000  0.05    0.25
Q11   1   0.3012  0.0052  0.8130  11.00000  0.05    0.17
Q12   1   0.2337  0.2500  0.2487  10.50000  0.05    0.16
Q13   1   0.1399  0.1825  0.7271  11.00000  0.05    0.15
Q14   1  -0.0674  0.2500  0.1831  10.50000  0.05    0.14
Q15   1   0.3956  0.0664  0.8427  11.00000  0.05    0.14
Q16   1  -0.0230  0.1482  0.0210  11.00000  0.05    0.14
Q17   1   0.0588  0.1105  0.6532  11.00000  0.05    0.13
Q18   1   0.0409  0.1589  0.6532  11.00000  0.05    0.12
Q19   1   0.0125  0.0565  0.1752  11.00000  0.05    0.12
Q20   1   0.7640  0.1652  0.7629  11.00000  0.05    0.11
Q21   1   0.6759  0.1042  0.8020  11.00000  0.05    0.11
Q22   1   0.5920  0.1734  0.8814  11.00000  0.05    0.10
Q23   1   0.7437  0.2500  0.4936  10.50000  0.05    0.10
Q24   1   0.5087  0.0243  0.4432  11.00000  0.05    0.10
Q25   1   0.6073  0.2500  0.8467  10.50000  0.05    0.09
;
_shelx_res_checksum              88287
loop_
_space_group_symop_operation_xyz
'x, y, z'
'-x, y+1/2, -z'
'-x, -y, -z'
'x, -y-1/2, z'
loop_
_atom_site_type_symbol
_atom_site_label
_atom_site_fract_x
_atom_site_fract_y
_atom_site_fract_z
_atom_site_U_iso_or_equiv
_atom_site_adp_type
_atom_site_calc_flag
_atom_site_occupancy
C C1 0.3390(2) 0.2500 0.5975(2) 0.0141(3) Uani d 1
C C2 0.2229(2) 0.2500 0.4465(2) 0.0153(4) Uani d 1
H H2 0.1029 0.2500 0.4370 0.018 Uiso calc 1
C C3 0.2838(2) 0.2500 0.3100(2) 0.0145(3) Uani d 1
C C4 0.4604(2) 0.2500 0.3286(2) 0.0136(3) Uani d 1
C C5 0.5753(2) 0.2500 0.4784(2) 0.0143(3) Uani d 1
H H5 0.6951 0.2500 0.4868 0.017 Uiso calc 1
C C6 0.5174(2) 0.2500 0.6183(2) 0.0139(3) Uani d 1
C C8 0.6490(2) 0.2500 0.7788(2) 0.0179(4) Uani d 1
N N1 0.5211(2) 0.2500 0.18268(18) 0.0160(3) Uani d 1
O O1 0.18687(16) 0.2500 0.15613(15) 0.0203(3) Uani d 1
O O2 0.06437(18) 0.2500 0.70299(17) 0.0283(4) Uani d 1
O O3 0.31405(13) 0.07835(14) 0.85950(11) 0.0242(3) Uani d 1
S S1 0.24756(5) 0.2500 0.76544(5) 0.01480(15) Uani d 1
C C7 0.0052(3) 0.2500 0.1290(3) 0.0410(7) Uani d 1
H H1N 0.583(2) 0.146(2) 0.1771(19) 0.023(4) Uiso d 1
H H2N 0.430(4) 0.2500 0.097(3) 0.037(7) Uiso d 1
H H8B 0.642(2) 0.140(3) 0.844(2) 0.033(5) Uiso d 1
H H7B -0.033(3) 0.136(3) 0.178(3) 0.053(6) Uiso d 1
H H7A -0.036(4) 0.2500 0.022(4) 0.056(9) Uiso d 1
H H8A 0.762(4) 0.2500 0.763(3) 0.043(8) Uiso d 1
loop_
_atom_site_aniso_label
_atom_site_aniso_U_11
_atom_site_aniso_U_22
_atom_site_aniso_U_33
_atom_site_aniso_U_12
_atom_site_aniso_U_13
_atom_site_aniso_U_23
C1 0.0145(8) 0.0160(8) 0.0127(8) 0.000 0.0055(6) 0.000
C2 0.0126(8) 0.0195(9) 0.0142(8) 0.000 0.0041(6) 0.000
C3 0.0145(8) 0.0164(8) 0.0116(8) 0.000 0.0017(6) 0.000
C4 0.0163(8) 0.0146(8) 0.0116(8) 0.000 0.0066(6) 0.000
C5 0.0118(8) 0.0163(8) 0.0149(8) 0.000 0.0038(6) 0.000
C6 0.0140(8) 0.0153(8) 0.0123(8) 0.000 0.0033(6) 0.000
C8 0.0142(9) 0.0258(10) 0.0127(8) 0.000 0.0018(6) 0.000
N1 0.0156(8) 0.0219(8) 0.0117(7) 0.000 0.0059(6) 0.000
O1 0.0149(7) 0.0344(8) 0.0105(6) 0.000 0.0010(5) 0.000
O2 0.0150(7) 0.0522(10) 0.0195(7) 0.000 0.0077(5) 0.000
O3 0.0332(6) 0.0241(5) 0.0201(5) 0.0068(4) 0.0156(4) 0.0057(4)
S1 0.0150(2) 0.0192(2) 0.0118(2) 0.000 0.00628(16) 0.000
C7 0.0151(10) 0.088(2) 0.0167(10) 0.000 -0.0021(8) 0.000
loop_
_atom_type_symbol
_atom_type_description
_atom_type_scat_dispersion_real
_atom_type_scat_dispersion_imag
_atom_type_scat_source
C C 0.0033 0.0016 'International Tables Vol C Tables 4.2.6.8 and 6.1.1.4'
H H 0.0000 0.0000 'International Tables Vol C Tables 4.2.6.8 and 6.1.1.4'
N N 0.0061 0.0033 'International Tables Vol C Tables 4.2.6.8 and 6.1.1.4'
O O 0.0106 0.0060 'International Tables Vol C Tables 4.2.6.8 and 6.1.1.4'
S S 0.1246 0.1234 'International Tables Vol C Tables 4.2.6.8 and 6.1.1.4'
loop_
_geom_angle_atom_site_label_1
_geom_angle_atom_site_label_2
_geom_angle_atom_site_label_3
_geom_angle_site_symmetry_1
_geom_angle_site_symmetry_3
_geom_angle
C2 C1 C6 . . 122.56(15)
C2 C1 S1 . . 116.02(13)
C6 C1 S1 . . 121.42(13)
C3 C2 C1 . . 119.50(16)
C3 C2 H2 . . 120.2
C1 C2 H2 . . 120.2
O1 C3 C2 . . 126.10(16)
O1 C3 C4 . . 115.26(15)
C2 C3 C4 . . 118.64(16)
C5 C4 C3 . . 121.77(15)
C5 C4 N1 . . 120.73(15)
C3 C4 N1 . . 117.49(15)
C4 C5 C6 . . 120.80(16)
C4 C5 H5 . . 119.6
C6 C5 H5 . . 119.6
C5 C6 C1 . . 116.72(15)
C5 C6 C8 . . 118.44(15)
C1 C6 C8 . . 124.83(15)
C6 C8 H8B . . 113.8(11)
C6 C8 H8A . . 109.9(17)
H8B C8 H8A . . 106.4(14)
C4 N1 H1N . . 111.3(11)
C4 N1 H2N . . 108.6(18)
H1N N1 H2N . . 108.0(14)
C3 O1 C7 . . 118.00(15)
O2 S1 O3 . 4_565 113.68(5)
O2 S1 O3 . . 113.68(5)
O3 S1 O3 4_565 . 109.11(8)
O2 S1 C1 . . 107.28(8)
O3 S1 C1 4_565 . 106.27(5)
O3 S1 C1 . . 106.27(5)
O1 C7 H7B . . 110.8(13)
O1 C7 H7A . . 105(2)
H7B C7 H7A . . 111.6(17)
loop_
_geom_bond_atom_site_label_1
_geom_bond_atom_site_label_2
_geom_bond_site_symmetry_2
_geom_bond_distance
C1 C2 . 1.392(2)
C1 C6 . 1.403(2)
C1 S1 . 1.7869(17)
C2 C3 . 1.388(2)
C2 H2 . 0.9500
C3 O1 . 1.354(2)
C3 C4 . 1.391(2)
C4 C5 . 1.380(2)
C4 N1 . 1.464(2)
C5 C6 . 1.401(2)
C5 H5 . 0.9500
C6 C8 . 1.510(2)
C8 H8B . 0.960(18)
C8 H8A . 0.96(3)
N1 H1N . 0.886(18)
N1 H2N . 0.89(3)
O1 C7 . 1.422(3)
O2 S1 . 1.4351(14)
O3 S1 . 1.4625(10)
S1 O3 4_565 1.4624(10)
C7 H7B . 0.99(2)
C7 H7A . 0.90(4)
loop_
_geom_hbond_atom_site_label_D
_geom_hbond_atom_site_label_H
_geom_hbond_atom_site_label_A
_geom_hbond_site_symmetry_A
_geom_hbond_distance_DH
_geom_hbond_distance_HA
_geom_hbond_distance_DA
_geom_hbond_angle_DHA
N1 H1N O3 3_656 0.89(2) 1.83(2) 2.7100(13) 171.9(16)
N1 H2N O3 1_554 0.89(3) 2.35(3) 3.0909(18) 140.7(14)
N1 H2N O3 4_564 0.89(3) 2.35(3) 3.0909(18) 140.7(14)
loop_
_geom_torsion_atom_site_label_1
_geom_torsion_atom_site_label_2
_geom_torsion_atom_site_label_3
_geom_torsion_atom_site_label_4
_geom_torsion_site_symmetry_4
_geom_torsion
C6 C1 C2 C3 . 0.0000(10)
S1 C1 C2 C3 . 180.000000
C1 C2 C3 O1 . 180.000000
C1 C2 C3 C4 . 0.000000
O1 C3 C4 C5 . 180.000000
C2 C3 C4 C5 . 0.000000
O1 C3 C4 N1 . 0.000000
C2 C3 C4 N1 . 180.000000
C3 C4 C5 C6 . 0.000000
N1 C4 C5 C6 . 180.000000
C4 C5 C6 C1 . 0.0000(10)
C4 C5 C6 C8 . 180.000000
C2 C1 C6 C5 . 0.0000(10)
S1 C1 C6 C5 . 180.000000
C2 C1 C6 C8 . 180.0000(10)
S1 C1 C6 C8 . 0.0000(10)
C2 C3 O1 C7 . 0.000000
C4 C3 O1 C7 . 180.000000
C2 C1 S1 O2 . 0.000000
C6 C1 S1 O2 . 180.000000
C2 C1 S1 O3 4_565 -121.93(5)
C6 C1 S1 O3 4_565 58.07(5)
C2 C1 S1 O3 . 121.93(5)
C6 C1 S1 O3 . -58.07(5)

_cod_database_fobs_code 1544525
