#------------------------------------------------------------------------------
#$Date: 2016-09-24 04:20:45 +0300 (Sat, 24 Sep 2016) $
#$Revision: 186755 $
#$URL: file:///home/coder/svn-repositories/cod/cif/1/54/41/1544191.cif $
#------------------------------------------------------------------------------
#
# This file is available in the Crystallography Open Database (COD),
# http://www.crystallography.net/. The original data for this entry
# were provided by IUCr Journals, http://journals.iucr.org/.
#
# The file may be used within the scientific community so long as
# proper attribution is given to the journal article from which the
# data were obtained.
#
data_1544191
loop_
_publ_author_name
'Bakhite, Etify A.'
'Kaur, Manpreet'
'Mohamed, Shaaban K.'
'Akkurt, Mehmet'
'Jasinski, Jerry P.'
'Albayati, Mustafa R.'
_publ_section_title
;
 Ethyl
 3-amino-2-carbamoyl-4-(4-methoxyphenyl)-6-methylthieno[2,3-<i>b</i>]pyridine-5-carboxylate
 dimethyl sulfoxide monosolvate
;
_journal_coeditor_code           HG4013
_journal_issue                   9
_journal_name_full               IUCrData
_journal_page_first              x161474
_journal_paper_doi               10.1107/S2414314616014747
_journal_volume                  1
_journal_year                    2016
_chemical_formula_iupac          'C19 H19 N3 O4 S, C2 H6 O S'
_chemical_formula_moiety         'C19 H19 N3 O4 S, C2 H6 O S'
_chemical_formula_sum            'C21 H25 N3 O5 S2'
_chemical_formula_weight         463.56
_chemical_name_systematic
'Ethyl 3-amino-2-carbamoyl-4-(4-methoxyphenyl)-6-methylthieno[2,3-<i>b</i>]pyridine-5-carboxylate dimethyl sulfoxide monosolvate'
_space_group_crystal_system      triclinic
_space_group_IT_number           2
_space_group_name_Hall           '-P 1'
_space_group_name_H-M_alt        'P -1'
_symmetry_space_group_name_Hall  '-P 1'
_symmetry_space_group_name_H-M   'P -1'
_atom_sites_solution_hydrogens   mixed
_audit_creation_method           SHELXL-2016/4
_cell_angle_alpha                90.656(5)
_cell_angle_beta                 92.291(5)
_cell_angle_gamma                101.925(5)
_cell_formula_units_Z            2
_cell_length_a                   9.9950(7)
_cell_length_b                   10.1492(5)
_cell_length_c                   11.2620(8)
_cell_measurement_reflns_used    3206
_cell_measurement_temperature    173(2)
_cell_measurement_theta_max      71.4320
_cell_measurement_theta_min      3.9120
_cell_volume                     1116.66(13)
_computing_cell_refinement
;
CrysAlis PRO (Agilent, 2014)
;
_computing_data_collection
;
CrysAlis PRO (Agilent, 2014)
;
_computing_data_reduction
;
CrysAlis PRO (Agilent, 2014)
;
_computing_molecular_graphics
;
OLEX2 (Dolomanov <i>et al.</i>,  2009)
;
_computing_publication_material
;
OLEX2 (Dolomanov <i>et al.</i>,  2009)
;
_computing_structure_refinement
;
SHELXL2014 (Sheldrick, 2015b)
;
_computing_structure_solution
;
SHELXT (Sheldrick, 2015a)
;
_diffrn_ambient_temperature      173(2)
_diffrn_detector_area_resol_mean 16.0416
_diffrn_measured_fraction_theta_full 0.999
_diffrn_measured_fraction_theta_max 0.975
_diffrn_measurement_device       'four-circle diffractometer'
_diffrn_measurement_device_type  'Rigaku Oxford Diffraction'
_diffrn_measurement_method       '\w scans'
_diffrn_radiation_monochromator  graphite
_diffrn_radiation_type           CuK\a
_diffrn_radiation_wavelength     1.54184
_diffrn_reflns_av_R_equivalents  0.0410
_diffrn_reflns_limit_h_max       12
_diffrn_reflns_limit_h_min       -11
_diffrn_reflns_limit_k_max       8
_diffrn_reflns_limit_k_min       -12
_diffrn_reflns_limit_l_max       13
_diffrn_reflns_limit_l_min       -11
_diffrn_reflns_number            6959
_diffrn_reflns_theta_full        67.684
_diffrn_reflns_theta_max         71.391
_diffrn_reflns_theta_min         3.929
_exptl_absorpt_coefficient_mu    2.487
_exptl_absorpt_correction_type   multi-scan
_exptl_absorpt_process_details
;
(CrysAlis PRO; Agilent, 2014)
;
_exptl_crystal_colour            yellow
_exptl_crystal_density_diffrn    1.379
_exptl_crystal_description       prism
_exptl_crystal_F_000             488
_exptl_crystal_size_max          0.34
_exptl_crystal_size_mid          0.18
_exptl_crystal_size_min          0.12
_refine_diff_density_max         0.403
_refine_diff_density_min         -0.454
_refine_ls_extinction_coef       0.0058(7)
_refine_ls_extinction_expression Fc^*^=kFc[1+0.001xFc^2^\l^3^/sin(2\q)]^-1/4^
_refine_ls_extinction_method
;
SHELXL2014 (Sheldrick, 2015b)
;
_refine_ls_goodness_of_fit_ref   1.058
_refine_ls_hydrogen_treatment    mixed
_refine_ls_matrix_type           full
_refine_ls_number_parameters     298
_refine_ls_number_reflns         4247
_refine_ls_number_restraints     4
_refine_ls_restrained_S_all      1.058
_refine_ls_R_factor_all          0.0543
_refine_ls_R_factor_gt           0.0490
_refine_ls_shift/su_max          0.001
_refine_ls_shift/su_mean         0.000
_refine_ls_structure_factor_coef Fsqd
_refine_ls_weighting_details
'w=1/[\s^2^(Fo^2^)+(0.0879P)^2^+0.1101P] where P=(Fo^2^+2Fc^2^)/3'
_refine_ls_weighting_scheme      calc
_refine_ls_wR_factor_gt          0.1322
_refine_ls_wR_factor_ref         0.1393
_reflns_number_gt                3706
_reflns_number_total             4247
_reflns_threshold_expression     'I > 2\s(I)'
_cod_data_source_file            hg4013sup1.cif
_cod_data_source_block           I
_cod_database_code               1544191
_shelx_space_group_comment
;
The symmetry employed for this shelxl refinement is uniquely defined
by the following loop, which should always be used as a source of
symmetry information in preference to the above space-group names.
They are only intended as comments.
;
_shelx_hkl_file
;
   0   0   1 100227. 1823.65  27
   0   0   2 33790.6 1044.26  27
   0   0   2 55220.0 958.172  31
   0   0   3 2403.63 208.754  21
   0   0   3 1691.00 206.157  27
   0   0   4 227233. 4592.25  27
   0   0   4 238236. 4393.10  21
   0   0   5 753.636 199.245  27
   0   0   5 816.472 169.044  21
   0   0   6 81821.0 2142.96  21
   0   0   6 86009.6 2492.91  27
   0   0   7 259.385 157.695  27
   0   0   8 109369. 3484.09  27
   0   0   9 4510.71 633.345   3
   0   0   9 4007.13 606.178   9
   0   0  10 21091.5 1424.82   3
   0   0  10 18917.4 1350.18   9
   0   0  11 19868.7 1340.91   3
   0   0  11 19124.6 1338.21   9
   0   0  12 1155.51 316.770   3
   0   0  12 1035.54 302.506   9
   0   0  13 5039.63 506.568   3
   0  -1  13 330.072 160.327  18
   0  -1  12 43684.1 1844.13   3
   0  -1  12 42226.5 1917.91   9
   0  -1  11 3186.33 549.397   9
   0  -1  11 4212.83 609.498   3
   0  -1  10 48765.0 2267.24   9
   0  -1  10 48813.8 2220.78   3
   0  -1   9 2731.63 487.265   3
   0  -1   9 2019.42 446.884   9
   0  -1   8 3543.63 534.206  27
   0  -1   7 3401.46 399.025  21
   0  -1   7 3416.73 472.577  27
   0  -1   6 4336.86 475.358  27
   0  -1   6 4694.89 415.349  24
   0  -1   6 4096.89 406.782  21
   0  -1   5 30921.0 1118.80  24
   0  -1   5 31925.2 1234.00  27
   0  -1   4 311134. 5602.81  21
   0  -1   4 319081. 5672.46  27
   0  -1   3 31002.2 966.664  21
   0  -1   3 30688.0 970.966  27
   0  -1   2 12483.9 382.343  22
   0  -1   2 14132.6 494.288  27
   0  -1   1 2278.66 153.687   1
   0  -1   1 2174.34 126.829  27
   0  -1   0 15056.0 383.909  28
   0  -1  -1 15899.7 383.440  22
   0  -1  -1 15371.7 371.611  29
   0   1   1 13917.9 420.811  27
   0  -1  -1 14158.8 392.578  28
   0  -1  -2 1878.54 128.147  28
   0   1   2 2194.44 197.420  27
   0   1   3 12330.7 583.002  27
   0   1   4 82280.1 2031.22   2
   0   1   4 66349.8 1908.78  27
   0   1   5 9156.78 694.000   2
   0   1   5 9124.95 491.740  21
   0   1   6 3476.57 454.718  27
   0   1   7 196.929 139.411  27
   0   1   8 10417.0 979.772  27
   0   1   9 16658.9 1216.11   9
   0   1   9 15905.9 1223.56   3
   0   1  10 69772.5 2721.07   9
   0   1  10 71138.0 2788.67   3
   0   1  11 31617.6 1729.34   3
   0   1  11 31236.8 1697.83   9
   0   1  12 18972.1 1199.23   3
   0   1  12 16646.1 1117.92   9
   0   1  13 6486.27 586.442   3
   0  -2  13 1298.79 280.210  18
   0  -2  12 805.674 258.665   9
   0  -2  11 3648.14 576.668   9
   0  -2  10 6267.24 775.702   9
   0  -2   9 5670.12 733.132   9
   0  -2   8 973.721 273.592  27
   0  -2   7 18941.2 1132.82  27
   0  -2   7 22809.7 1119.51  24
   0  -2   7 20921.3 1096.70  21
   0  -2   6 20726.4 980.612  24
   0  -2   6 19477.7 1026.72  27
   0  -2   6 20525.9 1014.94  21
   0  -2   5 28960.9 1137.51  27
   0  -2   5 27384.5 1118.14  21
   0  -2   5 26316.8 1054.19  24
   0  -2   4 567.392 133.135  31
   0  -2   4 849.902 169.373  24
   0  -2   4 593.792 139.607  27
   0  -2   3 56836.8 1451.48  31
   0  -2   3 55226.2 1488.26  21
   0  -2   3 59849.5 1437.07  27
   0  -2   2 164744. 3016.07  27
   0  -2   1 2879.04 187.437   1
   0  -2   1 2409.45 177.369  28
   0  -2   0 22485.1 596.878  24
   0  -2   0 23521.4 629.426  31
   0  -2  -1 138919. 2529.16  22
   0   2   1 134755. 2505.76  27
   0  -2  -1 132855. 2549.67  28
   0  -2  -1 128384. 2481.54  29
   0  -2  -1 131636. 2375.11  32
   0  -2  -2 15507.4 347.829  31
   0   2   2 16163.7 608.362  27
   0  -2  -2 15073.9 475.535  29
   0  -2  -2 15524.1 531.123  28
   0   2   3 33736.7 1118.64  27
   0  -2  -3 34538.1 834.384  29
   0  -2  -3 35753.3 806.790  23
   0   2   4 64138.0 1800.14   2
   0   2   4 67774.7 1932.61  27
   0  -2  -4 69792.3 1413.38  29
   0   2   5 4490.96 481.972  27
   0   2   5 3466.60 399.375   2
   0   2   6 15.2401 125.299  27
   0   2   6 86.0833 105.732   2
   0   2   7 54043.4 2237.79  27
   0   2   8 72655.6 2917.74  27
   0   2   9 36248.5 1816.85   9
   0   2   9 32319.1 1797.37   3
   0   2  10 12812.5 1050.95   9
   0   2  10 10944.7 1026.41   3
   0   2  11 1857.99 379.584   9
   0   2  11 1738.19 412.471   3
   0   2  12 4105.60 544.497   3
   0   2  13 2018.44 331.101   3
   0  -3  13 317.400 133.587  18
   0  -3  12 8005.72 762.085  18
   0  -3  11 24849.1 1516.58   9
   0  -3  10 4.81672 156.364   9
   0  -3   9 353.075 225.150   9
   0  -3   8 36687.1 1710.34   6
   0  -3   8 35232.0 1602.63  21
   0  -3   8 39395.0 1720.10  24
   0  -3   7 39381.3 1675.14  21
   0  -3   7 45783.7 1771.46  24
   0  -3   6 5135.90 502.616  27
   0  -3   6 4627.85 489.249  24
   0  -3   6 5225.58 543.551  21
   0  -3   5 61862.9 1952.67  21
   0  -3   5 66852.7 1945.55  24
   0  -3   5 60730.9 1814.63  27
   0  -3   4 101063. 2492.86  24
   0  -3   4 99300.1 2311.16  27
   0  -3   4 99629.0 2423.11  31
   0  -3   4 105814. 2598.18  21
   0  -3   3 65714.9 1824.37  21
   0  -3   3 71268.3 1632.38  27
   0  -3   3 68695.6 1792.57  24
   0  -3   3 64264.9 1754.47  31
   0  -3   2 54212.8 1491.98  21
   0  -3   2 56822.7 1212.74  27
   0  -3   2 55431.2 1482.86  31
   0  -3   2 51144.7 1398.78  22
   0  -3   2 55534.1 1449.52  24
   0  -3   1 147117. 3094.19  31
   0  -3   1 140397. 3072.78  21
   0  -3   0 7791.28 393.146  31
   0  -3   0 7376.07 364.094  24
   0  -3   0 6875.86 252.345   1
   0  -3   0 7503.10 409.024  28
   0  -3  -1 6977.52 397.123  28
   0  -3  -1 7715.95 347.338  31
   0  -3  -2 40547.8 972.793  32
   0  -3  -2 33872.5 1042.40  28
   0  -3  -2 35303.6 816.293  31
   0   3   2 38184.9 1089.02  27
   0   3   3 16150.0 758.666   2
   0  -3  -3 18087.3 626.821  23
   0   3   4 139519. 3313.34   2
   0   3   4 162639. 3599.79  27
   0   3   5 115369. 3064.02   2
   0   3   5 146538. 3535.29  27
   0   3   6 1509.27 355.142  27
   0   3   6 1051.76 277.971   2
   0   3   7 1825.62 384.021   2
   0   3   7 2085.76 435.209  27
   0   3   8 23054.0 1452.61   3
   0   3   9 6832.58 805.220   3
   0   3  10 266.952 182.352   3
   0   3  11 61.6440 121.449   3
   0   3  12 4690.92 573.409   3
   0   3  13 78.1489 78.0811   3
   0  -4  13 807.667 175.756  12
   0  -4  12 988.028 265.300  18
   0  -4  11 14318.1 1089.57  18
   0  -4  11 14788.6 1100.52   9
   0  -4  10 5032.09 685.171   9
   0  -4  10 5415.10 719.383  18
   0  -4   9-83.0717 131.166   9
   0  -4   8 15942.0 1223.70   9
   0  -4   8 14185.9 1068.40   6
   0  -4   7 2204.66 403.589  21
   0  -4   7 2754.01 436.164  24
   0  -4   6 31828.8 1466.00  21
   0  -4   6 32110.2 1460.61  24
   0  -4   5 314.047 147.118  21
   0  -4   5 441.297 164.296  24
   0  -4   4 40820.6 1301.83  23
   0  -4   4 37505.3 1420.61  24
   0  -4   4 40142.5 1487.76  21
   0  -4   4 36139.6 1336.65  31
   0  -4   3 40610.9 1375.85  24
   0  -4   3 38609.5 1379.40  21
   0  -4   3 38693.5 1341.87  31
   0  -4   2 1336.30 220.357  24
   0  -4   2 1485.06 228.020  31
   0  -4   2 1232.19 218.724  21
   0  -4   1 16087.6 719.033  24
   0  -4   1 16239.5 733.557  31
   0  -4   0 1364.65 189.186  31
   0  -4   0 1256.51 191.326  30
   0  -4  -1 32354.8 957.752  31
   0  -4  -1 29322.9 1031.96  30
   0  -4  -2 5739.11 392.537  23
   0  -4  -2 6288.48 310.487  31
   0  -4  -3 314553. 5831.48  23
   0   4   3 325560. 6148.36   2
   0   4   4 7926.65 610.456   2
   0   4   4 9595.93 688.351  27
   0   4   5 48507.6 1834.11  27
   0   4   5 36817.4 1537.61   2
   0   4   6 1521.72 341.590  27
   0   4   6 1695.59 331.185   2
   0   4   7 20576.5 1411.11  27
   0   4   8 2358.40 478.071   3
   0  -4  -9 810.065 270.153  14
   0   4   9 687.142 266.494   3
   0   4  10 3333.00 553.475   3
   0   4  11 23026.5 1397.00   3
   0   4  12 394.738 180.784   3
   0  -5  12 9230.57 685.456  12
   0  -5  11 5418.47 611.958  18
   0  -5  10 7761.55 723.621  13
   0  -5  10 7589.34 802.503  18
   0  -5   9 2661.44 496.508   9
   0  -5   9 2795.03 518.252  18
   0  -5   9 2738.07 467.650  13
   0  -5   8 6781.08 760.646   6
   0  -5   8 7764.04 790.598  13
   0  -5   7 35075.3 1733.44   6
   0  -5   7 40827.1 1879.89  13
   0  -5   6 3432.39 498.119  24
   0  -5   5 18578.8 1109.56  24
   0  -5   4 57997.9 1814.42  23
   0  -5   4 54359.4 1931.97  24
   0  -5   3 4008.48 447.471  24
   0  -5   3 3717.15 406.153  31
   0  -5   3 3822.38 392.798  23
   0  -5   2 129.245 113.480  24
   0  -5   2 163.418 111.935  31
   0  -5   1 448.121 154.129  31
   0  -5   0 5732.28 455.505  30
   0  -5   0 6498.75 465.825  31
   0  -5  -1 47018.9 1475.35  23
   0  -5  -1 46675.3 1331.18  31
   0  -5  -1 51244.0 1583.92  30
   0  -5  -2 184.207 112.420  30
   0  -5  -2 224.534 105.817  23
   0  -5  -3 3274.09 343.546  23
   0   5   3 2623.91 357.055   2
   0   5   4 10748.3 764.407   2
   0   5   5 27131.5 1359.46   2
   0   5   6 12304.2 948.796   2
   0  -5  -7 13957.5 1051.08  11
   0   5   7 12996.1 1079.63   3
   0   5   8 11658.2 1048.55   3
   0  -5  -9 5903.35 704.943  14
   0   5   9 5135.52 693.346   3
   0  -5 -10 109.829 103.227  14
   0   5  10 161.602 131.990   3
   0   5  11 18540.8 1165.69   3
   0   5  12 5569.32 532.573   3
   0  -6  12 10451.9 635.526  12
   0  -6  11 2737.36 407.614  12
   0  -6  10 9990.84 881.200  12
   0  -6  10 11919.9 861.493  13
   0  -6   9 10431.9 895.281  13
   0  -6   8 28963.1 1594.54  13
   0  -6   7 12294.5 1019.34  13
   0  -6   7 10135.0 936.418   6
   0  -6   6 1546.80 337.919   6
   0  -6   6 2267.52 431.108  13
   0  -6   5 4220.25 555.233  24
   0  -6   4 23641.3 1301.32  24
   0  -6   4 24929.3 1239.18  23
   0  -6   3 2922.78 397.637  23
   0  -6   2 56504.8 1885.43  23
   0  -6   1 234.886 127.449  23
   0  -6   0 29460.7 1243.56  23
   0  -6   0 25678.7 1098.55  30
   0  -6  -1 27750.6 1214.41  23
   0  -6  -1 29062.8 1236.07  30
   0  -6  -2 965.876 227.450  23
   0  -6  -2 1346.89 268.622  30
   0  -6  -3 1656.91 277.812  23
   0   6   3 1456.01 295.296   2
   0   6   4 24115.7 1283.63   2
   0  -6  -5 2.16981 89.5340  11
   0  -6  -6 15565.9 1132.08  11
   0   6   6 16138.8 1179.70   3
   0   6   7 85176.0 3032.87   3
   0  -6  -7 81688.4 2886.89  11
   0   6   8 13492.2 1113.71   3
   0  -6  -9 3940.68 562.069  14
   0   6   9 4785.10 640.784   3
   0   6  10 1401.12 334.135   3
   0  -6 -10 1333.42 312.451  14
   0  -6 -11 17773.4 909.827  14
   0   6  11 18644.1 1054.37   3
   0  -7  11 12554.0 762.258  12
   0  -7  10 105.419 102.067  12
   0  -7  10-30.2826 183.436  13
   0  -7   9 1590.01 358.952  12
   0  -7   9 1781.21 359.125  13
   0  -7   8 22622.8 1363.71  13
   0  -7   8 16687.7 1234.21  12
   0  -7   7 95.1399 127.488  13
   0  -7   7-244.933 167.546  12
   0  -7   6 25540.2 1501.93   6
   0  -7   6 21160.9 1413.93  12
   0  -7   6 26022.9 1529.35  13
   0  -7   5 19677.3 1325.15  12
   0  -7   5 20555.5 1291.54   6
   0  -7   5 21138.0 1349.65  13
   0  -7   4 28080.8 1570.32  12
   0  -7   4 31292.5 1622.23  13
   0  -7   4 31364.4 1544.42  16
   0  -7   3 64027.6 2380.35  12
   0  -7   3 59625.5 2306.19  13
   0  -7   3 62148.3 2235.40  23
   0  -7   2 12597.3 915.972  23
   0  -7   1 601.522 192.595  23
   0  -7   0 1352.82 295.160  23
   0  -7  -1 4345.99 514.158  23
   0  -7  -1 4390.65 491.206  30
   0  -7  -2 106421. 2972.98  23
   0  -7  -2 105086. 3030.41  30
   0  -7  -3 253.871 162.057  11
   0  -7  -4 2214.70 435.430  11
   0  -7  -5 3406.66 542.169  11
   0  -7  -6 58122.2 2404.74  11
   0  -7  -7 5204.13 681.584  11
   0   7   7 6883.84 772.459   3
   0   7   8 343.950 158.167   3
   0  -7  -8 462.897 249.284  14
   0  -7  -9 8864.96 818.664  14
   0   7   9 8503.47 788.193   3
   0  -7 -10 11655.5 819.293  14
   0   7  10 12302.9 850.250   3
   0  -8  10 14783.8 755.895  13
   0  -8  10 14256.1 836.790  12
   0  -8   9 4864.34 553.607  12
   0  -8   9 4537.07 509.498  13
   0  -8   8 912.085 267.279  12
   0  -8   8 1054.85 245.539  13
   0  -8   7 17022.9 1182.29  13
   0  -8   7 12535.2 1051.78  12
   0  -8   6 7797.31 833.836  12
   0  -8   6 8960.42 872.648  13
   0  -8   5 3613.69 570.914  12
   0  -8   5 3325.97 522.731  13
   0  -8   4 3108.04 493.865  16
   0  -8   4 2374.13 457.069  12
   0  -8   4 1879.99 394.179  13
   0  -8   3 37281.4 1796.86  16
   0  -8   3 36377.7 1808.55  13
   0  -8   3 35058.8 1796.82  12
   0  -8   2 2612.84 450.675  12
   0  -8   2 2591.27 455.985  13
   0  -8   2 3001.92 490.722  16
   0  -8   1 3133.30 484.970  12
   0  -8   1 4686.73 578.135   8
   0  -8   1 3904.81 545.039  13
   0  -8   0 10783.4 913.363  16
   0  -8   0 9298.64 854.885  12
   0  -8   0 10142.2 882.822  13
   0  -8  -1 2139.74 407.012  16
   0  -8  -1 2249.72 444.723  12
   0  -8  -1 2033.01 416.406  11
   0  -8  -2 17353.4 1162.71  16
   0  -8  -2 16413.6 1221.02  11
   0  -8  -3 13329.7 1112.34  11
   0  -8  -3 15061.1 1058.46  16
   0  -8  -4 8542.23 890.415  11
   0  -8  -5 18238.0 1307.02  11
   0  -8  -6 5568.09 704.565  11
   0  -8  -7 677.012 286.688  14
   0  -8  -8 12145.7 981.327  14
   0  -8  -9-113.043 138.758  14
   0  -8 -10 6582.56 522.540  14
   0  -9   9 2649.03 327.780  13
   0  -9   9 2086.61 307.989  12
   0  -9   8 1958.42 347.174  13
   0  -9   8 1606.27 313.287  12
   0  -9   7 6378.56 697.525  12
   0  -9   7 10151.7 833.024  13
   0  -9   6 2514.69 442.780  12
   0  -9   6 2913.86 465.604  13
   0  -9   5 4443.92 608.240  13
   0  -9   5 3577.72 546.718  12
   0  -9   5 5244.91 608.791  16
   0  -9   4 5694.76 700.416  13
   0  -9   4 5760.18 703.768  12
   0  -9   4 6208.14 703.419  16
   0  -9   3 289.536 132.944  12
   0  -9   3 710.544 317.725  13
   0  -9   3 497.483 229.885  16
   0  -9   2 1091.59 394.142  13
   0  -9   2 583.066 214.686  16
   0  -9   2 579.250 216.678  12
   0  -9   1 15454.7 1162.29  16
   0  -9   1 17183.7 1222.52  13
   0  -9   1 15011.6 1156.75  12
   0  -9   1 17936.6 1174.55   8
   0  -9   0 6902.23 775.935  12
   0  -9   0 5857.14 700.827  16
   0  -9   0 5587.42 662.809   8
   0  -9  -1 2792.75 512.269  11
   0  -9  -1 3518.68 550.510  16
   0  -9  -2 3599.75 572.756  11
   0  -9  -2 3704.35 551.476  16
   0  -9  -3 3250.95 558.143  11
   0  -9  -3 3484.56 518.296  16
   0  -9  -4 10110.0 973.255  11
   0  -9  -5 5143.67 676.714  11
   0  -9  -6 10679.5 951.548  14
   0  -9  -6 10325.4 932.337  11
   0  -9  -7 510.180 205.136  14
   0  -9  -8 9095.61 755.401  14
   0  -9  -9 772.762 186.308  14
   0 -10   8 1479.82 240.286  12
   0 -10   7 675.392 183.157  12
   0 -10   7 2045.65 381.738  13
   0 -10   6 12920.0 913.696  13
   0 -10   6 7761.72 711.997  12
   0 -10   5 3238.66 439.946  16
   0 -10   5 2065.36 393.750  12
   0 -10   4 184.708 152.281  16
   0 -10   4 26.3600 162.776  12
   0 -10   3 49.0324 160.378  12
   0 -10   3 5.99291 96.7327  16
   0 -10   2 19040.4 1269.54  16
   0 -10   2 20525.7 1351.58  12
   0 -10   1 1610.46 378.111  16
   0 -10   0 4382.23 579.748   8
   0 -10   0 3971.28 593.035  16
   0 -10  -1 130117. 3824.34  11
   0 -10  -1 123719. 3722.25  16
   0 -10  -1 125265. 3666.58   8
   0 -10  -2 30882.6 1578.77  16
   0 -10  -2 30648.2 1688.45  11
   0 -10  -3 4817.65 578.026  16
   0 -10  -3 5616.18 691.331  11
   0 -10  -4-36.6982 165.367  11
   0 -10  -4 512.974 243.269  14
   0 -10  -5 275.065 172.456  11
   0 -10  -5 173.272 123.606  14
   0 -10  -6 25295.2 1325.52  14
   0 -10  -7 11259.0 767.824  14
   0 -11   6 4859.02 453.477  12
   0 -11   5 529.729 223.910  12
   0 -11   4 972.546 302.036  12
   0 -11   4 37.9168 95.9471  16
   0 -11   3 10891.0 827.633  16
   0 -11   2 101.650 125.557  16
   0 -11   1 4353.07 553.196  16
   0 -11   0 12995.1 963.007  16
   0 -11  -1 949.090 254.092   8
   0 -11  -1 594.087 233.384  16
   0 -11  -2 871.127 240.267  11
   0 -11  -2 706.419 216.184   8
   0 -11  -2 767.436 218.098  16
   0 -11  -3 3002.30 387.437  16
   0 -11  -3 2617.37 391.959   8
   0 -11  -4 177.301 107.394   8
   0 -11  -5 1189.83 243.176   8
   0 -12   2 42.5309 79.7030  16
   0 -12   1 300.874 130.292  16
   0 -12   0 10819.3 719.132  16
   0 -12  -1 2389.12 320.657  16
   1 -12  -2 1118.89 217.995   8
   1 -12  -1 8517.57 644.697  16
   1 -12  -1 8713.05 618.684   8
   1 -12   0 7853.42 641.168  16
   1 -12   1 303.660 156.360  16
   1 -12   2 1458.28 270.347  16
   1 -12   3 247.002 159.804  16
   1 -11  -6 4680.33 433.688   8
   1 -11  -5 980.759 227.463   8
   1 -11  -4 1578.32 309.699   8
   1 -11  -3 2534.90 410.954   8
   1 -11  -3 3086.03 408.924  16
   1 -11  -2 2589.42 406.242  16
   1 -11  -2 2904.63 441.716   8
   1 -11  -1 10650.6 854.025   8
   1 -11  -1 10155.2 854.523  16
   1 -11   0 798.782 266.817  16
   1 -11   0 888.791 238.761   8
   1 -11   1 12554.4 892.035   8
   1 -11   1 11331.7 925.420  16
   1 -11   2 3659.66 505.329  16
   1 -11   3 49.6216 154.777  16
   1 -11   4 969.733 229.376  16
   1 -11   4 1679.51 377.032  12
   1 -11   5 14913.0 901.965  12
   1 -11   6 560.505 197.797  12
   1 -10  -7 1551.69 308.088  14
   1 -10  -6 5496.36 611.611  14
   1 -10  -5 4582.10 587.049  14
   1 -10  -4 22368.6 1386.97  11
   1 -10  -3 5289.48 613.734  16
   1 -10  -3 6177.73 726.172  11
   1 -10  -2 4076.61 581.052  11
   1 -10  -2 4353.35 581.822  16
   1 -10  -2 4366.18 597.236   8
   1 -10  -1 18464.4 1242.04   8
   1 -10  -1 17954.9 1245.89  16
   1 -10   0 4510.01 597.060   8
   1 -10   0 4637.04 635.078  16
   1 -10   1 20801.9 1358.31  16
   1 -10   1 23560.5 1377.12   8
   1 -10   2 7171.81 776.033  16
   1 -10   2 9430.49 907.499  13
   1 -10   2 8156.11 769.712   8
   1 -10   2 7474.92 801.933  12
   1 -10   3 299.443 143.235  16
   1 -10   3 320.538 208.993  12
   1 -10   4 8802.79 849.282  13
   1 -10   4 7330.39 756.335  12
   1 -10   4 9743.49 840.061  16
   1 -10   5 990.569 252.095  12
   1 -10   5 1919.39 433.165  13
   1 -10   5 1852.30 331.762  16
   1 -10   6 5945.84 635.677  13
   1 -10   6 3764.43 488.274  12
   1 -10   7 1703.01 286.637  12
   1 -10   7 2975.86 411.915  13
   1 -10   8 2739.89 323.439  12
   1 -10   8 3808.18 402.625  13
   1  -9  -9 917.065 212.740  14
   1  -9  -8 229.779 172.512  14
   1  -9  -7 82.4221 141.167  14
   1  -9  -6 9211.59 894.296  14
   1  -9  -5 2556.32 480.673  14
   1  -9  -5 1764.32 399.926  11
   1  -9  -4 2026.31 441.339  14
   1  -9  -4 1405.41 373.870  11
   1  -9  -3 4357.16 573.584  16
   1  -9  -3 4219.19 631.153  11
   1  -9  -2 48220.8 2094.89  16
   1  -9  -2 49392.0 2230.83  11
   1  -9  -1 2324.71 439.566  16
   1  -9   0 2239.61 462.381  12
   1  -9   0 1703.08 363.609   8
   1  -9   0 1912.08 403.160  16
   1  -9   1 2541.57 453.045   8
   1  -9   1 2715.40 480.035  12
   1  -9   1 2723.71 480.762  16
   1  -9   1 3522.69 553.662  13
   1  -9   2 306.182 168.538   8
   1  -9   2 114.835 125.356  16
   1  -9   2 272.398 223.981  13
   1  -9   2 251.495 124.839  12
   1  -9   3 231.082 146.317  16
   1  -9   3-73.5883 266.447  13
   1  -9   3 118.809 173.401  12
   1  -9   4 4966.55 626.382  16
   1  -9   4 3901.65 568.949  13
   1  -9   4 3881.37 580.118  12
   1  -9   5 14149.3 1101.50  13
   1  -9   5 12412.2 1027.68  12
   1  -9   6 18303.8 1240.93  12
   1  -9   6 22764.5 1376.90  13
   1  -9   7 368.673 142.938  12
   1  -9   7 312.846 245.337  13
   1  -9   8 50.7638 206.583  13
   1  -9   8 238.640 112.288  12
   1  -9   9 13627.0 788.950  12
   1  -9   9 13829.3 800.526  13
   1  -8 -10 9003.16 644.334  14
   1  -8  -9 16308.1 1046.06  14
   1  -8  -8 169.396 195.159  14
   1  -8  -7 3465.89 558.440  14
   1  -8  -6 138343. 4110.71  11
   1  -8  -6 134942. 4138.99  14
   1  -8  -5 6948.33 795.996  11
   1  -8  -4 87.2649 137.396  11
   1  -8  -3 26601.3 1574.75  11
   1  -8  -3 28229.1 1471.35  16
   1  -8  -2 50.8408 82.6003  11
   1  -8  -2-41.7237 149.176  16
   1  -8  -1 37109.2 1737.26  16
   1  -8  -1 31757.4 1605.01  12
   1  -8   0 4646.18 588.271  12
   1  -8   0 4634.84 573.759  13
   1  -8   0 5304.63 632.707  16
   1  -8   1 880.178 257.113  16
   1  -8   1 756.689 262.945  13
   1  -8   1 1002.13 271.776   8
   1  -8   1 870.080 239.081  12
   1  -8   2 3100.33 476.904  13
   1  -8   2 4073.44 552.290   8
   1  -8   2 3343.76 511.441  12
   1  -8   2 4055.59 563.416  16
   1  -8   3 6113.40 705.452  12
   1  -8   3 6482.75 714.269  16
   1  -8   3 5363.66 660.132  13
   1  -8   4 2817.69 481.896  13
   1  -8   4 2958.11 479.200  16
   1  -8   4 2882.54 493.094  12
   1  -8   5-217.075 161.055   6
   1  -8   5-53.3836 123.004  13
   1  -8   5-229.704 159.128  12
   1  -8   6 2053.48 422.260  12
   1  -8   6 2266.42 447.862   6
   1  -8   6 2481.55 462.525  13
   1  -8   7 471.816 213.477  13
   1  -8   7 304.665 184.378  12
   1  -8   7 467.165 261.091   6
   1  -8   8 1164.37 295.759  12
   1  -8   8 1357.21 333.705  13
   1  -8   9 9073.70 750.230  13
   1  -8   9 8472.84 730.905  12
   1  -8  10 1631.71 270.829  12
   1  -8  10 1407.15 239.979  13
   1  -7 -11 49.7395 78.3699  14
   1  -7 -10 20314.0 1136.94  14
  -1   7  10 23067.4 1166.55   3
   1  -7  -9 4766.26 616.815  14
  -1   7   9 4428.08 550.665   3
   1  -7  -8 1330.22 376.807  14
   1  -7  -7 954.110 341.237  14
   1  -7  -6 18346.4 1287.27  11
   1  -7  -5 738.012 264.552  11
   1  -7  -4 2420.69 445.650  11
   1  -7  -3 5245.47 588.711  30
  -1   7   3 4551.67 553.858   2
   1  -7  -2 100657. 2866.38  23
   1  -7  -2 98410.3 2904.16  30
  -1   7   2 99953.2 2907.21   2
   1  -7  -1 20502.0 1110.35  30
   1  -7  -1 23364.5 1203.62  23
   1  -7   0 25526.9 1224.74  30
   1  -7   0 29870.0 1380.28  23
   1  -7   1 3030.20 426.047  23
   1  -7   2 1138.02 266.804  23
   1  -7   3 27.2578 92.8781  23
   1  -7   4 3234.04 500.681  13
   1  -7   4 3547.53 512.376   6
   1  -7   4 3318.25 502.849  12
   1  -7   4 3285.37 483.371  16
   1  -7   5 20982.0 1315.26   6
   1  -7   5 18918.6 1282.31  12
   1  -7   5 23220.6 1423.64  13
   1  -7   6 6485.85 754.506  12
   1  -7   6 8457.88 842.941   6
   1  -7   6 8435.40 860.456  13
   1  -7   7 2262.49 441.051   6
   1  -7   7 957.649 290.348  12
   1  -7   7 1779.62 401.280  13
   1  -7   8 3258.99 523.119  12
   1  -7   8 4994.91 651.416   6
   1  -7   8 5191.13 658.732  13
   1  -7   9 4162.98 571.861  12
   1  -7   9 4896.37 600.745  13
   1  -7  10 8662.84 702.607  13
   1  -7  10 8040.55 705.285  12
   1  -7  11 459.533 144.746  12
   1  -7  11-19.5229 121.494  13
   1  -6 -11 5089.98 493.596  14
  -1   6  11 5073.68 542.015   3
   1  -6 -10 16583.0 1075.32  14
  -1   6  10 16582.3 1126.10   3
  -1   6   9 1025.59 313.901   3
   1  -6  -9 752.127 260.046  14
   1  -6  -8 7772.55 837.567  14
  -1   6   8 8869.49 888.523   3
  -1   6   7 4833.58 653.640   3
   1  -6  -6 5401.22 664.383  11
  -1   6   5 88561.3 2812.51   2
  -1   6   4 26241.4 1331.62   2
   1  -6  -3 5424.76 556.263  30
  -1   6   3 5503.34 556.452   2
   1  -6  -2 46736.4 1691.52  30
   1  -6  -2 44973.9 1593.83  23
   1  -6  -1 12768.2 784.427  30
   1  -6  -1 11979.0 763.718  23
   1  -6   0 9405.01 675.877  23
   1  -6   0 8516.97 604.165  30
   1  -6   1 56630.2 1874.26  23
   1  -6   2 12.6827 89.8440  23
   1  -6   3 30933.1 1348.80  23
   1  -6   4 9296.02 716.756  23
   1  -6   5 22446.3 1372.89  21
   1  -6   6 32.1982 126.070  13
   1  -6   6 257.192 152.404   6
   1  -6   7 16508.3 1181.45   6
   1  -6   7 17222.1 1236.34  13
   1  -6   8 15653.4 1164.03  13
   1  -6   8 13884.7 1087.81   6
   1  -6   9 11805.8 982.714  13
   1  -6  10 5224.03 616.979  12
   1  -6  10 5179.00 594.820  13
   1  -6  11 1754.66 287.713  13
   1  -6  11 1554.67 295.032  12
   1  -6  12 2280.20 284.178  12
  -1   5  12 5357.72 521.931   3
  -1   5  11 1821.33 376.185   3
   1  -5 -10 246.331 131.954  14
  -1   5  10 63.3167 164.633   3
   1  -5  -9 7491.73 793.571  14
  -1   5   9 10234.0 967.603   3
  -1   5   8 12037.8 1046.77   3
   1  -5  -8 10204.9 943.632  14
  -1   5   7 307.095 169.990   3
  -1   5   6 456.583 199.389   2
  -1   5   5 18304.3 1074.07   2
  -1   5   4 203.312 135.063   2
  -1   5   3 53387.4 1777.69   2
   1  -5  -3 54477.7 1657.12  23
   1  -5  -3 64738.5 1857.07  29
   1  -5  -3 60775.0 1837.25  28
   1  -5  -2 143.618 101.695  23
   1  -5  -2 208.966 117.329  29
   1  -5  -2 83.1474 91.3821  28
   1  -5  -1 19262.2 884.831  23
   1  -5  -1 19181.2 897.649  30
   1  -5   0 2320.24 283.926  30
   1  -5   0 2709.44 324.038  28
   1  -5   0 2745.90 329.192  23
   1  -5   1 94052.3 2338.11  28
   1  -5   1 94866.8 2386.10  23
   1  -5   2 343.981 129.432  21
   1  -5   2 509.693 142.587  23
   1  -5   3 115635. 3075.35  21
   1  -5   3 126281. 2987.36  23
   1  -5   4 3607.95 395.881  23
   1  -5   4 3025.71 427.848  21
   1  -5   5 318.537 161.061  21
   1  -5   6 54307.4 2148.60  21
   1  -5   7 6199.55 688.086   6
   1  -5   8 3444.63 530.740   6
   1  -5   9 6892.38 754.709   6
   1  -5   9 8207.69 827.052  13
   1  -5   9 7045.36 800.456   9
   1  -5  10 815.848 266.851   9
   1  -5  10 902.664 270.318  13
   1  -5  11 11422.0 809.202  13
   1  -5  11 11330.4 890.287   9
   1  -5  12 5702.78 517.870  12
  -1   4  13 1770.08 266.246   3
  -1   4  12 265.512 158.313   3
  -1   4  11 8233.92 818.368   3
   1  -4 -10 13079.6 980.239  14
  -1   4  10 10788.1 1001.59   3
   1  -4  -9 1746.92 385.409  14
  -1   4   9 1471.33 392.616   3
   1  -4  -8 7845.94 810.496  14
  -1   4   8 6297.08 758.950   3
  -1   4   7 4802.34 686.714  27
  -1   4   7 4879.75 645.005   2
  -1   4   6 95350.2 2961.11  27
  -1   4   6 69047.6 2449.68   2
  -1   4   5 16806.2 970.554   2
  -1   4   5 22068.5 1186.75  27
   1  -4  -4 726.597 152.627  29
  -1   4   4 876.613 202.991  27
   1  -4  -4 414.308 126.908  28
  -1   4   4 632.463 186.594   2
   1  -4  -3 211.815 108.010  28
  -1   4   3 160.106 110.863  27
  -1   4   3 387.674 140.390   2
   1  -4  -3 267.118 96.9468  29
   1  -4  -3 268.188 97.2933  23
   1  -4  -2 8913.97 503.506  23
   1  -4  -2 9671.85 550.164  29
   1  -4  -2 9773.53 568.206  28
  -1   4   2 9876.52 482.594  27
   1  -4  -1 7091.92 469.243  28
   1  -4  -1 6121.48 419.012  23
   1  -4  -1 6905.96 466.702  29
   1  -4  -1 6395.30 432.363  30
   1  -4   0 382.101 122.646  23
   1  -4   0 98.6318 93.1715  29
   1  -4   0 92.9957 85.9136  28
   1  -4   0 84.7245 76.7525  30
   1  -4   1 865.082 161.431  21
   1  -4   1 1055.17 186.083  28
   1  -4   1 1158.90 197.980  23
   1  -4   1 939.662 159.864  30
   1  -4   2 15349.8 713.218  23
   1  -4   2 14174.8 640.299  28
   1  -4   2 14592.3 756.322  21
   1  -4   3 22741.5 1040.32  21
   1  -4   3 20469.0 949.958  24
   1  -4   3 21228.8 891.665  23
   1  -4   4 1300.76 213.683  23
   1  -4   4 1442.28 268.186  24
   1  -4   4 1649.61 292.897  21
   1  -4   5 5049.24 541.650  21
   1  -4   5 4649.58 497.094  24
   1  -4   6 8373.70 752.029  21
   1  -4   6 7980.26 696.989  24
   1  -4   7 7.80233 116.058  21
   1  -4   8 51.6554 145.982   9
   1  -4   8-365.852 186.798   6
   1  -4   9 4894.64 635.843   6
   1  -4   9 3885.58 621.546   9
   1  -4  10 4948.27 675.913   9
   1  -4  11 179.986 126.676  13
   1  -4  11 255.085 195.146   9
   1  -4  11-165.868 142.118  18
   1  -4  12 3682.10 463.856  18
  -1   3  13 4418.85 459.040   3
  -1   3  12 2323.85 408.991   3
  -1   3  11 3547.10 564.524   3
  -1   3  10 4369.89 642.640   3
  -1   3   9 42838.8 2101.38   3
   1  -3  -8 6109.65 675.178  14
  -1   3   8 6417.80 754.078   3
  -1   3   7 29922.8 1646.32  27
  -1   3   6 284.986 157.394  27
  -1   3   6 480.092 205.918   2
  -1   3   5 44642.7 1648.51  27
  -1   3   5 37068.8 1461.30   2
   1  -3  -4 107608. 2309.60  28
   1  -3  -4 104487. 2281.47  29
   1  -3  -3 117352. 2568.10  29
  -1   3   3 121882. 2740.71   2
   1  -3  -3 131491. 2656.54  28
  -1   3   3 126736. 2767.83  27
   1  -3  -2 80.0339 64.9129  23
   1  -3  -2 184.926 89.6339  28
  -1   3   2 64.7638 64.0024  27
   1  -3  -2 95.7815 58.2025  29
  -1   3   2 99.1294 71.4096   2
  -1   3   1 6711.76 289.832  27
   1  -3  -1 7079.48 383.176  23
   1  -3  -1 6799.90 388.939  29
   1  -3  -1 7365.31 420.582  28
   1  -3   0 4139.98 301.530  28
   1  -3   0 4169.25 293.710  30
  -1   3  -1 999999. 12676.4  32
   1  -3   1 716460. 12880.2  28
   1  -3   1 855664. 13129.8  29
   1  -3   1 874527. 12957.9  30
   1  -3   2 229238. 4230.41  24
   1  -3   2 207941. 4249.83  21
   1  -3   2 223406. 4129.89  23
   1  -3   2 216792. 3724.50  27
   1  -3   2 212428. 3976.64  28
   1  -3   3 52030.3 1547.26  24
   1  -3   3 58585.2 1469.83  23
   1  -3   3 58589.8 1371.13  27
   1  -3   3 57275.3 1667.61  21
   1  -3   3 54346.5 1292.22  28
   1  -3   4 185914. 4002.39  21
   1  -3   4 173590. 3817.27  24
   1  -3   4 175419. 3645.35  27
   1  -3   4 187478. 3604.91  23
   1  -3   5 318012. 6377.57  24
   1  -3   5 313392. 6295.02  27
   1  -3   6 5606.67 569.941  21
   1  -3   6 5749.94 547.044  24
   1  -3   7 10695.1 838.211  21
   1  -3   8 17380.5 1137.47   6
   1  -3   8 20808.7 1365.86   9
   1  -3   9 24798.0 1420.21   6
   1  -3   9 24385.2 1553.73   9
   1  -3  10 10272.9 999.088   9
   1  -3  11 913.600 287.573   9
   1  -3  12 23792.9 1317.72  18
   1  -3  12 22856.7 1314.90   9
   1  -3  13 14515.7 822.220  18
  -1   2  13 15417.2 922.539   3
  -1   2  12 4545.04 593.132   3
  -1   2  11 110.260 150.886   3
  -1   2  11 148.212 155.056   9
  -1   2  10 1302.92 327.211   9
  -1   2  10 1644.95 403.153   3
  -1   2   9 6508.52 736.669   9
  -1   2   9 7902.36 854.851   3
  -1   2   8 128834. 3958.00  27
  -1   2   7 58637.8 2281.15  27
  -1   2   6 33592.2 1506.72  27
  -1   2   5 47264.2 1770.12   2
  -1   2   5 67680.3 1988.88  27
  -1   2   4 96.8726 102.271   2
  -1   2   4 69.4637 91.5987  27
   1  -2  -4 74.5822 57.3766  28
  -1   2   3 288908. 5109.42   2
  -1   2   3 305245. 5228.45  27
   1  -2  -2 315340. 5550.07  28
  -1   2   2 332311. 5597.09   2
   1  -2  -1 3363.16 216.779  23
   1  -2  -1 3474.56 242.470  28
  -1   2   1 3455.44 205.036  27
   1  -2   0 45804.6 1009.62  30
  -1   2   0 43497.4 791.923  27
   1  -2   0 46986.0 1068.54  28
  -1   2   0 42310.7 814.988  32
   1  -2   0 41819.2 970.430  21
   1  -2   1 832035. 13996.1  28
  -1   2  -1 860704. 13902.8  32
   1  -2   2 83093.0 1695.35  27
   1  -2   2 85409.4 1662.26  28
   1  -2   3 14311.1 590.251  27
   1  -2   3 14947.8 433.698  28
   1  -2   3 15581.4 729.043  21
   1  -2   3 13639.8 613.458  24
   1  -2   4 12580.9 635.776  24
   1  -2   4 12679.9 647.722  27
   1  -2   4 12683.8 730.463  21
   1  -2   5 29107.9 1161.44  27
   1  -2   5 29194.9 1102.46  24
   1  -2   6 42578.1 1496.97  24
   1  -2   6 38092.9 1535.27  21
   1  -2   6 42068.2 1624.47  27
   1  -2   7 1000.49 219.662  24
   1  -2   7 1224.66 263.765  21
   1  -2   7 1033.29 278.500  27
   1  -2   8 15611.9 1028.58  21
   1  -2   8 17580.8 1233.45  27
   1  -2   9 2669.49 499.123   9
   1  -2  10 13215.3 1129.71   9
   1  -2  11 47739.0 2198.36   9
   1  -2  12 5965.59 691.182   9
   1  -2  13 0.28942 84.3757  18
  -1   1  13 1523.39 303.137  18
  -1   1  13 1337.44 279.002   3
  -1   1  12 20915.2 1284.43   3
  -1   1  11 653.994 269.941   3
  -1   1  11 751.363 254.074   9
  -1   1  10 24963.0 1541.65   9
  -1   1  10 28163.0 1660.19   3
  -1   1   9 87805.3 3137.67   3
  -1   1   9 86485.9 3040.26   9
  -1   1   8 1437.40 341.451  27
  -1   1   7 1353.73 317.075  27
  -1   1   6 136.159 132.431  27
  -1   1   5 29055.1 1214.20  27
  -1   1   4 289063. 6025.15  27
  -1   1   4 272666. 6052.32   2
   1  -1  -4 336466. 5388.96  28
  -1   1   4 314802. 5402.15  21
  -1   1   3 363333. 6410.52   2
  -1   1   3 352651. 5836.61  21
  -1   1   2 2143.32 217.238   1
  -1   1   2 1840.71 184.161   2
  -1   1   2 2196.27 208.369  27
  -1   1   1 20874.7 527.585   1
   1  -1  -1 19957.2 587.499  26
   1  -1   0 107016. 2043.24  26
   1  -1   0 108356. 1903.68  30
  -1   1   0 109802. 1920.84  32
   1  -1   1 91990.7 1734.84  26
   1  -1   1 91008.8 1686.59  29
   1  -1   2 213004. 3844.67  27
   1  -1   2 212689. 3797.56  24
   1  -1   3 133680. 2262.78  28
   1  -1   3 144460. 2815.49  27
   1  -1   4 2636.86 246.704  24
   1  -1   4 3084.34 318.771  21
   1  -1   4 2441.49 284.829  27
   1  -1   5 19501.5 805.954  24
   1  -1   5 17670.0 878.317  21
   1  -1   5 20398.9 971.050  27
   1  -1   6 148985. 3251.36  24
   1  -1   6 165738. 3610.46  21
   1  -1   7 11019.1 902.590  27
   1  -1   7 11975.3 817.582  21
   1  -1   8 2194.16 441.716  27
   1  -1   9 77770.9 2849.27   3
   1  -1   9 77993.5 2903.10   9
   1  -1  10 29806.5 1656.28   3
   1  -1  10 24306.1 1562.36   9
   1  -1  11 14861.2 1109.61   3
   1  -1  11 12568.1 1078.70   9
   1  -1  12 10118.8 887.785   9
   1  -1  13 18994.0 1056.46   9
  -1   0  13 268.608 149.058  18
  -1   0  12 3724.03 529.618   3
  -1   0  11 13490.1 1103.66   3
  -1   0  11 13998.3 1136.12   9
  -1   0  10 2648.38 507.341   3
  -1   0  10 2732.94 509.525   9
  -1   0   9 39256.5 1960.82   9
  -1   0   9 40204.8 1997.01   3
  -1   0   8 4437.99 603.447  27
  -1   0   7 422.906 195.421  27
  -1   0   6 6325.56 587.108  27
  -1   0   5 4306.03 454.968  27
  -1   0   5 3869.38 305.260  21
  -1   0   4 52676.2 1256.09  21
  -1   0   4 47226.0 1526.71  27
  -1   0   3 413294. 6978.88  21
  -1   0   3 415037. 7338.60  27
   1   0  -3 423353. 6900.92  26
   1   0  -2 218747. 3551.63  26
  -1   0   2 212317. 3497.44  21
  -1   0   2 216711. 3755.12  27
  -1   0   1 136380. 2462.16   1
  -1   0   0 270570. 4561.26  32
  -1   0  -1 7070.60 318.078  32
   1   0   1 8992.32 273.792   2
   1   0   2 233706. 4612.74  27
   1   0   2 277064. 4553.38   2
   1   0   3 15204.9 505.954  24
   1   0   3 26324.1 863.081  27
   1   0   4 28063.9 1090.34  27
   1   0   5 150185. 3055.60  24
   1   0   5 166987. 3712.81  27
   1   0   6 957.172 258.224  27
   1   0   6 1258.54 240.627  21
   1   0   7 35637.3 1414.38  21
   1   0   7 27616.7 1547.36  27
   1   0   8-148.198 188.264  27
   1   0   9 424.352 225.612   3
   1   0   9 644.796 260.545   9
   1   0  10 6925.92 804.551   3
   1   0  10 6794.07 799.179   9
   1   0  11 3143.09 512.478   3
   1   0  11 2578.15 493.899   9
   1   0  12 2679.42 431.232   3
   1   0  12 2040.38 403.409   9
   1   0  13 114.980 114.802   9
   1   0  13 153.869 104.246   3
  -1  -1  13 12224.3 857.337  18
  -1  -1  12 2835.17 452.806   3
  -1  -1  11 3435.52 547.016   3
  -1  -1  11 4082.12 608.443   9
  -1  -1  10 32597.3 1809.13   3
  -1  -1  10 35557.1 1887.71   9
  -1  -1   9 4799.99 663.210   9
  -1  -1   9 4257.15 618.575   3
  -1  -1   8 1300.24 340.410  27
  -1  -1   7 28670.5 1408.68  27
  -1  -1   7 27098.6 1222.27  24
  -1  -1   6 23264.1 1144.02  27
  -1  -1   6 23933.1 985.297  21
  -1  -1   5 944.909 219.838  27
  -1  -1   5 1008.38 174.720  21
  -1  -1   5 1142.23 182.968  31
  -1  -1   4 127.570 77.4761  31
   1   1  -4 147.237 45.4764  26
  -1  -1   4 119.132 77.1206  21
  -1  -1   4 84.3129 40.1233  22
  -1  -1   3 14575.7 691.801   1
  -1  -1   3 12732.7 602.921  27
  -1  -1   2 26277.3 739.309  21
  -1  -1   2 25315.1 802.079   1
  -1  -1   1 118007. 2211.24   1
  -1  -1   0 14616.2 388.933  30
  -1  -1   0 15289.8 449.350  32
  -1  -1  -1 141935. 2648.09  32
   1   1   2 50150.3 1283.88  27
   1   1   3 26673.1 1014.07  27
   1   1   3 28236.0 935.920   2
   1   1   4 195.698 104.685   2
   1   1   4 237.079 140.342  27
   1   1   5 5640.47 543.049  27
   1   1   5 4873.03 479.669   2
   1   1   6 62855.1 2266.85  27
   1   1   7 95855.5 3161.11  27
   1   1   8 37693.1 1941.75  27
   1   1   9 55650.5 2343.93   9
   1   1   9 54320.6 2378.25   3
   1   1  10 1890.65 420.538   9
   1   1  10 1687.14 392.004   3
   1   1  11 1054.61 313.223   3
   1   1  11 590.666 214.145   9
   1   1  12 193.058 128.129   3
   1   1  12 0.78460 127.530   9
   1   1  13 2240.90 329.257   3
  -1  -2  13 544.211 172.174  18
  -1  -2  12 2869.16 480.076  18
  -1  -2  11 9012.74 855.389   3
  -1  -2  11 7364.83 815.940   9
  -1  -2  10 21261.8 1449.13   9
  -1  -2  10 23269.5 1475.49   3
  -1  -2   9 2082.98 425.447   3
  -1  -2   9 2696.86 510.961   9
  -1  -2   8 52801.2 2175.23  27
  -1  -2   8 56528.7 2038.53  24
  -1  -2   7 8744.96 753.588  27
  -1  -2   7 8286.84 679.220  24
  -1  -2   7 8447.08 657.895  21
  -1  -2   6 10495.5 737.993  27
  -1  -2   6 10833.5 687.547  21
  -1  -2   6 9374.54 608.067  31
  -1  -2   5 198597. 4023.87  21
  -1  -2   5 195763. 4181.16  27
  -1  -2   4 445.701 132.659  21
  -1  -2   4 549.087 146.775  31
  -1  -2   4 454.572 143.679  27
  -1  -2   4 387.319 103.450  22
  -1  -2   3 46481.5 1397.08   1
  -1  -2   3 40339.6 1218.77  21
  -1  -2   3 44054.1 1267.24  27
  -1  -2   3 42799.7 1166.93  22
  -1  -2   2 139995. 2796.47   1
  -1  -2   1 11986.2 454.062   1
  -1  -2   0 303923. 5371.70  30
  -1  -2   0 317864. 5307.66  32
  -1  -2  -1 46569.2 893.154  24
  -1  -2  -1 39838.6 1004.70  32
  -1  -2  -2 3325.80 227.160  22
  -1  -2  -2 3427.22 279.618  32
  -1  -2  -3 22003.6 626.814  22
  -1  -2  -3 20973.2 845.302  32
   1   2   4 140872. 3175.69   2
   1   2   4 149426. 3429.82  27
   1   2   5 14358.5 833.602   2
   1   2   5 20298.3 1095.32  27
   1   2   6 14039.5 1004.48  27
   1   2   6 11603.3 837.898   2
   1   2   7 36711.4 1834.37  27
   1   2   8 3002.37 499.998   3
  -1  -2  -8 2147.28 495.247  32
  -1  -2  -8 2116.47 434.523   5
   1   2   9 5930.48 712.420   9
   1   2   9 7180.71 808.838   3
   1   2  10 3306.48 543.774   9
   1   2  10 3898.03 613.197   3
   1   2  11 88.0226 137.796   3
   1   2  11 278.003 140.747   9
   1   2  12 4726.24 577.040   3
   1   2  12 4898.41 545.196   9
   1   2  13 3.57745 86.1603   3
  -1  -3  13 1670.64 287.765  18
  -1  -3  12 28106.9 1476.72  18
  -1  -3  11 2636.58 489.694  18
  -1  -3  10-56.2134 201.751   9
  -1  -3   9 3908.46 617.350   9
  -1  -3   8 3691.20 577.566   9
  -1  -3   7 22578.7 1216.58  24
  -1  -3   6 61273.4 1904.04  31
  -1  -3   6 63950.7 2067.94  24
  -1  -3   6 58419.6 1966.83  27
  -1  -3   6 62926.9 2079.92  21
  -1  -3   5 4959.25 486.144  21
  -1  -3   5 5416.40 498.632  27
  -1  -3   5 5267.77 515.909  24
  -1  -3   5 5453.95 490.603  31
  -1  -3   4 80905.4 2177.73  31
  -1  -3   4 80736.7 2214.25  21
  -1  -3   4 82108.6 2109.91  27
  -1  -3   4 81652.2 2021.28  22
  -1  -3   3 127133. 2945.94  22
  -1  -3   3 127860. 3025.21  31
  -1  -3   2 29711.6 978.290   1
  -1  -3   2 28375.9 989.268  22
  -1  -3   1 36360.8 1005.20   1
  -1  -3   1 38636.4 1152.50  22
  -1  -3   0 127642. 2595.56  22
  -1  -3   0 124668. 2389.43  24
  -1  -3  -1 69790.1 1389.76  24
  -1  -3  -1 71786.1 1671.77  22
  -1  -3  -2 15890.8 641.514  22
  -1  -3  -2 15667.7 616.720  32
   1   3   3 965.686 185.325   2
  -1  -3  -3 488.241 127.997  32
   1   3   4 52851.4 1758.05   2
  -1  -3  -4 78164.9 2017.54  32
  -1  -3  -5 125.837 93.5927  32
   1   3   5-0.99937 114.981  27
   1   3   5 249.492 156.809   2
   1   3   6 65845.3 2398.64  27
  -1  -3  -6 74934.1 2387.81  32
  -1  -3  -7 8418.06 825.816  32
   1   3   7 7631.10 788.209   2
   1   3   8 3040.89 516.676   3
  -1  -3  -8 3635.56 563.474   5
   1   3   9 23300.3 1505.75   3
   1   3  10 5844.25 739.949   3
   1   3  11 17764.1 1234.39   3
   1   3  12 4319.23 530.755   3
   1   3  13 5703.03 486.509   3
  -1  -4  13 368.437 123.368  12
  -1  -4  12 165.648 122.063  18
  -1  -4  11 1065.40 299.015  18
  -1  -4  10 665.530 276.178  18
  -1  -4   9 18427.7 1377.77  18
  -1  -4   9 18059.7 1320.87   9
  -1  -4   8 635.373 260.527  18
  -1  -4   8 120.212 123.458   9
  -1  -4   7 4384.48 549.098  24
  -1  -4   7 3293.93 494.318   6
  -1  -4   6 73605.4 2401.81  24
  -1  -4   6 71363.3 2242.90  31
  -1  -4   5 226.356 112.473  24
  -1  -4   5 446.511 171.736  31
  -1  -4   4 47435.7 1539.19  22
  -1  -4   4 48245.3 1653.82  31
  -1  -4   4 44369.4 1605.44  24
  -1  -4   3 42549.8 1445.18  22
  -1  -4   3 45475.0 1547.21  31
  -1  -4   3 40338.1 1461.32  24
  -1  -4   2 956.052 190.712  24
  -1  -4   2 957.069 184.417   1
  -1  -4   2 966.862 198.569  22
  -1  -4   2 1177.83 221.110  31
  -1  -4   1 160805. 3228.67  24
  -1  -4   1 151696. 3352.44  22
  -1  -4   1 156551. 3060.56   1
  -1  -4   0 1141.26 165.587  24
  -1  -4   0 1108.32 178.770  30
  -1  -4   0 921.228 131.582   1
  -1  -4   0 1244.96 205.564  22
  -1  -4  -1 40637.6 1290.27  22
  -1  -4  -1 38634.0 1237.54  30
  -1  -4  -2 50809.2 1500.49  22
  -1  -4  -2 56428.9 1387.01  31
   1   4   3 90590.3 2365.53   2
   1   4   4 19728.8 997.341   2
   1   4   5 30401.8 1377.02   2
   1   4   6 261.992 196.477   2
  -1  -4  -7 117859. 3671.44   5
   1   4   8 527.093 257.345   3
  -1  -4  -8 477.997 232.680   5
   1   4   9 2495.39 491.688   3
   1   4  10 16949.7 1251.03   3
   1   4  11 32618.1 1646.09   3
   1   4  12 3922.13 478.378   3
  -1  -5  12 448.745 154.552  18
  -1  -5  12 111.564 84.7066  12
  -1  -5  11 20899.7 1241.53  18
  -1  -5  10 9785.08 928.176  18
  -1  -5   9 5732.17 740.894  18
  -1  -5   8 1131.18 306.815  13
  -1  -5   8 876.439 316.472  18
  -1  -5   7 13053.8 1003.06  13
  -1  -5   7 11620.1 1047.70  18
  -1  -5   6 852.275 261.234  24
  -1  -5   5 53840.9 1941.95  31
  -1  -5   5 54015.6 2032.70  24
  -1  -5   4 727.364 226.792  24
  -1  -5   4 791.550 221.261  31
  -1  -5   3 1944.47 321.405  31
  -1  -5   3 2256.82 340.429  24
  -1  -5   2 58054.8 1872.88  31
  -1  -5   2 57494.5 1850.40  22
  -1  -5   2 57139.8 1817.99  24
  -1  -5   1 1156.80 235.099  31
  -1  -5   1 844.756 182.151  24
  -1  -5   1 802.028 200.727  22
  -1  -5   0 262.253 110.827  31
  -1  -5   0 277.291 133.976  22
  -1  -5   0 135.844 86.5893  30
  -1  -5   0 144.586 73.0433  24
  -1  -5  -1 1739.65 265.636  30
  -1  -5  -1 1752.90 252.044  31
  -1  -5  -2 22176.4 1025.72  30
   1   5   3 141416. 3578.74   2
  -1  -5  -3 162538. 3413.83  23
   1   5   4 68201.2 2220.84   2
   1   5   5 8759.44 760.654   2
  -1  -5  -6 2226.55 412.057  11
  -1  -5  -6 2441.41 452.635   5
  -1  -5  -7 79028.0 3028.98   5
  -1  -5  -7 94409.6 2986.98  11
  -1  -5  -8 1298.59 315.777  11
   1   5   8 625.870 254.108   3
   1   5   9 114.962 146.680   3
  -1  -5 -10 9667.30 806.523  14
   1   5  10 9571.05 892.441   3
   1   5  11 5712.12 613.619   3
   1   5  12 8717.48 642.214   3
  -1  -6  12 11870.7 668.705  12
  -1  -6  11 5703.21 578.410  12
  -1  -6  10 51.2443 143.330  12
  -1  -6   9 15046.3 1023.38  13
  -1  -6   9 12487.3 1050.99  18
  -1  -6   9 11484.1 1015.08  12
  -1  -6   8 47757.9 2044.33  13
  -1  -6   7 1670.37 365.726  13
  -1  -6   6 478.940 209.109  13
  -1  -6   6 644.914 235.403  12
  -1  -6   5 48906.1 2034.85  13
  -1  -6   5 44536.6 2023.99  12
  -1  -6   4 11860.2 823.540  23
  -1  -6   4 10391.0 808.312  31
  -1  -6   4 11812.5 918.646  24
  -1  -6   3 557.520 187.437  31
  -1  -6   3 335.776 175.528  24
  -1  -6   2 493.790 169.500  24
  -1  -6   2 615.561 189.450  31
  -1  -6   1 1440.85 275.985  31
  -1  -6   0 1156.54 234.287  31
  -1  -6   0 1164.66 228.723  30
  -1  -6  -1 5509.64 516.324  30
  -1  -6  -2 6251.28 550.978  23
  -1  -6  -2 6795.48 602.930  30
  -1  -6  -3 30216.9 1399.20  30
  -1  -6  -3 31187.6 1293.00  23
   1   6   4 34143.1 1608.88   2
  -1  -6  -4 39316.0 1669.28  30
  -1  -6  -5 940.083 277.479  11
  -1  -6  -6 1232.89 320.374  11
  -1  -6  -6 1065.21 316.549   5
  -1  -6  -7 31720.6 1684.40  11
   1   6   7 35987.2 1873.28   3
   1   6   8 8062.80 864.880   3
  -1  -6  -9 2327.23 434.657  14
   1   6   9 2604.73 477.389   3
  -1  -6 -10 1498.95 309.387  14
   1   6  10 911.526 268.999   3
   1   6  11 17537.4 988.965   3
  -1  -7  11 1543.53 254.415  12
  -1  -7  10 13307.5 924.738  12
  -1  -7   9 15511.4 1111.49  12
  -1  -7   9 17998.8 1068.27  13
  -1  -7   8 15310.3 1082.73  13
  -1  -7   8 13067.0 1078.98  12
  -1  -7   7 157.150 234.245  13
  -1  -7   7 269.350 147.754  12
  -1  -7   6 44.5866 124.804  12
  -1  -7   5 6474.18 758.681  12
  -1  -7   5 6336.15 729.038  13
  -1  -7   4 26180.8 1526.52  12
  -1  -7   4 26045.4 1488.93  13
  -1  -7   3 4615.24 582.035  13
  -1  -7   3 5363.23 648.900  12
  -1  -7   2 11469.6 930.428  12
  -1  -7   2 9468.51 827.406  13
  -1  -7   2 8789.74 748.445  31
  -1  -7   1 16340.7 987.973  31
  -1  -7   1 16436.6 1036.22  23
  -1  -7   0 18060.5 1085.38  23
  -1  -7  -1 15.3738 59.1400  30
  -1  -7  -1 66.1565 96.5650  23
  -1  -7  -2 2490.39 391.213  23
  -1  -7  -2 2669.88 466.350  11
  -1  -7  -3 94368.1 3159.07  11
  -1  -7  -4 1531.11 352.055  11
  -1  -7  -5 13909.9 1110.58  11
  -1  -7  -6 6397.45 749.733  11
   1   7   7 16350.3 1212.38   3
  -1  -7  -7 14991.8 1135.54  11
   1   7   8 3042.43 512.808   3
  -1  -7  -9 25022.6 1369.01  14
   1   7   9 26132.7 1405.69   3
   1   7  10 6246.88 589.039   3
  -1  -7 -10 6778.02 586.255  14
  -1  -8  10 8755.41 631.626  12
  -1  -8   9 1572.12 309.682  12
  -1  -8   9 1661.68 295.010  13
  -1  -8   8 5264.69 629.804  12
  -1  -8   8 5310.39 579.690  13
  -1  -8   7 20725.6 1270.49  13
  -1  -8   7 18469.9 1270.01  12
  -1  -8   6 93.1260 136.888  12
  -1  -8   6-104.461 276.968  13
  -1  -8   5 12682.6 976.285  16
  -1  -8   5 10744.9 954.126  13
  -1  -8   5 10297.6 976.680  12
  -1  -8   4 19364.1 1347.34  12
  -1  -8   4 19145.1 1309.52  13
  -1  -8   3 2659.34 495.543  13
  -1  -8   3 1927.10 401.429  12
  -1  -8   2 8942.32 869.652  12
  -1  -8   2 8083.01 822.868  13
  -1  -8   1 87177.0 2939.58  12
  -1  -8   1 78952.7 2794.21  13
  -1  -8   0 15000.3 1104.08  12
  -1  -8   0 15605.7 1169.97  11
  -1  -8  -1 15531.2 1190.51  11
  -1  -8  -2 49950.6 2255.69  11
  -1  -8  -3 5337.49 710.360  11
  -1  -8  -3 5344.93 627.965  16
  -1  -8  -4 55.4629 142.418  11
  -1  -8  -5 1258.08 358.185  11
  -1  -8  -6 1910.55 421.108  11
  -1  -8  -7 18779.9 1235.63  11
  -1  -8  -8-52.8424 149.695  14
   1   8   8 309.357 199.055   3
  -1  -8  -9 3196.28 433.515  14
   1   8   9 2921.32 371.593   3
  -1  -9   9-9.20416 136.087  12
  -1  -9   8 23079.0 1203.07  12
  -1  -9   8 24591.3 1147.22  13
  -1  -9   7 710.634 210.135  12
  -1  -9   7 1735.10 379.110  13
  -1  -9   6 3070.54 493.279  12
  -1  -9   6 4600.16 611.308  13
  -1  -9   5 4211.06 537.817  16
  -1  -9   5 4810.06 655.332  13
  -1  -9   5 2976.42 482.385  12
  -1  -9   4 8903.62 904.717  13
  -1  -9   4 8162.56 852.108  12
  -1  -9   4 8495.45 807.635  16
  -1  -9   3 14694.3 1162.69  13
  -1  -9   3 12686.2 1030.00  16
  -1  -9   3 12357.4 1052.44  12
  -1  -9   2 6944.28 779.566  12
  -1  -9   2 6279.40 741.923  16
  -1  -9   1 2891.81 504.736  16
  -1  -9   1 3157.23 544.462  12
  -1  -9   0 10480.4 950.379  16
  -1  -9   0 11165.9 1021.13  11
  -1  -9   0 11482.2 1009.85  12
  -1  -9  -1 25104.2 1570.72  11
  -1  -9  -1 24905.8 1478.53  16
  -1  -9  -2 14423.2 1076.34  16
  -1  -9  -2 12499.5 1104.82  11
  -1  -9  -3 3141.73 545.714  11
  -1  -9  -3 3353.94 495.964  16
  -1  -9  -4 7596.09 832.284  11
  -1  -9  -5 1996.08 432.132  11
  -1  -9  -6 1452.40 343.278  11
  -1  -9  -7 9840.24 837.748  14
  -1  -9  -8 2290.04 361.993  14
  -1 -10   7 14.3132 131.189  12
  -1 -10   6 2348.68 373.699  12
  -1 -10   5 3880.90 459.201  16
  -1 -10   5 3119.29 479.907  12
  -1 -10   4 1149.06 281.291  16
  -1 -10   4 923.109 301.887  12
  -1 -10   3 738.767 256.023  16
  -1 -10   3 554.076 291.216  12
  -1 -10   2 14521.8 1087.98  16
  -1 -10   2 17207.4 1226.20  12
  -1 -10   1 1151.16 318.552  16
  -1 -10   0 19455.6 1269.90  16
  -1 -10  -1 2481.94 451.437  16
  -1 -10  -1 2810.57 446.051   8
  -1 -10  -1 2460.70 458.978  11
  -1 -10  -2 6490.62 733.047  11
  -1 -10  -2 6224.24 670.866  16
  -1 -10  -3 12815.3 917.056  16
  -1 -10  -3 14423.2 1096.38  11
  -1 -10  -4 4742.05 581.531  14
  -1 -10  -4 5007.38 628.631  11
  -1 -10  -5 153.615 99.0593  14
  -1 -10  -5 199.673 152.766  11
  -1 -10  -6 7159.76 647.241  14
  -1 -10  -7 2581.83 343.340  14
  -1 -11   4 9029.61 656.410  16
  -1 -11   3 1197.60 266.708  16
  -1 -11   2 4066.13 503.569  16
  -1 -11   1 15391.4 1011.47  16
  -1 -11   0 5143.36 588.626  16
  -1 -11  -1 7334.38 672.288  16
  -1 -11  -2 349.612 123.319  11
  -1 -11  -2 406.822 152.554   8
  -1 -11  -2 634.104 208.587  16
  -1 -11  -3 6415.24 614.656  11
  -1 -11  -3 6681.43 575.558   8
  -1 -11  -4 3070.90 368.905   8
   2 -12  -3 8860.69 629.720   8
   2 -12  -2 1631.68 283.126   8
   2 -12  -1 15680.4 905.522   8
   2 -12   0 1413.58 306.232  16
   2 -12   0 601.968 167.099   8
   2 -12   1 914.881 197.675   8
   2 -12   1 1244.95 295.911  16
   2 -12   2 644.258 226.500  16
   2 -11  -6 1555.18 259.155   8
   2 -11  -5 22208.4 1119.79   8
   2 -11  -4 31519.1 1452.38   8
   2 -11  -3 8198.75 691.393  16
   2 -11  -3 6921.86 681.485   8
   2 -11  -2 5355.92 611.658   8
   2 -11  -2 4658.98 563.349  16
   2 -11  -1 13150.3 983.750   8
   2 -11  -1 11994.2 939.833  16
   2 -11   0 2203.17 404.453  16
   2 -11   0 2151.40 397.942   8
   2 -11   1 1204.77 304.068   8
   2 -11   1 662.280 209.550  16
   2 -11   2 6198.25 666.622  16
   2 -11   2 6048.98 620.205   8
   2 -11   3 576.037 211.301  16
   2 -11   4 7279.36 642.925  16
   2 -11   5 1671.73 377.370  13
   2 -11   6 2013.68 338.997  13
   2 -10  -8 14547.8 791.024  25
   2 -10  -8 15638.0 820.075  14
   2 -10  -7 3640.85 453.037  14
   2 -10  -7 3186.66 391.943   8
   2 -10  -6 3004.68 447.521  14
   2 -10  -6 2749.52 419.596   8
   2 -10  -5 40036.5 1792.99   8
   2 -10  -5 48990.7 1979.59  14
   2 -10  -4 4981.92 624.227   8
   2 -10  -3 800.578 267.122   8
   2 -10  -3 503.294 169.371  16
   2 -10  -2 6073.74 691.668  16
   2 -10  -2 5436.21 667.854   8
   2 -10  -1 5771.57 697.295  16
   2 -10  -1 5224.53 654.913   8
   2 -10   0 6887.16 770.006  16
   2 -10   0 7272.86 780.248   8
   2 -10   1 862.957 294.937   8
   2 -10   1 616.704 238.233  16
   2 -10   2 4334.44 608.608  13
   2 -10   2 2828.58 491.728  16
   2 -10   2 3590.03 567.750  12
   2 -10   2 3548.38 539.705   8
   2 -10   3 2598.79 461.921  13
   2 -10   3 2469.59 431.970   8
   2 -10   3 2792.95 469.406  12
   2 -10   3 2520.46 449.596  16
   2 -10   4 942.018 244.152  16
   2 -10   4 1060.82 337.596  13
   2 -10   4 646.587 217.182  12
   2 -10   5 2208.10 401.056  13
   2 -10   5 2737.67 434.975  12
   2 -10   6 1841.04 342.819  13
   2 -10   6 2382.95 361.218  12
   2 -10   7 1539.90 290.445  13
   2 -10   7 1421.89 260.076  12
   2 -10   8 1025.37 229.307  13
   2  -9  -9 1805.21 296.435  14
   2  -9  -8 2324.95 373.003  14
   2  -9  -7 605.595 247.067  14
   2  -9  -6 1898.98 423.054  14
   2  -9  -5 6262.12 747.459  14
   2  -9  -4 476.109 172.806  14
   2  -9  -4 410.405 206.803  11
   2  -9  -3 9039.61 836.733  16
   2  -9  -3 8415.83 880.898  11
   2  -9  -2 3788.53 573.489  11
   2  -9  -2 3245.98 508.718  16
   2  -9  -1 13472.0 1069.51  16
   2  -9  -1 12985.4 1050.36   8
   2  -9   0 48356.6 2024.81  13
   2  -9   0 53709.2 2264.36  16
   2  -9   0 51474.7 2189.82   8
   2  -9   1 6822.45 745.568  12
   2  -9   1 5785.28 684.958  13
   2  -9   1 6208.06 724.199  16
   2  -9   1 6417.29 726.224   8
   2  -9   2 3987.68 564.414  12
   2  -9   2 3316.40 511.780  13
   2  -9   2 4565.39 611.664   8
   2  -9   2 4201.78 601.978  16
   2  -9   3 17140.5 1210.84  13
   2  -9   3 18702.8 1253.34  12
   2  -9   3 18366.0 1242.94   8
   2  -9   3 18821.8 1280.87  16
   2  -9   4 8734.80 855.107  13
   2  -9   4 9766.63 894.116  12
   2  -9   4 10956.9 934.492  16
   2  -9   5 26011.5 1535.32  13
   2  -9   5 28886.1 1566.39  12
   2  -9   6 9400.26 839.539  12
   2  -9   6 8349.66 823.108  13
   2  -9   7-29.5669 151.367  12
   2  -9   7-27.1828 288.660  13
   2  -9   8 12016.7 816.677  12
   2  -9   8 12223.2 860.834  13
   2  -9   9 693.154 172.534  13
   2  -9   9 631.406 144.066  12
   2  -8 -10 5039.14 485.372  14
   2  -8  -9 2111.66 383.739  14
   2  -8  -8 2518.08 466.350  14
   2  -8  -7 18577.6 1312.41  14
   2  -8  -6 2058.40 428.844  14
   2  -8  -5 12585.0 1105.12  14
   2  -8  -5 13921.0 1147.14  11
   2  -8  -4 87208.0 3128.50  11
   2  -8  -4 92736.0 3237.87  14
   2  -8  -3-0.48946 94.8634  11
   2  -8  -3 227.630 108.174  14
   2  -8  -3 164.993 135.352  16
   2  -8  -2 17770.3 1227.20  11
   2  -8  -2 17590.4 1167.49  16
   2  -8  -1 3944.09 548.982  16
   2  -8   0 5506.77 602.667  13
   2  -8   0 6623.08 683.675  12
   2  -8   0 7150.86 743.706  16
   2  -8   0 6893.75 730.710   8
   2  -8   1 45059.9 1923.46  12
   2  -8   1 44088.6 1896.71  13
   2  -8   1 49495.5 2075.65  16
   2  -8   1 48115.1 2030.94   8
   2  -8   2 10178.1 883.545   8
   2  -8   2 9062.10 818.431  12
   2  -8   2 8028.32 792.797  13
   2  -8   2 10902.6 933.160  16
   2  -8   3-162.812 136.974   8
   2  -8   3 23.1655 114.139  16
   2  -8   3 258.186 153.416  13
   2  -8   3-202.572 152.832  12
   2  -8   4 25539.4 1511.70  13
   2  -8   4 27964.2 1540.83   6
   2  -8   4 29385.7 1562.87  16
   2  -8   4 27111.1 1527.02  12
   2  -8   4 26587.0 1509.05   8
   2  -8   5 202.685 161.350  13
   2  -8   5 313.528 166.523   6
   2  -8   5 77.6403 107.392  12
   2  -8   6 2911.96 485.826  12
   2  -8   6 3719.75 565.906   6
   2  -8   6 3199.77 529.182  13
   2  -8   7-110.977 169.314   6
   2  -8   7-305.835 186.320  13
   2  -8   7 131.263 116.892  12
   2  -8   8 8324.52 804.382   6
   2  -8   8 7369.68 753.799  13
   2  -8   8 7951.93 743.709  12
   2  -8   9 4846.11 524.683  12
   2  -8   9 4808.68 546.577  13
   2  -8  10 688.887 166.134  12
   2  -8  10 75.6522 150.054  13
   2  -7 -11 7500.38 518.902  25
   2  -7 -10 7398.73 672.367  14
   2  -7  -9-76.3560 207.915  14
   2  -7  -8 1924.82 422.834  14
   2  -7  -7 266.927 208.323  14
   2  -7  -6 4132.63 622.825  14
   2  -7  -5 573.039 258.129  14
   2  -7  -5 519.084 229.790  11
   2  -7  -4 1170.25 335.774  11
  -2   7   3 1095.75 286.175   2
   2  -7  -3 1111.91 272.846  30
  -2   7   2 50632.8 1876.53   2
   2  -7  -2 49708.3 1882.95  30
   2  -7  -1 1709.20 302.945  30
   2  -7   0 8920.59 752.422  23
   2  -7   0 8061.42 652.867  30
   2  -7   1 13338.6 937.953  23
   2  -7   2 15518.3 1027.24  23
   2  -7   3 523.527 215.161  23
   2  -7   4 1890.04 373.492   6
   2  -7   4 1764.47 365.035   8
   2  -7   4 2002.47 399.487  13
   2  -7   4 2049.65 383.851  12
   2  -7   4 2206.71 407.282  16
   2  -7   5-213.195 155.329  13
   2  -7   5 163.025 128.907  12
   2  -7   5-246.826 158.013   6
   2  -7   6 7808.39 809.516  12
   2  -7   6 8472.91 868.774  13
   2  -7   6 9173.78 875.824   6
   2  -7   7 22103.0 1388.10   6
   2  -7   7 19479.6 1303.10  12
   2  -7   8 4958.73 623.102  12
   2  -7   8 6048.44 711.016  13
   2  -7   8 5125.19 642.553   6
   2  -7   9 2060.28 442.071   6
   2  -7   9 1641.78 345.395  12
   2  -7   9 1515.89 352.011  13
   2  -7  10 2293.54 355.065  12
   2  -7  10 2541.13 390.864  13
   2  -7  11 113.735 81.2048  13
   2  -7  11-105.828 76.4748  12
  -2   6  11 3362.39 425.913   3
  -2   6  10 211.027 151.851   3
   2  -6 -10 384.307 207.624  14
   2  -6  -9 51.6083 182.532  14
  -2   6   9 33.3801 112.586   3
  -2   6   8 305.400 165.592   3
   2  -6  -8-0.49778 183.272  14
   2  -6  -7 16216.4 1232.30  14
   2  -6  -6 24816.9 1527.72  14
  -2   6   5 19650.5 1195.32   2
  -2   6   4 391.328 177.787   2
   2  -6  -4 734.290 205.213  28
  -2   6   3 72841.8 2298.88   2
   2  -6  -3 75248.6 2360.13  30
   2  -6  -3 80191.3 2434.31  28
   2  -6  -2 870.235 231.023  29
   2  -6  -2 1005.15 230.087  30
   2  -6  -2 682.203 194.672  28
   2  -6  -1 52737.8 1838.60  28
   2  -6  -1 53764.8 1808.99  23
   2  -6  -1 49825.4 1688.66  30
   2  -6   0 458.836 146.281  30
   2  -6   0 474.535 175.282  23
   2  -6   0 479.132 174.158  28
   2  -6   1 150.137 106.524  28
   2  -6   1 46.3764 120.799  23
   2  -6   2 6812.01 571.299  28
   2  -6   2 7560.22 636.244  23
   2  -6   2 6845.00 617.938  21
   2  -6   3 10652.7 782.033  23
   2  -6   3 10853.5 817.602  21
   2  -6   4 6109.08 660.157  21
   2  -6   5 12496.0 990.906  21
   2  -6   6 36309.6 1751.92   6
   2  -6   7 1588.84 375.865  13
   2  -6   7 1567.30 370.223   6
   2  -6   8 11464.3 1009.71  13
   2  -6   8 10357.3 930.818   6
   2  -6   9 8439.05 832.450   6
   2  -6   9 8987.40 857.054  13
   2  -6  10 4286.34 528.272  12
   2  -6  10 4827.40 577.159  13
   2  -6  11 3218.34 406.196  13
   2  -6  11 4124.36 449.062  12
  -2   5  12 2109.84 334.232   3
  -2   5  11 4998.10 589.660   3
   2  -5 -10 4149.61 551.604  14
  -2   5  10 5588.26 674.961   3
  -2   5   9 1571.36 382.859   3
   2  -5  -9 1975.01 409.237  14
   2  -5  -8 2174.64 451.093  14
  -2   5   8 1433.87 382.540   3
   2  -5  -7 23492.0 1449.41  14
  -2   5   7 24720.9 1467.85   3
  -2   5   6 12710.5 987.983   2
   2  -5  -5 2919.84 369.464  28
  -2   5   5 2131.64 371.594   2
   2  -5  -4 24235.6 1098.82  29
   2  -5  -4 26230.1 1150.04  28
  -2   5   3 124915. 3077.28   2
   2  -5  -3 130301. 3144.40  28
   2  -5  -3 127922. 3121.07  29
   2  -5  -2 20297.0 965.126  28
  -2   5   2 18194.0 861.437   2
   2  -5  -2 18889.7 898.477  30
   2  -5  -2 18818.7 931.401  29
   2  -5  -1 24189.4 1013.34  30
   2  -5  -1 26132.0 1116.95  29
   2  -5  -1 26451.8 1081.30  23
   2  -5  -1 25945.6 1091.69  28
   2  -5   0 17288.5 888.596  29
   2  -5   0 15865.5 823.285  28
   2  -5   0 16817.3 843.879  23
   2  -5   0 15526.2 749.364  30
   2  -5   1 187.199 108.858  21
   2  -5   1 320.441 143.924  23
   2  -5   1 190.003 113.417  28
   2  -5   2 283120. 5556.76  28
   2  -5   2 287491. 5824.97  21
   2  -5   2 285723. 5725.72  23
   2  -5   3 244201. 4818.31  28
   2  -5   3 231435. 5230.63  21
   2  -5   3 245706. 5052.31  23
   2  -5   4 5698.33 597.315  21
   2  -5   5 51393.0 2043.48  21
   2  -5   6 6359.52 700.388  21
   2  -5   7-27.7054 126.681   6
   2  -5   8 1148.93 307.377   6
   2  -5   9 3376.16 526.529   6
   2  -5   9 4057.49 613.412   9
   2  -5  10 684.027 245.722  13
   2  -5  10 669.889 252.986   9
   2  -5  11 7676.77 719.490   9
   2  -5  11 8500.02 711.616  13
   2  -5  12 2129.76 280.856  13
   2  -5  12 2579.51 316.947  12
  -2   4  13 210.920 113.577  19
  -2   4  13 177.819 102.705   3
  -2   4  12 16311.4 1014.16   3
  -2   4  11 11345.7 950.207   3
  -2   4  10 9504.32 925.190   3
   2  -4 -10 9700.55 851.301  14
   2  -4  -9 33897.0 1738.58  14
  -2   4   9 37576.9 1925.61   3
  -2   4   8 16907.7 1255.38   3
   2  -4  -8 18060.2 1244.13  14
  -2   4   7 167079. 4694.39  27
  -2   4   6 1535.56 344.690  27
  -2   4   6 1361.63 324.801   2
   2  -4  -5 1048.93 205.290  28
  -2   4   5 1228.50 271.562  27
  -2   4   5 818.749 237.046   2
   2  -4  -4 55872.9 1644.32  28
   2  -4  -4 53689.0 1670.27  29
  -2   4   3 182.006 111.192   2
  -2   4   3 215.892 114.334  27
   2  -4  -3 190.985 105.078  28
   2  -4  -2 15532.6 756.634  28
  -2   4   2 14323.9 679.704   2
  -2   4   2 15220.4 615.578  27
   2  -4  -2 15056.3 748.592  29
   2  -4  -1 94126.7 2201.53  30
   2  -4  -1 95985.5 2302.80  29
   2  -4  -1 92152.4 2268.50  23
   2  -4   0 9093.90 495.226  30
   2  -4   0 9286.46 555.308  29
   2  -4   0 9352.61 562.849  28
   2  -4   0 8676.17 538.351  23
   2  -4   0 9150.05 482.760  21
   2  -4   1 48646.1 1429.05  28
   2  -4   1 51324.1 1502.56  29
   2  -4   1 49444.9 1483.31  23
   2  -4   1 51177.4 1475.94  21
  -2   4  -2 4146.69 295.266  32
   2  -4   2 4302.22 385.190  23
   2  -4   2 4045.17 343.740  28
  -2   4  -3 524.890 142.781  32
   2  -4   3 605.846 182.591  21
   2  -4   3 498.197 150.801  23
   2  -4   3 638.336 130.945  28
  -2   4  -4 14635.4 781.952  32
   2  -4   4 12815.1 848.051  21
   2  -4   5 20597.9 1154.76  21
  -2   4  -5 19163.1 1018.12  32
  -2   4  -6 562.105 191.705  32
   2  -4   6 109.628 107.847  21
   2  -4   7 10917.4 916.242  21
   2  -4   8 2021.87 403.096   6
   2  -4   8 1873.33 427.127   9
   2  -4   9 13451.1 1044.98   6
   2  -4   9 14012.0 1160.42   9
   2  -4  10 8386.62 877.470   9
   2  -4  11 13024.7 1037.82   9
   2  -4  11 16909.9 1118.85  18
   2  -4  12 10738.7 807.475   9
   2  -4  12 9714.47 659.604  13
  -2   3  13 5562.58 508.554   3
  -2   3  12 1889.28 373.747   3
  -2   3  11 24725.6 1488.77   3
  -2   3  10 200.961 195.912   3
   2  -3  -9 1178.06 286.951  14
  -2   3   9 1152.86 352.531   3
   2  -3  -8 84528.4 2831.30  14
  -2   3   8 78682.8 2919.88   3
  -2   3   7 43697.1 1977.92  27
  -2   3   6 135.024 128.794  27
   2  -3  -5 109463. 2636.65  29
   2  -3  -5 116650. 2544.26  28
  -2   3   5 115291. 3063.63  27
  -2   3   5 113576. 3016.46   2
   2  -3  -4 5659.90 425.556  29
   2  -3  -4 5954.98 417.689  28
  -2   3   4 6050.03 495.437   2
  -2   3   4 6447.84 524.206  27
   2  -3  -3 410927. 7513.54  29
  -2   3   3 427097. 7591.43   2
   2  -3  -3 410498. 7571.06  28
  -2   3   3 434720. 7754.38  27
   2  -3  -2 19731.8 792.154  28
  -2   3   2 18205.1 717.994  27
  -2   3   2 17786.2 695.040   2
   2  -3  -1 138176. 2587.42  21
   2  -3  -1 142491. 2903.12  29
   2  -3   0 8606.05 416.930  30
   2  -3   0 7989.34 455.509  29
  -2   3   0 8884.22 301.052  27
  -2   3   0 7768.21 313.094  32
  -2   3  -1 685239. 11023.5  32
   2  -3   1 667779. 11295.8  28
   2  -3   1 658394. 11354.4  23
   2  -3   1 664597. 11298.7  29
   2  -3   2 3872.94 302.385  28
  -2   3  -2 3400.53 281.785  32
   2  -3   2 3193.20 291.161  29
   2  -3   2 3266.62 345.849  21
   2  -3   3 59152.9 1423.13  28
  -2   3  -3 56680.7 1603.91  32
   2  -3   4 36968.7 1473.60  21
   2  -3   5 19380.3 1090.93  21
   2  -3   6 621.825 215.411  21
   2  -3   7 42378.6 1819.96  21
   2  -3   8 3817.21 587.512   9
   2  -3   8 4845.25 632.909  20
   2  -3   8 5254.72 611.992   6
   2  -3   9 3288.08 505.534   6
   2  -3   9 3124.01 532.338   9
   2  -3  10 84740.2 3093.36   9
   2  -3  11 11209.4 988.179   9
   2  -3  12 2474.98 345.704  13
   2  -3  12 2418.72 418.805   9
  -2   2  13 10253.3 723.141  19
  -2   2  13 9795.87 666.936  18
  -2   2  12 144.940 169.995   3
  -2   2  11 23384.0 1465.37   3
  -2   2  10 55341.9 2430.87   3
  -2   2   9 83.2016 154.400   9
  -2   2   9 287.924 165.089   3
  -2   2   8 5877.30 712.723   3
  -2   2   8 5858.13 720.137  27
  -2   2   7-21.8110 105.262  27
  -2   2   6 188.528 147.366  27
  -2   2   5 2426.89 366.050  27
  -2   2   4 3817.01 406.652  27
   2  -2  -4 2420.42 241.977  28
  -2   2   4 3230.04 375.972   2
  -2   2   3 5527.48 426.122  27
  -2   2   3 4517.42 370.100   2
  -2   2   2 611984. 10533.9   1
  -2   2   2 587367. 10625.3  27
  -2   2   1 18814.7 547.121   1
  -2   2   1 19628.1 576.824   2
   2  -2  -1 19926.5 516.182  21
   2  -2   0 281759. 4783.69  30
  -2   2   0 271498. 4831.09  32
  -2   2  -1 698538. 11621.0  32
   2  -2   1 688577. 11612.4  29
   2  -2   2 291021. 5106.36  29
  -2   2  -2 283378. 5276.92  32
  -2   2  -3 259.622 123.395  32
   2  -2   4 31076.6 1124.76  27
   2  -2   4 27266.9 1161.12  21
   2  -2   5 2129.99 318.066  27
   2  -2   5 1967.08 317.001  21
   2  -2   6 743.604 226.849  27
   2  -2   6 906.932 246.812  21
   2  -2   7 1408.04 306.728  27
   2  -2   7 1326.65 308.690  21
   2  -2   8 76476.7 2717.44  20
   2  -2   8 71248.4 2691.28   9
   2  -2   8 72915.8 2536.91  21
   2  -2   9 10050.8 963.768   9
   2  -2  10 42963.3 2107.35   9
   2  -2  11 40892.6 1986.15   9
   2  -2  12 1808.28 372.750   9
   2  -2  13 565.162 186.989   9
   2  -2  13 357.847 150.985  18
  -2   1  13 5526.82 540.120  18
  -2   1  12 7749.96 766.723   3
  -2   1  11 366.089 227.940   3
  -2   1  10 34481.6 1877.36   3
  -2   1  10 37276.0 1888.53   9
  -2   1   9 1162.70 354.044   3
  -2   1   9 1575.45 371.043   9
  -2   1   8 374.601 215.494  27
  -2   1   7 4534.94 577.752  27
  -2   1   6 257.215 158.260  27
  -2   1   5 14454.5 882.713  27
  -2   1   4 27460.5 1114.64  27
  -2   1   3 105686. 2460.27   1
   2  -1  -3 97405.8 2221.10  26
  -2   1   2 451309. 7476.22   1
   2  -1  -2 409529. 7486.05  26
  -2   1   1 135251. 2419.36   1
   2  -1  -1 130133. 2609.39  26
   2  -1   0 133835. 2818.63  26
   2  -1   0 144356. 2471.56  30
   2  -1   1 2172.64 162.568  29
   2  -1   1 2606.15 225.253  26
  -2   1  -1 2863.84 235.485  32
   2  -1   2 69242.7 1348.80  29
   2  -1   2 70606.5 1498.96  26
  -2   1  -3 51754.0 1626.79  32
   2  -1   3 71320.8 1419.25  26
   2  -1   4 12478.5 695.991  27
   2  -1   5 46145.7 1643.93  27
   2  -1   6 10093.1 786.713  27
   2  -1   6 9308.86 706.360  21
   2  -1   7 1264.32 279.158  21
   2  -1   7 1475.34 337.678  27
   2  -1   8 52497.5 2045.94  21
   2  -1   8 47459.6 2108.11  20
   2  -1   8 52849.3 2229.48   9
   2  -1   9 9305.57 921.417   9
   2  -1  10 21563.1 1444.62   9
   2  -1  11 696.139 244.518   9
   2  -1  12 97.8467 135.179   9
   2  -1  13 7745.76 634.747   9
  -2   0  13 9650.34 735.911  18
  -2   0  12 1189.61 311.044   3
  -2   0  12 1121.42 300.879  18
  -2   0  11 10055.4 952.049   3
  -2   0  10 26178.9 1585.10   9
  -2   0  10 20161.0 1421.56   3
  -2   0   9 8095.78 863.419   3
  -2   0   9 8107.99 861.828   9
  -2   0   8 992.725 293.149  27
  -2   0   7 138223. 3735.07  27
  -2   0   6 7628.40 687.219  27
  -2   0   5 10177.0 511.313  31
  -2   0   5 9044.61 671.781  27
  -2   0   4 72181.1 1988.84  27
   2   0  -4 74071.0 1613.66  26
   2   0  -3 88225.5 1993.82  26
  -2   0   3 91878.7 2249.33   1
  -2   0   2 22273.6 764.642   1
  -2   0   1 137720. 2675.40  32
  -2   0   0 203280. 3712.46  32
  -2   0  -1 105657. 2228.54  32
   2   0   1 110012. 1958.56   2
  -2   0  -2 36102.9 1214.32  32
   2   0   2 40294.6 1059.24   2
  -2   0  -3 634.461 178.100  32
   2   0   4 4275.55 422.978  27
   2   0   4 4269.03 403.410   2
   2   0   5 12155.6 800.417  27
   2   0   6 160.557 134.347  27
   2   0   7 18683.9 1235.42  27
   2   0   7 20746.7 1124.31  21
  -2   0  -8 2634.56 482.897  32
   2   0   9 5244.21 681.019   3
   2   0   9 5762.44 712.997   9
   2   0  10 889.670 270.656   3
   2   0  10 864.587 296.946   9
   2   0  11 867.298 288.884   3
   2   0  11 438.779 228.329   9
   2   0  12 3184.09 444.049   3
   2   0  12 2703.37 455.605   9
   2   0  13 129.123 113.244   9
  -2  -1  13 467.341 156.776  18
  -2  -1  12 5984.26 686.419  18
  -2  -1  11 8306.77 850.471   3
  -2  -1  10 679.611 255.921   3
  -2  -1  10 697.151 267.058   9
  -2  -1   9 9572.87 956.201   3
  -2  -1   9 7711.20 848.503   9
  -2  -1   8 1048.57 301.078  27
  -2  -1   7 2173.98 385.658  27
  -2  -1   6 30377.3 1420.69  27
  -2  -1   5 151463. 3493.92  27
  -2  -1   5 139876. 3086.89  31
  -2  -1   4 5352.39 488.402   1
  -2  -1   4 5176.19 462.019  27
  -2  -1   3 2447.51 289.188   1
  -2  -1   2 75859.4 1789.52   1
  -2  -1   1 56642.2 1375.35  32
  -2  -1   0 2112.72 209.775  32
  -2  -1   0 2640.10 138.400  30
  -2  -1  -1 44603.3 1148.60  32
  -2  -1  -2 51452.8 1417.08  32
  -2  -1  -3 37245.4 1290.19  32
   2   1   3 40938.2 1175.63   2
   2   1   4 279958. 5542.20   2
  -2  -1  -4 305406. 5868.08  32
   2   1   5 84881.8 2179.82   2
  -2  -1  -5 48967.0 1891.51  32
  -2  -1  -6 83449.4 2657.08  32
  -2  -1  -7 21473.9 1315.76  32
  -2  -1  -8 29851.5 1585.80   5
   2   1   8 29140.9 1597.61   9
   2   1   8 33321.3 1722.69   3
   2   1   9 7442.84 809.208   9
   2   1   9 6323.69 767.237   3
   2   1  10 23886.3 1514.26   3
   2   1  10 27392.5 1593.16   9
   2   1  11-13.4631 122.791   9
   2   1  11 203.531 175.938   3
   2   1  12 26604.2 1355.45   3
   2   1  12 25921.1 1357.57   9
   2   1  13 339.170 121.354   3
   2   1  13 160.543 102.728   9
  -2  -2  13 676.157 189.358  18
  -2  -2  12 1.23771 113.242  18
  -2  -2  11 975.742 324.826  18
  -2  -2  10 8707.36 909.881   9
  -2  -2   9 6448.70 767.591   9
  -2  -2   9 6135.35 759.136   3
  -2  -2   8 35933.4 1846.45   3
  -2  -2   8 37400.0 1880.28   9
  -2  -2   8 32228.7 1555.94  24
  -2  -2   8 33431.0 1688.18  27
  -2  -2   7-151.589 129.680  27
  -2  -2   6 81906.8 2272.30  31
  -2  -2   6 74043.3 2433.78  27
  -2  -2   5 589.949 160.499  31
  -2  -2   5 299.075 136.569  27
  -2  -2   5 620.146 142.220  22
  -2  -2   4 14262.3 843.379   1
  -2  -2   4 12889.4 744.926  27
  -2  -2   3 92100.8 2279.68   1
  -2  -2   2 22745.8 852.904   1
  -2  -2   1 1179.63 160.144   1
  -2  -2   0 59759.2 1423.11  32
  -2  -2  -1 31678.7 953.188  32
  -2  -2  -2 284356. 5312.55  32
   2   2   3 48580.4 1434.70   2
  -2  -2  -3 56274.7 1629.82  32
  -2  -2  -4 94130.8 2566.40  32
   2   2   4 97087.1 2419.74   2
  -2  -2  -5 131993. 3377.54  32
   2   2   5 116841. 3033.03   2
  -2  -2  -6 6139.55 656.663  32
   2   2   6 5351.73 567.603   2
  -2  -2  -7 213.261 148.438  32
  -2  -2  -8 38470.8 1855.82   5
   2   2   8 41171.8 1879.74   9
   2   2   9 6133.33 747.722   3
   2   2   9 5026.03 657.817   9
  -2  -2  -9 4081.80 613.035   5
   2   2  10 2988.80 527.639   3
   2   2  10 2654.46 479.524   9
   2   2  11 15321.4 1087.93   9
   2   2  11 17342.8 1205.45   3
   2   2  12 27582.4 1362.01   3
   2   2  13 3141.57 346.293   3
  -2  -3  13 4934.32 471.349  18
  -2  -3  12 999.232 269.218  18
  -2  -3  11 7784.47 828.341  18
  -2  -3  10 31475.6 1821.12  18
  -2  -3   9 5981.20 756.478   9
  -2  -3   9 5203.13 722.908  18
  -2  -3   8-88.2999 98.9889   9
  -2  -3   8-54.5144 131.520  18
  -2  -3   7 20294.0 1072.01  31
  -2  -3   7 21225.4 1219.58  24
  -2  -3   6 1103.21 249.847  31
  -2  -3   6 630.451 205.228  27
  -2  -3   5 29339.0 1278.47  31
  -2  -3   5 29967.8 1293.46  27
  -2  -3   4 3933.07 386.201  22
  -2  -3   4 3867.42 451.264   1
  -2  -3   4 3930.10 411.589  27
  -2  -3   3 4896.40 444.069   1
  -2  -3   3 5067.27 430.405  22
  -2  -3   2 23551.3 916.305   1
  -2  -3   1 17840.4 707.639   1
  -2  -3   0 42965.7 1151.65  32
  -2  -3   0 40935.6 1120.13  30
  -2  -3  -1 34995.7 1054.83  32
  -2  -3  -1 30498.8 970.370  30
  -2  -3  -2 28229.9 975.012  32
  -2  -3  -2 27731.1 989.297  22
   2   3   3 4860.48 427.372   2
  -2  -3  -3 5282.48 442.276  32
  -2  -3  -3 6069.79 409.154  22
   2   3   4 1718.42 291.484   2
  -2  -3  -4 2472.48 346.111  32
  -2  -3  -5 6751.60 641.961  32
   2   3   5 5701.31 545.283   2
  -2  -3  -6 4757.76 594.827  32
   2   3   6 4608.72 536.104   2
  -2  -3  -7 38657.5 1866.19   5
   2   3   7 37448.8 1822.81   2
   2   3   8 110386. 3639.15   3
  -2  -3  -8 125165. 3792.69   5
   2   3   9 10374.0 987.546   3
   2   3  10 346.333 195.022   3
   2   3  11 142.882 170.959   3
   2   3  12 2980.51 424.218   3
  -2  -4  12 28195.0 1358.19  18
  -2  -4  11 14455.5 1096.53  18
  -2  -4  10 17506.9 1308.78  18
  -2  -4   9 12722.2 1144.42  18
  -2  -4   8-448.174 227.615  18
  -2  -4   7 25506.2 1585.02  18
  -2  -4   6 19.1493 80.9652  31
  -2  -4   6 35.1771 86.2501  24
  -2  -4   5 72132.1 2437.25  24
  -2  -4   5 79902.0 2478.34  31
  -2  -4   4 183284. 4365.16  31
  -2  -4   4 184253. 4285.90  22
  -2  -4   3 5510.21 518.773   1
  -2  -4   3 5302.23 491.865  22
  -2  -4   2 24353.4 989.369   1
  -2  -4   2 25218.5 1092.31  22
  -2  -4   1 38016.1 1371.96  22
  -2  -4   1 38195.8 1229.15   1
  -2  -4   0 19706.8 763.006  24
  -2  -4   0 18699.8 892.586  22
  -2  -4  -1 13602.2 678.720  30
  -2  -4  -1 12975.1 729.315  22
  -2  -4  -2 35685.7 1224.90  30
  -2  -4  -2 34537.0 1259.62  22
   2   4   3 153493. 3587.09   2
  -2  -4  -3 159280. 3409.67  22
   2   4   4 101917. 2769.60   2
   2   4   5 26265.1 1311.46   2
   2   4   6 6453.14 670.093   2
  -2  -4  -7 575.137 238.028   5
   2   4   8 25103.1 1580.79   3
  -2  -4  -8 31356.3 1746.38   5
   2   4   9 1328.79 355.403   3
   2   4  10 378.562 213.784   3
   2   4  11 1813.73 382.765   3
   2   4  12 41417.5 1567.16   3
  -2  -5  12 1445.99 253.056  12
  -2  -5  12 1865.47 290.195  18
  -2  -5  11 770.807 244.561  12
  -2  -5  11 487.637 192.908  18
  -2  -5  10-279.377 179.811  18
  -2  -5   9 31671.6 1818.56  18
  -2  -5   8 8456.92 929.579  18
  -2  -5   7 1115.87 340.593  18
  -2  -5   6 26374.1 1392.67  13
  -2  -5   6 24128.0 1528.59  18
  -2  -5   5 3050.40 459.311  31
  -2  -5   5 2721.85 429.864  24
  -2  -5   4 5803.38 594.335  24
  -2  -5   4 5731.93 596.185  31
  -2  -5   4 6190.75 595.786  22
  -2  -5   3 79498.2 2445.23  31
  -2  -5   3 81359.3 2430.05  22
  -2  -5   3 73569.4 2348.84  24
  -2  -5   2 94778.5 2686.95  31
  -2  -5   2 98695.7 2639.54  24
  -2  -5   2 98730.9 2754.15  22
  -2  -5   1 17176.8 938.163  31
  -2  -5   1 18704.4 902.345  24
  -2  -5   1 18286.1 1003.00  22
  -2  -5   0 80437.9 2338.19  22
  -2  -5   0 75290.9 2033.33  30
  -2  -5  -1 14055.5 771.779  30
  -2  -5  -1 13048.5 818.745  22
  -2  -5  -2 21404.9 1038.36  30
  -2  -5  -2 22760.4 1077.15  22
  -2  -5  -3 412.601 167.950  30
   2   5   3 109.803 94.6097   2
   2   5   4 35588.6 1557.30   2
   2   5   5 955.334 270.766   2
  -2  -5  -6 22715.2 1325.07  11
  -2  -5  -6 21544.3 1423.43   5
  -2  -5  -7 19.8859 124.093  11
  -2  -5  -7 239.486 189.333   5
   2   5   8 8524.04 906.810   3
  -2  -5  -8 11340.1 908.793  11
  -2  -5  -8 8480.42 906.038   5
   2   5   9 4551.90 642.176   3
  -2  -5 -10 1027.67 262.117  14
   2   5  10 538.244 256.925   3
   2   5  11 2241.35 376.306   3
  -2  -6  11 4685.75 494.498  12
  -2  -6  11 5152.49 503.361  18
  -2  -6  10 66.8483 129.053  12
  -2  -6  10 346.203 181.780  18
  -2  -6   9 20907.8 1384.21  18
  -2  -6   9 21144.5 1348.33  12
  -2  -6   8 773.093 274.005  18
  -2  -6   8 759.370 275.012  12
  -2  -6   7 6022.14 666.553  13
  -2  -6   7 5916.09 762.029  18
  -2  -6   7 5822.80 729.366  12
  -2  -6   6 58025.0 2278.09  13
  -2  -6   6 59694.8 2459.11  12
  -2  -6   6 56051.4 2487.27  18
  -2  -6   5 197.345 158.773  12
  -2  -6   5-15.1798 188.113  13
  -2  -6   4 167.137 104.322  24
  -2  -6   4 404.031 183.007  12
  -2  -6   3 117331. 3328.92  24
  -2  -6   3 115687. 3340.50  31
  -2  -6   2 24.7358 92.8577  31
  -2  -6   2 61.5845 90.1153  24
  -2  -6   2 104.810 107.896  22
  -2  -6   1 23020.9 1222.32  31
  -2  -6   1 22615.2 1222.09  22
  -2  -6   0 14924.4 926.467  31
  -2  -6   0 13864.9 933.060  22
  -2  -6  -1 3874.45 427.913  30
  -2  -6  -2 2108.20 333.785  30
  -2  -6  -3 95.0186 82.4260  30
   2   6   3-4.02841 145.649   2
  -2  -6  -4 852.671 275.086  11
  -2  -6  -5 28010.9 1627.13   5
  -2  -6  -5 24590.9 1459.24  11
  -2  -6  -6 389.799 179.507  11
  -2  -6  -6 191.287 178.970   5
  -2  -6  -7 41419.7 1919.41  11
  -2  -6  -7 41328.7 2088.52   5
  -2  -6  -8 565.897 200.506  11
   2   6   8 212.077 191.829   3
   2   6   9 6269.21 720.093   3
  -2  -6 -10 3708.96 450.746  14
   2   6  10 3060.92 457.893   3
   2   6  11 7933.34 614.398   3
  -2  -7  10 131.108 94.7637  12
  -2  -7   9 1044.00 300.588  12
  -2  -7   8 2315.94 394.718  13
  -2  -7   8 2100.43 424.763  12
  -2  -7   7 50098.2 2272.44  12
  -2  -7   7 58289.0 2239.03  13
  -2  -7   6-301.175 279.444  13
  -2  -7   6-15.3410 124.019  12
  -2  -7   5 58147.0 2342.23  13
  -2  -7   5 59517.6 2479.21  12
  -2  -7   4 26402.8 1491.71  13
  -2  -7   4 25862.2 1539.19  12
  -2  -7   3 10193.0 915.920  12
  -2  -7   3 9348.96 857.554  13
  -2  -7   2 3955.62 558.008  12
  -2  -7   2 4218.75 571.629  13
  -2  -7   1 4630.75 584.703  12
  -2  -7   1 4110.36 581.961  10
  -2  -7   1 4435.61 589.808  13
  -2  -7   0 210.662 154.044  12
  -2  -7   0 604.808 232.319  10
  -2  -7  -1 840.272 273.507  12
  -2  -7  -1 1204.44 338.034  17
  -2  -7  -2 804.205 257.565  11
  -2  -7  -3 16263.5 1206.67  11
  -2  -7  -4 6182.72 732.452  11
  -2  -7  -5 10343.2 963.605  11
  -2  -7  -6 71.8744 145.122  11
  -2  -7  -6 209.632 160.601   5
   2   7   7 1915.07 421.835   3
  -2  -7  -7 1280.53 320.822  11
   2   7   8 21177.7 1329.13   3
  -2  -7  -9 9584.55 785.515  14
   2   7   9 9828.04 818.279   3
  -2  -7 -10 3006.73 358.595  14
   2   7  10 3542.42 413.948   3
  -2  -8  10 237.041 91.7175  12
  -2  -8   9 10736.0 779.284  12
  -2  -8   8 4006.15 481.394  13
  -2  -8   8 3219.82 487.622  12
  -2  -8   7 7693.46 735.482  13
  -2  -8   7 5993.93 706.196  12
  -2  -8   6 308.053 174.892  12
  -2  -8   6 505.580 270.297  13
  -2  -8   5 1549.27 335.483  16
  -2  -8   5 969.920 304.204  12
  -2  -8   5 1630.14 409.813  13
  -2  -8   4 17945.0 1256.17  13
  -2  -8   4 15589.5 1200.04  12
  -2  -8   3 8036.02 850.755  13
  -2  -8   3 6810.86 784.102  12
  -2  -8   2 5787.59 702.609  12
  -2  -8   1 52022.9 2230.75  12
  -2  -8   0 7501.00 793.339  12
  -2  -8   0 7080.51 807.207  11
  -2  -8  -1 61027.7 2553.81  11
  -2  -8  -2 58838.1 2514.84  11
  -2  -8  -3 26106.9 1606.76  11
  -2  -8  -4 14798.5 1178.07  11
  -2  -8  -5 9.37797 154.413  11
   2   8   6 4038.65 569.070   3
  -2  -8  -6 4057.32 577.866  11
   2   8   7 782.347 242.683   3
  -2  -8  -7 650.777 230.494  11
  -2  -8  -8 397.138 199.301  14
   2   8   8 159.054 96.8255   3
  -2  -8  -9 17422.2 936.728  14
  -2  -9   8 696.501 196.952  12
  -2  -9   7 24.5928 178.172  12
  -2  -9   6 2464.50 427.357  12
  -2  -9   5 396.604 135.083  16
  -2  -9   5-26.7671 201.973  12
  -2  -9   4 1475.43 339.104  16
  -2  -9   4 1337.61 334.801  12
  -2  -9   3 6517.70 738.587  12
  -2  -9   3 5874.89 686.698  16
  -2  -9   2 4334.76 623.047  12
  -2  -9   1 20471.2 1352.13  12
  -2  -9   1 18218.4 1310.47  11
  -2  -9   0 11477.0 1047.88  11
  -2  -9  -1 49385.3 2287.88  11
  -2  -9  -1 50602.5 2161.19  16
  -2  -9  -2 5202.29 706.482  11
  -2  -9  -2 5313.51 638.976  16
  -2  -9  -3 3769.91 597.891  11
  -2  -9  -3 4258.51 552.448  16
  -2  -9  -4 2134.25 450.142  11
  -2  -9  -5 2482.21 463.726  11
  -2  -9  -6 6235.63 666.543  11
  -2  -9  -7 278.832 143.722  14
  -2  -9  -8 128.478 96.8935  14
  -2 -10   7 92.4893 97.1521  12
  -2 -10   6 8522.02 683.050  12
  -2 -10   5 11073.0 852.896  12
  -2 -10   5 10784.0 738.323  16
  -2 -10   4 1671.68 319.582  16
  -2 -10   4 1230.08 328.246  12
  -2 -10   3 22556.3 1330.59  12
  -2 -10   3 19289.3 1184.40  16
  -2 -10   2 10310.0 884.361  16
  -2 -10   1 6243.07 693.566  16
  -2 -10   0 10363.7 926.896  11
  -2 -10   0 9449.09 854.904  16
  -2 -10  -1 228.504 144.263  16
  -2 -10  -1 395.245 200.064  11
  -2 -10  -2 9649.92 886.717  11
  -2 -10  -2 9512.46 800.007  16
  -2 -10  -2 10014.3 789.103   8
  -2 -10  -3 6464.11 602.191  16
  -2 -10  -3 6708.66 717.789  11
  -2 -10  -4 4496.35 569.421  11
  -2 -10  -5 3077.88 440.565  11
  -2 -10  -5 3093.60 419.243  14
  -2 -10  -6 324.523 143.747  14
  -2 -11   3 9.81101 73.7497  16
  -2 -11   2 21182.9 1108.20  16
  -2 -11   1 4845.58 531.477  16
  -2 -11   0 255.870 143.524  16
  -2 -11  -1 854.438 210.538  11
  -2 -11  -1 750.709 205.378  16
  -2 -11  -2 4667.22 495.612  11
  -2 -11  -2 5092.17 471.247  16
  -2 -11  -3 26.8663 79.5031  11
   3 -12  -3-36.5598 79.1098   8
   3 -12  -2-27.3901 118.645   8
   3 -12  -1-2.27190 135.309   8
   3 -12   0 2520.52 356.811   8
   3 -12   1 2859.20 371.240   8
   3 -12   2 1743.61 278.394   8
   3 -11  -6 3942.84 393.059   8
   3 -11  -5 5368.54 526.374   8
   3 -11  -4 994.497 259.760   8
   3 -11  -3 6090.93 636.241   8
   3 -11  -2 22208.6 1280.72   8
   3 -11  -1 514.920 309.160  16
   3 -11  -1 92.9650 138.205   8
   3 -11   0 2357.01 416.131   8
   3 -11   0 2894.40 492.024  16
   3 -11   1 18273.2 1169.96   8
   3 -11   1 18598.7 1210.31  16
   3 -11   2 3751.61 530.521  16
   3 -11   2 3049.17 459.089   8
   3 -11   3 4073.68 542.788  16
   3 -11   3 2606.95 404.301   8
   3 -11   4 9118.97 716.508  13
   3 -11   5 2666.51 383.861  13
   3 -11   6 10018.5 635.955  13
   3 -10  -8 679.008 187.132  25
   3 -10  -7 510.508 162.053   8
   3 -10  -7 326.062 138.881  14
   3 -10  -7 368.917 157.155  25
   3 -10  -6 3860.85 502.390  14
   3 -10  -6 2880.74 435.151  25
   3 -10  -6 3744.62 468.142   8
   3 -10  -5 25954.7 1390.06  14
   3 -10  -5 24603.3 1338.51   8
   3 -10  -5 25380.2 1385.42  25
   3 -10  -4 11741.4 947.499   8
   3 -10  -4 11787.5 942.954  25
   3 -10  -3 7419.84 742.752  16
   3 -10  -3 9633.81 881.663   8
   3 -10  -2 6250.33 711.799  16
   3 -10  -2 5521.44 675.905   8
   3 -10  -1 10834.5 957.424   8
   3 -10  -1 9724.55 908.772  16
   3 -10   0 2410.55 452.992   8
   3 -10   0 2408.69 443.138  16
   3 -10   1 136.210 141.355   8
   3 -10   1 192.686 203.704  16
   3 -10   2 2527.81 462.060   8
   3 -10   2 3164.29 498.499  13
   3 -10   2 2647.88 456.208  16
   3 -10   3 3704.85 521.818  13
   3 -10   3 4684.50 574.995  12
   3 -10   3 4179.71 584.252  16
   3 -10   3 3045.29 487.717   8
   3 -10   4 45.3223 115.337   8
   3 -10   4 232.572 178.863  16
   3 -10   4-60.9221 211.444  13
   3 -10   5 88.0204 191.242  13
   3 -10   6 213.113 200.774  13
   3 -10   6 1072.94 281.490   6
   3 -10   7 117.829 157.361  13
   3 -10   8-13.5158 120.021  13
   3  -9  -9 8380.11 620.265  25
   3  -9  -8 4643.27 550.121  14
   3  -9  -7 7883.43 775.960  14
   3  -9  -7 7653.78 674.654   8
   3  -9  -6-19.3613 143.501  14
   3  -9  -5 10153.4 941.977  14
   3  -9  -4 1966.13 425.457  14
   3  -9  -3 1175.72 338.644   8
   3  -9  -3 1310.55 330.615  16
   3  -9  -2 1113.74 319.872   8
   3  -9  -2 1163.66 318.297  16
   3  -9  -1 60617.3 2420.19  16
   3  -9  -1 58012.0 2390.83   8
   3  -9   0 7442.54 799.009  16
   3  -9   0 6565.70 748.109   8
   3  -9   1 1230.58 348.964   8
   3  -9   1 1817.64 387.178  12
   3  -9   1 934.883 298.756  16
   3  -9   2 17649.7 1189.16  13
   3  -9   2 21024.7 1271.28  12
   3  -9   2 17566.1 1256.62  16
   3  -9   2 19637.6 1311.93   8
   3  -9   3 14874.0 1114.86  13
   3  -9   3 15696.5 1169.06   8
   3  -9   3 16845.8 1206.60  16
   3  -9   4 744.624 232.237   8
   3  -9   4 88.5775 248.984  13
   3  -9   4 999.493 305.349   6
   3  -9   4 832.294 254.165  16
   3  -9   5 1504.49 364.399   8
   3  -9   5 1153.82 307.682  13
   3  -9   5 2022.45 406.201   6
   3  -9   6 3474.49 508.520   6
   3  -9   6 3160.09 493.709  13
   3  -9   7 5424.06 608.117  13
   3  -9   7 6524.80 669.706   6
   3  -9   8 736.032 175.997  13
   3  -9   9 2574.01 328.444  13
   3  -8 -10 4017.29 413.633  25
   3  -8  -9 199.728 186.650  14
   3  -8  -8 4014.75 560.017  14
   3  -8  -7 7706.11 821.673  14
   3  -8  -6 292.867 221.788  14
   3  -8  -5 1517.77 384.733  14
   3  -8  -4 10171.1 976.206  14
   3  -8  -3 130.216 124.699  16
   3  -8  -2 79036.5 2749.40  16
   3  -8  -1 479.650 198.130   8
   3  -8  -1 525.934 209.876  16
   3  -8   0 2591.26 453.598  16
   3  -8   0 2656.45 456.010   8
   3  -8   1 235.297 189.353   8
   3  -8   1-6.76246 80.0053  16
   3  -8   2 1001.38 283.878  13
   3  -8   2 1511.72 360.622   8
   3  -8   2 1020.83 307.761  16
   3  -8   3 164.688 145.212   8
   3  -8   3 401.540 190.570  13
   3  -8   3 604.216 220.346   6
   3  -8   3 364.482 205.650  16
   3  -8   4 492.443 211.883   8
   3  -8   4 817.375 278.575   6
   3  -8   4 565.418 213.679  13
   3  -8   4 1199.05 306.708  16
   3  -8   5-23.6329 140.062   8
   3  -8   5 221.317 169.853  13
   3  -8   5-171.161 154.079   6
   3  -8   6 9577.65 891.942   6
   3  -8   6 9263.58 896.953  13
   3  -8   7 226.963 223.063   6
   3  -8   7 18.1179 116.162  13
   3  -8   8 143.430 137.702  13
   3  -8   8-16.4653 167.537   6
   3  -8   9 9571.77 757.974  13
   3  -8  10 34.5246 90.6825  13
   3  -7 -10 4615.46 523.413  14
   3  -7  -9 8149.11 790.189  14
   3  -7  -8 175.913 171.153  14
   3  -7  -7 7830.48 860.198  14
   3  -7  -6 16718.7 1266.64  14
   3  -7  -5 16773.0 1258.38  14
   3  -7  -4 22098.8 1416.95  14
   3  -7  -3 1583.45 356.411  29
   3  -7  -2 15522.3 975.175  30
   3  -7  -2 16320.8 1072.02  28
   3  -7  -1 3992.78 518.817  28
   3  -7  -1 3296.06 408.281  30
   3  -7   0 3244.47 460.121  28
   3  -7   1 53595.6 2005.51  28
   3  -7   2 9503.00 764.237  28
   3  -7   3 26413.5 1466.76  21
   3  -7   3 25885.6 1449.68   8
   3  -7   4 24843.3 1407.39   6
   3  -7   4 23949.6 1420.50  13
   3  -7   4 23924.0 1430.56   8
   3  -7   4 26010.6 1431.19  16
   3  -7   5 5838.93 687.823   6
   3  -7   5 5818.65 707.747  13
   3  -7   5 4902.93 641.888   8
   3  -7   6 2536.77 461.226   8
   3  -7   6 1992.07 399.163   6
   3  -7   6 1600.89 394.182  13
   3  -7   7 3337.90 532.389   6
   3  -7   7 3011.41 511.009  13
   3  -7   8 5814.23 699.230  13
   3  -7   8 5600.58 665.080   6
   3  -7   9 5510.92 632.965   6
   3  -7   9 5362.56 637.015  13
   3  -7  10 1195.06 265.200  13
   3  -7  11 9661.92 606.278  13
  -3   6  11 842.985 213.106   3
   3  -6 -10 10337.6 839.069  14
  -3   6  10 11371.3 870.083   3
   3  -6  -9 26514.3 1527.76  14
   3  -6  -8 15593.3 1199.59  14
   3  -6  -7 1023.41 324.545  14
   3  -6  -6 53175.7 2334.66  14
   3  -6  -5 957.646 295.535  14
  -3   6   5 515.195 179.090   2
   3  -6  -5 825.949 220.607  28
   3  -6  -4 62614.8 2166.37  29
   3  -6  -4 64536.7 2173.93  28
   3  -6  -3 1239.36 273.343  29
   3  -6  -3 1299.91 275.650  30
  -3   6   3 1171.66 255.549   2
   3  -6  -3 1431.71 295.907  28
   3  -6  -2 56177.4 1893.85  30
   3  -6  -2 59161.9 2059.57  29
   3  -6  -2 59722.9 2036.23  28
   3  -6  -1 39730.6 1469.82  30
   3  -6  -1 45127.4 1723.81  29
   3  -6  -1 41001.1 1628.73  28
   3  -6   0 5113.55 463.762  30
   3  -6   0 5990.83 563.309  28
   3  -6   0 6276.60 613.650  29
   3  -6   1 49185.6 1769.99  28
   3  -6   2 125285. 3304.51  21
   3  -6   2 122977. 3151.55  28
   3  -6   3 9922.71 823.611  21
   3  -6   4 36724.7 1749.11  21
   3  -6   5 124.317 109.076   6
   3  -6   6 52309.1 2154.36   6
   3  -6   6 51281.5 2189.37   8
   3  -6   7 348.823 195.802   6
   3  -6   8 7587.37 786.073   6
   3  -6   9 702.552 274.920  13
   3  -6   9 442.134 193.480   6
   3  -6  10 2673.99 423.707  13
   3  -6  11 47.6348 84.8712  13
  -3   5  12 9226.33 649.920   3
  -3   5  11 17344.0 1083.73   3
   3  -5 -10 2425.67 424.920  14
  -3   5  10 3134.16 501.941   3
   3  -5  -9 10574.2 955.284  14
  -3   5   9 11100.0 985.352   3
   3  -5  -8 66.8991 121.651  14
  -3   5   8 540.757 212.116   3
   3  -5  -7 489.864 273.666  14
   3  -5  -6 99165.3 3249.81  14
  -3   5   6 100052. 3335.36   2
  -3   5   5-58.2464 101.732   2
   3  -5  -5 16.1355 79.4753  28
   3  -5  -4 96401.3 2610.52  28
   3  -5  -4 91747.8 2627.45  29
  -3   5   4 88064.2 2587.18   2
   3  -5  -3 9789.33 706.993  28
   3  -5  -3 10004.9 721.315  29
  -3   5   3 9759.42 661.348   2
   3  -5  -2 47244.3 1658.65  29
   3  -5  -2 48963.1 1561.99  30
   3  -5  -2 46058.6 1642.95  28
  -3   5   2 48190.4 1511.57   2
  -3   5   1 1489.73 217.558   2
   3  -5  -1 1756.07 287.381  28
   3  -5  -1 1876.57 287.377  29
   3  -5  -1 1797.33 263.387  30
   3  -5   0 5434.44 422.814  30
   3  -5   0 5679.29 503.263  29
   3  -5   0 6090.74 518.630  28
   3  -5   1 1593.02 264.922  28
   3  -5   1 1391.36 236.728  21
   3  -5   1 1563.11 273.548  29
   3  -5   2 539270. 9793.70  28
   3  -5   2 539218. 10032.7  21
   3  -5   3 28592.3 1116.83  28
   3  -5   3 27666.8 1337.11  21
   3  -5   4 4583.28 550.096  21
   3  -5   5 11148.6 920.809  21
   3  -5   6 1563.65 321.104   6
   3  -5   7 160.733 135.357   6
   3  -5   8 8821.65 836.960   6
   3  -5   8 9635.49 937.552   9
   3  -5   9 9228.11 917.302   9
   3  -5   9 8327.92 805.335   6
   3  -5  10 13746.3 997.581   6
   3  -5  10 16258.9 1149.91   9
   3  -5  11 115.378 120.464  13
   3  -5  11-9.52144 110.817   9
   3  -5  12 11919.2 671.241  13
  -3   4  12 368.743 157.603   3
  -3   4  11 4848.08 608.247   3
   3  -4 -10 13069.5 994.380  14
  -3   4  10 13647.0 1099.91   3
   3  -4  -9 3450.39 529.504  14
  -3   4   9 3932.37 603.827   3
   3  -4  -8 4363.12 607.194  14
  -3   4   8 5115.59 672.543   3
   3  -4  -7 3307.23 528.067  14
  -3   4   7 3889.41 577.484  27
  -3   4   6 74415.5 2607.41  27
   3  -4  -5 5060.52 483.147  29
  -3   4   5 5683.54 589.479  27
   3  -4  -5 5792.69 495.307  28
  -3   4   5 6224.45 638.341   2
   3  -4  -4 31790.5 1285.22  29
   3  -4  -4 40624.5 1428.05  28
  -3   4   4 43588.7 1540.57  27
  -3   4   4 34120.9 1387.82   2
   3  -4  -3 8932.94 606.965  29
  -3   4   3 8990.69 592.420   2
   3  -4  -2 59017.2 1796.28  28
  -3   4   2 58179.1 1589.90   2
   3  -4  -1-12.3855 94.2735  28
   3  -4  -1 32.3555 89.6039  29
   3  -4  -1 26.9015 61.2737  30
  -3   4   1 56.0755 45.4093   2
   3  -4   0 47636.8 1487.52  29
   3  -4   0 49784.7 1535.44  28
   3  -4   0 49810.8 1374.67  21
   3  -4   1 52191.4 1588.12  21
   3  -4   1 47544.7 1497.06  29
   3  -4   1 51511.6 1560.33  28
  -3   4  -2 22160.7 828.509  32
   3  -4   2 20895.7 930.402  29
   3  -4   2 24279.2 987.004  28
   3  -4   2 22912.2 1087.97  21
  -3   4  -3 70672.3 1966.79  32
   3  -4   3 77312.1 1928.53  28
   3  -4   3 74706.2 2313.25  21
  -3   4  -4 142.625 79.6348  32
   3  -4   4 69.9820 125.534  21
   3  -4   5 18580.9 1158.71  21
  -3   4  -5 17285.2 1020.90  32
  -3   4  -6 70881.4 2449.03  32
   3  -4   6 70111.3 2534.66  21
   3  -4   7 100621. 3154.18  20
   3  -4   7 96849.3 3202.00   9
   3  -4   8 5476.64 709.971   9
   3  -4   8 5106.41 625.022   6
   3  -4   8 5016.96 663.141  20
   3  -4   9 2508.90 437.360   6
   3  -4   9 2942.23 528.836   9
   3  -4  10 9295.88 814.842   6
   3  -4  10 8795.98 887.233   9
   3  -4  11 25059.3 1409.12   9
   3  -4  12 47253.7 1608.43  13
   3  -4  12 51065.1 1816.98   9
  -3   3  13 9261.68 644.154  19
  -3   3  12 939.835 258.911   3
  -3   3  11 996.036 303.562   3
  -3   3  10 791.603 308.201   3
   3  -3  -9 53045.9 2197.83  14
  -3   3   9 50314.1 2290.30   3
   3  -3  -8 41518.2 1913.69  14
  -3   3   8 39378.1 1948.98   3
  -3   3   7 3310.93 519.293  27
  -3   3   6 102971. 3116.64  27
   3  -3  -5 116713. 2815.17  28
  -3   3   5 128964. 3409.18  27
  -3   3   4 19082.9 990.188   2
  -3   3   4 18169.7 993.768  27
  -3   3   3 119186. 2767.62  27
  -3   3   3 104227. 2549.43   2
  -3   3   2 5274.63 361.086   1
  -3   3   2 4887.05 399.632  27
  -3   3   2 3972.12 315.771   2
  -3   3   1 7271.49 347.737   1
   3  -3  -1 7124.46 389.060  30
   3  -3  -1 6280.34 441.402  29
  -3   3   1 7221.60 361.285   2
  -3   3   0 834.599 91.9946   2
  -3   3   0 734.867 128.880  32
   3  -3   0 711.682 114.315  30
   3  -3   0 723.554 145.850  29
   3  -3   1 22707.3 908.088  21
   3  -3   1 21886.1 832.223  29
  -3   3  -1 20710.6 760.822  32
  -3   3  -2 1548.86 214.606  32
   3  -3   2 1547.86 207.195  29
   3  -3   2 1962.90 289.138  21
   3  -3   3 5000.14 397.738  29
  -3   3  -3 6139.45 481.459  32
   3  -3   3 5547.89 509.516  21
  -3   3  -4 26933.9 1173.64  32
   3  -3   4 22521.0 1151.17  21
  -3   3  -5 62542.3 2184.49  32
   3  -3   5 80680.7 2472.41  21
  -3   3  -6 7254.42 724.422  32
   3  -3   6 8911.15 814.476  21
  -3   3  -7 1708.13 390.755  32
   3  -3   7 2169.18 413.081  21
   3  -3   8 2943.95 506.866   9
   3  -3   8 2650.51 436.891   6
   3  -3   8 2537.54 469.838  20
   3  -3   9 2033.84 429.795   9
   3  -3   9 1847.10 359.295   6
   3  -3  10-59.4707 204.660   9
   3  -3  11 11567.2 974.080   9
   3  -3  12 1530.83 318.366   9
   3  -3  13 67.1215 85.6781   9
  -3   2  13 536.274 175.679  19
  -3   2  12 19990.6 1210.22   3
  -3   2  12 20151.7 1141.51  18
  -3   2  11 1035.04 299.163   3
  -3   2  10 11594.8 1056.77   3
  -3   2   9 88727.5 3171.21   3
  -3   2   8 69.2144 122.972   3
  -3   2   7 20775.3 1293.40  27
  -3   2   6 7434.88 739.932  27
  -3   2   5 99222.2 2867.30  27
  -3   2   4 25932.8 1154.79  27
  -3   2   3 66751.8 1971.64  27
  -3   2   3 82761.9 2081.43   1
  -3   2   2 622.594 134.800   1
   3  -2  -2 536.369 170.750  26
  -3   2   1 9509.31 482.895  32
   3  -2  -1 8684.14 543.647  26
   3  -2   0 142395. 3056.24  26
   3  -2   0 158461. 2574.10  30
  -3   2  -1 147264. 3067.81  32
   3  -2   1 151096. 3210.59  26
  -3   2  -2 96064.7 2277.55  32
   3  -2   2 90276.8 2042.94  29
  -3   2  -3 3404.91 365.460  32
   3  -2   3 3364.65 270.042  29
  -3   2  -4 1856.66 307.005  32
  -3   2  -5 11420.5 829.449  32
   3  -2   5 13633.8 890.941  21
  -3   2  -6 8750.21 781.916  32
   3  -2   6 10073.1 813.160  21
   3  -2   7 34850.4 1654.86  21
  -3   2  -7 28948.3 1605.27  32
   3  -2   8 4872.38 642.587  20
   3  -2   9 5315.54 693.111  20
   3  -2   9 6523.32 774.127   9
   3  -2  10 1528.72 381.187   9
   3  -2  11 231.897 151.589   9
   3  -2  12 130.175 134.203   9
   3  -2  13 7446.10 575.107   9
  -3   1  13 27271.1 1171.94  18
  -3   1  12 813.034 256.997  19
  -3   1  12 674.972 212.702  18
  -3   1  11 7876.43 831.486   3
  -3   1  11 8971.78 866.731  18
  -3   1  10 5707.34 743.937   3
  -3   1   9 4012.19 619.863   3
  -3   1   8 25358.6 1522.16   3
  -3   1   8 24562.7 1448.99   9
  -3   1   7 70.5452 131.113  27
  -3   1   6 1223.96 301.400  27
  -3   1   5 19225.0 1053.67  27
   3  -1  -4 8501.06 536.022  26
  -3   1   4 7584.38 609.112  27
  -3   1   3 7842.58 523.493   1
   3  -1  -3 7267.12 484.627  26
   3  -1  -2 3652.64 338.949  26
  -3   1   2 3334.19 296.533   1
  -3   1   1 191705. 3503.48  32
   3  -1  -1 158920. 3555.93  26
   3  -1   0 449.608 135.770  26
  -3   1   0 746.859 150.029  32
   3  -1   1 2551.83 274.112  26
  -3   1  -1 2522.49 259.456  32
  -3   1  -2 94366.7 2386.64  32
   3  -1   2 101530. 2371.89  26
   3  -1   3 134034. 2422.31  29
   3  -1   3 125867. 2684.12  26
  -3   1  -4 1476.99 277.596  32
  -3   1  -5 115157. 3180.48  32
  -3   1  -6 2451.72 420.083  32
  -3   1  -7 101333. 3346.13  32
   3  -1   7 116898. 3293.12  21
   3  -1   8 15394.8 1145.51  20
   3  -1   9 4178.63 617.846   9
   3  -1   9 3880.02 596.172  20
   3  -1  10 12852.0 1105.10   9
   3  -1  11 3216.47 528.268   9
   3  -1  12 782.217 242.007   9
   3  -1  13 6616.61 546.000   9
  -3   0  13 2441.46 355.270  18
  -3   0  12 25.7171 107.297  18
  -3   0  11 12123.0 1044.21   3
  -3   0  11 15368.9 1169.91  19
  -3   0  11 15863.6 1189.77  18
  -3   0  10 31840.1 1802.74   3
  -3   0   9 20883.5 1438.24   3
  -3   0   8 42591.5 1983.69   9
  -3   0   8 43783.1 2067.32   3
  -3   0   7 1322.61 330.132  27
  -3   0   6 117.837 89.4546  27
  -3   0   5 35077.3 1541.88  27
  -3   0   5 56794.2 1998.19   1
   3   0  -4 97784.4 2358.86  26
  -3   0   4 104312. 2646.61  27
  -3   0   4 98918.6 2712.98   1
  -3   0   3 79837.3 2052.65   1
   3   0  -3 81097.8 1975.77  26
  -3   0   2 353692. 6414.63   1
  -3   0   1 3165.29 286.323  32
  -3   0   0 77155.4 1869.30  32
   3   0   1 60018.9 1172.56   2
  -3   0  -1 50051.8 1460.45  32
   3   0   2 32739.9 822.378   2
  -3   0  -2 21966.3 957.509  32
  -3   0  -3 19927.3 953.348  32
  -3   0  -4 28006.1 1254.31  32
   3   0   4 30174.9 1148.32   2
  -3   0  -5 293.853 141.730  32
  -3   0  -6 11941.2 940.709  32
  -3   0  -7 542.900 246.388  32
   3   0   8 3423.19 525.023  20
  -3   0  -8 3376.92 500.207   5
   3   0   8 3468.22 530.017   3
  -3   0  -9 12048.1 985.478   5
   3   0   9 12618.6 1077.61   9
   3   0   9 14096.3 1115.84   3
   3   0  10 12662.8 1084.94   9
   3   0  10 14464.9 1110.88   3
   3   0  11 258.822 156.937   9
   3   0  12 3811.03 509.019   9
   3   0  13 8355.84 587.493   9
  -3  -1  13 45.7739 97.4092  18
  -3  -1  12 14510.2 1033.33  18
  -3  -1  11 517.109 244.743  18
  -3  -1  10 287.526 160.358   3
  -3  -1  10 401.774 235.271  18
  -3  -1   9 287.563 191.956   3
  -3  -1   8 17199.7 1261.03   3
  -3  -1   7 12797.7 1009.48  27
  -3  -1   6 39632.6 1701.72  27
  -3  -1   5 12557.8 850.473  27
  -3  -1   5 13723.0 936.059   1
  -3  -1   4 89955.2 2486.12  27
  -3  -1   4 107792. 2769.51   1
  -3  -1   3 22765.6 960.029   1
  -3  -1   2 17634.3 764.288   1
  -3  -1   1 99055.0 2271.79  32
  -3  -1   0 549595. 9597.91  32
  -3  -1  -1 2216.21 258.157  32
   3   1   2 2238.17 214.787   2
  -3  -1  -2 3011.40 321.778  32
  -3  -1  -3 1772.80 274.287  32
   3   1   3 1724.90 215.470   2
  -3  -1  -4 42262.9 1552.28  32
   3   1   4 31397.8 1174.16   2
  -3  -1  -5 2656.15 417.711  32
   3   1   5 2541.03 345.257   2
  -3  -1  -6 2351.76 428.779  32
  -3  -1  -7 1991.29 404.935  32
   3   1   8 159430. 4438.28   3
   3   1   8 156347. 4374.23  20
  -3  -1  -8 151498. 4249.81   5
   3   1   9 61087.4 2529.19   3
   3   1   9 61779.0 2533.79   9
  -3  -1  -9 67252.9 2557.42   5
   3   1  10 3416.73 554.565   9
   3   1  10 3298.92 548.020   3
   3   1  11 3622.09 529.281   3
   3   1  11 4021.47 571.634   9
   3   1  12 5235.90 532.837   3
   3   1  12 4864.72 542.488   9
  -3  -2  13 335.858 145.812  18
  -3  -2  12 10151.7 853.653  18
  -3  -2  11 9720.94 920.644  18
  -3  -2  10 170.473 203.915  18
  -3  -2   9 14199.2 1199.10  18
  -3  -2   8 21150.9 1439.57  18
  -3  -2   7 283.240 116.389  27
  -3  -2   6 39781.8 1714.15  27
  -3  -2   6 42413.0 1580.46  31
  -3  -2   5 1923.82 331.221  27
  -3  -2   5 2109.79 371.314   1
  -3  -2   4 132214. 3242.79  27
  -3  -2   4 142025. 3459.73   1
  -3  -2   3 23562.3 1017.23   1
  -3  -2   2 84.0909 81.9838   1
  -3  -2   1 134443. 2930.87  32
  -3  -2   0 10676.7 560.521  32
  -3  -2  -1 1776.95 239.633  32
  -3  -2  -2 2322.68 291.591  32
  -3  -2  -3 9693.17 656.228  32
   3   2   3 9774.71 576.908   2
  -3  -2  -4 186654. 4283.61  32
   3   2   4 184442. 3989.66   2
  -3  -2  -5 8703.17 750.697  32
   3   2   5 7324.47 611.444   2
   3   2   6 819.483 226.102   2
  -3  -2  -6 680.953 234.764  32
  -3  -2  -7 20386.2 1398.72  32
  -3  -2  -7 23892.2 1405.84   5
   3   2   8 8280.36 871.467   3
  -3  -2  -8 9474.44 903.486   5
   3   2   9 1115.42 326.041   9
   3   2   9 1143.39 343.291   3
  -3  -2  -9 1047.35 329.192   5
   3   2  10 539.538 246.548   3
   3   2  10 495.313 220.167   9
   3   2  11 2828.56 442.847   9
   3   2  11 3363.22 509.127   3
   3   2  12 12179.7 818.928   3
  -3  -3  12 216.224 149.993  18
  -3  -3  11 12736.0 1044.72  18
  -3  -3  10 2784.75 531.565  18
  -3  -3   9 540.191 255.024  18
  -3  -3   8 40075.4 2080.52  18
  -3  -3   7 8539.06 890.840  18
  -3  -3   6 14312.4 937.254  31
  -3  -3   6 11830.1 899.540  27
  -3  -3   5 46191.9 1730.95  31
  -3  -3   5 48455.0 1845.01  27
  -3  -3   5 48943.9 1690.11  22
  -3  -3   4 46158.5 1781.93   1
  -3  -3   4 47397.9 1641.56  27
  -3  -3   4 43402.0 1568.67  22
  -3  -3   3 2820.91 349.388   1
  -3  -3   2 40303.6 1384.02   1
  -3  -3   1 101335. 2406.64   1
  -3  -3   0 812.913 162.939  32
  -3  -3   0 633.778 115.383  30
  -3  -3  -1 32496.5 1166.66  32
  -3  -3  -1 32408.8 1001.03  30
  -3  -3  -2 113799. 2803.52  32
  -3  -3  -2 124432. 2629.88  30
  -3  -3  -3 14158.5 809.944  32
   3   3   3 13161.2 748.517   2
  -3  -3  -3 15726.7 771.247  22
  -3  -3  -4 98693.0 2835.36  32
   3   3   4 115259. 2864.77   2
  -3  -3  -5 16015.2 1035.20  32
   3   3   5 10427.6 776.590   2
  -3  -3  -6 15377.9 1114.08  32
   3   3   6 11903.1 909.408   2
  -3  -3  -7 4432.48 626.550   5
  -3  -3  -8 40652.6 2007.33   5
   3   3   9 25792.5 1585.29   3
  -3  -3  -9 27414.4 1615.56   5
   3   3  10 18015.2 1267.71   3
   3   3  11 513.435 219.176   3
   3   3  12 19745.3 1017.62   3
  -3  -4  12 13215.6 784.692  12
  -3  -4  12 12772.4 847.272  18
  -3  -4  11 8002.16 782.203  18
  -3  -4  10 4.12580 136.716  18
  -3  -4   9 1586.38 419.149  18
  -3  -4   8 49261.1 2359.70  18
  -3  -4   7 907.621 306.784  18
  -3  -4   6 12213.6 914.124  31
  -3  -4   6 10397.6 977.079  18
  -3  -4   5 9103.40 758.816  31
  -3  -4   5 9710.71 752.156  22
  -3  -4   4 11838.2 814.236  22
  -3  -4   4 10991.9 882.218   1
  -3  -4   3 68451.4 2122.93   1
  -3  -4   3 61981.1 2063.89  22
  -3  -4   2 29942.4 1234.45   1
  -3  -4   2 29816.5 1316.16  22
  -3  -4   1 17041.6 957.301  22
  -3  -4   1 18155.1 883.823   1
  -3  -4   0 71017.5 2149.79  22
  -3  -4  -1 3765.27 343.639  30
  -3  -4  -1 3620.59 415.544  22
  -3  -4  -2 67255.4 1845.55  30
  -3  -4  -2 59453.0 1915.87  22
   3   4   3 5629.13 534.392   2
  -3  -4  -3 6722.96 522.864  30
  -3  -4  -3 6107.20 522.432  22
   3   4   4 12153.7 833.158   2
   3   4   5 39691.1 1696.46   2
  -3  -4  -6 12082.8 1047.39   5
  -3  -4  -7 2448.42 490.742   5
  -3  -4  -8 25455.2 1580.94   5
   3   4   9 176.029 188.156   3
  -3  -4  -9-34.9279 158.798   5
   3   4  10 2364.00 449.094   3
   3   4  11 3892.56 501.354   3
   3   4  12 1542.73 247.706   3
  -3  -5  11 2.40410 94.7113  12
  -3  -5  11 99.0598 111.397  10
  -3  -5  11 44.8753 111.375  18
  -3  -5  10 15332.3 1143.72  18
  -3  -5  10 13986.6 1020.15  12
  -3  -5   9 5888.84 762.766  18
  -3  -5   8 409.384 239.375  18
  -3  -5   7 1375.26 398.169  18
  -3  -5   6 5507.64 688.131  12
  -3  -5   6 4214.58 649.210  18
  -3  -5   5-431.778 203.131  12
  -3  -5   5-205.646 125.604  22
  -3  -5   5 134.303 140.603  18
  -3  -5   4 9905.70 828.070  31
  -3  -5   4 8826.65 761.478  22
  -3  -5   4 8677.94 783.166  24
  -3  -5   3 43448.1 1762.77  31
  -3  -5   3 43372.0 1765.40  22
  -3  -5   2 13463.5 930.862  22
  -3  -5   2 13527.2 876.682  24
  -3  -5   1 1698.53 322.739  22
  -3  -5   0 1113.09 269.183  22
  -3  -5  -1 286.936 155.939  22
  -3  -5  -2 1462.18 288.027  22
   3   5   3 109377. 3071.75   2
   3   5   4 3168.16 452.997   2
  -3  -5  -5 1687.77 338.985  11
  -3  -5  -5 1772.07 397.873   5
  -3  -5  -6 432.852 199.145  11
  -3  -5  -6 277.079 203.078   5
  -3  -5  -7 2584.12 447.262  11
  -3  -5  -7 2384.94 504.198   5
   3   5   8 272.385 175.564   3
  -3  -5  -8 39.5703 132.254   5
   3   5   9 18409.2 1278.01   3
   3   5  10 16913.9 1121.41   3
   3   5  11 28004.8 1279.13   3
  -3  -6  11 346.193 128.212  12
  -3  -6  10 2328.23 377.389  12
  -3  -6  10 2086.54 365.522  10
  -3  -6  10 2280.82 387.874  18
  -3  -6   9 242.989 196.729  10
  -3  -6   9 34.1434 145.865  12
  -3  -6   9-97.9714 130.687  18
  -3  -6   8 23097.2 1426.39  12
  -3  -6   8 22259.7 1477.00  10
  -3  -6   8 22430.1 1502.65  18
  -3  -6   7 1523.24 392.878  12
  -3  -6   7 1193.55 371.736  10
  -3  -6   7 1351.31 378.484  18
  -3  -6   6 5292.20 689.096  12
  -3  -6   6 4569.93 681.541  10
  -3  -6   6 4810.70 714.179  18
  -3  -6   5 36796.8 1717.62  13
  -3  -6   5 36537.4 1837.10  12
  -3  -6   5 33195.1 1875.64  10
  -3  -6   5 35012.0 1924.83  18
  -3  -6   4 12399.6 1004.82  12
  -3  -6   4 11848.3 937.466  13
  -3  -6   4 12026.4 1068.30  10
  -3  -6   4 11440.7 1035.52  18
  -3  -6   3 25079.2 1360.31  13
  -3  -6   3 26887.2 1453.95  12
  -3  -6   3 27140.2 1581.95  10
  -3  -6   2 10923.6 893.644  31
  -3  -6   2 10324.9 871.320  22
  -3  -6   1 37311.1 1672.73  31
  -3  -6   1 36129.9 1687.42  22
  -3  -6   0 211.485 134.841  31
  -3  -6   0 125.580 140.268  22
  -3  -6  -1 10595.0 849.633  22
  -3  -6  -2 62922.2 2517.36  17
  -3  -6  -3-5.49206 140.838  11
  -3  -6  -3 314.020 190.078  17
  -3  -6  -4 43471.8 1997.57  11
  -3  -6  -5 482.490 217.942  11
  -3  -6  -5 768.455 281.547   5
  -3  -6  -6 6527.11 723.838  11
  -3  -6  -6 5539.60 747.156   5
  -3  -6  -7 14915.5 1201.85   5
  -3  -6  -7 16323.7 1132.13  11
   3   6   8 30589.5 1673.48   3
  -3  -6  -8 30380.5 1468.56  11
   3   6   9 34755.2 1682.83   3
  -3  -6 -10 1984.03 302.375  14
   3   6  10 1812.96 340.182   3
  -3  -7  10 3286.82 379.017  12
  -3  -7   9 14750.6 972.448  12
  -3  -7   8 43876.9 1911.55  12
  -3  -7   8 41980.6 1901.35  10
  -3  -7   7 27857.0 1632.09  10
  -3  -7   7 31592.9 1671.40  12
  -3  -7   6 1031.29 323.108  13
  -3  -7   6 706.298 267.260  12
  -3  -7   6 554.735 235.500  10
  -3  -7   5 9856.78 892.114  13
  -3  -7   5 8851.76 889.706  12
  -3  -7   5 7946.87 894.466  10
  -3  -7   4 46544.0 2035.92  13
  -3  -7   4 44817.9 2207.58  10
  -3  -7   4 48489.4 2159.89  12
  -3  -7   3 52231.8 2175.98  13
  -3  -7   3 52098.0 2373.74  10
  -3  -7   3 53047.3 2242.20  12
  -3  -7   2 7625.75 781.598  12
  -3  -7   2 5777.35 742.144  10
  -3  -7   1 1050.55 295.693  12
  -3  -7   1 1238.21 330.976  10
  -3  -7   1 1772.48 399.564  17
  -3  -7   0 31560.7 1610.17  12
  -3  -7   0 30157.9 1732.94  10
  -3  -7   0 33400.5 1818.54  17
  -3  -7  -1 559.766 239.495  17
  -3  -7  -2 22046.8 1447.31  11
  -3  -7  -2 24291.0 1586.14  17
  -3  -7  -3 110.632 189.930  11
  -3  -7  -4 118.337 145.796  11
  -3  -7  -5 5139.58 678.830  11
  -3  -7  -6 726.363 270.440  11
  -3  -7  -6 1090.43 311.909   5
   3   7   7 3384.91 530.724   3
  -3  -7  -7 2782.16 456.182  11
   3   7   8 1211.17 303.530   3
  -3  -7  -9 149.786 122.941  14
   3   7   9-40.4006 113.670   3
  -3  -8   9 11059.0 702.651  12
  -3  -8   8 54125.5 1962.91  12
  -3  -8   7 14424.2 1032.14  12
  -3  -8   6 10450.1 920.692  12
  -3  -8   5 7908.25 815.229  12
  -3  -8   4 1673.99 379.738  12
  -3  -8   4 1515.25 367.981  10
  -3  -8   3 10059.6 931.166  12
  -3  -8   3 7412.12 851.848  10
  -3  -8   2 11841.8 1079.17  10
  -3  -8   2 12795.6 1051.37  12
  -3  -8   1 17639.2 1230.32  12
  -3  -8   1 16764.0 1300.95  10
  -3  -8   0 19138.2 1400.84  17
  -3  -8  -1 8626.51 917.770  11
  -3  -8  -2 47169.7 2237.29  11
  -3  -8  -3 49.9480 148.973  11
  -3  -8  -4 428.642 239.986  11
  -3  -8  -5 1701.11 379.341  11
  -3  -8  -6 3847.54 542.047  11
   3   8   7 5099.46 577.290   3
  -3  -8  -7 4923.86 554.583  11
  -3  -8  -8 12367.9 837.761  14
   3   8   8 12092.7 797.699   3
  -3  -9   7 8788.26 678.760  12
  -3  -9   6 76.7123 163.427  12
  -3  -9   5 23.7411 78.2270  16
  -3  -9   5-124.317 223.499  12
  -3  -9   4 2400.90 402.066  16
  -3  -9   4 2224.50 414.285  12
  -3  -9   3 2029.05 421.836  12
  -3  -9   2 12534.9 1016.03  12
  -3  -9   2 8678.62 867.140  11
  -3  -9   1 2605.01 485.318  11
  -3  -9   0 30390.3 1721.84  11
  -3  -9  -1 26840.2 1619.06  11
  -3  -9  -2 306.495 189.336  16
  -3  -9  -2 60.5357 170.739  11
  -3  -9  -3 20946.5 1385.01  11
  -3  -9  -3 21012.2 1187.16  16
  -3  -9  -4 21561.2 1357.83  11
  -3  -9  -5 15873.9 1079.60  11
  -3  -9  -6 5608.61 581.967  11
  -3  -9  -7 4577.29 479.788  14
  -3 -10   5 5664.82 537.735  12
  -3 -10   5 5389.19 457.456  16
  -3 -10   4 2958.84 393.600  16
  -3 -10   3 8496.19 725.746  16
  -3 -10   2 16470.7 1064.45  16
  -3 -10   1 12481.5 927.211  11
  -3 -10   1 10968.0 877.145  16
  -3 -10   0 3225.71 496.833  11
  -3 -10   0 2641.47 427.367  16
  -3 -10  -1 21914.7 1303.11  11
  -3 -10  -1 20146.2 1170.69  16
  -3 -10  -2 8313.32 780.214  11
  -3 -10  -2 8408.08 696.698  16
  -3 -10  -3 112.984 136.064  11
  -3 -10  -4 10243.3 792.000  11
  -3 -10  -5-65.1474 126.835  11
  -3 -11   2 5598.15 492.662  16
  -3 -11   1 195.767 98.0044  16
  -3 -11   0 1536.31 263.877  16
   4 -12  -3 7545.55 564.938   8
   4 -12  -2-41.7207 102.833   8
   4 -12  -1-106.201 132.542   8
   4 -12   0 21830.7 1098.54   8
   4 -12   1 14743.4 873.254   8
   4 -12   2 1332.33 255.988   8
   4 -11  -5 194.624 111.252   8
   4 -11  -5-215.178 110.106  25
   4 -11  -4 425.001 184.580   8
   4 -11  -3 10737.5 841.276   8
   4 -11  -2 298.660 177.807   8
   4 -11  -1 1422.32 324.796   8
   4 -11   0 1937.08 371.612   8
   4 -11   1 3229.21 482.063   8
   4 -11   2 633.595 189.350   8
   4 -11   3 13290.4 924.290   8
   4 -11   4 540.724 218.627   8
   4 -11   5 5363.78 466.307  13
   4 -10  -7 967.290 235.713  25
   4 -10  -6 5556.27 592.698  25
   4 -10  -6 5370.62 530.598   8
   4 -10  -5 828.509 250.939   8
   4 -10  -5 616.923 215.439  25
   4 -10  -4 194.865 161.524   8
   4 -10  -4-2.46011 106.597  25
   4 -10  -3 814.588 283.175   8
   4 -10  -3 1427.83 344.034  25
   4 -10  -2 486.460 196.473   8
   4 -10  -1 12446.0 1039.48  16
   4 -10  -1 13109.8 1053.38   8
   4 -10   0 9269.11 924.668  16
   4 -10   0 8231.35 835.124   8
   4 -10   1 105.362 187.242   8
   4 -10   1 425.937 350.035  16
   4 -10   2 1326.52 319.446   8
   4 -10   2 2016.87 486.003  16
   4 -10   3 73.9901 171.770   8
   4 -10   4 863.693 296.128   8
   4 -10   4 800.613 224.894  13
   4 -10   5 1912.91 389.994   8
   4 -10   5 936.836 229.924  13
   4 -10   5 1804.91 332.304   6
   4 -10   6-167.192 208.052  13
   4 -10   6 284.108 109.380   6
   4 -10   7 775.898 173.770  13
   4  -9  -9 112.026 108.103  25
   4  -9  -8 2395.39 383.602  25
   4  -9  -7 2394.52 425.899  14
   4  -9  -7 2136.62 398.051  25
   4  -9  -6 475.747 175.471   8
   4  -9  -6 741.084 286.191  14
   4  -9  -6 568.188 242.937  25
   4  -9  -5 1248.34 318.571   8
   4  -9  -5 1184.24 306.757  14
   4  -9  -5 1386.74 359.338  25
   4  -9  -4 19982.0 1325.94  14
   4  -9  -4 18268.3 1281.38  25
   4  -9  -4 20213.5 1290.63   8
   4  -9  -3 122.387 127.890   8
   4  -9  -3 30.5098 156.227  25
   4  -9  -2 874.807 288.833   8
   4  -9  -2 992.333 326.167  25
   4  -9  -2 1322.74 386.798  16
   4  -9  -1 2874.88 514.961  16
   4  -9  -1 2996.62 518.949   8
   4  -9   0 6869.15 784.100  16
   4  -9   0 6656.64 762.932   8
   4  -9   1 9913.03 942.420  16
   4  -9   1 11230.3 994.477   8
   4  -9   2-99.7437 227.562   8
   4  -9   2 294.881 214.906  16
   4  -9   3 5393.20 629.997  13
   4  -9   3 6918.13 735.043   6
   4  -9   3 6284.78 747.882   8
   4  -9   3 6942.04 783.970  16
   4  -9   4 15161.3 1104.37  13
   4  -9   4 18983.1 1246.02   6
   4  -9   4 15636.7 1190.16   8
   4  -9   5 1932.47 417.342   8
   4  -9   5 1409.61 336.175  13
   4  -9   5 1314.42 337.750   6
   4  -9   6 2639.33 439.505  13
   4  -9   6 4353.33 564.370   6
   4  -9   7 11100.4 852.275  13
   4  -9   7 14042.4 960.281   6
   4  -9   8 246.660 113.260  13
   4  -9   8 709.555 228.705   6
   4  -9   9 3989.63 385.185  13
   4  -8 -10 6273.49 486.374  25
   4  -8  -9 239.083 137.938  25
   4  -8  -8 1638.45 380.923  14
   4  -8  -8 1472.53 351.207  25
   4  -8  -7 239.702 206.531  14
   4  -8  -6 1047.23 281.099   8
   4  -8  -6 384.330 179.885  14
   4  -8  -5 34424.3 1857.63  14
   4  -8  -5 38386.9 1793.73   8
   4  -8  -4 1350.48 338.387   8
   4  -8  -4 940.670 294.326  14
   4  -8  -3 55371.6 2247.64  16
   4  -8  -3 64213.9 2436.90   8
   4  -8  -2 84136.0 2949.41  25
   4  -8  -2 78931.3 2810.78  16
   4  -8  -2 82102.6 2877.26   8
   4  -8  -1 10519.0 930.829  16
   4  -8  -1 11143.9 958.768   8
   4  -8   0 1016.06 285.072   8
   4  -8   0 687.038 230.148  16
   4  -8   1 5080.82 654.286  16
   4  -8   1 6122.20 714.869   8
   4  -8   2 8069.49 830.116  16
   4  -8   2 7467.46 806.491   8
   4  -8   3 62736.8 2386.51  13
   4  -8   3 62230.2 2521.33   8
   4  -8   3 64189.8 2509.40  16
   4  -8   4 10334.7 937.722  13
   4  -8   4 10769.0 946.660   6
   4  -8   4 10613.3 980.254   8
   4  -8   4 13395.5 1057.56  16
   4  -8   5 1692.44 403.648   8
   4  -8   5 1327.80 343.227  13
   4  -8   5 1545.02 370.617   6
   4  -8   6 4255.90 595.262  13
   4  -8   6 5118.68 645.916   6
   4  -8   6 6200.97 742.937   8
   4  -8   7 14042.8 1046.72   6
   4  -8   7 12763.7 1005.37  13
   4  -8   8-40.8374 139.367  13
   4  -8   8-470.187 207.408   6
   4  -8   9 2628.80 377.002  13
   4  -8   9 2735.45 400.268   6
   4  -8  10 4675.19 418.326  13
   4  -7 -10 12463.1 799.683  25
  -4   7  10 13256.1 890.168  19
   4  -7  -9 24.7176 139.090  14
   4  -7  -9-137.508 155.197  25
   4  -7  -8 190.913 204.616  14
   4  -7  -7 67.7234 145.348  14
   4  -7  -6 40092.3 2019.39  14
   4  -7  -5 177.332 161.739  14
   4  -7  -4 618.961 267.202  14
   4  -7  -3 11251.7 970.800  14
   4  -7  -3 9350.20 826.434  16
   4  -7  -2-76.1142 111.776   8
   4  -7  -2 148.598 119.618  30
   4  -7  -2 328.540 210.556  16
   4  -7  -1 2374.75 351.639  30
   4  -7  -1 2968.01 474.182  29
   4  -7  -1 2818.97 451.928  28
   4  -7   0 8470.18 769.448  28
   4  -7   1 7528.37 714.714  28
   4  -7   2 9331.65 781.009  28
   4  -7   2 9185.63 839.114  16
   4  -7   2 9722.91 879.872   8
   4  -7   3 100054. 3141.83  13
   4  -7   3 109459. 3409.16   8
   4  -7   3 104429. 3295.64  16
   4  -7   4 28329.3 1565.39  13
   4  -7   4 28006.5 1603.67   8
   4  -7   5 10525.5 947.607  13
   4  -7   5 10891.1 947.377   6
   4  -7   5 10421.5 972.334   8
   4  -7   6 4703.88 644.087  13
   4  -7   6 6287.00 717.685   6
   4  -7   6 6654.84 780.023   8
   4  -7   7 2329.23 444.693  13
   4  -7   7 2766.01 475.834   6
   4  -7   8 11752.2 948.783   6
   4  -7   8 10044.6 901.466  13
   4  -7   9 1018.98 262.122  13
   4  -7   9 919.048 260.373   6
   4  -7  10 984.063 228.368  13
  -4   6  11-31.2204 116.482  19
   4  -6 -10 14600.7 927.440  25
   4  -6  -9 1702.24 390.610  14
   4  -6  -8 2919.83 516.930  14
   4  -6  -7 53328.2 2354.26  14
   4  -6  -6 24604.8 1534.87  14
   4  -6  -5 15827.7 1202.30  14
   4  -6  -4 520.145 154.003  29
   4  -6  -4 436.443 182.433  30
   4  -6  -4 772.203 227.120  28
   4  -6  -3 1054.10 250.580  30
   4  -6  -3 711.731 208.492  29
   4  -6  -3 887.960 244.980  28
   4  -6  -2 76298.4 2254.88  30
   4  -6  -2 76774.2 2489.75  28
   4  -6  -2 76765.5 2476.18  29
   4  -6  -1 1478.84 247.545  30
   4  -6  -1 1771.32 322.411  29
   4  -6  -1 1944.11 348.240  28
   4  -6   0 8702.15 730.514  29
   4  -6   0 7830.08 690.177  28
   4  -6   1 24522.6 1269.35  29
   4  -6   1 21543.4 1159.35  28
   4  -6   2 6549.45 601.376  28
   4  -6   2 7281.59 672.116  21
   4  -6   3 443.927 177.227  21
   4  -6   4 1863.57 395.115  21
   4  -6   5 4317.69 611.108   8
   4  -6   6 26669.3 1497.09   6
   4  -6   6 24996.7 1536.44   8
   4  -6   7 14074.1 1074.97   6
   4  -6   8 42355.9 1919.01   6
   4  -6   9 937.525 254.283   6
   4  -6  10 2785.05 422.687  13
   4  -6  10 3397.40 457.977   6
   4  -6  11 2647.50 346.174  13
  -4   5  12 1779.53 296.035  19
  -4   5  11 8680.73 705.826   3
  -4   5  10 7224.69 720.004   3
   4  -5  -9 6513.71 738.434  14
  -4   5   9 5917.58 692.750   3
   4  -5  -8 37907.1 1920.76  14
   4  -5  -7 105238. 3484.03  14
   4  -5  -6 10514.0 959.797  14
   4  -5  -5 2353.90 367.857  28
   4  -5  -5 1673.72 329.231  29
   4  -5  -4 11610.4 850.645  29
   4  -5  -4 15184.1 932.651  28
   4  -5  -3 1350.93 247.171  30
   4  -5  -3 1116.68 257.888  29
   4  -5  -3 1293.14 286.413  28
   4  -5  -2 43141.4 1469.38  30
   4  -5  -2 40439.8 1613.63  29
   4  -5  -1 19688.0 1050.47  29
   4  -5  -1 20431.4 1094.37  28
   4  -5  -1 22065.6 927.381  30
   4  -5   0 30691.9 1303.52  29
   4  -5   0 32205.2 1376.41  28
   4  -5   1 14665.1 868.392  29
   4  -5   1 15599.3 929.405  28
   4  -5   1 16864.3 901.483  21
   4  -5   2 102431. 2722.27  29
   4  -5   2 94788.5 2617.68  28
   4  -5   2 97019.7 2785.36  21
   4  -5   3 249610. 5000.47  28
   4  -5   3 221113. 5367.16  21
   4  -5   4 314.634 180.662  21
   4  -5   5 4097.62 575.738  21
   4  -5   6 9135.15 823.305   6
   4  -5   6 9489.65 913.026   8
   4  -5   7 4334.96 579.906   6
   4  -5   8 14394.5 1143.91   9
   4  -5   8 13169.6 1026.48   6
   4  -5   8 15719.4 1161.44  20
   4  -5   9 3729.81 531.161   6
   4  -5   9 4268.56 610.354   9
   4  -5  10 1634.22 336.920   6
   4  -5  10 1818.47 365.710   9
   4  -5  11 270.208 145.303  13
   4  -5  11 632.822 202.343   9
  -4   4  12-88.3904 98.1573  19
  -4   4  11 5017.93 585.028   3
  -4   4  10 2833.28 498.390   3
  -4   4   9 14388.0 1136.96   3
   4  -4  -8 27651.7 1600.85  14
  -4   4   8 27116.7 1576.51   3
   4  -4  -7 10958.5 991.162  14
  -4   4   7 12800.7 1014.72   3
  -4   4   6 80.3151 109.637  27
   4  -4  -5 7868.00 625.950  28
  -4   4   5 7508.21 728.023  27
   4  -4  -4 71252.3 2123.77  28
  -4   4   4 74209.0 2300.82  27
  -4   4   3 1125.85 224.438  27
   4  -4  -3 689.639 187.417  29
   4  -4  -2 43886.5 1306.48  30
   4  -4  -2 36185.8 1393.98  29
   4  -4  -1 52638.5 1406.18  30
   4  -4  -1 43664.2 1521.16  29
   4  -4   0 121659. 3029.17  29
   4  -4   0 136914. 3014.40  21
  -4   4  -1 4832.26 399.093  32
   4  -4   1 4549.68 448.576  21
   4  -4   1 4697.80 429.887  29
   4  -4   2 41533.6 1588.90  21
   4  -4   2 40378.1 1401.80  29
  -4   4  -2 41883.2 1362.42  32
  -4   4  -3 44358.3 1511.83  32
   4  -4   3 48606.2 1596.70  29
   4  -4   3 43100.0 1460.46  28
   4  -4   3 43708.1 1743.20  21
  -4   4  -4 10723.3 747.902  32
   4  -4   4 10211.2 842.892  21
  -4   4  -5 7574.16 691.727  32
   4  -4   5 7856.51 792.862  21
   4  -4   6 16460.8 1187.59  21
   4  -4   7 3417.32 532.770  20
   4  -4   7 4402.99 567.129   6
   4  -4   8 64016.9 2552.94  20
   4  -4   8 64086.0 2416.72   6
   4  -4   8 71558.8 2733.33   9
   4  -4   9 31744.0 1596.72   6
   4  -4   9 32641.4 1742.66  20
   4  -4   9 31459.3 1737.35   9
   4  -4  10 4746.55 555.721   6
   4  -4  10 4389.29 603.215   9
   4  -4  11 5219.70 601.667   9
   4  -4  12 1885.67 275.129  13
   4  -4  12 1539.22 268.623   9
  -4   3  12 5771.09 612.050  19
  -4   3  11 17.1490 115.278   3
  -4   3  10 7957.56 836.391   3
  -4   3   9 5215.01 685.259   3
   4  -3  -8 2039.50 427.331  14
  -4   3   8 1570.59 380.985   3
   4  -3  -7 4984.60 635.838  14
  -4   3   7 5456.59 677.567  27
  -4   3   6 65817.3 2528.33  27
  -4   3   5 13637.9 984.655  27
  -4   3   4 104516. 2913.81  27
  -4   3   3 180137. 3928.57   1
  -4   3   3 177918. 4077.68  27
  -4   3   2 51901.7 1477.57   1
   4  -3  -1 350.999 85.1130  30
  -4   3   1 312.011 93.3727   1
   4  -3   0 61365.1 1912.18  26
   4  -3   0 57276.8 1654.83  29
   4  -3   1 417.796 122.984  29
  -4   3  -1 399.869 130.440  32
  -4   3  -2 45992.0 1518.43  32
   4  -3   2 54411.5 1506.67  29
  -4   3  -3 68085.8 1976.13  32
   4  -3   3 64904.3 1762.92  29
  -4   3  -4 28106.8 1295.80  32
   4  -3   4 28575.2 1378.52  21
  -4   3  -5 25327.2 1302.21  32
   4  -3   5 20786.2 1242.83  21
  -4   3  -6 15771.5 1101.82  32
   4  -3   6 14417.5 1073.81  21
   4  -3   7 1360.34 310.191   7
   4  -3   7 1535.71 321.880   6
   4  -3   7 1379.56 330.660  20
   4  -3   8 4006.43 528.930   6
   4  -3   8 3911.81 588.264  20
   4  -3   9 1464.97 373.573  20
   4  -3   9 1273.52 358.605   9
   4  -3  10 1066.58 315.269   9
   4  -3  11 965.012 283.606   9
   4  -3  12 290.042 157.416   9
  -4   2  12 159.340 143.085  19
  -4   2  11 4277.14 600.196   3
  -4   2  11 5317.77 609.856  18
  -4   2  10 35322.7 1855.69   3
  -4   2  10 38356.1 1838.39  18
  -4   2   9 15062.4 1202.21   3
  -4   2   8 114.976 154.584   3
  -4   2   7 57186.5 2406.74  27
  -4   2   6 2373.40 441.240  27
  -4   2   5 6156.88 624.821  27
  -4   2   4 26438.5 1222.67   1
  -4   2   4 19670.8 1099.25  27
   4  -2  -3 30076.0 1224.06  26
  -4   2   3 24732.2 1074.84   1
   4  -2  -2 244888. 4804.79  26
  -4   2   2 214606. 4436.55   1
  -4   2   1 39982.9 1300.69  32
  -4   2   1 40632.0 1180.00   1
  -4   2   0 87924.8 2016.15  32
   4  -2   0 60224.3 1936.82  26
   4  -2   1 121078. 2485.88  29
  -4   2  -1 109973. 2576.25  32
   4  -2   2 27093.6 906.706  29
   4  -2   2 27784.3 1081.29  26
  -4   2  -3 21208.7 1040.68  32
   4  -2   3 22572.4 809.228  29
  -4   2  -4 21415.5 1112.94  32
  -4   2  -5 60593.2 2173.90  32
  -4   2  -6 18103.0 1205.40  32
   4  -2   6 23115.6 1321.47  21
   4  -2   7 3060.10 470.241   7
   4  -2   7 2486.61 447.004  20
   4  -2   8 1033.88 304.711  20
   4  -2   9 41011.4 1998.83  20
   4  -2   9 33203.5 1836.21   9
   4  -2  10-198.031 179.166   9
   4  -2  11 11214.3 947.610   9
   4  -2  12 3626.45 466.773   9
  -4   1  12 1099.18 278.537  19
  -4   1  12 1326.41 295.078  18
  -4   1  11 11428.4 998.507  19
  -4   1  11 10974.6 924.737  18
  -4   1  10 2390.55 471.803   3
  -4   1  10 2982.07 519.622  18
  -4   1   9 6331.04 774.639   3
  -4   1   9 5680.33 716.302  18
  -4   1   8 20726.4 1401.69   3
  -4   1   7 5209.72 665.361  27
  -4   1   6 19598.9 1215.21  27
   4  -1  -5 986.784 202.225  26
  -4   1   5 818.694 239.044  27
  -4   1   5 840.354 247.601   1
   4  -1  -4 25521.8 1081.17  26
  -4   1   4 26230.4 1233.82   1
  -4   1   3 22768.9 992.575   1
   4  -1  -3 23654.9 1043.72  26
   4  -1  -2 5646.40 490.330  26
  -4   1   2 5725.70 436.371   1
   4  -1  -1 9622.25 643.837  26
  -4   1   1 11921.4 637.334  32
  -4   1   0 35055.2 1159.56  32
   4  -1   0 22712.5 1029.89  26
  -4   1  -1 80524.0 1915.32  32
   4  -1   1 51211.8 1712.10  26
   4  -1   2 5273.81 450.857  26
  -4   1  -2 5633.13 468.932  32
   4  -1   2 6552.41 368.348  29
  -4   1  -3 325.018 159.139  32
   4  -1   3 459.068 134.358  26
  -4   1  -4 62815.1 2104.25  32
  -4   1  -5 79510.5 2574.67  32
  -4   1  -6 43888.7 1941.58  32
  -4   1  -7 249.054 187.365  32
   4  -1   7 261.882 170.915  21
   4  -1   7 204.152 148.483  20
   4  -1   8 3842.94 577.831  20
   4  -1   9 71392.0 2753.80  20
   4  -1  10 1297.80 344.385   9
   4  -1  11 273.084 170.144   9
   4  -1  12 10212.4 787.732   9
  -4   0  13 326.646 136.212  18
  -4   0  12 1156.82 293.820  18
  -4   0  11 9704.21 894.537  19
  -4   0  11 10356.2 913.502  18
  -4   0  10 406.726 246.054  19
  -4   0  10 417.810 239.952  18
  -4   0   9 23838.5 1548.12   3
  -4   0   9 23567.5 1517.04  18
  -4   0   8 9621.51 940.557   3
  -4   0   8 7834.11 834.468  18
  -4   0   7 18045.3 1263.78  27
  -4   0   6 31157.7 1554.72  27
  -4   0   5 61871.8 2268.39   1
  -4   0   5 71199.1 2351.85  27
   4   0  -4 24626.2 1074.45  26
  -4   0   4 21070.6 1094.78   1
  -4   0   3 36483.4 1322.73   1
   4   0  -3 34074.9 1263.18  26
  -4   0   2 845.431 185.173   1
  -4   0   1 432.670 133.900  32
  -4   0   0 257825. 5101.54  32
  -4   0  -1 44504.0 1443.01  32
  -4   0  -2 8137.93 584.318  32
  -4   0  -3 5275.46 507.966  32
  -4   0  -4 28311.0 1335.86  32
  -4   0  -5 89999.5 2815.54  32
  -4   0  -6 29194.4 1559.78  32
   4   0   7 68.7503 100.258  20
   4   0   8 298.833 193.603  20
  -4   0  -8 745.730 286.469   5
   4   0   9 40388.4 2008.76  20
  -4   0  -9 46472.0 2002.72   5
   4   0  10 4625.09 647.096   9
   4   0  11 66.2757 165.253   9
   4   0  12 1018.89 245.129   9
  -4  -1  13 13907.5 767.954  18
  -4  -1  12 351.282 194.533  18
  -4  -1  11 7399.88 786.027  18
  -4  -1  10 31128.3 1753.13  18
  -4  -1   9 23989.0 1572.69  19
  -4  -1   9 19360.8 1392.62  18
  -4  -1   8 30881.1 1811.40  19
  -4  -1   8 38068.8 1937.46  18
  -4  -1   7 33380.9 1743.50  27
  -4  -1   6 10223.6 969.115   1
  -4  -1   6 6766.17 709.495  27
  -4  -1   5 13603.9 1000.59   1
  -4  -1   5 15460.5 1008.30  27
  -4  -1   4 4878.40 509.833   1
  -4  -1   3 145364. 3405.78   1
  -4  -1   2 12466.7 697.112   1
  -4  -1   1 25987.8 1054.83  32
  -4  -1   0 295.767 111.684  32
  -4  -1  -1 13877.9 761.392  32
  -4  -1  -2 31686.1 1244.16  32
   4   1   2 30365.4 959.785   2
  -4  -1  -3 1047.18 232.927  32
  -4  -1  -4 17200.6 1011.13  32
  -4  -1  -5 133199. 3673.08  32
  -4  -1  -6 21179.4 1335.54  32
   4   1   7 20281.8 1311.50  20
  -4  -1  -7 22530.2 1359.47   5
   4   1   8 77.4943 120.819  20
  -4  -1  -8 81.5788 129.613   5
   4   1   9 17114.2 1250.25   3
   4   1   9 17878.4 1280.72   9
  -4  -1  -9 19580.0 1292.99   5
   4   1  10 61876.0 2441.96   9
   4   1  10 59160.3 2371.85   3
   4   1  11 2412.72 425.274   9
   4   1  11 2601.72 411.548   3
   4   1  12 543.193 186.615   9
  -4  -2  12 36.1259 102.446  18
  -4  -2  11 8072.62 825.441  18
  -4  -2  10 18602.7 1344.74  18
  -4  -2   9 11756.1 1091.96  18
  -4  -2   8 59044.3 2553.48  18
  -4  -2   7 21893.2 1441.91  18
  -4  -2   6 4126.93 609.140   1
  -4  -2   6 2617.61 439.488  27
  -4  -2   5 52528.8 2111.65   1
  -4  -2   5 44403.6 1841.57  27
  -4  -2   4 804.228 233.624   1
  -4  -2   3 6721.05 566.589   1
  -4  -2   2 220317. 4608.78   1
  -4  -2   1 196660. 4208.28  32
  -4  -2   0 60581.9 1785.61  32
  -4  -2  -1 3251.98 387.419  32
  -4  -2  -2 12295.1 770.468  32
  -4  -2  -3 28494.0 1285.51  32
   4   2   3 26898.2 1058.26   2
  -4  -2  -4 12522.7 868.833  32
  -4  -2  -5 192.934 145.334  32
  -4  -2  -6 5130.07 656.971  32
   4   2   7 6226.93 713.762  20
  -4  -2  -7 6292.56 726.425   5
   4   2   8 14613.5 1136.12  20
  -4  -2  -8 14707.8 1149.24   5
   4   2   9 3398.88 549.305   3
  -4  -2  -9 3553.27 562.435   5
   4   2   9 3465.51 540.777   9
   4   2  10 4601.48 596.067   9
   4   2  10 4823.36 626.021   3
   4   2  11 3047.72 450.915   3
   4   2  12 4437.63 416.265   3
  -4  -3  12 9474.78 626.737  12
  -4  -3  12 10725.9 779.346  18
  -4  -3  11 131.263 143.559  18
  -4  -3  10 55.1026 151.380  18
  -4  -3   9-102.765 157.244  18
  -4  -3   8 5432.24 747.676  18
  -4  -3   7 13215.3 1146.01  18
  -4  -3   6 18934.7 1135.51  31
  -4  -3   6 17132.1 1153.11  27
  -4  -3   6 16529.7 1239.49  18
  -4  -3   5 10167.0 903.547   1
  -4  -3   5 10370.2 856.500  27
  -4  -3   5 10516.9 788.787  22
  -4  -3   4 5170.06 582.199   1
  -4  -3   3 181.815 121.562   1
  -4  -3   2 35845.5 1404.40   1
  -4  -3   1 6906.62 540.415   1
  -4  -3   0 14245.6 805.468  32
  -4  -3  -1 33905.0 1305.15  32
  -4  -3  -2 1293.18 266.696  32
   4   3   3 3464.88 399.662   2
  -4  -3  -3 3441.82 441.497  32
  -4  -3  -4 44935.6 1830.43  32
   4   3   4 44990.5 1669.20   2
  -4  -3  -5 102.277 114.729  32
  -4  -3  -6 9488.31 908.955   5
  -4  -3  -7 27654.2 1633.31   5
  -4  -3  -8 17370.1 1284.05   5
   4   3   9 14110.3 1135.75   3
  -4  -3  -9 12518.1 1055.05   5
   4   3  10 5442.82 656.875   3
   4   3  11 1026.69 253.847   3
  -4  -4  12 5005.52 458.205  10
  -4  -4  12 5355.10 488.524  18
  -4  -4  11 9756.24 715.761  12
  -4  -4  11 9081.22 802.172  18
  -4  -4  10 147.170 117.302  12
  -4  -4  10 138.937 180.655  18
  -4  -4   9 963.246 321.405  18
  -4  -4   8 6534.63 823.340  18
  -4  -4   7 4354.53 674.777  18
  -4  -4   6 38176.7 2005.24  18
  -4  -4   5 13191.3 940.516  22
  -4  -4   5 15342.1 1163.31   1
  -4  -4   5 14947.3 1180.84  18
  -4  -4   4 73986.0 2492.39  22
  -4  -4   4 83846.7 2804.36   1
  -4  -4   3 25349.5 1291.86   1
  -4  -4   3 28966.1 1401.88  22
  -4  -4   2 11562.9 863.340  22
  -4  -4   2 13213.5 874.701   1
  -4  -4   1 10699.3 750.462   1
  -4  -4   0 1408.59 263.169   1
  -4  -4   0 1762.60 324.644  22
  -4  -4  -1 5661.09 573.822  22
  -4  -4  -2 37469.2 1552.45  22
   4   4   3 63596.3 2109.35   2
   4   4   4 9198.47 766.284   2
  -4  -4  -5 40497.6 1759.20  11
  -4  -4  -5 36846.0 1901.63   5
  -4  -4  -6 36809.5 1932.60   5
  -4  -4  -7 15564.5 1226.68   5
  -4  -4  -8 319.030 211.326   5
   4   4   9 9721.14 906.781   3
  -4  -4  -9 8046.65 831.630   5
   4   4  10 12796.5 970.024   3
   4   4  11 986.571 238.378   3
  -4  -5  11 2580.87 322.767  12
  -4  -5  11 2148.80 329.923  10
  -4  -5  11 2585.67 374.506  18
  -4  -5  10 8926.13 728.875  12
  -4  -5  10 8738.30 796.383  10
  -4  -5  10 8277.43 797.967  18
  -4  -5   9 3690.04 517.729  12
  -4  -5   9 3690.21 575.886  18
  -4  -5   8 78.3008 115.612  12
  -4  -5   8 8.54640 154.509  18
  -4  -5   7 83708.0 2942.61  12
  -4  -5   7 74788.7 3065.44  18
  -4  -5   6 209054. 5195.71  12
  -4  -5   6 183021. 5336.11  18
  -4  -5   5 38751.8 2042.83  10
  -4  -5   5 34601.4 1935.60  18
  -4  -5   4 6167.19 668.835  12
  -4  -5   4 5254.68 702.171  10
  -4  -5   4 5268.06 694.127  18
  -4  -5   3 987.224 263.759  24
  -4  -5   3 1152.76 281.171  22
  -4  -5   3 1859.36 396.658  10
  -4  -5   2 3992.99 533.403  22
  -4  -5   1 7847.24 741.706  22
  -4  -5   0 20170.5 1213.93  22
  -4  -5  -1 956.155 256.912  22
  -4  -5  -2 14774.6 1018.49  22
  -4  -5  -3 15514.8 1182.94   5
  -4  -5  -3 16255.9 1196.12  17
  -4  -5  -4 61239.8 2338.13  11
  -4  -5  -4 56208.3 2454.31   5
  -4  -5  -5 325.466 166.366  11
  -4  -5  -5 304.153 190.610   5
  -4  -5  -6 47749.1 2035.79  11
  -4  -5  -6 51930.3 2372.84   5
  -4  -5  -7 2490.81 504.418   5
  -4  -5  -8 750.821 293.355   5
   4   5   9 4482.53 598.630   3
   4   5  10 3725.90 484.905   3
  -4  -6  10 19534.6 975.962  12
  -4  -6  10 20316.3 1074.46  10
  -4  -6   9-116.775 141.296  12
  -4  -6   9-331.667 181.459  10
  -4  -6   9 178.643 156.339  18
  -4  -6   8 328.113 142.053  12
  -4  -6   8 449.279 259.616  10
  -4  -6   8 487.698 231.708  18
  -4  -6   7 13126.3 1040.02  12
  -4  -6   7 9762.09 988.733  10
  -4  -6   7 10844.7 1043.78  18
  -4  -6   6 12306.4 1028.48  12
  -4  -6   6 10360.6 1046.16  10
  -4  -6   6 10392.7 1031.89  18
  -4  -6   5 449.197 231.609  12
  -4  -6   5 481.182 244.057  10
  -4  -6   4 8653.83 836.568  12
  -4  -6   4 7793.61 896.620  10
  -4  -6   3 16147.1 1123.19  12
  -4  -6   3 14033.4 1191.83  10
  -4  -6   2 31219.0 1560.32  12
  -4  -6   2 29812.8 1719.60  10
  -4  -6   1 2564.35 477.668  10
  -4  -6   1 2586.69 480.274  17
  -4  -6   0-131.264 137.373  10
  -4  -6   0 526.242 235.600  17
  -4  -6  -1 77662.3 2869.75  10
  -4  -6  -1 75376.8 2886.68  17
  -4  -6  -2 5041.33 695.104  17
  -4  -6  -3 64834.3 2712.57  17
  -4  -6  -4 531.749 241.209  11
  -4  -6  -4 651.249 259.829   5
  -4  -6  -5 5497.74 677.932  11
  -4  -6  -5 5979.57 769.492   5
  -4  -6  -6 33122.9 1667.00  11
  -4  -6  -6 33107.9 1854.17   5
  -4  -6  -7-63.7018 119.827  11
  -4  -6  -7 277.635 174.781   5
   4   6   8 131.914 144.398   3
  -4  -6  -8-38.4643 181.264   5
   4   6   9 17504.1 1087.45   3
   4   6  10 20467.8 1007.77   3
  -4  -7   9 419.936 142.407  12
  -4  -7   9 241.442 125.064  10
  -4  -7   8 1206.01 278.392  12
  -4  -7   8 746.320 238.994  10
  -4  -7   7 3169.63 539.176  10
  -4  -7   7 3910.20 528.902  12
  -4  -7   6 8175.40 803.865  12
  -4  -7   6 6817.14 816.448  10
  -4  -7   5 16765.4 1191.27  12
  -4  -7   5 15528.1 1265.29  10
  -4  -7   4 3463.18 539.203  12
  -4  -7   4 2757.87 539.094  10
  -4  -7   3 6313.06 718.883  12
  -4  -7   3 6545.81 827.112  10
  -4  -7   2 26599.0 1487.19  12
  -4  -7   2 25678.6 1643.71  10
  -4  -7   2 22885.6 1519.10  17
  -4  -7   1 30539.1 1797.50  10
  -4  -7   1 27415.6 1710.41  17
  -4  -7   0 700.205 263.905  10
  -4  -7   0 1187.74 377.156  17
  -4  -7  -1 46550.6 2290.31  17
  -4  -7  -2 66437.7 2820.47  17
  -4  -7  -3 52741.2 2339.33  11
  -4  -7  -4 23020.9 1471.80  11
  -4  -7  -5 9961.68 922.199  11
  -4  -7  -6 9878.48 857.118  11
  -4  -7  -6 9444.18 901.405   5
  -4  -7  -7 52.2600 104.034  11
   4   7   8 2295.82 390.135   3
   4   7   9 6715.60 559.744   3
  -4  -8   8-40.3258 117.568  12
  -4  -8   7 8382.37 688.537  12
  -4  -8   7 7651.55 683.107  10
  -4  -8   6 3090.77 494.070  10
  -4  -8   6 2735.35 429.420  12
  -4  -8   5 1114.24 296.914  12
  -4  -8   5 1728.13 384.788  10
  -4  -8   4 3842.90 537.402  12
  -4  -8   4 3390.81 555.837  10
  -4  -8   3 3865.81 554.703  12
  -4  -8   3 3758.54 615.060  10
  -4  -8   2 383.333 198.613  12
  -4  -8   2-14.3473 109.382  10
  -4  -8   1 145268. 4415.38  17
  -4  -8   0 447.595 252.362  17
  -4  -8  -1 7442.61 845.604  11
  -4  -8  -2 313.548 208.569  11
  -4  -8  -3 10051.4 954.656  11
  -4  -8  -4 1472.89 375.634  11
  -4  -8  -5 4792.24 606.643  11
  -4  -8  -6 82.6847 107.602  11
   4   8   7 28441.7 1298.13   3
  -4  -8  -7 25687.1 1160.95  11
  -4  -9   6 2093.37 313.728  12
  -4  -9   5 7173.00 636.411  12
  -4  -9   5 7361.71 607.242  16
  -4  -9   4 2394.54 399.563  12
  -4  -9   4 2066.08 363.616  16
  -4  -9   2 408.841 220.893  11
  -4  -9   1 2126.08 428.791  11
  -4  -9   0 7465.60 808.423  11
  -4  -9  -1 1333.53 351.079  11
  -4  -9  -2 792.616 237.117  16
  -4  -9  -2 1183.98 346.459  11
  -4  -9  -3 488.209 257.682  11
  -4  -9  -4-14.1453 120.528  11
  -4  -9  -5 12371.8 861.306  11
  -4  -9  -6 8317.10 610.829  11
  -4 -10   4 2795.86 329.948  16
  -4 -10   3 2825.91 371.271  16
  -4 -10   2 126.946 85.8529  16
  -4 -10   1 451.514 189.210  16
  -4 -10   1 318.782 149.653  11
  -4 -10   0 5144.41 571.530  11
  -4 -10   0 4188.44 490.754  16
  -4 -10  -1 12057.5 881.153  11
  -4 -10  -1 10466.8 749.543  16
  -4 -10  -2 2083.62 363.694  11
  -4 -10  -2 2152.48 302.076  16
  -4 -10  -3 2314.10 349.814  11
  -4 -10  -4 123.910 94.8429  11
   5 -12  -2 113.422 92.1673   8
   5 -12  -1 4064.64 433.208   8
   5 -12   0 3100.76 382.702   8
   5 -12   1 508.660 185.505   8
   5 -11  -4 154.898 83.5643   8
   5 -11  -3-470.118 190.061   8
   5 -11  -2 309.233 142.195   8
   5 -11  -1 15544.7 1046.48   8
   5 -11   0 617.767 202.603   8
   5 -11   1 9809.66 829.130   8
   5 -11   2 174.095 122.986   8
   5 -11   3 2729.66 434.542   8
   5 -11   4 7564.12 646.675   8
   5 -10  -7 651.520 192.146  25
   5 -10  -6 211.453 153.202  25
   5 -10  -5 14938.7 1004.86  25
   5 -10  -5 14972.1 934.229   8
   5 -10  -4 828.874 262.603   8
   5 -10  -4 1184.28 301.112  25
   5 -10  -3 9.42431 117.580   8
   5 -10  -3 226.086 130.218  25
   5 -10  -2 2006.00 425.020   8
   5 -10  -1 25132.2 1465.67   8
   5 -10   0 2928.61 498.077   8
   5 -10   1 4642.32 612.949   8
   5 -10   2 2716.47 450.294   8
   5 -10   3 1324.09 348.025   8
   5 -10   4 673.719 323.692   8
   5 -10   4 149.818 81.4796   6
   5 -10   5 9212.55 683.808  13
   5 -10   5 11546.4 822.856   6
   5 -10   5 11501.8 870.042   8
   5 -10   6 32.7181 125.615  13
   5 -10   6 78.7498 114.542   6
   5 -10   7 1392.01 218.074  13
   5 -10   7 1959.49 288.274   6
   5  -9  -8 8311.28 666.821  25
   5  -9  -7 85.7562 130.429  25
   5  -9  -6 66.1376 150.732  25
   5  -9  -5 28761.8 1576.29  25
   5  -9  -5 25300.3 1363.36   8
   5  -9  -4 14546.6 1130.21  25
   5  -9  -4 16547.9 1140.86   8
   5  -9  -3 918.806 283.532   8
   5  -9  -3 1403.32 376.927  25
   5  -9  -2 2487.42 463.187   8
   5  -9  -2 2476.76 469.072  25
   5  -9  -1-2.91280 143.826   8
   5  -9   0 365.809 197.896   8
   5  -9   1 6873.09 784.191   8
   5  -9   2-570.842 259.862   8
   5  -9   3 32972.0 1664.93   6
   5  -9   3 28901.4 1668.98   8
   5  -9   4 171.464 210.427   8
   5  -9   4-96.9710 130.022   6
   5  -9   5 285.651 151.555  13
   5  -9   5-260.327 175.771   6
   5  -9   6 3195.13 450.463  13
   5  -9   6 3817.65 509.555   6
   5  -9   7 1387.07 274.292  13
   5  -9   7 1380.54 283.533   6
   5  -9   8 131.628 122.525   6
   5  -8  -9 15233.2 901.222  25
   5  -8  -8 680.857 246.227  25
   5  -8  -7 115.605 135.826  25
   5  -8  -6 65005.5 2562.79  14
   5  -8  -6 65089.5 2566.68  25
   5  -8  -5 27279.9 1606.36  14
   5  -8  -5 25364.5 1551.05  25
   5  -8  -5 26847.8 1446.48   8
   5  -8  -4 747.714 271.380   8
   5  -8  -4 800.349 289.705  14
   5  -8  -4 794.828 266.048  25
   5  -8  -3 1538.53 363.533   8
   5  -8  -3 1243.46 340.119  25
   5  -8  -2 246.863 181.567   8
   5  -8  -2 388.411 235.470  25
   5  -8  -1 66458.3 2564.29  25
   5  -8  -1 65966.3 2577.52   8
   5  -8   0 12443.3 1050.11  16
   5  -8   0 12376.0 1051.78   8
   5  -8   1 2656.27 479.941   8
   5  -8   1 3314.39 562.215  16
   5  -8   2 879.696 286.199   8
   5  -8   2 825.621 232.957   7
   5  -8   3 43154.0 2096.55   8
   5  -8   4 9991.95 873.990  13
   5  -8   4 9731.99 963.222   8
   5  -8   5 8776.01 834.222  13
   5  -8   5 9248.63 868.335   6
   5  -8   5 11186.1 1015.78   8
   5  -8   6 1204.88 314.505  13
   5  -8   6 1211.30 314.533   6
   5  -8   7 3867.85 526.394  13
   5  -8   7 4794.81 581.538   6
   5  -8   8 6093.46 602.890  13
   5  -8   8 6685.55 639.506   6
   5  -8   9 3572.72 405.845  13
   5  -8   9 4004.85 445.105   6
   5  -7 -10 131.971 114.291  25
  -5   7  10-32.3693 82.4121  19
   5  -7  -9 937.335 262.204  25
  -5   7   9 1100.70 270.042  19
   5  -7  -8 3061.06 492.947  25
  -5   7   8 3518.08 518.243  19
   5  -7  -7 18471.8 1311.14  14
   5  -7  -7 21916.5 1387.41  25
   5  -7  -6 8929.26 915.091  14
   5  -7  -6 10953.3 999.696  25
   5  -7  -5 988.027 332.437  14
   5  -7  -5 983.372 300.607  25
   5  -7  -4 25840.2 1564.77  14
   5  -7  -4 27417.1 1614.13  25
   5  -7  -4 26767.3 1462.63   8
   5  -7  -3 4931.43 648.999  14
   5  -7  -3 5633.58 698.325  25
   5  -7  -3 6269.30 696.475   8
   5  -7  -2 4639.63 628.870  25
   5  -7  -2 5223.16 636.658   8
   5  -7  -1 2184.02 413.593   8
   5  -7  -1 2375.73 448.613  25
   5  -7   0-194.533 156.848   8
   5  -7   0-460.938 194.470  25
   5  -7   1 20431.1 1333.52  16
   5  -7   1 23678.5 1424.27   8
   5  -7   2 5381.72 632.915   7
   5  -7   2 5153.43 672.945   8
   5  -7   3 13045.5 978.185   7
   5  -7   3 12892.4 1091.05   8
   5  -7   4 194728. 4935.96  13
   5  -7   4 190693. 5183.28   8
   5  -7   5 1434.66 449.347   8
   5  -7   5 657.757 256.600  13
   5  -7   6 66.4708 100.554  13
   5  -7   6 29.3317 100.581   6
   5  -7   7 217.298 145.535  13
   5  -7   7-17.5391 162.807   6
   5  -7   8 844.079 253.682  13
   5  -7   8 153.568 163.502   6
   5  -7   9 559.737 179.503  13
   5  -7   9 753.191 222.735   6
   5  -7  10 15962.6 855.281  13
  -5   6  11 2313.29 336.509  19
  -5   6  10 917.279 260.625  19
   5  -6  -9 272.511 149.789  25
  -5   6   9 346.855 199.656  19
   5  -6  -8 45587.3 2019.34  25
   5  -6  -7 7378.72 838.680  14
   5  -6  -7 8185.70 852.225  25
   5  -6  -6 29390.9 1708.97  14
   5  -6  -5 1427.48 355.700  14
   5  -6  -4 498.913 195.463  14
   5  -6  -3 1142.56 277.104  29
   5  -6  -3 1443.11 309.755  28
   5  -6  -3 902.511 265.859  25
   5  -6  -2 768.446 241.946  29
   5  -6  -2 871.162 251.392  28
   5  -6  -1 2978.82 448.023  29
   5  -6  -1 2551.94 418.874  28
   5  -6   0 8708.97 757.829  29
   5  -6   0 8461.98 757.282  28
   5  -6   1 3878.95 505.719  29
   5  -6   1 3548.04 468.987  28
   5  -6   2 14472.5 1012.98  29
   5  -6   2 13680.9 926.982  28
   5  -6   3 3171.69 522.797   8
   5  -6   4 16719.4 1102.89   7
   5  -6   4 16231.4 1223.95   8
   5  -6   5 48208.3 2227.23   8
   5  -6   6 7498.85 772.669   6
   5  -6   7 11648.8 969.221   6
   5  -6   8 2438.55 426.903   6
   5  -6   9 761.616 231.647   6
   5  -6  10 6305.89 564.853   6
   5  -6  10 6419.37 600.908  13
   5  -6  11 1247.46 216.132  13
  -5   5  11 562.807 223.056  19
  -5   5  10 642.614 270.203  19
   5  -5  -9 8767.13 789.876  25
   5  -5  -8 1867.63 399.473  25
   5  -5  -7 2912.74 530.507  14
   5  -5  -6 6216.56 760.881  14
   5  -5  -5 120467. 3740.90  14
   5  -5  -5 120987. 3330.52  28
   5  -5  -4 329.845 143.497  29
   5  -5  -4 563.014 204.612  28
   5  -5  -3 599.534 199.531  29
   5  -5  -3 887.699 262.245  28
   5  -5  -2 41888.0 1708.95  28
   5  -5  -2 34105.2 1536.87  29
   5  -5  -1 7523.58 667.680  29
   5  -5   0 159.225 125.766  29
   5  -5   1 35123.6 1460.74  29
   5  -5   1 34569.3 1497.60  28
   5  -5   2 17499.0 1004.22  29
   5  -5   2 16981.6 1013.39  28
   5  -5   2 16358.1 1051.74  21
   5  -5   3 43425.8 1922.29  21
   5  -5   4-19.1491 127.415  21
   5  -5   5 41708.9 1812.90   7
   5  -5   5 39202.6 1960.77   8
   5  -5   6 9281.50 818.469   7
   5  -5   6 9756.75 893.061  20
   5  -5   7 822.426 267.503   6
   5  -5   7 583.030 213.062  20
   5  -5   8 6105.26 687.619   6
   5  -5   8 7377.34 780.183  20
   5  -5   8 7524.87 804.052   9
   5  -5   9 1481.30 327.569   6
   5  -5   9 2299.24 427.725   9
   5  -5  10 285.994 157.729   6
   5  -5  10 397.532 173.899   9
   5  -5  11 5324.33 492.930   9
   5  -5  11 4535.04 460.781  13
  -5   4  12 4765.94 487.585  19
  -5   4  11-23.1318 148.339  19
  -5   4  10 7871.05 852.247  19
  -5   4   9 9793.78 900.397   3
  -5   4   8 25853.2 1503.12   3
   5  -4  -7 87064.6 2960.40  25
   5  -4  -6 338.351 195.821  14
   5  -4  -5 2280.70 379.643  29
   5  -4  -5 3667.01 462.728  28
   5  -4  -4 645.784 199.998  29
   5  -4  -3 3153.89 419.647  29
   5  -4  -2 226.623 129.224  29
   5  -4  -1 38044.3 1435.45  29
   5  -4   0 15071.7 861.956  29
   5  -4   1 39844.8 1467.30  29
   5  -4   1 37493.3 1502.78  21
  -5   4  -1 38758.6 1401.22  32
  -5   4  -2 8501.05 650.484  32
   5  -4   2 8470.08 618.088  29
   5  -4   2 7031.57 656.918  21
  -5   4  -3 1962.74 319.914  32
   5  -4   3 2119.70 309.601  29
   5  -4   3 1193.47 280.231  21
   5  -4   4 4724.10 608.650  21
   5  -4   5 60.3681 87.8748  21
   5  -4   6 24898.7 1397.73   7
   5  -4   6 26837.2 1505.37  20
   5  -4   7 21534.3 1299.71   7
   5  -4   7 24402.0 1365.22   6
   5  -4   7 20124.0 1351.39  20
   5  -4   8 25325.2 1402.65   6
   5  -4   8 21220.7 1399.09  20
   5  -4   9 105.883 95.1243   6
   5  -4   9 169.462 153.554  20
   5  -4   9-65.4032 140.232   9
   5  -4  10 8557.54 807.782   9
   5  -4  11 1000.93 254.522   9
  -5   3  12 28017.2 1306.65  19
  -5   3  11 10533.3 917.361  19
  -5   3  10 28.6909 152.060  19
  -5   3   9-29.1784 152.455   3
  -5   3   8 128.813 177.112   3
  -5   3   7 23673.1 1434.78   3
  -5   3   6 877.380 278.566  27
  -5   3   5 1498.29 340.854  27
  -5   3   4 6709.74 670.007  27
  -5   3   3 8851.81 699.502  27
  -5   3   2 32291.5 1204.70   1
   5  -3  -2 32543.0 1459.23  26
   5  -3  -1 15249.3 959.847  26
  -5   3   1 16009.1 757.004   1
   5  -3   0 72912.8 2037.66  29
  -5   3   0 74713.0 2072.16  32
   5  -3   0 68228.9 2240.73  26
  -5   3  -1 411.313 143.915  32
   5  -3   1 865.063 185.290  29
   5  -3   1 501.481 178.895  26
  -5   3  -2 24342.2 1132.31  32
   5  -3   2 25127.6 1035.49  29
   5  -3   2 26467.6 1227.55  26
  -5   3  -3 6835.51 603.535  32
  -5   3  -4 22835.7 1202.51  32
  -5   3  -5 756.579 234.775  32
   5  -3   5 869.916 268.719  21
   5  -3   6 7980.66 763.777   7
   5  -3   6 6823.81 722.868  20
   5  -3   7 45321.2 1995.71   7
   5  -3   7 48340.3 1951.19   6
   5  -3   7 50667.9 2187.42  20
   5  -3   8 1016.22 305.994  20
   5  -3   9 1078.17 312.628  20
   5  -3   9 1265.69 332.210   9
   5  -3  10 19306.3 1275.16   9
   5  -3  11 10380.7 837.278   9
   5  -3  12 6322.86 534.452   9
  -5   2  12 2220.35 355.614  19
  -5   2  11 2784.03 474.703  19
  -5   2  10 10398.4 1010.44  19
  -5   2   9 160.526 128.486   3
  -5   2   9 219.760 207.205  19
  -5   2   8 47189.3 2174.73   3
  -5   2   7 11563.6 996.021   3
  -5   2   6 10056.0 919.063  27
  -5   2   5 29992.1 1581.68  27
  -5   2   5 40738.6 1858.41   1
   5  -2  -4 28421.3 1340.96  26
  -5   2   4 31312.8 1488.81   1
  -5   2   4 27616.0 1372.66  27
  -5   2   3 155159. 3495.89   1
   5  -2  -3 134898. 3540.76  26
   5  -2  -2 94377.4 2669.66  26
  -5   2   2 94211.5 2437.45   1
  -5   2   1 7825.33 597.260  32
   5  -2  -1 7683.03 642.969  26
  -5   2   1 8633.08 549.074   1
  -5   2   0 50226.6 1565.39  32
   5  -2   0 36868.5 1521.40  26
  -5   2  -1 35666.1 1376.47  32
   5  -2   1 32825.8 1143.78  29
   5  -2   2 808.986 163.582  29
   5  -2   2 985.777 222.071  26
  -5   2  -3 372.672 168.313  32
   5  -2   3 156.572 96.0346  26
  -5   2  -4 210.557 146.272  32
  -5   2  -5 41000.3 1800.37  32
  -5   2  -6 18743.9 1251.73  32
   5  -2   6 21593.5 1314.52  20
   5  -2   7 4504.19 596.620   7
   5  -2   7 5071.75 656.167  20
   5  -2   8 947.167 297.677  20
   5  -2   9 22349.3 1439.63  20
   5  -2  10 31779.1 1686.79   9
   5  -2  11 11393.1 895.748   9
   5  -2  12 319.323 138.816   9
  -5   1  12 14191.9 896.008  19
  -5   1  11 34941.8 1734.71  19
  -5   1  11 35472.6 1627.37  18
  -5   1  10 7326.61 849.650  19
  -5   1  10 10417.9 917.211  18
  -5   1   9 8037.09 916.160  19
  -5   1   9 7634.88 809.279  18
  -5   1   8 15179.9 1272.99  19
  -5   1   8 19447.4 1289.70  18
  -5   1   7 37702.6 1885.31   3
  -5   1   7 38568.6 2015.45  19
  -5   1   6 314.226 165.414  27
  -5   1   5 10283.6 887.908   1
  -5   1   5 9529.61 847.864  27
   5  -1  -5 11517.5 790.798  26
   5  -1  -4 72703.5 2196.38  26
  -5   1   4 59808.6 2139.48   1
  -5   1   3 171097. 3897.99   1
   5  -1  -3 166569. 3976.40  26
   5  -1  -2 126027. 3258.21  26
  -5   1   2 124175. 2989.94   1
  -5   1   1 1507.17 262.265  32
   5  -1  -1 1530.49 290.784  26
   5  -1   0 32781.6 1395.94  26
  -5   1   0 37275.3 1349.18  32
  -5   1  -1 17995.8 967.387  32
   5  -1   1 17099.2 960.136  26
  -5   1  -2 13350.3 828.090  32
   5  -1   2 12948.9 614.311  29
   5  -1   2 14910.5 892.153  26
  -5   1  -3 429.389 181.949  32
   5  -1   3 397.817 160.841  26
  -5   1  -4 3469.39 455.659  32
  -5   1  -5 20267.8 1215.06  32
  -5   1  -6 21051.7 1329.13  32
   5  -1   7 14782.0 1140.33  20
   5  -1   8 32754.4 1766.93  20
   5  -1   9 426.205 198.919  20
   5  -1  10 46.6156 148.625   9
   5  -1  11 5504.75 617.958   9
   5  -1  12 3208.44 394.012   9
  -5   0  12 1426.86 277.033  18
  -5   0  11-314.228 171.739  19
  -5   0  11 54.8869 142.951  18
  -5   0  10 5614.75 727.895  19
  -5   0  10 5830.65 705.931  18
  -5   0   9 9880.90 1006.36  19
  -5   0   9 10813.5 988.590  18
  -5   0   8 382.755 220.771  19
  -5   0   8 217.653 199.569  18
  -5   0   7 82917.7 3162.72  19
  -5   0   7 96643.0 3148.44  18
  -5   0   6 1034.74 290.389  27
  -5   0   6 1372.56 398.649   1
  -5   0   5 7245.10 718.400  27
  -5   0   5 8577.61 821.281   1
  -5   0   4 125945. 3498.82   1
   5   0  -4 155089. 3636.32  26
  -5   0   3 3495.77 422.266   1
   5   0  -3 4456.69 488.091  26
  -5   0   2 64369.0 1947.32   1
   5   0  -2 67588.1 2100.77  26
  -5   0   1 66752.1 2021.34  32
  -5   0   0 99848.0 2594.67  32
  -5   0  -1 58051.1 1930.61  32
  -5   0  -2 25488.1 1192.96  32
  -5   0  -3 374.114 144.711  32
   5   0   3 157.946 114.882  26
  -5   0  -4 1559.21 322.612  32
  -5   0  -5 4005.39 525.192  32
   5   0   6 1125.22 303.158   7
   5   0   6 906.384 268.172  20
   5   0   7 73.8612 152.527  20
  -5   0  -7-131.184 146.341   5
   5   0   8 7893.32 839.081  20
  -5   0  -8 7716.57 787.453   5
   5   0   9 1001.53 323.988  20
  -5   0  -9 1235.53 315.035   5
   5   0  10 1421.74 357.274   9
   5   0  11 112.166 108.352   9
   5   0  12 6000.64 519.500   9
  -5  -1  12 867.034 223.162  18
  -5  -1  11 10523.2 889.061  18
  -5  -1  10 999.375 321.879  18
  -5  -1   9 833.993 268.466  19
  -5  -1   9-331.829 207.015  18
  -5  -1   8 9849.76 1002.76  19
  -5  -1   8 9182.17 931.223  18
  -5  -1   7 18950.8 1388.60  19
  -5  -1   7 18776.0 1315.41  18
  -5  -1   6 20797.1 1356.87  27
  -5  -1   6 31223.1 1725.01   1
  -5  -1   5 1442.43 355.047   1
  -5  -1   5 1228.16 310.138  27
   5   1  -4 132.314 53.4322  26
  -5  -1   4 175.631 161.842   1
  -5  -1   3 41308.8 1611.75   1
  -5  -1   2 3096.05 382.818   1
  -5  -1   1 85705.1 2462.26  32
  -5  -1   0 36375.0 1410.81  32
  -5  -1  -1 32328.3 1385.67  32
  -5  -1  -2 20566.5 1105.02  32
  -5  -1  -3 16278.8 1006.78  32
  -5  -1  -4 22003.2 1253.10  32
  -5  -1  -5 5418.26 636.223  32
   5   1   6 596.409 240.386  20
  -5  -1  -6 432.563 165.487   5
   5   1   7 52296.9 2241.88  20
  -5  -1  -7 47145.0 2122.20   5
   5   1   8 5170.79 665.661   3
   5   1   8 4570.25 642.359  20
  -5  -1  -8 4403.95 617.778   5
   5   1   9 40744.6 1905.42   3
   5   1   9 38507.4 1902.95  20
  -5  -1  -9 38161.3 1825.36   5
   5   1  10 893.646 269.562   9
   5   1  11 9493.21 756.037   9
  -5  -2  12 1378.90 272.168  18
  -5  -2  11 22241.9 1295.73  18
  -5  -2  10 1792.92 391.422  18
  -5  -2   9 1756.01 431.137  18
  -5  -2   8 35.0553 142.202  18
  -5  -2   7 2871.92 523.899  18
  -5  -2   6 11287.5 1008.22  18
  -5  -2   5 146669. 4104.73  27
  -5  -2   5 167724. 4545.02   1
  -5  -2   4 733.527 227.469   1
  -5  -2   3 34931.4 1510.38   1
  -5  -2   2 12034.3 804.101   1
  -5  -2   1 10179.0 697.553   1
  -5  -2   0 62133.8 2014.05  32
  -5  -2  -1 380.427 150.593  32
  -5  -2  -2 448.600 201.652  32
  -5  -2  -3 26291.6 1340.73  32
  -5  -2  -4 7273.01 728.031  32
  -5  -2  -5 10983.6 948.996  32
  -5  -2  -5 12353.6 1012.62   5
  -5  -2  -6 11823.4 1017.22   5
  -5  -2  -7 941.631 299.952   5
   5   2   8 13458.3 1072.76  20
  -5  -2  -8 10301.0 966.834   5
   5   2   9 6186.90 711.415   3
  -5  -2  -9 5803.92 681.818   5
   5   2   9 5184.27 644.731   9
   5   2  10 2874.58 435.920   9
   5   2  10 3511.88 504.208   3
   5   2  11 1275.82 243.580   3
  -5  -3  12 12461.9 733.987  10
  -5  -3  12 11998.2 728.766  18
  -5  -3  11 2908.07 441.796  18
  -5  -3  10 944.452 312.202  18
  -5  -3   9 20777.6 1442.64  18
  -5  -3   8 77.8709 158.733  18
  -5  -3   7 6058.15 779.689  18
  -5  -3   6 14452.4 1197.47  18
  -5  -3   5 37969.7 1816.05  27
  -5  -3   5 35323.6 1649.21  22
  -5  -3   4 718.801 231.268   1
  -5  -3   3 6821.31 661.637   1
  -5  -3   2 648.450 208.777   1
  -5  -3   1 461.774 164.919   1
  -5  -3   0 8196.51 705.420  32
  -5  -3  -1 9630.95 758.358  32
  -5  -3  -2 24976.9 1291.96  32
  -5  -3  -3 4572.96 596.580  32
  -5  -3  -4 4312.00 580.119  32
  -5  -3  -5 132391. 4011.59   5
  -5  -3  -6-264.568 193.414   5
  -5  -3  -7 13727.9 1137.02   5
  -5  -3  -8 831.438 293.457   5
   5   3   9 1302.28 323.512   3
  -5  -3  -9 1396.11 362.657   5
   5   3  10 6169.78 639.269   3
   5   3  11 36715.6 1372.86   3
  -5  -4  11 6051.21 581.025  10
  -5  -4  11 5337.28 551.450  18
  -5  -4  10 12756.0 997.405  18
  -5  -4   9 1209.99 353.561  18
  -5  -4   8 13088.6 1165.36  18
  -5  -4   7 12019.1 1134.21  18
  -5  -4   6 373.301 207.718  18
  -5  -4   5 38835.8 2033.17  18
  -5  -4   4 292.103 173.694  10
  -5  -4   4 463.120 210.288  18
  -5  -4   3 557.055 200.163   1
  -5  -4   3 218.144 149.339  22
  -5  -4   3 508.618 203.103  10
  -5  -4   2 1466.27 316.309   1
  -5  -4   1 24964.7 1305.59   1
  -5  -4   0 3374.35 450.643   1
  -5  -4  -1 38313.2 1729.62  22
  -5  -4  -2 47022.6 1915.88  22
  -5  -4  -3 65951.8 2542.19  17
  -5  -4  -4 42128.9 2079.30   5
  -5  -4  -4 41971.9 2014.89  17
  -5  -4  -5 9527.51 969.706   5
  -5  -4  -6 36826.0 1956.40   5
  -5  -4  -7 41209.0 2053.62   5
  -5  -4  -8 28608.1 1636.33   5
   5   4   9 3933.80 560.108   3
  -5  -4  -9 3513.37 530.487   5
   5   4  10 1616.58 307.143   3
  -5  -5  10 18.6083 115.165  10
  -5  -5   9 3034.59 507.350  10
  -5  -5   9 3024.78 504.946  18
  -5  -5   8 12959.5 1118.35  10
  -5  -5   8 12540.4 1099.63  18
  -5  -5   7 13318.7 1174.50  10
  -5  -5   7 12392.6 1142.24  18
  -5  -5   6 17741.0 1381.92  10
  -5  -5   6 16520.9 1336.61  18
  -5  -5   5 257.004 187.517  10
  -5  -5   4 98709.9 3514.45  10
  -5  -5   3 13914.5 1172.09  10
  -5  -5   2 8329.06 876.546  10
  -5  -5   1 1408.34 362.226  10
  -5  -5   0 50792.8 2211.48  10
  -5  -5   0 46920.8 2160.04  17
  -5  -5  -1 17654.4 1255.17  10
  -5  -5  -1 16537.2 1235.46  17
  -5  -5  -2 28436.0 1670.07  17
  -5  -5  -3 10454.6 1014.74   5
  -5  -5  -3 9946.77 974.925  17
  -5  -5  -4 97295.0 3185.06  11
  -5  -5  -4 99690.4 3506.35   5
  -5  -5  -5 9230.49 853.746  11
  -5  -5  -5 9173.71 966.459   5
  -5  -5  -6 1050.79 325.930   5
  -5  -5  -7 145.682 141.993   5
  -5  -5  -8 1396.16 358.905   5
   5   5   9 2131.90 376.153   3
   5   5  10 1147.16 236.904   3
  -5  -6   9 914.999 246.966  10
  -5  -6   8 37803.5 1822.45  10
  -5  -6   7 8505.43 899.117  10
  -5  -6   6 51748.5 2406.27  10
  -5  -6   5 3233.78 582.214  10
  -5  -6   4 1631.96 417.044  10
  -5  -6   3 7352.50 874.050  10
  -5  -6   2 796.491 267.320  10
  -5  -6   2 872.499 305.936  17
  -5  -6   1 40973.1 2092.31  10
  -5  -6   1 38326.7 2021.97  17
  -5  -6   0 67754.9 2783.62  10
  -5  -6   0 71877.7 2883.34  17
  -5  -6  -1 17450.7 1342.41  17
  -5  -6  -2 32115.6 1857.20  17
  -5  -6  -3 4387.67 675.378  17
  -5  -6  -3 3648.79 592.129   5
  -5  -6  -4-78.8241 113.226  11
  -5  -6  -4 2.78010 99.5351   5
  -5  -6  -5 12660.7 1020.42  11
  -5  -6  -5 12796.9 1121.69   5
  -5  -6  -6 968.112 271.239  11
  -5  -6  -6 916.980 316.107   5
  -5  -6  -7 3455.20 526.569   5
   5   6   8 31207.7 1506.78   3
   5   6   9 11277.0 765.371   3
  -5  -7   8 91.3310 126.324  10
  -5  -7   7 2518.75 434.665  10
  -5  -7   6 4546.29 640.113  10
  -5  -7   5 770.842 302.466  10
  -5  -7   4 313.109 207.700  10
  -5  -7   4 206.403 158.405  17
  -5  -7   3 546.204 262.285  10
  -5  -7   3 198.564 184.704  17
  -5  -7   2 1238.00 371.984  10
  -5  -7   2 930.385 314.777  17
  -5  -7   1 9979.46 1012.39  10
  -5  -7   1 8536.33 939.014  17
  -5  -7   0 1018.67 352.982  17
  -5  -7  -1 716.223 312.330  17
  -5  -7  -2 10778.2 1012.04  11
  -5  -7  -2 11372.8 1101.12  17
  -5  -7  -3 1810.73 409.017  11
  -5  -7  -4 1341.20 339.595  11
  -5  -7  -5 23982.1 1368.95  11
  -5  -7  -5 26701.8 1506.79   5
  -5  -7  -6 1611.23 315.244  11
  -5  -7  -6 1306.23 303.910   5
   5   7   7 80.6168 138.255   3
   5   7   8 19535.9 1006.12   3
  -5  -8   7 13527.9 831.844  10
  -5  -8   6 2921.14 448.251  10
  -5  -8   5 2615.84 452.020  10
  -5  -8   4 12115.2 1023.09  10
  -5  -8   3 5524.14 713.050  10
  -5  -8   2 14872.7 1193.08  10
  -5  -8   2 13435.9 1111.36  17
  -5  -8   1 486.289 226.155  17
  -5  -8   0 2790.61 525.904  17
  -5  -8  -1 38156.9 1935.47  11
  -5  -8  -2 905.129 296.505  11
  -5  -8  -3 20010.7 1302.12  11
  -5  -8  -4 7019.56 722.851  11
  -5  -8  -5 2353.10 390.266  11
  -5  -8  -6 734.300 186.739  11
   5   8   6 721.332 211.956   3
  -5  -9   4 7772.55 625.134  16
  -5  -9   3 15737.7 976.840  11
  -5  -9   2 571.321 225.496  11
  -5  -9   1 568.779 237.290  11
  -5  -9   0 117.366 141.511  11
  -5  -9  -1 9862.28 858.522  11
  -5  -9  -2 528.171 187.374  16
  -5  -9  -2 571.416 214.285  11
  -5  -9  -3 1858.70 354.299  11
  -5  -9  -4 9017.70 697.938  11
  -5 -10   2-20.6362 82.2107  16
  -5 -10   1 15009.0 815.272  16
  -5 -10   0 7353.58 548.587  16
   6 -11  -4 15452.2 803.256   7
   6 -11  -3 180.484 97.8302   8
   6 -11  -3 132.255 100.121   7
   6 -11  -2 17404.5 914.430   7
   6 -11  -2 17618.3 1022.35   8
   6 -11  -1-72.1775 165.770   8
   6 -11   0 1817.74 335.539   8
   6 -11   1 187.403 149.741   8
   6 -11   2 414.727 208.198   8
   6 -11   3 1908.54 359.738   8
   6 -10  -6 35.9125 95.5264  25
   6 -10  -5 12169.1 859.731  25
   6 -10  -4 8293.20 727.817  25
   6 -10  -4 7267.98 644.640   8
   6 -10  -3 5562.08 605.002  25
   6 -10  -3 4157.19 531.701   8
   6 -10  -2 5930.12 626.522  25
   6 -10  -2 6177.60 670.707   8
   6 -10  -1 11142.4 865.373   7
   6 -10  -1 10894.2 923.642   8
   6 -10   0-743.066 279.571   8
   6 -10   0-142.425 127.168   7
   6 -10   1 4298.57 596.429   8
   6 -10   2 4851.88 627.691   8
   6 -10   3 609.863 297.876   8
   6 -10   3 311.163 147.172   6
   6 -10   4 17262.8 1017.37   6
   6 -10   4 16989.6 1102.67   8
   6 -10   5 33285.6 1392.09   6
   6 -10   6 18159.9 909.814   6
   6  -9  -8-70.2415 115.946  25
   6  -9  -7 1704.23 315.106  25
   6  -9  -6 2507.94 432.927  25
   6  -9  -5 15908.3 1132.12  25
   6  -9  -4 29806.5 1623.42  25
   6  -9  -4 33125.4 1574.66   8
   6  -9  -3 5185.21 660.839  25
   6  -9  -3 4435.68 584.241   8
   6  -9  -2 2616.51 467.704   8
   6  -9  -2 1925.05 407.755  25
   6  -9  -1 7670.32 787.352  25
   6  -9  -1 7528.75 807.572   8
   6  -9   0 2043.44 426.962   8
   6  -9   0 1535.30 337.443   7
   6  -9   1-133.971 220.192   8
   6  -9   1 55.3319 142.156   7
   6  -9   2 4408.26 553.219   7
   6  -9   2 3548.27 571.352   8
   6  -9   3 321.795 223.844   8
   6  -9   4 4303.74 554.338   6
   6  -9   4 5501.93 706.325   8
   6  -9   5 19356.4 1175.70   6
   6  -9   6-48.2306 129.625   6
   6  -9   7 222.242 117.959   6
   6  -9   8 3663.29 376.553   6
   6  -8  -9 2927.11 343.994  25
   6  -8  -8 1238.55 280.731  25
   6  -8  -7 18935.7 1185.20  25
   6  -8  -6 26267.4 1515.33  25
   6  -8  -5 25381.1 1539.09  25
   6  -8  -4 20301.8 1376.32  25
   6  -8  -3-150.284 168.105   8
   6  -8  -3 374.090 179.434  25
   6  -8  -2 3099.16 543.876  25
   6  -8  -2 3537.60 557.105   8
   6  -8  -1-144.996 151.516   8
   6  -8  -1 19.8387 127.884  25
   6  -8   0 963.870 290.137   8
   6  -8   0 1327.66 340.056  25
   6  -8   1 1610.84 394.073   8
   6  -8   1 1677.33 375.496   7
   6  -8   2 293.169 206.503   8
   6  -8   2 406.789 194.412   7
   6  -8   3 1153.74 376.403   8
   6  -8   3 1805.09 371.814   7
   6  -8   4 559.471 345.861   8
   6  -8   5 1909.32 379.201   6
   6  -8   5 3063.58 594.486   8
   6  -8   6 4987.09 565.981  13
   6  -8   6 5407.59 630.046   6
   6  -8   7 3004.08 418.714  13
   6  -8   7 3139.75 451.231   6
   6  -8   8 1441.52 260.768  13
   6  -8   8 1109.43 249.557   6
   6  -8   9 19.9942 55.8416  13
   6  -8   9 384.090 147.033   6
   6  -7  -9 425.295 180.462  25
  -6   7   9 158.228 109.387  19
   6  -7  -8 1413.37 310.679  25
   6  -7  -7 27350.6 1533.46  25
   6  -7  -6 5391.60 691.762  25
   6  -7  -5 484.621 248.482  25
   6  -7  -4 2416.62 484.568  25
   6  -7  -3 51.8459 166.665  25
   6  -7  -2 5639.81 718.325  25
   6  -7  -2 5916.88 700.974   8
   6  -7  -1 2416.25 453.933   8
   6  -7  -1 2459.56 497.236  25
   6  -7   0 4861.92 648.706  25
   6  -7   0 5458.79 695.513   8
   6  -7   1 51259.4 2278.90   8
   6  -7   2 2730.48 519.287   8
   6  -7   2 3687.68 539.051   7
   6  -7   3 53334.1 2178.98   7
   6  -7   3 51802.2 2352.03   8
   6  -7   4 12975.9 1004.72   7
   6  -7   4 14127.6 1186.96   8
   6  -7   5 1511.46 339.372  13
   6  -7   5 1274.56 301.203   7
   6  -7   5 2079.29 548.720   8
   6  -7   6 33082.6 1656.26  13
   6  -7   6 36027.2 1734.57   6
   6  -7   7 623.881 230.792  13
   6  -7   7 696.924 241.445   6
   6  -7   8 35.6250 83.9108  13
   6  -7   8-10.2019 118.702   6
   6  -7   9 6536.19 560.782  13
   6  -7   9 6235.82 549.282   6
  -6   6  10 5117.40 545.304  19
   6  -6  -9 31421.2 1431.51  25
  -6   6   9 32626.1 1610.42  19
   6  -6  -8 3531.74 518.028  25
  -6   6   8 5755.42 694.838  19
   6  -6  -7 413.031 223.009  25
  -6   6   7 831.713 277.790  19
  -6   6   6 35026.9 1818.50  19
   6  -6  -6 37868.4 1903.49  25
   6  -6  -5 9143.17 923.418  25
   6  -6  -4 341.032 213.401  25
   6  -6  -3 8015.77 847.586  25
   6  -6  -2-86.0458 196.444  25
   6  -6  -1 7119.70 773.358  25
   6  -6  -1 7519.60 768.126   8
   6  -6   0 690.845 245.330   8
   6  -6   0 562.813 198.394  25
   6  -6   1 3316.63 532.747   8
   6  -6   2 1120.00 315.845   8
   6  -6   2 1089.81 295.430   7
   6  -6   3 11607.5 950.436   7
   6  -6   3 10321.5 988.004   8
   6  -6   4 4556.61 601.925   7
   6  -6   4 5448.89 743.174   8
   6  -6   5-12.7753 80.7829   7
   6  -6   5 628.364 390.752   8
   6  -6   6 3134.56 480.422   7
   6  -6   7 15876.3 1104.28   6
   6  -6   8 2078.45 389.307   6
   6  -6   9 15529.8 978.605  13
   6  -6   9 15297.4 938.617   6
   6  -6  10 142.381 102.180  13
  -6   5  11 68.0099 119.000  19
  -6   5  10 244.928 160.084  19
  -6   5   9 99.8944 167.851  19
   6  -5  -8 5615.46 660.139  25
  -6   5   8 4319.45 641.721  19
   6  -5  -7 447.091 230.903  25
  -6   5   7 479.019 239.867  19
   6  -5  -6 15830.7 1186.37  25
  -6   5   6 12304.4 1074.10  19
   6  -5  -5 2452.89 470.350  25
  -6   5   5 2535.64 468.579  19
   6  -5  -4 688.034 242.635  25
   6  -5  -3 964.207 267.707  28
   6  -5  -3 1215.32 318.510  25
   6  -5  -2 19464.1 1177.80  29
   6  -5  -1 37405.0 1666.79  29
   6  -5   0 14600.9 968.032  29
   6  -5   1 15436.5 983.673  29
   6  -5   2 28850.4 1379.36  29
   6  -5   2 29944.8 1433.81  28
   6  -5   3 8794.63 810.313   7
   6  -5   3 7490.29 802.990  21
   6  -5   3 8867.02 889.746   8
   6  -5   4 11576.6 946.277   7
   6  -5   4 10966.8 1026.36   8
   6  -5   5 13274.5 1034.87   7
   6  -5   5 15422.4 1133.33  20
   6  -5   6 19046.0 1233.66   7
   6  -5   6 17091.7 1213.23  20
   6  -5   7 1107.28 278.719   7
   6  -5   7 917.278 272.560   6
   6  -5   7 1331.42 355.909  20
   6  -5   8 19878.4 1205.10   6
   6  -5   8 19450.9 1269.29  20
   6  -5   8 20229.2 1296.07   9
   6  -5   9 7.17156 121.951   6
   6  -5   9 112.260 125.199  20
   6  -5   9-64.9370 120.962   9
   6  -5  10 15901.9 946.521   9
   6  -5  11 5937.27 454.574  13
  -6   4  11 3359.99 447.487  19
  -6   4  10 10511.9 924.352  19
  -6   4   9 8580.94 900.636  19
  -6   4   8 1068.20 333.545  19
   6  -4  -7 12066.7 1008.23  25
  -6   4   7 12900.8 1143.82  19
   6  -4  -6 50332.9 2221.45  25
  -6   4   6 59623.9 2501.23  19
   6  -4  -5 829.452 264.623  25
  -6   4   5 1669.72 382.106  19
   6  -4  -4 8171.50 752.122  29
   6  -4  -3 13635.1 948.842  29
   6  -4  -2 134337. 3536.60  29
   6  -4  -1 2529.20 370.741  29
   6  -4   0 2275.63 341.670  29
   6  -4   1 5886.17 567.120  29
   6  -4   2 85690.3 2383.98  29
   6  -4   2 66480.8 2450.79  21
   6  -4   3 480.793 210.505  21
   6  -4   4 775.398 254.946   7
   6  -4   4 739.212 263.818  21
   6  -4   4 958.325 331.875   8
   6  -4   5 10411.8 902.849   7
   6  -4   6 13907.2 1070.18   7
   6  -4   6 15997.9 1175.42  20
   6  -4   7 1194.94 320.844   7
   6  -4   7 1663.82 357.123   6
   6  -4   7 977.516 306.185  20
   6  -4   8 6951.58 688.496   6
   6  -4   8 5675.45 699.194  20
   6  -4   9-40.6731 142.518  20
   6  -4   9-120.761 154.387   9
   6  -4  10 31650.3 1500.45   9
   6  -4  11 822.867 209.385   9
  -6   3  12 11305.7 704.796  19
  -6   3  11 114.682 125.260  19
  -6   3  10 38600.2 1904.57  19
  -6   3   9 727.878 306.875  19
  -6   3   8 745.548 284.778  19
  -6   3   7 3211.24 576.573  19
  -6   3   6 12348.2 1100.32  19
  -6   3   5 45363.0 2077.62  27
  -6   3   5 54960.3 2305.70  19
  -6   3   4 6075.48 689.522  27
  -6   3   3 1414.47 310.007  27
   6  -3  -2 73556.8 2534.04  26
   6  -3  -1 7865.56 735.009  26
   6  -3   0 7692.46 614.722  29
   6  -3   0 6717.96 668.923  26
  -6   3  -1 48560.5 1765.82  32
   6  -3   1 45494.2 1571.51  29
  -6   3  -2 839.357 230.782  32
   6  -3   2 1294.75 241.453  29
   6  -3   2 1073.51 262.436  26
  -6   3  -3 10219.9 825.379  32
  -6   3  -4 2399.80 411.032  32
   6  -3   5 2484.08 436.807   7
   6  -3   6 56549.8 2288.97   7
   6  -3   6 52460.3 2255.82  20
   6  -3   7 2075.38 413.434   7
   6  -3   7 1953.94 420.026  20
   6  -3   8 13536.1 1100.20  20
   6  -3   9 7779.23 804.879  20
   6  -3   9 8059.74 822.257   9
   6  -3  10 2829.66 452.984   9
   6  -3  11 1471.83 282.665   9
  -6   2  12 4183.31 432.001  19
  -6   2  11 40.0745 114.316  19
  -6   2  10 241.433 217.447  19
  -6   2   9 12256.8 1114.68  19
  -6   2   8 4282.44 674.260  19
  -6   2   7 35519.9 1968.32  19
  -6   2   6 54885.0 2442.21  19
  -6   2   5 8412.54 855.994  27
  -6   2   5 10355.2 935.529   1
  -6   2   4 740.573 229.207  27
   6  -2  -4 978.148 246.378  26
  -6   2   4 978.929 271.506   1
  -6   2   3 6755.25 616.942   1
   6  -2  -3 5965.20 631.481  26
   6  -2  -2 4290.01 523.670  26
  -6   2   2 5136.62 516.416   1
  -6   2   1 22729.0 1169.41  32
   6  -2  -1 21341.9 1192.46  26
  -6   2   1 18655.0 952.164   1
  -6   2   0 28124.5 1295.23  32
   6  -2   0 30084.6 1425.15  26
  -6   2  -1 14954.1 936.564  32
   6  -2   1 16083.8 832.372  29
   6  -2   1 13500.1 927.889  26
  -6   2  -2 91318.7 2786.01  32
   6  -2   2 88708.1 2683.30  26
  -6   2  -3 794.329 238.253  32
   6  -2   3 761.654 222.526  26
  -6   2  -4 5065.34 608.613  32
   6  -2   5 1434.36 343.824   4
   6  -2   5 863.002 263.074   7
   6  -2   6 22340.2 1374.85   7
   6  -2   6 22344.2 1397.79  20
   6  -2   7 473.233 222.772   7
   6  -2   7 429.338 212.057  20
   6  -2   8 122.195 168.718  20
   6  -2   9 488.459 190.323  20
   6  -2  10 7711.48 768.549   9
   6  -2  11 12060.2 836.942   9
  -6   1  12 1529.46 252.950  19
  -6   1  11 3294.59 470.836  19
  -6   1  10 16320.9 1209.57  19
  -6   1   9 24737.6 1603.00  19
  -6   1   8 4780.92 715.219  19
  -6   1   7 38552.6 2059.70  19
  -6   1   6 8988.60 931.379  19
  -6   1   5 4638.24 626.664   1
  -6   1   5 3286.89 526.855  27
   6  -1  -4 15271.3 997.790  26
  -6   1   4 14041.4 1010.41   1
  -6   1   3 239.061 148.911   1
   6  -1  -3 103.545 125.701  26
   6  -1  -2 2289.01 389.909  26
  -6   1   2 1616.54 297.260   1
  -6   1   1 92679.7 2824.76  32
  -6   1   1 105413. 2739.57   1
   6  -1   0 62794.1 2217.95  26
  -6   1   0 62610.5 2079.81  32
  -6   1  -1 1171.05 273.087  32
   6  -1   1 1178.84 290.024  26
  -6   1  -2 6140.89 637.093  32
   6  -1   2 5091.19 562.781  26
  -6   1  -3 1311.48 297.060  32
   6  -1   3 1332.92 283.438  26
  -6   1  -4 6350.35 687.067  32
   6  -1   5 39053.0 1834.15   7
   6  -1   5 38666.9 1896.14   4
   6  -1   6 627.088 244.152   7
   6  -1   6 918.704 279.782  20
   6  -1   7 11335.7 1013.35  20
   6  -1   8 15121.4 1180.31  20
   6  -1   9 6039.29 711.419  20
   6  -1  10 19524.7 1221.09   9
   6  -1  11 1773.77 318.003   9
  -6   0  11-184.425 134.088  19
  -6   0  11 107.311 93.8613  18
  -6   0  10 16084.8 1159.37  19
  -6   0  10 13127.6 1006.96  18
  -6   0   9 420.013 203.434  19
  -6   0   9 455.183 197.051  18
  -6   0   8 5055.64 718.719  19
  -6   0   8 4330.31 621.795  18
  -6   0   7 158.376 157.365  19
  -6   0   7-451.398 215.055  18
  -6   0   6 15448.6 1235.28  19
  -6   0   6 14478.4 1095.02  18
  -6   0   5 26168.5 1505.98  27
  -6   0   5 33397.6 1790.33   1
  -6   0   4 98782.4 3062.05   1
   6   0  -4 102757. 3025.41  26
  -6   0   3 2554.68 401.810   1
   6   0  -3 2964.43 456.656  26
   6   0  -2 22686.7 1249.79  26
  -6   0   2 23978.3 1192.86   1
  -6   0   1 56130.4 1970.50  32
   6   0  -1 51968.7 1902.72  26
  -6   0   0 83086.3 2468.75  32
   6   0   0 73188.8 2421.90  26
  -6   0  -1-40.5027 129.048  32
   6   0   1 63.3901 95.7809  26
  -6   0  -2 1307.11 314.725  32
   6   0   2 887.787 241.651  26
  -6   0  -3 17563.8 1131.20  32
   6   0   3 17980.9 1092.50  26
  -6   0  -4 1948.49 394.684  32
   6   0   5 7911.56 794.899   7
   6   0   5 6785.80 772.956   4
   6   0   6 9442.07 899.052  20
  -6   0  -6 8002.94 801.668   5
   6   0   7 24792.1 1528.58  20
  -6   0  -7 26312.3 1503.63   5
   6   0   8 1265.16 333.812  20
  -6   0  -8 1089.30 295.520   5
   6   0   9 3622.81 549.690  20
   6   0  10 5921.88 651.040   9
   6   0  11 14.5035 104.667   9
  -6  -1  11 2386.48 394.832  18
  -6  -1  10 3426.67 494.758  19
  -6  -1  10 2975.77 483.352  18
  -6  -1   9 705.150 262.022  19
  -6  -1   9 446.097 227.784  18
  -6  -1   8 7920.93 892.050  19
  -6  -1   8 8495.17 889.931  18
  -6  -1   7 525.877 254.030  19
  -6  -1   7 655.399 266.973  18
  -6  -1   6 1697.06 422.691  19
  -6  -1   6 1633.48 377.339  18
  -6  -1   5 1995.16 426.677  19
  -6  -1   5 1480.78 365.319  18
  -6  -1   4 5547.86 628.164   1
   6   1  -4 5494.07 618.853  26
  -6  -1   3 152451. 3923.26   1
   6   1  -3 145543. 3853.29  26
  -6  -1   2 21030.3 1152.93   1
  -6  -1   1 543.378 174.681   1
  -6  -1   0 2137.29 357.900  32
  -6  -1  -1 248.009 124.003  32
  -6  -1  -2 1646.94 346.869  32
  -6  -1  -3 18553.1 1206.92  32
  -6  -1  -4 10884.0 936.863  32
   6   1   5 1567.40 365.880   4
   6   1   5 1918.69 399.255  20
   6   1   6 62275.1 2474.44  20
  -6  -1  -6 56835.5 2396.41   5
   6   1   7 2462.74 463.360  20
  -6  -1  -7 2638.56 489.510   5
   6   1   8 1946.24 414.973  20
  -6  -1  -8 2129.33 419.512   5
  -6  -1  -9 4779.77 591.353   5
   6   1  10 273.920 133.867   9
   6   1  11 9496.84 646.135   9
  -6  -2  11 155.206 130.096  18
  -6  -2  10 11041.7 920.084  18
  -6  -2   9 36955.0 1894.56  18
  -6  -2   8 1030.90 330.627  18
  -6  -2   7 33420.1 1891.06  19
  -6  -2   7 33917.0 1886.90  18
  -6  -2   6 57620.1 2530.03  19
  -6  -2   6 51418.0 2355.92  18
  -6  -2   5 24858.2 1578.04  19
  -6  -2   5 23425.6 1479.52  18
   6   2  -4 40708.3 1790.53  26
  -6  -2   4 52810.4 2189.19  18
  -6  -2   3 32648.9 1578.12   1
  -6  -2   2 2479.94 406.695   1
  -6  -2   1 2514.64 379.206   1
  -6  -2   0-10.2510 98.0452  32
  -6  -2  -1 11437.3 884.059  32
  -6  -2  -2 28778.9 1472.93  32
  -6  -2  -3 41107.3 1950.56  32
   6   2   4 42402.8 2040.06   4
  -6  -2  -4 38722.0 1788.93  17
  -6  -2  -5 57801.5 2443.99   5
  -6  -2  -6 9.23332 135.908   5
  -6  -2  -7 16030.7 1209.85   5
  -6  -2  -8 11251.9 973.635   5
   6   2   9 11415.9 897.970   3
  -6  -2  -9 10049.1 862.685   5
   6   2   9 10654.9 874.247   9
   6   2  10 750.634 211.642   3
  -6  -3  11 823.273 217.655  10
  -6  -3  10 3578.51 514.623  18
  -6  -3   9 1132.94 342.566  18
  -6  -3   8 5496.39 740.160  18
  -6  -3   7 52473.1 2442.40  18
  -6  -3   6 67163.9 2780.79  18
  -6  -3   5 74095.7 2898.08  18
  -6  -3   4 56221.5 2418.22  10
  -6  -3   4 52547.6 2351.06  19
  -6  -3   4 57083.3 2420.30  18
  -6  -3   3 14056.3 1109.35  10
  -6  -3   2-243.485 153.825   1
  -6  -3   1 25108.9 1348.09   1
  -6  -3   0 6512.38 645.701   1
  -6  -3  -1 32432.1 1611.08  32
  -6  -3  -2 96918.9 3168.36  32
  -6  -3  -2 123409. 3509.95  17
   6   3   3 8582.20 869.749   4
  -6  -3  -3 9557.19 884.591  17
  -6  -3  -4 200981. 5285.51  17
   6   3   4 224743. 5652.79   4
  -6  -3  -5 6646.12 809.546   5
  -6  -3  -6 587.169 253.142   5
  -6  -3  -7 13826.7 1139.88   5
  -6  -3  -8 915.855 261.822   5
   6   3   9 552.498 198.428   3
  -6  -3  -9 437.267 223.599   5
   6   3  10 12682.8 791.623   3
  -6  -4  10 12656.0 893.470  10
  -6  -4   9 10899.6 932.292  10
  -6  -4   9 10490.5 917.174  18
  -6  -4   8 48478.4 2241.37  10
  -6  -4   8 46425.1 2183.82  18
  -6  -4   7 84.0420 192.982  10
  -6  -4   7 127.568 170.335  18
  -6  -4   6 1206.28 375.327  10
  -6  -4   6 1294.01 384.949  18
  -6  -4   5 29197.2 1779.79  10
  -6  -4   4-32.4438 111.462  10
  -6  -4   3 11818.4 1075.60  10
  -6  -4   2 8585.44 885.688  10
  -6  -4   1 7105.24 796.965  10
  -6  -4   0 59821.7 2432.95  10
  -6  -4  -1 130.154 179.098  10
  -6  -4  -1 254.109 207.461  17
  -6  -4  -2 21548.3 1418.80  17
  -6  -4  -3 41419.2 2035.60  17
  -6  -4  -4 13981.6 1192.78   5
  -6  -4  -4 13248.2 1125.71  17
  -6  -4  -5 3753.29 628.435   5
  -6  -4  -6 13301.5 1137.79   5
  -6  -4  -7 2316.20 458.595   5
  -6  -4  -8 605.325 254.765   5
   6   4   9 2851.04 413.448   3
  -6  -4  -9 2295.41 381.543   5
  -6  -5  10 242.612 130.063  10
  -6  -5   9 6961.54 682.776  10
  -6  -5   8 768.387 272.872  10
  -6  -5   7 5418.83 728.854  10
  -6  -5   6 2020.67 460.143  10
  -6  -5   5 219.400 221.138  10
  -6  -5   4 1590.12 427.385  10
  -6  -5   3 359.789 215.279  10
  -6  -5   2 167.359 183.373  10
  -6  -5   1 214.173 134.275  10
  -6  -5   1 67.3154 110.534  17
  -6  -5   0 56972.3 2468.68  10
  -6  -5   0 54436.1 2441.93  17
  -6  -5  -1 11236.1 1040.54  10
  -6  -5  -1 10990.9 1039.46  17
  -6  -5  -2 1318.16 373.795  17
  -6  -5  -3 34009.7 1912.48   5
  -6  -5  -3 29780.9 1763.61  17
  -6  -5  -4 9439.60 877.224  11
  -6  -5  -4 11401.3 1076.95   5
  -6  -5  -5 2546.33 496.138   5
  -6  -5  -6 33332.7 1809.41   5
  -6  -5  -7 252.303 181.677   5
   6   5   8 9682.29 806.753   3
  -6  -5  -8 10619.7 850.249   5
   6   5   9 30847.8 1287.80   3
  -6  -6   9 7575.56 597.514  10
  -6  -6   8 1545.36 327.511  10
  -6  -6   7 643.504 250.268  10
  -6  -6   6 6061.40 744.691  10
  -6  -6   5 1071.84 335.799  10
  -6  -6   4 11191.5 1074.00  10
  -6  -6   3 22008.0 1531.80  10
  -6  -6   3 23176.2 1550.89  17
  -6  -6   2 4778.99 700.282  10
  -6  -6   2 5180.56 734.863  17
  -6  -6   1 33855.8 1908.45  10
  -6  -6   1 32700.4 1888.36  17
  -6  -6   0 22372.7 1526.94  10
  -6  -6   0 23864.0 1602.47  17
  -6  -6  -1 11703.0 1112.73  17
  -6  -6  -2 10596.5 1045.74  17
  -6  -6  -3 2048.49 434.052  11
  -6  -6  -3 1972.77 439.569   5
  -6  -6  -4 4600.18 599.142  11
  -6  -6  -4 5338.16 713.378   5
  -6  -6  -5 1834.99 360.161  11
  -6  -6  -5 1927.44 422.533   5
  -6  -6  -6 7377.98 761.625   5
  -6  -6  -7 6732.47 673.363   5
   6   6   8 2070.57 324.772   3
  -6  -7   7 355.766 158.935  10
  -6  -7   6 2800.11 460.934  10
  -6  -7   5 315.687 159.152  10
  -6  -7   4 15516.8 1202.54  10
  -6  -7   4 13020.4 1062.50  17
  -6  -7   3 2008.20 452.452  10
  -6  -7   3 1693.05 415.597  17
  -6  -7   2 7317.82 850.814  10
  -6  -7   2 7385.30 841.650  17
  -6  -7   1 1000.81 349.783  17
  -6  -7   0 2152.55 464.414  17
  -6  -7  -1 8836.89 949.367  17
  -6  -7  -2 13076.4 1073.70  11
  -6  -7  -3 5564.91 668.343  11
  -6  -7  -4 4120.43 542.372  11
  -6  -7  -5 9275.68 738.148  11
  -6  -7  -6 2403.15 363.311   5
   6   7   7 19174.3 970.741   3
  -6  -8   6 193.689 109.764  10
  -6  -8   5 8526.32 731.685  10
  -6  -8   4 1395.29 308.018  10
  -6  -8   3 364.072 175.966  17
  -6  -8   2 15803.3 1119.11  17
  -6  -8   1 15927.7 1166.10  17
  -6  -8   0 23461.6 1401.64  11
  -6  -8  -1 6136.04 694.878  11
  -6  -8  -2 14746.8 1048.94  11
  -6  -8  -3 9770.61 803.064  11
  -6  -8  -4 183.847 125.637  11
  -6  -9   3 3758.88 390.303  16
  -6  -9   2 3113.93 399.640  11
  -6  -9   1 117.393 114.439  11
  -6  -9   0 5045.19 540.119  11
  -6  -9  -1 4829.80 514.650  11
  -6  -9  -1 4838.96 453.743  16
  -6  -9  -2 1296.32 275.856  11
   7 -11  -2 0.94347 90.2361   8
   7 -11  -2 323.401 121.288   7
   7 -11  -1 864.609 220.626   8
   7 -11  -1 628.747 161.093   7
   7 -11   0 8480.67 671.312   8
   7 -11   1 2675.80 391.925   8
   7 -11   2 1066.55 278.669   8
   7 -10  -5 14416.9 856.521  25
   7 -10  -4 5344.87 546.361  25
   7 -10  -3 3181.48 414.356   8
   7 -10  -2 1207.03 279.905   8
   7 -10  -2 1403.14 304.441   7
   7 -10  -1 154.478 127.852   8
   7 -10  -1 173.098 119.482   7
   7 -10   0 312.761 189.654   8
   7 -10   0 381.525 186.528   7
   7 -10   1 4198.66 483.551   7
   7 -10   1 3332.28 497.712   8
   7 -10   2 1903.45 413.632   8
   7 -10   2 649.538 183.997   6
   7 -10   3 143.041 107.089   6
   7 -10   3 720.274 338.186   8
   7 -10   4 4836.45 486.347   6
   7 -10   5 24339.4 1060.01   6
   7  -9  -7 6126.34 513.131  15
   7  -9  -7 5626.14 520.812  25
   7  -9  -6 18635.7 1031.94  15
   7  -9  -6 20478.9 1129.02  25
   7  -9  -5 2546.85 395.635  15
   7  -9  -5 2568.78 443.061  25
   7  -9  -4 3811.41 492.183  15
   7  -9  -4 3864.61 535.562  25
   7  -9  -3 617.372 217.184   8
   7  -9  -3 601.920 232.080  25
   7  -9  -2 2581.82 440.460   8
   7  -9  -2 2944.52 477.587  25
   7  -9  -1 8499.31 797.985   7
   7  -9  -1 8987.35 858.217   8
   7  -9   0 3998.14 548.083   7
   7  -9   0 3521.12 538.509   8
   7  -9   1 1475.55 369.986   8
   7  -9   1 2292.62 418.088   7
   7  -9   2 19190.9 1158.33   7
   7  -9   2 17192.0 1237.98   8
   7  -9   3 3041.15 433.332   7
   7  -9   3 3630.25 638.778   8
   7  -9   4 28126.7 1404.00   6
   7  -9   4 27936.8 1516.16   8
   7  -9   5 12596.9 874.115   6
   7  -9   6 252.142 142.881   6
   7  -9   7 1353.17 237.813   6
   7  -8  -8 17237.2 920.703  25
   7  -8  -7 1243.17 299.687  25
   7  -8  -6 16045.0 1102.43  25
   7  -8  -5 1086.36 306.040  25
   7  -8  -4 8146.39 850.075  25
   7  -8  -3 2639.79 471.157  15
   7  -8  -3 2470.74 484.399  25
   7  -8  -2 35.3234 128.934   8
   7  -8  -2 46.4703 140.165  25
   7  -8  -1 437.193 225.142   8
   7  -8  -1 831.259 276.218  25
   7  -8   0 1340.17 368.240   8
   7  -8   0 1776.47 394.971   7
   7  -8   1 804.035 272.984   8
   7  -8   1 841.134 267.654   7
   7  -8   2 8251.42 799.494   7
   7  -8   2 7706.70 852.885   8
   7  -8   3 3358.63 503.225   7
   7  -8   3 3401.16 595.535   8
   7  -8   4 171.738 140.179   7
   7  -8   4 938.987 493.325   8
   7  -8   5 11309.2 825.289   7
   7  -8   5 11419.7 902.323   6
   7  -8   6 1468.32 310.235   6
   7  -8   7 8433.98 680.281   6
   7  -8   8 728.928 174.372   6
   7  -7  -9 3900.64 386.397  25
   7  -7  -8 1094.50 266.729  25
   7  -7  -7 352.173 212.971  25
   7  -7  -6 5157.77 658.364  25
   7  -7  -5 29173.9 1659.50  25
   7  -7  -4 214.780 193.590  25
   7  -7  -3 5952.79 752.830  25
   7  -7  -2 434.864 212.662  15
   7  -7  -2 294.487 219.578  25
   7  -7  -1 18689.5 1232.32  15
   7  -7  -1 15907.6 1222.88  25
   7  -7  -1 16411.0 1216.07   8
   7  -7   0 19851.2 1370.02   8
   7  -7   1 4538.34 619.000   7
   7  -7   1 4399.96 657.693   8
   7  -7   2 2375.01 494.557   8
   7  -7   2 1857.95 411.457   7
   7  -7   3 59372.4 2351.73   7
   7  -7   3 57022.6 2528.85   8
   7  -7   4 1383.58 334.491   7
   7  -7   4 3301.12 649.981   8
   7  -7   5 10901.8 884.161   7
   7  -7   6 62.5729 107.250   7
   7  -7   6 63.1273 120.294   6
   7  -7   7 13007.7 860.642  13
   7  -7   7 11922.2 879.075   6
   7  -7   8 4519.84 448.504  13
   7  -7   8 4024.96 454.410   6
   7  -6 -10 4292.46 408.718  15
  -7   6  10 5024.63 456.604  19
  -7   6   9 25688.8 1282.06  19
   7  -6  -8 1995.52 364.808  25
  -7   6   8 1584.98 356.215  19
   7  -6  -7 6159.31 700.324  25
  -7   6   7 7274.69 750.283  19
   7  -6  -6 3893.76 582.011  25
   7  -6  -5 779.220 282.372  25
   7  -6  -4 17397.0 1289.50  25
   7  -6  -3 7404.73 845.499  25
   7  -6  -2 14155.6 1121.02  15
   7  -6  -2 14845.7 1179.65  25
   7  -6  -1 38548.8 1853.22  15
   7  -6  -1 35642.0 1873.67  25
   7  -6   0 3139.31 536.786   8
   7  -6   0 3589.36 524.275  15
   7  -6   1 751.633 290.393   8
   7  -6   1 600.495 239.954   7
   7  -6   2 4374.60 606.986   7
   7  -6   2 5222.17 712.785   8
   7  -6   3 5773.93 693.385   7
   7  -6   3 6921.07 829.776   8
   7  -6   4 1004.60 313.306   7
   7  -6   4 1912.75 517.875   8
   7  -6   5 6562.35 719.173   7
   7  -6   5 7420.61 766.152  20
   7  -6   6 4039.30 540.711   7
   7  -6   6 4111.27 560.797  20
   7  -6   7 1828.54 358.384   7
   7  -6   7 2061.94 380.767   6
   7  -6   7 1725.09 358.770  20
   7  -6   8 19805.1 1095.13  13
   7  -6   8 19744.6 1091.96   6
   7  -6   8 19888.8 1117.48  20
   7  -6   9 11268.3 714.570  13
   7  -6   9 11218.3 691.015   6
   7  -5 -10 7135.92 557.620  15
  -7   5  10 7202.15 649.339  19
  -7   5   9 2189.39 416.366  19
   7  -5  -8 1110.08 294.782  25
  -7   5   8 735.257 264.680  19
   7  -5  -7 7897.40 798.512  25
  -7   5   7 7479.93 813.275  19
   7  -5  -6 11577.0 1010.33  25
  -7   5   6 11864.3 1035.72  19
   7  -5  -5 405.000 222.529  25
  -7   5   5 549.222 243.365  19
   7  -5  -4 24853.3 1542.30  25
   7  -5  -3 537.413 232.934  25
   7  -5  -2 37552.6 1865.76  15
   7  -5  -2 42597.0 2020.44  25
   7  -5  -1 951.485 262.052  15
   7  -5  -1 1442.07 368.563  25
   7  -5   0 392.489 185.797  15
   7  -5   1 7172.48 732.063  15
   7  -5   1 7332.91 775.891   7
   7  -5   1 7806.86 828.325   8
   7  -5   2 7515.60 777.859   7
   7  -5   2 6132.45 759.263   8
   7  -5   3 4244.40 599.583   7
   7  -5   3 4395.45 671.009   8
   7  -5   4 2642.39 476.507   7
   7  -5   5 1605.27 379.028   7
   7  -5   5 1673.33 380.209  20
   7  -5   6 28808.6 1553.85   7
   7  -5   6 28418.0 1590.30  20
   7  -5   7 22491.0 1303.65   7
   7  -5   7 21801.3 1262.31   6
   7  -5   7 21170.9 1338.46  20
   7  -5   8 2188.72 365.122   6
   7  -5   8 2706.64 445.267  20
   7  -5   8 2564.03 419.175   9
   7  -5   9 8.85592 86.2215   9
   7  -5  10 1974.89 270.548  13
  -7   4  11 10206.0 692.718  19
   7  -4 -10 677.316 181.823  15
  -7   4  10 1047.28 272.465  19
  -7   4   9 238.072 205.392  19
  -7   4   8 7675.46 840.875  19
   7  -4  -7 17168.5 1176.82  25
  -7   4   7 14666.1 1207.85  19
   7  -4  -6 58539.2 2382.90  25
  -7   4   6 55578.6 2449.88  19
   7  -4  -5 12306.6 1052.25  25
  -7   4   5 14498.5 1151.23  19
   7  -4  -4 4760.30 649.226  25
  -7   4   4 4908.35 645.489  19
   7  -4  -3 2721.27 492.108  25
  -7   4   3 2977.10 479.523  19
   7  -4  -2 411.025 216.582  15
   7  -4  -2 498.824 198.829  25
   7  -4  -1 27627.6 1369.60  29
   7  -4   0 30774.4 1464.18  29
   7  -4   1 2692.99 406.967  29
   7  -4   1 2183.87 413.445   7
   7  -4   2 173.371 123.011  15
   7  -4   2 784.129 241.302   7
   7  -4   2 504.187 230.935   8
   7  -4   3 1606.06 373.418   7
   7  -4   4 1821.13 387.948   7
   7  -4   5 632.067 240.547   7
   7  -4   6 349.878 196.756   7
   7  -4   6-31.2357 191.235  20
   7  -4   7 12659.5 1010.29   7
   7  -4   7 14867.4 1018.60   6
   7  -4   7 13297.9 1070.90  20
   7  -4   8 503.031 243.257  20
   7  -4   9 4022.78 526.358  20
   7  -4   9 4427.26 548.896   9
   7  -4  10 53.0409 83.3107   9
  -7   3  11 442.832 176.056  19
  -7   3  10 8206.21 781.726  19
   7  -3  -9 204.974 147.555  15
  -7   3   9 296.585 214.982  19
  -7   3   8 36183.4 1943.29  19
  -7   3   7 3319.09 587.532  19
  -7   3   6 17194.4 1315.43  19
   7  -3  -5 551.767 227.852  25
  -7   3   5 911.371 312.047  19
   7  -3  -4 7741.59 800.242  25
  -7   3   4 6301.64 739.280  19
   7  -3  -3 53127.3 2269.23  15
  -7   3   3 55315.6 2195.75  27
   7  -3  -2 241.244 134.206  26
   7  -3  -1 27469.6 1344.51  29
   7  -3  -1 27299.9 1530.93  26
   7  -3   0 97510.6 2805.90  29
   7  -3   0 93982.2 3148.19  26
  -7   3  -1 5831.46 632.353  32
   7  -3   1 7888.09 647.467  29
   7  -3   1 7498.78 764.492  26
  -7   3  -2 15137.3 1050.83  32
   7  -3   2 14638.1 1068.28  26
   7  -3   3 219.128 148.874   4
   7  -3   3 414.967 202.917   7
   7  -3   4 1234.51 320.106   4
   7  -3   4 1357.95 355.757   7
   7  -3   5 21439.3 1367.22   7
   7  -3   6 16318.5 1183.93   7
   7  -3   6 14894.7 1157.64  20
   7  -3   7 855.573 273.793   7
   7  -3   7 1008.75 312.841  20
   7  -3   8 15714.9 1162.08  20
   7  -3   9 521.286 221.548  20
   7  -3   9 632.391 251.638   9
   7  -3  10-159.713 123.640   9
  -7   2  11 4644.55 500.995  19
  -7   2  10 3340.12 511.532  19
  -7   2   9 4936.47 669.183  19
  -7   2   8 202.215 182.327  19
   7  -2  -7 3215.56 528.183  15
  -7   2   7 2656.91 531.512  19
  -7   2   6 3555.47 598.329  19
   7  -2  -5 12810.1 1065.50  15
  -7   2   5 12530.7 1107.25  19
   7  -2  -4 32216.5 1710.13  15
  -7   2   4 32600.5 1756.06  19
   7  -2  -3 1004.94 298.696  26
  -7   2   3 1472.53 323.783   1
   7  -2  -2 45479.1 1966.19  26
  -7   2   2 43459.4 1795.69   1
   7  -2  -1 371.023 151.468  26
  -7   2   1 192.510 133.990   1
   7  -2   0 11385.1 931.499  26
  -7   2   0 11873.1 818.694   1
  -7   2  -1 16952.2 1091.03  32
   7  -2   1 18931.7 1202.00  26
  -7   2  -2 41012.4 1845.74  32
   7  -2   2 44758.6 1903.28  26
   7  -2   3 6144.40 718.015   4
   7  -2   3 6408.55 712.164   7
   7  -2   4 15576.2 1188.17   4
   7  -2   4 16889.5 1197.38   7
   7  -2   5 4441.33 618.085   7
   7  -2   5 4358.19 632.956   4
   7  -2   6 2614.31 480.268   7
   7  -2   6 2630.65 485.184  20
   7  -2   7 334.885 220.016   7
   7  -2   7 372.351 221.090  20
   7  -2   8 9950.79 927.503  20
   7  -2   9 98.9299 136.520  20
   7  -2  10 18143.7 1074.13   9
   7  -2  11-36.8346 65.5139   9
  -7   1  11 1447.84 281.044  19
  -7   1  10 20583.0 1259.42  19
  -7   1   9 2351.48 476.639  19
  -7   1   8 3428.97 588.568  19
  -7   1   7 1099.55 346.699  19
  -7   1   6 14570.2 1229.82  19
   7  -1  -5 13827.3 1075.06  15
  -7   1   5 13503.2 1149.21  19
   7  -1  -4 20414.1 1310.81  15
  -7   1   4 21771.0 1431.52  19
  -7   1   3 1097.23 276.580   1
   7  -1  -3 1999.18 390.551  26
   7  -1  -2 116635. 3400.47  26
  -7   1   2 98624.6 3043.69   1
   7  -1  -1 12758.0 995.007  26
  -7   1   1 12969.6 889.591   1
  -7   1   0 280.438 157.979  32
   7  -1   0 119.008 133.079  26
  -7   1  -1 13200.3 974.661  32
   7  -1   1 16305.6 1122.29  26
  -7   1  -2 22344.4 1327.51  32
   7  -1   2 22767.3 1326.56  26
   7  -1   3-77.8630 127.349   7
   7  -1   3 554.669 224.222   4
   7  -1   4 9865.40 950.760   4
   7  -1   4 11126.4 957.677   7
   7  -1   5 9709.37 924.195   7
   7  -1   5 10053.2 970.145   4
   7  -1   6 2035.21 430.617   7
   7  -1   6 1947.89 422.141  20
   7  -1   7 9398.79 920.736  20
   7  -1   8 4122.29 587.209  20
   7  -1   9 4110.06 556.111  20
   7  -1  10 4041.03 495.253   9
  -7   0  11 24992.9 1101.56  19
  -7   0  10 2962.32 449.076  19
  -7   0   9-73.5599 134.649  19
  -7   0   9 305.877 170.485  18
  -7   0   8 28001.2 1698.00  19
  -7   0   8 28438.6 1583.13  18
  -7   0   7 9551.64 996.883  19
  -7   0   7 9722.17 919.810  18
  -7   0   6 539.181 253.229  19
  -7   0   5 51007.6 2364.55  19
  -7   0   4 71535.1 2812.10  19
  -7   0   3 61436.2 2290.28   1
   7   0  -3 58047.1 2310.22  26
  -7   0   3 57658.2 2424.20  19
   7   0  -2 36846.3 1803.46  26
  -7   0   2 32955.3 1587.33   1
  -7   0   1 37.3177 129.863   1
   7   0  -1 206.185 139.646  26
  -7   0   0 408.521 202.638  32
   7   0   0 165.086 136.659  26
  -7   0  -1 1179.48 292.010  32
   7   0   1 1983.77 405.444  26
  -7   0  -2 1682.38 349.606  32
   7   0   2 1687.90 373.066  26
   7   0   3 24773.0 1509.80   4
   7   0   3 23614.7 1392.47   7
   7   0   4 649.114 253.021   7
   7   0   4 603.354 266.959   4
   7   0   5 15738.8 1172.61   7
   7   0   5 14469.1 1139.39  20
   7   0   5 13971.2 1169.31   4
   7   0   6 11058.9 994.821  20
  -7   0  -6 10085.5 920.775   5
   7   0   7 210.353 196.760  20
  -7   0  -7-82.3199 133.604   5
   7   0   8 3950.35 576.407  20
  -7   0  -8 5003.41 593.785   5
   7   0   9 10506.1 872.406  20
   7   0  10-130.690 120.939   9
  -7  -1  11 2925.92 361.275  10
  -7  -1  10 2200.24 373.953  18
  -7  -1   9 586.888 218.210  19
  -7  -1   9 832.456 270.123  18
  -7  -1   8 7624.37 848.309  19
  -7  -1   8 7487.35 813.655  18
  -7  -1   7 1749.46 434.748  19
  -7  -1   7 1621.91 394.327  18
  -7  -1   6 891.636 323.606  19
  -7  -1   6 821.328 286.664  18
  -7  -1   5 48621.3 2361.06  19
  -7  -1   5 56500.6 2374.68  18
  -7  -1   4 2755.59 490.025  10
  -7  -1   4 1995.37 454.511  19
  -7  -1   3 28429.8 1672.19  19
  -7  -1   2 1326.95 369.224  19
   7   1  -1 3930.95 543.333  26
  -7  -1   1 3600.19 494.362   1
  -7  -1   0 88425.8 3013.64  32
   7   1   0 87522.6 2985.29  26
  -7  -1  -1 50265.5 2146.79  32
   7   1   1 57557.8 2273.93  26
   7   1   2 48691.0 2211.31   4
   7   1   3 58065.4 2484.10   4
   7   1   4 8253.92 884.071   4
   7   1   5 128178. 3857.46  20
  -7  -1  -5 117867. 3775.38   5
   7   1   5 127695. 4025.33   4
   7   1   6 22863.4 1449.73  20
  -7  -1  -6 22111.4 1428.11   5
   7   1   7 95.5391 181.192  20
  -7  -1  -7-295.103 191.747   5
   7   1   8 21418.2 1296.31  20
  -7  -1  -8 19916.6 1241.08   5
  -7  -1  -9 488.828 185.637   5
   7   1   9 256.507 178.859   9
   7   1  10-9.62767 97.8352   9
  -7  -2  10 36044.5 1564.53  10
  -7  -2   9 88.2266 154.629  18
  -7  -2   8 44.7173 137.721  18
  -7  -2   7 30888.0 1774.08  19
  -7  -2   7 33966.3 1826.51  18
  -7  -2   6 1081.46 327.632  19
  -7  -2   6 1089.63 322.036  18
  -7  -2   5 45834.3 2186.62  10
  -7  -2   5 44916.5 2246.54  19
  -7  -2   4 442.165 228.301  10
  -7  -2   4 178.384 222.644  19
  -7  -2   3 6497.70 751.967  10
   7   2  -2 16317.6 1254.91   4
  -7  -2   2 17925.5 1222.63  10
   7   2  -1 234.855 167.424   4
  -7  -2   1-0.43334 68.1954  10
   7   2   0 12409.6 1084.36   4
  -7  -2   0 12271.8 966.419  10
   7   2   1 33456.4 1825.67   4
   7   2   2 413.700 202.658   4
  -7  -2  -2 634.565 235.763  17
   7   2   3 821.216 324.224   4
  -7  -2  -3 579.699 257.130  17
   7   2   4 8304.92 906.001   4
  -7  -2  -5 30747.0 1753.64   5
  -7  -2  -6 29055.3 1676.06   5
  -7  -2  -7 18194.7 1255.28   5
   7   2   8 5618.30 615.742   3
  -7  -2  -8 3486.24 511.247   5
  -7  -2  -9 5672.63 574.047   5
  -7  -3  10 2526.23 369.683  10
  -7  -3   9 685.443 250.105  10
  -7  -3   8 50.9437 129.950  10
  -7  -3   7 10886.9 1020.51  10
  -7  -3   6 4405.71 663.976  10
  -7  -3   5 26427.2 1654.39  10
  -7  -3   4 1625.49 411.374  10
   7   3  -3 5810.56 762.583   4
  -7  -3   3 5518.05 718.673  10
   7   3  -2 5683.75 751.239   4
  -7  -3   2 5361.81 699.364  10
   7   3  -1 600.817 272.765   4
  -7  -3   1 512.267 228.232  10
   7   3   0 6494.53 782.355   4
  -7  -3   0 6363.92 733.604  10
  -7  -3  -1 113960. 3513.76  10
  -7  -3  -1 113853. 3578.50  17
   7   3   2-10.1356 116.072   4
  -7  -3  -2 215.656 173.836  17
   7   3   3 1203.32 351.687   4
  -7  -3  -3 1588.95 385.333  17
  -7  -3  -4 29767.0 1654.89  17
   7   3   4 28490.6 1705.24   4
  -7  -3  -5 7648.38 871.181   5
  -7  -3  -6 14509.6 1169.64   5
  -7  -3  -7 7067.99 782.559   5
   7   3   8 8310.84 741.733   3
  -7  -3  -8 8304.80 763.235   5
  -7  -3  -9 27691.7 1269.21   5
   7   3   9 28667.8 1213.64   3
  -7  -4   9 7701.35 688.949  10
  -7  -4   8 14521.2 1074.27  10
  -7  -4   7 4747.46 650.003  10
  -7  -4   6 45020.0 2177.86  10
  -7  -4   5 1578.77 410.255  10
  -7  -4   4 1906.91 464.523  10
  -7  -4   3 32698.4 1854.12  10
  -7  -4   2 2095.03 456.711  10
  -7  -4   1 4546.44 662.989  10
  -7  -4   0 3360.77 566.459  10
  -7  -4   0 3540.56 584.953  17
  -7  -4  -1 2939.98 546.736  17
  -7  -4  -2 25629.9 1588.36  17
  -7  -4  -3 946.012 320.360  17
  -7  -4  -4 282.736 248.606   5
  -7  -4  -5 346.661 233.792   5
  -7  -4  -6 4835.03 661.940   5
  -7  -4  -7 1707.33 363.525   5
   7   4   8 480.504 190.303   3
  -7  -4  -8 242.737 177.583   5
  -7  -5   9 1601.95 276.663  10
  -7  -5   8 533.744 190.113  10
  -7  -5   7 10384.2 908.448  10
  -7  -5   6 11047.0 1000.95  10
  -7  -5   5-13.1711 170.637  10
  -7  -5   4 10771.7 1034.52  10
  -7  -5   3 6740.65 827.042  10
  -7  -5   2 1062.07 342.331  10
  -7  -5   2 1008.31 331.250  17
  -7  -5   1 216.318 150.872  10
  -7  -5   1 535.306 279.603  17
  -7  -5   0 8951.89 927.426  10
  -7  -5   0 9150.11 973.195  17
  -7  -5  -1 1550.66 419.437  17
  -7  -5  -2 19294.8 1418.13   5
  -7  -5  -2 19088.2 1390.53  17
  -7  -5  -3 18257.1 1366.04   5
  -7  -5  -3 18810.2 1358.85  17
  -7  -5  -4 13337.9 973.133  11
  -7  -5  -4 15326.3 1215.90   5
  -7  -5  -5 12808.0 1075.94   5
  -7  -5  -6 13.1499 115.357   5
  -7  -5  -7 956.182 261.363   5
   7   5   8 13528.0 792.657   3
  -7  -5  -8 12904.6 795.464   5
  -7  -6   8 11571.2 733.924  10
  -7  -6   7 22082.1 1201.79  10
  -7  -6   6 4675.31 595.048  10
  -7  -6   6 4804.71 557.571  17
  -7  -6   5 2029.78 432.815  10
  -7  -6   5 1992.36 407.317  17
  -7  -6   4 3902.65 604.864  10
  -7  -6   4 4391.29 630.039  17
  -7  -6   3 2562.83 491.058  10
  -7  -6   3 3063.54 543.060  17
  -7  -6   2 8106.36 886.461  10
  -7  -6   2 6889.14 820.824  17
  -7  -6   1 10456.5 1005.76  10
  -7  -6   1 11645.8 1071.83  17
  -7  -6   0 1444.82 387.404  17
  -7  -6  -1 20879.4 1450.69  17
  -7  -6  -2 9008.87 890.825   5
  -7  -6  -2 6904.12 826.631  17
  -7  -6  -3 1877.50 380.577  11
  -7  -6  -3 2062.11 415.361   5
  -7  -6  -4 628.337 219.305  11
  -7  -6  -4 511.273 212.628   5
  -7  -6  -5 6586.24 681.524   5
  -7  -6  -6 2930.54 412.421   5
   7   6   7 3761.60 415.583   3
  -7  -7   6 9663.19 727.575  10
  -7  -7   5 131.446 152.956  10
  -7  -7   5-627.708 188.923  17
  -7  -7   4 274.931 182.001  10
  -7  -7   4-96.1383 128.923  17
  -7  -7   3 5165.75 653.233  10
  -7  -7   3 5521.73 651.598  17
  -7  -7   2 46579.6 2078.58  17
  -7  -7   1 995.398 335.432  17
  -7  -7   0 391.727 218.371  17
  -7  -7  -1 22793.0 1346.89  11
  -7  -7  -2 2465.07 424.543  11
  -7  -7  -3 9975.19 795.167  11
  -7  -7  -4 5164.48 505.233  11
  -7  -8   3 47780.0 1704.51  11
  -7  -8   2 5425.88 558.307  11
  -7  -8   1 4259.97 501.408  11
  -7  -8   0 46.3009 138.218  11
  -7  -8  -1 131.379 113.923  11
  -7  -8  -2 30452.4 1312.48  11
   8 -10  -4 3913.98 410.848   7
   8 -10  -3 1574.04 273.503   7
   8 -10  -2 2109.34 329.582   7
   8 -10  -1 3338.00 416.911   7
   8 -10  -1 3807.85 449.655   8
   8 -10   0 1076.47 281.162   8
   8 -10   0 480.979 166.551   7
   8 -10   1 837.521 213.255   7
   8 -10   1 601.114 180.218   6
   8 -10   1 1119.29 314.277   8
   8 -10   2 166.849 92.6638   7
   8 -10   2 26.7602 101.377   6
   8 -10   3 649.485 166.526   6
   8  -9  -6 1440.95 238.249  15
   8  -9  -6 1475.39 252.061   7
   8  -9  -5 18587.7 959.684  15
   8  -9  -4 6916.40 592.553  15
   8  -9  -3 601.077 211.858   7
   8  -9  -2 49.7884 149.976   7
   8  -9  -1 8547.21 766.592   7
   8  -9  -1 7908.27 738.336   8
   8  -9   0 3802.60 514.745   7
   8  -9   0 3974.86 550.943   8
   8  -9   1 45020.2 1802.48   7
   8  -9   1 39862.6 1820.63   8
   8  -9   2 4000.63 491.738   7
   8  -9   2 3988.37 566.549   8
   8  -9   3 2016.70 334.504   7
   8  -9   4 926.101 207.938   7
   8  -9   4 867.424 224.349   6
   8  -9   5-59.6001 98.6303   6
   8  -9   6 1218.99 218.732   6
   8  -8  -7 591.505 186.453  15
   8  -8  -6 228.852 137.162  15
   8  -8  -6 56.6529 127.003  25
   8  -8  -5 3076.83 454.306  15
   8  -8  -5 2825.75 450.604  25
   8  -8  -4 2140.73 396.296  15
   8  -8  -4 1832.76 397.186  25
   8  -8  -3 6766.87 697.887  15
   8  -8  -3 7568.37 789.897  25
   8  -8  -2 1940.11 358.385  15
   8  -8  -2 2340.24 427.056   7
   8  -8  -1 8493.03 826.019   7
   8  -8  -1 7737.83 783.493   8
   8  -8   0 4402.07 587.224   7
   8  -8   0 4069.16 586.653   8
   8  -8   1 994.991 341.481   8
   8  -8   1 476.281 234.316   7
   8  -8   2 2072.39 472.462   8
   8  -8   2 1701.29 352.883   7
   8  -8   3 9006.60 793.824   7
   8  -8   4 1681.66 323.645   7
   8  -8   5 585.278 209.738   7
   8  -8   5 301.447 175.886   6
   8  -8   6 4518.16 488.885   6
   8  -8   7 3119.85 351.117   6
   8  -7  -8 1585.26 296.017  15
   8  -7  -7 2030.85 366.319  15
   8  -7  -7 2411.04 386.717  25
   8  -7  -6 26180.8 1399.81  15
   8  -7  -6 21977.5 1293.37  25
   8  -7  -5 28895.5 1555.02  15
   8  -7  -5 30789.4 1634.23  25
   8  -7  -4 1568.35 372.159  15
   8  -7  -4 1179.83 341.443  25
   8  -7  -3 5269.72 653.590  15
   8  -7  -3 6011.24 743.871  25
   8  -7  -2 335.432 224.775  15
   8  -7  -1 51988.3 2143.21  15
   8  -7  -1 48357.6 2147.63   7
   8  -7   0 405.313 240.187   8
   8  -7   0 75.7742 155.124   7
   8  -7   1 487.323 337.698   8
   8  -7   1 148.294 172.219   7
   8  -7   2 11852.4 988.609   7
   8  -7   2 11724.5 1062.74   8
   8  -7   3-16.8253 110.337   7
   8  -7   4 1201.32 305.762   7
   8  -7   5 241.061 149.913   7
   8  -7   6 1174.60 251.480   7
   8  -7   6 1116.96 267.521   6
   8  -7   7 1951.21 318.508   6
   8  -7   8 1431.70 221.823   6
   8  -6  -9 5088.94 460.287  15
  -8   6   9 5257.27 468.507  19
   8  -6  -8 615.169 211.258  15
  -8   6   8 863.581 233.047  19
   8  -6  -7 16666.6 1114.22  15
   8  -6  -7 16657.0 1069.56  25
  -8   6   7 18691.2 1118.94  19
   8  -6  -6 2594.35 460.197  15
   8  -6  -6 2076.21 432.482  25
   8  -6  -5 11356.1 997.025  15
   8  -6  -5 12771.7 1050.37  25
   8  -6  -4 291.399 208.744  15
   8  -6  -4 563.234 255.863  25
   8  -6  -3 2359.07 460.837  15
   8  -6  -3 2899.49 529.224  25
   8  -6  -2 24180.1 1489.78  15
   8  -6  -1 6442.56 744.655  15
   8  -6  -1 7883.06 827.692   7
   8  -6   0 69.9293 133.856  15
   8  -6   0 50.6206 136.107   7
   8  -6   1 10420.6 901.990  15
   8  -6   1 10136.8 932.910   7
   8  -6   1 9179.51 921.873   8
   8  -6   2 9103.57 889.383   7
   8  -6   2 11641.8 1058.99   8
   8  -6   3 663.437 258.364   7
   8  -6   4 14947.7 1108.02   7
   8  -6   4 15329.1 1106.90  20
   8  -6   5 2267.05 422.373   7
   8  -6   5 1930.13 387.398  20
   8  -6   6 8905.46 781.207   7
   8  -6   6 9325.25 788.357   6
   8  -6   6 9814.78 824.804  20
   8  -6   7 5369.31 546.214   7
   8  -6   7 5115.61 536.579   6
   8  -6   7 5852.68 584.178  20
   8  -6   8 11.7806 72.4255   6
   8  -6   8 0.75322 67.6573  20
   8  -5  -9 2217.61 331.439  15
  -8   5   9 2711.27 401.425  19
   8  -5  -8 5344.01 596.416  15
  -8   5   8 6561.56 679.940  19
   8  -5  -7 7329.19 757.148  15
   8  -5  -7 8355.24 762.370  25
  -8   5   7 7491.67 781.037  19
   8  -5  -6 383.070 207.792  15
   8  -5  -6 535.384 236.243  25
  -8   5   6 467.769 235.041  19
   8  -5  -5 37333.1 1914.80  15
   8  -5  -5 39103.9 1938.33  25
  -8   5   5 43531.4 1994.43  19
   8  -5  -4 17054.7 1262.69  15
   8  -5  -4 17376.1 1286.15  25
   8  -5  -3 342.291 185.294  15
   8  -5  -3 365.047 207.874  25
   8  -5  -2 18470.5 1304.49  15
   8  -5  -1 6442.38 753.628  15
   8  -5  -1 6744.16 767.741   7
   8  -5   0 24924.8 1503.05  15
   8  -5   0 28058.0 1587.82   7
   8  -5   1 10012.0 913.993  15
   8  -5   1 11647.8 1008.74   7
   8  -5   1 13120.7 1089.71   8
   8  -5   2 19113.2 1242.88  15
   8  -5   2 17674.8 1257.70   7
   8  -5   3 48365.3 2160.80   7
   8  -5   4 1772.24 388.357   7
   8  -5   5 502.786 228.967   7
   8  -5   5 870.845 278.224  20
   8  -5   6 1422.99 336.195   7
   8  -5   6 1250.14 319.349  20
   8  -5   7 2677.44 422.294   7
   8  -5   7 2444.16 382.605   6
   8  -5   7 2496.10 425.926  20
   8  -5   8 3395.17 447.079  20
   8  -5   8 3307.73 420.004   9
   8  -5   9 712.806 152.522  13
  -8   4  10 5291.90 515.468  19
   8  -4  -9 18366.6 973.402  15
  -8   4   9 15823.3 1047.18  19
   8  -4  -8-69.5088 114.647  15
  -8   4   8-62.7498 147.467  19
   8  -4  -7 8314.71 822.738  15
  -8   4   7 8333.71 856.459  19
   8  -4  -6 19531.5 1321.23  15
  -8   4   6 18785.7 1328.96  19
   8  -4  -5 4804.86 674.661  15
   8  -4  -5 5399.05 690.595  25
  -8   4   5 5338.66 687.929  19
   8  -4  -4 16639.3 1249.14  15
  -8   4   4 16434.6 1211.89  19
   8  -4  -3 2147.71 474.058  15
  -8   4   3 2679.08 465.749  19
   8  -4  -2 242.085 172.120  15
   8  -4  -2 369.920 190.042   7
   8  -4  -1 24745.5 1500.34  15
   8  -4  -1 24796.7 1484.49   7
   8  -4   0 3452.45 557.041  15
   8  -4   0 4246.18 597.285   7
   8  -4   1 17758.5 1249.05  15
   8  -4   1 21479.6 1372.13   7
   8  -4   2 1180.21 319.484  15
   8  -4   2 1285.00 334.961   7
   8  -4   3 25419.7 1514.71   7
   8  -4   4 302.020 194.221   7
   8  -4   5 515.806 216.199   7
   8  -4   5 364.189 195.776  20
   8  -4   6 10228.6 915.009   7
   8  -4   6 10875.7 954.115  20
   8  -4   7 1797.30 369.165   7
   8  -4   7 1599.64 350.712  20
   8  -4   8 4120.32 532.101  20
   8  -4   9 2748.95 382.181  20
   8  -4   9 2363.32 349.773   9
  -8   3  10 152.335 130.382  19
  -8   3   9 23855.7 1355.04  19
   8  -3  -8 7415.13 697.499  15
  -8   3   8 8532.82 858.208  19
   8  -3  -7-17.2204 131.860  15
  -8   3   7-130.162 210.467  19
   8  -3  -6 63.2269 133.752  15
  -8   3   6 162.756 162.670  19
   8  -3  -5 519.852 237.137  15
  -8   3   5 540.600 225.256  19
   8  -3  -4 7991.18 846.541  15
  -8   3   4 6461.46 782.298  19
   8  -3  -3 41981.3 2023.82  15
  -8   3   3 41596.7 1997.33  19
   8  -3  -2 762.734 269.930  15
   8  -3  -2 604.550 243.887   4
  -8   3   2 675.953 236.780  19
   8  -3  -1 8610.51 868.767  15
   8  -3  -1 7134.56 789.880   4
   8  -3  -1 9885.52 883.957   7
  -8   3   1 8194.13 796.478  19
   8  -3   0 1346.47 354.880  15
   8  -3   0 1454.92 352.946   7
   8  -3   0 1302.17 328.157   4
   8  -3   1 10679.2 956.645  15
   8  -3   1 9347.08 913.749   4
   8  -3   1 8883.08 872.606   7
   8  -3   2 13537.0 1076.32  15
   8  -3   2 13437.6 1106.20   4
   8  -3   2 13053.5 1063.14   7
   8  -3   3 13644.3 1123.72   4
   8  -3   3 13342.4 1087.35   7
   8  -3   4 352.371 196.721   4
   8  -3   4 323.582 204.505   7
   8  -3   5 2114.62 437.686   7
   8  -3   6 2362.79 455.417   7
   8  -3   6 1361.31 355.024  20
   8  -3   7 2009.58 402.897   7
   8  -3   7 1606.39 371.678  20
   8  -3   8 957.142 285.367  20
   8  -3   9 1759.55 322.666  20
   8  -3   9 1703.40 320.731   9
   8  -3  10 7597.26 548.938   9
  -8   2  10 11012.1 811.686  19
  -8   2   9 2388.21 435.027  19
  -8   2   8 391.360 230.933  19
   8  -2  -7 12562.1 977.234  15
  -8   2   7 13408.3 1144.79  19
   8  -2  -6 7326.32 778.423  15
  -8   2   6 6623.55 808.658  19
   8  -2  -5 888.658 315.237  15
  -8   2   5 1017.30 342.559  19
   8  -2  -4 18980.0 1318.54  15
  -8   2   4 22118.4 1475.00  19
   8  -2  -3 26607.1 1580.76  15
  -8   2   3 30806.8 1713.77  19
   8  -2  -2 13961.9 1126.15  15
   8  -2  -2 14318.8 1153.88   4
  -8   2   2 15475.4 1174.17  19
   8  -2  -1 14855.8 1149.79  15
   8  -2  -1 14490.5 1157.21   4
   8  -2   0 617.911 256.155  15
   8  -2   0 1067.21 278.602   7
   8  -2   0 745.142 268.849   4
   8  -2   1 4063.13 596.061  15
   8  -2   1 3315.78 555.812   4
   8  -2   1 4276.89 588.891   7
   8  -2   2 3522.86 572.143   4
   8  -2   2 3637.24 560.525   7
   8  -2   3 3927.63 596.863   4
   8  -2   3 5085.29 663.741   7
   8  -2   4 92.9743 130.334   4
   8  -2   4 71.6665 149.082   7
   8  -2   5 11554.8 1003.96   7
   8  -2   6 13951.8 1094.80   7
   8  -2   6 12078.6 1036.05  20
   8  -2   7 84115.9 2927.92  20
   8  -2   8 94.7232 154.286  20
   8  -2   9 43.7391 107.161  20
   8  -2   9-24.6329 96.3675   9
   8  -2  10 1494.86 253.427   9
  -8   1  10 134.191 134.339  19
  -8   1   9 4645.63 600.874  19
  -8   1   8 13323.6 1103.90  19
  -8   1   7 775.735 297.886  19
  -8   1   6 6890.97 839.992  19
   8  -1  -5 36274.9 1801.34  15
  -8   1   5 31875.5 1865.37  19
   8  -1  -4 88.1826 139.733  15
  -8   1   4 61.6396 137.934  19
   8  -1  -3 44195.3 2069.24  15
  -8   1   3 42906.5 2111.98  19
   8  -1  -2 16438.2 1214.70  15
   8  -1  -2 16362.6 1251.89   4
  -8   1   2 16552.5 1235.23  19
   8  -1  -1 37.0550 161.009  15
   8  -1  -1 12.9519 142.990   4
   8  -1   0 32274.2 1733.53  15
   8  -1   0 30123.5 1732.86   4
   8  -1   1 14784.8 1143.56  15
   8  -1   1 15295.1 1208.80   4
   8  -1   2 24031.5 1554.90   4
   8  -1   2 27480.1 1539.92   7
   8  -1   3 47975.3 2237.73   4
   8  -1   3 46701.9 2108.74   7
   8  -1   4 12486.7 1105.78   4
   8  -1   4 15150.8 1158.78   7
   8  -1   5 174.194 168.123   7
   8  -1   5 378.997 253.216  20
  -8   1  -5 367.313 205.881   5
   8  -1   5 144.257 165.994   4
   8  -1   6 56858.6 2382.15  20
   8  -1   7 686.277 278.005  20
   8  -1   8 320.452 186.703  20
   8  -1   9 2004.76 348.865  20
   8  -1   9 2391.32 384.667   9
   8  -1  10 1607.36 255.005   9
  -8   0  10 242.024 105.021  10
  -8   0  10 548.548 190.095  19
  -8   0   9 21273.0 1147.41  10
  -8   0   9 20533.7 1239.99  19
  -8   0   8 8168.88 843.809  19
  -8   0   7 5972.59 770.763  19
  -8   0   6 13041.5 1168.81  19
  -8   0   5 1743.47 421.316  19
  -8   0   4 107268. 3691.34  19
   8   0  -3 75908.5 2798.64  15
  -8   0   3 80706.5 3044.90  19
   8   0  -2 8316.19 855.247  15
   8   0  -2 7976.93 888.207   4
   8   0  -1 445.267 214.548  15
   8   0  -1 520.425 297.498   4
   8   0   0 3451.92 580.229   4
   8   0   1 49093.4 2270.84   4
   8   0   2 3651.53 591.354   4
   8   0   3 193.750 161.602   7
   8   0   3-112.619 178.683   4
   8   0   4 78.8409 115.365   7
   8   0   4 86.0223 128.500   4
   8   0   5 320.731 218.926  20
  -8   0  -5 445.670 221.286   5
   8   0   5 273.322 189.680   4
   8   0   6 38718.9 1890.67  20
  -8   0  -6 38039.7 1825.16   5
   8   0   7 1278.37 323.248  20
  -8   0  -7 1052.76 285.875   5
   8   0   8 345.474 200.352  20
   8   0   9 2537.20 381.292   9
  -8  -1  10 10213.4 653.119  10
  -8  -1   9-25.6457 104.660  10
  -8  -1   9 154.146 122.960  19
  -8  -1   8 133.709 130.766  10
  -8  -1   8 40.0191 132.837  19
  -8  -1   7 5239.86 656.079  10
  -8  -1   7 5211.10 679.299  19
  -8  -1   6 31772.0 1687.24  10
  -8  -1   6 27051.7 1689.84  19
  -8  -1   5 14700.3 1127.03  10
  -8  -1   5 12089.2 1126.68  19
  -8  -1   4 68036.2 2830.08  19
   8   1  -3 267.885 241.920   4
   8   1  -2 1198.20 360.990   4
   8   1  -1 13841.1 1182.55   4
   8   1   0 10296.4 1005.18   4
   8   1   1 9140.33 956.065   4
   8   1   2 149523. 4488.17   4
   8   1   3 49314.8 2333.90   4
   8   1   4 56191.1 2504.14   4
   8   1   5 763.988 255.661  20
  -8  -1  -5 893.159 306.879   5
   8   1   6 9627.16 870.496  20
  -8  -1  -6 9271.41 877.696   5
   8   1   7 9007.50 805.504  20
  -8  -1  -7 11177.2 904.736   5
  -8  -1  -8-57.2106 108.173   5
  -8  -1  -9 401.233 152.221   5
   8   1   9 395.505 157.143   9
  -8  -2   9 29665.1 1349.25  10
  -8  -2   8 42616.8 1834.08  10
  -8  -2   7 379.105 210.196  10
  -8  -2   6 43.7524 165.352  10
  -8  -2   5 14744.2 1157.74  10
   8   2  -4 3586.92 613.055   4
  -8  -2   4 3611.53 563.629  10
   8   2  -3 5113.84 717.536   4
  -8  -2   3 4640.15 634.301  10
   8   2  -2 10610.4 1051.39   4
  -8  -2   2 13873.1 1084.21  10
   8   2  -1 1480.81 388.165   4
   8   2   0 2396.09 491.784   4
   8   2   1 28218.6 1708.15   4
  -8  -2  -1 25096.4 1494.91  17
   8   2   2 21103.5 1475.65   4
  -8  -2  -2 19633.8 1295.63  17
   8   2   3 1975.68 435.611   4
   8   2   4 9899.61 992.034   4
  -8  -2  -5 32793.0 1784.99   5
  -8  -2  -6 163.459 185.781   5
  -8  -2  -7 20690.3 1246.98   5
  -8  -2  -8 1256.56 272.898   5
  -8  -3   9 631.124 177.158  10
   8   3  -8 4062.16 468.602   4
  -8  -3   8 4476.99 541.890  10
   8   3  -7 1599.56 350.861   4
  -8  -3   7 1880.35 395.969  10
   8   3  -6 270.067 186.776   4
  -8  -3   6 72.5861 140.668  10
   8   3  -5 31235.5 1711.64   4
  -8  -3   5 29102.3 1668.13  10
   8   3  -4 1658.77 429.390   4
  -8  -3   4 1175.00 335.575  10
   8   3  -3 26976.7 1640.00   4
  -8  -3   3 24506.3 1529.94  10
   8   3  -2 3360.75 584.175   4
  -8  -3   2 3665.39 572.217  10
   8   3  -1 573.200 273.426   4
  -8  -3   1 1355.17 346.111  10
  -8  -3   0 13095.3 1064.80  10
  -8  -3   0 12634.1 1086.09  17
   8   3   1 8047.03 888.172   4
  -8  -3  -1 7431.90 825.781  17
   8   3   2 8530.98 910.419   4
  -8  -3  -2 8618.24 879.166  17
  -8  -3  -3 47381.5 2127.54  17
   8   3   3 49400.0 2278.27   4
  -8  -3  -4 4539.35 658.885   5
  -8  -3  -5 7524.78 831.121   5
  -8  -3  -6 1422.19 334.677   5
  -8  -3  -7 55.2328 129.575   5
  -8  -3  -8 177.458 134.596   5
  -8  -4   8 351.124 151.633  10
  -8  -4   7 12201.0 924.597  10
  -8  -4   6 13819.9 1064.60  10
  -8  -4   5 2545.65 483.993  10
  -8  -4   4 931.888 313.692  10
  -8  -4   3 5480.64 708.802  10
  -8  -4   2 4551.88 657.288  10
  -8  -4   1 78640.6 2948.01  10
  -8  -4   1 86344.1 3131.57  17
  -8  -4   0 542.749 232.625  17
  -8  -4  -1 2107.97 448.417  17
  -8  -4  -2 849.875 300.846  17
  -8  -4  -3 5636.14 743.534   5
  -8  -4  -3 6115.50 731.268  17
  -8  -4  -4 455.068 228.089   5
  -8  -4  -5 201.299 209.166   5
  -8  -4  -6 10391.5 865.200   5
   8   4   7 21949.9 1084.54   3
  -8  -4  -7 20564.1 1111.49   5
  -8  -5   7 6663.41 607.962  10
  -8  -5   7 6069.17 546.535  17
  -8  -5   6 15761.8 1048.62  10
  -8  -5   6 15611.8 1024.93  17
  -8  -5   5 5202.50 640.104  10
  -8  -5   4 9734.83 897.870  10
  -8  -5   4 9859.90 922.578  17
  -8  -5   3 8192.55 849.673  10
  -8  -5   3 8914.66 905.002  17
  -8  -5   2 60.9079 129.112  10
  -8  -5   2 79.1763 221.460  17
  -8  -5   1 36063.3 1912.48  17
  -8  -5   0 1088.01 356.240  17
  -8  -5  -1 16478.2 1242.63  17
  -8  -5  -2 8472.44 866.082   5
  -8  -5  -2 7731.28 831.162  17
  -8  -5  -3 7362.00 682.172  11
  -8  -5  -3 7584.60 804.202   5
  -8  -5  -4 25301.0 1440.99   5
  -8  -5  -5 1661.95 350.826   5
  -8  -5  -6 1208.34 260.258   5
  -8  -6   6 6585.94 578.959  10
  -8  -6   5 2628.88 406.893  10
  -8  -6   5 2918.83 414.988  17
  -8  -6   4 219.453 159.970  10
  -8  -6   4 368.515 185.248  17
  -8  -6   3 17407.8 1171.01  10
  -8  -6   3 18293.0 1201.38  17
  -8  -6   2 10968.3 956.187  17
  -8  -6   1 80.6954 135.089  17
  -8  -6   0 3837.06 576.855  17
  -8  -6  -1 101.619 157.189  17
  -8  -6  -2 1437.42 314.103  11
  -8  -6  -3 10971.2 761.786  11
  -8  -6  -3 11888.9 867.574   5
  -8  -6  -4 34760.5 1463.64   5
  -8  -7   3 4824.89 511.598  17
  -8  -7   2 3548.70 466.164  17
  -8  -7   1 1.42485 115.095  17
  -8  -7   0 11595.3 825.167  11
  -8  -7  -1 2346.32 349.952  11
  -8  -7  -2 1439.26 265.578  11
   9 -10  -2 9870.79 605.864   7
   9 -10  -1 218.807 125.444   7
   9 -10   0 15982.1 792.601   7
   9  -9  -4 8710.06 621.112   7
   9  -9  -3 6209.78 555.921   7
   9  -9  -2 6486.03 594.071   7
   9  -9  -1 54.6584 105.873   7
   9  -9   0 7044.37 624.839   7
   9  -9   1 684.980 210.556   7
   9  -9   2 1416.23 264.199   7
   9  -9   3 15160.1 820.720   7
   9  -9   3 13951.5 824.572   6
   9  -9   4 600.731 166.577   6
   9  -8  -6 1356.59 245.735  15
   9  -8  -6 1007.34 192.456   7
   9  -8  -5 1338.96 273.441  15
   9  -8  -5 916.047 222.397   7
   9  -8  -4 369.714 162.179  15
   9  -8  -4 299.040 157.514   7
   9  -8  -3 6131.49 600.384  15
   9  -8  -3 5528.95 591.972   7
   9  -8  -2 155.610 113.262  15
   9  -8  -2 60.3061 138.780   7
   9  -8  -1 5218.23 599.156   7
   9  -8   0 21268.6 1240.03   7
   9  -8   1 2226.15 390.575   7
   9  -8   2 225.099 135.361   7
   9  -8   3 4893.43 537.091   7
   9  -8   4 2974.69 392.203   7
   9  -8   5 5883.15 487.765   7
   9  -8   5 6186.93 530.871   6
   9  -8   6-39.2103 88.3871   6
   9  -7  -7 6898.60 561.111  15
   9  -7  -6 2217.95 350.258  15
   9  -7  -6 1914.82 298.324   7
   9  -7  -5 33463.4 1514.29  15
   9  -7  -5 28946.0 1349.24   7
   9  -7  -4 31599.5 1524.13  15
   9  -7  -4 27049.5 1395.03   7
   9  -7  -3 12636.2 961.043  15
   9  -7  -3 11528.9 917.770   7
   9  -7  -2 4340.66 563.753  15
   9  -7  -2 3532.92 518.292   7
   9  -7  -1 1014.76 281.145  15
   9  -7  -1 884.564 280.187   7
   9  -7   0 1012.37 279.575  15
   9  -7   0 754.230 265.807   7
   9  -7   1 14624.7 1073.55   7
   9  -7   2-81.2035 184.130   7
   9  -7   3-18.3288 115.400   7
   9  -7   4 24728.2 1295.14   7
   9  -7   5 14.9531 100.289   7
   9  -7   5 96.0516 99.7657   6
   9  -7   6 155.464 100.488   7
   9  -7   6 135.777 98.4979   6
   9  -6  -8 1956.50 288.154  15
   9  -6  -7 7452.31 649.135  15
   9  -6  -6 4721.27 572.401  15
   9  -6  -5 13264.0 1002.49  15
   9  -6  -5 13784.7 935.017   7
   9  -6  -4 6419.25 711.288  15
   9  -6  -4 5515.43 626.750   7
   9  -6  -3 4470.89 602.670  15
   9  -6  -3 4613.11 596.768   7
   9  -6  -2 37.4979 154.493  15
   9  -6  -2 258.802 172.959   7
   9  -6  -1 1181.50 310.196  15
   9  -6  -1 1034.15 294.078   7
   9  -6   0 502.361 213.688  15
   9  -6   0 397.352 224.616   7
   9  -6   1 34864.7 1676.23  15
   9  -6   1 32500.7 1703.16   7
   9  -6   2 109.133 143.185   7
   9  -6   3 182.515 162.892   7
   9  -6   4 1670.84 367.301   7
   9  -6   4 1773.12 349.242  20
   9  -6   5 692.040 217.368   7
   9  -6   5 755.141 234.317  20
   9  -6   6 3712.08 454.906   7
   9  -6   6 3490.90 421.387   6
   9  -6   6 4073.20 478.454  20
   9  -6   7 7850.87 542.678   6
   9  -6   7 7810.77 580.481  20
   9  -5  -8 5667.97 516.758  15
  -9   5   8 6498.94 586.110  19
   9  -5  -7 3152.23 441.928  15
  -9   5   7 2997.13 440.297  19
   9  -5  -6 392.006 217.458  15
  -9   5   6 513.206 214.700  19
   9  -5  -5 146.970 166.164  15
  -9   5   5 492.824 228.018  19
   9  -5  -4 4276.07 609.022  15
   9  -5  -4 4765.60 578.828   7
   9  -5  -3 14069.2 1114.45  15
   9  -5  -3 15067.0 1087.44   7
   9  -5  -2 2797.72 494.021  15
   9  -5  -2 3285.80 528.677   7
   9  -5  -1 6079.36 723.191  15
   9  -5  -1 5961.45 709.703   7
   9  -5   0 931.591 301.384  15
   9  -5   0 496.004 235.714   7
   9  -5   1 61.9602 122.663  15
   9  -5   1 163.125 172.230   7
   9  -5   2 20518.0 1345.05   7
   9  -5   3 2778.25 493.735   7
   9  -5   4-234.004 171.743   7
   9  -5   5 669.883 234.459   7
   9  -5   5 602.470 237.513  20
   9  -5   6 2767.27 428.831   7
   9  -5   6 2703.21 376.922   6
   9  -5   6 2913.94 442.201  20
   9  -5   7 26.4058 91.3362  20
   9  -5   8 5797.50 488.278  20
  -9   4   9 83.0011 82.2126  19
   9  -4  -8 1695.95 298.913  15
   9  -4  -8 2143.97 332.316   4
  -9   4   8 2101.35 357.209  19
   9  -4  -7 2053.57 375.508  15
   9  -4  -7 2023.93 373.510   4
  -9   4   7 2041.69 402.999  19
   9  -4  -6 4379.17 582.544  15
   9  -4  -6 4208.89 562.561   4
  -9   4   6 4353.93 595.436  19
   9  -4  -5 857.010 282.722  15
   9  -4  -5 1163.58 309.938   4
  -9   4   5 1220.22 354.238  19
   9  -4  -4 2381.95 473.362  15
   9  -4  -4 1827.70 390.178   4
  -9   4   4 2263.77 439.539  19
   9  -4  -3 23.2154 181.214  15
   9  -4  -3-315.436 185.205   4
  -9   4   3 52.7266 143.143  19
   9  -4  -2 4616.40 652.869  15
   9  -4  -2 4267.15 617.497   4
   9  -4  -2 4423.38 600.705   7
   9  -4  -1 5465.04 701.720  15
   9  -4  -1 5987.34 723.594   4
   9  -4  -1 6347.86 730.119   7
   9  -4   0 5822.50 728.642  15
   9  -4   0 7349.50 797.616   4
   9  -4   0 5839.06 708.990   7
   9  -4   1 2732.68 495.171  15
   9  -4   1 2679.94 486.501   4
   9  -4   1 2120.60 439.929   7
   9  -4   2 3700.37 566.514   4
   9  -4   2 4395.24 618.486   7
   9  -4   3 13644.8 1084.67   7
   9  -4   4 7768.25 801.889   7
   9  -4   5 12138.9 974.010   7
   9  -4   5 11912.5 984.897  20
   9  -4   6 86.4498 150.061   7
   9  -4   6 142.082 125.726  20
   9  -4   7 135.129 111.549  20
   9  -4   8 21221.6 1073.94  20
   9  -4   8 22153.5 1062.17   9
   9  -3  -9 242.390 123.125   4
  -9   3   9 13.3418 94.3537  19
  -9   3   8 2300.31 402.591  19
   9  -3  -7 36288.8 1580.99  15
  -9   3   7 29686.5 1619.88  19
   9  -3  -6 5240.00 639.691  15
  -9   3   6 5443.42 687.385  19
   9  -3  -5 729.065 267.386  15
   9  -3  -5 1281.30 359.841   4
  -9   3   5 942.465 303.384  19
   9  -3  -4 6088.74 727.252  15
   9  -3  -4 5290.91 695.926   4
  -9   3   4 5325.72 703.263  19
   9  -3  -3 7782.69 836.666  15
   9  -3  -3 9380.27 930.641   4
  -9   3   3 8767.99 879.989  19
   9  -3  -2 77758.6 2895.21  15
   9  -3  -2 74668.8 2875.82   4
   9  -3  -1 7796.27 850.027  15
   9  -3  -1 9278.92 933.222   4
   9  -3   0 2364.80 468.926  15
   9  -3   0 2950.71 502.762   7
   9  -3   0 2619.37 501.692   4
   9  -3   1 7029.87 791.220  15
   9  -3   1 8412.30 875.614   4
   9  -3   1 8761.15 865.649   7
   9  -3   2 7432.66 821.187   4
   9  -3   2 9453.20 901.538   7
   9  -3   3 1098.01 325.082   4
   9  -3   3 1177.35 335.401   7
   9  -3   4 7865.69 818.390   7
   9  -3   4 8340.28 864.992   4
   9  -3   5 1464.98 368.474   7
   9  -3   5 1755.45 389.174  20
   9  -3   6 5297.03 634.992   7
   9  -3   6 5700.81 669.899  20
   9  -3   7 9399.83 809.863  20
   9  -3   8 3102.96 421.637  20
  -9   2   9 23873.1 1209.00  19
  -9   2   8 869.384 270.337  19
  -9   2   7 452.206 236.617  19
   9  -2  -6 4611.02 579.752  15
  -9   2   6 6638.43 786.488  19
   9  -2  -5 4904.42 629.884  15
  -9   2   5 4580.02 669.487  19
   9  -2  -4 3570.87 562.500  15
   9  -2  -4 3433.72 583.299   4
  -9   2   4 4378.16 642.050  19
   9  -2  -3 49076.1 2238.55  15
   9  -2  -3 49437.0 2320.09   4
   9  -2  -2 88309.3 3113.59  15
   9  -2  -2 79802.9 3057.21   4
   9  -2  -1 111.273 174.771  15
   9  -2  -1 29.1184 164.129   4
   9  -2   0 225.232 169.420  15
   9  -2   0 22.9713 174.769   4
   9  -2   1 4187.53 631.448   4
   9  -2   1 4488.16 607.574   7
   9  -2   2 13211.6 1134.18   4
   9  -2   2 13678.3 1083.35   7
   9  -2   3 273.971 182.760   7
   9  -2   3 106.922 180.899   4
   9  -2   4 49690.1 2156.68   7
   9  -2   4 46685.1 2179.52   4
   9  -2   5 2507.43 458.627   7
   9  -2   5 1419.13 364.135  20
   9  -2   6 27174.6 1500.77  20
   9  -2   7 61.6518 155.256  20
   9  -2   8 1242.25 268.507  20
   9  -2   9 1676.85 258.934   9
  -9   1   9 3696.66 456.930  19
  -9   1   8 2206.26 399.283  19
  -9   1   7 342.366 196.300  19
  -9   1   6 19067.0 1357.98  19
   9  -1  -5 6233.88 696.186  15
  -9   1   5 6839.97 819.266  19
   9  -1  -4 5610.62 685.589  15
   9  -1  -4 5032.86 715.435   4
  -9   1   4 6030.98 776.027  19
   9  -1  -3 12846.7 1067.75  15
   9  -1  -3 14237.0 1204.75   4
   9  -1  -2 13864.9 1128.24  15
   9  -1  -2 14038.7 1190.24   4
   9  -1  -1 1204.60 341.247  15
   9  -1  -1 1212.16 351.186   4
   9  -1   0 28979.2 1731.63   4
   9  -1   1 526.221 254.918   4
   9  -1   2 79146.2 3030.85   4
   9  -1   3 3664.45 612.980   4
   9  -1   3 2918.69 487.435   7
   9  -1   4 4157.64 581.551   7
   9  -1   4 3089.17 554.735   4
   9  -1   5 35920.8 1784.57  20
  -9   1  -5 32692.0 1615.85   5
   9  -1   6 19465.1 1245.60  20
   9  -1   7 11842.0 896.349  20
   9  -1   8 12358.8 823.757  20
   9   0  -9 500.682 170.379   4
  -9   0   8 132.361 143.832  19
  -9   0   7 13470.2 1065.60  19
  -9   0   6 201.790 161.209  19
   9   0  -5 192.214 181.578   4
  -9   0   5 11.3021 172.085  19
   9   0  -4 482.869 221.638   4
   9   0  -3 862.602 284.278  15
   9   0  -3 781.586 294.948   4
   9   0  -2 30342.5 1804.46   4
   9   0  -1 33785.5 1898.84   4
   9   0   0 5525.09 743.670   4
   9   0   1 685.880 270.511   4
   9   0   2 41094.2 2113.42   4
   9   0   3 20391.4 1433.34   4
   9   0   4 6871.89 811.778   4
   9   0   5 13879.6 1064.02  20
  -9   0  -5 12975.6 1017.39   5
   9   0   6 12492.6 956.717  20
  -9   0  -6 12514.7 930.747   5
   9   0   7 5196.77 564.011  20
  -9   0  -7 5190.96 531.629   5
   9   0   8 25203.1 1111.73  20
   9   1  -9 351.882 152.232   4
   9   1  -8 1089.07 276.962   4
   9   1  -7 5879.44 664.381   4
   9   1  -6 4349.14 620.615   4
   9   1  -5 28188.7 1649.98   4
   9   1  -4 9264.18 955.335   4
   9   1  -3 5706.46 762.722   4
   9   1  -2 11885.2 1102.07   4
   9   1  -1 12570.1 1150.12   4
   9   1   0 350.021 206.443   4
  -9  -1   0 484.940 212.950  17
   9   1   1 11079.1 1062.78   4
   9   1   2 2074.59 471.602   4
   9   1   3 21933.7 1486.42   4
   9   1   4 32633.9 1798.87   4
  -9  -1  -5 4646.67 611.706   5
  -9  -1  -6 80.2133 122.820   5
  -9  -1  -7 2234.43 364.098   5
   9   2  -8 837.316 215.386   4
  -9  -2   8 668.692 178.460  10
   9   2  -7 179.775 140.831   4
  -9  -2   7 76.9971 97.3979  10
   9   2  -6 15546.2 1106.19   4
  -9  -2   6 16925.1 1077.01  10
   9   2  -5 1793.76 415.203   4
  -9  -2   5 1692.61 358.214  10
   9   2  -4 1434.36 363.600   4
   9   2  -3 684.322 277.996   4
   9   2  -2 5391.43 717.633   4
   9   2  -1 239.443 231.960   4
   9   2   0 42654.8 2129.96   4
  -9  -2   0 42015.2 1969.86  17
   9   2   1 47.1216 158.454   4
  -9  -2  -1 195.437 176.151  17
   9   2   2 1091.22 332.741   4
   9   2   3 1192.01 346.684   4
  -9  -2  -4 8785.94 876.674   5
  -9  -2  -5 398.739 232.609   5
  -9  -2  -6 16079.4 1044.17   5
  -9  -2  -7 92.9217 97.0992   5
  -9  -3   7 631.697 195.394  10
   9   3  -6 44709.6 1759.50   4
  -9  -3   6 47646.3 1844.49  10
   9   3  -5 2930.19 461.326   4
  -9  -3   5 3578.23 500.280  10
   9   3  -4 8419.75 817.204   4
  -9  -3   4 9387.65 837.438  10
   9   3  -3 10903.7 964.950   4
  -9  -3   3 11487.4 942.078  10
   9   3  -2 7144.23 786.063   4
  -9  -3   2 7490.58 765.921  10
   9   3  -1 6690.22 771.482   4
  -9  -3   1 5756.34 703.478  17
   9   3   0 21568.7 1413.62   4
  -9  -3   0 20796.7 1355.86  17
   9   3   1 9241.68 910.293   4
  -9  -3  -1 9559.21 894.065  17
  -9  -3  -2 43710.0 1938.49  17
   9   3   2 40284.3 1949.27   4
  -9  -3  -3 607.418 287.436   5
  -9  -3  -4 314.465 204.458   5
  -9  -3  -5 29791.9 1514.28   5
  -9  -3  -6 37.2667 112.618   5
  -9  -3  -7 284.069 133.168   5
  -9  -4   7 1776.33 281.083  17
  -9  -4   6 3243.26 412.802  10
  -9  -4   5 22090.8 1204.43  10
  -9  -4   4 133.456 92.1089  10
  -9  -4   4 42.7609 138.011  17
  -9  -4   3 495.433 188.978  10
  -9  -4   3 481.384 235.096  17
  -9  -4   2 10374.3 892.484  10
  -9  -4   2 9452.15 893.701  17
  -9  -4   1 196.381 202.992  17
  -9  -4   0 414.357 244.231  17
  -9  -4  -1 3419.22 515.013  17
  -9  -4  -2 8513.39 850.470   5
  -9  -4  -2 7342.32 747.095  17
  -9  -4  -3 880.332 280.163   5
  -9  -4  -4 282.067 192.505   5
  -9  -4  -5 2399.22 387.685   5
  -9  -4  -6 3032.98 371.200   5
  -9  -5   5 20219.9 1029.99  10
  -9  -5   5 19409.0 1043.12  17
  -9  -5   4 7769.15 671.916  10
  -9  -5   4 7913.58 709.558  17
  -9  -5   3 52.5508 126.267  17
  -9  -5   2 24394.4 1378.18  17
  -9  -5   1 209.701 171.078  17
  -9  -5   0 4780.32 575.012   5
  -9  -5   0 4720.81 602.225  17
  -9  -5  -1 10465.7 851.781   5
  -9  -5  -1 9147.51 817.702  17
  -9  -5  -2 654.039 218.778   5
  -9  -5  -3 24980.3 1278.10   5
  -9  -5  -4 2228.33 344.205   5
  -9  -6   3 14916.0 887.766  17
  -9  -6   2 6325.32 598.749  17
  -9  -6   1 22169.2 1175.26  17
  -9  -6   0 118.806 120.754  11
  10  -9  -2 4254.05 387.240   7
  10  -9  -1 2468.88 307.714   7
  10  -9   0 484.392 151.755   7
  10  -9   1 5569.87 452.964   7
  10  -8  -4 3152.15 342.917  15
  10  -8  -4 2993.46 326.777   7
  10  -8  -3 8104.91 578.513  15
  10  -8  -3 7505.68 580.626   7
  10  -8  -2 216.459 73.7893  15
  10  -8  -2 472.437 160.075   7
  10  -8  -1 6150.44 567.756   7
  10  -8   0 3669.28 443.771   7
  10  -8   1 5995.12 557.146   7
  10  -8   2 11575.8 749.393   7
  10  -8   3 1111.79 226.666   7
  10  -8   4 1910.27 256.487   6
  10  -7  -6-30.1923 77.0805  15
  10  -7  -5 35.1442 100.876  15
  10  -7  -4 1043.57 245.699  15
  10  -7  -4 1112.11 227.068   7
  10  -7  -3 8533.30 702.284  15
  10  -7  -3 8146.97 667.908   7
  10  -7  -2 3352.68 444.216  15
  10  -7  -2 3324.72 446.507   7
  10  -7  -1-242.619 141.040  15
  10  -7  -1-23.5364 111.227   7
  10  -7   0 8318.86 727.011   7
  10  -7   1 2467.87 400.097   7
  10  -7   2 151.953 147.215   7
  10  -7   3 13012.4 855.762   7
  10  -7   4 10843.5 722.596   7
  10  -7   5 144.510 84.9570   7
  10  -7   5 268.049 121.731   6
  10  -6  -6 197.865 112.659  15
  10  -6  -5 478.875 179.530  15
  10  -6  -4 35.2931 131.640  15
  10  -6  -4 149.922 129.440   7
  10  -6  -3 164.942 122.416  15
  10  -6  -3 140.524 130.286   7
  10  -6  -2 2021.67 398.837  15
  10  -6  -2 1888.79 352.599   7
  10  -6  -1 3985.68 529.130  15
  10  -6  -1 4221.52 545.647   7
  10  -6   0 4686.73 566.379  15
  10  -6   0 4362.60 554.389   7
  10  -6   1 37.7709 150.924   7
  10  -6   2 1087.32 290.421   7
  10  -6   3 21037.1 1185.89   7
  10  -6   3 19812.0 1139.16  20
  10  -6   4 5826.58 581.924   7
  10  -6   4 5987.05 575.205  20
  10  -6   5 376.423 164.152   7
  10  -6   5 483.076 157.885   6
  10  -6   5 414.630 129.675  20
  10  -5  -7 3432.29 379.858  15
  10  -5  -6 8295.36 675.919  15
  10  -5  -5 130.098 123.557  15
  10  -5  -4 2862.82 469.295  15
  10  -5  -3 7305.15 752.228  15
  10  -5  -2 6534.98 713.016  15
  10  -5  -2 5591.58 620.727   7
  10  -5  -1 68881.7 2522.45  15
  10  -5  -1 66768.8 2419.76   7
  10  -5   0 275.720 193.865  15
  10  -5   0 162.415 156.130   7
  10  -5   1 3035.65 480.197   7
  10  -5   2 1057.52 315.866   7
  10  -5   3 864.693 250.861   7
  10  -5   4 6458.89 651.394   7
  10  -5   4 6881.98 671.392  20
  10  -5   5 2305.04 368.417   7
  10  -5   5 2378.17 327.318   6
  10  -5   5 2530.62 389.704  20
  10  -5   6 165.579 115.145  20
  10  -4  -7 370.439 143.308  15
  10  -4  -7 63.9704 89.5363   4
  10  -4  -6 77.8895 144.511  15
  10  -4  -6-121.394 108.378   4
 -10   4   6 75.4498 124.236  19
  10  -4  -5 6767.83 677.458  15
  10  -4  -5 7174.98 690.798   4
  10  -4  -4 39.3304 147.560  15
  10  -4  -4 136.565 153.872   4
  10  -4  -3 7650.69 790.192  15
  10  -4  -3 9411.76 852.485   4
  10  -4  -2 7557.13 803.921  15
  10  -4  -2 7611.00 782.412   4
  10  -4  -1 12405.8 1021.99  15
  10  -4  -1 14186.4 1075.23   4
  10  -4  -1 11851.9 933.390   7
  10  -4   0 1374.57 346.491  15
  10  -4   0 919.043 271.363   7
  10  -4   0 913.584 286.657   4
  10  -4   1 536.376 222.621   4
  10  -4   1 620.345 221.847   7
  10  -4   2 2122.72 404.818   4
  10  -4   2 1729.45 377.577   7
  10  -4   3 8495.27 803.380   7
  10  -4   4 2700.33 430.255   7
  10  -4   4 1984.64 396.206  20
  10  -4   5 24763.7 1273.98   7
  10  -4   5 24518.0 1300.46  20
  10  -4   6 2401.68 371.233  20
  10  -4   7 33438.5 1294.07  20
  10  -3  -8 1123.29 222.519   4
  10  -3  -7-270.543 128.173  15
  10  -3  -7-76.1486 91.3742   4
 -10   3   7 1.31237 108.590  19
  10  -3  -6 606.961 224.998  15
  10  -3  -6 579.657 213.359   4
 -10   3   6 618.078 232.580  19
  10  -3  -5 17503.0 1118.51  15
  10  -3  -5 18227.8 1189.64   4
  10  -3  -4 3026.81 485.042  15
  10  -3  -4 2881.59 486.743   4
  10  -3  -3 17152.6 1203.99  15
  10  -3  -3 16895.9 1215.51   4
  10  -3  -2 2134.58 430.648  15
  10  -3  -2 2081.94 412.724   4
  10  -3  -1 2381.04 461.891  15
  10  -3  -1 2563.46 473.502   4
  10  -3   0 2922.10 516.396   4
  10  -3   1 102.170 113.953   7
  10  -3   1-14.1407 156.128   4
  10  -3   2 2236.39 446.530   4
  10  -3   2 1719.72 358.966   7
  10  -3   3 36337.6 1721.04   7
  10  -3   3 37997.4 1820.20   4
  10  -3   4 8333.45 773.286   7
  10  -3   5 5122.01 573.874   7
  10  -3   5 4730.56 583.308  20
  10  -3   6 6186.96 615.128  20
  10  -3   7 42427.3 1544.89  20
  10  -2  -8 1862.75 290.447   4
  10  -2  -7 14302.7 942.198   4
  10  -2  -6 2190.15 343.036  15
  10  -2  -6 2171.19 393.629   4
  10  -2  -5 7974.81 729.274  15
  10  -2  -5 9331.48 872.694   4
  10  -2  -4 20837.8 1281.49  15
  10  -2  -4 21028.3 1375.41   4
  10  -2  -3 39749.0 1875.71  15
  10  -2  -3 40560.9 1986.26   4
  10  -2  -2 18821.3 1280.69  15
  10  -2  -2 15637.2 1213.37   4
  10  -2  -1 2639.00 511.579   4
  10  -2   0 40969.1 2035.28   4
  10  -2   1 3914.28 586.846   4
  10  -2   2 7643.27 839.371   4
  10  -2   2 8081.31 763.315   7
  10  -2   3 10958.4 893.607   7
  10  -2   3 11588.5 999.088   4
  10  -2   4 7149.20 702.653   7
  10  -2   4 5821.00 670.184  20
  10  -2   5 5783.90 638.635  20
  10  -2   6 4367.71 520.682  20
  10  -2   7 3777.59 426.407  20
  10  -1  -8 4091.52 441.431   4
  10  -1  -7 4550.56 529.388   4
  10  -1  -6 105.503 124.222   4
  10  -1  -5-70.4941 157.139   4
  10  -1  -4 22422.4 1283.20  15
  10  -1  -4 21497.0 1418.55   4
  10  -1  -3 3372.13 574.873   4
  10  -1  -2 8126.94 875.418   4
  10  -1  -1 1005.00 342.107   4
  10  -1   0 26738.5 1634.85   4
  10  -1   1 20683.9 1426.03   4
  10  -1   2 3050.42 540.457   4
  10  -1   3 182.210 171.719   4
  10  -1   4 24755.7 1399.26  20
 -10   1  -4 29180.3 1435.70   5
  10  -1   5 38.0239 113.545  20
  10  -1   6 14603.8 923.703  20
  10  -1   7 646.471 182.742  20
  10   0  -8 31445.6 1244.04   4
  10   0  -7 3867.64 477.030   4
  10   0  -6 8025.60 758.423   4
  10   0  -5 11637.8 981.263   4
  10   0  -4 2316.20 461.906   4
  10   0  -3 1683.70 418.586   4
  10   0  -2 1131.44 340.796   4
  10   0  -1 29029.1 1694.64   4
  10   0   0 12425.7 1106.45   4
  10   0   1 2236.80 466.772   4
  10   0   2 676.921 258.291   4
  10   0   3-4.76447 154.683   4
  10   0   4 14151.0 991.352  20
 -10   0  -4 15826.8 1061.44   5
  10   0   5 3129.13 429.524  20
 -10   0  -5 3260.14 446.864   5
  10   0   6 815.210 191.849  20
 -10   0  -6 919.587 213.169   5
  10   1  -7 482.523 172.470   4
  10   1  -6 6687.54 650.072   4
  10   1  -5 26079.0 1418.86   4
  10   1  -4 17742.3 1209.55   4
  10   1  -3 18367.4 1270.84   4
  10   1  -2 2260.51 474.649   4
  10   1  -1 1761.69 430.524   4
 -10  -1   1 1793.90 362.409  17
  10   1   0 19491.6 1358.57   4
  10   1   1 2763.04 503.679   4
  10   1   2 26431.5 1551.39   4
  10   1   3 9495.32 880.256   4
 -10  -1  -4 685.356 240.568   5
 -10  -1  -5 6968.61 640.415   5
 -10  -1  -6 832.831 205.239   5
  10   2  -6 1833.52 305.699   4
  10   2  -5 3329.47 452.464   4
  10   2  -4 8503.78 781.781   4
  10   2  -3 264.647 190.468   4
  10   2  -2 1355.32 339.968   4
 -10  -2   2 1452.69 335.178  17
  10   2  -1 1785.47 388.275   4
 -10  -2   1 1908.40 376.885  17
  10   2   0 25721.3 1484.13   4
 -10  -2   0 25029.7 1345.32  17
  10   2   1 4368.28 602.468   4
  10   2   2 3888.08 549.127   4
 -10  -2  -3 8257.42 787.102   5
 -10  -2  -4 386.414 206.892   5
 -10  -2  -5 3835.44 453.448   5
 -10  -3   6 6526.68 538.573  17
 -10  -3   5 3001.77 412.919  17
  10   3  -4 20700.4 1081.74   4
 -10  -3   4 24949.4 1272.56  17
  10   3  -3 133.461 138.664   4
 -10  -3   3-93.9610 197.324  17
  10   3  -2 7301.56 689.167   4
 -10  -3   2 7774.74 734.853  17
  10   3  -1 25089.0 1336.54   4
 -10  -3   1 25033.6 1342.92  17
  10   3   0 177.782 143.032   4
 -10  -3   0 511.451 196.431  17
 -10  -3  -1 18151.1 1070.75  17
  10   3   1 16286.8 1052.41   4
 -10  -3  -2 15639.8 1077.58   5
 -10  -3  -3 2822.16 435.251   5
 -10  -3  -4 25462.4 1240.80   5
 -10  -3  -5 14791.1 822.115   5
 -10  -4   4 308.069 153.582  17
 -10  -4   3 12220.4 832.788  17
 -10  -4   2 475.978 202.667  17
 -10  -4   1 1957.75 350.792  17
 -10  -4   0 6863.90 657.370   5
 -10  -4   0 8027.81 680.619  17
 -10  -4  -1 3654.78 477.183   5
 -10  -4  -2 10404.1 776.206   5
 -10  -4  -3 7064.92 593.914   5
  11  -7  -1 453.711 138.779   7
  11  -7   0 7025.12 545.370   7
  11  -7   1 1215.87 226.295   7
  11  -7   2 791.704 193.568   7
  11  -6  -4 1332.08 233.582  15
  11  -6  -3 738.588 205.735  15
  11  -6  -2 181.451 116.669  15
  11  -6  -2-148.519 130.400   7
  11  -6  -1 6369.88 544.159   7
  11  -6   0 240.435 154.703   7
  11  -6   1 5485.24 520.750   7
  11  -6   2 3189.37 385.052   7
  11  -6   2 3375.99 401.246  20
  11  -6   3 870.631 203.108   7
  11  -6   3 595.969 159.415  20
  11  -6   4 12191.2 675.809   7
  11  -5  -5 12531.4 741.692  15
  11  -5  -4 3883.29 442.553  15
  11  -5  -3 1053.13 248.251  15
  11  -5  -2 37207.8 1580.22  15
  11  -5  -1 24837.3 1153.22   7
  11  -5   0 1039.30 234.238   7
  11  -5   1 19020.7 1039.60   7
  11  -5   2 5211.89 525.128   7
  11  -5   3 13696.1 828.230   7
  11  -5   3 11851.9 799.898  20
  11  -5   4 1910.79 289.583   7
  11  -5   4 1351.64 246.637  20
  11  -4  -5 639.345 184.546  15
  11  -4  -4 5823.03 564.299  15
  11  -4  -4 5875.63 552.431   4
  11  -4  -3 25083.2 1278.72  15
  11  -4  -3 24268.1 1223.17   4
  11  -4  -2 29375.0 1400.12   4
  11  -4  -1 9869.95 788.347   4
  11  -4   0 41.7464 115.878   4
  11  -4   1 2681.01 383.901   7
  11  -4   1 2676.42 391.804   4
  11  -4   2 1335.70 278.107   7
  11  -4   3 12411.3 811.180   7
  11  -4   3 12759.3 874.979  20
  11  -4   4 477.836 162.105   7
  11  -4   4 444.656 175.202  20
  11  -4   5 3019.81 354.748  20
  11  -3  -6 4268.42 427.073   4
  11  -3  -5 376.145 167.131   4
  11  -3  -4 5247.10 566.441   4
  11  -3  -3 2033.73 367.170   4
  11  -3  -2 19059.9 1179.56   4
  11  -3  -1 1562.63 333.393   4
  11  -3   0 6705.86 696.898   4
  11  -3   1 207.690 159.172   4
  11  -3   2-74.2600 116.634   4
  11  -3   2 199.444 122.379   7
  11  -3   3 5105.09 506.084   7
  11  -3   4 5058.31 536.760  20
  11  -3   5 2489.22 341.992  20
  11  -2  -6 1827.64 301.216   4
  11  -2  -5 5717.73 575.444   4
  11  -2  -4 7567.37 706.810   4
  11  -2  -3 35393.5 1663.06   4
  11  -2  -2 5484.30 639.244   4
  11  -2  -1 15041.9 1085.30   4
  11  -2   0-98.2922 191.530   4
  11  -2   1 2864.30 460.553   4
  11  -2   2 2097.92 384.712   4
  11  -2   3 688.903 229.495  20
  11  -2   4 2894.54 404.902  20
  11  -2   5 14570.5 826.669  20
  11  -1  -6 166.196 143.237   4
  11  -1  -5 25394.4 1255.44   4
  11  -1  -4-158.581 147.084   4
  11  -1  -3 144.227 145.253   4
  11  -1  -2 1174.34 319.226   4
  11  -1  -1 257.430 205.968   4
  11  -1   0 927.111 291.555   4
  11  -1   1 19885.2 1252.23   4
  11  -1   2 248.319 154.798   4
  11  -1   3 17036.3 1018.12  20
 -11   1  -3 21065.2 1079.18   5
  11  -1   4 677.926 190.140  20
  11   0  -6 1204.26 224.087   4
  11   0  -5 9393.66 716.407   4
  11   0  -4 49.6948 115.070   4
  11   0  -3 1476.22 330.716   4
  11   0  -2 711.623 257.428   4
  11   0  -1 2027.65 404.171   4
  11   0   0 186.754 149.186   4
  11   0   1 21980.4 1295.71   4
  11   0   2 1042.75 290.020   4
  11   0   2 1022.11 236.443  20
 -11   0  -3 754.759 227.226   5
 -11   0  -4 16696.6 877.433   5
  11   1  -5 184.311 125.011   4
  11   1  -4 6388.28 593.285   4
 -11  -1   4 6331.54 525.573  17
  11   1  -3 454.652 201.100   4
 -11  -1   3 643.450 186.587  17
  11   1  -2 1154.44 286.713   4
  11   1  -1 11095.7 875.525   4
  11   1   0 11976.2 904.417   4
  11   1   1 555.808 206.877   4
 -11  -1  -2 16938.6 1034.57   5
  11   1   2 18355.9 1074.85   4
 -11  -1  -3 62.5839 101.333   5
  11   2  -3 25.2810 99.2554   4
 -11  -2   3 29.2173 93.9284  17
  11   2  -2 4048.35 455.985   4
 -11  -2   2 4293.74 434.699  17
  11   2  -1 4228.00 484.035   4
  11   2   0 205.584 142.484   4
  11   2   1-6.89432 97.7478   4
 -11  -2  -2 14084.7 878.888   5
 -11  -2  -3 9.14936 79.2968   5
  12  -3  -2 9048.53 617.234   4
  12  -3  -1 407.705 138.603   4
  12  -3   0-265.636 125.146   4
  12  -3   2 10502.2 666.059  20
  12  -2  -3-58.2832 80.5253   4
  12  -2  -2 159.537 119.527   4
  12  -2  -1 8929.57 661.784   4
  12  -2   0 3115.96 394.589   4
  12  -2   1 1696.03 287.622   4
  12  -1  -3 24081.0 1058.12   4
  12  -1  -2 1579.33 270.935   4
  12  -1  -1 342.469 131.000   4
  12  -1   0 23440.2 1110.18   4
  12  -1   1 2645.72 349.446   4
  12   0  -1 110.717 98.0273   4
  12   0   0 5044.69 467.781   4
   0   0   0    0.00    0.00   0
;
_shelx_hkl_checksum              23670
_shelx_res_file
;
TITL hg4013
 shelx.res created by SHELXL-2016/4 at 19:46:01 on 17-Sep-2016
CELL  1.54184   9.9950  10.1492  11.2620   90.656   92.291  101.925
ZERR     2.00   0.0007   0.0005   0.0008    0.005    0.005    0.005
LATT   1
SFAC  C    H    N    O    S
UNIT  42 50 6 10 4
MERG  2
EQIV $1 1-X,1-Y,-Z
EQIV $2 +X,+Y,-1+Z
EQIV $3 1-X,2-Y,1-Z
EQIV $4 1-X,2-Y,2-Z
EQIV $5 1-X,1-Y,1-Z
EQIV $6 -X,1-Y,2-Z
HTAB N1 O1_$1
HTAB N1 O1S_$2
HTAB N2 O1
HTAB C14 O3_$3
HTAB C16 O2_$4
HTAB C19 O1_$5
HTAB C19 O1S_$6
OMIT     2  -3   2
OMIT     2   1   6
OMIT     0  -1   1
DFIX  0.88 0.02 N1 H1A N1 H1B
DFIX  0.88 0.02 N2 H2A N2 H2B
MORE -1
FMAP   2
PLAN    5
ACTA
BOND   $H
CONF
LIST   4
L.S.  13
TEMP  -100.00
WGHT    0.087900    0.110100
EXTI    0.005784
FVAR       7.79261
C1    1    0.477185    0.542479    0.179117    11.00000    0.01851    0.01981 =
         0.01661   -0.00547    0.00067    0.00242
C1S   1    0.158469    0.155137    0.974592    11.00000    0.04400    0.04111 =
         0.06112   -0.00796   -0.00241    0.00723
AFIX 137
H1S1  2    0.241592    0.221202    0.957889    11.00000   -1.50000
H1S2  2    0.126523    0.099851    0.903084    11.00000   -1.50000
H1S3  2    0.178572    0.097249    1.039111    11.00000   -1.50000
AFIX   0
C2    1    0.453673    0.576358    0.302061    11.00000    0.01585    0.01987 =
         0.01529   -0.00165    0.00214    0.00075
C2S   1    0.034721    0.345027    0.890766    11.00000    0.06255    0.04916 =
         0.04154    0.00549   -0.00653    0.01169
AFIX 137
H2S1  2   -0.027459    0.407176    0.899931    11.00000   -1.50000
H2S2  2    0.006674    0.288510    0.819296    11.00000   -1.50000
H2S3  2    0.128268    0.396611    0.883296    11.00000   -1.50000
AFIX   0
C3    1    0.546729    0.664301    0.375180    11.00000    0.01374    0.01753 =
         0.01435   -0.00152    0.00151    0.00151
C4    1    0.490473    0.687005    0.488429    11.00000    0.01290    0.01710 =
         0.01397   -0.00179    0.00105    0.00157
C5    1    0.358319    0.607095    0.497572    11.00000    0.01631    0.01555 =
         0.01634   -0.00154    0.00206    0.00045
C6    1    0.332310    0.680410    0.684759    11.00000    0.02044    0.01907 =
         0.01660    0.00115    0.00534    0.00303
C7    1    0.461948    0.767832    0.683254    11.00000    0.02163    0.01881 =
         0.01348   -0.00136    0.00192    0.00329
C8    1    0.543183    0.773620    0.585182    11.00000    0.01625    0.01767 =
         0.01526    0.00011    0.00028    0.00337
C9    1    0.674046    0.875240    0.583616    11.00000    0.01649    0.01991 =
         0.01326   -0.00573    0.00191    0.00137
C10   1    0.783600    0.872829    0.663756    11.00000    0.02405    0.02129 =
         0.01697   -0.00164   -0.00086    0.00348
AFIX  43
H10   2    0.778935    0.800126    0.716865    11.00000   -1.20000
AFIX   0
C11   1    0.899035    0.975435    0.666568    11.00000    0.01931    0.02667 =
         0.02259   -0.00293   -0.00602    0.00233
AFIX  43
H11   2    0.973988    0.971543    0.720067    11.00000   -1.20000
AFIX   0
C12   1    0.905783    1.084463    0.591233    11.00000    0.01535    0.02170 =
         0.02643   -0.00530    0.00189   -0.00143
C13   1    0.798714    1.086283    0.509183    11.00000    0.02029    0.02097 =
         0.02135    0.00044    0.00260    0.00045
AFIX  43
H13   2    0.803726    1.158816    0.455849    11.00000   -1.20000
AFIX   0
C14   1    0.684617    0.982038    0.505349    11.00000    0.01705    0.02290 =
         0.01679   -0.00176   -0.00034    0.00142
AFIX  43
H14   2    0.612227    0.983306    0.448360    11.00000   -1.20000
AFIX   0
C15   1    0.504595    0.865949    0.785705    11.00000    0.02241    0.02333 =
         0.01544   -0.00297    0.00429    0.00374
C16   1    0.519254    1.095859    0.843950    11.00000    0.05202    0.02452 =
         0.01712   -0.00766   -0.00100    0.01334
AFIX  23
H16A  2    0.492045    1.059335    0.922553    11.00000   -1.20000
H16B  2    0.466229    1.165710    0.824692    11.00000   -1.20000
AFIX   0
C17   1    0.668615    1.158090    0.849665    11.00000    0.05434    0.03454 =
         0.06317   -0.02085   -0.02258    0.01064
AFIX 137
H17A  2    0.720710    1.091136    0.876167    11.00000   -1.50000
H17B  2    0.686200    1.234740    0.905894    11.00000   -1.50000
H17C  2    0.696878    1.189202    0.770682    11.00000   -1.50000
AFIX   0
C18   1    1.018051    1.307029    0.540249    11.00000    0.01896    0.02338 =
         0.05824    0.00433    0.00130   -0.00556
AFIX 137
H18A  2    1.019823    1.288610    0.454779    11.00000   -1.50000
H18B  2    1.098354    1.376174    0.565212    11.00000   -1.50000
H18C  2    0.934616    1.339043    0.557130    11.00000   -1.50000
AFIX   0
C19   1    0.243960    0.678243    0.790300    11.00000    0.02824    0.03502 =
         0.02439   -0.00116    0.01388    0.00242
AFIX 137
H19A  2    0.151364    0.627493    0.769318    11.00000   -1.50000
H19B  2    0.240061    0.770723    0.813381    11.00000   -1.50000
H19C  2    0.282981    0.635101    0.856858    11.00000   -1.50000
AFIX   0
N1    3    0.373002    0.471793    0.112725    11.00000    0.02122    0.03401 =
         0.01864   -0.01241    0.00273   -0.00443
H1A   2    0.287308    0.443267    0.132308    11.00000   -1.20000
H1B   2    0.391829    0.444921    0.042697    11.00000   -1.20000
N2    3    0.674595    0.722570    0.344135    11.00000    0.01468    0.02792 =
         0.01658   -0.00812    0.00440   -0.00376
H2A   2    0.703825    0.690770    0.281810    11.00000   -1.20000
H2B   2    0.734479    0.777696    0.385404    11.00000   -1.20000
N3    3    0.279637    0.601462    0.591839    11.00000    0.01653    0.02057 =
         0.02079    0.00153    0.00698    0.00099
O1    4    0.592159    0.582349    0.137762    11.00000    0.02045    0.03303 =
         0.01758   -0.00836    0.00412   -0.00249
O1S   4    0.087900    0.330986    1.121533    11.00000    0.02573    0.06664 =
         0.03606   -0.01272    0.00348   -0.00242
O2    4    0.543669    0.838392    0.882809    11.00000    0.05741    0.02983 =
         0.01549   -0.00346   -0.00535    0.01529
O3    4    0.487214    0.987946    0.754309    11.00000    0.03947    0.02184 =
         0.01456   -0.00385   -0.00194    0.00762
O4    4    1.020056    1.185168    0.604501    11.00000    0.01715    0.02314 =
         0.04271    0.00153   -0.00382   -0.00502
S1    5    0.298930    0.514089    0.368931    11.00000    0.01449    0.02068 =
         0.01828   -0.00517    0.00207   -0.00379
S1S   5    0.028679    0.240913    1.017734    11.00000    0.02155    0.04228 =
         0.03718    0.00154   -0.00022   -0.00638
HKLF 4
REM  hg4013
REM R1 =  0.0490 for    3706 Fo > 4sig(Fo)  and  0.0543 for all    4247 data
REM    298 parameters refined using      4 restraints
END
WGHT      0.0877      0.1102
REM Highest difference peak  0.403,  deepest hole -0.454,  1-sigma level  0.082
Q1    1   0.7249  0.8729  0.6188  11.00000  0.05    0.40
Q2    1   0.2089  0.4819  0.3461  11.00000  0.05    0.40
Q3    1   0.3810  0.5551  0.3428  11.00000  0.05    0.40
Q4    1   0.2482  0.1936  1.0003  11.00000  0.05    0.37
Q5    1   0.5051  0.6236  0.3361  11.00000  0.05    0.34
;
_shelx_res_checksum              56466
loop_
_space_group_symop_operation_xyz
'x, y, z'
'-x, -y, -z'
loop_
_atom_site_type_symbol
_atom_site_label
_atom_site_fract_x
_atom_site_fract_y
_atom_site_fract_z
_atom_site_U_iso_or_equiv
_atom_site_adp_type
_atom_site_calc_flag
_atom_site_occupancy
C C1 0.4772(2) 0.54248(19) 0.17912(17) 0.0186(4) Uani d 1
C C1S 0.1585(3) 0.1551(3) 0.9746(3) 0.0492(7) Uani d 1
H H1S1 0.241592 0.221202 0.957889 0.074 Uiso calc 1
H H1S2 0.126523 0.099851 0.903084 0.074 Uiso calc 1
H H1S3 0.178572 0.097249 1.039111 0.074 Uiso calc 1
C C2 0.45367(19) 0.57636(18) 0.30206(17) 0.0174(4) Uani d 1
C C2S 0.0347(3) 0.3450(3) 0.8908(3) 0.0513(7) Uani d 1
H H2S1 -0.027459 0.407176 0.899931 0.077 Uiso calc 1
H H2S2 0.006674 0.288510 0.819296 0.077 Uiso calc 1
H H2S3 0.128268 0.396611 0.883296 0.077 Uiso calc 1
C C3 0.54673(19) 0.66430(18) 0.37518(16) 0.0154(4) Uani d 1
C C4 0.49047(18) 0.68700(18) 0.48843(16) 0.0149(4) Uani d 1
C C5 0.35832(19) 0.60709(18) 0.49757(17) 0.0165(4) Uani d 1
C C6 0.3323(2) 0.68041(18) 0.68476(17) 0.0187(4) Uani d 1
C C7 0.4619(2) 0.76783(18) 0.68325(16) 0.0181(4) Uani d 1
C C8 0.54318(19) 0.77362(18) 0.58518(17) 0.0164(4) Uani d 1
C C9 0.67405(19) 0.87524(18) 0.58362(16) 0.0169(4) Uani d 1
C C10 0.7836(2) 0.87283(19) 0.66376(17) 0.0210(4) Uani d 1
H H10 0.778935 0.800126 0.716865 0.025 Uiso calc 1
C C11 0.8990(2) 0.9754(2) 0.66657(18) 0.0234(4) Uani d 1
H H11 0.973988 0.971543 0.720067 0.028 Uiso calc 1
C C12 0.9058(2) 1.08446(19) 0.59123(18) 0.0219(4) Uani d 1
C C13 0.7987(2) 1.08628(19) 0.50918(18) 0.0214(4) Uani d 1
H H13 0.803726 1.158816 0.455849 0.026 Uiso calc 1
C C14 0.6846(2) 0.98204(19) 0.50535(17) 0.0194(4) Uani d 1
H H14 0.612227 0.983306 0.448360 0.023 Uiso calc 1
C C15 0.5046(2) 0.8659(2) 0.78571(17) 0.0205(4) Uani d 1
C C16 0.5193(3) 1.0959(2) 0.84395(19) 0.0306(5) Uani d 1
H H16A 0.492045 1.059334 0.922553 0.037 Uiso calc 1
H H16B 0.466229 1.165710 0.824692 0.037 Uiso calc 1
C C17 0.6686(3) 1.1581(3) 0.8497(3) 0.0513(8) Uani d 1
H H17A 0.720710 1.091136 0.876167 0.077 Uiso calc 1
H H17B 0.686200 1.234740 0.905894 0.077 Uiso calc 1
H H17C 0.696878 1.189203 0.770682 0.077 Uiso calc 1
C C18 1.0181(2) 1.3070(2) 0.5402(3) 0.0349(6) Uani d 1
H H18A 1.019823 1.288610 0.454779 0.052 Uiso calc 1
H H18B 1.098354 1.376174 0.565212 0.052 Uiso calc 1
H H18C 0.934616 1.339043 0.557130 0.052 Uiso calc 1
C C19 0.2440(2) 0.6782(2) 0.7903(2) 0.0295(5) Uani d 1
H H19A 0.151364 0.627493 0.769318 0.044 Uiso calc 1
H H19B 0.240061 0.770723 0.813381 0.044 Uiso calc 1
H H19C 0.282981 0.635101 0.856858 0.044 Uiso calc 1
N N1 0.37300(19) 0.47179(19) 0.11272(16) 0.0261(4) Uani d 1
H H1A 0.2873(19) 0.443(2) 0.132(2) 0.031 Uiso d 1
H H1B 0.392(3) 0.445(2) 0.0427(17) 0.031 Uiso d 1
N N2 0.67459(17) 0.72257(17) 0.34414(15) 0.0209(4) Uani d 1
H H2A 0.704(2) 0.691(2) 0.2818(17) 0.025 Uiso d 1
H H2B 0.734(2) 0.778(2) 0.385(2) 0.025 Uiso d 1
N N3 0.27964(16) 0.60146(16) 0.59184(15) 0.0195(4) Uani d 1
O O1 0.59216(15) 0.58235(15) 0.13776(12) 0.0248(3) Uani d 1
O O1S 0.08790(18) 0.3310(2) 1.12153(16) 0.0446(5) Uani d 1
O O2 0.54367(19) 0.83839(15) 0.88281(13) 0.0336(4) Uani d 1
O O3 0.48721(16) 0.98795(14) 0.75431(12) 0.0252(3) Uani d 1
O O4 1.02006(15) 1.18517(14) 0.60450(15) 0.0291(4) Uani d 1
S S1 0.29893(5) 0.51409(4) 0.36893(4) 0.01890(17) Uani d 1
S S1S 0.02868(6) 0.24091(6) 1.01773(6) 0.0356(2) Uani d 1
loop_
_atom_site_aniso_label
_atom_site_aniso_U_11
_atom_site_aniso_U_22
_atom_site_aniso_U_33
_atom_site_aniso_U_12
_atom_site_aniso_U_13
_atom_site_aniso_U_23
C1 0.0185(9) 0.0198(9) 0.0166(9) 0.0024(7) 0.0007(7) -0.0055(7)
C1S 0.0440(16) 0.0411(14) 0.0611(19) 0.0072(12) -0.0024(14) -0.0080(13)
C2 0.0158(9) 0.0199(9) 0.0153(9) 0.0008(7) 0.0021(7) -0.0017(7)
C2S 0.063(2) 0.0492(16) 0.0415(16) 0.0117(14) -0.0065(14) 0.0055(13)
C3 0.0137(9) 0.0175(8) 0.0143(9) 0.0015(7) 0.0015(7) -0.0015(7)
C4 0.0129(9) 0.0171(8) 0.0140(9) 0.0016(7) 0.0010(7) -0.0018(7)
C5 0.0163(9) 0.0155(8) 0.0163(9) 0.0004(7) 0.0021(7) -0.0015(7)
C6 0.0204(10) 0.0191(9) 0.0166(9) 0.0030(8) 0.0053(7) 0.0011(7)
C7 0.0216(10) 0.0188(9) 0.0135(9) 0.0033(8) 0.0019(7) -0.0014(7)
C8 0.0163(9) 0.0177(9) 0.0153(9) 0.0034(7) 0.0003(7) 0.0001(7)
C9 0.0165(9) 0.0199(9) 0.0133(9) 0.0014(7) 0.0019(7) -0.0057(7)
C10 0.0241(10) 0.0213(9) 0.0170(9) 0.0035(8) -0.0009(8) -0.0016(7)
C11 0.0193(10) 0.0267(10) 0.0226(10) 0.0023(8) -0.0060(8) -0.0029(8)
C12 0.0154(9) 0.0217(9) 0.0264(11) -0.0014(8) 0.0019(8) -0.0053(8)
C13 0.0203(10) 0.0210(9) 0.0214(10) 0.0005(8) 0.0026(8) 0.0004(8)
C14 0.0171(9) 0.0229(9) 0.0168(9) 0.0014(8) -0.0003(7) -0.0018(7)
C15 0.0224(10) 0.0233(10) 0.0154(9) 0.0037(8) 0.0043(8) -0.0030(7)
C16 0.0520(15) 0.0245(10) 0.0171(10) 0.0133(10) -0.0010(10) -0.0077(8)
C17 0.0543(18) 0.0345(13) 0.0632(19) 0.0106(13) -0.0226(15) -0.0208(13)
C18 0.0190(11) 0.0234(10) 0.0582(16) -0.0056(9) 0.0013(10) 0.0043(10)
C19 0.0282(11) 0.0350(11) 0.0244(11) 0.0024(9) 0.0139(9) -0.0012(9)
N1 0.0212(9) 0.0340(10) 0.0186(9) -0.0044(7) 0.0027(7) -0.0124(7)
N2 0.0147(8) 0.0279(9) 0.0166(8) -0.0038(7) 0.0044(6) -0.0081(7)
N3 0.0165(8) 0.0206(8) 0.0208(8) 0.0010(6) 0.0070(6) 0.0015(6)
O1 0.0205(7) 0.0330(8) 0.0176(7) -0.0025(6) 0.0041(6) -0.0084(6)
O1S 0.0257(9) 0.0666(12) 0.0361(10) -0.0024(8) 0.0035(7) -0.0127(9)
O2 0.0574(11) 0.0298(8) 0.0155(7) 0.0153(8) -0.0053(7) -0.0035(6)
O3 0.0395(9) 0.0218(7) 0.0146(7) 0.0076(6) -0.0019(6) -0.0039(5)
O4 0.0172(7) 0.0231(7) 0.0427(9) -0.0050(6) -0.0038(6) 0.0015(6)
S1 0.0145(3) 0.0207(3) 0.0183(3) -0.00379(18) 0.00207(18) -0.00517(18)
S1S 0.0216(3) 0.0423(4) 0.0372(4) -0.0064(2) -0.0002(2) 0.0015(3)
loop_
_atom_type_symbol
_atom_type_description
_atom_type_scat_dispersion_real
_atom_type_scat_dispersion_imag
_atom_type_scat_source
C C 0.0181 0.0091 'International Tables Vol C Tables 4.2.6.8 and 6.1.1.4'
H H 0.0000 0.0000 'International Tables Vol C Tables 4.2.6.8 and 6.1.1.4'
N N 0.0311 0.0180 'International Tables Vol C Tables 4.2.6.8 and 6.1.1.4'
O O 0.0492 0.0322 'International Tables Vol C Tables 4.2.6.8 and 6.1.1.4'
S S 0.3331 0.5567 'International Tables Vol C Tables 4.2.6.8 and 6.1.1.4'
loop_
_geom_angle_atom_site_label_1
_geom_angle_atom_site_label_2
_geom_angle_atom_site_label_3
_geom_angle
O1 C1 N1 121.43(18)
O1 C1 C2 119.93(17)
N1 C1 C2 118.62(18)
S1S C1S H1S1 109.5
S1S C1S H1S2 109.5
H1S1 C1S H1S2 109.5
S1S C1S H1S3 109.5
H1S1 C1S H1S3 109.5
H1S2 C1S H1S3 109.5
C3 C2 C1 124.40(17)
C3 C2 S1 113.21(14)
C1 C2 S1 122.33(14)
S1S C2S H2S1 109.5
S1S C2S H2S2 109.5
H2S1 C2S H2S2 109.5
S1S C2S H2S3 109.5
H2S1 C2S H2S3 109.5
H2S2 C2S H2S3 109.5
N2 C3 C2 123.98(17)
N2 C3 C4 124.14(17)
C2 C3 C4 111.89(16)
C8 C4 C5 117.15(17)
C8 C4 C3 131.66(17)
C5 C4 C3 111.17(16)
N3 C5 C4 126.23(18)
N3 C5 S1 120.69(15)
C4 C5 S1 113.06(14)
N3 C6 C7 122.10(17)
N3 C6 C19 116.99(18)
C7 C6 C19 120.84(18)
C8 C7 C6 121.53(18)
C8 C7 C15 120.07(17)
C6 C7 C15 118.10(17)
C7 C8 C4 116.71(17)
C7 C8 C9 119.62(17)
C4 C8 C9 123.53(17)
C14 C9 C10 118.48(18)
C14 C9 C8 119.18(17)
C10 C9 C8 122.19(17)
C11 C10 C9 120.59(18)
C11 C10 H10 119.7
C9 C10 H10 119.7
C10 C11 C12 120.30(18)
C10 C11 H11 119.9
C12 C11 H11 119.9
O4 C12 C13 123.92(18)
O4 C12 C11 116.53(18)
C13 C12 C11 119.54(18)
C14 C13 C12 119.80(18)
C14 C13 H13 120.1
C12 C13 H13 120.1
C13 C14 C9 121.21(18)
C13 C14 H14 119.4
C9 C14 H14 119.4
O2 C15 O3 124.74(18)
O2 C15 C7 125.44(18)
O3 C15 C7 109.77(16)
O3 C16 C17 111.1(2)
O3 C16 H16A 109.4
C17 C16 H16A 109.4
O3 C16 H16B 109.4
C17 C16 H16B 109.4
H16A C16 H16B 108.0
C16 C17 H17A 109.5
C16 C17 H17B 109.5
H17A C17 H17B 109.5
C16 C17 H17C 109.5
H17A C17 H17C 109.5
H17B C17 H17C 109.5
O4 C18 H18A 109.5
O4 C18 H18B 109.5
H18A C18 H18B 109.5
O4 C18 H18C 109.5
H18A C18 H18C 109.5
H18B C18 H18C 109.5
C6 C19 H19A 109.5
C6 C19 H19B 109.5
H19A C19 H19B 109.5
C6 C19 H19C 109.5
H19A C19 H19C 109.5
H19B C19 H19C 109.5
C1 N1 H1A 128.2(17)
C1 N1 H1B 116.7(18)
H1A N1 H1B 115(2)
C3 N2 H2A 116.7(17)
C3 N2 H2B 127.3(17)
H2A N2 H2B 115(2)
C6 N3 C5 116.20(16)
C15 O3 C16 117.63(15)
C12 O4 C18 116.62(16)
C5 S1 C2 90.56(9)
O1S S1S C2S 106.93(13)
O1S S1S C1S 106.65(12)
C2S S1S C1S 96.36(15)
loop_
_geom_bond_atom_site_label_1
_geom_bond_atom_site_label_2
_geom_bond_distance
C1 O1 1.247(2)
C1 N1 1.332(3)
C1 C2 1.463(3)
C1S S1S 1.784(3)
C1S H1S1 0.9800
C1S H1S2 0.9800
C1S H1S3 0.9800
C2 C3 1.385(3)
C2 S1 1.7489(19)
C2S S1S 1.783(3)
C2S H2S1 0.9800
C2S H2S2 0.9800
C2S H2S3 0.9800
C3 N2 1.354(2)
C3 C4 1.449(2)
C4 C8 1.407(2)
C4 C5 1.408(3)
C5 N3 1.341(2)
C5 S1 1.7351(19)
C6 N3 1.333(3)
C6 C7 1.412(3)
C6 C19 1.507(3)
C7 C8 1.391(3)
C7 C15 1.505(3)
C8 C9 1.490(3)
C9 C14 1.395(3)
C9 C10 1.395(3)
C10 C11 1.384(3)
C10 H10 0.9500
C11 C12 1.394(3)
C11 H11 0.9500
C12 O4 1.368(2)
C12 C13 1.389(3)
C13 C14 1.385(3)
C13 H13 0.9500
C14 H14 0.9500
C15 O2 1.202(2)
C15 O3 1.335(2)
C16 O3 1.458(2)
C16 C17 1.494(4)
C16 H16A 0.9900
C16 H16B 0.9900
C17 H17A 0.9800
C17 H17B 0.9800
C17 H17C 0.9800
C18 O4 1.443(3)
C18 H18A 0.9800
C18 H18B 0.9800
C18 H18C 0.9800
C19 H19A 0.9800
C19 H19B 0.9800
C19 H19C 0.9800
N1 H1A 0.883(17)
N1 H1B 0.872(17)
N2 H2A 0.856(16)
N2 H2B 0.849(17)
O1S S1S 1.4997(19)
loop_
_geom_hbond_atom_site_label_D
_geom_hbond_atom_site_label_H
_geom_hbond_atom_site_label_A
_geom_hbond_site_symmetry_A
_geom_hbond_distance_DH
_geom_hbond_distance_HA
_geom_hbond_distance_DA
_geom_hbond_angle_DHA
N1 H1B O1 2_665 0.872(17) 2.065(18) 2.916(2) 165(2)
N1 H1A O1S 1_554 0.883(17) 2.080(19) 2.918(3) 158(2)
N2 H2A O1 . 0.856(16) 2.10(2) 2.719(2) 129(2)
C14 H14 O3 2_676 0.95 2.50 3.381(2) 154.7
C16 H16A O2 2_677 0.99 2.48 3.254(3) 134.3
C19 H19C O1 2_666 0.98 2.75 3.474(3) 131.0
C19 H19A O1S 2_567 0.98 2.84 3.483(3) 124.2
loop_
_geom_torsion_atom_site_label_1
_geom_torsion_atom_site_label_2
_geom_torsion_atom_site_label_3
_geom_torsion_atom_site_label_4
_geom_torsion
O1 C1 C2 C3 7.7(3)
N1 C1 C2 C3 -170.64(18)
O1 C1 C2 S1 -175.41(14)
N1 C1 C2 S1 6.2(3)
C1 C2 C3 N2 -4.7(3)
S1 C2 C3 N2 178.22(15)
C1 C2 C3 C4 174.97(17)
S1 C2 C3 C4 -2.1(2)
N2 C3 C4 C8 4.5(3)
C2 C3 C4 C8 -175.14(18)
N2 C3 C4 C5 -176.73(17)
C2 C3 C4 C5 3.6(2)
C8 C4 C5 N3 -2.9(3)
C3 C4 C5 N3 178.15(17)
C8 C4 C5 S1 175.38(13)
C3 C4 C5 S1 -3.6(2)
N3 C6 C7 C8 -1.6(3)
C19 C6 C7 C8 -178.25(18)
N3 C6 C7 C15 172.07(17)
C19 C6 C7 C15 -4.6(3)
C6 C7 C8 C4 -0.8(3)
C15 C7 C8 C4 -174.30(16)
C6 C7 C8 C9 175.02(16)
C15 C7 C8 C9 1.5(3)
C5 C4 C8 C7 2.7(2)
C3 C4 C8 C7 -178.55(18)
C5 C4 C8 C9 -172.84(16)
C3 C4 C8 C9 5.9(3)
C7 C8 C9 C14 -110.7(2)
C4 C8 C9 C14 64.8(2)
C7 C8 C9 C10 64.7(2)
C4 C8 C9 C10 -119.9(2)
C14 C9 C10 C11 1.1(3)
C8 C9 C10 C11 -174.31(18)
C9 C10 C11 C12 1.7(3)
C10 C11 C12 O4 176.32(18)
C10 C11 C12 C13 -3.2(3)
O4 C12 C13 C14 -177.50(18)
C11 C12 C13 C14 1.9(3)
C12 C13 C14 C9 0.8(3)
C10 C9 C14 C13 -2.3(3)
C8 C9 C14 C13 173.22(17)
C8 C7 C15 O2 -109.9(2)
C6 C7 C15 O2 76.3(3)
C8 C7 C15 O3 72.7(2)
C6 C7 C15 O3 -101.1(2)
C7 C6 N3 C5 1.7(3)
C19 C6 N3 C5 178.43(17)
C4 C5 N3 C6 0.6(3)
S1 C5 N3 C6 -177.53(13)
O2 C15 O3 C16 0.6(3)
C7 C15 O3 C16 178.10(17)
C17 C16 O3 C15 84.1(2)
C13 C12 O4 C18 8.8(3)
C11 C12 O4 C18 -170.63(19)
N3 C5 S1 C2 -179.58(16)
C4 C5 S1 C2 2.04(14)
C3 C2 S1 C5 0.10(15)
C1 C2 S1 C5 -177.08(16)

_cod_database_fobs_code 1544191
