#------------------------------------------------------------------------------
#$Date: 2017-03-25 09:24:36 +0200 (Sat, 25 Mar 2017) $
#$Revision: 194516 $
#$URL: file:///home/coder/svn-repositories/cod/cif/1/54/56/1545652.cif $
#------------------------------------------------------------------------------
#
# This file is available in the Crystallography Open Database (COD),
# http://www.crystallography.net/. The original data for this entry
# were provided by IUCr Journals, http://journals.iucr.org/.
#
# The file may be used within the scientific community so long as
# proper attribution is given to the journal article from which the
# data were obtained.
#
data_1545652
loop_
_publ_author_name
'Mills-Robles, Heather A.'
'Desikan, Vasumathi'
'Golen, James A.'
'Manke, David R.'
_publ_section_title
;
 Poly[diaqua(\m~3~-2,3-dioxoindoline-5-sulfonato)sodium]
;
_journal_coeditor_code           WM4043
_journal_issue                   3
_journal_name_full               IUCrData
_journal_page_first              x170440
_journal_paper_doi               10.1107/S2414314617004400
_journal_volume                  2
_journal_year                    2017
_chemical_formula_iupac          '[Na (C8 H4 N O5 S) (H2 O)2]'
_chemical_formula_moiety         'C8 H8 N Na O7 S'
_chemical_formula_sum            'C8 H8 N Na O7 S'
_chemical_formula_weight         285.20
_chemical_name_systematic
;
Poly[diaqua(\m~3~-2,3-dioxoindoline-5-sulfonato)sodium]
;
_space_group_crystal_system      triclinic
_space_group_IT_number           2
_space_group_name_Hall           '-P 1'
_space_group_name_H-M_alt        'P -1'
_symmetry_space_group_name_Hall  '-P 1'
_symmetry_space_group_name_H-M   'P -1'
_atom_sites_solution_hydrogens   mixed
_audit_creation_method
;
Olex2 1.2
(compiled 2017.03.02 svn.r3394 for OlexSys, GUI svn.r5324)
;
_cell_angle_alpha                85.916(10)
_cell_angle_beta                 80.181(10)
_cell_angle_gamma                65.237(10)
_cell_formula_units_Z            2
_cell_length_a                   7.4526(17)
_cell_length_b                   7.9888(19)
_cell_length_c                   10.692(2)
_cell_measurement_reflns_used    4084
_cell_measurement_temperature    200(2)
_cell_measurement_theta_max      25.65
_cell_measurement_theta_min      3.18
_cell_volume                     569.6(2)
_computing_cell_refinement
;
SAINT (Bruker, 2014)
;
_computing_data_collection
;
APEX2 (Bruker, 2014)
;
_computing_data_reduction
;
SAINT (Bruker, 2014)
;
_computing_molecular_graphics
;
<i>OLEX2</i> (Dolomanov <i>et al.</i>,  2009)
;
_computing_publication_material
;
<i>OLEX2</i> (Dolomanov <i>et al.</i>,  2009) and publCIF (Westrip,
2010)
;
_computing_structure_refinement
;
SHELXL2014 (Sheldrick, 2015)
;
_computing_structure_solution
;
SHELXS97 (Sheldrick, 2008)
;
_diffrn_ambient_temperature      200.0
_diffrn_measured_fraction_theta_full 0.997
_diffrn_measured_fraction_theta_max 0.991
_diffrn_measurement_device_type  'Bruker D8 Venture CMOS'
_diffrn_measurement_method       '\f and \w scans'
_diffrn_radiation_type           MoK\a
_diffrn_radiation_wavelength     0.71073
_diffrn_reflns_av_R_equivalents  0.0432
_diffrn_reflns_limit_h_max       9
_diffrn_reflns_limit_h_min       -9
_diffrn_reflns_limit_k_max       9
_diffrn_reflns_limit_k_min       -9
_diffrn_reflns_limit_l_max       13
_diffrn_reflns_limit_l_min       -13
_diffrn_reflns_number            9782
_diffrn_reflns_theta_full        25.250
_diffrn_reflns_theta_max         25.697
_diffrn_reflns_theta_min         3.047
_diffrn_standards_number         0
_exptl_absorpt_coefficient_mu    0.348
_exptl_absorpt_correction_T_max  0.2594
_exptl_absorpt_correction_T_min  0.2309
_exptl_absorpt_correction_type   multi-scan
_exptl_absorpt_process_details
;
(<i>SADABS</i>; Bruker, 2014)
;
_exptl_crystal_colour            orange
_exptl_crystal_density_diffrn    1.663
_exptl_crystal_description       BLOCK
_exptl_crystal_F_000             292
_exptl_crystal_size_max          0.18
_exptl_crystal_size_mid          0.15
_exptl_crystal_size_min          0.14
_refine_diff_density_max         0.373
_refine_diff_density_min         -0.413
_refine_ls_extinction_method     none
_refine_ls_goodness_of_fit_ref   1.061
_refine_ls_hydrogen_treatment    mixed
_refine_ls_matrix_type           full
_refine_ls_number_parameters     178
_refine_ls_number_reflns         2142
_refine_ls_number_restraints     5
_refine_ls_restrained_S_all      1.060
_refine_ls_R_factor_all          0.0465
_refine_ls_R_factor_gt           0.0339
_refine_ls_shift/su_max          0.000
_refine_ls_shift/su_mean         0.000
_refine_ls_structure_factor_coef Fsqd
_refine_ls_weighting_details
'w=1/[\s^2^(Fo^2^)+(0.0340P)^2^+0.4169P] where P=(Fo^2^+2Fc^2^)/3'
_refine_ls_weighting_scheme      calc
_refine_ls_wR_factor_gt          0.0774
_refine_ls_wR_factor_ref         0.0825
_reflns_number_gt                1775
_reflns_number_total             2142
_reflns_threshold_expression     'I > 2\s(I)'
_cod_data_source_file            wm4043sup1.cif
_cod_data_source_block           I
_cod_database_code               1545652
_shelx_space_group_comment
;
The symmetry employed for this shelxl refinement is uniquely defined
by the following loop, which should always be used as a source of
symmetry information in preference to the above space-group names.
They are only intended as comments.
;
_shelx_estimated_absorpt_t_min   0.940
_shelx_estimated_absorpt_t_max   0.953
_shelx_hkl_file
;
  -1   0   0    5.40    0.90
  -1   0   0    3.50    1.10
  -1   0   0    3.50    1.00
   1   0   0    5.10    1.50
   1   0   0    2.80    0.90
  -2   0   0   60.99    3.60
  -2   0   0   61.29    3.70
  -2   0   0   61.09    3.10
   2   0   0   62.49    3.70
   2   0   0   60.09    3.60
  -3   0   0  124.29    6.40
  -3   0   0  127.39    6.30
  -3   0   0  127.09    5.50
   3   0   0  130.39    6.60
   3   0   0  123.59    6.40
  -4   0   0  400.56   13.10
  -4   0   0  434.26   15.20
  -4   0   0  396.06   14.80
   4   0   0  385.66   14.80
   4   0   0  378.76   14.70
  -5   0   0  523.15   19.30
  -5   0   0  488.65   18.70
  -5   0   0  528.15   16.50
   5   0   0  504.65   19.00
   5   0   0  491.65   18.90
  -6   0   0    2.40    3.30
  -6   0   0   -2.50    2.40
  -6   0   0   -2.30    5.00
  -6   0   0   -2.10    5.00
   6   0   0    5.80    4.90
   6   0   0    1.40    4.70
  -7   0   0   67.29    9.70
  -7   0   0   64.49    9.70
  -7   0   0   68.49    7.20
   7   0   0   67.99    9.90
   7   0   0   73.49   10.20
  -8   0   0   46.90   12.10
  -8   0   0   47.20    6.60
  -8   0   0   47.30   13.20
   8   0   0   44.10   11.50
   8   0   0   18.00    9.90
   7  -1   0    5.60    7.90
   7  -1   0    4.40    8.40
  -7   1   0   -3.20    4.50
  -7   1   0   -7.60    8.10
  -7   1   0   12.70    8.10
   6  -1   0    5.30    5.70
   6  -1   0   -7.10    5.60
  -6   1   0   16.20    6.10
  -6   1   0   10.20    3.60
  -6   1   0    6.00    6.20
   5  -1   0   12.50    4.40
   5  -1   0   15.30    5.30
  -5   1   0   18.10    3.10
  -5   1   0   14.30    5.00
  -5   1   0   22.60    5.30
   4  -1   0   66.09    6.20
   4  -1   0   61.89    6.00
  -4   1   0   58.99    4.20
  -4   1   0   58.59    6.00
  -4   1   0   53.79    5.90
   3  -1   0  543.35   18.30
   3  -1   0  550.94   18.40
  -3   1   0  505.55   18.10
  -3   1   0  576.34   16.00
  -3   1   0  566.04   18.50
   2  -1   0   39.20    3.50
   2  -1   0   39.00    3.50
  -2   1   0   41.10    3.50
  -2   1   0   36.20    3.50
  -2   1   0   45.10    2.30
   1  -1   0 6570.84  182.58
   1  -1   0 7040.80  182.68
  -1   1   0 6856.11  182.68
  -1   1   0 6882.91  182.68
  -1  -1   0 1015.10   27.30
  -1  -1   0  941.21   27.50
  -1  -1   0 1013.20   27.50
   1   1   0 1000.80   27.60
   1   1   0 1000.80   27.20
   1   1   0 1018.90   27.50
  -2  -1   0  315.77   10.10
  -2  -1   0  314.07   10.00
   2   1   0  301.47    9.90
   2   1   0  291.37    8.40
   2   1   0  313.67   10.10
  -3  -1   0   23.50    3.10
  -3  -1   0   23.10    1.20
  -3  -1   0   25.00    3.10
   3   1   0   21.60    3.10
   3   1   0   25.10    3.00
  -4  -1   0 1609.34   43.70
  -4  -1   0 1657.83   47.30
  -4  -1   0 1653.13   47.20
  -4  -1   0 1623.14   45.90
   4   1   0 1625.34   47.20
   4   1   0 1604.14   47.20
  -5  -1   0   57.69    5.80
  -5  -1   0   51.79    6.70
  -5  -1   0   57.39    5.30
  -5  -1   0   54.59    2.50
   5   1   0   56.39    6.70
   5   1   0   57.79    6.10
  -6  -1   0  333.27   15.50
  -6  -1   0  307.97   14.60
  -6  -1   0  324.87   12.80
   6   1   0  339.97   15.00
   6   1   0  301.57   15.10
  -7  -1   0  248.28   11.80
  -7  -1   0  249.18   16.00
  -7  -1   0  257.77   15.00
   7   1   0  249.68   15.70
   7   1   0  271.67   15.00
  -8  -1   0   36.50    9.70
  -8  -1   0   33.50    9.90
  -8  -1   0   40.10    5.90
   8   1   0   42.50   10.70
   8   1   0   46.30    9.60
   7  -2   0    3.40   11.20
   7  -2   0   19.40    9.60
  -7   2   0   16.20    9.80
  -7   2   0   -6.90    9.80
   6  -2   0   39.50    8.90
   6  -2   0   39.80    8.70
  -6   2   0   30.10    8.30
  -6   2   0   24.90    8.40
   5  -2   0  630.94   24.00
   5  -2   0  626.84   23.70
  -5   2   0  587.54   23.10
  -5   2   0  601.94   23.50
   4  -2   0  126.79    8.80
   4  -2   0  126.39    9.30
  -4   2   0  124.69    8.90
  -4   2   0  131.09    8.70
   3  -2   0  111.49    7.20
   3  -2   0  114.99    7.30
  -3   2   0  125.09    7.50
  -3   2   0  129.79    7.90
   2  -2   0 1785.32   51.19
   2  -2   0 1800.62   51.29
  -2   2   0 1821.72   51.39
  -2   2   0 1793.12   51.19
   1  -2   0 2371.16   67.59
   1  -2   0 2527.05   67.79
  -1   2   0 2427.46   67.69
  -1   2   0 2500.85   67.69
   0  -2   0  548.65   16.30
   0  -2   0  546.75   16.30
   0   2   0  536.45   16.20
  -1  -2   0  776.32   21.60
  -1  -2   0  753.62   21.80
  -1  -2   0  757.32   21.80
   1   2   0  754.12   21.80
   1   2   0  773.02   21.80
  -2  -2   0  624.04   18.50
  -2  -2   0  646.14   18.00
  -2  -2   0  615.74   18.40
   2   2   0  606.84   18.40
   2   2   0  612.54   18.40
  -3  -2   0  484.65   15.70
  -3  -2   0  484.95   15.70
   3   2   0  471.75   15.50
   3   2   0  494.05   15.60
  -4  -2   0    7.70    2.70
  -4  -2   0    2.50    2.40
   4   2   0    6.50    2.40
   4   2   0    7.80    2.50
  -5  -2   0  743.23   24.10
  -5  -2   0  734.23   24.20
  -5  -2   0  705.53   23.00
   5   2   0  733.43   24.20
   5   2   0  717.93   24.00
  -6  -2   0  724.63   25.30
  -6  -2   0  703.33   23.30
  -6  -2   0  687.33   24.90
   6   2   0  692.23   24.70
   6   2   0  722.63   24.90
  -7  -2   0    9.40    4.30
  -7  -2   0   10.90    6.10
   7   2   0    2.90    6.00
   7   2   0    1.30    5.90
  -8  -2   0  226.38   17.50
  -8  -2   0  213.58   12.20
  -8  -2   0  218.98   16.60
   8   2   0  193.18   14.80
   8   2   0  214.58   15.60
   6  -3   0   59.89   10.60
   6  -3   0   68.29   11.40
  -6   3   0   40.90   10.40
  -6   3   0   51.49   11.20
   5  -3   0   33.00    7.50
   5  -3   0   41.00    8.80
  -5   3   0   36.00    7.80
  -5   3   0   39.30    8.60
   4  -3   0   16.90    5.40
   4  -3   0   30.50    5.90
  -4   3   0   23.00    5.80
  -4   3   0   15.90    5.30
   3  -3   0   47.90    6.10
   3  -3   0   54.99    6.50
  -3   3   0   45.60    6.20
  -3   3   0   50.39    6.40
   2  -3   0   35.30    4.90
   2  -3   0   39.10    4.80
  -2   3   0   47.40    5.10
  -2   3   0   51.29    5.10
   1  -3   0  366.06   13.10
   1  -3   0  343.57   13.00
  -1   3   0  394.96   13.30
  -1   3   0  348.17   12.90
   0  -3   0  124.09    5.90
   0  -3   0  120.49    6.00
   0   3   0  133.99    6.00
   0   3   0  127.29    6.00
  -1  -3   0   99.79    5.00
  -1  -3   0   97.99    4.90
  -1  -3   0   92.79    4.90
   1   3   0   94.19    4.80
   1   3   0   99.89    4.90
  -2  -3   0  435.56   13.40
  -2  -3   0  404.06   13.70
  -2  -3   0  409.96   13.70
   2   3   0  440.36   13.80
   2   3   0  435.06   13.80
  -3  -3   0  557.64   17.20
  -3  -3   0  547.35   17.20
   3   3   0  522.85   17.00
   3   3   0  505.95   17.00
  -4  -3   0  465.25   16.10
  -4  -3   0  467.75   16.10
   4   3   0  458.75   15.90
   4   3   0  470.55   16.00
  -5  -3   0  207.38   10.30
  -5  -3   0  200.78    9.80
   5   3   0  209.98   10.10
   5   3   0  206.08    9.80
  -6  -3   0  576.64   20.60
  -6  -3   0  537.25   20.60
  -6  -3   0  525.35   19.40
   6   3   0  568.64   20.50
   6   3   0  530.55   20.30
  -7  -3   0  935.11   31.20
  -7  -3   0  991.20   33.20
   7   3   0  937.31   32.60
   7   3   0  973.80   32.70
  -8  -3   0    6.50    5.00
  -8  -3   0    2.90    7.90
  -8  -3   0   10.40    8.10
   8   3   0   -3.90    7.80
   8   3   0   -8.70    7.10
   5  -4   0   29.10    9.30
   5  -4   0   48.90   10.70
  -5   4   0   55.19   10.20
  -5   4   0   44.10    9.60
   4  -4   0   52.59    8.40
   4  -4   0   65.19    8.70
  -4   4   0   58.79    8.40
  -4   4   0   49.10    8.10
   3  -4   0    9.20    4.90
   3  -4   0    7.70    4.70
  -3   4   0    9.60    4.90
  -3   4   0    6.70    4.80
   2  -4   0  619.44   21.60
   2  -4   0  607.14   21.50
  -2   4   0  601.94   21.50
  -2   4   0  618.24   21.60
   1  -4   0   84.59    6.40
   1  -4   0   91.19    6.60
  -1   4   0   97.69    6.60
  -1   4   0   96.89    6.60
   0  -4   0   29.20    4.00
   0  -4   0   33.20    4.10
   0   4   0   25.40    3.50
   0   4   0   31.90    4.00
  -1  -4   0   48.00    4.50
   1   4   0   51.39    4.50
   1   4   0   47.30    4.00
  -2  -4   0    0.80    2.10
  -2  -4   0    0.20    1.80
  -2  -4   0    2.10    2.20
   2   4   0    0.80    2.00
   2   4   0   -1.70    1.60
  -3  -4   0  635.44   20.50
  -3  -4   0  659.13   19.90
  -3  -4   0  633.14   20.50
   3   4   0  644.24   20.50
   3   4   0  649.64   20.60
  -4  -4   0    8.40    2.90
  -4  -4   0    6.10    2.80
   4   4   0    4.40    2.50
   4   4   0    3.60    2.40
  -5  -4   0   87.49    6.70
  -5  -4   0   91.29    6.80
   5   4   0   79.59    6.50
   5   4   0   94.99    6.60
  -6  -4   0  396.56   16.70
  -6  -4   0  427.66   17.40
  -6  -4   0  429.96   17.40
   6   4   0  433.16   16.80
   6   4   0  433.76   17.40
  -7  -4   0   -4.20    3.80
  -7  -4   0    1.60    5.40
   7   4   0    5.20    5.40
   7   4   0   -7.60    4.50
  -8  -4   0    0.90    4.80
  -8  -4   0    0.90    7.20
  -8  -4   0    8.90    8.60
   8   4   0   -2.10    7.00
   8   4   0    2.10    6.50
   5  -5   0   58.19   11.90
   5  -5   0   43.80   11.40
  -5   5   0   62.39   12.30
  -5   5   0   36.90   11.80
   4  -5   0   17.10    8.40
   4  -5   0   26.30    7.80
  -4   5   0   25.60    8.80
  -4   5   0    2.00    8.10
   3  -5   0  273.67   15.60
   3  -5   0  285.57   16.00
  -3   5   0  274.17   15.10
  -3   5   0  306.47   15.40
   2  -5   0   25.10    5.70
   2  -5   0   25.50    5.70
  -2   5   0   22.00    5.50
  -2   5   0   28.90    6.10
   1  -5   0   85.89    7.50
   1  -5   0  114.69    8.20
  -1   5   0  101.29    7.80
   0  -5   0    1.70    3.30
   0  -5   0    2.70    3.40
   0   5   0    0.60    3.20
   0   5   0    3.80    3.40
  -1  -5   0  681.33   22.70
  -1  -5   0  671.73   22.50
   1   5   0  706.53   22.60
   1   5   0  699.93   22.50
  -2  -5   0 1227.38   36.00
  -2  -5   0 1184.18   36.40
  -2  -5   0 1251.77   36.70
   2   5   0 1188.78   36.20
   2   5   0 1263.67   36.60
  -3  -5   0   26.90    4.10
  -3  -5   0   32.80    3.90
  -3  -5   0   27.70    4.20
   3   5   0   26.10    3.80
   3   5   0   27.10    3.90
  -4  -5   0  919.41   29.00
  -4  -5   0  912.11   27.90
  -4  -5   0  881.51   28.70
   4   5   0  965.20   29.10
   4   5   0  910.51   28.70
  -5  -5   0  343.37   13.70
  -5  -5   0  286.27   13.00
   5   5   0  275.27   12.60
   5   5   0  304.97   12.90
  -6  -5   0   77.79    7.90
  -6  -5   0   96.09    8.90
   6   5   0   69.09    7.20
   6   5   0   90.09    8.70
   6   5   0   78.79    4.70
  -7  -5   0  115.29    9.50
  -7  -5   0  114.99   11.10
   7   5   0  118.59   10.10
   7   5   0   94.09   10.10
  -8  -5   0   -3.50    7.80
  -8  -5   0   -5.40    4.50
  -8  -5   0  -10.00    8.40
   8   5   0    9.30    6.80
   8   5   0  -12.30    7.60
   4  -6   0   51.39   12.30
   4  -6   0   49.80   11.50
  -4   6   0   41.90   13.20
   3  -6   0   14.40    9.00
   3  -6   0   22.70    7.90
  -3   6   0   12.40    8.80
  -3   6   0   12.30    8.20
   2  -6   0   59.79    8.80
   2  -6   0   61.69    8.20
  -2   6   0   54.79    8.20
   1  -6   0   45.10    6.80
  -1   6   0   61.99    7.90
  -1   6   0   39.60    6.60
   0  -6   0   39.70    6.20
   0  -6   0   45.90    6.30
   0   6   0   50.39    6.50
   0   6   0   58.89    7.10
  -1  -6   0  458.95   18.10
  -1  -6   0  475.45   17.80
   1   6   0  468.85   17.70
   1   6   0  487.35   18.10
  -2  -6   0   68.19    6.30
  -2  -6   0   75.49    6.50
   2   6   0   70.99    6.30
   2   6   0   67.09    6.90
  -3  -6   0  289.57   12.50
  -3  -6   0  284.67   12.70
  -3  -6   0  297.67   12.10
   3   6   0  280.87   12.40
   3   6   0  309.87   12.70
  -4  -6   0  382.46   15.30
  -4  -6   0  394.46   14.60
  -4  -6   0  386.16   15.60
   4   6   0  392.06   15.50
   4   6   0  379.96   15.20
  -5  -6   0  208.28   10.90
  -5  -6   0  205.08   11.20
   5   6   0  180.68   10.60
   5   6   0  197.38   11.00
  -6  -6   0   99.19    9.50
   6   6   0   78.59    8.00
   6   6   0   77.69    8.20
  -7  -6   0   10.70    6.80
  -7  -6   0    5.80    6.40
  -7  -6   0    4.10    5.10
   7   6   0   11.20    2.70
   7   6   0    1.50    5.30
   7   6   0   10.70    6.60
  -8  -6   0   64.99   10.90
  -8  -6   0   74.19   11.10
  -8  -6   0   69.79    9.40
   8   6   0  108.79   13.60
   8   6   0   81.59   10.20
   2  -7   0    1.60    8.00
   2  -7   0    0.20    7.60
  -2   7   0    4.70    9.00
  -2   7   0   10.30    7.80
   1  -7   0  129.19   12.00
  -1   7   0  131.59   11.90
  -1   7   0  135.49   12.60
   0  -7   0  217.98   13.10
   0   7   0  199.78   12.40
   0   7   0  236.58   13.00
  -1  -7   0   11.20    5.50
  -1  -7   0    9.70    4.10
   1   7   0   13.30    5.00
   1   7   0   12.50    4.90
  -2  -7   0   63.39    7.60
  -2  -7   0   55.39    7.60
  -2  -7   0   79.89    7.60
   2   7   0   52.99    7.20
   2   7   0   57.19    7.70
  -3  -7   0   67.29    7.00
  -3  -7   0   67.99    8.60
  -3  -7   0   68.19    8.40
   3   7   0   73.69    7.50
   3   7   0   64.59    6.90
  -4  -7   0  115.69    9.10
  -4  -7   0  115.09    9.50
  -4  -7   0  107.69    8.20
   4   7   0  124.99    9.30
   4   7   0  110.09    9.20
  -5  -7   0   62.99    8.70
  -5  -7   0   61.09    7.10
   5   7   0   64.29    8.20
   5   7   0   56.79    7.40
  -6  -7   0    6.00    7.40
  -6  -7   0    3.70    5.90
   6   7   0    3.00    6.00
   6   7   0    6.80    5.60
  -7  -7   0   52.09    9.60
  -7  -7   0   54.49    9.00
   7   7   0   61.29    8.90
   7   7   0   60.39    8.90
  -8  -7   0   81.89   12.00
  -8  -7   0   97.99   10.50
  -8  -7   0   80.79   10.40
   8   7   0   85.79   11.40
   8   7   0   72.99   10.60
   1  -8   0   13.20    8.40
   1  -8   0    4.10    8.80
  -1   8   0   13.40    8.10
  -1   8   0   15.70    9.20
   0  -8   0   -3.70    7.80
   0  -8   0    2.90    7.20
   0   8   0  -11.60    6.50
   0   8   0    7.90    7.90
  -1  -8   0    7.70    5.20
  -1  -8   0   12.50    6.50
   1   8   0   -0.90    6.70
   1   8   0    9.20    6.60
  -2  -8   0  113.69   10.60
  -2  -8   0   94.49   13.30
  -2  -8   0  114.89    9.40
   2   8   0   99.69    9.70
   2   8   0  102.79   10.00
  -3  -8   0   21.90    5.30
  -3  -8   0   24.10    8.60
  -3  -8   0   32.20    7.60
   3   8   0   20.80    6.10
   3   8   0   30.50    6.30
  -4  -8   0   29.00    6.40
  -4  -8   0   17.10    4.90
  -4  -8   0   26.80    7.70
   4   8   0   28.50    6.60
   4   8   0   31.80    6.80
  -5  -8   0  102.49    9.30
  -5  -8   0   93.99   11.10
  -5  -8   0   97.29   12.10
   5   8   0  103.19   10.50
   5   8   0  121.69   11.10
  -6  -8   0    8.50    7.20
  -6  -8   0   -7.10    6.80
   6   8   0    2.90    5.80
   6   8   0    7.10    6.80
  -7  -8   0    3.10    7.80
  -7  -8   0    5.10    8.60
   7   8   0    1.00    7.90
   7   8   0    7.00    7.50
  -1  -9   0    3.60    6.30
  -1  -9   0    1.00    9.60
  -1  -9   0    4.80    8.60
   1   9   0    9.60    8.50
   1   9   0   15.40    9.20
  -2  -9   0   52.49    7.60
  -2  -9   0   61.69   10.80
  -2  -9   0   51.09    9.70
   2   9   0   45.10    8.70
   2   9   0   32.00    9.60
  -3  -9   0   23.70    6.00
  -3  -9   0   23.90    8.60
  -3  -9   0   33.00    9.00
   3   9   0    3.90    8.10
   3   9   0   26.90    7.90
  -4  -9   0    0.20    5.20
  -4  -9   0   -4.20    7.70
   4   9   0   -4.50    7.10
   4   9   0    4.60    7.90
  -5  -9   0   26.60    8.70
  -5  -9   0   43.00   10.10
  -5  -9   0   22.00    6.00
   5   9   0   25.00    7.60
   5   9   0   41.50    8.50
  -6  -9   0   13.30    9.40
  -6  -9   0   30.20    9.30
   6   9   0   12.90    8.70
   6   9   0   12.40    7.90
   6   9  -1   17.30    8.40
   6   9  -1   31.20    9.00
  -6  -9   1   26.30    8.60
  -6  -9   1   17.70    9.40
  -6  -9   1   21.20    7.70
   5   9  -1   51.09    8.60
   5   9  -1   52.49    9.40
  -5  -9   1   51.49   10.20
  -5  -9   1   50.09    7.30
  -5  -9   1   59.09    8.70
  -5  -9   1   61.89    9.50
   4   9  -1   29.90    8.10
   4   9  -1   20.40    7.90
  -4  -9   1   14.00    7.40
  -4  -9   1   26.40    8.80
  -4  -9   1   25.20    6.30
   3   9  -1   51.39    9.40
   3   9  -1   36.00    8.20
  -3  -9   1   41.10    7.00
  -3  -9   1   46.70    9.30
  -3  -9   1   40.10    9.20
   2   9  -1    8.30    8.30
   2   9  -1  -12.80    7.10
  -2  -9   1    7.00    6.00
  -2  -9   1   -4.40    8.50
  -2  -9   1    1.10    8.20
   1   9  -1  199.48   16.20
   1   9  -1  217.08   15.60
  -1  -9   1  218.58   12.80
  -1  -9   1  185.18   13.30
  -1  -9   1  180.38   16.90
  -1  -9   1  207.08   16.40
   7   8  -1   16.50    8.50
   7   8  -1   25.20    8.10
  -7  -8   1   32.00    9.50
  -7  -8   1   25.30    8.60
  -7  -8   1   35.60    7.50
   6   8  -1   30.20    7.40
   6   8  -1   46.50    8.00
  -6  -8   1   34.10    7.20
  -6  -8   1   54.39    8.80
  -6  -8   1   33.20    7.80
   5   8  -1    7.00    5.60
   5   8  -1    1.50    6.10
  -5  -8   1    2.90    4.80
  -5  -8   1    6.20    6.50
  -5  -8   1   -8.40    5.70
   4   8  -1  371.46   16.90
   4   8  -1  384.46   16.80
  -4  -8   1  397.56   17.50
  -4  -8   1  376.86   16.50
  -4  -8   1  383.46   18.00
   3   8  -1    0.60    5.60
   3   8  -1   -0.30    5.00
  -3  -8   1    2.30    7.40
  -3  -8   1   -1.40    4.40
  -3  -8   1   -2.70    5.50
   2   8  -1   57.69    8.10
   2   8  -1   56.19    7.00
  -2  -8   1   61.39    8.40
  -2  -8   1   62.39    8.10
  -2  -8   1   55.39    8.50
   1   8  -1   14.20    6.40
   1   8  -1   21.20    7.20
  -1  -8   1   12.50    7.10
  -1  -8   1    9.10    4.90
  -1  -8   1   29.70    8.10
   0   8  -1   -4.10    6.70
   0   8  -1  -12.50    7.20
   0  -8   1   -3.10    4.80
   0  -8   1   -7.40    8.10
   0  -8   1    3.30    7.80
  -1   8  -1    6.40    9.50
  -1   8  -1    7.70    8.70
   1  -8   1    6.20    8.30
   1  -8   1    8.10    8.60
   8   7  -1   24.40    8.80
   8   7  -1   36.10    9.60
  -8  -7   1   39.90    9.00
  -8  -7   1   31.70   10.00
  -8  -7   1   42.10    9.50
   7   7  -1   26.10    7.10
   7   7  -1   38.90    8.00
  -7  -7   1   25.30    7.70
  -7  -7   1   24.00    6.00
  -7  -7   1   31.30    8.50
   6   7  -1   88.39    9.30
   6   7  -1   84.69    9.80
  -6  -7   1   99.99   10.70
  -6  -7   1   67.39    8.60
  -6  -7   1   89.89    9.50
   5   7  -1  265.77   13.00
   5   7  -1  264.87   12.80
  -5  -7   1  218.98   12.80
  -5  -7   1  263.17   12.60
   4   7  -1   66.89    7.60
   4   7  -1   81.79    8.10
  -4  -7   1   79.19    7.80
  -4  -7   1   81.59    8.50
  -4  -7   1   80.89    8.40
   3   7  -1  169.48    9.80
   3   7  -1  184.18   10.30
  -3  -7   1  181.88   10.40
  -3  -7   1  165.48   10.40
   2   7  -1    6.00    4.60
   2   7  -1    6.30    4.10
  -2  -7   1    6.90    4.20
  -2  -7   1    8.00    4.60
  -2  -7   1    9.30    5.00
   1   7  -1   11.40    5.50
   1   7  -1   20.50    5.40
  -1  -7   1   11.70    4.90
  -1  -7   1   10.90    5.10
  -1  -7   1   10.80    4.70
   0   7  -1  126.49   10.60
   0   7  -1  155.78   11.30
   0  -7   1  139.69   10.60
  -1   7  -1   16.00    6.00
  -1   7  -1    7.50    6.80
   1  -7   1   -5.80    5.90
   1  -7   1   -1.70    3.90
  -2   7  -1  115.79   14.70
  -2   7  -1   78.09   10.10
   2  -7   1   88.79   11.40
   2  -7   1   97.39   12.30
   8   6  -1   15.40    7.80
   8   6  -1   22.20    7.80
  -8  -6   1   -6.80    8.10
  -8  -6   1   12.80    6.30
  -8  -6   1    1.20    7.70
   7   6  -1    3.20    1.90
   7   6  -1    3.70    5.80
   7   6  -1   -7.20    5.10
  -7  -6   1    4.80    4.20
  -7  -6   1    5.60    6.80
  -7  -6   1    8.50    6.50
   6   6  -1  130.39    9.50
   6   6  -1  126.89    9.30
  -6  -6   1  106.49    9.70
  -6  -6   1  119.69    9.30
   5   6  -1   16.30    4.60
   5   6  -1   23.10    4.50
  -5  -6   1   15.20    4.80
  -5  -6   1   18.20    5.00
   4   6  -1   45.80    5.90
   4   6  -1   49.99    6.10
  -4  -6   1   64.09    6.60
  -4  -6   1   59.49    6.30
  -4  -6   1   66.49    6.50
   3   6  -1   58.39    6.00
   3   6  -1   68.69    6.10
  -3  -6   1   59.39    6.20
  -3  -6   1   68.19    6.40
  -3  -6   1   66.99    6.40
   2   6  -1  244.08   11.10
   2   6  -1  246.08   11.20
  -2  -6   1  241.78   11.40
  -2  -6   1  266.17   11.50
  -2  -6   1  250.57   11.60
   1   6  -1   26.90    4.50
   1   6  -1   32.30    4.90
  -1  -6   1   39.00    5.30
  -1  -6   1   30.50    5.10
  -1  -6   1   36.00    5.20
   0   6  -1  112.19    8.60
   0   6  -1   81.79    7.20
   0  -6   1   90.59    8.20
   0  -6   1   92.79    8.70
  -1   6  -1  279.77   14.30
  -1   6  -1  298.37   13.90
   1  -6   1  300.37   14.20
  -2   6  -1   -0.90    5.50
   2  -6   1   -2.20    5.90
  -3   6  -1    2.00    7.50
  -3   6  -1   -7.80    6.70
   3  -6   1   -5.60    7.90
   3  -6   1   -1.50    7.20
  -4   6  -1  143.99   17.10
   4  -6   1  138.29   18.60
   8   5  -1   38.10    8.40
   8   5  -1   43.80    9.20
  -8  -5   1   31.50    6.50
  -8  -5   1   20.50    8.50
  -8  -5   1   25.30    7.80
   7   5  -1    7.90    5.10
   7   5  -1   -3.40    5.60
  -7  -5   1    6.60    8.00
  -7  -5   1    1.80    5.20
  -7  -5   1   10.90    5.10
   6   5  -1   18.10    4.50
   6   5  -1   20.50    4.80
  -6  -5   1   23.30    5.00
  -6  -5   1   18.50    4.60
  -6  -5   1   19.90    5.20
   5   5  -1    6.40    3.50
   5   5  -1   -1.10    3.50
  -5  -5   1    2.20    3.30
  -5  -5   1   10.70    3.90
  -5  -5   1    3.40    3.90
   4   5  -1   53.19    5.30
   4   5  -1   48.40    5.20
  -4  -5   1   50.19    5.50
  -4  -5   1   43.50    5.40
  -4  -5   1   45.50    5.40
   3   5  -1  322.57   12.50
   3   5  -1  344.37   12.60
  -3  -5   1  328.77   12.70
  -3  -5   1  352.66   12.90
  -3  -5   1  326.07   12.80
   2   5  -1   12.50    2.90
   2   5  -1   12.10    2.90
  -2  -5   1   10.40    3.10
  -2  -5   1    7.30    2.90
  -2  -5   1   11.80    3.20
   1   5  -1  170.78    8.20
   1   5  -1  155.28    7.90
  -1  -5   1  161.58    8.40
  -1  -5   1  164.78    8.30
  -1  -5   1  166.08    8.50
   0   5  -1   50.99    5.50
   0   5  -1   56.79    5.80
   0  -5   1   49.20    5.80
   0  -5   1   48.50    5.90
  -1   5  -1  188.98   10.00
   1  -5   1  199.08   10.20
   1  -5   1  166.18    9.70
  -2   5  -1  178.68   11.30
  -2   5  -1  181.08   10.70
   2  -5   1  171.28    6.30
   2  -5   1  138.69   10.50
   2  -5   1  185.08   11.40
  -3   5  -1  413.16   18.10
  -3   5  -1  404.66   18.30
   3  -5   1  394.16   18.80
   3  -5   1  400.86   18.10
  -4   5  -1   -3.00    7.70
  -4   5  -1   -3.40    7.10
   4  -5   1   17.90    7.90
   4  -5   1   -7.80    7.30
  -5   5  -1   14.20   10.60
   5  -5   1   10.70    9.10
   5  -5   1   18.90   10.20
   8   4  -1   65.89   10.30
   8   4  -1   53.29    9.20
  -8  -4   1   84.99   11.10
  -8  -4   1   47.50    7.10
  -8  -4   1   81.49   11.50
   7   4  -1   93.99   10.30
   7   4  -1  101.19    9.00
  -7  -4   1  120.99   10.70
  -7  -4   1   93.99    8.80
   6   4  -1   20.20    4.50
   6   4  -1   10.80    4.70
  -6  -4   1   13.50    5.00
  -6  -4   1   13.20    4.60
  -6  -4   1    6.60    3.80
   5   4  -1   39.30    5.00
   5   4  -1   43.70    5.40
  -5  -4   1   42.10    5.40
  -5  -4   1   45.80    5.80
  -5  -4   1   42.40    5.80
   4   4  -1  434.46   15.50
   4   4  -1  450.85   15.70
  -4  -4   1  468.15   15.90
  -4  -4   1  457.65   15.80
   3   4  -1  136.69    6.60
   3   4  -1  139.39    6.50
  -3  -4   1  141.39    7.00
  -3  -4   1  137.69    6.80
  -3  -4   1  140.59    6.80
   2   4  -1   43.90    3.70
   2   4  -1   44.10    3.70
  -2  -4   1   42.80    4.00
  -2  -4   1   37.10    4.20
  -2  -4   1   35.70    3.50
   1   4  -1    0.20    1.70
   1   4  -1    3.90    2.00
  -1  -4   1    4.30    2.70
  -1  -4   1   -0.30    2.00
  -1  -4   1    1.50    2.10
   0   4  -1   35.20    4.20
   0   4  -1   38.00    3.90
   0  -4   1   37.90    4.00
   0  -4   1   38.40    4.20
  -1   4  -1   73.89    6.30
  -1   4  -1   88.79    6.00
   1  -4   1   79.69    6.00
   1  -4   1   82.99    6.40
  -2   4  -1  138.49    8.60
  -2   4  -1  133.59    8.50
   2  -4   1  137.39    4.70
   2  -4   1  146.49    8.60
   2  -4   1  138.79    9.00
  -3   4  -1   10.20    4.70
  -3   4  -1   11.40    4.90
   3  -4   1    7.10    5.30
   3  -4   1   18.30    5.00
  -4   4  -1   36.00    7.00
  -4   4  -1   37.80    6.90
   4  -4   1   30.00    8.00
   4  -4   1   30.40    7.20
  -5   4  -1    9.60    7.30
  -5   4  -1   -3.50    8.60
   5  -4   1   -0.90    8.90
   5  -4   1   12.90    7.80
   8   3  -1   56.19    9.80
   8   3  -1   59.29    9.70
  -8  -3   1   51.99    9.30
  -8  -3   1   62.99    8.10
  -8  -3   1   72.89   10.40
   7   3  -1  108.59    9.60
   7   3  -1  124.89   10.30
  -7  -3   1  122.59   10.60
  -7  -3   1  111.99    9.50
   6   3  -1    2.10    3.90
   6   3  -1   -0.40    4.00
  -6  -3   1    1.10    4.40
  -6  -3   1    3.20    3.80
  -6  -3   1   -0.60    3.60
   5   3  -1   18.00    4.00
   5   3  -1   14.80    3.40
  -5  -3   1   12.70    4.00
  -5  -3   1   13.10    3.80
  -5  -3   1   15.60    3.80
   4   3  -1  519.55   17.50
   4   3  -1  549.05   17.60
  -4  -3   1  541.75   17.80
  -4  -3   1  511.85   17.60
   3   3  -1 2044.20   54.99
   3   3  -1 1967.70   54.79
  -3  -3   1 1875.01   54.79
  -3  -3   1 1992.50   54.99
   2   3  -1 2382.46   66.69
   2   3  -1 2492.15   66.69
  -2  -3   1 2539.75   66.79
  -2  -3   1 2379.36   66.69
  -2  -3   1 2394.16   66.99
   1   3  -1  254.47    8.70
   1   3  -1  230.98    8.50
  -1  -3   1  263.37    8.80
  -1  -3   1  249.48    9.30
  -1  -3   1  251.07    8.80
   0   3  -1    4.70    1.70
   0   3  -1    4.80    1.70
   0  -3   1    3.90    1.90
   0  -3   1    2.70    1.60
  -1   3  -1  229.98    9.20
  -1   3  -1  228.78    9.20
   1  -3   1  228.88    9.20
   1  -3   1  218.58    9.30
  -2   3  -1   22.20    3.70
  -2   3  -1   26.30    4.00
   2  -3   1   27.70    4.10
   2  -3   1   23.70    3.80
  -3   3  -1  357.36   14.60
  -3   3  -1  366.36   14.90
   3  -3   1  325.77   14.20
   3  -3   1  351.26   14.50
  -4   3  -1  146.29   10.50
  -4   3  -1  151.08   10.20
   4  -3   1  153.08   10.40
   4  -3   1  129.29   10.20
  -5   3  -1   27.40    7.10
  -5   3  -1   17.00    6.80
   5  -3   1    9.60    6.60
   5  -3   1   23.70    7.80
  -6   3  -1   24.60    9.20
  -6   3  -1   30.40   10.00
   6  -3   1   33.10    9.60
   6  -3   1   12.00    9.20
   8   2  -1   67.09   10.70
   8   2  -1   64.59   10.50
  -8  -2   1   73.19    8.80
  -8  -2   1   79.29   11.00
  -8  -2   1   70.79   10.90
   7   2  -1  137.99   12.00
   7   2  -1  114.69   10.30
  -7  -2   1  126.39   10.90
  -7  -2   1  130.79    9.40
   6   2  -1  264.77   13.20
   6   2  -1  267.27   12.70
  -6  -2   1  262.27   12.70
  -6  -2   1  246.78   11.80
  -6  -2   1  269.47   13.40
   5   2  -1  115.39    7.50
   5   2  -1  132.29    7.70
  -5  -2   1  137.59    8.30
  -5  -2   1  126.19    7.70
  -5  -2   1  126.79    7.50
   4   2  -1   89.99    5.70
   4   2  -1   97.69    6.00
  -4  -2   1  103.99    6.20
  -4  -2   1  106.39    6.30
  -4  -2   1  104.59    6.00
   3   2  -1  361.76   12.10
   3   2  -1  354.46   12.10
  -3  -2   1  384.26   12.30
  -3  -2   1  341.57   12.00
  -3  -2   1  356.56   12.50
   2   2  -1  160.48    5.90
   2   2  -1  158.68    5.80
  -2  -2   1  144.89    6.20
  -2  -2   1  161.58    5.90
  -2  -2   1  160.58    6.00
   1   2  -1   73.49    3.30
   1   2  -1   79.39    3.30
  -1  -2   1   77.79    3.80
  -1  -2   1   72.69    3.30
  -1  -2   1   76.69    3.30
   0   2  -1 1317.97   35.00
   0   2  -1 1276.67   35.00
   0  -2   1 1232.88   35.00
   0  -2   1 1210.28   34.90
  -1   2  -1   62.99    3.90
  -1   2  -1   61.49    3.80
   1  -2   1   60.49    2.50
   1  -2   1   63.39    3.90
   1  -2   1   61.99    3.90
  -2   2  -1  433.16   14.60
  -2   2  -1  413.26   14.50
   2  -2   1  417.06   14.40
   2  -2   1  407.36   14.40
  -3   2  -1  654.03   22.00
  -3   2  -1  686.33   22.20
   3  -2   1  643.14   22.10
   3  -2   1  662.23   22.00
  -4   2  -1   52.69    6.30
  -4   2  -1   56.19    6.80
   4  -2   1   50.49    6.20
   4  -2   1   55.09    6.60
  -5   2  -1   32.30    6.70
  -5   2  -1   36.60    6.60
   5  -2   1   31.10    6.40
   5  -2   1   36.10    6.90
  -6   2  -1   -8.40    7.50
  -6   2  -1  -15.70    6.60
   6  -2   1    2.90    6.90
   6  -2   1    4.30    7.60
  -7   2  -1    9.40   10.90
  -7   2  -1    3.50    6.40
  -7   2  -1   15.10    9.80
   7  -2   1   27.50   10.40
   7  -2   1   16.80    9.80
   8   1  -1    3.30    9.20
   8   1  -1   -3.50    8.60
  -8  -1   1   -0.80    5.30
  -8  -1   1   14.20    8.70
  -8  -1   1    3.80    9.10
   7   1  -1  539.45   22.00
   7   1  -1  551.34   22.20
  -7  -1   1  513.65   19.20
  -7  -1   1  521.85   22.30
   6   1  -1  110.99   10.00
   6   1  -1  100.89    8.60
  -6  -1   1  114.89    9.30
  -6  -1   1  112.59    7.70
   5   1  -1  621.14   21.80
   5   1  -1  601.54   21.50
  -5  -1   1  593.74   21.30
  -5  -1   1  656.23   21.90
  -5  -1   1  650.13   20.50
   4   1  -1  504.55   17.20
   4   1  -1  493.75   17.20
  -4  -1   1  491.95   16.50
  -4  -1   1  521.75   17.50
  -4  -1   1  497.75   17.10
   3   1  -1    9.80    2.30
   3   1  -1    7.40    2.20
  -3  -1   1    2.80    2.00
  -3  -1   1   10.80    2.30
  -3  -1   1    5.60    2.30
   2   1  -1  224.78    7.70
   2   1  -1  211.58    7.60
  -2  -1   1  234.68    7.80
  -2  -1   1  224.98    8.00
  -2  -1   1  226.68    7.70
   1   1  -1  263.37    7.60
   1   1  -1  272.47    7.60
  -1  -1   1  270.87    8.30
  -1  -1   1  219.28    7.80
  -1  -1   1  260.57    7.60
  -1  -1   1  255.77    8.10
   0   1  -1  158.68    4.90
   0   1  -1  154.98    4.80
   0  -1   1  160.98    5.50
   0  -1   1  154.98    4.90
   0  -1   1  153.58    5.00
   0  -1   1  156.28    4.90
  -1   1  -1  178.78    6.40
  -1   1  -1  176.28    6.40
   1  -1   1  175.78    6.50
   1  -1   1  184.48    6.40
  -2   1  -1  969.80   28.20
  -2   1  -1  969.90   28.30
   2  -1   1  930.61   28.10
   2  -1   1  974.70   28.20
  -3   1  -1  329.47   12.60
  -3   1  -1  353.46    9.90
  -3   1  -1  356.96   13.00
   3  -1   1  336.27   12.70
   3  -1   1  320.67   12.60
  -4   1  -1  315.37   12.90
  -4   1  -1  281.37   12.80
  -4   1  -1  315.07    9.70
   4  -1   1  325.77   13.30
   4  -1   1  310.37   13.10
  -5   1  -1   36.60    6.30
  -5   1  -1   41.80    4.30
  -5   1  -1   43.10    6.20
   5  -1   1   51.69    7.20
   5  -1   1   43.20    6.10
  -6   1  -1   -0.10    5.60
  -6   1  -1    3.90    3.20
  -6   1  -1    2.70    6.10
   6  -1   1   13.90    6.20
   6  -1   1   -4.80    5.40
  -7   1  -1  128.09   13.90
  -7   1  -1  112.39   13.80
   7  -1   1  108.69   13.00
   7  -1   1  118.59   13.70
   8   0  -1  125.09   14.50
  -8   0   1  134.19   15.40
   7   0  -1   60.09    9.20
   7   0  -1   49.70    9.10
  -7   0   1   58.99    9.40
  -7   0   1   61.69    7.40
  -7   0   1   49.40    8.80
   6   0  -1  517.35   21.00
   6   0  -1  501.85   20.70
  -6   0   1  496.25   20.50
  -6   0   1  498.35   17.40
   5   0  -1  357.86   14.70
   5   0  -1  310.67   14.20
  -5   0   1  347.57   15.20
  -5   0   1  366.06   12.60
  -5   0   1  316.47   14.00
   4   0  -1    6.00    2.90
   4   0  -1   12.20    3.50
  -4   0   1    2.60    3.10
  -4   0   1    8.10    2.40
  -4   0   1    6.60    3.10
   3   0  -1   31.20    3.90
   3   0  -1   30.90    3.50
  -3   0   1   29.30    3.50
  -3   0   1   24.50    3.30
  -3   0   1   37.00    4.00
   2   0  -1  584.84   17.30
   2   0  -1  550.44   17.10
  -2   0   1  558.64   17.20
  -2   0   1  572.34   17.20
  -2   0   1  576.14   16.70
   1   0  -1  806.12   21.90
   1   0  -1  780.42   21.80
  -1   0   1  738.63   21.80
  -1   0   1  777.52   21.80
  -1   0   1  814.02   21.80
  -1   0  -1  188.68    6.40
  -1   0  -1  196.68    6.30
  -1   0  -1  195.18    6.40
   1   0   1  207.98    6.50
   1   0   1  191.68    6.40
  -2   0  -1  164.68    6.50
  -2   0  -1  155.28    6.30
   2   0   1  161.78    6.40
   2   0   1  151.58    6.30
  -3   0  -1   55.39    4.30
  -3   0  -1   56.99    4.50
   3   0   1   56.29    4.50
   3   0   1   54.69    4.40
  -4   0  -1 1379.46   39.00
  -4   0  -1 1266.17   38.50
  -4   0  -1 1317.47   36.20
   4   0   1 1250.27   38.60
   4   0   1 1229.38   38.40
  -5   0  -1  732.13   25.10
  -5   0  -1  738.33   22.30
  -5   0  -1  751.42   22.40
  -5   0  -1  767.32   25.40
   5   0   1  732.23   25.50
   5   0   1  732.23   25.30
  -6   0  -1   36.40    4.60
  -6   0  -1   41.50    7.10
  -6   0  -1   35.30    4.20
  -6   0  -1   42.50    7.10
   6   0   1   32.50    6.50
   6   0   1   26.80    6.70
  -7   0  -1  284.87   17.80
  -7   0  -1  288.97   11.80
  -7   0  -1  302.37   17.90
   7   0   1  285.97   16.50
   7   0   1  263.37   16.60
  -8   0  -1   40.50   10.90
  -8   0  -1   23.20    5.40
  -8   0  -1    5.30    9.90
   8   0   1   15.40   10.20
   8   0   1   19.70    9.60
   7  -1  -1  248.88   18.10
   7  -1  -1  259.67   17.50
  -7   1   1  225.68   16.60
  -7   1   1  222.08   16.90
   6  -1  -1   13.40    6.20
   6  -1  -1   11.90    6.70
  -6   1   1    5.10    6.30
  -6   1   1    7.20    6.30
   5  -1  -1    2.40    4.30
   5  -1  -1    2.90    4.10
  -5   1   1   -0.30    4.30
  -5   1   1    8.60    3.00
  -5   1   1    5.20    4.60
   4  -1  -1   57.19    6.10
   4  -1  -1   77.29    6.50
  -4   1   1   59.89    6.20
  -4   1   1   74.09    4.90
  -4   1   1   76.49    6.30
   3  -1  -1  146.59    7.50
   3  -1  -1  145.39    7.50
  -3   1   1  157.38    6.20
  -3   1   1  152.38    7.60
  -3   1   1  145.69    7.50
   2  -1  -1 1182.58   36.90
   2  -1  -1 1308.17   37.10
  -2   1   1 1330.27   37.20
  -2   1   1 1306.37   37.10
  -2   1   1 1336.57   35.70
   1  -1  -1 1543.45   42.00
   1  -1  -1 1454.75   41.90
  -1   1   1 1515.35   42.00
  -1   1   1 1541.85   42.10
   0  -1  -1   -0.80    0.90
   0  -1  -1   -1.00    0.80
   0   1   1    0.70    0.90
   0   1   1    0.00    0.90
  -1  -1  -1 2975.10   83.59
  -1  -1  -1 3235.78   83.69
   1   1   1 3065.49   83.69
   1   1   1 3173.18   83.69
  -2  -1  -1   33.00    2.80
  -2  -1  -1   34.60    2.70
  -2  -1  -1   33.10    2.00
   2   1   1   29.90    2.80
   2   1   1   28.70    2.70
   2   1   1   30.80    2.00
  -3  -1  -1   56.79    4.20
  -3  -1  -1   56.19    2.80
  -3  -1  -1   60.69    4.30
   3   1   1   64.19    4.30
   3   1   1   60.79    4.30
  -4  -1  -1  964.90   29.00
  -4  -1  -1  947.61   28.90
  -4  -1  -1  911.71   26.20
   4   1   1  954.30   29.00
   4   1   1  898.01   28.70
  -5  -1  -1  255.67   11.70
  -5  -1  -1  263.37   10.10
  -5  -1  -1  263.87    8.60
  -5  -1  -1  251.67   11.80
   5   1   1  267.87   11.90
   5   1   1  241.78   11.80
  -6  -1  -1   -1.30    3.10
  -6  -1  -1    6.70    4.90
  -6  -1  -1    2.10    1.90
  -6  -1  -1    3.00    4.80
   6   1   1    5.20    4.40
   6   1   1   -0.60    4.30
  -7  -1  -1   18.60    6.70
  -7  -1  -1    8.30    4.20
  -7  -1  -1    6.90    6.50
  -7  -1  -1    7.40    2.00
   7   1   1   20.90    6.80
   7   1   1    4.70    6.40
  -8  -1  -1   22.90   10.10
  -8  -1  -1   44.10   10.00
  -8  -1  -1   22.40    5.60
   8   1   1   30.00    9.30
   8   1   1    0.50    8.80
   7  -2  -1   23.60   10.80
  -7   2   1   15.50    9.40
  -7   2   1   26.30   11.00
   6  -2  -1  -11.20    7.20
   6  -2  -1   -4.20    6.70
  -6   2   1    5.50    7.40
  -6   2   1    1.10    7.90
   5  -2  -1  114.79   10.30
   5  -2  -1  112.69   10.00
  -5   2   1  126.29   10.40
  -5   2   1  121.29   10.90
   4  -2  -1   24.60    5.40
   4  -2  -1   17.10    4.80
  -4   2   1   16.90    5.10
  -4   2   1   20.60    5.00
   3  -2  -1   60.99    5.70
   3  -2  -1   68.39    6.00
  -3   2   1   62.79    5.90
  -3   2   1   61.99    5.70
   2  -2  -1  188.18    8.40
   2  -2  -1  181.08    8.40
  -2   2   1  188.08    8.60
  -2   2   1  184.68    8.40
   1  -2  -1  270.57   10.10
   1  -2  -1  282.37   10.30
  -1   2   1  276.77   10.10
  -1   2   1  284.57   10.40
   0  -2  -1 9760.62  263.47
   0   2   1 9999.00  263.47
  -1  -2  -1  174.18    6.70
  -1  -2  -1  186.18    6.80
   1   2   1  188.28    6.80
   1   2   1  184.18    6.80
  -2  -2  -1 2860.61   76.79
  -2  -2  -1 2787.92   76.69
   2   2   1 2776.02   75.39
   2   2   1 2800.92   76.79
   2   2   1 2838.12   76.79
  -3  -2  -1 1920.91   54.59
  -3  -2  -1 2017.70   54.79
   3   2   1 2001.90   54.69
   3   2   1 1917.21   54.59
   3   2   1 1886.31   52.89
  -4  -2  -1  122.49    7.10
  -4  -2  -1  113.29    6.70
   4   2   1  115.09    6.60
   4   2   1  117.29    7.00
   4   2   1  112.29    4.40
  -5  -2  -1   94.69    7.10
  -5  -2  -1   97.09    7.10
   5   2   1   94.69    7.30
   5   2   1   94.59    7.10
  -6  -2  -1   75.89    6.40
  -6  -2  -1   74.49    8.00
  -6  -2  -1   74.19    7.60
   6   2   1   72.59    7.60
   6   2   1   72.39    7.70
  -7  -2  -1   70.89    7.30
  -7  -2  -1   65.99    8.80
  -7  -2  -1   63.39    8.70
   7   2   1   71.09    9.60
   7   2   1   60.39    8.30
  -8  -2  -1   -6.50    4.60
  -8  -2  -1    9.70    8.80
  -8  -2  -1   -0.90    7.90
   8   2   1    9.70    8.20
   8   2   1   -3.70    7.20
   6  -3  -1   10.10   10.30
   6  -3  -1  -12.50    8.80
  -6   3   1   12.90    9.60
  -6   3   1   13.20    9.30
   5  -3  -1    5.90    6.40
   5  -3  -1   -0.80    6.50
  -5   3   1   -7.10    6.60
  -5   3   1    5.70    7.00
   4  -3  -1   59.49    7.70
   4  -3  -1   58.29    8.00
  -4   3   1   61.19    8.40
  -4   3   1   72.99    8.70
   3  -3  -1   52.59    7.10
   3  -3  -1   45.30    6.30
  -3   3   1   45.30    5.90
  -3   3   1   45.00    6.20
   2  -3  -1    3.50    3.10
   2  -3  -1   -0.60    2.70
  -2   3   1    1.50    2.80
  -2   3   1   -0.30    2.80
   1  -3  -1 4182.68  114.39
   1  -3  -1 3964.80  114.29
  -1   3   1 4416.26  114.69
  -1   3   1 4147.58  114.39
   0  -3  -1    1.70    1.90
   0   3   1    6.30    2.40
   0   3   1    8.50    2.20
  -1  -3  -1  129.19    6.00
  -1  -3  -1  133.79    6.20
   1   3   1  130.19    6.00
   1   3   1  129.99    6.10
  -2  -3  -1   66.69    3.50
  -2  -3  -1   61.99    4.30
  -2  -3  -1   63.59    4.20
   2   3   1   66.39    4.20
   2   3   1   68.89    4.20
  -3  -3  -1    2.40    2.00
  -3  -3  -1   -0.40    2.30
   3   3   1    1.90    2.00
   3   3   1   -1.50    1.90
  -4  -3  -1  339.17   13.00
  -4  -3  -1  349.17   13.10
   4   3   1  344.97   11.00
   4   3   1  343.37   13.10
   4   3   1  330.57   13.00
  -5  -3  -1   18.30    4.10
  -5  -3  -1   18.00    4.30
   5   3   1   25.70    2.40
   5   3   1   19.00    4.10
   5   3   1   20.60    4.00
  -6  -3  -1  475.15   18.60
  -6  -3  -1  484.85   18.60
   6   3   1  480.35   18.50
   6   3   1  447.26   18.70
  -7  -3  -1  250.47   14.30
  -7  -3  -1  266.67   12.40
   7   3   1  270.57   14.30
   7   3   1  243.58   14.40
  -8  -3  -1   15.80    5.10
  -8  -3  -1   31.20    8.70
  -8  -3  -1    1.30    7.30
   8   3   1   18.50    7.70
   8   3   1   24.20    8.10
   5  -4  -1   50.39    9.80
   5  -4  -1   56.69   10.60
  -5   4   1   47.40   10.50
  -5   4   1   53.99   10.50
   4  -4  -1    3.90    6.50
   4  -4  -1   14.00    6.70
  -4   4   1   11.20    7.10
  -4   4   1    2.30    7.30
   3  -4  -1  765.92   27.70
   3  -4  -1  809.42   27.90
  -3   4   1  779.02   27.70
  -3   4   1  806.52   27.70
   2  -4  -1  394.46   16.20
   2  -4  -1  415.76   16.40
  -2   4   1  395.76   16.10
  -2   4   1  422.36   16.50
   1  -4  -1   51.29    5.50
   1  -4  -1   61.99    6.10
  -1   4   1   68.89    6.10
   0  -4  -1  145.29    7.70
   0  -4  -1  158.78    8.10
   0   4   1  169.78    8.40
   0   4   1  162.58    8.00
  -1  -4  -1  206.58    9.00
   1   4   1  222.98    9.20
   1   4   1  197.58    8.90
  -2  -4  -1  275.87   10.60
  -2  -4  -1  274.97    9.60
  -2  -4  -1  265.57   10.60
   2   4   1  261.07   10.40
   2   4   1  265.67   10.50
  -3  -4  -1  404.06   14.60
  -3  -4  -1  433.26   13.20
  -3  -4  -1  400.96   14.60
   3   4   1  402.56   14.50
   3   4   1  409.06   14.70
  -4  -4  -1  274.77   11.30
  -4  -4  -1  266.37   11.50
   4   4   1  273.47   11.50
   4   4   1  276.47   11.40
  -5  -4  -1  343.17   14.40
  -5  -4  -1  332.57   13.90
   5   4   1  335.77   14.10
   5   4   1  332.97   11.30
   5   4   1  363.16   14.40
  -6  -4  -1  648.24   22.70
  -6  -4  -1  621.44   22.80
   6   4   1  617.14   22.40
   6   4   1  584.04   17.80
   6   4   1  625.04   22.50
  -7  -4  -1    8.40    6.60
   7   4   1    7.00    5.30
   7   4   1   -4.70    5.20
  -8  -4  -1   11.50    7.50
  -8  -4  -1    6.60    4.60
  -8  -4  -1   19.60    8.30
   8   4   1   16.50    7.90
   8   4   1   11.50    8.30
  -9  -4  -1   35.30   12.20
  -9  -4  -1   19.60    5.70
   9   4   1   21.10   11.00
   4  -5  -1  127.39   13.80
   4  -5  -1  122.39   15.50
  -4   5   1  126.39   14.90
  -4   5   1  112.29   13.90
   3  -5  -1    3.60    6.60
   3  -5  -1   -6.20    5.80
  -3   5   1    2.50    6.00
  -3   5   1   14.10    6.50
   2  -5  -1   -1.20    4.50
   2  -5  -1   -0.80    4.70
  -2   5   1   -5.80    4.50
  -2   5   1   -2.60    4.30
   1  -5  -1  101.79    8.00
   1  -5  -1   86.99    8.50
  -1   5   1   87.09    7.80
  -1   5   1  102.99    8.10
   0  -5  -1   19.80    4.10
   0  -5  -1   15.80    4.00
   0   5   1   21.10    4.40
   0   5   1   18.90    4.40
  -1  -5  -1  591.34   20.60
  -1  -5  -1  591.84   20.60
   1   5   1  604.94   20.40
   1   5   1  615.84   20.60
  -2  -5  -1    3.40    2.90
  -2  -5  -1    3.80    2.60
  -2  -5  -1    4.10    2.90
   2   5   1    3.50    2.60
   2   5   1    9.70    3.00
  -3  -5  -1  132.59    6.60
  -3  -5  -1  140.29    7.70
  -3  -5  -1  121.49    7.40
   3   5   1  123.59    7.60
   3   5   1  126.69    7.30
  -4  -5  -1  385.46   13.20
  -4  -5  -1  387.16   14.90
  -4  -5  -1  403.36   15.10
   4   5   1  384.86   14.70
   4   5   1  350.66   14.50
  -5  -5  -1   40.90    5.50
  -5  -5  -1   47.40    6.60
   5   5   1   50.59    6.20
   5   5   1   42.80    5.80
  -6  -5  -1  162.98   10.30
   6   5   1  149.59   10.00
   6   5   1  144.49   10.00
   6   5   1  148.49    7.00
  -7  -5  -1  140.39   11.60
   7   5   1  143.29    5.50
   7   5   1  145.69   11.70
   7   5   1  174.58   12.40
  -8  -5  -1  112.39   10.00
  -8  -5  -1   99.59   13.10
  -8  -5  -1  122.59   14.10
   8   5   1  119.19   12.90
   8   5   1  111.79   12.60
   4  -6  -1   -0.30   11.60
   4  -6  -1   -4.70    9.80
  -4   6   1   -5.70   11.80
   3  -6  -1   38.30    9.70
   3  -6  -1   47.40    9.10
  -3   6   1   24.70    8.60
   2  -6  -1  196.78   13.80
   2  -6  -1  186.08   13.00
  -2   6   1  186.28   13.00
  -2   6   1  183.78   14.40
   1  -6  -1  134.69   10.50
   1  -6  -1  134.19   11.90
  -1   6   1  104.79    9.60
  -1   6   1  132.09   10.10
   0  -6  -1  256.97   13.00
   0  -6  -1  245.78   12.70
   0   6   1  246.68   12.40
   0   6   1  245.88   12.50
  -1  -6  -1   16.60    4.60
  -1  -6  -1   29.80    5.30
   1   6   1   27.50    5.30
   1   6   1   24.50    5.30
  -2  -6  -1   93.29    6.90
  -2  -6  -1  102.89    7.70
   2   6   1   89.39    7.30
   2   6   1   90.99    7.40
  -3  -6  -1  110.89    7.80
  -3  -6  -1  113.19    6.90
  -3  -6  -1  111.49    8.40
   3   6   1  123.99    8.50
   3   6   1  106.29    7.40
  -4  -6  -1   54.99    6.70
  -4  -6  -1   51.49    5.60
  -4  -6  -1   52.99    6.40
   4   6   1   44.80    6.10
   4   6   1   54.19    7.10
  -5  -6  -1  487.35   19.00
  -5  -6  -1  489.05   18.80
   5   6   1  463.75   18.60
   5   6   1  467.75   18.40
  -6  -6  -1  172.98   11.30
   6   6   1  196.88   12.30
   6   6   1  189.48   11.90
  -7  -6  -1    8.70    6.80
   7   6   1    8.80    5.60
   7   6   1   13.50    6.20
   7   6   1    9.30    3.20
  -8  -6  -1   -7.10    8.80
  -8  -6  -1   -7.70    5.20
  -8  -6  -1    1.10    7.90
   8   6   1   15.20    8.80
   8   6   1   11.90    8.10
   2  -7  -1    8.40    9.20
   2  -7  -1   15.40    9.80
  -2   7   1   27.10    9.00
  -2   7   1   21.60    9.30
   1  -7  -1  148.79   13.30
   1  -7  -1  123.09   12.50
  -1   7   1  105.59   13.00
  -1   7   1  102.79   12.60
   0  -7  -1   26.80    7.00
   0   7   1   40.00    7.50
   0   7   1   36.30    7.40
  -1  -7  -1   72.89    9.50
   1   7   1   66.09    8.20
   1   7   1   78.39    9.90
  -2  -7  -1  270.77   13.80
  -2  -7  -1  247.38   12.10
   2   7   1  267.37   13.80
   2   7   1  249.08   13.30
  -3  -7  -1  213.18   10.70
  -3  -7  -1  243.08   12.40
   3   7   1  238.38   12.40
   3   7   1  214.38   12.40
  -4  -7  -1  676.33   22.70
  -4  -7  -1  698.43   25.00
   4   7   1  682.13   24.40
   4   7   1  690.73   24.40
  -5  -7  -1   67.29    9.40
  -5  -7  -1   87.79    7.20
   5   7   1   90.39    8.80
   5   7   1   76.09    8.90
  -6  -7  -1   31.10    7.30
   6   7   1   35.30    6.70
   6   7   1   34.90    7.30
  -7  -7  -1    2.70    8.00
  -7  -7  -1    3.70    6.90
   7   7   1    3.30    4.40
   7   7   1   10.30    7.60
   7   7   1   -4.00    5.90
  -8  -7  -1    8.90    8.80
  -8  -7  -1    3.00    8.60
   8   7   1   -0.30    8.60
   8   7   1   18.90    8.60
   8   7   1   -5.20    3.50
   1  -8  -1   14.70   10.30
   1  -8  -1   -2.50    8.30
  -1   8   1  -17.80   10.10
  -1   8   1   -6.00    9.30
   0  -8  -1   48.90    9.30
   0  -8  -1   53.49   10.80
   0   8   1   45.70    8.90
   0   8   1   46.30    9.30
  -1  -8  -1  173.48   14.50
   1   8   1  155.48   12.60
   1   8   1  170.98   13.10
  -2  -8  -1   11.10    4.60
  -2  -8  -1    4.20    6.20
   2   8   1   -2.60    5.60
   2   8   1    3.40    6.70
  -3  -8  -1  316.57   16.20
  -3  -8  -1  320.57   14.20
   3   8   1  316.47   15.80
   3   8   1  326.17   16.00
  -4  -8  -1  -13.40    5.30
  -4  -8  -1    8.30    4.40
   4   8   1    2.60    5.70
   4   8   1   -2.00    5.80
  -5  -8  -1   -9.30    6.20
  -5  -8  -1    8.50    4.70
  -5  -8  -1   13.30    6.40
   5   8   1   14.30    5.80
   5   8   1   -2.40    5.70
  -6  -8  -1   91.99   11.40
  -6  -8  -1   80.99   11.10
   6   8   1   90.59   10.50
   6   8   1  118.89   12.50
  -7  -8  -1   -5.10    9.10
  -7  -8  -1   12.40    8.90
   7   8   1    7.10    8.80
   7   8   1  -17.30    7.60
  -1  -9  -1   33.50    9.80
  -1  -9  -1   21.00    7.00
  -1  -9  -1   35.80   11.20
   1   9   1   19.90   10.30
   1   9   1   22.80   11.10
  -2  -9  -1  181.88   17.00
  -2  -9  -1  200.98   16.80
  -2  -9  -1  217.48   13.10
   2   9   1  197.28   15.70
   2   9   1  163.78   15.20
  -3  -9  -1   10.00    9.40
  -3  -9  -1   13.10    8.00
  -3  -9  -1    2.70    5.00
   3   9   1   16.30    8.10
   3   9   1   15.70    7.90
  -4  -9  -1   29.00    9.30
  -4  -9  -1   33.80    6.30
   4   9   1   38.50    9.30
   4   9   1   37.40    8.70
  -5  -9  -1    2.10    8.30
  -5  -9  -1   11.70    5.30
  -5  -9  -1    6.60    8.80
   5   9   1    5.40    7.80
   5   9   1   13.30    7.90
  -6  -9  -1    8.30    8.60
  -6  -9  -1    7.40    8.80
   6   9   1   13.60    7.60
   6   9   1    5.60    8.70
   5   9  -2   60.59    8.90
   5   9  -2   63.39    9.20
  -5  -9   2   64.79    8.70
  -5  -9   2   58.29    9.60
  -5  -9   2   63.79    8.30
   4   9  -2   72.79    9.30
   4   9  -2   89.89   11.60
  -4  -9   2   85.79   10.40
  -4  -9   2   69.49    9.50
  -4  -9   2  102.89   13.20
  -4  -9   2   85.19    9.90
   3   9  -2   89.19   12.30
   3   9  -2   96.79   11.60
  -3  -9   2   69.69   10.20
  -3  -9   2   90.59    9.70
  -3  -9   2   87.59   10.20
  -3  -9   2   75.69    9.60
   2   9  -2   85.49   11.50
   2   9  -2   87.19   10.50
  -2  -9   2   74.99    8.50
  -2  -9   2   72.39   10.60
  -2  -9   2   92.49   10.80
  -2  -9   2   82.09   10.90
   1   9  -2   69.09   10.10
   1   9  -2   77.79   11.00
  -1  -9   2   66.49    9.20
  -1  -9   2   57.59   11.30
  -1  -9   2   87.59   12.00
  -1  -9   2   63.79    8.10
   7   8  -2    8.50    7.60
   7   8  -2    0.80    7.30
  -7  -8   2    3.50    8.40
  -7  -8   2   -0.30    8.30
  -7  -8   2    2.10    6.80
   6   8  -2    2.00    6.50
   6   8  -2    2.90    6.40
  -6  -8   2   10.20    5.90
  -6  -8   2   -3.10    7.50
  -6  -8   2   21.20    7.20
   5   8  -2  140.49   10.40
   5   8  -2  137.89   11.10
  -5  -8   2  140.79   11.10
  -5  -8   2  129.59   10.90
  -5  -8   2  135.59   11.80
  -5  -8   2  152.08   11.00
   4   8  -2  317.87   15.00
   4   8  -2  323.47   15.30
  -4  -8   2  331.17   15.80
  -4  -8   2  303.47   15.30
  -4  -8   2  319.47   15.20
   3   8  -2  125.69   10.40
   3   8  -2  151.48   10.10
  -3  -8   2  147.69   11.40
  -3  -8   2  129.79   10.00
  -3  -8   2  138.09   17.30
  -3  -8   2  148.79   10.60
   2   8  -2   38.20    6.80
   2   8  -2   24.60    6.10
  -2  -8   2   27.10    7.00
  -2  -8   2   27.70    6.00
  -2  -8   2   25.80    5.60
  -2  -8   2   27.90    6.50
   1   8  -2   28.70    6.60
   1   8  -2   40.70    7.30
  -1  -8   2   41.50    7.30
  -1  -8   2   30.00    7.70
  -1  -8   2   34.30    8.40
  -1  -8   2   35.70    6.20
   0   8  -2  157.78   12.90
   0   8  -2  154.08   13.60
   0  -8   2  158.88   13.00
   0  -8   2  145.99   10.10
   0  -8   2  150.58   14.80
   0  -8   2  140.49   12.80
  -1   8  -2   21.90    9.00
  -1   8  -2   31.30    9.90
   1  -8   2   27.50   10.20
   1  -8   2   19.90    8.70
   7   7  -2    9.70    6.60
   7   7  -2   -1.60    6.50
  -7  -7   2   12.10    7.90
  -7  -7   2    7.30    7.10
  -7  -7   2   19.10    5.80
   6   7  -2  189.18   11.70
   6   7  -2  168.38   11.60
  -6  -7   2  206.48   12.60
  -6  -7   2  191.38   12.80
  -6  -7   2  192.08   11.90
   5   7  -2   69.09    7.70
   5   7  -2   77.69    7.60
  -5  -7   2   84.29    8.70
  -5  -7   2   61.59    8.00
  -5  -7   2   62.79    8.50
   4   7  -2   64.79    7.20
   4   7  -2   54.59    6.80
  -4  -7   2   68.09    7.30
  -4  -7   2   66.99    7.80
  -4  -7   2   68.39    8.00
  -4  -7   2   61.29    7.10
   3   7  -2    7.30    4.00
   3   7  -2    7.60    3.90
  -3  -7   2    0.90    4.10
  -3  -7   2   -1.10    3.90
  -3  -7   2   -4.80    3.80
   2   7  -2   -5.80    3.50
   2   7  -2    1.90    4.20
  -2  -7   2   -3.70    3.90
  -2  -7   2    4.50    4.10
  -2  -7   2    0.60    4.50
  -2  -7   2   12.20    4.50
   1   7  -2  228.58   11.70
   1   7  -2  236.58   12.00
  -1  -7   2  257.17   13.10
  -1  -7   2  235.18   12.90
  -1  -7   2  232.18   11.40
  -1  -7   2  245.48   12.60
   0   7  -2   28.40    6.40
   0   7  -2   32.40    6.10
   0  -7   2   33.50    5.10
   0  -7   2   28.10    5.80
   0  -7   2   37.70    6.90
  -1   7  -2  368.56   17.60
  -1   7  -2  360.06   17.10
   1  -7   2  343.67   17.50
   1  -7   2  348.07   13.00
   1  -7   2  331.77   16.80
  -2   7  -2    1.00    7.70
  -2   7  -2   -3.40    7.40
   2  -7   2   -8.20    7.60
   2  -7   2   21.00    8.40
   8   6  -2   23.90    8.70
   8   6  -2   30.00    8.20
  -8  -6   2   24.40    6.50
  -8  -6   2   23.20    8.40
  -8  -6   2   36.60    8.60
   7   6  -2    6.70    5.60
   7   6  -2    3.60    6.00
  -7  -6   2    0.90    5.10
  -7  -6   2    2.20    6.50
  -7  -6   2    6.40    6.40
   6   6  -2   37.10    5.90
   6   6  -2   37.90    5.90
  -6  -6   2   35.80    6.10
  -6  -6   2   30.50    6.00
   5   6  -2   27.70    5.00
   5   6  -2   29.10    4.90
  -5  -6   2   28.30    4.90
  -5  -6   2   16.20    4.80
  -5  -6   2   24.80    4.90
   4   6  -2  327.57   13.10
   4   6  -2  330.87   12.80
  -4  -6   2  322.37   14.60
  -4  -6   2  319.37   13.10
  -4  -6   2  321.17   13.20
  -4  -6   2  326.27   13.90
   3   6  -2   83.09    6.50
   3   6  -2   82.39    6.40
  -3  -6   2   82.69    6.60
  -3  -6   2   80.19    7.20
  -3  -6   2   83.29    7.50
  -3  -6   2   84.09    6.80
   2   6  -2  365.56   13.80
   2   6  -2  370.86   13.80
  -2  -6   2  377.86   14.30
  -2  -6   2  369.86   15.00
  -2  -6   2  354.96   14.50
  -2  -6   2  346.77   13.90
   1   6  -2   -2.30    3.20
   1   6  -2   -7.40    3.00
  -1  -6   2    6.60    3.60
  -1  -6   2    4.00    3.10
  -1  -6   2   -1.70    2.90
  -1  -6   2    1.80    3.40
   0   6  -2   49.99    5.90
   0   6  -2   38.20    5.60
   0  -6   2   30.80    5.30
   0  -6   2   42.90    4.80
   0  -6   2   40.10    5.80
  -1   6  -2    7.90    4.40
  -1   6  -2   10.70    4.90
   1  -6   2    9.60    3.40
   1  -6   2    4.10    4.70
   1  -6   2    2.70    5.30
  -2   6  -2  135.79   11.10
   2  -6   2  145.49   12.30
  -3   6  -2   41.30    9.20
  -3   6  -2   42.40    8.90
   3  -6   2   52.09    9.70
   3  -6   2   61.49    9.70
  -4   6  -2    7.90   10.00
   4  -6   2   16.10   10.20
   8   5  -2   23.90    8.00
   8   5  -2    5.50    7.20
  -8  -5   2   10.70    7.90
  -8  -5   2   18.60    9.10
  -8  -5   2    6.00    5.30
   7   5  -2    6.60    5.70
   7   5  -2   13.30    5.30
  -7  -5   2   -4.40    5.60
  -7  -5   2   -5.60    4.20
  -7  -5   2   -1.10    5.90
   6   5  -2    1.10    4.50
   6   5  -2   -1.60    1.60
   6   5  -2   -0.30    3.80
  -6  -5   2    6.00    4.80
  -6  -5   2   -4.00    3.90
  -6  -5   2   -0.20    4.30
   5   5  -2   97.59    7.00
   5   5  -2  102.19    7.40
  -5  -5   2  115.59    8.60
  -5  -5   2  101.99    7.30
  -5  -5   2  108.29    7.60
   4   5  -2  388.56   13.60
   4   5  -2  380.06   13.70
  -4  -5   2  379.76   13.90
  -4  -5   2  361.06   13.70
  -4  -5   2  349.96   14.30
  -4  -5   2  368.06   15.00
   3   5  -2   75.09    5.10
   3   5  -2   81.59    5.30
  -3  -5   2   87.69    6.80
  -3  -5   2   73.69    6.30
  -3  -5   2   80.59    5.60
  -3  -5   2   76.79    5.60
   2   5  -2   -1.00    2.10
   2   5  -2    5.40    2.30
  -2  -5   2    2.10    3.00
  -2  -5   2   -2.20    2.30
  -2  -5   2    2.10    2.90
  -2  -5   2   -0.10    2.40
   1   5  -2   44.30    4.60
   1   5  -2   50.39    4.80
  -1  -5   2   55.69    6.00
  -1  -5   2   46.50    4.80
  -1  -5   2   54.09    5.20
  -1  -5   2   49.10    5.10
   0   5  -2   42.70    5.20
   0   5  -2   54.19    5.50
   0  -5   2   48.90    4.90
   0  -5   2   46.10    5.30
   0  -5   2   39.70    4.90
  -1   5  -2   43.70    5.40
   1  -5   2   42.10    5.40
   1  -5   2   51.59    6.50
   1  -5   2   43.10    4.60
  -2   5  -2  462.95   17.70
  -2   5  -2  412.96   17.40
   2  -5   2  434.96   17.90
  -3   5  -2   -3.30    6.10
  -3   5  -2   12.50    5.50
   3  -5   2   -6.20    5.10
  -4   5  -2   -0.10    7.10
  -4   5  -2   21.80    7.60
   4  -5   2   11.80    7.90
   4  -5   2   -0.20    7.60
  -5   5  -2   39.70   12.40
   5  -5   2   43.30   11.30
   8   4  -2    0.80    7.80
   8   4  -2    0.10    7.00
  -8  -4   2    9.30    7.80
  -8  -4   2   -2.80    8.80
  -8  -4   2    1.40    4.70
   7   4  -2  105.79    9.80
   7   4  -2  109.69   10.40
  -7  -4   2  105.29    9.50
  -7  -4   2   99.09   15.40
  -7  -4   2   81.49    9.00
   6   4  -2   69.49    7.40
   6   4  -2   65.29    7.10
  -6  -4   2   89.39    8.30
  -6  -4   2   66.39    7.70
  -6  -4   2   59.69    7.60
   5   4  -2   76.39    3.60
   5   4  -2   71.49    6.40
   5   4  -2   70.39    6.10
  -5  -4   2   77.59    6.50
  -5  -4   2   72.99    6.50
  -5  -4   2   78.89    7.30
   4   4  -2   -0.20    2.20
   4   4  -2    1.00    2.30
  -4  -4   2    1.30    3.10
  -4  -4   2   -1.40    2.50
  -4  -4   2    5.70    2.60
   3   4  -2   83.29    4.80
   3   4  -2   92.69    5.00
  -3  -4   2   92.99    5.40
  -3  -4   2   84.39    6.10
  -3  -4   2   93.09    5.20
  -3  -4   2   87.89    6.10
   2   4  -2    2.60    1.70
   2   4  -2    4.10    1.80
  -2  -4   2    0.80    2.50
  -2  -4   2    4.00    2.00
  -2  -4   2    0.70    1.90
  -2  -4   2   11.50    2.90
   1   4  -2   29.80    3.20
   1   4  -2   30.80    3.30
  -1  -4   2   34.00    3.90
  -1  -4   2   29.70    3.50
  -1  -4   2   32.50    3.50
  -1  -4   2   35.00    4.30
   0   4  -2  345.07   12.30
   0   4  -2  332.07   12.10
   0  -4   2  349.87   11.70
   0  -4   2  342.27   12.40
   0  -4   2  340.57   12.50
  -1   4  -2  255.77   10.90
  -1   4  -2  263.57   10.80
   1  -4   2  260.37   10.80
   1  -4   2  255.57   10.90
   1  -4   2  253.07    8.80
  -2   4  -2   31.00    5.10
  -2   4  -2   28.30    4.60
   2  -4   2   35.30    5.30
   2  -4   2   35.60    4.90
  -3   4  -2   69.99    8.30
  -3   4  -2   67.19    8.60
   3  -4   2   73.09    7.90
   3  -4   2   89.49    8.20
  -4   4  -2    5.00    5.40
  -4   4  -2    3.40    5.40
   4  -4   2   10.70    6.50
   4  -4   2    8.60    5.90
  -5   4  -2    6.20    8.50
  -5   4  -2   -5.50    7.10
   5  -4   2   17.20    7.50
   5  -4   2    8.00    8.20
   8   3  -2    4.00    7.20
   8   3  -2   16.90    8.00
  -8  -3   2   19.80    5.90
  -8  -3   2   18.80    8.50
  -8  -3   2   27.60    8.10
   7   3  -2   30.70    7.20
   7   3  -2   27.40    6.30
  -7  -3   2   40.40    7.40
  -7  -3   2   30.90    6.00
  -7  -3   2   19.30    7.60
   6   3  -2  329.37   14.30
   6   3  -2  306.97   14.20
  -6  -3   2  331.67   14.70
  -6  -3   2  339.07   14.60
  -6  -3   2  322.77   14.40
   5   3  -2    9.10    3.40
   5   3  -2   10.20    3.20
  -5  -3   2    9.80    3.60
  -5  -3   2    7.90    3.40
  -5  -3   2    6.90    3.30
   4   3  -2  127.19    4.70
   4   3  -2  133.29    6.60
   4   3  -2  130.09    6.50
  -4  -3   2  131.49    6.80
  -4  -3   2  136.89    6.90
  -4  -3   2  118.19    7.60
   3   3  -2  811.42   23.90
   3   3  -2  825.42   24.00
  -3  -3   2  819.42   24.20
  -3  -3   2  808.62   24.10
  -3  -3   2  811.92   25.30
   2   3  -2  852.21   24.50
   2   3  -2  854.31   24.60
  -2  -3   2  851.11   25.90
  -2  -3   2  840.52   24.70
  -2  -3   2  904.01   24.80
   1   3  -2   19.00    2.20
   1   3  -2   17.60    2.10
  -1  -3   2   18.80    2.40
  -1  -3   2   18.20    2.90
  -1  -3   2   15.30    2.60
   0   3  -2  642.24   19.00
   0  -3   2  624.84   19.10
   0  -3   2  638.94   18.70
   0  -3   2  614.74   19.10
  -1   3  -2  109.39    5.90
  -1   3  -2  113.09    6.00
   1  -3   2  109.79    4.60
   1  -3   2  101.39    5.70
   1  -3   2  111.99    6.00
  -2   3  -2  305.17   11.80
  -2   3  -2  282.07   11.60
   2  -3   2  292.67   11.80
   2  -3   2  278.87   11.80
  -3   3  -2  407.86   15.90
  -3   3  -2  426.76   16.30
   3  -3   2  405.76   15.90
   3  -3   2  389.86   15.80
  -4   3  -2   42.40    6.20
  -4   3  -2   29.10    5.90
   4  -3   2   27.50    5.80
   4  -3   2   33.30    5.90
  -5   3  -2   52.99    9.00
  -5   3  -2   38.50    8.00
   5  -3   2   53.69    8.80
   5  -3   2   56.89    8.70
  -6   3  -2    9.50    8.40
  -6   3  -2    8.70    8.50
   6  -3   2   18.30    8.80
   6  -3   2    0.20    8.70
   8   2  -2   21.70    9.60
   8   2  -2   15.00    7.60
  -8  -2   2   13.60    5.60
  -8  -2   2   23.40    9.50
  -8  -2   2   21.30    8.80
   7   2  -2   25.60    6.80
   7   2  -2   21.10    5.80
  -7  -2   2   16.70    6.50
  -7  -2   2   21.80    5.20
   6   2  -2   41.20    6.30
   6   2  -2   32.20    5.70
  -6  -2   2   32.90    6.10
  -6  -2   2   41.60    6.20
  -6  -2   2   31.10    5.20
   5   2  -2  373.36   14.50
   5   2  -2  368.66   14.20
  -5  -2   2  377.56   14.60
  -5  -2   2  368.36   14.50
  -5  -2   2  370.66   14.50
   4   2  -2  666.43   20.60
   4   2  -2  634.24   20.50
  -4  -2   2  624.04   21.00
  -4  -2   2  668.23   20.80
  -4  -2   2  633.84   20.60
   3   2  -2 1556.14   41.90
   3   2  -2 1534.35   41.90
   3   2  -2 1413.86   40.40
  -3  -2   2 1507.05   42.80
  -3  -2   2 1489.25   41.90
  -3  -2   2 1428.76   41.80
   2   2  -2  148.49    5.30
   2   2  -2  142.39    5.20
  -2  -2   2  153.78    6.60
  -2  -2   2  141.09    5.30
  -2  -2   2  135.69    6.20
  -2  -2   2  136.79    5.30
   1   2  -2  177.88    5.40
   1   2  -2  158.58    5.30
  -1  -2   2  154.88    6.50
  -1  -2   2  166.48    5.40
  -1  -2   2  173.48    6.70
   0   2  -2  424.16   12.80
   0   2  -2  440.76   12.90
   0  -2   2  442.16   13.00
   0  -2   2  428.26   12.90
   0  -2   2  437.76   13.90
   0  -2   2  430.96   13.10
  -1   2  -2  402.66   12.80
  -1   2  -2  397.56   12.90
   1  -2   2  393.26   11.40
   1  -2   2  408.26   12.90
   1  -2   2  381.16   12.70
  -2   2  -2  305.57   11.40
  -2   2  -2  308.97   11.40
   2  -2   2  292.87   11.30
   2  -2   2  302.07   11.20
  -3   2  -2    6.20    3.00
  -3   2  -2   11.60    3.20
   3  -2   2   10.50    3.10
   3  -2   2   15.80    3.60
  -4   2  -2   -4.70    3.50
  -4   2  -2   -1.90    3.70
   4  -2   2    1.80    4.10
   4  -2   2   -3.60    3.60
  -5   2  -2    6.60    5.10
  -5   2  -2    3.80    4.90
   5  -2   2   -0.20    5.00
   5  -2   2   -0.80    4.80
  -6   2  -2   10.40    7.10
  -6   2  -2   -2.80    7.10
   6  -2   2    3.50    6.90
   6  -2   2    7.50    7.20
  -7   2  -2   72.89   12.90
  -7   2  -2   60.19   12.30
   7  -2   2   72.49   11.90
   7  -2   2   56.59   12.00
   8   1  -2   -1.00   12.10
   8   1  -2  -14.20   10.00
  -8  -1   2   -2.90    5.10
  -8  -1   2   15.40   10.20
   7   1  -2    3.40    6.30
   7   1  -2    0.70    5.60
  -7  -1   2   -0.50    6.60
  -7  -1   2    2.30    4.40
   6   1  -2  122.29    9.10
   6   1  -2  115.39   10.00
  -6  -1   2  124.99   10.50
  -6  -1   2  119.19    8.30
   5   1  -2  510.85   18.50
   5   1  -2  504.25   18.50
  -5  -1   2  496.35   18.50
  -5  -1   2  503.75   17.80
  -5  -1   2  536.65   18.60
   4   1  -2  112.89    6.40
   4   1  -2  106.09    6.40
  -4  -1   2  116.79    6.90
  -4  -1   2  119.49    6.80
  -4  -1   2  106.49    6.50
   3   1  -2    4.90    1.90
   3   1  -2    8.60    2.20
  -3  -1   2    9.20    2.20
  -3  -1   2    5.40    1.00
  -3  -1   2    5.40    2.20
  -3  -1   2    3.60    1.90
   2   1  -2 1636.34   46.30
   2   1  -2 1671.63   46.80
   2   1  -2 1703.13   46.80
  -2  -1   2 1670.53   46.20
  -2  -1   2 1701.53   46.90
  -2  -1   2 1771.62   47.00
  -2  -1   2 1805.62   47.70
   1   1  -2  597.74   17.70
   1   1  -2  612.94   16.80
   1   1  -2  617.94   16.80
  -1  -1   2  652.63   18.20
  -1  -1   2  597.14   16.80
  -1  -1   2  613.24   18.20
   0   1  -2 2026.10   55.59
   0   1  -2 2114.99   55.59
   0  -1   2 2163.48   56.79
   0  -1   2 2200.28   56.39
   0  -1   2 1910.01   55.59
  -1   1  -2   36.30    2.50
  -1   1  -2   40.20    2.70
   1  -1   2   38.50    2.80
   1  -1   2   39.70    2.70
  -2   1  -2   34.20    3.20
  -2   1  -2   41.50    3.40
   2  -1   2   41.90    3.50
   2  -1   2   34.40    3.30
  -3   1  -2  224.98    9.30
  -3   1  -2  212.58    9.20
   3  -1   2  188.08    9.00
   3  -1   2  208.08    9.20
  -4   1  -2  121.59    8.10
  -4   1  -2  108.39    4.50
  -4   1  -2  110.29    8.00
   4  -1   2  119.59    8.00
   4  -1   2  108.69    7.50
  -5   1  -2   85.79    4.50
  -5   1  -2   77.79    8.40
  -5   1  -2   92.19    8.00
   5  -1   2   98.19    8.30
   5  -1   2   83.19    8.30
  -6   1  -2   -1.40    5.50
  -6   1  -2    0.80    2.80
  -6   1  -2   -6.80    6.10
  -6   1  -2    1.50    3.90
   6  -1   2    0.30    5.90
   6  -1   2   -0.20    5.50
  -7   1  -2   59.89   10.30
  -7   1  -2   59.79   11.10
   7  -1   2   71.79   11.50
   7  -1   2   54.09   10.80
   7   0  -2   88.09   10.80
   7   0  -2   92.99   11.30
  -7   0   2   73.69   10.20
  -7   0   2   86.89   10.90
  -7   0   2   89.39    8.80
   6   0  -2    7.30    5.80
   6   0  -2   16.20    5.60
  -6   0   2   10.10    5.80
  -6   0   2    4.30    3.70
   5   0  -2  185.08   10.40
   5   0  -2  196.28   10.60
  -5   0   2  197.08   10.70
  -5   0   2  193.88    9.10
  -5   0   2  189.98   10.40
   4   0  -2   18.50    3.60
   4   0  -2   30.40    4.50
  -4   0   2   21.80    3.70
  -4   0   2   24.00    4.20
  -4   0   2   28.80    3.60
   3   0  -2  156.98    7.30
   3   0  -2  163.88    7.40
  -3   0   2  176.78    7.70
  -3   0   2  167.38    7.10
  -3   0   2  166.78    7.70
   2   0  -2   86.69    4.40
   2   0  -2   86.79    4.40
  -2   0   2   85.89    4.50
  -2   0   2   93.39    4.60
  -2   0   2   92.19    4.60
   1   0  -2    6.60    1.20
   1   0  -2    7.90    1.30
  -1   0   2    8.50    1.80
  -1   0   2    7.70    1.30
  -1   0   2    5.70    1.10
  -1   0   2    6.70    1.40
   0   0  -2 1842.42   49.00
   0   0  -2 1730.53   48.90
   0   0  -2 1903.91   48.20
   0   0  -2 1765.82   48.10
   0   0   2 1749.53   48.90
   0   0   2 1820.62   48.60
   0   0   2 1743.63   48.10
  -1   0  -2 1511.25   41.10
  -1   0  -2 1497.95   41.10
  -1   0  -2 1468.65   41.50
   1   0   2 1473.45   41.10
   1   0   2 1527.85   41.20
   1   0   2 1542.35   41.60
  -2   0  -2 2546.75   66.99
  -2   0  -2 2499.05   67.29
  -2   0  -2 2408.66   67.19
   2   0   2 2404.16   67.19
   2   0   2 2397.96   67.19
  -3   0  -2 1178.68   36.40
  -3   0  -2 1284.77   35.70
  -3   0  -2 1273.87   36.70
   3   0   2 1283.57   36.70
   3   0   2 1244.98   36.60
  -4   0  -2   19.20    3.80
  -4   0  -2   21.00    2.90
  -4   0  -2   17.50    3.60
   4   0   2   18.30    3.80
   4   0   2   19.40    3.80
  -5   0  -2   42.80    4.50
  -5   0  -2   46.20    4.50
  -5   0  -2   50.59    6.40
  -5   0  -2   31.30    5.50
   5   0   2   36.90    5.70
   5   0   2   40.10    5.80
  -6   0  -2  137.49   10.70
  -6   0  -2  141.19    7.80
  -6   0  -2  143.49   10.60
  -6   0  -2  154.98    7.70
   6   0   2  151.28   10.90
   6   0   2  159.68   11.10
  -7   0  -2    1.80    3.90
  -7   0  -2   11.70    4.20
  -7   0  -2   -6.70    7.10
  -7   0  -2    5.00    7.40
   7   0   2    6.10    7.10
   7   0   2    4.90    7.70
  -8   0  -2   52.69   12.10
  -8   0  -2   36.90   11.20
   8   0   2   30.60   11.00
   8   0   2   39.50   11.40
   7  -1  -2  168.38   15.90
   7  -1  -2  134.59   14.50
  -7   1   2  147.69   14.60
  -7   1   2  116.89   15.00
   6  -1  -2   65.09    8.70
   6  -1  -2   55.39    8.40
  -6   1   2   57.19    8.80
  -6   1   2   66.29    9.20
   5  -1  -2  106.79    9.10
   5  -1  -2  114.79    9.10
  -5   1   2  121.79   10.10
  -5   1   2  106.89    9.20
  -5   1   2  106.29    7.00
   4  -1  -2   29.00    4.80
   4  -1  -2   43.90    5.70
  -4   1   2   37.10    5.20
  -4   1   2   35.10    4.40
  -4   1   2   36.80    5.10
   3  -1  -2    3.10    2.60
   3  -1  -2   -1.20    2.60
  -3   1   2   -1.50    2.40
  -3   1   2    3.00    2.50
  -3   1   2    0.50    2.10
   2  -1  -2  934.81   28.40
   2  -1  -2  917.21   28.20
  -2   1   2 1005.40   28.70
  -2   1   2  981.70   28.50
   1  -1  -2  335.07   11.10
   1  -1  -2  338.87   11.10
  -1   1   2  342.37   11.20
  -1   1   2  342.87   11.20
   0  -1  -2    8.70    1.50
   0   1   2   10.50    1.60
   0   1   2    7.90    1.40
  -1  -1  -2   -0.50    1.10
  -1  -1  -2    0.70    1.00
  -1  -1  -2    0.70    0.60
   1   1   2   -0.70    1.00
   1   1   2   -0.50    1.00
   1   1   2    0.30    1.20
  -2  -1  -2  711.13   21.20
  -2  -1  -2  719.43   20.80
  -2  -1  -2  706.93   21.20
   2   1   2  689.03   21.20
   2   1   2  733.83   20.80
   2   1   2  733.53   21.30
  -3  -1  -2  260.57    8.70
  -3  -1  -2  255.07    9.90
  -3  -1  -2  263.37    9.90
   3   1   2  252.17    9.80
   3   1   2  242.58    9.80
   3   1   2  252.87    8.70
  -4  -1  -2  462.85   16.70
  -4  -1  -2  504.25   17.10
  -4  -1  -2  474.85   14.80
   4   1   2  479.25   16.90
   4   1   2  462.55   16.70
  -5  -1  -2  389.36   12.70
  -5  -1  -2  372.46   15.20
  -5  -1  -2  390.66   15.50
   5   1   2  374.06   15.30
   5   1   2  382.66   15.40
  -6  -1  -2  155.08    6.90
  -6  -1  -2  154.18    7.80
  -6  -1  -2  150.58   10.30
  -6  -1  -2  138.39   10.40
   6   1   2  127.29   10.40
   6   1   2  142.99   10.40
  -7  -1  -2  100.39    7.80
  -7  -1  -2   89.59    6.20
  -7  -1  -2  106.69   12.40
  -7  -1  -2   97.59   11.30
   7   1   2  107.99   11.00
   7   1   2   98.19   11.10
  -8  -1  -2   50.49   10.60
  -8  -1  -2   49.50   10.40
  -8  -1  -2   43.20    6.20
   8   1   2   55.49    9.80
   8   1   2   51.49   10.20
   6  -2  -2  122.19   13.40
   6  -2  -2  139.29   12.80
  -6   2   2  131.49   14.50
  -6   2   2  130.89   15.10
   5  -2  -2  230.08   13.20
   5  -2  -2  202.88   13.50
  -5   2   2  212.58   13.30
  -5   2   2  217.18   13.50
   4  -2  -2   22.20    5.10
   4  -2  -2   30.70    5.50
  -4   2   2   30.00    5.50
  -4   2   2   43.20    6.40
   3  -2  -2   34.90    4.80
   3  -2  -2   34.60    4.70
  -3   2   2   42.90    5.30
  -3   2   2   42.10    5.40
   2  -2  -2   76.59    5.60
   2  -2  -2   83.09    5.50
  -2   2   2   87.59    5.70
  -2   2   2   87.89    5.80
   1  -2  -2   60.99    4.30
   1  -2  -2   63.79    4.50
  -1   2   2   62.79    4.50
  -1   2   2   68.89    4.40
   0  -2  -2 1501.05   44.50
   0  -2  -2 1594.64   44.70
   0   2   2 1660.23   44.80
   0   2   2 1621.54   44.70
  -1  -2  -2   47.50    3.40
  -1  -2  -2   53.79    3.50
   1   2   2   47.80    3.40
   1   2   2   55.49    3.50
  -2  -2  -2 1588.04   43.90
  -2  -2  -2 1558.54   43.90
   2   2   2 1596.84   43.90
   2   2   2 1484.65   43.80
  -3  -2  -2  149.29    7.00
  -3  -2  -2  148.39    7.00
   3   2   2  152.18    7.00
   3   2   2  155.18    7.10
   3   2   2  151.58    6.10
  -4  -2  -2   30.40    4.10
  -4  -2  -2   29.30    4.00
   4   2   2   30.00    2.90
   4   2   2   31.70    4.30
   4   2   2   31.40    4.30
  -5  -2  -2   49.60    6.40
  -5  -2  -2   39.60    5.50
   5   2   2   45.80    6.00
   5   2   2   45.40    5.70
  -6  -2  -2  357.16   15.60
  -6  -2  -2  342.27   15.60
   6   2   2  361.16   15.70
   6   2   2  355.36   15.50
  -7  -2  -2  552.04   22.90
  -7  -2  -2  523.45   18.90
  -7  -2  -2  532.85   22.10
   7   2   2  523.05   22.50
   7   2   2  546.35   22.10
  -8  -2  -2   15.50    5.20
  -8  -2  -2   30.70   10.60
  -8  -2  -2   24.90    8.40
   8   2   2   43.10   10.30
   8   2   2   24.30    8.60
   6  -3  -2  139.39   14.80
   6  -3  -2  127.29   15.00
  -6   3   2  143.79   17.20
  -6   3   2  177.68   17.60
   5  -3  -2    9.60    8.00
   5  -3  -2   -8.70    6.80
  -5   3   2    5.60    6.70
  -5   3   2   -0.20    7.10
   4  -3  -2   -9.00    4.30
   4  -3  -2    1.50    5.50
  -4   3   2    4.00    5.20
  -4   3   2    2.80    5.20
   3  -3  -2   37.10    5.90
   3  -3  -2   29.10    5.10
  -3   3   2   25.50    5.20
  -3   3   2   29.70    5.40
   2  -3  -2  223.78   10.70
   2  -3  -2  245.48   11.00
  -2   3   2  243.88   10.90
  -2   3   2  236.28   10.90
   1  -3  -2 1609.34   46.50
   1  -3  -2 1594.54   46.60
  -1   3   2 1635.04   46.60
  -1   3   2 1566.04   46.30
   0  -3  -2   83.09    5.40
   0  -3  -2   74.39    5.00
   0   3   2   86.29    5.30
   0   3   2   81.79    5.20
  -1  -3  -2 1317.37   38.70
  -1  -3  -2 1400.56   38.90
   1   3   2 1367.86   38.80
   1   3   2 1302.67   38.60
  -2  -3  -2   52.29    2.90
  -2  -3  -2   53.59    4.20
  -2  -3  -2   55.19    4.30
   2   3   2   54.99    4.20
   2   3   2   57.59    4.10
  -3  -3  -2   69.29    5.00
  -3  -3  -2   77.79    5.10
   3   3   2   67.29    5.00
   3   3   2   71.49    5.00
  -4  -3  -2  340.27   13.00
  -4  -3  -2  340.67   13.20
   4   3   2  307.17   12.70
   4   3   2  325.47   12.80
   4   3   2  336.57   11.30
  -5  -3  -2    0.60    3.10
  -5  -3  -2   -5.60    3.00
   5   3   2    4.60    3.40
   5   3   2    1.30    3.10
   5   3   2    1.80    1.70
  -6  -3  -2   41.00    6.20
  -6  -3  -2   53.39    7.00
   6   3   2   55.69    7.10
   6   3   2   62.29    7.20
  -7  -3  -2   65.39    8.60
  -7  -3  -2   59.39    8.70
   7   3   2   55.19    7.90
   7   3   2   47.60    8.20
  -8  -3  -2    5.40    8.00
  -8  -3  -2   10.70    4.60
  -8  -3  -2    1.60    7.30
   8   3   2   16.70    8.50
   8   3   2    7.70    7.00
  -9  -3  -2    7.00    5.50
  -9  -3  -2   21.10   11.10
   9   3   2   30.00   12.50
   5  -4  -2   21.30    8.90
   5  -4  -2   10.10    9.40
  -5   4   2   29.80    9.80
  -5   4   2   46.90   10.80
   4  -4  -2   54.79    8.70
   4  -4  -2   47.10    8.10
  -4   4   2   34.10    7.70
  -4   4   2   52.39    9.60
   3  -4  -2  230.58   12.80
   3  -4  -2  217.98   12.70
  -3   4   2  233.38   13.00
  -3   4   2  214.28   12.70
   2  -4  -2  765.22   26.10
   2  -4  -2  731.43   25.90
  -2   4   2  766.62   26.40
  -2   4   2  791.22   26.20
   1  -4  -2   25.50    4.40
   1  -4  -2   19.00    4.10
  -1   4   2   31.00    4.80
   0  -4  -2 1022.90   32.40
   0  -4  -2 1045.10   32.40
   0   4   2 1107.89   32.60
   0   4   2 1057.09   32.30
  -1  -4  -2 1244.28   36.70
  -1  -4  -2 1201.38   36.50
   1   4   2 1238.08   36.60
   1   4   2 1243.38   36.70
  -2  -4  -2  232.98    9.90
  -2  -4  -2  232.88    8.40
  -2  -4  -2  228.48   10.10
   2   4   2  248.58   10.10
   2   4   2  226.78    9.80
  -3  -4  -2  100.69    6.40
  -3  -4  -2  101.19    4.70
  -3  -4  -2  102.09    6.50
   3   4   2   95.89    6.30
   3   4   2  100.99    6.40
  -4  -4  -2  328.47   13.20
  -4  -4  -2  324.57   13.10
   4   4   2  295.37   12.70
   4   4   2  325.07   13.00
  -5  -4  -2   53.79    6.30
  -5  -4  -2   66.89    6.30
   5   4   2   55.59    4.60
   5   4   2   56.79    6.20
   5   4   2   48.00    6.20
  -6  -4  -2  337.47   15.50
  -6  -4  -2  314.17   14.90
   6   4   2  342.57   15.60
   6   4   2  326.07   11.30
   6   4   2  315.67   14.60
  -7  -4  -2   -7.00    5.70
  -7  -4  -2   -1.80    5.70
   7   4   2   -7.60    5.30
   7   4   2   -0.90    5.20
  -8  -4  -2   31.40    8.90
  -8  -4  -2    8.80    5.10
  -8  -4  -2   19.60    9.10
   8   4   2   20.70    9.30
   8   4   2    4.10    7.20
  -9  -4  -2   55.79    7.60
  -9  -4  -2   76.39   12.70
   9   4   2   88.79   12.80
   4  -5  -2   -2.30    8.20
   4  -5  -2    3.30    8.20
  -4   5   2   -3.70    8.70
  -4   5   2   -6.40    8.50
   3  -5  -2  109.39   11.20
   3  -5  -2  123.29   12.00
  -3   5   2  101.69   11.70
  -3   5   2   90.09   11.10
   2  -5  -2    4.30    5.00
   2  -5  -2   -2.00    5.60
  -2   5   2    2.70    5.20
   1  -5  -2 1340.47   45.30
   1  -5  -2 1591.04   46.20
  -1   5   2 1339.37   45.10
  -1   5   2 1701.43   46.50
   0  -5  -2   13.50    4.00
   0  -5  -2    8.90    3.70
   0   5   2    3.40    3.50
   0   5   2   15.00    4.10
  -1  -5  -2   86.79    7.10
  -1  -5  -2  105.39    7.10
   1   5   2   96.29    7.10
   1   5   2  101.09    7.10
  -2  -5  -2  131.69    8.20
  -2  -5  -2  157.48    8.50
  -2  -5  -2  157.58    7.20
   2   5   2  146.49    8.50
   2   5   2  151.18    8.60
  -3  -5  -2   64.79    6.10
  -3  -5  -2   65.59    4.60
  -3  -5  -2   60.39    6.40
   3   5   2   60.39    5.60
   3   5   2   60.39    5.90
  -4  -5  -2  684.83   23.20
  -4  -5  -2  670.33   23.10
   4   5   2  690.33   23.30
   4   5   2  667.33   23.00
  -5  -5  -2  204.08   10.60
  -5  -5  -2  199.08   10.80
   5   5   2  176.98   10.40
   5   5   2  190.88   10.50
  -6  -5  -2   23.90    5.90
  -6  -5  -2   26.60    6.40
   6   5   2   26.40    3.80
   6   5   2   32.10    5.90
   6   5   2   38.20    6.10
  -7  -5  -2  414.66   18.50
   7   5   2  397.26   13.20
   7   5   2  353.26   17.50
   7   5   2  399.96   18.00
  -8  -5  -2  108.49   13.50
  -8  -5  -2  110.79   13.00
   8   5   2   97.49   12.30
   8   5   2  118.79   14.50
  -9  -5  -2   12.10   10.30
  -9  -5  -2   -1.40    5.10
   9   5   2   -0.90   10.80
   3  -6  -2   10.70    8.60
   3  -6  -2   27.40    8.90
  -3   6   2   14.30    9.00
   2  -6  -2  132.69   13.80
   2  -6  -2  118.69   11.70
  -2   6   2  127.09   12.00
  -2   6   2  122.29   12.30
   1  -6  -2  112.29   10.40
   1  -6  -2  107.59   10.70
  -1   6   2  120.29   10.60
  -1   6   2  119.89   10.40
   0  -6  -2  146.09   10.20
   0  -6  -2  116.09    9.60
   0   6   2  122.59   10.20
   0   6   2  137.49   10.60
  -1  -6  -2   42.00    6.10
  -1  -6  -2   40.50    6.30
   1   6   2   41.40    6.10
   1   6   2   35.80    5.70
  -2  -6  -2   20.70    4.80
  -2  -6  -2   17.40    4.30
  -2  -6  -2   23.10    4.10
   2   6   2   18.90    4.60
   2   6   2   26.70    5.10
  -3  -6  -2  189.48   10.80
  -3  -6  -2  143.89    9.30
  -3  -6  -2  181.38    8.20
   3   6   2  190.18   10.10
   3   6   2  139.59    9.70
  -4  -6  -2  282.77   13.90
  -4  -6  -2  289.17   13.20
  -4  -6  -2  287.97   10.80
   4   6   2  272.67   13.00
   4   6   2  272.57   13.00
  -5  -6  -2  309.77   14.30
  -5  -6  -2  273.37   14.20
   5   6   2  309.57   14.50
   5   6   2  310.67   14.20
  -6  -6  -2 1467.05   45.50
   6   6   2 1406.86   45.30
   6   6   2 1455.25   45.40
  -7  -6  -2    0.00    6.90
   7   6   2    5.70    3.60
   7   6   2    1.00    6.40
   7   6   2   -2.70    6.00
  -8  -6  -2   17.60    8.50
  -8  -6  -2   -6.30    7.90
   8   6   2   11.50    3.20
   8   6   2  -11.70    8.00
   8   6   2   15.90    8.90
   2  -7  -2   21.10    9.70
   2  -7  -2   16.50    9.30
  -2   7   2   24.70   10.10
  -2   7   2   20.10    9.10
   1  -7  -2   -9.20    7.30
   1  -7  -2   10.60    7.70
  -1   7   2   -4.70    7.90
  -1   7   2   -8.20    7.00
   0  -7  -2   32.40    7.40
   0  -7  -2   39.20    7.80
   0   7   2   35.50    7.20
   0   7   2   27.80    7.40
  -1  -7  -2   13.50    5.80
  -1  -7  -2   12.50    6.30
   1   7   2   11.10    6.10
   1   7   2    1.40    5.10
  -2  -7  -2   67.59    8.60
  -2  -7  -2   69.69    7.50
   2   7   2   70.79    8.60
   2   7   2   76.79    9.30
  -3  -7  -2  287.87   14.40
  -3  -7  -2  292.47   12.20
   3   7   2  300.17   14.50
   3   7   2  284.47   14.10
  -4  -7  -2   77.59    6.80
  -4  -7  -2   74.69    8.60
   4   7   2   81.39    8.60
   4   7   2   63.39    8.20
  -5  -7  -2  651.63   24.10
   5   7   2  595.44   23.10
   5   7   2  599.64   23.50
  -6  -7  -2   24.90    7.40
   6   7   2   41.80    7.90
   6   7   2   39.00    7.20
  -7  -7  -2   19.70    7.50
  -7  -7  -2   16.30    8.50
   7   7   2   13.20    5.10
   7   7   2    9.80    7.10
   7   7   2   15.60    7.90
  -8  -7  -2   11.10    8.80
  -8  -7  -2   47.90   10.50
   8   7   2   59.19   10.40
   8   7   2   45.70    9.90
   8   7   2   32.70    5.30
   1  -8  -2   12.90    9.50
   1  -8  -2   31.70   10.40
  -1   8   2   20.30    9.40
  -1   8   2   -0.40   10.90
   0  -8  -2   22.80    9.70
   0  -8  -2   33.30   10.10
   0   8   2   33.60    9.80
   0   8   2   31.30    8.70
  -1  -8  -2   20.40    8.50
  -1  -8  -2   11.20    7.70
   1   8   2   25.00    7.90
   1   8   2    8.00    7.80
  -2  -8  -2   63.29    8.10
  -2  -8  -2   57.49    8.90
  -2  -8  -2   53.79   14.50
   2   8   2   75.09   10.00
   2   8   2   68.19    9.00
  -3  -8  -2    0.30    6.30
  -3  -8  -2    3.40    4.20
   3   8   2    3.00    5.90
   3   8   2    2.90    6.20
  -4  -8  -2   51.49    6.10
  -4  -8  -2   67.69    9.50
   4   8   2   58.99    8.10
   4   8   2   66.09    9.00
  -5  -8  -2    7.80    6.40
  -5  -8  -2    7.20    4.40
   5   8   2    3.30    6.20
   5   8   2    7.20    6.20
  -6  -8  -2  158.68   15.30
  -6  -8  -2  208.78   16.10
   6   8   2  197.68   13.90
   6   8   2  198.78   15.00
  -7  -8  -2   56.49   10.20
  -7  -8  -2   41.20   10.30
   7   8   2   36.90    8.60
   7   8   2   67.59   10.30
  -1  -9  -2   13.30   15.10
  -1  -9  -2   40.60   11.80
   1   9   2   55.29   12.70
  -2  -9  -2   34.30    6.50
  -2  -9  -2   49.10   10.40
  -2  -9  -2   31.20    9.40
   2   9   2   22.20    8.70
   2   9   2   14.10    9.50
  -3  -9  -2   10.30    5.40
  -3  -9  -2   15.40    9.90
  -3  -9  -2    9.80    8.60
   3   9   2    4.60    8.70
   3   9   2   -0.20    7.40
  -4  -9  -2   22.80    5.70
  -4  -9  -2   17.80    8.40
   4   9   2   41.40    9.10
   4   9   2   31.30    8.20
  -5  -9  -2   -8.60    7.80
  -5  -9  -2    5.90    8.60
  -5  -9  -2   -0.90    5.00
   5   9   2   -2.10    7.50
   5   9   2  -15.30    8.50
  -6  -9  -2   36.70   10.60
  -6  -9  -2   27.10   11.10
   6   9   2   32.10    9.80
   6   9   2   28.90    8.40
   5   9  -3   22.60    7.00
  -5  -9   3    5.60    5.90
  -5  -9   3   -1.60    6.30
   4   9  -3   12.90    6.80
   4   9  -3   26.70    7.30
  -4  -9   3    8.00    8.10
  -4  -9   3    3.30    7.70
  -4  -9   3    9.50    5.90
  -4  -9   3   16.80    7.30
   3   9  -3   18.90    7.20
   3   9  -3   36.10    7.80
  -3  -9   3   25.10    7.90
  -3  -9   3   28.80    6.30
  -3  -9   3   30.00    8.50
  -3  -9   3   11.80    6.10
   2   9  -3  125.29   12.70
   2   9  -3  140.59   12.60
  -2  -9   3  111.99   14.90
  -2  -9   3  112.59   13.50
  -2  -9   3  103.79   11.70
  -2  -9   3  116.49   10.80
   6   8  -3   66.59    7.90
   6   8  -3   66.69    8.20
  -6  -8   3   78.59    9.50
  -6  -8   3   63.49    9.50
   5   8  -3    5.90    5.30
   5   8  -3    4.90    5.10
  -5  -8   3    3.40    4.70
  -5  -8   3    1.40    5.20
  -5  -8   3   -9.00    6.40
  -5  -8   3   -2.10    5.70
   4   8  -3  276.27   13.20
   4   8  -3  244.28   12.80
  -4  -8   3  279.07   13.70
  -4  -8   3  266.27   14.10
  -4  -8   3  253.17   14.20
   3   8  -3  104.49    9.40
   3   8  -3   99.59    9.70
  -3  -8   3  131.69   10.10
  -3  -8   3  114.49   10.00
  -3  -8   3  108.19    9.60
   2   8  -3  166.08   11.30
   2   8  -3  173.38   11.60
  -2  -8   3  174.98   11.70
  -2  -8   3  176.38   12.90
  -2  -8   3  185.58   12.30
  -2  -8   3  185.68   11.30
   1   8  -3   11.50    5.80
   1   8  -3   13.50    6.30
  -1  -8   3   -0.60    6.10
  -1  -8   3    9.90    5.90
  -1  -8   3   13.40    5.30
  -1  -8   3    6.70    6.70
   0   8  -3   40.50    8.20
   0   8  -3   19.40    7.00
   0  -8   3   22.70    8.00
   0  -8   3   12.80    5.90
   0  -8   3   29.30    5.90
   0  -8   3   21.40    7.50
  -1   8  -3    8.90    8.50
  -1   8  -3   21.00    9.50
   1  -8   3   13.30    9.80
   1  -8   3   11.70    6.50
   1  -8   3   14.60    9.70
   7   7  -3   30.90    6.90
   7   7  -3   26.90    6.80
   7   7  -3   25.80    4.60
  -7  -7   3   35.70    7.70
  -7  -7   3   30.60    8.50
  -7  -7   3   31.20    6.70
   6   7  -3   -6.70    4.90
   6   7  -3    6.90    5.00
  -6  -7   3    2.50    5.40
  -6  -7   3    1.60    5.30
  -6  -7   3   -3.00    6.20
   5   7  -3  463.55   17.50
   5   7  -3  460.75   17.30
  -5  -7   3  462.45   19.90
  -5  -7   3  495.85   19.40
  -5  -7   3  481.05   18.30
   4   7  -3    8.20    3.90
   4   7  -3    8.40    4.10
  -4  -7   3    3.40    4.50
  -4  -7   3    2.20    4.60
  -4  -7   3    1.80    3.80
  -4  -7   3    7.40    4.30
   3   7  -3   95.19    7.60
   3   7  -3  102.69    7.60
  -3  -7   3   99.89    8.80
  -3  -7   3  122.19    8.20
  -3  -7   3  100.09    8.80
  -3  -7   3  111.49    9.20
   2   7  -3   69.19    7.30
   2   7  -3   73.69    7.20
  -2  -7   3   75.29    7.70
  -2  -7   3   73.49    8.20
  -2  -7   3   84.39    7.80
  -2  -7   3   62.69    7.60
   1   7  -3   18.20    4.90
   1   7  -3   26.50    5.10
  -1  -7   3   14.10    4.90
  -1  -7   3   14.50    5.10
  -1  -7   3   19.90    4.80
  -1  -7   3   19.00    5.90
   0   7  -3  159.08   11.10
   0   7  -3  154.48   10.70
   0  -7   3  167.48   11.80
   0  -7   3  166.38   11.50
   0  -7   3  191.08    9.80
  -1   7  -3   19.70    6.40
  -1   7  -3   22.40    7.10
   1  -7   3   27.80    8.20
   1  -7   3   21.00    4.50
   1  -7   3   33.00    7.60
   1  -7   3   18.60    6.50
  -2   7  -3   12.90    7.50
  -2   7  -3    2.30    7.60
   2  -7   3    7.50    8.20
   2  -7   3    1.60    8.50
   8   6  -3  100.89   17.20
   8   6  -3   72.49    9.70
  -8  -6   3   99.49   13.10
  -8  -6   3   77.19   10.40
   7   6  -3    5.80    5.80
   7   6  -3   -2.90    5.50
  -7  -6   3    6.00    5.20
  -7  -6   3    3.70    6.40
  -7  -6   3   -6.70    6.50
   6   6  -3   49.30    6.20
   6   6  -3   54.39    6.30
   6   6  -3   60.49    5.80
  -6  -6   3   53.79    6.80
  -6  -6   3   61.49    8.10
   5   6  -3    2.10    3.60
   5   6  -3    1.40    3.40
  -5  -6   3    0.10    3.60
  -5  -6   3    5.70    4.30
  -5  -6   3    0.70    4.10
   4   6  -3  163.18    8.30
   4   6  -3  165.18    8.00
  -4  -6   3  167.08   10.00
  -4  -6   3  158.68   10.40
  -4  -6   3  143.79    8.30
  -4  -6   3  165.48    8.70
   3   6  -3  183.98    8.50
   3   6  -3  162.28    8.00
  -3  -6   3  154.88    9.80
  -3  -6   3  174.88   10.20
  -3  -6   3  176.68    8.80
  -3  -6   3  178.48    8.80
   2   6  -3   21.30    3.60
   2   6  -3   19.00    3.70
  -2  -6   3   28.30    4.60
  -2  -6   3   26.70    4.10
  -2  -6   3   22.20    4.80
  -2  -6   3   24.80    4.20
   1   6  -3  134.79    7.70
   1   6  -3  135.09    7.80
  -1  -6   3  122.19    7.90
  -1  -6   3  136.69    8.10
  -1  -6   3  129.19    9.20
  -1  -6   3  146.09    8.20
   0   6  -3  186.58   10.00
   0   6  -3  177.08    9.70
   0  -6   3  177.18   10.30
   0  -6   3  189.38    9.00
   0  -6   3  185.18   10.90
   0  -6   3  182.78    9.80
  -1   6  -3   69.39    7.30
  -1   6  -3   64.09    8.30
   1  -6   3   85.99    8.70
   1  -6   3   77.49    9.20
   1  -6   3   86.49    6.30
  -2   6  -3   48.00    7.90
   2  -6   3   49.00    7.70
   2  -6   3   49.70    8.20
  -3   6  -3   19.30    7.50
  -3   6  -3   13.90    7.60
   3  -6   3    7.60    7.70
   3  -6   3   12.50    8.60
  -4   6  -3   96.39   14.10
   4  -6   3  111.59   14.10
   8   5  -3    8.60    7.10
   8   5  -3   11.50    8.00
  -8  -5   3   -0.10    5.10
  -8  -5   3   12.30    8.10
  -8  -5   3    8.20    8.80
   7   5  -3   -1.90    5.40
   7   5  -3   -3.90    5.50
  -7  -5   3    2.00    5.90
  -7  -5   3    3.10    6.40
  -7  -5   3    2.80    5.00
   6   5  -3    2.10    4.30
   6   5  -3    2.60    3.90
   6   5  -3    3.90    1.90
  -6  -5   3    1.30    4.50
  -6  -5   3    0.80    4.60
  -6  -5   3    7.90    4.50
   5   5  -3    8.50    3.40
   5   5  -3   11.70    3.10
   5   5  -3    8.10    3.30
  -5  -5   3    9.40    3.90
  -5  -5   3    6.00    4.10
  -5  -5   3    5.40    3.50
   4   5  -3  240.08    9.60
   4   5  -3  233.98    9.60
  -4  -5   3  228.08    9.90
  -4  -5   3  241.18   11.70
  -4  -5   3  238.78   10.00
  -4  -5   3  241.28   11.60
   3   5  -3   90.29    5.60
   3   5  -3  108.89    5.50
  -3  -5   3  102.39    7.40
  -3  -5   3   98.59    5.90
  -3  -5   3  107.59    6.10
  -3  -5   3   95.29    7.40
   2   5  -3   34.80    3.80
   2   5  -3   35.00    3.70
  -2  -5   3   40.40    4.30
  -2  -5   3   36.60    5.00
  -2  -5   3   34.00    4.50
  -2  -5   3   34.50    4.30
   1   5  -3   42.40    4.10
   1   5  -3   33.40    4.10
  -1  -5   3   30.90    4.90
  -1  -5   3   32.30    4.20
  -1  -5   3   40.50    5.00
  -1  -5   3   32.60    3.90
   0   5  -3    6.60    2.90
   0   5  -3    2.20    2.60
   0  -5   3    7.30    3.10
   0  -5   3    6.40    3.70
   0  -5   3    8.80    3.10
   0  -5   3    7.10    2.90
  -1   5  -3  225.88   10.60
   1  -5   3  230.58    9.10
   1  -5   3  243.28   11.40
   1  -5   3  234.98   11.30
  -2   5  -3   -1.30    4.40
  -2   5  -3    7.90    4.20
   2  -5   3    9.80    4.60
   2  -5   3    5.70    4.80
  -3   5  -3  589.34   23.10
  -3   5  -3  627.74   23.80
   3  -5   3  616.04   23.90
  -4   5  -3    7.20    7.40
  -4   5  -3   -1.10    7.30
   4  -5   3    6.70    7.00
   4  -5   3   17.00    7.80
  -5   5  -3   45.70   12.10
   5  -5   3   43.10   11.50
   8   4  -3   64.79    9.00
   8   4  -3   55.79    9.80
  -8  -4   3  104.39   14.10
  -8  -4   3   71.29    9.60
  -8  -4   3   58.29    9.60
   7   4  -3   18.30    6.60
   7   4  -3   27.50    6.30
  -7  -4   3   27.60    5.70
  -7  -4   3   13.10    6.40
  -7  -4   3   28.80    7.20
   6   4  -3   41.70    5.60
   6   4  -3   35.40    5.50
  -6  -4   3   40.70    6.20
  -6  -4   3   31.80    5.70
  -6  -4   3   44.00    6.60
   5   4  -3   80.69    6.10
   5   4  -3   70.49    3.90
   5   4  -3   82.09    6.10
  -5  -4   3   74.89    6.30
  -5  -4   3   76.09    7.60
  -5  -4   3   61.89    6.00
   4   4  -3  207.38    8.40
   4   4  -3  204.88    8.20
   4   4  -3  192.68    8.40
  -4  -4   3  209.38   10.30
  -4  -4   3  211.38    8.90
  -4  -4   3  205.58    8.70
   3   4  -3   33.00    3.20
   3   4  -3   34.10    3.20
  -3  -4   3   34.80    3.60
  -3  -4   3   44.60    5.50
  -3  -4   3   39.00    5.20
  -3  -4   3   26.60    3.60
   2   4  -3   75.19    4.00
   2   4  -3   72.19    4.00
  -2  -4   3   71.89    5.80
  -2  -4   3   71.79    4.30
  -2  -4   3   65.19    5.50
  -2  -4   3   73.99    4.40
   1   4  -3  106.19    5.00
   1   4  -3   99.39    4.90
  -1  -4   3  105.49    6.20
  -1  -4   3  100.19    5.30
  -1  -4   3  107.19    6.60
  -1  -4   3  101.89    5.30
   0   4  -3   76.19    4.80
   0   4  -3   66.49    4.70
   0  -4   3   79.09    5.10
   0  -4   3   81.19    5.30
   0  -4   3   68.99    6.20
   0  -4   3   82.39    5.10
  -1   4  -3  125.89    7.10
  -1   4  -3  127.39    7.20
   1  -4   3  131.59    7.30
   1  -4   3  126.49    7.30
   1  -4   3  122.59    5.90
  -2   4  -3  402.56   15.70
  -2   4  -3  406.96   15.50
   2  -4   3  385.36   15.40
   2  -4   3  406.86   15.40
  -3   4  -3    3.00    4.60
  -3   4  -3    6.00    4.60
   3  -4   3    3.60    4.30
  -4   4  -3    3.60    5.40
  -4   4  -3    1.70    5.80
  -5   4  -3    8.40    7.50
  -5   4  -3   -0.60    7.60
   5  -4   3   11.00    7.70
   5  -4   3    4.10    9.10
   8   3  -3   26.90    8.30
   8   3  -3   -4.40    8.70
  -8  -3   3    8.70    8.70
  -8  -3   3   12.50    5.20
  -8  -3   3   31.90    9.50
   7   3  -3  108.99   10.10
   7   3  -3  116.29   11.00
  -7  -3   3  106.39   12.00
  -7  -3   3  100.39    9.40
  -7  -3   3  129.79   11.20
   6   3  -3    1.70    4.50
   6   3  -3   11.00    4.60
  -6  -3   3    9.10    5.20
  -6  -3   3    7.90    4.50
  -6  -3   3    8.90    4.20
   5   3  -3  226.88   10.70
   5   3  -3  255.37   10.90
  -5  -3   3  254.57   11.80
  -5  -3   3  276.57   11.30
  -5  -3   3  256.67   11.10
   4   3  -3   91.39    4.10
   4   3  -3   78.69    5.10
   4   3  -3   85.79    5.20
  -4  -3   3   78.69    6.90
  -4  -3   3   86.19    5.50
  -4  -3   3   93.69    5.60
   3   3  -3   91.59    4.80
   3   3  -3   97.89    4.50
   3   3  -3   91.79    4.50
  -3  -3   3   79.79    4.50
  -3  -3   3   91.19    6.20
  -3  -3   3   90.49    4.80
   2   3  -3 1380.26   38.90
   2   3  -3 1434.96   39.00
  -2  -3   3 1407.46   41.30
  -2  -3   3 1426.06   39.20
  -2  -3   3 1477.65   41.40
   1   3  -3    1.40    1.00
   1   3  -3    1.80    1.20
  -1  -3   3    3.30    1.30
  -1  -3   3    1.20    2.20
  -1  -3   3    2.90    2.30
   0   3  -3    0.90    1.30
   0  -3   3   -1.20    2.20
   0  -3   3    0.40    2.00
   0  -3   3    0.00    1.60
   0  -3   3    1.30    1.50
  -1   3  -3  389.36   13.30
  -1   3  -3  377.56   13.20
   1  -3   3  404.86   13.50
   1  -3   3  370.26   13.30
   1  -3   3  415.66   12.30
  -2   3  -3    2.30    3.00
  -2   3  -3    1.30    2.40
   2  -3   3    1.50    2.50
   2  -3   3    1.00    2.80
  -3   3  -3  129.39    9.00
  -3   3  -3  142.99    9.00
   3  -3   3  137.69    8.50
   3  -3   3  152.18    8.80
  -4   3  -3   40.20    6.10
  -4   3  -3   37.70    6.30
   4  -3   3   39.80    6.50
  -5   3  -3   51.79    8.10
  -5   3  -3   45.90    7.80
   5  -3   3   45.60    8.40
   5  -3   3   41.60    8.20
  -6   3  -3   29.60    9.30
  -6   3  -3   -4.30    8.10
   6  -3   3    7.80    8.70
   6  -3   3   22.10   10.00
   8   2  -3   18.40    8.30
   8   2  -3   10.20    9.00
  -8  -2   3   10.80    9.50
  -8  -2   3   11.50    5.30
  -8  -2   3   21.50   10.10
   7   2  -3   15.70    6.40
   7   2  -3   34.90    7.60
  -7  -2   3   23.20    7.50
  -7  -2   3    8.00    7.20
  -7  -2   3   23.20    5.60
   6   2  -3  192.08   11.30
   6   2  -3  201.48   11.20
  -6  -2   3  203.28   11.70
  -6  -2   3  186.18   10.90
  -6  -2   3  205.68   11.30
   5   2  -3  525.95   18.80
   5   2  -3  540.55   18.90
  -5  -2   3  567.94   19.20
  -5  -2   3  550.54   19.50
  -5  -2   3  541.55   19.10
   4   2  -3   18.20    3.10
   4   2  -3   21.00    3.20
  -4  -2   3   21.40    4.00
  -4  -2   3   18.70    3.30
  -4  -2   3   22.90    3.50
   3   2  -3   18.10    2.30
   3   2  -3   16.60    2.00
   3   2  -3   19.40    2.70
  -3  -2   3   17.10    2.50
  -3  -2   3   18.20    2.60
  -3  -2   3   19.50    3.60
   2   2  -3   19.80    1.90
   2   2  -3   22.10    2.70
   2   2  -3   21.10    1.80
  -2  -2   3   19.00    3.20
  -2  -2   3   17.90    2.00
  -2  -2   3   21.90    3.20
  -1  -2   3    8.50    2.20
  -1  -2   3   11.20    2.40
  -1  -2   3    8.50    1.00
   0   2  -3   28.80    2.20
   0   2  -3   42.10    2.30
   0  -2   3   37.30    3.70
   0  -2   3   37.60    3.30
   0  -2   3   37.10    2.30
  -1   2  -3  112.69    5.10
  -1   2  -3  110.09    5.00
   1  -2   3  103.39    5.20
   1  -2   3  111.49    5.10
   1  -2   3  112.99    4.70
  -2   2  -3 2031.20   55.79
  -2   2  -3 1948.71   55.59
   2  -2   3 2013.30   55.79
   2  -2   3 1918.61   55.59
  -3   2  -3   16.60    3.80
  -3   2  -3   15.50    3.40
   3  -2   3   17.60    3.50
   3  -2   3   10.50    3.70
  -4   2  -3  104.99    8.20
  -4   2  -3  121.99    8.40
   4  -2   3  123.79    8.40
   4  -2   3  123.39    9.30
  -5   2  -3   33.40    6.50
  -5   2  -3   47.80    6.90
   5  -2   3   37.70    7.00
   5  -2   3   43.30    6.90
  -6   2  -3    2.20    5.20
  -6   2  -3    4.70    6.90
  -6   2  -3    4.40    6.60
   6  -2   3  -11.60    7.90
   6  -2   3    3.80    7.30
  -7   2  -3   -6.10    7.40
  -7   2  -3   23.00    9.90
  -7   2  -3   -3.40    8.90
   7  -2   3    6.30    9.30
   7  -2   3    9.50    9.80
   7   1  -3   17.50    6.80
   7   1  -3   22.90    6.70
  -7  -1   3   25.40    8.10
  -7  -1   3   23.30    6.90
  -7  -1   3   23.60    5.60
   6   1  -3  124.99   10.30
   6   1  -3  137.29   10.20
  -6  -1   3  134.09    8.90
  -6  -1   3  133.69   10.70
   5   1  -3   10.90    4.10
   5   1  -3   11.40    3.80
  -5  -1   3   11.60    4.10
  -5  -1   3    9.70    3.70
  -5  -1   3   12.60    3.80
   4   1  -3  116.39    6.70
   4   1  -3  118.59    6.90
  -4  -1   3  118.89    4.60
  -4  -1   3  123.79    7.30
  -4  -1   3  114.19    7.10
  -4  -1   3  119.59    7.00
   3   1  -3  112.49    5.40
   3   1  -3  103.79    5.30
  -3  -1   3  108.39    6.20
  -3  -1   3  101.49    5.40
  -3  -1   3   99.29    4.40
  -3  -1   3  102.19    5.50
   2   1  -3   49.50    3.10
   2   1  -3   52.39    2.90
   2   1  -3   50.39    2.90
  -2  -1   3   52.59    3.20
  -2  -1   3   44.10    3.10
  -2  -1   3   56.29    4.30
  -2  -1   3   49.30    3.00
   1   1  -3 1670.33   46.20
   1   1  -3 1719.63   48.00
   1   1  -3 1705.43   46.20
  -1  -1   3 1676.93   46.40
  -1  -1   3 1778.92   46.50
  -1  -1   3 1759.72   48.40
  -1  -1   3 1759.62   48.00
  -1  -1   3 1804.72   48.30
   0   1  -3  398.26   11.00
   0   1  -3  406.86   13.10
   0   1  -3  417.26   11.10
   0  -1   3  401.06   11.20
   0  -1   3  401.16   11.20
   0  -1   3  343.57   12.40
   0  -1   3  417.76   12.50
  -1   1  -3  432.06   13.20
  -1   1  -3  448.86   13.30
  -1   1  -3  430.86   14.40
   1  -1   3  436.96   13.30
   1  -1   3  450.75   13.90
   1  -1   3  433.26   13.30
  -2   1  -3  105.19    5.40
  -2   1  -3  103.19    5.40
  -2   1  -3  102.89    5.90
   2  -1   3  110.09    5.50
   2  -1   3  106.99    5.40
  -3   1  -3  142.99    7.30
  -3   1  -3  141.49    7.40
  -3   1  -3  129.29    7.00
   3  -1   3  147.99    7.40
   3  -1   3  130.99    7.10
  -4   1  -3  102.19    7.40
  -4   1  -3  107.49    7.80
  -4   1  -3   96.49    6.80
   4  -1   3   95.69    7.30
   4  -1   3  100.49    7.70
  -5   1  -3  172.28    6.40
  -5   1  -3  196.48    9.80
  -5   1  -3  175.88   10.80
  -5   1  -3  177.08   11.10
   5  -1   3  172.68   10.80
   5  -1   3  182.18   11.00
  -6   1  -3   35.70    7.10
  -6   1  -3   32.50    7.40
  -6   1  -3   47.00    6.20
   6  -1   3   27.80    7.00
   6  -1   3   45.00    8.00
  -7   1  -3    5.60    8.00
  -7   1  -3   12.40    9.30
  -7   1  -3    6.00    5.50
   7  -1   3    5.60    8.10
   7  -1   3   -6.20    7.70
   7   0  -3   68.79    9.80
   7   0  -3   54.89    9.80
  -7   0   3   49.20    6.70
  -7   0   3   50.49   10.30
  -7   0   3   67.59   10.80
   6   0  -3   12.40    6.40
   6   0  -3   15.20    5.40
  -6   0   3   17.90    6.50
  -6   0   3   12.40    2.50
  -6   0   3   17.00    4.50
   5   0  -3   51.29    6.80
   5   0  -3   41.10    6.00
  -5   0   3   49.70    4.00
  -5   0   3   40.10    5.00
  -5   0   3   43.40    5.90
  -5   0   3   45.80    6.00
   4   0  -3   76.59    6.30
   4   0  -3   76.19    6.20
  -4   0   3   71.59    6.40
  -4   0   3   80.39    6.60
  -4   0   3   73.99    4.40
  -4   0   3   76.19    5.90
   3   0  -3 1071.69   31.90
   3   0  -3 1077.89   31.90
  -3   0   3 1033.30   31.70
  -3   0   3 1034.20   30.60
  -3   0   3 1136.69   32.20
  -3   0   3 1115.49   32.10
   2   0  -3   50.79    3.50
   2   0  -3   57.49    3.50
  -2   0   3   53.99    3.60
  -2   0   3   46.60    4.00
  -2   0   3   51.99    3.70
  -2   0   3   44.50    3.30
   1   0  -3  265.27    8.30
   1   0  -3  250.67    8.30
  -1   0   3  261.97    8.30
  -1   0   3  243.18    8.90
  -1   0   3  277.57    8.50
  -1   0   3  266.77    9.20
   0   0  -3 2565.84   67.29
   0   0  -3 2506.35   68.49
   0   0  -3 2552.14   67.19
   0   0   3 2593.04   67.99
   0   0   3 2526.85   67.29
   0   0   3 2528.85   68.49
   0   0   3 2265.87   67.69
  -1   0  -3    0.20    0.90
  -1   0  -3    0.80    1.00
  -1   0  -3    2.10    1.60
   1   0   3   -0.50    1.00
   1   0   3   -0.30    1.30
   1   0   3    0.80    1.20
   1   0   3   -0.20    1.10
  -2   0  -3  698.73   20.40
  -2   0  -3  703.93   20.70
  -2   0  -3  663.93   20.30
   2   0   3  660.53   20.50
   2   0   3  654.43   20.30
   2   0   3  672.13   20.40
  -3   0  -3   23.60    3.20
  -3   0  -3   21.00    3.10
  -3   0  -3   15.60    2.90
   3   0   3   22.20    3.50
   3   0   3   28.80    3.70
  -4   0  -3  306.67   12.60
  -4   0  -3  312.87   11.50
  -4   0  -3  288.97   12.40
   4   0   3  296.97   12.50
   4   0   3  328.27   12.80
  -5   0  -3  252.87   12.30
  -5   0  -3  252.27   10.50
  -5   0  -3  254.47   12.20
   5   0   3  259.97   12.40
   5   0   3  243.48   12.30
  -6   0  -3    5.50    3.20
  -6   0  -3    9.70    5.40
  -6   0  -3   -2.50    3.30
  -6   0  -3    0.50    5.00
   6   0   3   -1.20    5.10
   6   0   3    9.60    5.90
  -7   0  -3  258.27   13.10
  -7   0  -3  326.77   17.50
  -7   0  -3  327.47   12.10
  -7   0  -3  328.47   17.70
   7   0   3  297.57   17.60
   7   0   3  335.37   17.90
  -8   0  -3   -4.00    9.50
  -8   0  -3    2.80   10.20
  -8   0  -3   -5.80    5.40
   8   0   3    0.40    9.70
   8   0   3   -1.20    9.90
   7  -1  -3   -1.10    8.40
   7  -1  -3   -0.20    8.90
  -7   1   3  -18.80   10.00
  -7   1   3    2.20    4.20
  -7   1   3   18.20   10.00
   6  -1  -3  149.88   12.30
   6  -1  -3  169.88   13.40
  -6   1   3  167.48   13.30
   5  -1  -3   -0.90    5.00
   5  -1  -3    4.60    4.50
  -5   1   3   -3.90    4.60
   4  -1  -3  289.27   13.00
   4  -1  -3  309.07   13.20
  -4   1   3  309.17   13.70
  -4   1   3  281.17   12.80
   3  -1  -3  149.99    8.20
   3  -1  -3  152.08    7.80
  -3   1   3  161.18    8.10
  -3   1   3  151.88    7.90
   2  -1  -3  104.09    5.90
   2  -1  -3  135.19    6.50
  -2   1   3  132.49    6.50
  -2   1   3  120.19    6.30
   1  -1  -3   -0.50    1.50
   1  -1  -3    3.10    1.50
  -1   1   3    2.00    1.50
  -1   1   3    1.30    1.60
   0  -1  -3  974.70   28.00
   0   1   3  965.70   28.00
   0   1   3  966.90   28.60
   0   1   3 1045.10   28.20
  -1  -1  -3  348.27   11.00
  -1  -1  -3  330.27   11.30
  -1  -1  -3  333.87    9.90
   1   1   3  338.17   10.90
   1   1   3  356.56   11.50
   1   1   3  327.27   10.90
  -2  -1  -3   79.89    4.40
  -2  -1  -3   80.79    4.40
  -2  -1  -3   85.39    4.60
   2   1   3   79.89    4.50
   2   1   3   86.19    4.60
   2   1   3   87.79    4.70
  -3  -1  -3    3.40    2.10
  -3  -1  -3    5.20    2.30
  -3  -1  -3    6.20    1.90
   3   1   3    3.70    1.90
   3   1   3    4.80    2.40
   3   1   3    4.50    2.30
  -4  -1  -3    9.20    3.30
  -4  -1  -3   12.50    2.60
  -4  -1  -3   10.40    3.10
   4   1   3   15.20    3.60
   4   1   3   12.70    3.30
  -5  -1  -3    7.80    3.70
  -5  -1  -3   -2.30    3.20
  -5  -1  -3    9.70    2.70
   5   1   3    7.10    3.90
   5   1   3    1.00    3.50
  -6  -1  -3  281.47   14.20
  -6  -1  -3  302.07   11.10
  -6  -1  -3  269.27   14.00
   6   1   3  252.37   13.70
   6   1   3  252.77   13.60
  -7  -1  -3   76.39    6.90
  -7  -1  -3   62.19    9.10
  -7  -1  -3   75.89    7.00
  -7  -1  -3   70.59    9.30
   7   1   3   74.19    9.70
   7   1   3   71.59    9.70
  -8  -1  -3    4.00    5.10
  -8  -1  -3   15.60    9.90
  -8  -1  -3    2.10    4.20
  -8  -1  -3    7.00    8.80
   8   1   3    0.30    9.80
   8   1   3    3.00    9.60
   6  -2  -3   47.80   10.10
   6  -2  -3   34.70    8.50
  -6   2   3   33.10    9.20
  -6   2   3   29.10    8.90
   5  -2  -3  140.59   11.30
   5  -2  -3  171.48   11.60
  -5   2   3  151.68   13.10
   4  -2  -3    2.60    4.10
   4  -2  -3    6.00    4.80
  -4   2   3    7.10    4.70
  -4   2   3   23.50    5.60
   3  -2  -3  329.07   13.50
   3  -2  -3  305.77   13.30
  -3   2   3  317.17   13.40
  -3   2   3  348.37   13.80
   2  -2  -3   -0.90    2.10
   2  -2  -3   -2.00    2.60
  -2   2   3    1.50    2.60
  -2   2   3   -0.60    2.20
   1  -2  -3  597.54   18.80
   1  -2  -3  598.34   18.80
  -1   2   3  578.04   18.70
  -1   2   3  549.15   18.60
   0  -2  -3  341.47   12.00
   0  -2  -3  353.66   12.20
   0   2   3  375.16   12.30
   0   2   3  353.86   12.10
  -1  -2  -3  310.27   10.60
  -1  -2  -3  296.67   10.60
   1   2   3  302.87   10.60
   1   2   3  298.97   10.50
  -2  -2  -3 1244.68   36.80
  -2  -2  -3 1212.08   36.70
   2   2   3 1331.97   37.10
   2   2   3 1290.07   36.80
   2   2   3 1340.97   37.10
  -3  -2  -3  130.89    6.60
  -3  -2  -3  124.39    6.60
   3   2   3  134.49    6.90
   3   2   3  127.89    6.00
   3   2   3  122.29    6.50
  -4  -2  -3   59.99    5.40
  -4  -2  -3   63.19    5.40
   4   2   3   67.19    5.50
   4   2   3   65.69    4.40
   4   2   3   59.59    5.50
  -5  -2  -3   26.00    4.70
  -5  -2  -3   32.30    5.10
   5   2   3   32.90    5.30
   5   2   3   26.20    4.80
  -6  -2  -3   63.09    7.90
  -6  -2  -3   76.09    7.90
   6   2   3   65.79    7.70
   6   2   3   57.09    7.60
  -7  -2  -3    1.50    5.60
  -7  -2  -3   16.40    7.30
   7   2   3    4.90    5.90
   7   2   3   -5.30    5.60
  -8  -2  -3    0.10    8.00
  -8  -2  -3    5.20    4.70
  -8  -2  -3    9.70    8.30
   8   2   3   13.00    7.90
   8   2   3    8.60    8.80
   6  -3  -3   31.80   11.00
  -6   3   3   14.80   11.30
   5  -3  -3   21.20    7.30
   5  -3  -3   21.20    8.80
  -5   3   3    4.80    8.00
  -5   3   3    4.40    7.60
   4  -3  -3   45.30    7.70
   4  -3  -3   30.00    6.50
  -4   3   3   43.00    7.80
  -4   3   3   32.40    7.10
   3  -3  -3  175.18   10.50
   3  -3  -3  192.68   11.10
  -3   3   3  179.68   10.80
  -3   3   3  166.68   10.30
   2  -3  -3    4.10    3.10
   2  -3  -3   -0.70    3.10
  -2   3   3    1.80    3.10
  -2   3   3    3.70    3.20
   1  -3  -3  525.25   18.60
   1  -3  -3  565.04   18.90
  -1   3   3  565.24   18.90
   0  -3  -3   89.49    5.70
   0  -3  -3   92.79    5.90
   0   3   3   94.29    5.80
   0   3   3   92.39    5.80
  -1  -3  -3   36.00    3.90
  -1  -3  -3   40.70    4.00
   1   3   3   41.20    3.90
   1   3   3   42.80    3.90
  -2  -3  -3  597.74   19.90
  -2  -3  -3  651.23   20.10
   2   3   3  642.84   20.00
   2   3   3  605.24   19.90
  -3  -3  -3  373.26   14.10
  -3  -3  -3  410.66   14.30
   3   3   3  389.26   13.60
   3   3   3  387.76   14.20
   3   3   3  396.16   14.20
  -4  -3  -3  342.07   13.50
  -4  -3  -3  326.87   13.40
   4   3   3  346.57   12.30
   4   3   3  350.16   13.60
   4   3   3  348.27   13.50
  -5  -3  -3   33.20    5.30
  -5  -3  -3   34.00    5.10
   5   3   3   27.40    4.90
   5   3   3   38.80    5.50
   5   3   3   37.20    4.10
  -6  -3  -3  126.29    9.50
  -6  -3  -3  136.29    9.90
   6   3   3  138.69    9.80
   6   3   3  146.69   10.60
  -7  -3  -3    4.20    6.60
  -7  -3  -3    5.90    6.00
   7   3   3    0.70    6.20
   7   3   3   -3.10    5.70
  -8  -3  -3   11.40    8.60
  -8  -3  -3    5.70    8.10
   8   3   3   20.50    8.60
   8   3   3   36.50    8.70
   5  -4  -3   13.90    8.90
   5  -4  -3   17.70    9.80
  -5   4   3   22.40    9.30
  -5   4   3   10.00    9.70
   4  -4  -3   37.30    8.00
   4  -4  -3   21.00    7.60
  -4   4   3   16.70    7.60
  -4   4   3   18.20    7.50
   3  -4  -3  101.59    9.60
   3  -4  -3  106.29   10.10
  -3   4   3  113.69   10.10
  -3   4   3  105.59   10.10
   2  -4  -3  596.44   22.00
   2  -4  -3  631.64   22.40
  -2   4   3  589.74   22.50
  -2   4   3  599.74   22.00
   1  -4  -3   94.39    7.90
   1  -4  -3  105.89    7.70
  -1   4   3   95.99    7.40
  -1   4   3  116.99    8.20
   0  -4  -3  556.74   19.50
   0  -4  -3  560.74   19.60
   0   4   3  568.04   19.60
   0   4   3  569.34   19.50
  -1  -4  -3   37.10    4.70
  -1  -4  -3   26.00    4.10
   1   4   3   30.70    4.10
   1   4   3   33.10    4.50
  -2  -4  -3   44.30    5.20
  -2  -4  -3   46.20    4.90
   2   4   3   41.80    4.70
   2   4   3   47.80    4.90
  -3  -4  -3 1074.99   33.00
  -3  -4  -3 1055.99   33.00
  -3  -4  -3 1088.69   29.60
   3   4   3 1070.69   33.00
   3   4   3 1084.19   33.00
  -4  -4  -3  115.89    7.60
  -4  -4  -3  109.79    7.50
   4   4   3  128.19    7.70
   4   4   3  127.99    6.90
   4   4   3  126.59    7.90
  -5  -4  -3   43.50    6.00
  -5  -4  -3   45.00    6.20
   5   4   3   41.80    4.80
   5   4   3   46.20    6.10
   5   4   3   43.00    6.10
  -6  -4  -3  371.96   16.50
  -6  -4  -3  383.36   16.60
   6   4   3  365.46   13.30
   6   4   3  376.26   16.40
   6   4   3  371.56   16.50
  -7  -4  -3    8.30    7.20
  -7  -4  -3    7.70    6.10
   7   4   3   16.10    5.90
   7   4   3   -0.90    5.40
  -8  -4  -3   85.19   11.10
  -8  -4  -3  107.19   14.60
   8   4   3  110.29   13.80
   8   4   3  121.89   13.50
  -9  -4  -3    5.40    5.30
  -9  -4  -3   -6.00   10.10
   9   4   3   22.30   11.10
   4  -5  -3   -8.10    7.70
   4  -5  -3   14.70    8.90
  -4   5   3   18.60    9.30
  -4   5   3   10.10    9.50
   3  -5  -3   33.20    7.70
   3  -5  -3   11.50    7.60
  -3   5   3   26.90    7.70
  -3   5   3   22.50    7.50
   2  -5  -3   25.20    6.10
   2  -5  -3   24.30    6.20
  -2   5   3   27.70    6.40
  -2   5   3   13.00    6.10
   1  -5  -3  684.63   26.00
   1  -5  -3  784.72   26.30
  -1   5   3  773.92   26.30
  -1   5   3  737.53   26.10
   0  -5  -3  104.69    8.30
   0  -5  -3  124.29    8.70
   0   5   3  124.79    8.60
   0   5   3  145.89    9.00
  -1  -5  -3  213.18   11.10
  -1  -5  -3  222.18   10.90
   1   5   3  205.98   10.60
   1   5   3  210.18   10.60
  -2  -5  -3  505.15   18.70
  -2  -5  -3  509.35   18.80
   2   5   3  528.05   18.80
   2   5   3  533.55   18.80
  -3  -5  -3  195.58    7.60
  -3  -5  -3  201.48   10.30
  -3  -5  -3  218.78   10.80
   3   5   3  196.28   10.00
   3   5   3  207.38   10.40
  -4  -5  -3  118.29    8.10
  -4  -5  -3  120.49    8.80
   4   5   3  119.49    8.10
   4   5   3  112.59    8.10
  -5  -5  -3   14.80    4.70
  -5  -5  -3   27.00    5.10
   5   5   3   22.00    4.20
   5   5   3   30.10    5.40
   5   5   3   16.20    5.20
  -6  -5  -3    6.90    4.80
  -6  -5  -3   -3.10    4.70
   6   5   3    6.20    3.40
   6   5   3   -1.80    4.60
   6   5   3    4.50    4.90
  -7  -5  -3   10.70    6.60
  -7  -5  -3   18.60    6.90
   7   5   3   23.90    7.20
   7   5   3   13.70    3.60
   7   5   3    5.40    6.30
  -8  -5  -3   77.89   10.70
  -8  -5  -3   56.09   10.60
   8   5   3   98.99   13.60
   8   5   3   88.69   11.60
  -9  -5  -3   89.09   14.10
   9   5   3  111.49   14.30
   3  -6  -3    8.90    8.80
   3  -6  -3   26.30   10.70
  -3   6   3    6.00    8.90
  -3   6   3   21.20    9.50
   2  -6  -3  432.46   20.20
   2  -6  -3  442.66   21.70
  -2   6   3  402.76   20.20
  -2   6   3  413.36   20.10
   1  -6  -3  219.08   13.80
   1  -6  -3  202.88   12.90
  -1   6   3  187.28   12.90
  -1   6   3  183.28   12.50
   0  -6  -3  552.84   21.90
   0  -6  -3  539.05   21.30
   0   6   3  519.75   21.10
   0   6   3  542.45   21.20
  -1  -6  -3    3.30    4.50
  -1  -6  -3   -8.30    4.70
   1   6   3   -2.90    4.20
   1   6   3   10.30    4.50
  -2  -6  -3    0.70    4.20
  -2  -6  -3    8.70    4.50
   2   6   3   13.90    4.70
   2   6   3   17.80    4.70
  -3  -6  -3    8.40    4.40
  -3  -6  -3    2.90    2.90
  -3  -6  -3    1.40    3.80
   3   6   3    2.50    4.20
   3   6   3   10.70    4.30
  -4  -6  -3  302.17   14.10
  -4  -6  -3  303.97   10.80
  -4  -6  -3  285.97   14.20
   4   6   3  309.97   14.10
   4   6   3  315.17   14.30
  -5  -6  -3  145.09   10.30
  -5  -6  -3  149.79   10.40
   5   6   3  130.69   10.00
   5   6   3  141.29    9.90
  -6  -6  -3   -4.60    5.90
  -6  -6  -3    9.80    5.80
   6   6   3    1.80    5.00
   6   6   3   15.50    4.40
   6   6   3    3.80    5.40
  -7  -6  -3   17.20    7.60
  -7  -6  -3   17.50    7.10
   7   6   3   23.80    7.90
   7   6   3   20.40    4.60
   7   6   3   24.60    7.40
  -8  -6  -3    0.80    8.50
  -8  -6  -3   10.40    9.30
   8   6   3   -4.80    9.10
   8   6   3   -9.20    7.60
   8   6   3    2.20    4.20
   2  -7  -3   22.80   10.30
   2  -7  -3   22.70    9.30
  -2   7   3   11.90    9.70
  -2   7   3    3.30    9.00
   1  -7  -3  297.37   18.90
   1  -7  -3  292.07   18.30
  -1   7   3  296.47   18.00
  -1   7   3  316.97   17.70
   0  -7  -3   -7.50    6.50
   0  -7  -3    2.10    6.30
   0   7   3   15.60    7.30
   0   7   3    7.10    6.60
  -1  -7  -3   41.70    8.00
  -1  -7  -3   51.39    8.30
   1   7   3   48.70    7.70
   1   7   3   34.80    7.70
  -2  -7  -3   11.00    5.90
  -2  -7  -3    5.20    5.70
   2   7   3    7.70    6.00
   2   7   3   13.40    5.30
  -3  -7  -3   11.60    6.20
  -3  -7  -3   24.90    7.00
  -3  -7  -3   22.10    4.30
   3   7   3   21.00    6.00
   3   7   3   14.10    5.20
  -4  -7  -3  645.94   24.90
  -4  -7  -3  664.93   21.20
  -4  -7  -3  643.64   25.20
   4   7   3  684.83   24.90
   4   7   3  702.33   25.00
  -5  -7  -3   82.39   10.80
   5   7   3   76.59    9.10
   5   7   3   88.09   10.30
  -6  -7  -3   -1.40    7.80
  -6  -7  -3   13.40    6.60
   6   7   3   12.80    6.70
   6   7   3    8.70    6.70
  -7  -7  -3   48.00    9.70
  -7  -7  -3   49.30    9.80
   7   7   3   55.59    7.20
   7   7   3   27.30    8.90
   7   7   3   46.70    9.70
  -8  -7  -3   45.70   10.20
  -8  -7  -3   78.29   11.00
   8   7   3   65.29    7.20
   8   7   3   46.10    9.80
   8   7   3   67.79   12.50
   1  -8  -3   -8.50    9.90
   1  -8  -3    6.20   10.80
  -1   8   3    7.70   10.70
   0  -8  -3    2.80    9.40
   0  -8  -3    3.20    8.70
   0   8   3  -10.30    8.00
   0   8   3   -1.70   10.00
  -1  -8  -3  138.69   13.90
  -1  -8  -3  143.99   13.70
   1   8   3  120.09   13.10
   1   8   3  166.78   16.10
  -2  -8  -3    1.40    8.00
  -2  -8  -3    6.70    4.90
  -2  -8  -3   -0.30    6.50
   2   8   3   -4.00    7.00
   2   8   3    8.80    6.70
  -3  -8  -3  106.39    8.70
  -3  -8  -3  114.49   12.80
   3   8   3   93.29   12.20
   3   8   3   86.99   11.50
  -4  -8  -3    6.00    4.50
  -4  -8  -3   -5.60    6.30
  -4  -8  -3  -10.80    7.50
   4   8   3    9.80    6.60
   4   8   3   -0.70    6.60
  -5  -8  -3   19.20    8.00
  -5  -8  -3    8.70    7.80
  -5  -8  -3   10.40    4.40
   5   8   3   16.60    7.60
   5   8   3   18.40    7.40
  -6  -8  -3  421.56   21.10
  -6  -8  -3  472.05   22.00
   6   8   3  387.26   19.90
   6   8   3  435.46   21.50
  -7  -8  -3   44.60   10.40
  -7  -8  -3   32.20    9.60
   7   8   3   30.50    7.70
   7   8   3   25.00    9.70
   7   8   3   48.50    9.30
  -1  -9  -3   13.80   11.10
   1   9   3   17.00   11.10
  -2  -9  -3   15.80    9.60
  -2  -9  -3   19.20    6.30
  -2  -9  -3   30.50   10.50
   2   9   3   13.30   11.10
   2   9   3   41.50   10.50
  -3  -9  -3   -7.70    9.50
  -3  -9  -3   27.50    9.80
  -3  -9  -3   16.20    5.70
   3   9   3   21.50    9.80
   3   9   3   13.10    9.40
  -4  -9  -3    1.10    5.10
  -4  -9  -3   -1.20    8.20
   4   9   3    3.50   10.00
   4   9   3   18.10    8.70
  -5  -9  -3  431.86   22.60
  -5  -9  -3  454.45   23.90
  -5  -9  -3  500.45   18.20
   5   9   3  462.15   24.10
   5   9   3  477.65   22.30
  -6  -9  -3   13.90    9.50
   6   9   3   12.80   10.10
   6   9   3    2.60   11.50
   3   9  -4  120.29   12.10
  -3  -9   4  109.29   13.60
  -3  -9   4   92.19   11.30
  -3  -9   4  112.79   11.00
   6   8  -4   28.20    6.30
  -6  -8   4    6.80    6.60
  -6  -8   4   16.10    8.00
   5   8  -4   16.50    5.40
   5   8  -4   24.10    5.40
  -5  -8   4   10.60    6.70
  -5  -8   4   13.00    6.50
  -5  -8   4   20.60    6.30
   4   8  -4  244.18   12.00
   4   8  -4  236.88   11.90
  -4  -8   4  232.18   19.40
  -4  -8   4  220.48   13.90
  -4  -8   4  254.27   13.90
   3   8  -4   24.00    5.00
   3   8  -4   20.60    5.60
  -3  -8   4   26.50    6.00
  -3  -8   4    9.50    5.10
  -3  -8   4   18.40    6.20
   2   8  -4    5.90    5.20
   2   8  -4   13.10    5.50
  -2  -8   4   17.70    6.70
  -2  -8   4   13.60    6.30
  -2  -8   4   28.70    7.50
  -2  -8   4   14.70    5.50
   1   8  -4  352.66   16.30
   1   8  -4  332.17   15.50
  -1  -8   4  360.26   18.10
  -1  -8   4  332.37   16.40
  -1  -8   4  309.67   16.50
  -1  -8   4  310.27   14.90
   0   8  -4  152.88   13.30
   0   8  -4  168.48   12.70
   0  -8   4  152.98   13.30
   0  -8   4  159.98   11.10
   0  -8   4  168.18   14.60
   0  -8   4  196.28   14.10
   7   7  -4    0.80    7.30
   7   7  -4   -2.20    6.20
  -7  -7   4    1.00    6.00
  -7  -7   4   -5.90    7.80
   6   7  -4   81.49    8.90
   6   7  -4   75.79    8.40
   6   7  -4   74.39    8.50
  -6  -7   4   74.09   10.20
  -6  -7   4   90.59   10.40
   5   7  -4   63.69    6.90
   5   7  -4   69.49    7.20
  -5  -7   4   49.00    6.60
  -5  -7   4   58.99    7.80
  -5  -7   4   60.39    7.70
   4   7  -4    4.30    3.60
   4   7  -4    7.60    3.80
  -4  -7   4    2.10    4.90
  -4  -7   4    3.10    4.40
  -4  -7   4    2.90    4.50
   3   7  -4    4.60    3.60
   3   7  -4    4.10    3.60
  -3  -7   4   -1.90    4.40
  -3  -7   4    1.00    4.70
  -3  -7   4   -1.20    4.30
  -3  -7   4    3.20    4.10
   2   7  -4  111.79    7.70
   2   7  -4  123.69    7.60
  -2  -7   4  119.29    9.30
  -2  -7   4  115.79    9.90
  -2  -7   4  130.39    8.60
  -2  -7   4  119.99    8.60
   1   7  -4  299.97   13.10
   1   7  -4  298.47   13.20
  -1  -7   4  315.07   15.40
  -1  -7   4  263.37   13.90
  -1  -7   4  308.97   13.50
  -1  -7   4  317.17   13.90
   0   7  -4  188.58   10.90
   0   7  -4  162.58   11.40
   0  -7   4  184.78   11.60
   0  -7   4  176.38   10.10
   0  -7   4  179.88   12.50
  -1   7  -4    4.20    6.40
  -1   7  -4   10.60    5.90
   1  -7   4   13.40    7.00
   1  -7   4    1.40    6.00
   1  -7   4    2.80    5.50
   1  -7   4    7.30    4.50
  -2   7  -4   49.10    9.70
  -2   7  -4   38.80    8.20
   2  -7   4   45.10    9.00
   2  -7   4   35.90    9.40
   7   6  -4   53.49    7.30
   7   6  -4   49.99    7.10
  -7  -6   4   51.89    8.40
  -7  -6   4   74.79    9.70
   6   6  -4   -2.30    4.00
   6   6  -4    3.40    4.20
   6   6  -4    0.30    3.50
  -6  -6   4   -7.30    4.50
   5   6  -4  314.87   12.40
   5   6  -4  317.27   13.40
   5   6  -4  325.47   12.40
  -5  -6   4  322.47   15.80
  -5  -6   4  320.47   13.20
  -5  -6   4  331.07   13.30
   4   6  -4  352.96   12.50
   4   6  -4  375.56   12.60
  -4  -6   4  340.27   15.10
  -4  -6   4  301.77   12.70
  -4  -6   4  350.46   15.50
  -4  -6   4  357.96   13.30
   3   6  -4  116.69    6.30
   3   6  -4  108.89    6.40
  -3  -6   4  114.99    8.90
  -3  -6   4  100.59    8.50
  -3  -6   4  120.29    7.10
   2   6  -4  260.97   10.30
   2   6  -4  259.67   10.30
  -2  -6   4  269.27   13.10
  -2  -6   4  260.67   12.40
  -2  -6   4  273.27   11.00
  -2  -6   4  276.17   11.10
   1   6  -4  245.18   10.40
   1   6  -4  252.07   10.30
  -1  -6   4  225.88   12.20
  -1  -6   4  240.78   10.80
  -1  -6   4  241.08   11.00
  -1  -6   4  241.98   11.40
   0   6  -4    2.10    3.80
   0   6  -4    1.90    3.70
   0  -6   4    3.00    3.60
   0  -6   4   -4.30    3.60
   0  -6   4   -2.70    3.70
   0  -6   4   -4.80    3.70
  -1   6  -4   11.00    4.70
  -1   6  -4   13.60    5.10
   1  -6   4    7.50    6.00
   1  -6   4   11.80    5.00
   1  -6   4    8.90    3.70
   1  -6   4    8.70    4.60
  -2   6  -4   54.99    8.00
   2  -6   4   41.30    7.80
   2  -6   4   42.20    7.60
  -3   6  -4    5.50    7.40
  -3   6  -4   -1.10    8.00
   3  -6   4   19.00    8.30
   3  -6   4   16.10    8.30
   7   5  -4   -0.20    5.30
   7   5  -4   -0.50    5.70
  -7  -5   4   15.10    6.70
  -7  -5   4   -6.10    4.80
  -7  -5   4    3.90    6.20
   6   5  -4   77.69    7.80
   6   5  -4   74.09    4.70
   6   5  -4   85.69    7.40
  -6  -5   4   70.69    8.10
  -6  -5   4   81.09    7.80
  -6  -5   4   87.09    9.20
   5   5  -4  572.74   18.60
   5   5  -4  568.14   18.50
   5   5  -4  571.24   18.50
  -5  -5   4  562.24   19.10
  -5  -5   4  575.74   19.10
  -5  -5   4  545.25   21.70
   4   5  -4    5.00    2.50
   4   5  -4    5.70    2.50
  -4  -5   4   -1.80    3.60
  -4  -5   4    6.00    3.00
  -4  -5   4    4.80    2.70
   3   5  -4  316.27   10.60
   3   5  -4  313.87   10.50
  -3  -5   4  314.17   11.00
  -3  -5   4  308.27   13.40
  -3  -5   4  295.57   11.00
  -3  -5   4  298.27   13.50
   2   5  -4    4.10    2.00
   2   5  -4   -2.10    2.10
  -2  -5   4    4.50    2.30
  -2  -5   4    2.80    3.50
  -2  -5   4    0.70    2.30
  -2  -5   4   -0.50    3.10
   1   5  -4  233.08    8.90
   1   5  -4  232.98    9.00
  -1  -5   4  240.78    9.50
  -1  -5   4  227.68   10.50
  -1  -5   4  233.68   11.60
  -1  -5   4  226.18    9.40
   0   5  -4   85.29    5.80
   0   5  -4   78.69    5.70
   0  -5   4   67.09    5.90
   0  -5   4   80.79    6.30
   0  -5   4   76.09    6.10
   0  -5   4   60.69    6.80
  -1   5  -4   -6.90    3.30
   1  -5   4    0.90    3.80
   1  -5   4    6.00    3.50
   1  -5   4    7.20    3.80
   1  -5   4    4.60    3.00
  -2   5  -4   22.50    5.20
  -2   5  -4   29.70    5.70
   2  -5   4   29.50    5.70
   2  -5   4   24.80    5.40
  -3   5  -4  155.18   11.70
  -3   5  -4  128.39   11.60
   3  -5   4  116.39   11.10
   3  -5   4  138.69   11.50
  -4   5  -4   75.39    9.80
   4  -5   4   79.99   10.80
   4  -5   4   65.29   10.10
   8   4  -4   30.10    8.60
   8   4  -4   16.00    7.90
  -8  -4   4   14.80    8.90
  -8  -4   4   36.20    9.20
  -8  -4   4   50.59    7.70
   7   4  -4  133.89   10.60
   7   4  -4  125.69   11.10
  -7  -4   4  105.39    9.60
  -7  -4   4  120.79   11.80
  -7  -4   4  125.89   10.70
   6   4  -4  735.13   24.20
   6   4  -4  723.73   24.10
  -6  -4   4  737.93   24.50
  -6  -4   4  754.02   24.80
  -6  -4   4  674.93   25.70
   5   4  -4   18.00    2.70
   5   4  -4   14.10    3.50
   5   4  -4   15.30    3.60
  -5  -4   4   11.40    3.70
  -5  -4   4   22.90    5.40
  -5  -4   4   25.30    4.10
   4   4  -4   20.80    2.90
   4   4  -4   15.40    3.20
   4   4  -4   15.60    2.70
  -4  -4   4   14.00    3.00
  -4  -4   4   17.10    3.00
  -4  -4   4   14.80    4.10
   3   4  -4  113.39    4.90
   3   4  -4  109.89    4.80
  -3  -4   4  110.79    5.30
  -3  -4   4  116.69    7.80
  -3  -4   4  107.89    7.80
   2   4  -4  191.88    6.40
   2   4  -4  183.08    6.30
  -2  -4   4  185.78    9.10
  -2  -4   4  189.08    9.50
   1   4  -4   75.29    4.00
   1   4  -4   73.09    3.80
  -1  -4   4   72.49    5.70
  -1  -4   4   69.59    4.90
  -1  -4   4   71.59    5.90
  -1  -4   4   73.09    4.20
   0   4  -4  162.78    6.90
   0   4  -4  163.88    6.90
   0  -4   4  155.78    7.40
   0  -4   4  156.18    8.70
   0  -4   4  155.08    7.10
   0  -4   4  152.28    7.10
  -1   4  -4   85.99    6.00
  -1   4  -4   90.89    5.90
   1  -4   4   87.69    6.00
   1  -4   4   81.79    5.90
   1  -4   4   88.79    5.50
   1  -4   4   88.49    7.10
  -2   4  -4  147.89    9.10
  -2   4  -4  178.28    9.30
   2  -4   4  173.48    9.50
   2  -4   4  182.68    9.70
  -3   4  -4    9.30    4.80
  -3   4  -4   12.00    5.00
   3  -4   4    8.20    4.60
   3  -4   4   10.20    4.80
  -4   4  -4   46.50    7.90
  -4   4  -4   43.00    7.60
   4  -4   4   40.80    7.40
  -5   4  -4   -0.10    7.30
  -5   4  -4    3.00    8.60
   5  -4   4    8.70    9.00
   5  -4   4    9.50    7.70
   8   3  -4   33.50    9.40
   8   3  -4   34.20    8.20
  -8  -3   4   34.90   10.20
  -8  -3   4   35.20   10.20
   7   3  -4   43.00    7.60
   7   3  -4   48.00    7.40
  -7  -3   4   36.60    8.00
  -7  -3   4   45.40    7.40
  -7  -3   4   38.90    6.30
   6   3  -4    4.20    4.30
   6   3  -4    3.90    4.40
  -6  -3   4   -0.20    4.10
  -6  -3   4    4.70    4.40
  -6  -3   4    6.70    4.70
   5   3  -4   14.40    3.50
   5   3  -4   17.20    3.50
  -5  -3   4   10.80    3.70
  -5  -3   4   20.20    3.70
  -5  -3   4    9.60    4.30
   4   3  -4  132.49    6.30
   4   3  -4  137.39    6.30
   4   3  -4  127.19    6.00
  -4  -3   4  122.59    6.70
  -4  -3   4  130.09    6.70
  -4  -3   4  127.29    8.50
   3   3  -4  845.72   23.10
   3   3  -4  790.92   23.10
   3   3  -4  803.32   24.40
  -3  -3   4  788.02   26.00
  -3  -3   4  822.92   23.50
   2   3  -4  678.43   18.60
   2   3  -4  682.83   21.70
   2   3  -4  717.03   18.70
  -2  -3   4  681.73   19.30
  -2  -3   4  674.93   19.30
  -2  -3   4  718.73   22.40
  -2  -3   4  665.43   22.30
   1   3  -4  278.87    8.20
   1   3  -4  284.87    8.20
  -1  -3   4  291.97   11.50
  -1  -3   4  288.27   10.90
  -1  -3   4  281.37    8.70
  -1  -3   4  293.07    8.80
   0   3  -4  235.88    7.90
   0  -3   4  229.28    8.10
   0  -3   4  234.38    9.00
   0  -3   4  232.98    8.20
   0  -3   4  225.18    9.90
  -1   3  -4   14.30    2.50
  -1   3  -4   11.00    2.40
   1  -3   4    8.90    3.20
   1  -3   4   11.60    2.60
   1  -3   4   13.00    2.70
   1  -3   4   14.10    2.60
  -2   3  -4  662.73   21.90
  -2   3  -4  689.33   21.90
   2  -3   4  687.43   22.10
   2  -3   4  662.93   21.90
  -3   3  -4  652.43   22.50
  -3   3  -4  628.54   22.30
   3  -3   4  664.13   22.50
   3  -3   4  663.63   22.50
  -4   3  -4    0.30    4.30
  -4   3  -4   -0.80    4.10
   4  -3   4    7.90    5.30
  -5   3  -4  198.88   12.80
  -5   3  -4  184.18   12.80
   5  -3   4  162.88   14.10
  -6   3  -4    4.40    8.20
  -6   3  -4    5.40    9.70
   6  -3   4   -5.40    8.30
   6  -3   4    7.00    8.50
   7   2  -4    1.80    6.70
   7   2  -4    8.30    6.20
  -7  -2   4    4.70    4.50
  -7  -2   4   12.80    7.00
  -7  -2   4   12.50    7.40
   6   2  -4   39.00    6.00
   6   2  -4   49.80    6.20
  -6  -2   4   32.50    5.50
  -6  -2   4   29.50    6.10
   5   2  -4   53.09    5.70
   5   2  -4   37.10    4.90
  -5  -2   4   32.30    5.20
  -5  -2   4   45.80    5.60
  -5  -2   4   39.90    5.30
   4   2  -4  567.84   18.00
   4   2  -4  536.05   17.80
  -4  -2   4  559.24   19.80
  -4  -2   4  549.05   18.20
  -4  -2   4  582.44   18.40
   3   2  -4    3.80    1.70
   3   2  -4    4.00    1.50
   3   2  -4    3.30    1.90
  -3  -2   4    4.30    1.90
  -3  -2   4    5.20    1.90
  -3  -2   4    2.80    2.70
   2   2  -4  105.89    3.60
   2   2  -4  112.29    3.60
   2   2  -4  105.39    5.60
  -2  -2   4  105.79    4.00
  -2  -2   4  116.89    6.40
  -2  -2   4  108.09    4.00
   1   2  -4  320.77   11.60
  -1  -2   4  301.67   11.30
  -1  -2   4  317.27   11.60
   0   2  -4  551.74   15.00
   0   2  -4  533.75   15.00
   0   2  -4  538.15   17.80
   0  -2   4  543.95   16.70
   0  -2   4  506.55   15.40
   0  -2   4  534.45   15.30
   0  -2   4  525.05   17.30
  -1   2  -4  526.55   16.20
  -1   2  -4  542.35   16.20
   1  -2   4  515.55   17.50
   1  -2   4  520.65   16.30
   1  -2   4  538.55   16.20
   1  -2   4  536.55   16.40
  -2   2  -4 1417.36   40.10
  -2   2  -4 1345.57   39.90
   2  -2   4 1350.36   40.10
   2  -2   4 1439.76   40.30
  -3   2  -4  271.57   11.60
  -3   2  -4  272.97   11.60
   3  -2   4  266.57   11.60
   3  -2   4  262.07   11.60
  -4   2  -4    4.90    4.30
  -4   2  -4    1.20    3.80
  -4   2  -4   -1.70    3.80
   4  -2   4    2.20    3.70
   4  -2   4    7.60    4.10
  -5   2  -4   15.70    6.20
  -5   2  -4   10.60    5.20
  -5   2  -4   19.20    5.30
   5  -2   4   26.00    6.20
  -6   2  -4  137.09   13.70
  -6   2  -4  148.59   12.20
  -6   2  -4  168.48   14.60
   6  -2   4  152.78   15.20
   6  -2   4  131.19   14.00
  -7   2  -4   91.99   13.10
   7  -2   4  105.99   14.80
   7  -2   4  103.29   14.00
   7   1  -4  124.49   12.80
   7   1  -4  101.19   12.20
  -7  -1   4  115.09   13.20
  -7  -1   4  104.79    9.60
  -7  -1   4  116.39   13.90
   6   1  -4   27.40    6.60
   6   1  -4   36.50    6.40
  -6  -1   4   31.50    5.90
  -6  -1   4   31.00    6.60
   5   1  -4  460.25   17.60
   5   1  -4  480.65   17.50
  -5  -1   4  463.85   17.70
  -5  -1   4  466.45   17.60
  -5  -1   4  477.45   17.80
   4   1  -4  322.67   12.30
   4   1  -4  332.27   12.50
  -4  -1   4  323.77   13.20
  -4  -1   4  326.97   12.60
  -4  -1   4  328.57   10.80
  -4  -1   4  330.27   12.70
   3   1  -4   75.89    4.70
   3   1  -4   75.79    4.60
  -3  -1   4   74.19    4.40
  -3  -1   4   82.39    4.90
  -3  -1   4   79.29    4.90
  -3  -1   4   81.39    5.70
   2   1  -4    3.10    1.30
   2   1  -4   -0.20    1.70
   2   1  -4    1.40    1.20
  -2  -1   4    2.00    1.30
  -2  -1   4    3.80    1.60
  -2  -1   4    1.80    1.80
  -2  -1   4    6.00    2.40
   1   1  -4    3.80    1.80
  -1  -1   4    2.30    2.00
  -1  -1   4    2.40    1.80
  -1  -1   4    5.00    2.10
  -1  -1   4    1.60    0.70
  -1  -1   4    2.60    0.80
   0   1  -4 3204.28   90.19
   0   1  -4 3462.55   92.99
   0   1  -4 3303.27   90.29
   0  -1   4 3321.97   90.49
   0  -1   4 3466.35   92.29
   0  -1   4 3517.55   92.49
   0  -1   4 3385.46   90.49
   0  -1   4 3495.85   92.99
  -1   1  -4 2413.46   66.99
  -1   1  -4 2443.06   68.79
  -1   1  -4 2457.45   66.99
   1  -1   4 2457.25   67.09
   1  -1   4 2513.65   67.09
   1  -1   4 2523.95   67.99
  -2   1  -4    1.80    1.60
  -2   1  -4   -1.90    2.20
  -2   1  -4    2.10    1.90
   2  -1   4    0.10    1.90
   2  -1   4    1.80    1.90
  -3   1  -4   87.79    6.10
  -3   1  -4   87.59    5.80
  -3   1  -4   83.99    6.00
   3  -1   4   87.09    6.00
   3  -1   4   87.49    6.30
  -4   1  -4    2.30    3.10
  -4   1  -4    0.30    3.10
  -4   1  -4    0.50    3.20
   4  -1   4    1.80    3.10
   4  -1   4   -1.70    3.20
  -5   1  -4  208.28   11.50
  -5   1  -4  188.48   11.40
  -5   1  -4  196.88   10.80
   5  -1   4  191.48   11.40
   5  -1   4  218.58   12.00
  -6   1  -4  255.67   13.10
  -6   1  -4  258.07   15.70
  -6   1  -4  251.27   14.60
   6  -1   4  268.77   15.40
   6  -1   4  256.67   15.80
  -7   1  -4  144.69   14.40
  -7   1  -4  153.18   12.50
  -7   1  -4  172.18   16.90
   7  -1   4  207.38   15.70
   7  -1   4  128.29   15.30
   7   0  -4  -10.90    8.10
   7   0  -4    8.80    9.10
  -7   0   4   -2.10    8.10
  -7   0   4    7.30    9.80
  -7   0   4    4.80    5.50
   6   0  -4   61.79    8.60
   6   0  -4   58.09    8.00
  -6   0   4   68.29    8.70
  -6   0   4   44.50    8.00
  -6   0   4   70.09    5.10
  -6   0   4   59.19    6.70
   5   0  -4   29.40    5.60
   5   0  -4   31.30    6.00
  -5   0   4   43.30    6.20
  -5   0   4   39.40    6.20
  -5   0   4   33.40    5.20
  -5   0   4   37.30    4.40
   4   0  -4   31.60    4.40
   4   0  -4   29.80    4.30
  -4   0   4   31.20    4.90
  -4   0   4   29.00    3.90
  -4   0   4   30.20    4.90
  -4   0   4   24.40    4.10
   3   0  -4   67.29    5.10
   3   0  -4   78.49    5.30
  -3   0   4   77.29    5.70
  -3   0   4   67.09    5.50
  -3   0   4   72.89    5.30
  -3   0   4   74.69    4.80
   2   0  -4   13.10    2.20
   2   0  -4   18.10    2.40
  -2   0   4   27.40    3.30
  -2   0   4   16.80    2.70
  -2   0   4   16.30    2.90
  -2   0   4   14.00    2.30
   1   0  -4  109.79    4.40
   1   0  -4  105.69    4.40
   1   0  -4   93.09    5.20
  -1   0   4  109.79    4.50
  -1   0   4  114.49    5.60
  -1   0   4   98.89    5.30
   0   0  -4 1059.49   31.80
   0   0  -4 1138.09   30.30
   0   0  -4 1119.19   30.30
   0   0   4 1089.89   30.30
   0   0   4 1044.90   30.40
   0   0   4 1116.69   32.00
  -1   0  -4   26.20    2.30
  -1   0  -4   25.30    3.50
  -1   0  -4   29.00    2.40
   1   0   4   27.40    2.50
   1   0   4   25.30    2.40
   1   0   4   29.30    2.80
   1   0   4   26.70    3.30
  -2   0  -4  599.54   18.50
  -2   0  -4  587.14   19.20
  -2   0  -4  610.74   18.60
   2   0   4  607.44   18.60
   2   0   4  580.84   18.50
   2   0   4  607.84   19.30
  -3   0  -4    1.90    2.10
  -3   0  -4    2.00    2.40
  -3   0  -4    0.50    2.20
   3   0   4   -2.50    2.30
   3   0   4   -0.90    2.10
  -4   0  -4 1248.58   37.70
  -4   0  -4 1265.37   37.70
  -4   0  -4 1227.18   36.90
   4   0   4 1290.07   37.80
   4   0   4 1169.48   37.50
  -5   0  -4  223.98   11.80
  -5   0  -4  212.28   12.10
  -5   0  -4  229.48   10.50
   5   0   4  234.98   12.10
   5   0   4  245.58   12.00
  -6   0  -4   92.89    9.30
  -6   0  -4   78.69    9.30
  -6   0  -4   95.69    7.90
   6   0   4   81.39    9.90
   6   0   4  105.79   11.40
  -7   0  -4   28.50    5.80
  -7   0  -4   27.80    4.90
  -7   0  -4   30.20    8.50
  -7   0  -4   33.20    8.60
   7   0   4   44.90    9.40
   7   0   4   42.70    8.50
  -8   0  -4   -2.80    6.30
  -8   0  -4   -3.10    9.30
  -8   0  -4  -13.40    9.50
   8   0   4    6.60   10.20
   8   0   4   11.20    9.40
   6  -1  -4    2.30    6.80
   6  -1  -4   -2.00    7.20
  -6   1   4  -11.00    7.70
  -6   1   4   -5.10    6.80
  -6   1   4    1.60    4.00
   5  -1  -4  439.56   18.40
   5  -1  -4  416.46   17.90
  -5   1   4  426.96   18.80
   4  -1  -4    2.30    4.00
   4  -1  -4   -6.90    3.50
  -4   1   4    7.00    4.20
  -4   1   4   -4.40    3.90
   3  -1  -4   43.00    4.80
   3  -1  -4   50.59    5.10
  -3   1   4   64.19    5.80
  -3   1   4   54.69    5.70
   2  -1  -4   81.49    5.30
   2  -1  -4   80.89    5.10
  -2   1   4   80.09    5.10
  -2   1   4   82.19    5.60
   1  -1  -4   84.69    4.70
   1  -1  -4   86.39    4.70
  -1   1   4   80.99    4.80
  -1   1   4   83.69    5.20
   0  -1  -4    7.30    1.80
   0   1   4    7.50    2.20
   0   1   4    7.80    1.80
   0   1   4    6.00    1.70
  -1  -1  -4 1500.15   44.00
  -1  -1  -4 1555.94   43.20
  -1  -1  -4 1529.25   43.10
   1   1   4 1536.45   43.20
   1   1   4 1612.54   44.20
   1   1   4 1540.25   43.20
  -2  -1  -4   27.90    3.60
  -2  -1  -4   32.10    3.30
  -2  -1  -4   25.90    3.20
   2   1   4   25.70    3.10
   2   1   4   31.00    2.40
   2   1   4   26.80    3.40
   2   1   4   31.80    3.20
  -3  -1  -4   29.60    4.00
  -3  -1  -4   34.90    4.00
  -3  -1  -4   31.30    4.10
   3   1   4   34.60    4.00
   3   1   4   35.30    3.90
   3   1   4   33.90    4.00
  -4  -1  -4  165.58    8.70
  -4  -1  -4  182.48    9.20
  -4  -1  -4  172.08    8.20
   4   1   4  170.68    8.90
   4   1   4  179.28    9.20
  -5  -1  -4  138.19    9.20
  -5  -1  -4  133.49    7.50
  -5  -1  -4  119.69    8.50
   5   1   4  123.09    8.50
   5   1   4  124.29    8.60
  -6  -1  -4   19.00    5.60
  -6  -1  -4    8.70    3.80
  -6  -1  -4   10.60    5.20
   6   1   4   12.90    5.60
   6   1   4    9.80    5.30
  -7  -1  -4   43.10    8.10
  -7  -1  -4   51.89    6.20
  -7  -1  -4   60.19    9.00
   7   1   4   62.09    9.00
   7   1   4   56.79    9.60
  -8  -1  -4  209.28   18.60
  -8  -1  -4  250.87   18.40
  -8  -1  -4  226.78   12.10
   8   1   4  261.57   18.20
   8   1   4  229.68   17.80
   6  -2  -4   39.20    8.80
   6  -2  -4   26.40    9.30
  -6   2   4   25.90   10.10
  -6   2   4   18.80    8.70
   5  -2  -4   16.00    5.90
   5  -2  -4   -0.20    6.20
  -5   2   4    3.60    7.10
   4  -2  -4   12.50    5.50
   4  -2  -4   10.20    5.00
  -4   2   4    3.60    5.20
   3  -2  -4  270.27   12.30
   3  -2  -4  271.37   12.20
  -3   2   4  282.87   12.80
  -3   2   4  248.28   11.90
   2  -2  -4   29.10    4.20
   2  -2  -4   36.10    4.90
  -2   2   4   34.10    4.40
  -2   2   4   25.20    3.90
   1  -2  -4  313.47   11.90
   1  -2  -4  311.27   12.00
  -1   2   4  332.87   12.10
  -1   2   4  334.27   12.10
   0  -2  -4   71.99    4.50
   0  -2  -4   64.39    4.40
   0   2   4   71.49    4.60
   0   2   4   62.29    4.40
  -1  -2  -4  174.48    7.60
  -1  -2  -4  190.48    7.70
   1   2   4  189.68    7.70
   1   2   4  191.48    8.40
   1   2   4  179.38    7.60
  -2  -2  -4  627.74   19.50
  -2  -2  -4  626.34   19.50
   2   2   4  626.34   19.80
   2   2   4  623.84   19.60
   2   2   4  562.84   19.30
  -3  -2  -4 1507.35   43.50
  -3  -2  -4 1476.55   43.50
   3   2   4 1520.05   43.70
   3   2   4 1470.05   43.50
   3   2   4 1530.55   40.20
   3   2   4 1491.35   43.20
  -4  -2  -4    8.60    2.90
  -4  -2  -4    7.10    3.20
  -4  -2  -4    2.30    3.00
   4   2   4    9.70    3.30
   4   2   4    6.50    3.00
   4   2   4    9.70    2.50
  -5  -2  -4   24.30    4.90
  -5  -2  -4   15.90    3.30
  -5  -2  -4   25.80    4.70
   5   2   4   18.60    4.50
   5   2   4   21.10    3.60
   5   2   4   24.00    4.50
  -6  -2  -4  303.77   14.80
  -6  -2  -4  313.57   12.30
  -6  -2  -4  285.27   14.40
   6   2   4  319.87   14.90
   6   2   4  316.77   15.50
  -7  -2  -4  675.53   27.40
  -7  -2  -4  721.33   27.50
   7   2   4  715.23   27.00
   7   2   4  700.23   27.00
  -8  -2  -4   20.60    9.10
  -8  -2  -4   15.20   10.00
   8   2   4   17.40    9.10
   8   2   4   23.80   10.10
   5  -3  -4   27.50    8.60
   5  -3  -4   21.40    7.70
  -5   3   4   23.60    8.20
  -5   3   4   26.90    8.60
   4  -3  -4  440.96   18.90
   4  -3  -4  429.66   19.00
  -4   3   4  435.36   19.30
   3  -3  -4    3.10    5.00
   3  -3  -4    5.00    4.50
  -3   3   4    8.60    4.80
  -3   3   4   -1.90    4.10
   2  -3  -4  107.29    8.30
   2  -3  -4   96.99    7.60
  -2   3   4  109.69    8.50
  -2   3   4  117.99    7.90
   1  -3  -4   51.29    5.20
   1  -3  -4   41.70    5.70
  -1   3   4   53.89    5.40
  -1   3   4   44.40    5.20
   0  -3  -4   49.20    4.70
   0  -3  -4   40.60    4.60
   0   3   4   39.30    4.40
   0   3   4   37.10    4.50
  -1  -3  -4  315.77   12.10
  -1  -3  -4  329.37   12.30
   1   3   4  330.67   12.40
   1   3   4  317.57   12.20
  -2  -3  -4  158.18    7.80
  -2  -3  -4  169.58    8.00
   2   3   4  167.18    7.90
   2   3   4  165.78    7.90
  -3  -3  -4  577.94   20.70
  -3  -3  -4  640.64   20.90
   3   3   4  652.03   21.20
   3   3   4  634.04   20.60
   3   3   4  658.73   21.30
  -4  -3  -4    4.50    3.00
  -4  -3  -4    4.70    3.20
   4   3   4    3.90    2.60
   4   3   4   -2.70    2.90
   4   3   4    3.60    2.80
  -5  -3  -4    7.20    4.10
  -5  -3  -4    5.80    3.80
   5   3   4    9.10    2.80
   5   3   4    7.70    3.90
   5   3   4    7.30    3.90
  -6  -3  -4  401.36   17.50
  -6  -3  -4  418.66   17.40
   6   3   4  413.56   17.40
   6   3   4  387.16   14.60
   6   3   4  407.46   17.50
  -7  -3  -4   27.60    7.80
  -7  -3  -4   22.30    6.80
   7   3   4   41.70    8.60
   7   3   4   25.90    7.20
  -8  -3  -4   -4.70    8.20
  -8  -3  -4    9.30    9.30
   8   3   4   -5.30    8.80
   8   3   4   -7.50    7.50
   5  -4  -4   78.39   13.40
  -5   4   4   75.09   11.80
   4  -4  -4   -0.10    7.40
   4  -4  -4    6.00    7.70
  -4   4   4    4.80    8.50
  -4   4   4   10.20    7.20
   3  -4  -4  349.67   17.30
   3  -4  -4  390.46   17.70
  -3   4   4  412.66   18.90
  -3   4   4  375.86   17.80
   2  -4  -4    3.40    4.60
   2  -4  -4    2.90    4.40
  -2   4   4    1.00    4.30
   1  -4  -4  158.98    9.30
   1  -4  -4  161.08   10.00
  -1   4   4  145.49    9.20
  -1   4   4  160.68    9.60
   0  -4  -4  156.98    8.90
   0  -4  -4  144.39    8.50
   0   4   4  144.99    8.50
   0   4   4  146.69    8.40
  -1  -4  -4 1114.09   34.90
  -1  -4  -4 1156.08   35.20
   1   4   4 1119.59   34.90
   1   4   4 1188.08   35.20
  -2  -4  -4 1572.24   44.80
  -2  -4  -4 1468.55   44.40
   2   4   4 1447.96   44.40
   2   4   4 1534.25   44.60
  -3  -4  -4    3.90    3.00
  -3  -4  -4    4.40    3.10
   3   4   4    4.40    3.20
   3   4   4    5.60    3.20
  -4  -4  -4  103.49    8.00
  -4  -4  -4  102.09    7.30
   4   4   4   92.39    6.60
   4   4   4   97.19    7.40
   4   4   4   99.09    7.90
  -5  -4  -4  150.58    9.30
  -5  -4  -4  136.69    9.40
   5   4   4  160.38   10.20
   5   4   4  137.59    8.00
   5   4   4  132.79    5.30
   5   4   4  138.89    9.40
  -6  -4  -4   17.00    5.30
  -6  -4  -4   12.70    5.50
   6   4   4   25.30    6.00
   6   4   4   22.20    5.80
   6   4   4   20.10    3.90
  -7  -4  -4  261.37   15.30
  -7  -4  -4  227.38   14.50
   7   4   4  236.58   10.80
   7   4   4  236.98   15.70
   7   4   4  253.57   14.70
  -8  -4  -4    0.10    8.00
  -8  -4  -4   13.90    8.50
   8   4   4    3.90    9.30
   8   4   4   -3.40    7.40
   4  -5  -4   34.70   10.40
   4  -5  -4   54.89   10.20
  -4   5   4   54.69   10.50
   3  -5  -4    9.10    8.10
   3  -5  -4   29.80    7.80
  -3   5   4   30.60    8.80
   2  -5  -4   37.10    7.70
   2  -5  -4   55.09    7.90
  -2   5   4   37.90    7.80
  -2   5   4   32.60    7.30
   1  -5  -4  287.47   14.60
   1  -5  -4  309.37   15.20
  -1   5   4  319.57   15.40
  -1   5   4  309.67   14.90
   0  -5  -4    0.80    4.00
   0  -5  -4    3.30    3.90
   0   5   4    7.60    4.40
   0   5   4    2.50    3.90
  -1  -5  -4  628.84   22.60
  -1  -5  -4  596.14   22.20
   1   5   4  644.44   22.60
   1   5   4  674.13   22.90
  -2  -5  -4    7.50    4.00
  -2  -5  -4    0.80    3.60
   2   5   4    0.80    3.80
   2   5   4   10.50    3.80
  -3  -5  -4   34.30    5.50
  -3  -5  -4   22.30    2.60
  -3  -5  -4   20.30    4.40
   3   5   4   24.10    4.60
   3   5   4   24.80    4.70
  -4  -5  -4  382.46   15.90
  -4  -5  -4  386.56   16.10
   4   5   4  372.76   15.70
   4   5   4  394.96   16.10
  -5  -5  -4   62.59    7.50
  -5  -5  -4   65.39    7.90
   5   5   4   73.19    8.20
   5   5   4   78.99    8.70
   5   5   4   85.29    7.00
  -6  -5  -4  385.86   18.30
  -6  -5  -4  413.86   18.40
   6   5   4  398.86   15.50
   6   5   4  391.26   17.70
   6   5   4  412.26   18.00
  -7  -5  -4   44.60    8.70
  -7  -5  -4   38.80    7.90
   7   5   4   18.70    7.00
   7   5   4   28.10    7.40
   7   5   4   39.50    5.30
  -8  -5  -4   50.89   10.00
  -8  -5  -4   37.10    9.50
   8   5   4   36.10    9.50
   8   5   4   30.30   10.00
   3  -6  -4    0.60    8.80
   3  -6  -4   -6.20    9.50
  -3   6   4   16.80    9.50
  -3   6   4   14.50   10.30
   2  -6  -4   64.69   10.10
   2  -6  -4   70.19    9.90
  -2   6   4   50.99    9.70
  -2   6   4   65.39   11.10
   1  -6  -4   37.70    7.60
   1  -6  -4   42.80    8.40
  -1   6   4   33.10    7.90
  -1   6   4   44.40    7.70
   0  -6  -4   69.39    8.90
   0  -6  -4   49.20    7.70
   0   6   4   54.19    8.10
   0   6   4   61.29    8.00
  -1  -6  -4    1.60    5.30
  -1  -6  -4  -11.30    4.40
   1   6   4   -2.00    5.00
   1   6   4    2.50    4.80
  -2  -6  -4    3.00    5.00
  -2  -6  -4    3.40    4.50
   2   6   4   11.00    4.60
   2   6   4    7.10    4.70
  -3  -6  -4  447.16   17.90
  -3  -6  -4  413.66   13.90
  -3  -6  -4  419.06   17.50
   3   6   4  430.96   17.90
   3   6   4  404.86   17.20
  -4  -6  -4   -0.20    2.30
  -4  -6  -4   -3.50    4.60
  -4  -6  -4    2.40    4.60
   4   6   4    2.90    4.80
   4   6   4    5.50    4.70
  -5  -6  -4  482.55   19.90
  -5  -6  -4  441.66   19.40
   5   6   4  495.65   19.80
   5   6   4  492.75   20.20
  -6  -6  -4   14.20    6.80
  -6  -6  -4    5.80    6.70
   6   6   4    7.20    4.90
   6   6   4   12.90    6.10
   6   6   4   10.70    6.70
  -7  -6  -4   34.50    8.40
  -7  -6  -4   46.20    9.30
   7   6   4   33.20    5.80
   7   6   4   37.00    8.70
   7   6   4   32.60    8.40
  -8  -6  -4  122.39   14.60
  -8  -6  -4  113.59   14.90
   8   6   4  129.89   14.30
   8   6   4  152.88   10.10
   8   6   4  166.68   17.20
   2  -7  -4    3.10   10.50
   2  -7  -4   17.50   10.20
  -2   7   4    4.80    9.90
  -2   7   4   12.40   10.00
   1  -7  -4  222.48   17.20
   1  -7  -4  235.98   16.50
  -1   7   4  216.78   16.90
  -1   7   4  221.88   16.50
   0  -7  -4   14.90    7.50
   0  -7  -4   19.30    7.80
   0   7   4   22.50    7.90
   0   7   4    4.50    7.10
  -1  -7  -4    8.90    6.70
  -1  -7  -4   26.50    7.20
   1   7   4   23.50    7.70
   1   7   4   12.90    6.70
  -2  -7  -4  201.78   13.40
  -2  -7  -4  201.48   13.50
   2   7   4  196.08   13.10
   2   7   4  216.38   13.20
  -3  -7  -4   17.10    3.90
  -3  -7  -4   20.20    7.00
  -3  -7  -4   24.50    6.80
   3   7   4   18.70    6.10
   3   7   4   19.10    6.20
  -4  -7  -4  257.87   10.30
  -4  -7  -4  264.37   15.00
  -4  -7  -4  258.27   14.70
   4   7   4  247.98   14.20
   4   7   4  255.87   14.20
  -5  -7  -4   58.09    9.00
  -5  -7  -4   51.79    8.20
   5   7   4   41.60    8.20
   5   7   4   66.19    8.60
  -6  -7  -4   40.50    8.80
  -6  -7  -4   46.80    9.10
   6   7   4   49.20    7.60
   6   7   4   50.69    9.50
   6   7   4   46.90    8.20
  -7  -7  -4    3.90    8.60
  -7  -7  -4    1.60    9.10
   7   7   4   19.20    8.10
   7   7   4   -1.10    5.90
   7   7   4   -2.00    7.70
  -8  -7  -4   70.29   11.90
  -8  -7  -4   49.50   10.30
   8   7   4   78.89   12.20
   8   7   4   70.49    9.90
   8   7   4   63.59   13.00
   0  -8  -4  235.08   18.20
   0  -8  -4  230.88   18.70
   0   8   4  219.98   18.70
   0   8   4  209.88   19.90
  -1  -8  -4   56.89   10.40
  -1  -8  -4   46.90   10.80
   1   8   4   38.10    9.20
   1   8   4   30.00   10.50
  -2  -8  -4    0.60    8.00
  -2  -8  -4    4.70    7.60
   2   8   4    4.60    8.90
   2   8   4  -13.00    6.90
  -3  -8  -4   -2.50    4.40
   3   8   4   -9.60    7.10
   3   8   4    1.70    7.40
  -4  -8  -4   17.90    4.70
  -4  -8  -4   14.50    8.30
  -4  -8  -4   17.90    7.60
   4   8   4   35.80    8.90
   4   8   4    9.90    7.20
  -5  -8  -4   51.39    9.00
  -5  -8  -4   50.89    9.70
   5   8   4   55.19    9.20
   5   8   4   38.10    9.00
  -6  -8  -4   16.40    8.70
  -6  -8  -4    2.80    7.70
   6   8   4   12.60    9.30
   6   8   4    1.50    8.10
  -7  -8  -4    3.10   10.40
  -7  -8  -4    4.00    8.90
   7   8   4    6.80    8.50
   7   8   4   14.70    9.70
   7   8   4    0.00    7.30
  -2  -9  -4   -4.90   10.00
  -2  -9  -4    3.90    9.60
  -2  -9  -4    2.50    5.70
   2   9   4    7.90   11.60
   2   9   4   -9.70    9.60
  -3  -9  -4   -9.50    8.80
  -3  -9  -4    4.40    5.30
  -3  -9  -4    6.60    9.00
   3   9   4    4.80    9.70
   3   9   4   13.90    9.90
  -4  -9  -4  141.19   15.10
  -4  -9  -4  145.59   10.50
   4   9   4  140.19   16.50
   4   9   4  106.29   13.80
  -5  -9  -4  117.39   13.50
  -5  -9  -4  159.88   18.10
  -5  -9  -4  148.19   10.40
   5   9   4  132.99   14.60
   5   9   4  129.39   16.00
  -6  -9  -4   40.60   12.40
   6   9   4   49.10   11.70
   5   8  -5   29.20    4.90
   5   8  -5   18.50    6.30
  -5  -8   5   11.30    6.20
  -5  -8   5   14.70    6.70
   4   8  -5    8.70    4.20
   4   8  -5    3.50    4.30
  -4  -8   5   15.80    6.70
  -4  -8   5   12.00    5.60
  -4  -8   5    5.70    5.40
   3   8  -5   12.10    5.10
   3   8  -5    7.80    4.50
  -3  -8   5    0.60    5.30
  -3  -8   5    8.00    5.10
  -3  -8   5    3.60    6.10
   2   8  -5   34.10    5.40
   2   8  -5   19.40    5.20
  -2  -8   5    2.40    5.70
  -2  -8   5   16.90    6.30
  -2  -8   5   12.80    6.40
  -2  -8   5   21.10    6.00
   1   8  -5   57.79    7.20
   1   8  -5   64.09    7.60
  -1  -8   5   53.99    7.10
  -1  -8   5   48.90    8.50
  -1  -8   5   57.09    8.50
   0   8  -5  152.08   13.00
   0   8  -5  141.09   12.80
   0  -8   5  143.19   11.10
   0  -8   5  140.89   13.90
   0  -8   5  152.88   13.20
   6   7  -5   -1.50    5.50
   6   7  -5   -7.40    4.40
   6   7  -5   -6.40    4.50
  -6  -7   5    2.60    5.40
  -6  -7   5   -4.10    5.30
  -6  -7   5   -2.80    5.90
   5   7  -5    7.50    5.90
   5   7  -5   -3.40    3.40
   5   7  -5   -0.50    3.60
  -5  -7   5   -1.10    4.80
  -5  -7   5  -11.00    4.50
  -5  -7   5   -4.00    5.10
   4   7  -5    8.50    3.30
   4   7  -5    5.70    3.20
  -4  -7   5   -1.40    5.00
  -4  -7   5   -4.10    4.60
  -4  -7   5   19.80    5.30
  -4  -7   5    6.50    4.30
   3   7  -5  161.18    7.70
   3   7  -5  133.09    7.40
  -3  -7   5  150.18    9.00
  -3  -7   5  175.18   11.70
  -3  -7   5  158.78   10.70
  -3  -7   5  111.59    8.60
   2   7  -5  477.75   16.40
   2   7  -5  435.36   16.20
  -2  -7   5  483.05   18.90
  -2  -7   5  477.65   20.10
  -2  -7   5  476.95   17.40
  -2  -7   5  490.25   17.40
   1   7  -5   47.60    5.70
   1   7  -5   41.00    5.50
  -1  -7   5   38.70    6.40
  -1  -7   5   54.59    6.70
  -1  -7   5   55.19    7.50
  -1  -7   5   45.00    6.10
   0   7  -5   42.90    6.40
   0   7  -5   41.10    6.40
   0  -7   5   39.20    7.80
   0  -7   5   41.80    6.00
   0  -7   5   43.30    8.70
   0  -7   5   46.90    7.00
  -1   7  -5  102.59   11.10
  -1   7  -5   89.49   10.20
   1  -7   5  122.19   13.10
   1  -7   5   95.79   11.00
   1  -7   5   91.99    8.70
   1  -7   5  118.79   11.80
  -2   7  -5   -4.70    7.70
  -2   7  -5    0.80    8.40
   2  -7   5   20.00    8.60
   2  -7   5   28.00    8.70
   2  -7   5    7.00    6.20
   7   6  -5   25.10    6.00
  -7  -6   5    7.60    7.40
  -7  -6   5   15.40    7.10
   6   6  -5   -3.00    4.10
   6   6  -5    0.20    4.40
   6   6  -5    4.70    4.00
  -6  -6   5   -9.90    4.80
  -6  -6   5   -7.40    4.90
   5   6  -5   70.39    5.90
   5   6  -5   69.19    7.90
   5   6  -5   74.39    5.80
  -5  -6   5   64.09    7.70
  -5  -6   5   78.09    7.10
   4   6  -5  134.99    6.10
   4   6  -5  131.39    6.10
   4   6  -5  125.39    9.70
  -4  -6   5  128.89   10.00
  -4  -6   5  138.29    7.40
  -4  -6   5  121.59    9.30
   3   6  -5  202.88    7.60
   3   6  -5  199.88    7.50
  -3  -6   5  197.28    8.70
  -3  -6   5  200.98   11.40
  -3  -6   5  184.58   11.30
   2   6  -5  177.78    7.50
   2   6  -5  165.18    7.40
  -2  -6   5  174.68    8.30
  -2  -6   5  167.18   10.10
  -2  -6   5  164.08    8.50
  -2  -6   5  172.68   10.30
   1   6  -5   27.80    3.90
   1   6  -5   32.50    4.00
  -1  -6   5   30.00    4.50
  -1  -6   5   27.40    4.20
  -1  -6   5   27.10    5.60
  -1  -6   5   33.70    5.30
   0   6  -5   71.39    6.70
   0   6  -5   63.69    6.70
   0  -6   5   82.59    8.80
   0  -6   5   72.89    7.20
   0  -6   5   81.39    7.80
   0  -6   5   80.49    7.50
  -1   6  -5   60.99    7.90
  -1   6  -5   61.19    8.20
   1  -6   5   58.99    8.10
   1  -6   5   59.19    7.60
   1  -6   5   76.39    6.80
  -2   6  -5   53.09    8.20
   2  -6   5   48.00    8.00
   2  -6   5   51.29    8.10
   2  -6   5   54.69    8.50
  -3   6  -5   59.89    9.20
  -3   6  -5   81.19   10.30
   3  -6   5   68.09   10.30
   3  -6   5   69.99   10.50
   7   5  -5   23.00    5.70
   7   5  -5   23.30    6.10
  -7  -5   5   28.70    7.70
  -7  -5   5    3.60    6.20
  -7  -5   5   14.50    6.10
   6   5  -5   49.10    6.30
   6   5  -5   59.89    5.20
   6   5  -5   50.69    6.90
  -6  -5   5   61.19    8.00
  -6  -5   5   47.00    6.20
  -6  -5   5   52.79    7.70
   5   5  -5    6.90    3.60
   5   5  -5    5.90    2.90
   5   5  -5    4.90    3.00
  -5  -5   5    3.10    4.30
  -5  -5   5    5.60    3.70
  -5  -5   5    1.70    3.20
   4   5  -5   94.19    4.80
   4   5  -5   98.89    7.60
   4   5  -5   89.09    4.70
  -4  -5   5   99.99    8.30
  -4  -5   5  101.09    6.00
   3   5  -5   55.69    6.50
   3   5  -5   52.89    2.90
  -3  -5   5   52.59    7.10
  -3  -5   5   55.99    4.10
  -3  -5   5   48.00    6.20
   2   5  -5  161.48    5.80
   2   5  -5  156.58    5.70
  -2  -5   5  159.38    9.50
  -2  -5   5  154.88    6.60
  -2  -5   5  153.78    6.60
  -2  -5   5  155.08    9.80
   1   5  -5  450.45   14.10
   1   5  -5  454.75   14.20
  -1  -5   5  441.96   16.40
  -1  -5   5  439.86   14.80
  -1  -5   5  447.06   14.60
  -1  -5   5  433.36   17.50
   0   5  -5   -1.20    2.40
   0   5  -5    1.30    2.70
   0  -5   5    4.20    3.40
   0  -5   5    2.70    3.40
   0  -5   5    2.50    2.90
   0  -5   5    4.20    3.00
  -1   5  -5   39.10    5.40
   1  -5   5   39.50    4.30
   1  -5   5   33.10    5.60
   1  -5   5   30.10    5.00
   1  -5   5   33.10    5.00
  -2   5  -5  195.18   10.80
  -2   5  -5  183.38   10.90
   2  -5   5  178.78   11.60
   2  -5   5  198.88   11.80
   2  -5   5  189.18   10.90
  -3   5  -5   43.30    7.70
  -3   5  -5   51.49    7.20
   3  -5   5   42.30    8.30
   3  -5   5   57.59    8.10
  -4   5  -5   39.10    9.20
  -4   5  -5   43.40    8.40
   4  -5   5   43.50    9.60
   4  -5   5   55.39    9.80
   7   4  -5  282.07   14.30
   7   4  -5  262.27   13.80
  -7  -4   5  278.77   15.00
  -7  -4   5  258.17   15.10
  -7  -4   5  284.47   15.90
   6   4  -5    3.10    4.00
   6   4  -5   10.20    4.30
  -6  -4   5    3.70    4.60
  -6  -4   5    1.80    4.40
  -6  -4   5    6.60    4.90
   5   4  -5   28.70    3.90
   5   4  -5   34.20    4.10
   5   4  -5   33.70    4.80
  -5  -4   5   26.90    5.80
  -5  -4   5   30.50    4.40
  -5  -4   5   29.90    4.30
   4   4  -5  281.47    9.50
   4   4  -5  273.87   11.20
   4   4  -5  289.47    9.50
  -4  -4   5  288.77   13.50
  -4  -4   5  275.77   10.10
   3   4  -5  165.28    8.90
  -3  -4   5  168.88    6.30
  -3  -4   5  169.68    6.30
  -3  -4   5  175.58    9.70
  -3  -4   5  170.98    9.60
   2   4  -5 1093.59   33.70
  -2  -4   5 1079.29   29.90
  -2  -4   5 1083.89   33.70
  -2  -4   5 1094.99   29.90
  -2  -4   5 1078.09   34.10
   1   4  -5  205.98    6.50
   1   4  -5  202.78    6.50
  -1  -4   5  199.88    9.50
  -1  -4   5  210.58    7.30
  -1  -4   5  207.58    7.30
  -1  -4   5  200.08   10.30
   0   4  -5    7.40    2.00
   0   4  -5    4.70    2.10
   0  -4   5    7.60    3.00
   0  -4   5    3.30    3.40
   0  -4   5    6.60    2.30
   0  -4   5    5.60    2.30
  -1   4  -5   58.69    5.20
  -1   4  -5   65.29    5.30
   1  -4   5   66.49    5.80
   1  -4   5   68.39    5.40
   1  -4   5   66.39    5.40
   1  -4   5   68.89    6.70
  -2   4  -5   77.99    6.90
  -2   4  -5   64.69    6.70
   2  -4   5   61.19    6.90
   2  -4   5   68.49    6.70
   2  -4   5   64.19    6.60
  -3   4  -5  122.99    8.80
  -3   4  -5  113.69    9.60
   3  -4   5  149.29   10.00
   3  -4   5  136.49   10.50
  -4   4  -5    0.30    5.40
  -4   4  -5  -11.50    5.80
   4  -4   5    2.40    5.80
   4  -4   5   11.80    7.10
  -5   4  -5  173.38   17.30
  -5   4  -5  184.68   15.50
  -5   4  -5  203.68   14.90
   5  -4   5  174.08   15.20
   5  -4   5  186.18   14.90
   7   3  -5   43.90    7.80
   7   3  -5   26.00    6.70
  -7  -3   5   26.70    8.10
  -7  -3   5   30.10    7.20
  -7  -3   5   32.20    6.80
   6   3  -5   36.10    5.40
   6   3  -5   38.70    5.60
  -6  -3   5   33.30    6.10
  -6  -3   5   29.80    5.70
   5   3  -5  563.64   18.30
   5   3  -5  536.25   18.00
  -5  -3   5  515.65   20.60
  -5  -3   5  545.95   18.70
  -5  -3   5  563.44   18.70
   4   3  -5   64.59    4.60
   4   3  -5   61.29    4.90
   4   3  -5   58.79    4.20
  -4  -3   5   63.49    4.90
  -4  -3   5   61.19    7.10
  -4  -3   5   51.99    4.70
   3   3  -5  704.43   20.10
   3   3  -5  724.93   20.10
   3   3  -5  719.53   22.90
  -3  -3   5  727.73   20.90
  -3  -3   5  727.93   24.50
  -3  -3   5  754.62   20.90
   2   3  -5   -1.10    2.40
  -2  -3   5   -1.70    2.80
  -2  -3   5   -1.00    2.80
   1   3  -5    2.50    2.70
  -1  -3   5   -0.50    0.70
  -1  -3   5    2.50    2.50
  -1  -3   5    2.70    2.60
  -1  -3   5    1.60    0.70
   0   3  -5  143.19    8.50
   0   3  -5  133.79    5.00
   0   3  -5  138.09    5.20
   0  -3   5  138.29    5.50
   0  -3   5  137.49    8.00
   0  -3   5  145.19    7.10
  -1   3  -5  336.07   11.50
  -1   3  -5  338.47   11.50
   1  -3   5  331.17   11.70
   1  -3   5  319.37   11.60
   1  -3   5  336.87   11.80
   1  -3   5  326.27   13.40
  -2   3  -5  149.19    7.80
  -2   3  -5  159.88    7.80
   2  -3   5  134.59    8.60
   2  -3   5  157.08    8.00
   2  -3   5  145.29    8.00
  -3   3  -5   -0.40    3.70
  -3   3  -5    2.10    3.60
   3  -3   5    2.90    3.90
   3  -3   5    7.30    3.70
  -4   3  -5  442.06   17.90
  -4   3  -5  426.46   17.80
  -4   3  -5  442.06   19.40
   4  -3   5  450.35   18.10
  -5   3  -5    5.50    6.50
  -5   3  -5   11.90    6.00
   5  -3   5    2.10    6.50
  -6   3  -5   -3.80    8.60
  -6   3  -5    3.10    8.90
  -6   3  -5   -7.20    8.60
   6  -3   5    5.10    8.50
   6  -3   5   -2.60    9.10
   7   2  -5   57.99    8.70
   7   2  -5   65.59    9.10
  -7  -2   5   54.39    9.60
  -7  -2   5   61.99    8.10
  -7  -2   5   60.89    8.80
   6   2  -5  720.63   24.80
   6   2  -5  724.03   24.60
  -6  -2   5  716.93   25.00
  -6  -2   5  685.83   25.50
   5   2  -5   83.69    7.10
   5   2  -5   88.29    6.60
  -5  -2   5   83.39    7.10
  -5  -2   5   84.69    7.10
  -5  -2   5   77.09    7.90
   4   2  -5  691.43   20.60
   4   2  -5  632.14   20.40
  -4  -2   5  666.63   20.90
  -4  -2   5  673.73   21.00
  -4  -2   5  640.34   22.80
   3   2  -5   62.29    5.00
   3   2  -5   67.99    3.80
   3   2  -5   62.69    3.60
  -3  -2   5   66.99    4.10
  -3  -2   5   52.19    6.00
   2   2  -5  232.18    9.50
  -2  -2   5  217.38   10.00
  -2  -2   5  227.98    6.90
  -2  -2   5  227.78    6.90
   1   2  -5  208.78    9.10
  -1  -2   5  213.18    9.10
  -1  -2   5  191.58    8.90
   0   2  -5  145.29    4.40
   0   2  -5  132.29    7.50
   0  -2   5  149.59    7.00
   0  -2   5  140.39    4.90
   0  -2   5  149.79    7.60
   0  -2   5  146.39    4.90
  -1   2  -5  214.58    7.70
  -1   2  -5  212.58    7.70
  -1   2  -5  215.48   10.10
   1  -2   5  209.68    7.90
   1  -2   5  214.58    9.50
   1  -2   5  206.88    7.90
  -2   2  -5  442.76   15.10
  -2   2  -5  458.15   15.10
  -2   2  -5  470.05   17.20
   2  -2   5  437.96   16.10
   2  -2   5  444.96   15.20
   2  -2   5  436.36   15.30
  -3   2  -5  405.16   16.30
  -3   2  -5  394.96   15.10
  -3   2  -5  402.76   14.90
   3  -2   5  395.36   15.10
   3  -2   5  404.66   15.30
  -4   2  -5  247.88   12.70
  -4   2  -5  254.27   12.10
  -4   2  -5  255.97   12.10
   4  -2   5  251.67   12.30
   4  -2   5  244.38   12.40
  -5   2  -5   -1.60    5.10
  -5   2  -5    7.30    5.60
  -5   2  -5    2.40    5.60
   5  -2   5    0.70    5.70
  -6   2  -5   13.50    8.10
  -6   2  -5    2.80    7.20
  -6   2  -5   13.00    8.10
   6  -2   5   -1.00    7.30
   6  -2   5   10.00    7.90
  -7   2  -5   14.20   11.60
   7  -2   5    0.80   10.10
   7   1  -5   91.99   12.40
   7   1  -5  123.09   13.70
  -7  -1   5  133.69   14.10
  -7  -1   5  112.09   14.80
  -7  -1   5  102.09   10.20
   6   1  -5   18.90    6.00
   6   1  -5   19.60    5.70
  -6  -1   5   17.10    6.40
  -6  -1   5   15.10    6.60
  -6  -1   5   24.90    5.50
   5   1  -5   40.10    5.60
   5   1  -5   41.30    5.80
  -5  -1   5   56.59    6.60
  -5  -1   5   43.90    6.30
  -5  -1   5   42.60    4.20
  -5  -1   5   40.40    6.00
   4   1  -5    1.70    2.70
   4   1  -5   -2.00    2.70
  -4  -1   5    0.80    3.50
  -4  -1   5    5.80    3.10
  -4  -1   5    0.50    2.30
  -4  -1   5   -1.00    3.00
   3   1  -5   63.79    4.40
   3   1  -5   62.49    4.30
  -3  -1   5   68.39    4.90
  -3  -1   5   63.09    4.80
  -3  -1   5   67.49    4.60
  -3  -1   5   66.19    6.20
   2   1  -5  180.98    6.50
   2   1  -5  183.18    6.40
   2   1  -5  181.58    8.10
  -2  -1   5  184.98    6.70
  -2  -1   5  187.58    8.80
  -2  -1   5  186.58    8.20
   1   1  -5  583.44   19.10
  -1  -1   5  605.14   16.50
  -1  -1   5  579.44   19.10
  -1  -1   5  575.94   19.00
  -1  -1   5  597.54   16.50
   0   1  -5 3338.67   89.99
   0   1  -5 3049.99   86.59
   0   1  -5 3236.88   86.59
   0  -1   5 3256.57   89.89
   0  -1   5 3349.47   89.29
   0  -1   5 3354.16   89.19
   0  -1   5 3229.88   86.99
   0  -1   5 3202.88   86.99
  -1   1  -5  725.73   21.00
  -1   1  -5  719.33   23.30
  -1   1  -5  713.83   21.00
   1  -1   5  719.63   22.30
   1  -1   5  745.63   21.20
   1  -1   5  730.03   21.20
  -2   1  -5   65.79    5.60
  -2   1  -5   59.39    4.30
  -2   1  -5   60.89    4.40
   2  -1   5   69.89    5.00
   2  -1   5   63.59    4.80
   2  -1   5   67.49    4.70
  -3   1  -5   51.69    5.00
  -3   1  -5   43.30    4.90
  -3   1  -5   42.80    5.40
   3  -1   5   41.50    4.80
   3  -1   5   43.20    5.30
  -4   1  -5  207.88   10.90
  -4   1  -5  229.88   10.90
  -4   1  -5  227.28   10.90
   4  -1   5  197.28   10.50
   4  -1   5  225.08   10.90
  -5   1  -5  506.45   20.60
  -5   1  -5  550.94   20.20
  -5   1  -5  540.65   20.70
   5  -1   5  543.65   20.80
  -6   1  -5   -0.70    5.90
  -6   1  -5  -11.70    6.60
  -6   1  -5   -9.60    5.30
   6  -1   5    6.00    6.00
   6  -1   5   11.00    7.00
  -7   1  -5   14.30    7.40
  -7   1  -5   16.70    8.30
  -7   1  -5    4.10    8.70
   7  -1   5    3.50    9.10
   7  -1   5   10.50    9.20
   7   0  -5    0.50    8.20
  -7   0   5   12.80    9.20
   6   0  -5    3.20    6.50
   6   0  -5   13.50    6.30
  -6   0   5    6.30    6.20
  -6   0   5    0.90    4.70
  -6   0   5    3.80    3.20
  -6   0   5   -6.20    7.00
   5   0  -5   -3.40    4.50
   5   0  -5    7.80    4.60
  -5   0   5    9.50    5.00
  -5   0   5   11.50    3.30
  -5   0   5    8.10    4.10
  -5   0   5   -1.10    5.00
   4   0  -5  154.28    8.80
   4   0  -5  169.38    9.20
  -4   0   5  160.58    9.20
  -4   0   5  168.98    9.40
  -4   0   5  164.48    9.20
  -4   0   5  169.38    8.10
   3   0  -5   34.60    4.40
   3   0  -5   26.70    3.70
  -3   0   5   37.90    5.00
  -3   0   5   37.20    4.70
  -3   0   5   38.60    4.60
  -3   0   5   32.90    4.50
   2   0  -5   61.39    4.10
   2   0  -5   57.09    4.10
  -2   0   5   60.69    4.40
  -2   0   5   60.29    5.40
  -2   0   5   56.49    4.50
  -2   0   5   59.49    5.00
   1   0  -5  375.66   11.60
   1   0  -5  345.77   13.10
   1   0  -5  368.86   11.50
  -1   0   5  382.96   11.80
  -1   0   5  362.26   11.70
  -1   0   5  368.76   13.20
   0   0  -5  306.87   12.10
   0   0  -5  343.87   10.40
   0   0   5  325.17   10.40
   0   0   5  334.47   10.40
   0   0   5  336.07   12.30
  -1   0  -5   48.40    3.10
  -1   0  -5   47.50    3.20
  -1   0  -5   44.10    4.50
   1   0   5   49.00    3.30
   1   0   5   51.59    4.60
   1   0   5   52.29    3.80
   1   0   5   48.20    3.50
  -2   0  -5  968.90   27.80
  -2   0  -5  982.10   27.90
  -2   0  -5  933.71   29.00
   2   0   5  940.71   27.30
   2   0   5  946.11   27.90
   2   0   5  876.61   27.70
   2   0   5  944.91   29.10
  -3   0  -5   56.89    5.00
  -3   0  -5   69.49    5.70
  -3   0  -5   58.59    5.10
   3   0   5   54.79    4.90
   3   0   5   53.99    4.90
  -4   0  -5  435.96   16.20
  -4   0  -5  413.76   16.00
  -4   0  -5  429.56   16.30
   4   0   5  434.66   16.30
   4   0   5  435.56   16.20
  -5   0  -5   22.10    4.90
  -5   0  -5   16.40    4.90
  -5   0  -5   21.20    4.80
   5   0   5   17.70    5.00
   5   0   5   22.10    5.10
  -6   0  -5   27.80    6.50
  -6   0  -5   32.00    5.90
  -6   0  -5   32.70    6.70
   6   0   5   28.20    7.00
   6   0   5   26.70    6.90
  -7   0  -5   48.00    9.90
  -7   0  -5   57.69   10.30
  -7   0  -5   55.69    7.40
   7   0   5   71.09   10.20
   7   0   5   42.60    9.30
  -8   0  -5  103.69   13.80
   8   0   5   79.19   13.90
   6  -1  -5  121.39   14.20
   6  -1  -5  142.39   13.30
  -6   1   5  135.09   13.20
  -6   1   5  131.09    9.20
  -6   1   5  128.19   14.70
   5  -1  -5  326.27   16.20
   5  -1  -5  341.17   16.00
  -5   1   5  343.37   13.70
  -5   1   5  360.36   17.00
  -5   1   5  348.77   19.80
   4  -1  -5   13.20    4.40
   4  -1  -5   12.40    4.50
  -4   1   5   16.40    4.60
  -4   1   5   13.00    4.00
  -4   1   5    8.80    4.70
   3  -1  -5    0.60    3.20
   3  -1  -5    3.50    3.20
  -3   1   5    4.50    2.90
  -3   1   5    0.20    3.20
  -3   1   5    2.80    3.30
   2  -1  -5  847.52   25.70
   2  -1  -5  816.82   25.60
  -2   1   5  840.32   25.70
  -2   1   5  834.12   25.80
  -2   1   5  827.92   25.90
   1  -1  -5  482.45   15.70
   1  -1  -5  487.15   15.70
  -1   1   5  472.65   15.80
  -1   1   5  498.35   15.90
  -1   1   5  491.55   16.80
   0  -1  -5 1102.39   30.60
   0  -1  -5 1061.29   30.50
   0   1   5 1043.20   31.80
   0   1   5 1041.60   30.50
   0   1   5 1037.10   30.50
  -1  -1  -5  869.61   25.60
  -1  -1  -5  844.12   26.80
  -1  -1  -5  865.71   25.60
   1   1   5  897.61   25.70
   1   1   5  874.61   26.90
   1   1   5  861.91   25.60
  -2  -1  -5  475.45   15.60
  -2  -1  -5  484.65   15.60
  -2  -1  -5  492.05   16.70
   2   1   5  480.55   14.30
   2   1   5  462.05   16.40
   2   1   5  446.96   15.50
   2   1   5  482.95   15.80
  -3  -1  -5   99.89    6.10
  -3  -1  -5   83.79    5.90
  -3  -1  -5   92.19    6.10
   3   1   5   91.99    5.90
   3   1   5   89.59    4.50
   3   1   5   88.39    6.10
   3   1   5   94.89    6.20
  -4  -1  -5  309.07   12.90
  -4  -1  -5  321.57   13.40
  -4  -1  -5  321.27   13.10
   4   1   5  335.07   13.50
   4   1   5  328.77   13.30
   4   1   5  318.97   12.90
  -5  -1  -5   29.80    5.90
  -5  -1  -5   37.90    5.70
  -5  -1  -5   42.20    5.40
   5   1   5   27.60    5.40
   5   1   5   41.30    6.30
  -6  -1  -5  329.37   15.60
  -6  -1  -5  305.67   15.20
  -6  -1  -5  340.97   14.10
   6   1   5  324.67   16.40
   6   1   5  327.67   16.00
  -7  -1  -5  114.79   12.30
  -7  -1  -5  134.89   14.00
  -7  -1  -5  152.88   10.50
   7   1   5  156.88   13.40
   7   1   5  123.79   12.70
  -8  -1  -5   36.00    5.90
  -8  -1  -5   39.30   10.60
  -8  -1  -5   57.89   10.90
   8   1   5   38.60   10.80
   8   1   5   50.59   12.00
   6  -2  -5   70.49   11.40
  -6   2   5   62.29    8.20
  -6   2   5   62.79   11.40
   5  -2  -5    0.40    6.20
   5  -2  -5   16.50    7.30
  -5   2   5   -3.00    7.10
  -5   2   5    0.50    7.50
   4  -2  -5   38.90    6.90
   4  -2  -5   29.40    5.90
  -4   2   5   26.40    6.20
   3  -2  -5   30.70    5.30
   3  -2  -5   36.20    5.70
  -3   2   5   31.80    5.30
  -3   2   5   23.30    5.20
   2  -2  -5   62.59    6.00
   2  -2  -5   65.59    5.80
  -2   2   5   58.09    5.70
  -2   2   5   63.49    6.40
   1  -2  -5  698.33   22.50
   1  -2  -5  691.83   22.40
  -1   2   5  701.33   22.60
  -1   2   5  732.83   22.70
   0  -2  -5   15.60    2.70
   0  -2  -5   16.70    2.90
   0   2   5   15.20    3.00
   0   2   5   15.70    3.60
   0   2   5   20.20    3.20
  -1  -2  -5  174.98    7.60
  -1  -2  -5  169.08    7.60
   1   2   5  172.98    7.80
   1   2   5  171.48    8.40
   1   2   5  176.78    7.90
  -2  -2  -5   35.90    3.80
  -2  -2  -5   36.00    3.80
  -2  -2  -5   37.80    3.00
   2   2   5   40.00    4.50
   2   2   5   36.20    4.00
   2   2   5   42.70    4.10
  -3  -2  -5  261.67   10.60
  -3  -2  -5  244.58   10.50
   3   2   5  249.68    7.60
   3   2   5  262.17   10.80
   3   2   5  264.17   10.70
   3   2   5  260.07   10.80
  -4  -2  -5  142.39    8.40
  -4  -2  -5  146.19    8.20
  -4  -2  -5  155.08    8.80
   4   2   5  150.08    8.00
   4   2   5  150.68    8.50
   4   2   5  140.99    8.30
  -5  -2  -5  136.19    9.00
  -5  -2  -5  136.39    8.20
  -5  -2  -5  133.29    9.00
   5   2   5  131.29    8.00
   5   2   5  136.69    9.10
   5   2   5  133.49    8.90
  -6  -2  -5  472.35   17.20
  -6  -2  -5  433.36   18.90
  -6  -2  -5  462.75   19.50
   6   2   5  454.05   19.20
   6   2   5  482.35   20.10
  -7  -2  -5   39.10    5.80
  -7  -2  -5   36.40    7.90
  -7  -2  -5   54.29    8.80
   7   2   5   39.10    8.50
   7   2   5   27.40    8.60
  -8  -2  -5   12.80    8.90
  -8  -2  -5   16.50    9.40
   8   2   5    0.10    8.50
   8   2   5    3.30   10.00
   5  -3  -5   40.50    9.70
   5  -3  -5   41.30    9.20
  -5   3   5   46.40   10.00
  -5   3   5   46.00    9.50
   4  -3  -5   -0.60    6.20
   4  -3  -5    8.10    6.60
  -4   3   5    7.50    6.20
   3  -3  -5  350.96   15.70
   3  -3  -5  346.57   15.70
  -3   3   5  350.06   15.90
   2  -3  -5  274.97   12.60
   2  -3  -5  268.17   12.50
  -2   3   5  260.27   12.40
   1  -3  -5    2.70    3.30
   1  -3  -5    1.50    3.40
  -1   3   5    5.90    3.70
  -1   3   5   -1.20    2.80
   0  -3  -5    8.20    3.10
   0  -3  -5   11.30    3.10
   0   3   5   11.80    3.20
   0   3   5    9.00    3.20
  -1  -3  -5  325.67   12.90
  -1  -3  -5  329.37   12.80
   1   3   5  343.97   13.00
   1   3   5  336.57   12.90
  -2  -3  -5  249.68    8.10
  -2  -3  -5  248.58   10.60
  -2  -3  -5  245.28   10.70
   2   3   5  269.97   11.40
   2   3   5  262.37   10.70
   2   3   5  253.47   10.70
  -3  -3  -5  511.55   17.70
  -3  -3  -5  452.95   17.20
   3   3   5  476.15   17.40
   3   3   5  500.75   17.70
   3   3   5  509.75   17.60
  -4  -3  -5   -0.20    3.40
  -4  -3  -5    5.30    3.10
   4   3   5    5.60    3.30
   4   3   5   -1.90    2.90
   4   3   5    3.20    3.10
  -5  -3  -5    1.50    3.90
  -5  -3  -5    3.90    4.20
   5   3   5   -1.20    4.00
   5   3   5    6.30    3.40
   5   3   5   -4.20    3.70
  -6  -3  -5    2.40    4.80
  -6  -3  -5   -3.20    5.00
   6   3   5    0.90    5.20
   6   3   5    2.10    5.40
   6   3   5    1.30    3.50
  -7  -3  -5   -2.30    7.20
  -7  -3  -5    3.40    6.90
   7   3   5    3.30    6.90
   7   3   5    5.50    6.90
  -8  -3  -5   74.79   11.40
  -8  -3  -5   70.29   11.60
   8   3   5   90.09   12.00
   8   3   5   86.59   11.90
   4  -4  -5   11.70    8.20
   4  -4  -5   15.10    8.10
  -4   4   5    5.70    8.30
  -4   4   5    9.80    8.10
   3  -4  -5    2.40    5.70
   3  -4  -5   12.30    6.30
  -3   4   5   -1.20    6.60
   2  -4  -5   83.59    8.30
   2  -4  -5   53.19    7.10
  -2   4   5   53.59    7.40
  -2   4   5   68.49    8.30
   1  -4  -5   37.00    6.00
   1  -4  -5   44.60    6.40
  -1   4   5   30.80    5.40
  -1   4   5   37.20    5.70
   0  -4  -5  194.98   10.60
   0  -4  -5  174.98    9.80
   0   4   5  179.08    9.90
   0   4   5  192.88   10.40
  -1  -4  -5  798.92   26.00
   1   4   5  783.62   25.90
   1   4   5  767.02   25.70
  -2  -4  -5  100.69    7.30
  -2  -4  -5  110.59    7.40
   2   4   5  104.59    7.20
   2   4   5   98.09    7.20
  -3  -4  -5    6.90    4.10
  -3  -4  -5   10.00    3.70
   3   4   5    8.80    3.70
   3   4   5    9.00    3.80
   3   4   5    9.00    3.60
  -4  -4  -5  319.67   14.00
  -4  -4  -5  309.47   13.50
   4   4   5  300.57   13.40
   4   4   5  310.97   13.70
   4   4   5  297.77   13.00
  -5  -4  -5   17.70    5.20
  -5  -4  -5    9.30    4.40
   5   4   5    9.90    4.30
   5   4   5   11.60    4.60
   5   4   5    7.80    3.80
  -6  -4  -5  315.17   16.10
  -6  -4  -5  328.37   15.90
   6   4   5  338.77   16.50
   6   4   5  324.17   10.20
   6   4   5  303.87   15.70
   6   4   5  351.16   14.00
  -7  -4  -5  404.56   20.10
  -7  -4  -5  422.36   20.00
   7   4   5  429.86   19.90
   7   4   5  422.56   16.60
   7   4   5  440.86   21.00
  -8  -4  -5  137.49   16.30
  -8  -4  -5  132.19   15.00
   8   4   5  112.69   15.70
   8   4   5  101.69   12.80
   3  -5  -5    6.50    8.40
   3  -5  -5   25.30    7.80
  -3   5   5   14.30    9.30
  -3   5   5   18.10    8.70
   2  -5  -5  101.79   10.70
   2  -5  -5  117.09   12.50
  -2   5   5  102.49   11.50
  -2   5   5   96.69   10.90
   1  -5  -5    3.50    5.20
   1  -5  -5   12.30    5.40
  -1   5   5    9.40    5.60
  -1   5   5   14.30    6.30
   0  -5  -5   83.39    8.50
   0  -5  -5   74.49    8.10
   0   5   5   99.29    9.60
   0   5   5   94.49    9.40
  -1  -5  -5   44.50    6.60
  -1  -5  -5   52.89    6.70
   1   5   5   45.40    6.30
   1   5   5   44.10    6.20
  -2  -5  -5   83.49    7.70
  -2  -5  -5   93.19    8.00
   2   5   5   85.89    7.70
   2   5   5   83.49    7.60
  -3  -5  -5   53.39    7.10
  -3  -5  -5   54.69    6.90
  -3  -5  -5   57.79    3.60
   3   5   5   72.29    7.10
   3   5   5   62.79    7.00
  -4  -5  -5  114.09    9.20
  -4  -5  -5  133.89    9.40
   4   5   5  132.79    9.30
   4   5   5  133.29    8.70
   4   5   5  133.79    9.40
  -5  -5  -5  569.84   22.10
  -5  -5  -5  589.94   22.10
   5   5   5  595.54   22.40
   5   5   5  561.74   22.00
   5   5   5  570.04   20.90
  -6  -5  -5  386.06   17.80
  -6  -5  -5  409.36   18.10
   6   5   5  375.16   15.90
   6   5   5  364.06   17.70
   6   5   5  393.86   17.80
  -7  -5  -5    8.20    7.60
  -7  -5  -5    6.50    7.10
   7   5   5   11.40    7.90
   7   5   5   -5.00    6.70
   7   5   5   -0.70    4.50
  -8  -5  -5   16.50    9.30
  -8  -5  -5   19.20   10.00
   8   5   5   -5.20    8.40
   8   5   5   15.70   10.10
   8   5   5   11.20    5.40
   3  -6  -5   30.60   12.70
  -3   6   5   19.20   11.70
   2  -6  -5    4.30    8.40
   2  -6  -5    2.40    8.10
  -2   6   5    6.10    8.40
  -2   6   5   13.60    9.10
   1  -6  -5  162.18   13.50
   1  -6  -5  152.68   12.60
  -1   6   5  108.89   12.60
  -1   6   5  139.59   12.40
   0  -6  -5   -1.20    6.00
   0  -6  -5    9.80    5.70
   0   6   5   11.60    6.20
   0   6   5   18.20    6.70
  -1  -6  -5   44.80    7.40
  -1  -6  -5   38.00    6.80
   1   6   5   55.79    7.60
   1   6   5   47.00    7.40
  -2  -6  -5  151.48   10.70
   2   6   5  129.19   10.30
   2   6   5  131.39   10.30
  -3  -6  -5  107.69    9.30
  -3  -6  -5  107.09    6.00
  -3  -6  -5  119.49    9.80
   3   6   5  104.79    9.20
   3   6   5  107.69    9.30
  -4  -6  -5  383.86   17.90
  -4  -6  -5  420.36   18.10
   4   6   5  407.86   17.80
   4   6   5  445.96   18.40
  -5  -6  -5  342.37   17.50
  -5  -6  -5  358.66   17.70
   5   6   5  356.66   16.30
   5   6   5  370.16   17.10
   5   6   5  365.46   17.00
  -6  -6  -5    0.20    6.80
  -6  -6  -5   -6.70    5.90
   6   6   5   -0.90    5.20
   6   6   5   -2.10    5.70
   6   6   5    8.00    6.30
  -7  -6  -5   16.50    7.80
  -7  -6  -5    4.00    7.50
   7   6   5    3.60    7.30
   7   6   5   14.50    5.70
   7   6   5   15.50    8.50
  -8  -6  -5   -1.80    8.80
  -8  -6  -5  -12.40    9.50
   8   6   5   21.00    6.20
   8   6   5   23.70   10.20
   8   6   5    2.50   10.60
   1  -7  -5   19.50    9.30
   1  -7  -5   37.00   10.20
  -1   7   5   10.70    9.40
  -1   7   5   19.70    9.60
   0  -7  -5   96.69   13.20
   0  -7  -5  120.69   13.40
   0   7   5  138.39   13.40
   0   7   5  104.69   13.50
  -1  -7  -5  182.68   15.50
  -1  -7  -5  152.68   13.40
   1   7   5  175.98   13.50
   1   7   5  206.68   15.70
  -2  -7  -5    9.00    6.50
  -2  -7  -5    2.60    7.20
   2   7   5    6.20    7.40
   2   7   5    2.20    6.10
  -3  -7  -5   96.29    7.00
  -3  -7  -5   98.89   11.00
  -3  -7  -5   98.79   11.80
   3   7   5   83.89   10.60
   3   7   5   86.19   10.10
  -4  -7  -5   17.00    3.30
  -4  -7  -5    8.90    6.70
  -4  -7  -5   14.00    6.40
   4   7   5   13.40    7.20
   4   7   5    4.80    6.20
  -5  -7  -5   15.80    7.90
  -5  -7  -5   16.60    7.60
   5   7   5   23.30    7.20
   5   7   5   13.10    7.10
  -6  -7  -5  152.98   13.70
  -6  -7  -5  140.49   15.20
   6   7   5  158.18   12.30
   6   7   5  129.19   13.10
   6   7   5  158.88   13.90
  -7  -7  -5   42.30   10.40
  -7  -7  -5   48.70   10.00
   7   7   5   36.60    9.10
   7   7   5   40.60    7.60
   7   7   5   37.20   10.10
  -8  -7  -5   -4.00   10.10
  -8  -7  -5   30.70   11.40
   8   7   5    7.30   14.00
   8   7   5   32.40   11.80
   8   7   5   13.10    7.40
   0  -8  -5  -23.30    9.80
   0  -8  -5   13.30   10.80
   0   8   5    1.10   10.10
   0   8   5    5.50   10.70
  -1  -8  -5   23.50    9.70
  -1  -8  -5   27.40   10.00
   1   8   5   20.50    9.10
   1   8   5   26.90   10.30
  -2  -8  -5   24.90   10.60
  -2  -8  -5   31.10   10.10
   2   8   5   33.40    9.00
   2   8   5   47.20    9.90
  -3  -8  -5   53.99   10.60
  -3  -8  -5   61.99    6.50
   3   8   5   48.50   10.10
   3   8   5   35.10    9.00
  -4  -8  -5   95.89   11.80
  -4  -8  -5  113.89   15.30
  -4  -8  -5  119.19    8.20
   4   8   5  117.29   12.70
   4   8   5  120.19   13.40
  -5  -8  -5  104.29   14.00
  -5  -8  -5   77.79   11.60
   5   8   5   74.59   11.50
   5   8   5   80.09   11.30
  -6  -8  -5   13.50    8.50
  -6  -8  -5   17.00    9.50
   6   8   5    4.40    9.20
   6   8   5    9.00    8.70
   6   8   5   -3.40    7.50
  -7  -8  -5   37.50   11.00
  -7  -8  -5   22.10   10.40
   7   8   5   32.60    9.00
   7   8   5   18.70    9.20
   7   8   5   39.30   12.20
  -3  -9  -5   57.59   11.50
  -3  -9  -5   51.39    7.40
  -3  -9  -5   43.20   11.80
   3   9   5   64.29   12.90
   3   9   5   29.30   10.20
  -4  -9  -5   21.40   10.40
  -4  -9  -5   28.10    6.10
   4   9   5    9.20    9.20
   4   9   5   28.50   11.00
  -5  -9  -5   37.80   12.30
  -5  -9  -5   44.70   12.10
   5   9   5   66.59   12.20
  -4  -8   6   15.20    6.60
  -4  -8   6   15.40    6.60
   3   8  -6    2.90    3.50
   3   8  -6    4.90    3.40
  -3  -8   6    0.40    5.10
  -3  -8   6   -4.00    5.80
   2   8  -6  114.89    8.20
   2   8  -6   89.49    8.10
  -2  -8   6   76.79   10.50
  -2  -8   6   89.59   10.50
  -2  -8   6  105.99   10.20
   1   8  -6   42.20    6.70
  -1  -8   6   58.49    9.20
  -1  -8   6   57.79    7.70
  -1  -8   6   55.39    8.40
   5   7  -6   -2.60    6.10
  -5  -7   6   -0.90    5.10
  -5  -7   6   -7.20    3.90
   4   7  -6   86.99   11.40
  -4  -7   6   63.99    8.70
  -4  -7   6   77.09    7.30
  -4  -7   6   77.69   10.40
  -3  -7   6   80.19    9.60
  -3  -7   6   81.49    7.10
  -3  -7   6  101.89    9.40
   2   7  -6    2.70    3.00
   2   7  -6    1.90    3.00
  -2  -7   6    6.40    5.50
  -2  -7   6    1.30    4.00
  -2  -7   6    0.90    4.60
   1   7  -6   21.50    4.80
   1   7  -6   31.50    4.50
  -1  -7   6   35.40    5.80
  -1  -7   6   20.70    5.50
  -1  -7   6   16.90    6.60
   0   7  -6    6.80    5.00
   0   7  -6   -3.50    4.80
   0  -7   6   -4.80    5.70
   0  -7   6   -3.10    4.90
   0  -7   6   -2.00    5.90
   0  -7   6    8.70    5.50
  -1   7  -6    7.10    6.50
  -1   7  -6   20.30    6.70
   1  -7   6   35.50    8.40
   1  -7   6   10.80    6.90
   1  -7   6   22.70    7.40
   1  -7   6   21.80    5.50
   6   6  -6   18.70    5.50
   6   6  -6   16.00    3.60
   6   6  -6   13.80    3.40
  -6  -6   6   27.20    6.50
   5   6  -6   12.70    5.40
  -5  -6   6    1.00    3.50
  -5  -6   6    8.80    5.00
  -5  -6   6   15.70    4.10
   4   6  -6   38.60    6.60
  -4  -6   6   45.90    7.10
  -4  -6   6   43.90    6.70
   3   6  -6    7.80    5.50
  -3  -6   6   14.00    2.70
  -3  -6   6    7.30    2.60
  -3  -6   6   16.20    4.90
  -3  -6   6    4.60    4.80
   2   6  -6    6.10    1.40
  -2  -6   6   11.20    4.80
  -2  -6   6    6.70    5.00
  -2  -6   6    3.80    2.80
  -2  -6   6    4.10    2.80
   1   6  -6  121.49    6.40
   1   6  -6  120.89    6.20
  -1  -6   6  123.09    9.60
  -1  -6   6  128.89    8.80
  -1  -6   6  111.59    7.30
   0   6  -6   22.90    4.30
   0   6  -6   30.60    4.40
   0  -6   6   30.50    5.50
   0  -6   6   23.60    4.90
   0  -6   6   30.70    5.50
   0  -6   6   31.00    5.20
  -1   6  -6   -2.30    4.40
  -1   6  -6    3.60    4.30
   1  -6   6    2.80    4.90
   1  -6   6   -7.50    4.70
   1  -6   6    5.10    4.20
  -2   6  -6  271.77   14.30
   2  -6   6  249.58   15.30
   2  -6   6  243.68   14.70
   2  -6   6  250.47   15.80
  -3   6  -6   68.59    9.70
  -3   6  -6   94.59   13.00
   3  -6   6   75.09   10.10
   3  -6   6   63.79    9.90
   3  -6   6  106.59   14.00
   7   5  -6  110.79    9.90
  -7  -5   6  135.49   12.50
   6   5  -6   -1.30    3.60
   6   5  -6    3.40    3.90
   6   5  -6   -0.30    3.60
  -6  -5   6   -3.70    4.70
  -6  -5   6    0.00    5.00
  -6  -5   6    6.10    4.90
   5   5  -6   19.10    2.40
   5   5  -6   15.60    4.60
   5   5  -6   18.40    2.50
  -5  -5   6   13.70    5.60
  -5  -5   6   11.70    3.60
   4   5  -6   -0.50    4.10
  -4  -5   6    3.50    2.40
  -4  -5   6    1.30    2.40
  -4  -5   6   -3.50    4.00
   3   5  -6  160.68   10.20
  -3  -5   6  165.38    5.90
  -3  -5   6  152.78   10.30
  -3  -5   6  154.68    5.80
  -3  -5   6  172.48   10.60
   2   5  -6  663.73   23.60
  -2  -5   6  672.83   18.70
  -2  -5   6  634.14   23.40
  -2  -5   6  639.34   22.90
  -2  -5   6  630.24   18.60
   1   5  -6   -0.30    1.50
   1   5  -6    2.70    1.50
  -1  -5   6    0.60    4.00
  -1  -5   6   -2.50    3.40
  -1  -5   6    3.60    2.30
  -1  -5   6   -0.70    2.10
   0   5  -6  274.37   10.40
   0   5  -6  275.07   10.20
   0  -5   6  268.47   13.10
   0  -5   6  297.17   12.10
   0  -5   6  273.07   11.00
   0  -5   6  275.87   11.00
  -1   5  -6  105.49    7.20
  -1   5  -6  101.69    7.20
   1  -5   6  104.69    7.30
   1  -5   6  100.59    7.90
   1  -5   6  100.69    7.50
   1  -5   6   98.49    8.60
  -2   5  -6   60.39    7.80
  -2   5  -6   45.20    6.20
   2  -5   6   57.19    6.80
   2  -5   6   49.00    7.40
  -3   5  -6   -4.30    5.60
  -3   5  -6    6.10    6.20
   3  -5   6    9.10    7.20
   3  -5   6    5.20    6.20
   3  -5   6    4.10    5.50
  -4   5  -6   25.90    9.10
  -4   5  -6    7.70   10.40
  -4   5  -6   19.80    8.30
   4  -5   6   10.80    8.70
   4  -5   6   23.60    9.10
   7   4  -6    4.60    6.00
  -7  -4   6    1.50    7.50
  -7  -4   6    4.70    7.90
  -7  -4   6    5.20    5.90
   6   4  -6   77.89    7.20
   6   4  -6   56.29    7.20
  -6  -4   6   56.89    7.70
   5   4  -6   -1.30    2.50
   5   4  -6    1.90    2.60
   5   4  -6   -1.20    3.40
  -5  -4   6    0.90    3.30
  -5  -4   6   -0.60    4.30
   4   4  -6  154.98    8.80
  -4  -4   6  138.49    9.70
  -4  -4   6  168.08    6.70
  -4  -4   6  148.59    6.50
   3   4  -6 1650.03   48.10
  -3  -4   6 1570.74   49.30
  -3  -4   6 1709.63   43.80
  -3  -4   6 1566.74   49.00
   2   4  -6   32.00    5.00
  -2  -4   6   29.80    4.70
  -2  -4   6   27.50    4.90
   1   4  -6  217.58   11.00
  -1  -4   6  187.48    9.90
  -1  -4   6  200.78    6.60
  -1  -4   6  198.68   10.90
  -1  -4   6  211.28    6.70
   0   4  -6    4.00    1.70
   0   4  -6    2.90    1.80
   0   4  -6    0.70    4.10
   0  -4   6    1.20    3.50
   0  -4   6    7.40    2.30
   0  -4   6   10.10    3.50
  -1   4  -6   54.09    5.00
  -1   4  -6   52.69    4.90
   1  -4   6   58.79    5.60
   1  -4   6   59.69    5.50
   1  -4   6   61.89    5.80
   1  -4   6   49.90    6.50
  -2   4  -6  277.47   12.10
  -2   4  -6  275.57   11.70
   2  -4   6  264.37   12.10
   2  -4   6  268.97   12.50
   2  -4   6  285.57   13.60
  -3   4  -6  107.89    9.30
  -3   4  -6  104.09    8.80
   3  -4   6   92.99    9.20
   3  -4   6  112.69    9.20
  -4   4  -6   62.59    8.30
  -4   4  -6   59.39    8.40
  -4   4  -6   59.59   10.20
   4  -4   6   63.09    9.00
   4  -4   6   62.89    8.50
  -5   4  -6   22.80    8.60
  -5   4  -6   20.80    9.60
  -5   4  -6   20.60   10.90
   5  -4   6    3.60    8.60
   5  -4   6   13.30    8.50
   7   3  -6   19.10    6.60
   7   3  -6   18.20    7.00
  -7  -3   6    5.70    6.90
  -7  -3   6    9.30    5.30
  -7  -3   6   21.40    8.10
   6   3  -6   30.10    4.90
   6   3  -6   20.30    4.90
  -6  -3   6   26.10    6.00
  -6  -3   6   21.40    5.50
   5   3  -6   -2.10    3.10
   5   3  -6   -4.40    2.90
  -5  -3   6    0.00    3.80
  -5  -3   6    0.90    3.40
  -5  -3   6   -1.00    3.50
   4   3  -6  302.97   11.80
   4   3  -6  298.07    9.60
   4   3  -6  287.47    9.70
  -4  -3   6  257.97   13.10
  -4  -3   6  299.87   10.70
   3   3  -6   38.00    4.90
  -3  -3   6   34.70    5.50
  -3  -3   6   32.80    2.60
  -3  -3   6   34.60    2.50
   2   3  -6  879.01   27.70
  -2  -3   6  885.11   28.50
  -2  -3   6  832.42   27.80
   1   3  -6  106.49    7.50
  -1  -3   6  102.69    7.50
  -1  -3   6  101.49    7.00
   0   3  -6   22.10    1.60
   0   3  -6   28.00    5.00
   0   3  -6   22.90    1.60
   0  -3   6   25.30    3.90
   0  -3   6   25.20    2.70
   0  -3   6   24.30    2.40
   0  -3   6   24.70    4.40
  -1   3  -6  395.86   12.80
  -1   3  -6  395.76   12.90
  -1   3  -6  385.16   16.10
   1  -3   6  393.36   15.50
   1  -3   6  389.46   13.30
   1  -3   6  387.26   13.20
  -2   3  -6   50.09    7.00
  -2   3  -6   45.10    5.20
  -2   3  -6   42.50    5.20
   2  -3   6   49.60    5.30
   2  -3   6   40.20    5.70
   2  -3   6   49.99    5.90
  -3   3  -6  404.56   15.60
  -3   3  -6  378.96   15.40
  -3   3  -6  380.76   17.70
   3  -3   6  394.46   16.30
   3  -3   6  403.36   16.00
   3  -3   6  393.26   15.80
  -4   3  -6  107.89    8.90
  -4   3  -6   93.09    9.30
   4  -3   6   85.69    9.70
  -5   3  -6    6.40    9.00
  -5   3  -6   17.00    7.70
  -5   3  -6    9.80    7.00
   5  -3   6   15.50    8.30
   5  -3   6   14.40    6.60
  -6   3  -6   63.09   11.90
  -6   3  -6   86.39   12.80
   6  -3   6   46.20   11.70
   7   2  -6   43.60    8.10
   7   2  -6   33.00    7.80
  -7  -2   6   38.20    9.20
  -7  -2   6   41.90    7.40
  -7  -2   6   41.00    9.00
   6   2  -6    5.50    5.00
   6   2  -6    7.40    5.40
  -6  -2   6    5.70    4.60
  -6  -2   6    5.60    5.90
  -6  -2   6   -6.20    5.70
   5   2  -6  147.49    8.70
   5   2  -6  169.78    8.50
  -5  -2   6  151.18   10.40
  -5  -2   6  152.28    9.00
  -5  -2   6  159.58    9.50
   4   2  -6   21.30    3.40
   4   2  -6   15.90    2.90
  -4  -2   6   16.90    3.50
  -4  -2   6   24.50    5.20
  -4  -2   6   23.00    3.50
   3   2  -6    3.20    1.50
   3   2  -6   -2.40    2.60
   3   2  -6   -0.10    1.30
  -3  -2   6    1.60    3.30
  -3  -2   6   -1.10    1.70
  -3  -2   6    1.60    1.90
   2   2  -6  682.23   22.10
  -2  -2   6  667.53   22.70
  -2  -2   6  676.83   18.40
  -2  -2   6  657.33   18.40
   1   2  -6    3.90    3.00
  -1  -2   6    3.10    2.70
  -1  -2   6    1.60    2.90
   0   2  -6  236.08   10.80
   0  -2   6  225.18   10.00
   0  -2   6  221.18    7.00
   0  -2   6  223.28    9.70
   0  -2   6  217.18    6.90
  -1   2  -6  465.95   15.60
  -1   2  -6  530.75   15.70
  -1   2  -6  540.95   19.20
   1  -2   6  520.85   18.10
   1  -2   6  524.85   16.10
   1  -2   6  530.65   16.10
  -2   2  -6  463.95   15.30
  -2   2  -6  447.36   17.90
  -2   2  -6  482.75   15.60
   2  -2   6  449.26   16.70
   2  -2   6  459.35   15.70
   2  -2   6  454.15   15.60
  -3   2  -6  212.18   10.00
  -3   2  -6  190.78    9.50
  -3   2  -6  171.78   10.70
   3  -2   6  186.18   10.10
   3  -2   6  218.68   10.20
   3  -2   6  209.88   10.20
  -4   2  -6   40.70    6.10
  -4   2  -6   42.40    7.30
  -4   2  -6   25.40    5.50
   4  -2   6   39.40    6.10
   4  -2   6   36.50    6.60
  -5   2  -6  421.36   18.70
  -5   2  -6  410.96   18.80
  -5   2  -6  394.56   18.00
   5  -2   6  403.06   18.20
  -6   2  -6   54.39   10.00
  -6   2  -6   20.10    8.30
   6  -2   6   25.70    8.10
   6  -2   6   28.60   10.10
   6   1  -6    3.70    5.50
   6   1  -6   -3.00    6.00
  -6  -1   6  -10.10    6.10
  -6  -1   6   -5.40    4.60
  -6  -1   6    6.50    6.90
   5   1  -6  297.67   13.10
   5   1  -6  315.47   13.50
  -5  -1   6  308.17   13.80
  -5  -1   6  300.27   11.40
  -5  -1   6  305.07   13.90
  -5  -1   6  292.37   14.10
   4   1  -6   56.79    5.60
   4   1  -6   58.79    5.50
  -4  -1   6   66.09    5.80
  -4  -1   6   53.29    6.40
  -4  -1   6   50.19    6.00
  -4  -1   6   50.49    6.20
   3   1  -6   34.40    3.80
   3   1  -6   39.30    3.90
  -3  -1   6   40.00    5.10
  -3  -1   6   38.90    4.20
  -3  -1   6   35.40    4.60
  -3  -1   6   31.50    5.10
   2   1  -6   99.29    6.60
   2   1  -6   97.89    4.20
   2   1  -6   93.99    4.10
  -2  -1   6   95.39    4.60
  -2  -1   6   98.99    6.80
  -2  -1   6   85.99    6.50
   1   1  -6   36.80    4.50
  -1  -1   6   37.70    2.40
  -1  -1   6   42.10    2.30
  -1  -1   6   35.80    4.60
  -1  -1   6   38.90    5.00
   0   1  -6    5.60    1.00
   0   1  -6    5.00    1.00
   0   1  -6    4.20    2.80
   0  -1   6    4.00    1.20
   0  -1   6    2.00    2.80
   0  -1   6    3.00    2.80
   0  -1   6    5.00    1.20
  -1   1  -6  153.68    8.70
  -1   1  -6  154.08    6.00
  -1   1  -6  150.88    6.00
   1  -1   6  155.58    6.40
   1  -1   6  156.38    7.50
   1  -1   6  163.08    6.40
  -2   1  -6   97.09    5.50
  -2   1  -6   93.49    7.20
  -2   1  -6   94.29    5.30
   2  -1   6   88.19    5.60
   2  -1   6   92.19    6.00
   2  -1   6   95.59    5.60
  -3   1  -6   78.69    6.10
  -3   1  -6   71.69    5.90
  -3   1  -6   66.19    7.10
   3  -1   6   73.09    6.00
   3  -1   6   61.09    5.50
   3  -1   6   84.49    6.30
  -4   1  -6  893.51   29.10
  -4   1  -6  895.41   29.20
  -4   1  -6  890.31   29.90
   4  -1   6  922.21   29.70
   4  -1   6  897.41   29.30
  -5   1  -6   -9.10    4.30
  -5   1  -6   -1.80    4.10
  -5   1  -6   -1.30    4.90
   5  -1   6    0.00    5.30
  -6   1  -6  151.88   12.60
  -6   1  -6  125.49   11.90
  -6   1  -6  147.09   12.10
   6  -1   6  166.48   13.90
  -7   1  -6   20.70    9.90
  -7   1  -6   15.50    9.70
  -7   1  -6   -4.60   10.30
   7  -1   6   21.10    9.60
   7  -1   6   11.20    9.20
   6   0  -6   62.59    8.80
   6   0  -6   66.89    9.70
  -6   0   6   94.49   12.80
  -6   0   6   74.39    7.00
  -6   0   6  106.79   12.20
   5   0  -6  164.98   10.60
   5   0  -6  183.08   11.40
  -5   0   6  167.68   10.90
  -5   0   6  177.98    9.20
  -5   0   6  183.88   11.60
   4   0  -6  172.98    9.80
   4   0  -6  167.18    9.30
  -4   0   6  177.48    9.90
  -4   0   6  178.38    9.00
  -4   0   6  169.98   10.10
  -4   0   6  182.98   10.00
   3   0  -6   13.50    3.30
   3   0  -6   18.90    3.60
  -3   0   6   19.40    3.70
  -3   0   6   12.00    3.70
  -3   0   6   14.60    3.50
  -3   0   6   15.90    3.80
   2   0  -6   -0.70    1.80
   2   0  -6    3.50    2.00
  -2   0   6   -1.50    2.80
  -2   0   6   -1.00    2.00
   1   0  -6   79.79    4.20
   1   0  -6   77.99    4.10
   1   0  -6   80.29    6.10
  -1   0   6   79.69    6.10
  -1   0   6   84.49    4.50
  -1   0   6   77.09    4.40
   0   0  -6  214.08    7.10
   0   0  -6  183.98    9.00
   0   0  -6  185.28    6.90
   0   0   6  190.28    7.10
   0   0   6  185.98    7.10
   0   0   6  185.28    9.20
  -1   0  -6   27.80    4.30
  -1   0  -6   23.10    2.80
  -1   0  -6   28.00    2.80
   1   0   6   25.50    3.30
   1   0   6   30.50    3.20
   1   0   6   26.50    2.90
   1   0   6   21.30    3.90
  -2   0  -6  115.49    5.70
  -2   0  -6  119.09    7.70
  -2   0  -6  103.79    5.70
   2   0   6  104.79    7.40
   2   0   6  108.39    6.00
   2   0   6  113.79    6.10
   2   0   6  110.39    5.90
  -3   0  -6  400.96   14.50
  -3   0  -6  392.56   15.60
  -3   0  -6  420.06   14.70
   3   0   6  396.66   14.60
   3   0   6  402.26   14.70
   3   0   6  401.66   13.80
  -4   0  -6  101.69    7.90
  -4   0  -6  118.99    7.70
  -4   0  -6  108.59    8.30
   4   0   6   97.49    8.00
   4   0   6  111.69    7.70
  -5   0  -6  274.97   13.90
  -5   0  -6  276.47   13.40
  -5   0  -6  300.07   14.30
   5   0   6  282.27   13.60
  -6   0  -6   -3.00    5.50
  -6   0  -6   -0.50    5.40
  -6   0  -6    2.80    5.30
   6   0   6   -1.90    6.20
  -7   0  -6    1.00    6.70
  -7   0  -6    8.60    8.10
  -7   0  -6   -9.30    7.90
   7   0   6    7.80    8.70
   7   0   6   -1.60    7.90
   6  -1  -6   48.70    9.80
   6  -1  -6   60.59   10.00
  -6   1   6   46.30    6.70
  -6   1   6   48.30   10.00
  -6   1   6   49.99   10.90
   5  -1  -6   -2.30    6.00
   5  -1  -6    5.30    6.30
  -5   1   6   12.60    6.80
  -5   1   6   -2.00    6.30
  -5   1   6   -0.90    4.40
   4  -1  -6   84.29    8.10
   4  -1  -6   90.39    8.70
  -4   1   6   85.99    8.80
  -4   1   6   67.49    7.40
  -4   1   6   76.09    9.00
   3  -1  -6   90.19    7.00
   3  -1  -6   77.89    6.80
  -3   1   6   89.39    7.20
  -3   1   6   90.49    7.40
  -3   1   6   90.99    7.30
   2  -1  -6   22.60    3.60
   2  -1  -6   20.00    3.20
  -2   1   6   21.10    4.00
  -2   1   6   17.40    3.60
   1  -1  -6  207.98    8.50
   1  -1  -6  206.58    8.50
  -1   1   6  206.38    9.90
  -1   1   6  206.88    8.70
  -1   1   6  206.18    8.70
   0  -1  -6  178.08    7.20
   0  -1  -6  176.78    7.30
   0   1   6  163.58    8.90
   0   1   6  176.38    7.50
   0   1   6  174.08    7.50
  -1  -1  -6 1746.13   50.99
  -1  -1  -6 1770.22   49.20
  -1  -1  -6 1716.13   49.20
   1   1   6 1719.33   50.99
   1   1   6 1755.52   49.30
   1   1   6 1804.12   49.40
  -2  -1  -6  460.95   15.20
  -2  -1  -6  441.66   16.60
  -2  -1  -6  454.85   15.20
   2   1   6  459.45   15.40
   2   1   6  442.86   15.40
   2   1   6  444.26   14.10
   2   1   6  456.45   16.60
  -3  -1  -6   22.80    3.40
  -3  -1  -6   18.70    4.00
  -3  -1  -6   23.00    3.70
   3   1   6   21.00    3.70
   3   1   6   25.30    4.00
   3   1   6   25.80    3.30
   3   1   6   29.00    4.50
  -4  -1  -6   86.39    7.30
  -4  -1  -6   73.89    6.90
  -4  -1  -6   67.19    6.40
   4   1   6   72.39    5.10
   4   1   6   84.49    7.10
   4   1   6   75.89    6.50
   4   1   6   66.99    6.90
  -5  -1  -6   -1.40    4.10
  -5  -1  -6    8.90    3.90
  -5  -1  -6   -2.60    3.80
   5   1   6   -1.20    4.30
   5   1   6    1.80    4.10
  -6  -1  -6   51.09    7.80
  -6  -1  -6   30.50    6.10
  -6  -1  -6   35.70    6.90
   6   1   6   36.10    7.20
  -7  -1  -6  106.79   13.40
  -7  -1  -6   90.49   11.10
  -7  -1  -6   70.89   10.10
   7   1   6   90.19   11.60
   7   1   6   93.89   11.90
  -8  -1  -6   -1.90   10.00
  -8  -1  -6    4.40   10.40
  -8  -1  -6    3.10    7.00
   8   1   6  -15.00    9.10
   8   1   6    5.40   10.20
   5  -2  -6   12.70    8.00
   5  -2  -6    8.30    6.50
  -5   2   6    5.90    7.20
  -5   2   6  -12.30    8.30
  -5   2   6    1.80    6.00
   4  -2  -6   43.10    7.10
   4  -2  -6   43.10    7.30
  -4   2   6   40.70    8.60
  -4   2   6   34.20    7.20
  -4   2   6   51.99    7.00
   3  -2  -6   -2.20    4.00
   3  -2  -6   -1.60    4.30
  -3   2   6    5.00    4.80
  -3   2   6    5.10    4.40
  -3   2   6    6.70    4.50
   2  -2  -6  206.48   10.20
   2  -2  -6  212.28   10.00
  -2   2   6  182.48   10.00
  -2   2   6  219.98   10.50
  -2   2   6  204.38   10.80
   1  -2  -6   75.49    6.00
   1  -2  -6   67.79    5.70
  -1   2   6   71.89    6.70
  -1   2   6   60.09    5.80
  -1   2   6   62.79    5.80
   0  -2  -6 1050.29   31.40
   0  -2  -6 1058.59   31.50
   0   2   6 1057.29   31.50
   0   2   6  999.30   31.30
   0   2   6 1057.79   32.70
  -1  -2  -6  464.45   16.10
  -1  -2  -6  498.35   16.30
   1   2   6  463.95   16.10
   1   2   6  496.75   17.80
   1   2   6  461.05   16.10
  -2  -2  -6    1.00    2.50
  -2  -2  -6    3.30    2.40
   2   2   6    0.90    2.80
   2   2   6   -0.10    2.90
   2   2   6    2.20    2.60
  -3  -2  -6    6.40    2.90
  -3  -2  -6    2.20    3.10
  -3  -2  -6    4.50    2.60
   3   2   6    4.20    3.40
   3   2   6    5.60    3.10
   3   2   6    2.10    2.80
  -4  -2  -6   44.60    5.80
  -4  -2  -6   51.49    5.80
  -4  -2  -6   55.09    5.90
   4   2   6   46.40    6.00
   4   2   6   47.10    3.50
   4   2   6   40.60    5.70
   4   2   6   42.70    5.70
  -5  -2  -6   17.60    4.80
  -5  -2  -6   20.20    5.20
  -5  -2  -6   20.40    5.50
   5   2   6   11.60    4.60
   5   2   6   16.40    4.80
   5   2   6   11.30    4.70
  -6  -2  -6    3.60    5.30
  -6  -2  -6   -1.10    4.20
  -6  -2  -6   -3.20    5.00
   6   2   6    4.40    6.10
   6   2   6   -2.30    5.30
  -7  -2  -6   61.99   10.10
  -7  -2  -6   73.29    9.10
  -7  -2  -6   59.59    9.30
   7   2   6   61.39    9.70
   7   2   6   64.29    9.50
  -8  -2  -6   64.69   11.00
  -8  -2  -6   47.80   11.30
   8   2   6   58.59   11.40
   8   2   6   54.89   11.40
   5  -3  -6   72.79   11.60
  -5   3   6   45.00   10.40
  -5   3   6   37.70    9.00
   4  -3  -6   27.10    7.40
   4  -3  -6   42.10    8.40
  -4   3   6   57.79    9.10
  -4   3   6   25.50    8.00
   3  -3  -6  310.97   15.80
   3  -3  -6  317.27   15.50
   2  -3  -6   18.00    4.70
   2  -3  -6   18.60    5.40
  -2   3   6   18.70    5.00
  -2   3   6   18.70    4.90
   1  -3  -6   48.20    5.90
   1  -3  -6   41.20    5.60
  -1   3   6   44.50    5.80
  -1   3   6   41.40    5.50
   0  -3  -6   29.10    4.30
   0  -3  -6   35.50    5.00
   0   3   6   26.70    5.00
   0   3   6   23.40    4.20
   0   3   6   45.70    5.90
  -1  -3  -6   34.70    4.80
  -1  -3  -6   39.00    5.20
   1   3   6   32.80    4.70
   1   3   6   32.70    5.20
   1   3   6   30.80    4.30
  -2  -3  -6  639.64   21.10
  -2  -3  -6  608.24   20.80
   2   3   6  604.64   21.50
   2   3   6  611.84   20.90
   2   3   6  631.24   20.90
  -3  -3  -6    6.20    3.00
  -3  -3  -6   10.60    3.60
   3   3   6    3.10    3.20
   3   3   6    8.10    3.40
   3   3   6    2.80    3.30
  -4  -3  -6   52.89    6.30
  -4  -3  -6   56.49    6.90
   4   3   6   50.19    6.20
   4   3   6   52.99    6.10
   4   3   6   46.60    6.20
  -5  -3  -6   81.09    8.80
  -5  -3  -6   86.29    8.00
   5   3   6   88.99    8.30
   5   3   6   88.49    7.60
   5   3   6   75.09    7.90
  -6  -3  -6   71.79    8.90
  -6  -3  -6   62.99    8.80
   6   3   6   84.79   10.90
   6   3   6   64.59    8.40
   6   3   6   64.69    8.00
  -7  -3  -6  180.18   14.60
  -7  -3  -6  164.08   13.70
   7   3   6  166.98   15.10
   7   3   6  175.38   14.60
  -8  -3  -6    4.80    8.40
  -8  -3  -6   18.10    9.60
   8   3   6  -10.70    9.50
   8   3   6    4.10    9.70
   4  -4  -6   -6.30    8.30
   4  -4  -6    2.10    8.60
  -4   4   6   10.20    8.90
   3  -4  -6   10.00    6.50
   3  -4  -6   -1.00    6.60
  -3   4   6   15.90    6.80
   2  -4  -6    2.70    5.40
   2  -4  -6   -6.40    5.10
  -2   4   6    0.80    5.80
   1  -4  -6  437.16   17.80
   1  -4  -6  421.36   17.50
  -1   4   6  405.36   17.10
   0  -4  -6   13.30    5.00
   0  -4  -6    6.60    4.40
   0   4   6   18.20    4.30
   0   4   6   12.50    4.40
  -1  -4  -6  125.39    8.40
   1   4   6  118.59    8.10
   1   4   6  129.49    8.40
  -2  -4  -6  233.88   11.20
  -2  -4  -6  225.18   11.00
   2   4   6  220.98   11.00
   2   4   6  219.08   10.90
   2   4   6  219.28   11.80
  -3  -4  -6    8.90    3.90
  -3  -4  -6   10.30    4.00
   3   4   6    0.00    3.50
   3   4   6    7.90    4.30
   3   4   6    6.90    3.90
  -4  -4  -6   64.49    7.30
  -4  -4  -6   74.29    7.50
   4   4   6   78.19    7.50
   4   4   6   90.29    7.50
   4   4   6   77.89    7.70
  -5  -4  -6   95.79    8.80
  -5  -4  -6   98.39    8.90
   5   4   6   74.29    8.40
   5   4   6   99.39    9.00
   5   4   6   89.89    8.00
  -6  -4  -6  356.96   16.90
  -6  -4  -6  378.26   16.80
   6   4   6  356.26   17.10
   6   4   6  342.17   15.20
   6   4   6  323.27   16.70
  -7  -4  -6   41.70    9.00
  -7  -4  -6   29.30    7.90
   7   4   6   28.00    6.10
   7   4   6   32.30    8.20
   7   4   6   32.20    8.30
  -8  -4  -6  186.98   17.90
  -8  -4  -6  178.68   17.10
   8   4   6  172.78   16.40
   8   4   6  190.18   18.60
   3  -5  -6   40.00    9.40
   3  -5  -6   36.80   10.30
  -3   5   6   48.70   10.30
  -3   5   6   22.80    9.20
   2  -5  -6   87.69   11.60
   2  -5  -6   85.99   10.40
  -2   5   6   77.49   10.80
   1  -5  -6  109.49   11.30
   1  -5  -6  123.69   11.80
  -1   5   6  123.79   12.30
  -1   5   6  105.29   11.40
   0  -5  -6   37.50    6.50
   0  -5  -6   35.90    6.90
   0   5   6   35.50    6.30
   0   5   6   38.10    7.30
  -1  -5  -6   30.80    6.30
  -1  -5  -6   22.30    5.60
   1   5   6   27.70    6.30
   1   5   6   27.20    5.80
  -2  -5  -6    9.30    5.00
  -2  -5  -6   11.80    4.80
   2   5   6    2.30    4.50
   2   5   6   12.20    4.80
  -3  -5  -6  223.68   11.90
  -3  -5  -6  225.78   12.10
  -3  -5  -6  192.78    6.70
   3   5   6  214.98   12.50
   3   5   6  215.68   11.90
   3   5   6  225.08   11.90
  -4  -5  -6   24.30    5.90
  -4  -5  -6   29.70    5.80
   4   5   6   13.70    5.00
   4   5   6   20.10    5.60
   4   5   6   16.00    5.50
  -5  -5  -6  269.27   14.20
  -5  -5  -6  266.37   14.20
   5   5   6  285.97   15.20
   5   5   6  222.78   13.20
   5   5   6  293.27   14.60
  -6  -5  -6  133.09   12.80
  -6  -5  -6  134.49   12.30
   6   5   6  139.89   12.00
   6   5   6  124.79   10.00
   6   5   6  133.39   11.50
  -7  -5  -6   23.90    8.20
  -7  -5  -6    5.30    7.50
   7   5   6    9.00    8.70
   7   5   6   19.20    6.10
   7   5   6   25.20    8.50
  -8  -5  -6   38.50   11.60
  -8  -5  -6   24.20   10.30
   8   5   6   44.20   11.70
   8   5   6   40.80    7.40
   8   5   6   31.30   10.90
   2  -6  -6    5.00    8.40
   2  -6  -6   15.40    9.20
  -2   6   6   -1.70    8.40
  -2   6   6    4.80    9.60
   1  -6  -6   12.10    7.40
   1  -6  -6    3.90    8.60
  -1   6   6    6.70    7.60
  -1   6   6   -0.40    7.90
   0  -6  -6   24.80    8.00
   0  -6  -6   23.50    7.50
   0   6   6   32.00    7.50
   0   6   6   21.80    7.50
  -1  -6  -6    3.10    6.10
  -1  -6  -6    1.60    5.80
   1   6   6    3.50    5.90
   1   6   6    7.10    6.00
  -2  -6  -6   25.00    6.90
   2   6   6   17.80    6.10
   2   6   6   18.40    6.40
  -3  -6  -6   56.29    8.60
  -3  -6  -6   56.49    4.90
  -3  -6  -6   47.50    7.50
   3   6   6   51.19    7.80
   3   6   6   52.79    7.60
  -4  -6  -6  142.69   12.40
  -4  -6  -6  142.39   11.50
   4   6   6  155.38   11.70
   4   6   6  154.48   11.60
  -5  -6  -6   41.40    8.50
  -5  -6  -6   28.40    7.20
   5   6   6   40.10    7.70
   5   6   6   42.40    8.10
   5   6   6   57.29    7.80
  -6  -6  -6   29.90    8.00
  -6  -6  -6   18.70    8.20
   6   6   6   27.50    7.60
   6   6   6   25.70    8.30
   6   6   6   41.00    7.40
  -7  -6  -6   22.10    8.80
  -7  -6  -6   43.80    9.80
   7   6   6   45.20    9.60
   7   6   6   46.70    7.80
   7   6   6   41.30    9.70
  -8  -6  -6  107.79   13.50
  -8  -6  -6  117.89   14.10
   8   6   6  117.09   12.10
   8   6   6  138.39   15.90
   8   6   6  132.59   16.60
   1  -7  -6   28.20   11.10
   1  -7  -6   -8.00    8.70
  -1   7   6    2.10    9.60
  -1   7   6   -4.10    9.10
   0  -7  -6   61.29   11.60
   0  -7  -6   44.20   10.20
   0   7   6   47.50    9.90
   0   7   6   47.90   10.50
  -1  -7  -6    9.80    8.10
  -1  -7  -6    1.40    8.20
   1   7   6    6.70    7.20
   1   7   6    1.10    7.30
  -2  -7  -6   44.90    9.20
  -2  -7  -6   47.00    8.70
   2   7   6   22.70    7.70
   2   7   6   50.89    9.30
  -3  -7  -6   11.10    4.00
  -3  -7  -6   20.80    8.40
  -3  -7  -6   19.10    7.30
   3   7   6   36.00    7.60
   3   7   6   15.40    7.40
  -4  -7  -6    4.30    6.60
  -4  -7  -6   13.10    7.40
  -4  -7  -6    9.90    2.70
   4   7   6    5.10    7.40
   4   7   6   -1.00    6.70
  -5  -7  -6   97.69   12.00
  -5  -7  -6   94.69   12.60
   5   7   6   86.19   11.40
   5   7   6  100.29   12.00
   5   7   6   88.59   11.10
  -6  -7  -6  199.78   16.00
  -6  -7  -6  205.98   15.60
   6   7   6  198.78   14.30
   6   7   6  202.48   17.30
   6   7   6  188.28   16.60
  -7  -7  -6   28.90   10.70
  -7  -7  -6   28.70   10.30
   7   7   6    6.50    7.50
   7   7   6   24.80    9.60
   7   7   6   31.80   10.30
  -1  -8  -6  -12.30    9.50
  -1  -8  -6   -9.00    9.90
   1   8   6    2.60   10.50
   1   8   6   14.20    9.90
  -2  -8  -6   11.80    9.40
  -2  -8  -6    4.20    9.80
   2   8   6    5.10    8.90
   2   8   6   15.10    9.50
  -3  -8  -6   46.10   10.90
  -3  -8  -6   36.80   10.10
  -3  -8  -6   25.80    5.50
   3   8   6   41.10    9.70
   3   8   6   25.60   10.30
  -4  -8  -6   97.79   13.80
  -4  -8  -6  106.89    7.40
  -4  -8  -6  106.69   14.20
   4   8   6  100.89   13.00
   4   8   6  106.09   14.40
  -5  -8  -6    8.40    9.30
  -5  -8  -6  -16.70    8.40
   5   8   6   -3.20    9.10
   5   8   6    2.50    9.20
  -6  -8  -6  -14.20    9.60
  -6  -8  -6  -11.30    9.40
   6   8   6   -5.30    9.60
   6   8   6   10.40   10.90
   6   8   6    2.70    9.00
   4   7  -7   11.70    8.00
  -4  -7   7   -0.90    2.40
  -4  -7   7    8.40    5.60
  -4  -7   7    6.10    6.30
  -4  -7   7    4.30    2.70
   3   7  -7   27.40    8.90
  -3  -7   7   -1.50    3.00
  -3  -7   7    1.80    2.80
  -3  -7   7    9.20    6.00
  -3  -7   7    4.30    5.30
   2   7  -7   41.60    9.60
  -2  -7   7   35.90    8.10
  -2  -7   7   27.60    5.80
  -2  -7   7   47.20    6.20
   1   7  -7  102.99    6.50
   1   7  -7  107.99    6.20
  -1  -7   7  139.09   10.50
  -1  -7   7  116.99    9.30
  -1  -7   7  123.79   12.50
   0   7  -7   50.79    6.10
   0   7  -7   36.40    5.50
   0  -7   7   39.30    7.40
   0  -7   7   46.90    7.00
   0  -7   7   43.50    8.60
  -1   7  -7    1.00    6.30
   1  -7   7   17.30    8.30
   1  -7   7   13.10    7.00
   5   6  -7   21.40    6.50
  -5  -6   7   16.20    5.60
   4   6  -7  128.79   11.40
  -4  -6   7  137.49   11.00
   3   6  -7    1.50    6.50
  -3  -6   7    2.80    5.10
  -3  -6   7    5.20    4.70
   2   6  -7   65.09    9.20
  -2  -6   7   69.49    8.30
  -2  -6   7   66.69    4.30
  -2  -6   7   76.29    8.70
   1   6  -7    9.90    7.40
  -1  -6   7    2.70    3.10
  -1  -6   7    9.60    5.10
  -1  -6   7   -0.80    3.10
  -1  -6   7    9.70    4.80
   0   6  -7   -1.40    3.20
   0   6  -7    0.10    3.20
   0  -6   7    2.70    4.30
   0  -6   7    6.60    4.50
   0  -6   7    0.50    5.20
   0  -6   7    0.40    4.10
  -1   6  -7    3.10    4.70
  -1   6  -7    2.30    4.50
   1  -6   7    7.30    5.90
   1  -6   7  -11.00    5.00
  -2   6  -7   -1.00    6.20
  -2   6  -7   13.70    6.40
   2  -6   7   11.80    6.40
   2  -6   7    4.40    7.60
   2  -6   7    2.50    7.10
  -6  -5   7    5.70    4.20
  -6  -5   7    3.30    5.80
  -6  -5   7   -1.30    5.00
   5   5  -7    9.00    5.20
  -5  -5   7    1.30    3.00
  -5  -5   7   -0.40    4.80
  -5  -5   7   -1.70    3.00
   4   5  -7   64.39    8.30
  -4  -5   7   50.59    7.10
   3   5  -7   19.40    5.70
  -3  -5   7   16.10    5.00
  -3  -5   7   28.50    5.40
   2   5  -7    7.80    5.20
  -2  -5   7    8.70    4.50
  -2  -5   7    8.60    4.40
   1   5  -7    4.20    5.50
  -1  -5   7    3.00    2.00
  -1  -5   7    3.50    4.10
  -1  -5   7   -0.90    3.70
  -1  -5   7    1.40    2.00
   0   5  -7   14.30    7.10
   0   5  -7    6.40    2.30
   0   5  -7   11.80    2.30
   0  -5   7    9.50    3.20
   0  -5   7   19.70    4.80
   0  -5   7   10.90    4.40
  -1   5  -7  224.48   10.20
  -1   5  -7  228.08    9.90
   1  -5   7  221.28   13.00
   1  -5   7  256.97   11.40
   1  -5   7  235.58   11.20
  -2   5  -7   24.60    5.10
  -2   5  -7   22.30   12.60
  -2   5  -7    6.20    4.80
   2  -5   7   16.00    5.60
   2  -5   7   11.20    5.30
  -3   5  -7    8.30    6.70
  -3   5  -7    6.60   10.00
  -3   5  -7    4.20    6.30
   3  -5   7   11.70    6.80
   3  -5   7    4.20    7.60
   3  -5   7   -0.90    5.50
   6   4  -7   51.79    6.00
   6   4  -7   43.20    4.90
  -6  -4   7   42.00    7.20
   5   4  -7   43.40    5.60
  -5  -4   7   45.80    5.60
  -5  -4   7   34.90    6.80
   4   4  -7   25.70    5.00
  -4  -4   7   28.90    6.00
  -4  -4   7   38.70    3.30
  -4  -4   7   34.20    3.10
   3   4  -7    9.50    4.70
  -3  -4   7   11.50    4.70
   2   4  -7  241.48   12.30
  -2  -4   7  231.98   11.90
  -2  -4   7  238.88   12.20
   1   4  -7   39.70    6.60
  -1  -4   7   32.70    5.30
  -1  -4   7   35.00    6.00
   0   4  -7   29.50    6.10
   0  -4   7   21.00    4.50
   0  -4   7   14.70    4.60
   0  -4   7   22.90    2.90
   0  -4   7   25.50    3.30
  -1   4  -7   -2.50    2.50
   1  -4   7   -0.40    3.90
   1  -4   7    2.50    3.20
   1  -4   7    2.60    3.00
  -2   4  -7  254.07   10.90
  -2   4  -7  232.18   10.80
   2  -4   7  240.68   13.00
   2  -4   7  226.38   11.30
   2  -4   7  231.18   11.70
  -3   4  -7   15.60    8.60
  -3   4  -7   17.50    5.10
  -3   4  -7   23.50    5.80
   3  -4   7   19.40    5.90
   3  -4   7   22.50    5.60
  -4   4  -7  135.49   12.80
  -4   4  -7  150.78   12.50
  -4   4  -7  142.89   16.60
   4  -4   7  157.58   13.20
   4  -4   7  140.19   12.20
   4  -4   7  133.69   14.10
   6   3  -7   10.00    4.60
   6   3  -7   12.80    4.90
  -6  -3   7    4.30    5.00
  -6  -3   7   20.40    7.70
  -6  -3   7   -3.40    5.40
   5   3  -7  103.29    6.30
   5   3  -7  107.19    6.60
  -5  -3   7  112.19    7.90
  -5  -3   7  118.89    9.90
   4   3  -7    6.60    3.80
  -4  -3   7    0.20    2.50
  -4  -3   7   -1.40    2.40
  -4  -3   7    3.30    3.90
   3   3  -7  323.67   13.40
  -3  -3   7  290.97   14.20
   2   3  -7  196.88   10.50
  -2  -3   7  204.28   10.90
  -2  -3   7  171.48   10.50
   1   3  -7    1.00    3.70
  -1  -3   7   -1.20    3.40
  -1  -3   7    1.60    3.10
   0   3  -7   37.20    6.00
   0  -3   7   46.90    5.80
   0  -3   7   40.30    2.70
   0  -3   7   34.70    4.80
   0  -3   7   41.60    2.70
  -1   3  -7  205.18    7.80
  -1   3  -7  198.38    7.60
  -1   3  -7  218.08   12.30
   1  -3   7  195.88    8.30
   1  -3   7  208.78    9.50
   1  -3   7  198.48   10.90
  -2   3  -7  120.39    7.30
  -2   3  -7  136.89   14.10
  -2   3  -7  140.39    7.40
   2  -3   7  135.39    9.10
   2  -3   7  127.29    7.50
   2  -3   7  135.89    8.00
  -3   3  -7   27.10    5.00
  -3   3  -7   26.10    7.50
  -3   3  -7   23.60    4.90
   3  -3   7   29.50    5.70
   3  -3   7   26.50    5.30
   3  -3   7   31.60    5.70
  -4   3  -7   14.40    6.10
  -4   3  -7    2.70    5.20
   4  -3   7    9.40    4.80
   4  -3   7   12.80    6.60
   4  -3   7   12.00    5.20
  -5   3  -7   20.10    7.50
  -5   3  -7    2.60    8.70
  -5   3  -7   23.00    8.20
   5  -3   7   15.50    8.70
   5  -3   7    7.50    7.60
   6   2  -7   74.19    9.20
   6   2  -7   55.19    6.90
  -6  -2   7   50.59    7.60
  -6  -2   7   44.00    8.20
   5   2  -7   43.30    5.30
   5   2  -7   51.49    6.30
  -5  -2   7   45.70    6.90
  -5  -2   7   42.10    5.70
  -5  -2   7   41.90    6.10
   4   2  -7  299.07   10.50
   4   2  -7  292.17   10.50
  -4  -2   7  293.97   12.20
  -4  -2   7  282.07   13.80
  -4  -2   7  294.77   11.40
   3   2  -7  515.75   18.50
  -3  -2   7  495.95   19.50
  -3  -2   7  522.95   15.60
   2   2  -7    2.90    3.70
  -2  -2   7    3.10    3.70
   1   2  -7  783.82   25.20
  -1  -2   7  681.33   24.10
  -1  -2   7  761.12   24.90
   0   2  -7  268.87   12.70
   0  -2   7  274.57    8.10
   0  -2   7  268.17    8.10
   0  -2   7  264.67   11.70
  -1   2  -7   32.30    5.30
  -1   2  -7   16.80    2.30
   1  -2   7   19.20    3.80
   1  -2   7   20.80    2.90
  -2   2  -7   32.00    4.30
  -2   2  -7   30.40    4.20
  -2   2  -7   41.90    6.40
   2  -2   7   36.10    5.00
   2  -2   7   36.50    4.80
   2  -2   7   32.40    4.10
  -3   2  -7   21.50    6.20
  -3   2  -7   18.90    4.20
  -3   2  -7   18.60    4.30
   3  -2   7   17.70    4.60
   3  -2   7   17.80    4.10
   3  -2   7   20.00    4.50
  -4   2  -7  117.89    9.20
  -4   2  -7  109.99   10.60
  -4   2  -7  109.99    8.50
   4  -2   7  127.79    9.10
   4  -2   7  137.89    9.80
   4  -2   7  110.39    9.40
  -5   2  -7    7.50    6.40
  -5   2  -7    2.20    5.60
   5  -2   7    9.70    6.10
   5  -2   7   15.60    7.50
  -6   2  -7   18.30    9.00
  -6   2  -7   23.10    8.70
  -6   2  -7   12.30   10.00
   6  -2   7   14.00    8.40
   6  -2   7   20.30    9.60
   6   1  -7   -2.20    6.10
   6   1  -7   15.70    6.70
  -6  -1   7    3.80    5.30
  -6  -1   7   -9.70    7.40
  -6  -1   7    0.20    6.90
   5   1  -7   11.80    4.90
   5   1  -7   -0.40    4.40
  -5  -1   7    8.60    4.10
  -5  -1   7    4.50    4.80
  -5  -1   7    1.60    5.00
   4   1  -7  136.69    7.90
   4   1  -7  127.29    7.80
  -4  -1   7  151.78    8.80
  -4  -1   7  133.89    9.50
  -4  -1   7  136.39    8.30
  -4  -1   7  153.38    8.70
   3   1  -7   50.69    4.20
   3   1  -7   41.70    4.40
  -3  -1   7   52.29    6.60
  -3  -1   7   42.20    4.70
  -3  -1   7   49.60    5.10
  -3  -1   7   43.00    5.30
   2   1  -7  309.37    9.50
   2   1  -7  302.57   12.90
   2   1  -7  308.47    9.60
  -2  -1   7  296.67   13.20
  -2  -1   7  304.07   10.20
  -2  -1   7  308.77   10.20
  -2  -1   7  299.57   12.90
   1   1  -7   11.60    3.90
  -1  -1   7    7.70    1.50
  -1  -1   7    9.20    1.40
  -1  -1   7    8.40    3.60
   0   1  -7  214.08    6.40
   0   1  -7  196.28    6.30
   0   1  -7  225.88   10.70
   0  -1   7  204.08   10.60
   0  -1   7  203.08    7.10
   0  -1   7  211.58    9.80
   0  -1   7  213.28    7.10
  -1   1  -7   11.80    3.80
  -1   1  -7   12.20    2.10
  -1   1  -7   10.70    2.10
   1  -1   7   11.00    3.20
   1  -1   7    8.20    2.20
   1  -1   7   12.40    2.40
  -2   1  -7  187.48   10.60
  -2   1  -7  188.98    8.00
  -2   1  -7  177.58    8.00
   2  -1   7  183.88    8.30
   2  -1   7  177.38    8.20
   2  -1   7  190.88    9.10
  -3   1  -7  514.35   17.80
  -3   1  -7  464.25   19.30
  -3   1  -7  524.35   17.90
   3  -1   7  517.45   18.00
   3  -1   7  527.05   18.10
   3  -1   7  518.15   18.00
  -4   1  -7  320.77   15.70
  -4   1  -7  311.77   14.10
  -4   1  -7  341.47   14.30
   4  -1   7  347.97   14.40
   4  -1   7  324.47   14.60
   4  -1   7  326.17   13.70
  -5   1  -7    6.90    5.80
  -5   1  -7    5.70    5.30
  -5   1  -7    7.00    6.30
   5  -1   7   17.10    5.90
  -6   1  -7    5.30    6.80
  -6   1  -7   24.20    8.10
   6  -1   7   -2.00    7.40
   6  -1   7    2.40    7.60
  -7   1  -7   60.79   11.50
  -7   1  -7   56.39   10.80
   7  -1   7   51.99   11.60
   6   0  -7  143.19   14.70
   6   0  -7  153.28   13.30
  -6   0   7  147.69   14.40
  -6   0   7  168.28   15.40
  -6   0   7  115.49    9.60
   5   0  -7   17.00    5.90
   5   0  -7   28.50    6.20
  -5   0   7   12.00    6.90
  -5   0   7   23.40    6.60
  -5   0   7   14.70    4.80
   4   0  -7    9.10    4.10
   4   0  -7    8.10    4.20
  -4   0   7    1.80    4.00
  -4   0   7   12.30    4.50
  -4   0   7    6.50    4.60
   3   0  -7  153.48    8.00
   3   0  -7  163.98    8.20
  -3   0   7  169.48    8.50
  -3   0   7  164.08    9.30
   2   0  -7    0.80    2.00
   2   0  -7    0.80    2.20
  -2   0   7    3.70    2.50
  -2   0   7   -3.00    3.20
  -2   0   7   -2.00    2.30
   1   0  -7   28.40    4.60
   1   0  -7   29.60    3.40
   1   0  -7   35.00    3.40
  -1   0   7   45.70    5.70
  -1   0   7   42.60    3.80
  -1   0   7   35.60    3.90
   0   0  -7  154.88    8.90
   0   0  -7  157.08    6.10
   0   0  -7  133.29    6.10
   0   0   7  161.18    9.10
   0   0   7  150.58    6.30
   0   0   7  149.29    6.40
  -1   0  -7   48.30    3.80
  -1   0  -7   62.19    6.10
  -1   0  -7   50.89    3.70
   1   0   7   54.79    4.20
   1   0   7   49.00    4.20
   1   0   7   51.99    5.90
   1   0   7   56.59    5.00
  -2   0  -7  299.27   11.30
  -2   0  -7  308.47   11.20
  -2   0  -7  299.77   13.50
   2   0   7  311.37   11.60
   2   0   7  311.17   11.70
   2   0   7  305.47   13.80
   2   0   7  327.37   11.70
  -3   0  -7  117.19    8.50
  -3   0  -7  116.19    7.10
  -3   0  -7  106.89    7.10
   3   0   7  121.09    6.60
   3   0   7  126.09    7.40
   3   0   7  109.79    7.40
  -4   0  -7   36.40    5.10
  -4   0  -7   41.90    6.50
  -4   0  -7   42.70    5.80
   4   0   7   44.50    5.70
   4   0   7   41.30    5.60
   4   0   7   54.09    5.90
  -5   0  -7   55.39    7.60
  -5   0  -7   65.19    8.00
  -5   0  -7   60.59    8.60
   5   0   7   64.29    8.10
  -6   0  -7   13.20    6.60
  -6   0  -7   13.80    6.40
  -6   0  -7   27.00    7.20
   6   0   7   24.40    8.00
  -7   0  -7   70.09   10.00
  -7   0  -7   52.89   10.60
   7   0   7   63.39   11.00
   7   0   7   69.09   11.70
   5  -1  -7  289.47   16.20
   5  -1  -7  305.07   17.20
  -5   1   7  297.67   17.20
  -5   1   7  298.07   16.70
  -5   1   7  309.27   14.60
   4  -1  -7   24.30    5.40
   4  -1  -7   26.50    5.90
  -4   1   7   21.70    5.40
  -4   1   7   14.80    5.80
   3  -1  -7   88.29    7.30
   3  -1  -7   82.49    7.00
  -3   1   7   88.59    8.20
  -3   1   7   74.09    7.60
   2  -1  -7    8.30    3.10
   2  -1  -7    2.70    2.80
  -2   1   7    4.60    4.20
  -2   1   7    3.20    3.20
  -2   1   7    6.00    3.20
   1  -1  -7  115.39    6.30
   1  -1  -7  107.89    6.10
  -1   1   7  107.19    6.50
  -1   1   7  107.29    8.10
  -1   1   7  100.79    6.20
   0  -1  -7   26.60    3.70
   0  -1  -7   30.40    3.90
   0   1   7   37.50    5.30
   0   1   7   35.20    4.00
   0   1   7   31.20    3.90
  -1  -1  -7   93.79    7.40
  -1  -1  -7   99.59    5.40
  -1  -1  -7   86.79    5.40
   1   1   7   95.39    5.90
   1   1   7   95.09    5.80
   1   1   7   88.79    7.20
  -2  -1  -7   78.29    6.70
  -2  -1  -7   66.09    5.00
  -2  -1  -7   58.09    4.90
   2   1   7   62.89    6.90
   2   1   7   59.19    5.30
   2   1   7   62.59    5.30
   2   1   7   59.89    4.60
  -3  -1  -7   16.40    3.70
  -3  -1  -7    9.60    3.30
  -3  -1  -7   10.20    4.40
   3   1   7   10.90    3.50
   3   1   7   13.70    4.00
   3   1   7    9.30    3.50
   3   1   7    6.50    2.60
  -4  -1  -7  236.58   11.20
  -4  -1  -7  238.58   12.20
  -4  -1  -7  209.18   10.80
   4   1   7  218.18   12.00
   4   1   7  263.37   11.60
   4   1   7  219.48    9.10
   4   1   7  227.58   11.60
  -5  -1  -7  155.08   10.70
  -5  -1  -7  179.28   11.10
  -5  -1  -7  175.28   10.50
   5   1   7  162.28   10.70
   5   1   7  183.68    8.60
  -6  -1  -7  164.28   12.00
  -6  -1  -7  161.78   12.10
  -6  -1  -7  189.48   12.90
   6   1   7  147.19   12.90
  -7  -1  -7   73.39   10.20
  -7  -1  -7   78.49   10.70
  -7  -1  -7   66.99   10.00
   7   1   7   76.09   10.70
   7   1   7   87.09   11.60
   5  -2  -7   61.19    9.70
   5  -2  -7   88.19   11.50
  -5   2   7   83.39   11.70
  -5   2   7   76.39   11.00
  -5   2   7   75.59   11.90
   4  -2  -7    0.40    5.90
   4  -2  -7   -5.50    5.70
  -4   2   7   -1.30    6.70
  -4   2   7  -12.20    5.90
  -4   2   7    2.30    5.70
   3  -2  -7  106.99    9.40
   3  -2  -7   90.29    8.50
  -3   2   7   95.29    9.50
   2  -2  -7   19.00    4.70
   2  -2  -7   16.00    4.00
  -2   2   7   18.30    4.70
  -2   2   7   19.70    4.80
  -2   2   7   22.40    5.60
   1  -2  -7  409.56   15.40
   1  -2  -7  410.16   15.50
  -1   2   7  428.16   15.80
  -1   2   7  409.76   15.70
  -1   2   7  448.26   17.40
   0  -2  -7   36.30    5.10
   0  -2  -7   38.80    5.00
   0   2   7   36.00    5.40
   0   2   7   42.50    5.10
   0   2   7   40.90    5.10
  -1  -2  -7   25.40    3.90
  -1  -2  -7   22.90    3.80
   1   2   7   28.20    5.00
   1   2   7   29.90    4.20
   1   2   7   28.40    4.10
  -2  -2  -7  400.66   14.40
  -2  -2  -7  365.46   14.20
   2   2   7  392.06   15.90
   2   2   7  384.66   14.40
   2   2   7  378.66   14.40
  -3  -2  -7    5.80    3.30
  -3  -2  -7    0.20    3.60
  -3  -2  -7    3.90    3.00
   3   2   7    4.70    3.50
   3   2   7    6.20    3.50
   3   2   7   -2.80    3.40
  -4  -2  -7  169.68    9.40
  -4  -2  -7  187.98   10.60
  -4  -2  -7  177.38   10.10
   4   2   7  168.98   10.30
   4   2   7  156.98    9.40
   4   2   7  156.88    6.40
   4   2   7  164.28   10.00
  -5  -2  -7  142.09    9.90
  -5  -2  -7  116.99    9.20
  -5  -2  -7  123.79    9.60
   5   2   7  129.59    9.50
   5   2   7  120.89    9.80
   5   2   7  129.79    6.30
  -6  -2  -7    0.40    5.90
  -6  -2  -7    0.70    5.70
  -6  -2  -7  -10.20    4.80
   6   2   7   -6.00    5.60
   6   2   7    5.60    3.40
  -7  -2  -7   62.19    9.70
  -7  -2  -7   54.29    9.30
   7   2   7   62.89   10.10
   7   2   7   57.19    9.40
  -8  -2  -7   74.59   13.50
  -8  -2  -7   37.40   10.80
   8   2   7   74.49   12.30
   8   2   7   41.80   11.00
   4  -3  -7   63.89    9.00
   4  -3  -7   62.59   10.50
  -4   3   7   90.69   11.30
  -4   3   7   74.09   10.20
   3  -3  -7   14.60    6.10
   3  -3  -7   18.40    6.30
  -3   3   7   13.80    7.10
  -3   3   7   15.60    6.70
  -3   3   7   13.90    6.80
   2  -3  -7  372.26   16.40
   2  -3  -7  363.86   15.70
  -2   3   7  363.86   17.00
  -2   3   7  375.56   16.50
   1  -3  -7   75.09    7.10
   1  -3  -7   73.59    7.70
  -1   3   7   72.39    8.10
  -1   3   7   74.79    8.90
  -1   3   7   77.09    7.30
   0  -3  -7   20.80    4.40
   0  -3  -7   21.60    4.50
   0   3   7   14.70    4.40
   0   3   7   23.20    4.70
   0   3   7   19.10    5.30
  -1  -3  -7 1200.18   37.70
  -1  -3  -7 1258.87   37.80
   1   3   7 1245.78   37.90
   1   3   7 1261.47   39.30
   1   3   7 1258.87   38.00
  -2  -3  -7   62.09    6.60
  -2  -3  -7   63.29    6.00
   2   3   7   57.99    5.90
   2   3   7   58.69    5.80
   2   3   7   55.89    6.80
  -3  -3  -7  391.76   15.10
  -3  -3  -7  342.57   14.40
   3   3   7  379.96   15.10
   3   3   7  345.17   14.50
   3   3   7  348.07   15.50
  -4  -3  -7  181.98   10.30
  -4  -3  -7  190.88   10.50
   4   3   7  189.28   11.10
   4   3   7  186.48   10.40
   4   3   7  191.88   10.70
  -5  -3  -7    8.60    4.90
  -5  -3  -7   12.40    4.90
   5   3   7    6.50    5.20
   5   3   7    6.70    4.70
   5   3   7    2.80    4.70
  -6  -3  -7  252.87   14.80
  -6  -3  -7  247.48   14.30
   6   3   7  245.98   15.30
   6   3   7  243.78   13.50
   6   3   7  246.28    8.20
   6   3   7  265.87   14.60
  -7  -3  -7    0.30    7.80
  -7  -3  -7    7.10    7.30
   7   3   7    3.30    3.70
   7   3   7    3.10    8.70
   7   3   7    1.30    7.00
  -8  -3  -7   22.10   10.30
  -8  -3  -7    5.30    9.10
   8   3   7   33.10   10.90
   8   3   7   46.70   11.70
   3  -4  -7    4.90    7.70
   3  -4  -7   19.70    8.20
  -3   4   7   14.50    7.60
  -3   4   7   11.10    8.80
   2  -4  -7   28.30    6.70
   2  -4  -7   13.10    6.30
  -2   4   7   35.00    7.50
   1  -4  -7   47.30    6.90
   1  -4  -7   46.90    6.60
  -1   4   7   45.50    7.20
   0  -4  -7  825.52   28.70
   0  -4  -7  858.51   29.00
   0   4   7  881.51   29.00
  -1  -4  -7   25.30    5.10
  -1  -4  -7   30.60    5.40
   1   4   7   32.40    5.90
   1   4   7   28.70    5.50
   1   4   7   27.60    6.10
  -2  -4  -7  263.87   12.70
  -2  -4  -7  231.58   12.30
   2   4   7  251.17   12.50
   2   4   7  262.57   12.60
   2   4   7  222.48   12.60
  -3  -4  -7   25.50    5.20
  -3  -4  -7   20.90    4.90
   3   4   7   28.50    5.90
   3   4   7   25.50    5.20
   3   4   7   16.40    5.10
  -4  -4  -7   32.50    5.70
  -4  -4  -7   26.60    5.50
   4   4   7   33.40    6.30
   4   4   7   41.40    6.80
   4   4   7   24.10    5.60
  -5  -4  -7   82.49    8.90
  -5  -4  -7  100.39    9.80
   5   4   7   94.89    9.30
   5   4   7   80.09    9.00
   5   4   7   79.99    9.30
  -6  -4  -7   26.00    6.70
  -6  -4  -7    5.50    6.20
   6   4   7    9.50    6.80
   6   4   7   12.90    6.50
   6   4   7   17.60    5.70
  -7  -4  -7  139.69   14.80
  -7  -4  -7  118.09   13.00
   7   4   7  112.29   12.80
   7   4   7  101.19   13.10
   7   4   7  125.99   11.70
  -8  -4  -7   33.10    9.90
  -8  -4  -7   23.20   10.50
   8   4   7   29.50   10.00
   8   4   7   32.60   10.40
   3  -5  -7   31.30   12.00
  -3   5   7    7.80    9.40
   2  -5  -7   -1.40    8.10
   2  -5  -7    8.70    7.50
  -2   5   7   15.90    8.50
  -2   5   7    8.30    7.90
   1  -5  -7  364.76   17.90
   1  -5  -7  358.46   17.50
  -1   5   7  352.66   18.50
   0  -5  -7   -4.60    5.50
   0  -5  -7    0.30    5.80
   0   5   7   -7.70    5.30
  -1  -5  -7    5.00    5.20
  -1  -5  -7    3.90    5.50
   1   5   7   11.60    5.40
  -2  -5  -7   25.00    5.60
  -2  -5  -7   14.70    5.20
   2   5   7   -0.60    5.00
   2   5   7    9.10    4.90
   2   5   7    8.60    5.10
  -3  -5  -7    3.40    4.80
  -3  -5  -7    8.80    5.00
   3   5   7    4.60    4.80
   3   5   7    6.60    5.20
   3   5   7    3.40    5.40
  -4  -5  -7  288.77   15.10
  -4  -5  -7  298.37   15.30
   4   5   7  296.37   15.20
   4   5   7  316.97   15.40
   4   5   7  309.97   15.30
  -5  -5  -7   17.70    6.80
  -5  -5  -7   10.20    5.70
   5   5   7    7.10    5.40
   5   5   7   14.80    6.80
   5   5   7   15.00    6.80
  -6  -5  -7  382.36   18.70
  -6  -5  -7  373.66   18.70
   6   5   7  365.36   17.40
   6   5   7  398.46   19.20
   6   5   7  415.36   19.90
  -7  -5  -7  186.88   15.60
  -7  -5  -7  168.18   14.90
   7   5   7  175.18   15.10
   7   5   7  191.38   13.20
   7   5   7  172.48   16.80
  -8  -5  -7   22.60   10.10
  -8  -5  -7   22.00   10.90
   8   5   7   20.50   10.40
   8   5   7   13.80   11.30
   8   5   7   43.40    8.70
   2  -6  -7   14.90   11.50
  -2   6   7   12.00   10.10
   1  -6  -7    0.10    8.70
   1  -6  -7   11.70    8.10
  -1   6   7    7.10    8.30
  -1   6   7   20.50    8.80
   0  -6  -7    9.30    7.00
   0  -6  -7   -1.10    7.40
   0   6   7   16.80    8.60
   0   6   7    4.70    7.60
  -1  -6  -7    4.60    6.20
  -1  -6  -7    5.10    6.90
   1   6   7   15.10    6.70
   1   6   7    9.10    7.20
  -2  -6  -7    9.70    6.10
   2   6   7   11.70    6.20
   2   6   7   15.80    6.80
  -3  -6  -7   34.20    7.20
  -3  -6  -7   36.90    7.10
   3   6   7   34.40    7.50
   3   6   7   23.10    7.20
   3   6   7   26.00    6.50
  -4  -6  -7   85.29   10.50
  -4  -6  -7  101.69   12.30
   4   6   7   98.09   11.20
   4   6   7   94.99   10.80
   4   6   7   97.49   11.20
  -5  -6  -7  192.58   14.00
  -5  -6  -7  207.08   13.90
   5   6   7  196.18   14.50
   5   6   7  180.98   13.80
   5   6   7  217.88   14.00
  -6  -6  -7   25.30    8.40
  -6  -6  -7   30.90    8.80
   6   6   7   50.99   10.00
   6   6   7   41.30    9.70
   6   6   7   31.40    8.10
  -7  -6  -7  -14.20    8.80
  -7  -6  -7   -8.00    8.60
   7   6   7   11.50    7.80
   7   6   7   -5.60    9.70
   7   6   7    4.10    8.50
   0  -7  -7  -13.60    8.70
   0  -7  -7   11.40   10.00
   0   7   7    9.90    9.60
   0   7   7    1.40    9.20
  -1  -7  -7  112.79   14.70
  -1  -7  -7   97.09   13.50
   1   7   7  144.89   15.40
   1   7   7  117.49   14.70
  -2  -7  -7   14.20    8.40
  -2  -7  -7   13.30    8.40
   2   7   7    7.10    8.30
   2   7   7    3.50    7.70
  -3  -7  -7   25.50    8.00
  -3  -7  -7    7.50    7.90
   3   7   7    9.30    7.80
   3   7   7    5.80    7.20
  -4  -7  -7   41.40    9.30
  -4  -7  -7   67.29   10.30
   4   7   7   53.99    9.40
   4   7   7   58.19    9.80
   4   7   7   52.09    9.70
  -5  -7  -7   27.20    8.90
  -5  -7  -7    4.70    9.60
   5   7   7   28.10    8.60
   5   7   7   37.90    9.00
   5   7   7   28.30    8.90
  -6  -7  -7   41.20   10.20
  -6  -7  -7   45.50   10.00
   6   7   7   39.30   10.80
   6   7   7   38.30   10.60
   6   7   7   53.59    9.70
  -7  -7  -7   55.69   11.90
  -7  -7  -7   35.90   11.80
   7   7   7   35.50   12.00
   7   7   7   35.60   12.20
   7   7   7   41.80    9.50
  -2  -8  -7   -1.30   10.60
  -2  -8  -7   15.80   10.10
   2   8   7   -9.80    9.40
   2   8   7   19.50   10.50
  -3  -8  -7    1.40   10.10
  -3  -8  -7   11.00   10.30
  -3  -8  -7   -1.80    5.10
   3   8   7   -8.60    8.90
   3   8   7  -23.20    9.30
  -4  -8  -7   15.10   10.10
  -4  -8  -7   -2.70   10.20
   4   8   7   17.60    9.60
   4   8   7    7.30   10.80
  -5  -8  -7  211.28   18.10
  -5  -8  -7  171.88   17.30
   5   8   7  215.58   17.90
   5   8   7  208.08   17.60
   5   8   7  226.88   19.90
  -6  -8  -7   -7.40   11.60
  -6  -8  -7   17.90   11.30
   6   8   7   -9.60   11.80
   6   8   7   14.40   10.30
   6   8   7   -9.80   10.90
   3   7  -8  120.39   15.60
  -3  -7   8  121.69   12.00
  -3  -7   8  143.29   11.80
   2   7  -8   51.99   11.50
  -2  -7   8   41.90    8.40
  -2  -7   8   48.00    7.50
   1   7  -8   58.49   10.90
  -1  -7   8   41.10    8.50
  -1  -7   8   30.50    6.60
  -5  -6   8   68.29    9.60
   4   6  -8   -2.30    6.80
  -4  -6   8   10.30    5.80
   3   6  -8   24.90    8.50
  -3  -6   8   39.50    7.40
  -3  -6   8   32.70    7.40
   2   6  -8   -2.30    7.40
  -2  -6   8    5.40    5.40
  -2  -6   8    7.80    4.70
   1   6  -8   14.50    8.70
  -1  -6   8   18.40    6.60
  -1  -6   8   15.10    5.30
   0   6  -8  103.59    4.70
   0   6  -8  115.09   14.50
   0   6  -8  100.99    4.50
   0  -6   8  109.79   11.90
   0  -6   8  100.49    8.20
   0  -6   8   95.19    9.50
  -1   6  -8   35.50    5.40
  -1   6  -8   27.40    5.10
  -1   6  -8   28.80   10.30
   1  -6   8   30.70    7.70
   1  -6   8   38.40    8.20
  -2   6  -8   -1.20    6.30
   2  -6   8    2.80    6.20
   2  -6   8   -2.40    7.90
   5   5  -8   72.99   10.30
  -5  -5   8   58.99    8.60
   4   5  -8    8.80    6.00
  -4  -5   8    4.10    4.90
   3   5  -8   88.79   10.20
  -3  -5   8   58.19    7.60
  -3  -5   8   61.59    8.60
   2   5  -8   24.10    7.10
  -2  -5   8   13.70    5.20
  -2  -5   8   18.70    5.20
   1   5  -8  227.98   15.60
  -1  -5   8  235.88   12.30
  -1  -5   8  232.38   13.40
   0   5  -8   29.60    8.10
   0  -5   8   34.70    5.70
   0  -5   8   40.30    6.70
   0  -5   8   38.30    5.00
  -1   5  -8   34.40    8.70
  -1   5  -8   13.10    3.50
  -1   5  -8   16.60    3.70
   1  -5   8   25.50    6.50
   1  -5   8   15.00    4.80
  -2   5  -8    6.80    9.50
  -2   5  -8   12.70    5.00
   2  -5   8    1.00    5.20
   2  -5   8   15.90    7.80
   2  -5   8    7.20    6.00
  -3   5  -8   10.40    9.70
  -3   5  -8   16.20    6.70
  -3   5  -8   10.70    6.80
   3  -5   8   -5.30    5.80
   3  -5   8   -0.40    8.00
   3  -5   8   -0.30    7.20
   5   4  -8   -2.60    5.20
  -5  -4   8    5.80    3.20
  -5  -4   8    2.00    4.90
  -5  -4   8    2.90    2.90
   4   4  -8  219.08   12.30
  -4  -4   8  191.48   12.00
   3   4  -8   68.29    8.70
  -3  -4   8   54.09    7.30
   2   4  -8  633.64   23.40
  -2  -4   8  611.54   23.20
  -2  -4   8  599.64   22.50
   1   4  -8   40.50    7.00
  -1  -4   8   47.10    6.50
  -1  -4   8   39.80    6.40
   0   4  -8    4.00    6.20
   0  -4   8   -1.80    3.60
   0  -4   8    0.60    1.80
   0  -4   8    2.20    1.90
   0  -4   8    3.80    4.20
  -1   4  -8   10.10    7.30
  -1   4  -8   19.70    2.90
  -1   4  -8   15.80    2.80
   1  -4   8   21.30    3.90
   1  -4   8   26.20    5.60
  -2   4  -8  131.09    8.40
  -2   4  -8  136.09    8.10
   2  -4   8  140.39   10.00
   2  -4   8  138.19    9.60
   2  -4   8  149.49    9.30
  -3   4  -8  162.08   10.80
  -3   4  -8  170.08   11.10
  -3   4  -8  168.68   15.60
   3  -4   8  180.88   12.80
   3  -4   8  156.88   11.30
   3  -4   8  201.08   12.60
  -4   4  -8    7.60    7.50
  -4   4  -8  -15.50    9.40
  -4   4  -8   -5.70    6.80
   4  -4   8    3.20    7.60
   4  -4   8    1.80    8.40
   4  -4   8    8.70    6.10
   6   3  -8    7.10    4.40
  -6  -3   8    6.20    6.20
  -6  -3   8    0.70    5.80
   5   3  -8  141.39    5.70
   5   3  -8  138.49    5.60
  -5  -3   8  137.39   10.60
  -5  -3   8  150.88    8.70
   4   3  -8   40.60    6.10
  -4  -3   8   58.09    7.80
  -4  -3   8   49.99    4.20
   3   3  -8   59.79    7.10
  -3  -3   8   62.39    8.00
   2   3  -8    5.30    4.40
  -2  -3   8   -2.40    3.80
   1   3  -8   47.80    6.80
  -1  -3   8   38.90    5.70
  -1  -3   8   39.30    5.80
   0   3  -8   26.90    6.00
   0  -3   8   19.40    4.60
  -1   3  -8  389.16   18.10
  -1   3  -8  402.66   12.40
  -1   3  -8  405.36   12.40
   1  -3   8  409.46   16.60
   1  -3   8  406.76   13.50
  -2   3  -8  374.96   13.60
  -2   3  -8  385.06   13.80
   2  -3   8  385.36   14.40
   2  -3   8  389.76   16.30
   2  -3   8  386.36   14.40
  -3   3  -8  103.09    8.60
  -3   3  -8   95.29   15.10
  -3   3  -8   97.69    8.20
   3  -3   8   98.29    9.60
   3  -3   8  109.29    8.60
   3  -3   8   94.59    8.90
  -4   3  -8   54.59    7.40
  -4   3  -8   78.49    9.20
  -4   3  -8   47.40   10.50
   4  -3   8   50.89    7.90
   4  -3   8   53.79    8.80
   4  -3   8   38.70    6.90
  -5   3  -8   20.90    8.10
  -5   3  -8   27.80    8.70
  -5   3  -8   15.70   10.10
   5  -3   8   20.10    7.20
   5  -3   8   45.30   10.00
   5  -3   8   18.10    8.80
   6   2  -8   14.00    5.90
  -6  -2   8   14.80    5.50
  -6  -2   8    3.50    7.40
   5   2  -8   29.20    4.60
   5   2  -8   30.40    4.90
  -5  -2   8   31.20    6.70
   4   2  -8   73.89    4.50
   4   2  -8   72.39    4.40
  -4  -2   8   65.49    8.40
  -4  -2   8   52.59    6.00
   3   2  -8  173.28   10.60
  -3  -2   8  193.58    7.10
  -3  -2   8  196.38   11.10
  -3  -2   8  193.38    7.10
   2   2  -8   63.09    7.70
  -2  -2   8   71.19    7.40
   1   2  -8   -8.20    3.90
  -1  -2   8   -5.00    3.20
   0   2  -8  402.66   17.20
   0  -2   8  409.96   11.60
   0  -2   8  393.36   11.50
   0  -2   8  405.06   16.10
  -1   2  -8  355.56   11.10
  -1   2  -8  353.36   11.10
  -1   2  -8  364.16   16.60
   1  -2   8  363.16   12.00
   1  -2   8  352.46   14.70
  -2   2  -8   31.00    3.80
  -2   2  -8   28.30    3.70
   2  -2   8   25.70    4.00
   2  -2   8   24.00    4.90
   2  -2   8   29.70    4.10
  -3   2  -8   24.30    4.70
  -3   2  -8   29.30    4.50
  -3   2  -8   24.90    6.70
   3  -2   8   17.60    4.40
   3  -2   8   28.30    4.90
   3  -2   8   28.20    5.10
  -4   2  -8  262.17   13.50
  -4   2  -8  293.87   14.40
   4  -2   8  286.87   14.00
   4  -2   8  300.07   13.90
  -5   2  -8   25.00    7.30
  -5   2  -8    8.60    8.30
  -5   2  -8    7.50    6.60
   5  -2   8   12.70    5.10
   5  -2   8   19.60    7.90
   5  -2   8   15.00    7.10
  -6   2  -8   21.30    9.30
  -6   2  -8   62.09   11.90
  -6   2  -8   55.59   10.80
   6  -2   8   47.70   11.20
   6  -2   8   40.90    8.00
   5   1  -8   69.99    8.00
   5   1  -8   59.89    8.00
  -5  -1   8   58.49    7.80
  -5  -1   8   67.29    8.20
   4   1  -8  113.69    7.60
   4   1  -8  134.79    7.60
  -4  -1   8  125.89    8.50
  -4  -1   8  124.79    9.30
  -4  -1   8  129.59   10.00
   3   1  -8  293.17   10.30
   3   1  -8  281.07   10.20
  -3  -1   8  298.77   11.10
  -3  -1   8  288.27   13.40
  -3  -1   8  295.77   14.30
   2   1  -8  285.17    8.60
   2   1  -8  285.87    8.60
  -2  -1   8  285.47    9.70
  -2  -1   8  282.37    9.90
  -2  -1   8  281.77   13.30
   1   1  -8   -4.80    3.80
  -1  -1   8    5.90    4.30
  -1  -1   8   -2.80    1.50
  -1  -1   8    2.20    1.60
   0   1  -8  382.76   16.00
   0  -1   8  376.06   11.60
   0  -1   8  359.36   14.60
   0  -1   8  361.16   11.50
   0  -1   8  381.36   16.10
  -1   1  -8   35.90    6.00
  -1   1  -8   43.10    3.50
  -1   1  -8   42.00    3.50
   1  -1   8   42.10    3.90
   1  -1   8   41.00    5.10
  -2   1  -8    5.70    2.60
  -2   1  -8    4.80    4.70
  -2   1  -8    7.80    2.70
   2  -1   8    6.00    3.30
   2  -1   8    3.70    2.80
   2  -1   8    6.70    3.00
  -3   1  -8   33.00    6.60
  -3   1  -8   33.50    4.60
  -3   1  -8   27.80    4.50
   3  -1   8   34.60    5.10
   3  -1   8   36.10    5.00
   3  -1   8   32.20    4.80
  -4   1  -8   45.40    6.40
  -4   1  -8   54.49    8.30
  -4   1  -8   53.89    7.30
   4  -1   8   52.19    6.70
   4  -1   8   53.89    6.60
   4  -1   8   50.49    6.90
  -5   1  -8  110.29   11.20
  -5   1  -8  148.69   11.20
   5  -1   8  137.99    9.60
   5  -1   8  147.79   11.80
   5  -1   8  155.98   12.10
  -6   1  -8    7.40    8.40
  -6   1  -8    3.30    8.20
  -6   1  -8   -2.60    7.30
   6  -1   8   -0.30    5.00
   6  -1   8   -3.90    7.80
   6  -1   8   -5.90    8.10
   5   0  -8  136.59   11.50
   5   0  -8  125.19   11.10
  -5   0   8  144.49   10.90
  -5   0   8  103.19   11.50
  -5   0   8  128.29   13.40
   4   0  -8  280.17   13.20
   4   0  -8  295.17   13.00
  -4   0   8  305.97   14.00
   3   0  -8  193.08    9.20
   3   0  -8  182.88    9.00
  -3   0   8  182.08    9.50
  -3   0   8  191.98    9.60
  -3   0   8  183.08   10.90
   2   0  -8   45.70    4.70
   2   0  -8   47.00    4.50
  -2   0   8   50.49    7.10
  -2   0   8   45.00    5.00
  -2   0   8   44.90    5.00
   1   0  -8   91.19    4.90
   1   0  -8   79.59    5.00
  -1   0   8   82.59    7.60
  -1   0   8   87.49    5.20
  -1   0   8   88.89    5.50
   0   0  -8    2.70    2.10
   0   0  -8    4.30    1.90
   0   0  -8    3.00    4.10
   0   0   8    3.20    2.50
   0   0   8    5.40    4.30
   0   0   8    1.50    2.20
  -1   0  -8  144.39    9.70
  -1   0  -8  142.09    6.50
  -1   0  -8  152.58    6.60
   1   0   8  147.49    7.10
   1   0   8  151.78   10.20
   1   0   8  144.09    6.90
  -2   0  -8   22.40    3.30
  -2   0  -8   22.50    3.40
  -2   0  -8   19.10    5.50
   2   0   8   24.80    3.70
   2   0   8   27.10    3.90
   2   0   8   23.70    5.20
   2   0   8   26.20    3.90
  -3   0  -8  122.59    7.70
  -3   0  -8  102.49    9.00
  -3   0  -8  116.09    7.10
   3   0   8   85.59    7.00
   3   0   8  100.19    7.40
   3   0   8  123.69    7.30
  -4   0  -8    2.10    4.20
  -4   0  -8    4.10    3.60
  -4   0  -8    3.20    5.30
   4   0   8    8.60    3.70
   4   0   8    6.10    4.50
   4   0   8   -0.10    4.50
  -5   0  -8    6.50    6.40
  -5   0  -8   -3.40    4.30
  -5   0  -8   -0.70    5.50
   5   0   8   -0.50    5.40
   5   0   8    9.20    4.40
  -6   0  -8   13.70    7.40
  -6   0  -8    4.70    6.90
   6   0   8    2.50    7.00
   6   0   8    0.50    4.50
   6   0   8   -5.10    7.70
  -7   0  -8   55.39   11.40
  -7   0  -8   40.90   11.50
   7   0   8   33.30   10.10
   5  -1  -8   55.09    9.00
   5  -1  -8   76.69   10.00
  -5   1   8   63.59   10.40
  -5   1   8   74.19    9.30
  -5   1   8   75.79   10.80
   4  -1  -8  182.58   11.70
   4  -1  -8  174.48   11.70
  -4   1   8  152.58   11.80
  -4   1   8  170.58   13.20
   3  -1  -8   27.90    5.30
   3  -1  -8   32.20    5.20
  -3   1   8   28.50    6.10
  -3   1   8   29.70    5.80
  -3   1   8   31.50    5.60
   2  -1  -8  206.88   10.00
   2  -1  -8  211.08   10.10
  -2   1   8  234.88   10.50
  -2   1   8  219.88   12.10
  -2   1   8  208.88   10.20
   1  -1  -8  227.68    9.90
   1  -1  -8  244.28    9.80
  -1   1   8  219.68   10.00
  -1   1   8  235.68   10.10
  -1   1   8  241.58   12.60
   0  -1  -8   45.50    4.70
   0  -1  -8   42.50    4.50
   0   1   8   42.90    5.00
   0   1   8   50.59    6.60
   0   1   8   47.40    4.80
  -1  -1  -8  140.79    7.30
  -1  -1  -8  150.48    7.50
  -1  -1  -8  161.48   10.40
   1   1   8  168.58    8.10
   1   1   8  164.98    9.90
   1   1   8  154.18    7.80
  -2  -1  -8  110.59    8.90
  -2  -1  -8  133.99    7.40
  -2  -1  -8  137.79    7.30
   2   1   8  126.59    9.70
   2   1   8  139.89    7.80
   2   1   8  141.09    7.60
  -3  -1  -8   42.50    5.50
  -3  -1  -8   38.50    5.00
  -3  -1  -8   35.60    6.70
   3   1   8   43.50    6.50
   3   1   8   26.30    4.70
   3   1   8   36.00    4.80
   3   1   8   37.50    4.70
  -4  -1  -8  607.64   21.10
  -4  -1  -8  548.65   20.60
  -4  -1  -8  589.84   22.60
   4   1   8  565.34   18.50
   4   1   8  599.14   21.30
   4   1   8  593.74   22.50
   4   1   8  562.24   21.30
  -5  -1  -8    5.50    5.90
  -5  -1  -8   16.90    5.40
  -5  -1  -8    5.80    5.60
   5   1   8    5.40    5.40
   5   1   8    3.70    3.40
  -6  -1  -8   16.50    7.70
  -6  -1  -8   29.70    7.80
  -6  -1  -8   35.60    7.60
   6   1   8   25.80    7.20
   6   1   8   25.70    5.10
  -7  -1  -8  121.49   13.60
  -7  -1  -8  136.89   14.50
   7   1   8  138.89   14.30
   7   1   8  136.69   14.50
   4  -2  -8  112.09   12.50
   4  -2  -8  112.29   12.00
  -4   2   8  107.79   12.00
  -4   2   8  102.19   12.50
  -4   2   8  117.99   13.40
   3  -2  -8  183.18   11.60
   3  -2  -8  194.18   12.10
  -3   2   8  196.48   12.90
  -3   2   8  194.28   12.20
  -3   2   8  178.18   12.80
   2  -2  -8   21.50    5.20
   2  -2  -8   16.00    4.60
  -2   2   8   18.80    5.20
  -2   2   8   22.50    5.30
  -2   2   8   28.40    6.60
   1  -2  -8   92.59    7.60
   1  -2  -8   84.39    7.20
  -1   2   8   77.69    7.40
  -1   2   8   79.79    9.40
  -1   2   8   85.79    7.20
   0  -2  -8   98.49    7.10
   0  -2  -8  118.89    7.40
   0   2   8   96.29    9.30
   0   2   8  106.39    7.30
   0   2   8  107.49    7.40
  -1  -2  -8    7.60    3.20
  -1  -2  -8    1.70    3.00
   1   2   8   -4.30    4.10
   1   2   8    2.20    3.00
   1   2   8   -1.80    3.00
  -2  -2  -8  461.65   17.10
  -2  -2  -8  470.75   17.00
   2   2   8  487.95   17.50
   2   2   8  486.95   19.50
   2   2   8  504.25   17.70
  -3  -2  -8 1066.99   33.30
  -3  -2  -8 1101.29   33.40
   3   2   8 1048.00   34.80
   3   2   8 1103.49   33.60
   3   2   8 1013.10   33.20
  -4  -2  -8    6.70    4.00
  -4  -2  -8   -0.20    4.80
  -4  -2  -8    2.30    4.10
   4   2   8    5.50    4.40
   4   2   8    0.80    4.00
   4   2   8    3.40    4.70
  -5  -2  -8   72.19    8.20
  -5  -2  -8   77.09    9.60
  -5  -2  -8   68.99    9.10
   5   2   8   63.29    5.40
   5   2   8   64.29    8.30
   5   2   8   68.19    8.50
  -6  -2  -8  114.29   11.00
  -6  -2  -8  131.09   12.20
   6   2   8  128.49   12.40
   6   2   8  106.89    7.30
  -7  -2  -8   -2.80    7.70
  -7  -2  -8   -1.30    7.70
  -7  -2  -8    8.60    7.70
   7   2   8    5.50    4.80
   7   2   8   -6.40    8.30
   7   2   8    0.60    8.60
   4  -3  -8   -2.80    8.60
   4  -3  -8   11.50    7.40
  -4   3   8   -3.70   12.50
  -4   3   8   14.80    8.90
  -4   3   8   -2.10    9.40
   3  -3  -8  122.29   12.30
   3  -3  -8  130.79   11.70
  -3   3   8  131.49   12.90
  -3   3   8  142.09   12.60
  -3   3   8  146.39   13.30
   2  -3  -8   39.70    7.30
   2  -3  -8   33.60    6.30
  -2   3   8   33.20   11.90
  -2   3   8   37.90    8.00
  -2   3   8   37.10    6.30
   1  -3  -8   45.90    6.40
   1  -3  -8   39.40    6.10
  -1   3   8   39.80    6.40
  -1   3   8   41.30    7.50
  -1   3   8   45.00    6.80
   0  -3  -8   33.30    5.20
   0  -3  -8   22.90    5.10
   0   3   8   32.00    5.30
   0   3   8   41.90    5.90
   0   3   8   33.00    6.70
  -1  -3  -8    1.40    3.80
   1   3   8   -1.50    3.90
   1   3   8    4.60    4.80
   1   3   8   -7.20    3.60
  -2  -3  -8  590.54   20.60
  -2  -3  -8  580.94   20.60
   2   3   8  560.04   21.80
   2   3   8  589.34   20.80
   2   3   8  556.14   20.70
  -3  -3  -8  196.78   10.70
  -3  -3  -8  209.88   11.30
   3   3   8  221.78   12.10
   3   3   8  223.98   11.20
   3   3   8  211.28   11.10
  -4  -3  -8  222.38   11.80
  -4  -3  -8  213.88   12.00
   4   3   8  217.18   12.80
   4   3   8  233.48   12.60
  -5  -3  -8   19.50    5.80
  -5  -3  -8   11.50    5.20
   5   3   8   10.50    5.80
   5   3   8   11.60    5.50
  -6  -3  -8   96.49   10.70
  -6  -3  -8   83.19   11.40
   6   3   8   92.19   10.70
   6   3   8  100.49   12.10
  -7  -3  -8  135.09   15.40
  -7  -3  -8   99.29   12.70
   7   3   8  115.59   13.30
   7   3   8   96.59   12.60
   3  -4  -8   -1.00    8.80
   3  -4  -8    8.10    7.50
  -3   4   8   20.30    9.10
  -3   4   8  -10.50    8.30
  -3   4   8    3.40    8.10
   2  -4  -8   -0.30    6.70
   2  -4  -8   -2.30    6.20
  -2   4   8   10.70    7.10
  -2   4   8    7.30    7.50
  -2   4   8    9.50    7.20
   1  -4  -8  169.18   11.30
   1  -4  -8  180.08   12.50
  -1   4   8  135.59   11.10
  -1   4   8  170.28   13.50
   0  -4  -8    9.90    5.40
   0  -4  -8   16.60    5.30
   0   4   8    0.80    5.70
   0   4   8    5.50    5.20
  -1  -4  -8  145.59   10.20
  -1  -4  -8  165.08   10.70
   1   4   8  153.78   10.80
   1   4   8  162.08   12.00
  -2  -4  -8   15.10    5.30
  -2  -4  -8   14.60    5.10
   2   4   8   17.30    5.00
   2   4   8   12.50    5.80
  -3  -4  -8  162.28   10.40
  -3  -4  -8  181.08   11.00
   3   4   8  156.08   11.80
   3   4   8  146.79   10.30
  -4  -4  -8  129.79    9.80
  -4  -4  -8  131.39   10.70
   4   4   8  142.49   10.40
   4   4   8  120.39   10.20
  -5  -4  -8   34.30    7.20
  -5  -4  -8   38.40    7.40
   5   4   8   36.40    7.10
   5   4   8   39.00    7.40
  -6  -4  -8   55.49    9.20
  -6  -4  -8   48.20    9.00
   6   4   8   31.60    8.10
   6   4   8   51.59    9.00
   6   4   8   51.79    8.30
  -7  -4  -8   73.49   10.80
  -7  -4  -8   94.29   11.80
   7   4   8  114.09   12.80
   7   4   8   95.49   12.50
   7   4   8   85.89   11.90
   2  -5  -8  138.29   13.50
   2  -5  -8  159.88   16.60
  -2   5   8  145.69   13.90
  -2   5   8  133.69   14.80
  -2   5   8  151.28   16.90
   1  -5  -8   42.80    8.20
   1  -5  -8   24.70    8.80
  -1   5   8   26.80    8.40
  -1   5   8   23.80    9.40
  -1   5   8   26.60    7.80
   0  -5  -8   30.60    6.70
   0  -5  -8   26.80    6.50
   0   5   8   14.00    6.70
   0   5   8   29.30    8.60
  -1  -5  -8   86.79    9.70
  -1  -5  -8   96.79   10.10
   1   5   8   81.89   10.20
   1   5   8   84.69    9.90
   2   5   8   30.40    7.20
   2   5   8   33.90    6.90
  -3  -5  -8  165.88   11.80
  -3  -5  -8  190.98   12.70
   3   5   8  178.58   12.30
   3   5   8  173.08   11.90
  -4  -5  -8  242.18   14.00
  -4  -5  -8  264.67   14.80
   4   5   8  269.67   14.60
   4   5   8  249.38   14.50
  -5  -5  -8   53.59    8.30
  -5  -5  -8   59.99    8.90
   5   5   8   60.89    8.80
   5   5   8   59.49    9.50
   5   5   8   63.59    8.90
  -6  -5  -8   19.50    7.50
  -6  -5  -8    8.10    7.60
   6   5   8    4.20    7.70
   6   5   8    6.30    6.80
   6   5   8  -18.90    7.90
  -7  -5  -8   19.80    9.40
  -7  -5  -8   18.20    9.30
   7   5   8    7.10    9.60
   7   5   8    9.10    7.50
   7   5   8    0.10    9.40
   1  -6  -8   10.30   12.80
   1  -6  -8   13.80   10.30
  -1   6   8    4.50    9.00
  -1   6   8  -18.00   14.10
   0  -6  -8  123.49   13.20
   0  -6  -8  146.29   15.30
   0   6   8   98.89   13.10
   0   6   8  112.79   14.30
  -1  -6  -8    2.10    7.00
  -1  -6  -8  -13.50    7.80
   1   6   8    8.50    7.50
   1   6   8    0.30    7.50
  -2  -6  -8   49.70    9.10
  -2  -6  -8   54.29    8.60
   2   6   8   48.40    8.50
   2   6   8   58.29    9.50
   2   6   8   48.80    9.40
  -3  -6  -8   13.50    7.10
  -3  -6  -8    2.90    6.60
   3   6   8   16.40    7.70
   3   6   8   20.00    7.50
   3   6   8   10.60    6.60
  -4  -6  -8   57.99    9.10
  -4  -6  -8   58.09    9.60
   4   6   8   54.89    8.70
   4   6   8   74.59   10.10
   4   6   8   51.89    9.30
  -5  -6  -8   53.59    9.40
  -5  -6  -8   64.99    9.40
   5   6   8   70.69   10.00
   5   6   8   67.39    9.80
   5   6   8   64.29    9.50
  -6  -6  -8   19.90    8.90
  -6  -6  -8   19.70    8.60
   6   6   8    5.40    9.90
   6   6   8   17.90    9.10
   6   6   8   13.30    8.20
  -7  -6  -8    9.80   11.10
  -7  -6  -8  -25.30    9.50
   7   6   8    2.50   10.60
   7   6   8    0.20   10.20
  -1  -7  -8   45.60   11.20
  -1  -7  -8   28.60   10.80
   1   7   8   46.40    9.90
   1   7   8   45.40   10.90
  -2  -7  -8   14.60    9.30
  -2  -7  -8   18.10    8.70
   2   7   8   10.70    9.50
   2   7   8   10.30    8.60
  -3  -7  -8    4.80    8.20
   3   7   8    8.80    9.30
   3   7   8   38.60    9.60
   3   7   8   25.10    8.40
  -4  -7  -8   19.90    9.90
  -4  -7  -8    8.60    8.20
   4   7   8   -1.10    9.70
   4   7   8    7.00    8.90
   4   7   8    5.50    8.50
  -5  -7  -8   74.49   11.40
  -5  -7  -8   74.69   12.60
   5   7   8   75.79   12.40
   5   7   8   76.49   11.50
   5   7   8   78.49   11.20
  -6  -7  -8  138.79   16.20
  -6  -7  -8  136.29   17.00
   6   7   8  130.39   15.60
   6   7   8  150.38   16.40
   6   7   8  144.09   16.20
  -3  -8  -8   11.00   12.70
   3   8   8   -4.90   16.80
   3   8   8   31.00   11.00
  -4  -8  -8   63.49   12.70
   4   8   8   99.59   15.60
   4   8   8   94.09   12.90
   4   8   8  131.59   17.00
   3   6  -9   -2.30    8.30
  -3  -6   9    5.80    6.50
  -3  -6   9    1.80    5.70
   2   6  -9   57.69   10.30
  -2  -6   9   37.50    6.80
  -2  -6   9   49.50    8.60
   1   6  -9  160.18   15.80
  -1  -6   9  156.88   11.40
  -1  -6   9  164.78   13.90
   0   6  -9   41.90   10.30
   0  -6   9   64.79    9.50
   4   5  -9   93.49   12.30
  -4  -5   9   60.19    8.40
   3   5  -9   54.49    9.00
  -3  -5   9   35.30    6.40
   2   5  -9  269.67   16.40
  -2  -5   9  263.47   15.80
  -2  -5   9  280.47   14.50
   1   5  -9   94.99   13.20
  -1  -5   9  126.49    9.70
  -1  -5   9  116.59   11.20
   0   5  -9   16.80    9.10
   0  -5   9   17.30    6.50
  -1   5  -9    7.60    2.50
  -1   5  -9    9.00    2.60
  -1   5  -9  -16.40    8.90
   1  -5   9   17.50    4.70
   1  -5   9    5.00    5.80
   1  -5   9   -0.20    3.90
  -2   5  -9   18.50   10.00
  -2   5  -9   36.80    5.90
   2  -5   9   40.70    8.40
   2  -5   9   43.00    7.80
  -5  -4   9   36.50    8.20
   4   4  -9   44.40    7.70
  -4  -4   9   40.10    7.50
   3   4  -9  329.47   16.60
  -3  -4   9  305.97   15.80
   2   4  -9   27.50    7.10
  -2  -4   9   18.10    5.40
  -2  -4   9   11.60    4.90
   1   4  -9    7.90    6.30
  -1  -4   9   -1.30    4.00
  -1  -4   9    3.80    4.80
   0   4  -9  104.49   12.60
   0  -4   9  102.99    9.60
  -1   4  -9   -3.70    7.80
   1  -4   9    3.60    3.00
   1  -4   9    4.20    4.80
   1  -4   9    2.80    3.20
  -2   4  -9  118.59    8.00
  -2   4  -9  107.79   15.10
  -2   4  -9  103.09    7.70
   2  -4   9  123.79   10.50
   2  -4   9  100.69    9.00
  -3   4  -9  101.69   10.10
  -3   4  -9  117.79   16.60
  -3   4  -9  119.39    9.90
   3  -4   9  109.59   11.40
   3  -4   9  118.19   12.30
  -5  -3   9    3.10    4.20
  -5  -3   9    9.40    6.00
   4   3  -9   22.20    6.20
  -4  -3   9   34.90    6.30
   3   3  -9   11.50    6.40
  -3  -3   9   10.90    4.50
   2   3  -9    3.50    5.70
  -2  -3   9    3.10    4.30
   1   3  -9  169.68   12.30
  -1  -3   9  160.88   10.80
  -1  -3   9  152.78   10.30
   0   3  -9   15.10    6.90
   0  -3   9    8.20    3.80
  -1   3  -9   60.19    9.80
   1  -3   9   65.39    7.40
   1  -3   9   64.09    5.10
   1  -3   9   56.19    4.70
  -2   3  -9   28.00    4.30
  -2   3  -9   47.10    5.40
   2  -3   9   23.50    5.50
   2  -3   9   30.30    4.70
   2  -3   9   36.00    5.00
  -3   3  -9  142.49   14.30
  -3   3  -9  145.69    9.70
  -3   3  -9  145.69    9.30
   3  -3   9  136.09   10.00
   3  -3   9  140.29   10.50
  -4   3  -9    9.00   10.60
  -4   3  -9    9.20    6.80
  -4   3  -9    8.70    6.40
   4  -3   9   10.90    7.70
   4  -3   9    8.60    5.40
   4  -3   9   11.70    6.80
   5   2  -9    1.70    3.60
   5   2  -9    3.60    3.60
  -5  -2   9    1.40    5.70
  -4  -2   9    4.80    3.50
  -4  -2   9    0.00    5.00
  -4  -2   9   -1.50    3.10
   3   2  -9    8.60    5.30
  -3  -2   9   10.30    2.10
  -3  -2   9   10.30    4.40
   2   2  -9  325.67   15.50
  -2  -2   9  303.97   14.90
   1   2  -9   72.89    9.10
   0   2  -9  192.38   12.90
   0  -2   9  189.58   10.70
  -1   2  -9  130.39    4.70
  -1   2  -9  126.29    4.70
  -1   2  -9  131.69   11.00
   1  -2   9  128.89    8.90
   1  -2   9  138.09    6.50
   1  -2   9  132.89    6.20
  -2   2  -9   51.29    5.30
  -2   2  -9   57.29    5.20
   2  -2   9   46.00    5.50
   2  -2   9   60.59    7.10
   2  -2   9   55.49    6.20
  -3   2  -9   43.40    5.30
  -3   2  -9   27.60    9.70
  -3   2  -9   35.20    5.10
   3  -2   9   25.40    5.80
   3  -2   9   37.60    5.90
   3  -2   9   35.10    5.60
  -4   2  -9   25.50    6.00
  -4   2  -9   26.90    8.60
  -4   2  -9   21.70    6.20
   4  -2   9   29.30    6.50
   4  -2   9   16.40    6.80
   4  -2   9   15.30    5.00
  -5   2  -9  186.68   14.80
  -5   2  -9  185.18   17.90
  -5   2  -9  166.88   13.50
   5  -2   9  198.08   12.50
   5  -2   9  204.08   15.00
   5  -2   9  189.68   15.70
   5   1  -9   50.89    6.60
   5   1  -9   59.39    7.90
  -5  -1   9   45.50    7.90
   4   1  -9   76.99    6.70
   4   1  -9   61.69    6.40
  -4  -1   9   78.29    9.90
  -4  -1   9   61.09    8.30
   3   1  -9   39.00    3.90
   3   1  -9   44.30    3.90
  -3  -1   9   39.70    4.50
  -3  -1   9   35.30    6.60
   2   1  -9    0.60    4.80
  -2  -1   9    0.60    5.10
  -2  -1   9    4.20    2.50
  -2  -1   9   -0.60    2.20
   1   1  -9    2.20    4.70
  -1  -1   9    3.10    1.90
  -1  -1   9    3.60    1.90
  -1  -1   9   16.50    5.60
   0   1  -9   73.79    8.50
   0  -1   9   76.19    4.30
   0  -1   9   81.49    9.40
   0  -1   9   77.69    4.50
  -1   1  -9  181.28   12.30
  -1   1  -9  172.98    6.90
  -1   1  -9  178.48    6.80
   1  -1   9  180.78    7.80
   1  -1   9  172.88    9.90
  -2   1  -9  248.48    9.50
  -2   1  -9  225.38    9.50
   2  -1   9  221.98    9.90
   2  -1   9  235.98   10.10
   2  -1   9  205.88   11.00
  -3   1  -9  132.59    8.30
  -3   1  -9  138.09    8.20
   3  -1   9  142.29    9.30
   3  -1   9  138.39    8.90
   3  -1   9  122.59    8.30
  -4   1  -9  270.87   13.10
  -4   1  -9  265.97   13.50
   4  -1   9  273.37   12.80
   4  -1   9  272.17   13.70
  -5   1  -9   11.60    8.60
  -5   1  -9    3.30    6.00
  -5   1  -9    9.60    6.50
   5  -1   9   11.40    4.90
   5  -1   9   10.90    7.80
   5  -1   9   13.50    7.00
  -6   1  -9   16.10    8.90
  -6   1  -9    9.40    9.90
  -6   1  -9   -1.60    7.90
   6  -1   9   -2.50    9.30
   6  -1   9   15.90    6.00
   6  -1   9   28.00    9.40
   4   0  -9    8.00    4.90
   4   0  -9    1.80    4.80
  -4   0   9    6.50    6.20
  -4   0   9   -3.80    5.30
  -4   0   9    7.80    6.10
   3   0  -9  169.28    8.90
   3   0  -9  168.78    8.60
  -3   0   9  155.98   11.60
  -3   0   9  165.68   10.00
  -3   0   9  155.48    9.20
   2   0  -9   23.90    3.70
   2   0  -9   29.80    3.70
  -2   0   9   36.80    6.90
  -2   0   9   24.40    4.30
  -2   0   9   23.80    4.10
   1   0  -9  172.78    7.10
   1   0  -9  159.88    7.10
  -1   0   9  172.58    7.70
  -1   0   9  149.99    8.70
  -1   0   9  163.08   11.40
   0   0  -9  925.01   31.00
   0   0  -9  894.91   26.10
   0   0  -9  878.31   26.10
   0   0   9  892.91   30.60
   0   0   9  869.61   27.80
   0   0   9  939.21   26.80
  -1   0  -9  352.26   12.20
  -1   0  -9  330.67   12.20
  -1   0  -9  358.96   16.70
   1   0   9  341.17   16.20
   1   0   9  363.06   12.90
   1   0   9  376.66   12.80
  -2   0  -9  119.19    6.90
  -2   0  -9  130.79    6.90
   2   0   9  103.49    7.30
   2   0   9  114.69    9.80
   2   0   9  118.39    7.40
   2   0   9  123.19    7.80
  -3   0  -9   45.20    6.20
  -3   0  -9   52.89    8.10
  -3   0  -9   46.10    6.10
   3   0   9   47.00    5.50
   3   0   9   47.90    5.80
   3   0   9   57.49    6.70
  -4   0  -9   -2.10    4.40
  -4   0  -9   -0.20    4.10
   4   0   9   -0.80    4.70
   4   0   9    0.40    3.70
   4   0   9    1.30    5.10
  -5   0  -9   33.90    6.90
  -5   0  -9   16.20    6.50
   5   0   9   28.90    5.20
   5   0   9   24.40    7.70
   5   0   9   37.20    7.00
  -6   0  -9   25.70    9.60
  -6   0  -9   37.30    7.80
  -6   0  -9   24.10    9.10
   6   0   9   37.60    9.50
   6   0   9   25.40    8.60
   6   0   9   27.90    5.80
   4  -1  -9   88.39   10.60
   4  -1  -9   85.89   11.00
  -4   1   9   92.99   12.80
  -4   1   9   72.79    9.20
  -4   1   9   94.69   10.90
   3  -1  -9  226.78   11.80
   3  -1  -9  246.48   12.00
  -3   1   9  215.48   13.80
  -3   1   9  225.18   12.20
   2  -1  -9  273.07   12.20
   2  -1  -9  305.27   12.30
  -2   1   9  299.77   12.80
  -2   1   9  286.37   12.90
  -2   1   9  276.77   15.00
   1  -1  -9  323.17   12.60
   1  -1  -9  302.47   12.40
  -1   1   9  329.57   12.90
  -1   1   9  336.77   13.10
  -1   1   9  342.37   16.20
   0  -1  -9   70.09    5.80
   0  -1  -9   65.19    5.80
   0   1   9   70.29    9.00
   0   1   9   68.49    6.00
   0   1   9   64.69    6.10
  -1  -1  -9   19.70    5.50
  -1  -1  -9   22.10    3.70
   1   1   9   28.20    4.20
   1   1   9   15.10    3.90
   1   1   9   20.20    6.20
  -2  -1  -9    8.10    8.00
  -2  -1  -9   17.40    3.90
  -2  -1  -9   18.30    3.70
   2   1   9   23.00    4.30
   2   1   9   24.20    6.50
   2   1   9   18.50    4.00
  -3  -1  -9   25.50    4.50
  -3  -1  -9   30.40    6.90
  -3  -1  -9   22.10    4.40
   3   1   9   28.20    4.90
   3   1   9   23.00    5.00
   3   1   9   26.20    6.70
   3   1   9   24.00    4.00
  -4  -1  -9   37.30    8.10
  -4  -1  -9   28.60    5.70
  -4  -1  -9   31.20    5.50
   4   1   9   30.90    6.70
   4   1   9   40.30    6.20
   4   1   9   36.80    6.50
   4   1   9   40.00    4.60
  -5  -1  -9   32.80    6.70
  -5  -1  -9   31.70    6.70
   5   1   9   38.50    7.50
   5   1   9   26.70    7.40
   5   1   9   39.20    5.20
  -6  -1  -9  141.19   13.60
  -6  -1  -9   97.59   12.30
  -6  -1  -9  109.29   12.30
   6   1   9  118.19    8.90
   6   1   9  120.39   12.10
   6   1   9   93.09   12.60
  -7  -1  -9   -3.20   10.20
  -7  -1  -9  -10.60    9.90
   7   1   9  -19.30    9.80
   7   1   9   -7.10    5.60
   4  -2  -9  235.98   16.60
   4  -2  -9  246.58   15.30
  -4   2   9  226.38   17.10
  -4   2   9  208.08   15.70
  -4   2   9  227.38   16.60
   3  -2  -9  417.96   17.90
   3  -2  -9  421.86   17.70
  -3   2   9  380.46   18.00
  -3   2   9  415.06   19.30
  -3   2   9  372.06   18.50
   2  -2  -9   70.09    7.90
   2  -2  -9   72.49    8.40
  -2   2   9   59.79    8.40
  -2   2   9   51.79    7.10
   1  -2  -9   21.50    5.00
   1  -2  -9   24.80    4.90
  -1   2   9   21.30    4.90
  -1   2   9   18.10    5.10
  -1   2   9   21.80    6.60
   0  -2  -9    2.50    3.70
   0  -2  -9    5.50    3.80
   0   2   9    9.20    5.80
   0   2   9    5.90    4.30
   0   2   9    0.60    3.60
  -1  -2  -9  267.87   11.70
   1   2   9  271.67   14.30
   1   2   9  280.57   12.10
   1   2   9  268.97   12.00
  -2  -2  -9  154.58    8.70
  -2  -2  -9  130.99    8.40
   2   2   9  124.79   10.90
   2   2   9  131.39    8.60
   2   2   9  135.59    8.80
  -3  -2  -9   21.00    4.70
  -3  -2  -9   17.60    4.60
   3   2   9   12.50    4.90
   3   2   9   18.80    6.40
   3   2   9   24.80    5.10
  -4  -2  -9    1.00    4.50
  -4  -2  -9   -7.70    5.70
  -4  -2  -9    2.00    4.70
   4   2   9   -0.10    4.40
   4   2   9    3.00    5.00
   4   2   9   -1.80    5.20
  -5  -2  -9   10.40    5.30
  -5  -2  -9    7.70    6.10
   5   2   9   12.50    8.70
   5   2   9   12.60    6.80
   5   2   9   16.60    3.50
   5   2   9    7.90    5.50
  -6  -2  -9   11.10    7.50
  -6  -2  -9    6.50    6.40
   6   2   9   13.10    7.70
   6   2   9   -0.30    3.80
   6   2   9    2.70    8.10
  -7  -2  -9   10.80    9.40
  -7  -2  -9    8.20    9.60
  -7  -2  -9   18.50    8.40
   7   2   9    5.50    8.70
   7   2   9   17.50    5.10
   7   2   9    1.50   10.00
   3  -3  -9   35.30    8.90
   3  -3  -9   39.70    8.20
  -3   3   9   45.70    9.30
  -3   3   9   29.60    9.80
  -3   3   9   44.60    9.40
   2  -3  -9   75.29   10.10
   2  -3  -9   86.39   10.90
  -2   3   9   84.59   11.50
  -2   3   9   87.29   12.00
  -2   3   9   69.39    9.10
   1  -3  -9   13.00    5.60
   1  -3  -9    6.50    5.00
  -1   3   9    7.80    5.50
  -1   3   9   21.50    7.20
   0  -3  -9  101.19    8.80
   0  -3  -9   92.69    8.60
   0   3   9  101.79    8.90
   0   3   9   92.79   10.90
   0   3   9   77.79    8.70
  -1  -3  -9  538.65   19.80
  -1  -3  -9  533.85   19.90
   1   3   9  502.35   20.00
   1   3   9  547.35   20.00
   1   3   9  542.35   22.10
  -2  -3  -9   77.29    8.20
  -2  -3  -9   80.69    7.90
   2   3   9   93.99    8.70
   2   3   9   62.09    9.00
   2   3   9   90.69    8.60
  -3  -3  -9   37.70    6.20
  -3  -3  -9   45.80    6.60
   3   3   9   50.29    7.80
   3   3   9   45.50    7.10
   3   3   9   43.90    6.90
  -4  -3  -9   40.80    6.90
  -4  -3  -9   41.90    6.40
   4   3   9   43.50    7.20
   4   3   9   34.90    7.20
  -5  -3  -9    4.00    5.20
  -5  -3  -9    0.20    6.30
   5   3   9    1.00    6.30
   5   3   9    1.50    5.90
  -6  -3  -9   53.89    9.40
  -6  -3  -9   55.09    9.40
   6   3   9   70.39    9.70
   6   3   9   70.09   10.50
   6   3   9   69.09    9.90
  -7  -3  -9  382.16   21.20
  -7  -3  -9  383.86   21.90
   7   3   9  366.56   21.30
   7   3   9  363.66   20.10
   2  -4  -9   77.99   10.60
   2  -4  -9   72.79    9.70
  -2   4   9   51.79   11.00
  -2   4   9   60.19   10.40
  -2   4   9   80.99   10.90
   1  -4  -9   76.39   10.20
   1  -4  -9   56.79    8.50
  -1   4   9   55.99    8.10
  -1   4   9   42.20    9.60
  -1   4   9   52.49    9.00
   0  -4  -9   26.40    6.60
   0  -4  -9   22.40    6.60
   0   4   9   37.00    6.60
   0   4   9   26.80    7.10
   0   4   9   39.20    8.40
  -1  -4  -9  142.19   11.20
  -1  -4  -9  128.19   10.50
   1   4   9  108.09   11.70
   1   4   9  133.69   10.90
  -2  -4  -9  127.79   10.70
  -2  -4  -9  125.59   10.30
   2   4   9  121.79   11.30
   2   4   9  118.19    9.50
  -3  -4  -9  412.36   17.50
  -3  -4  -9  447.56   18.50
   3   4   9  410.26   17.90
   3   4   9  413.76   19.40
  -4  -4  -9   25.20    6.20
  -4  -4  -9   42.90    7.00
   4   4   9   37.10    7.60
   4   4   9   31.90    7.40
  -5  -4  -9  204.58   14.10
  -5  -4  -9  205.48   12.90
   5   4   9  195.18   14.50
   5   4   9  212.58   14.40
  -6  -4  -9  237.58   16.70
  -6  -4  -9  271.07   16.10
   6   4   9  253.47   15.90
   6   4   9  255.37   15.90
   6   4   9  219.58   16.10
  -7  -4  -9  -12.60   10.00
  -7  -4  -9  -11.80    9.20
   7   4   9  -16.20    9.50
   7   4   9   -1.20    8.50
   7   4   9   -1.80    8.20
   1  -5  -9   66.79    9.50
   1  -5  -9   80.19   10.80
  -1   5   9   65.69   10.00
  -1   5   9   94.49   12.50
  -1   5   9   64.79   11.80
   0  -5  -9   28.50    8.20
   0  -5  -9   30.90    7.30
   0   5   9   24.50    7.70
   0   5   9   31.90    9.70
   0   5   9   30.90    8.60
  -1  -5  -9    5.90    6.20
  -1  -5  -9   -2.50    6.40
   1   5   9    1.00    7.60
   1   5   9    5.20    7.00
  -2  -5  -9  256.87   14.40
   2   5   9  226.38   15.00
   2   5   9  285.27   17.30
  -3  -5  -9    6.10    6.30
  -3  -5  -9   -1.20    5.70
   3   5   9   13.30    7.70
   3   5   9    4.20    6.60
  -4  -5  -9  216.98   14.90
  -4  -5  -9  222.48   13.90
   4   5   9  222.28   14.80
   4   5   9  205.58   14.00
  -5  -5  -9  208.28   14.50
  -5  -5  -9  187.88   14.30
   5   5   9  231.98   15.80
   5   5   9  239.38   15.70
   5   5   9  240.78   16.30
  -6  -5  -9    4.10    7.70
  -6  -5  -9    0.70    8.80
   6   5   9    1.20    8.00
   6   5   9   12.20    8.00
   6   5   9   10.70    8.90
  -7  -5  -9   42.80   15.20
  -7  -5  -9   88.19   13.60
   7   5   9   78.29   11.70
   7   5   9   68.99   12.90
   7   5   9   83.79   13.50
   0  -6  -9   86.09   12.20
   0  -6  -9   49.50   10.50
   0   6   9   61.19   11.80
   0   6   9   90.79   11.60
   0   6   9   90.89   13.60
  -1  -6  -9   53.29   10.00
  -1  -6  -9   48.80    9.30
   1   6   9   72.99   12.40
   1   6   9   66.69   10.60
   1   6   9   65.59   10.10
  -2  -6  -9   27.70    8.70
  -2  -6  -9   13.30    7.90
   2   6   9   27.30    8.30
   2   6   9   15.20    9.90
   2   6   9   11.10    9.50
  -3  -6  -9  129.29   14.40
  -3  -6  -9  149.99   14.90
   3   6   9  100.79   14.60
   3   6   9  132.49   13.10
   3   6   9  131.99   13.70
  -4  -6  -9    6.80    7.60
  -4  -6  -9    2.40    7.40
   4   6   9  -20.90    8.10
   4   6   9   12.60    8.00
   4   6   9   14.70    8.30
  -5  -6  -9   21.40    8.50
  -5  -6  -9    3.50    8.40
   5   6   9   -3.50    8.30
   5   6   9   16.60    8.80
   5   6   9   14.50    9.20
  -6  -6  -9   39.80    9.60
  -6  -6  -9   22.40   11.20
   6   6   9   33.20    9.80
   6   6   9   26.20    9.70
   6   6   9   33.40   10.30
  -2  -7  -9   -8.90   11.20
   2   7   9  -15.50    9.30
  -3  -7  -9   34.70   10.10
   3   7   9   30.50    9.70
   3   7   9   17.60   10.30
   3   7   9   33.10   10.50
  -4  -7  -9    8.20    9.80
  -4  -7  -9    7.00    8.90
   4   7   9    4.30    9.60
   4   7   9   11.00    9.10
   4   7   9    7.90   10.60
  -5  -7  -9   17.30   11.30
  -5  -7  -9   14.70    9.10
   5   7   9   28.90   10.60
   5   7   9   42.10   10.70
   5   7   9    7.60    9.90
   3   5 -10  104.19   12.40
  -3  -5  10   89.69   11.00
   2   5 -10  126.19   15.00
  -2  -5  10  127.49   11.90
  -2  -5  10  120.79   10.60
   1   5 -10   34.80   10.50
  -1  -5  10   30.70    6.60
  -1  -5  10   26.40    7.00
   0   5 -10    3.50    9.10
   0  -5  10    4.60    6.50
   1  -5  10   37.50    8.10
   4   4 -10   28.50    8.90
  -4  -4  10   25.30    7.30
   3   4 -10   46.90    9.30
  -3  -4  10   41.40    7.40
   2   4 -10  158.28   14.50
  -2  -4  10  165.08   11.30
   1   4 -10   33.00    9.00
  -1  -4  10   30.50    6.90
   0   4 -10   64.09   10.70
   0  -4  10   56.99    8.10
  -1   4 -10  148.09   14.90
   1  -4  10  132.79   11.40
   1  -4  10   92.79    6.30
  -2   4 -10   84.39    6.40
  -2   4 -10   72.89   12.10
   2  -4  10   67.99    9.40
  -3   4 -10    2.40    5.80
   3  -4  10    5.00    7.50
   3  -4  10    5.60    5.90
  -4  -3  10    0.90    5.30
   3   3 -10   20.20    7.30
  -3  -3  10   24.40    5.70
   2   3 -10  284.97   16.60
  -2  -3  10  269.87   14.60
   1   3 -10   50.09    8.60
  -1  -3  10   43.30    6.70
   0   3 -10   40.90    8.70
   0  -3  10   22.50    5.70
  -1   3 -10   72.59   11.00
   1  -3  10   78.99    7.90
   1  -3  10   66.69    5.20
  -2   3 -10   59.29    5.60
  -2   3 -10  110.79   14.00
  -2   3 -10   73.79    5.70
   2  -3  10   64.39    7.60
   2  -3  10   81.99    9.00
  -3   3 -10   -1.40    4.70
  -3   3 -10   21.10   10.00
  -3   3 -10   14.90    5.10
   3  -3  10   -1.50    5.30
   3  -3  10    7.70    6.30
   3  -3  10    5.30    5.20
  -4   3 -10   84.79   11.40
   4  -3  10  105.59   12.80
   4  -3  10   74.69    9.50
  -4  -2  10    2.90    3.50
   2   2 -10   14.10    6.50
   1   2 -10   32.70    8.60
   0   2 -10   17.30    7.70
   0  -2  10   12.00    4.20
  -1   2 -10   36.50    8.50
   1  -2  10   33.20    4.30
   1  -2  10   24.30    5.60
   1  -2  10   20.40    2.90
  -2   2 -10   32.00    3.90
  -2   2 -10   31.90    4.00
   2  -2  10   40.30    5.10
   2  -2  10   28.40    4.90
   2  -2  10   32.70    5.50
  -3   2 -10   12.80    4.40
  -3   2 -10   21.80    9.00
  -3   2 -10   10.90    4.20
   3  -2  10   28.00    5.30
   3  -2  10   12.70    5.10
  -4   2 -10  279.87   14.50
  -4   2 -10  253.47   14.40
  -4   2 -10  246.28   20.20
   4  -2  10  311.07   16.00
   4  -2  10  312.27   14.70
   4  -2  10  281.07   14.80
   4   1 -10   74.89    6.30
   4   1 -10   73.29    6.00
  -3  -1  10   12.50    4.10
  -3  -1  10   24.10    6.90
  -2  -1  10   15.00    6.50
  -2  -1  10   13.60    3.00
   1   1 -10   67.09    8.50
  -1  -1  10   53.19    4.10
  -1  -1  10   59.29    4.10
  -1  -1  10   60.09    8.50
   0   1 -10    7.80    6.10
   0  -1  10    1.70    2.30
   0  -1  10    2.60    2.30
   0  -1  10    5.80    6.00
  -1   1 -10    0.10    1.90
  -1   1 -10    4.90    6.40
   1  -1  10    1.50    3.80
   1  -1  10    8.10    2.90
   1  -1  10    2.50    2.80
  -2   1 -10   46.30    5.40
  -2   1 -10   52.69    5.70
   2  -1  10   48.50    6.40
   2  -1  10   48.80    6.20
   2  -1  10   51.29    6.30
  -3   1 -10  189.38    9.90
  -3   1 -10  194.18   10.00
   3  -1  10  215.48   11.10
   3  -1  10  176.48   10.60
   3  -1  10  185.38   10.60
  -4   1 -10   -1.90    5.10
  -4   1 -10    3.70    5.00
  -4   1 -10    0.50    8.40
   4  -1  10   -2.40    5.40
   4  -1  10    3.30    4.30
   4  -1  10    4.60    6.20
  -5   1 -10   28.40    8.60
  -5   1 -10   28.10    7.70
  -5   1 -10   24.50   10.80
   5  -1  10   33.00    8.20
   5  -1  10   37.30    9.20
   5  -1  10   36.70    6.00
   4   0 -10   53.19    6.90
  -4   0  10   66.09    9.80
  -4   0  10   49.99    8.30
   3   0 -10   16.00    4.70
   3   0 -10    9.50    4.20
  -3   0  10    4.20    4.70
  -3   0  10   14.20    6.80
   2   0 -10   11.60    3.30
   2   0 -10   11.20    3.20
  -2   0  10   11.90    4.10
  -2   0  10   28.50    6.90
   1   0 -10  118.59    5.90
   1   0 -10  109.79    5.80
  -1   0  10   95.49    6.70
  -1   0  10  107.89   11.30
   0   0 -10   39.10    7.80
   0   0 -10   36.10    4.20
   0   0 -10   44.10    4.30
   0   0  10   46.90    5.30
   0   0  10   42.20    7.60
  -1   0 -10    9.50    6.20
  -1   0 -10    5.60    2.80
   1   0  10    6.20    3.50
   1   0  10    8.40    6.30
   1   0  10    6.00    3.40
  -2   0 -10   31.20    4.40
  -2   0 -10   32.70    4.50
   2   0  10   25.00    7.10
   2   0  10   24.50    4.60
   2   0  10   28.90    4.90
   2   0  10   34.20    5.00
  -3   0 -10   16.80    4.50
  -3   0 -10    1.80    3.80
   3   0  10   -4.40    4.50
   3   0  10   13.30    4.60
   3   0  10   -0.80    3.70
  -4   0 -10  196.78   11.60
  -4   0 -10  183.48   15.90
  -4   0 -10  154.68   10.80
   4   0  10  173.18   11.80
   4   0  10  178.38   10.30
  -5   0 -10   28.40    9.50
  -5   0 -10   28.80    7.40
  -5   0 -10   15.00    7.10
   5   0  10   24.60    7.60
   5   0  10   26.40    5.60
   5   0  10   22.80    7.40
  -6   0 -10   23.80    8.20
  -6   0 -10    4.90    8.80
  -6   0 -10    0.50   11.50
   6   0  10   11.50    9.60
   6   0  10   22.80   10.30
   6   0  10   11.10    5.60
   3  -1 -10   64.59    7.50
   3  -1 -10   83.39    9.00
  -3   1  10   72.69    9.80
  -3   1  10   64.59    8.60
   2  -1 -10   44.80    5.50
   2  -1 -10   48.70    5.90
  -2   1  10   36.40    7.70
  -2   1  10   41.50    6.10
   1  -1 -10   10.00    3.80
   1  -1 -10    1.30    3.40
  -1   1  10    5.70    6.40
  -1   1  10    2.20    4.10
  -1   1  10    3.70    4.00
   0  -1 -10   21.50    4.00
   0  -1 -10   25.80    4.30
   0   1  10   27.90    7.40
   0   1  10   25.30    4.60
   0   1  10   19.50    4.20
  -1  -1 -10  238.28   10.50
  -1  -1 -10  231.78   10.70
   1   1  10  265.57   11.40
   1   1  10  229.18   14.50
   1   1  10  258.07   11.30
  -2  -1 -10   13.50    4.20
  -2  -1 -10   24.70    4.40
   2   1  10   20.10    4.90
   2   1  10   26.00    4.70
   2   1  10   24.00    6.90
  -3  -1 -10  210.58   10.80
  -3  -1 -10  213.48   11.10
   3   1  10  196.98   11.40
   3   1  10  218.78   13.80
   3   1  10  214.38   11.60
  -4  -1 -10   88.79    8.80
  -4  -1 -10  106.59   13.50
  -4  -1 -10  104.09    9.70
   4   1  10   99.49    9.60
   4   1  10   88.19   10.90
   4   1  10  104.39    8.00
  -5  -1 -10   42.70    7.80
  -5  -1 -10   28.00    7.30
  -5  -1 -10   29.60    9.80
   5   1  10   30.50    7.60
   5   1  10   46.60    8.80
   5   1  10   49.30    6.00
  -6  -1 -10   16.80    8.40
  -6  -1 -10    8.50   10.00
  -6  -1 -10   -0.60    7.90
   6   1  10    4.30    7.80
   6   1  10    0.50    5.10
   6   1  10   -0.10    8.90
   3  -2 -10   -6.60    7.10
   3  -2 -10   11.80    7.00
  -3   2  10   -1.20    7.20
  -3   2  10    5.30    8.70
  -3   2  10    0.70    8.20
   2  -2 -10   36.60    6.60
   2  -2 -10   42.60    6.90
  -2   2  10   72.89   10.00
  -2   2  10   46.60    8.70
  -2   2  10   32.10    7.30
   1  -2 -10   11.30    4.90
   1  -2 -10    3.40    4.90
  -1   2  10   12.30    5.10
  -1   2  10    8.90    7.20
   0  -2 -10  250.47   11.80
   0  -2 -10  251.27   11.60
   0   2  10  237.28   12.50
   0   2  10  244.78   12.20
   0   2  10  245.68   15.40
  -1  -2 -10   90.79    8.30
  -1  -2 -10  120.79    8.00
   1   2  10  115.69    8.90
   1   2  10  107.99    8.50
   1   2  10   91.49   11.50
  -2  -2 -10  600.44   21.40
  -2  -2 -10  598.94   21.30
   2   2  10  614.74   21.60
   2   2  10  603.74   24.50
   2   2  10  606.14   21.80
  -3  -2 -10  137.49    9.50
  -3  -2 -10  129.89    9.80
   3   2  10  130.79   11.60
   3   2  10  141.19    9.80
  -4  -2 -10   59.69    7.90
  -4  -2 -10   78.59    8.60
   4   2  10   61.19    8.00
   4   2  10   63.89    9.40
  -5  -2 -10   77.79   10.70
  -5  -2 -10   44.20    9.80
  -5  -2 -10   72.19    9.10
   5   2  10   90.19   12.10
   5   2  10   79.79   11.20
   5   2  10   77.19    9.80
  -6  -2 -10  -15.60    8.40
  -6  -2 -10   -4.50    7.20
  -6  -2 -10    1.80    7.70
   6   2  10   11.20    5.20
   6   2  10   -3.30    8.30
   6   2  10   -2.30    8.30
   2  -3 -10   35.90    8.50
   2  -3 -10   38.90    8.10
  -2   3  10   32.70    9.80
  -2   3  10   25.40    8.30
  -2   3  10   29.40    8.40
   1  -3 -10  258.47   14.50
   1  -3 -10  272.47   14.60
  -1   3  10  257.17   14.50
  -1   3  10  274.57   17.40
  -1   3  10  253.47   15.10
   0  -3 -10   61.59    8.50
   0  -3 -10   61.29    7.50
   0   3  10   65.19    9.40
   0   3  10   77.59    9.20
   0   3  10   70.39    9.80
  -1  -3 -10  208.28   11.90
  -1  -3 -10  225.88   12.70
   1   3  10  244.18   12.50
   1   3  10  236.18   15.70
  -2  -3 -10   16.70    5.70
  -2  -3 -10   10.80    5.10
   2   3  10    6.40    5.30
   2   3  10    3.00    7.10
  -3  -3 -10    7.10    5.00
  -3  -3 -10   -7.10    4.90
   3   3  10    6.30    6.80
   3   3  10    0.90    5.50
  -4  -3 -10   -0.50    5.10
  -4  -3 -10   -1.30    5.60
   4   3  10    5.80    5.80
   4   3  10   -3.00    6.00
   4   3  10    6.90    6.70
  -5  -3 -10   25.50    7.10
  -5  -3 -10    1.90    6.90
   5   3  10    6.90    7.50
   5   3  10   23.40    7.80
   5   3  10   12.00    8.10
  -6  -3 -10  158.28   14.00
  -6  -3 -10  171.58   14.90
   6   3  10  149.59   14.00
   6   3  10  181.28   15.60
   6   3  10  154.38   14.50
   1  -4 -10   18.30    7.90
   1  -4 -10   -1.70    7.20
  -1   4  10   -3.40    7.00
  -1   4  10    2.30    9.70
  -1   4  10   -9.10    8.10
   0  -4 -10   25.90    7.20
   0  -4 -10   23.90    7.50
   0   4  10   34.60    9.70
   0   4  10   19.40    6.80
   0   4  10   21.50    8.20
  -1  -4 -10   10.00    6.00
  -1  -4 -10    7.20    6.40
   1   4  10   -0.90    8.10
   1   4  10    9.60    6.70
   1   4  10    2.60    5.60
  -2  -4 -10   37.20    7.00
   2   4  10   42.60    8.20
   2   4  10   36.50    7.20
   2   4  10   27.00    8.40
  -3  -4 -10    4.50    6.10
  -3  -4 -10    1.20    5.90
   3   4  10    5.70    7.30
   3   4  10   -4.70    5.50
   3   4  10   -1.60    7.10
  -4  -4 -10   13.00    6.30
  -4  -4 -10   19.80    6.30
   4   4  10   31.70    8.80
   4   4  10   12.90    7.90
   4   4  10   16.60    6.60
  -5  -4 -10   92.59   11.10
  -5  -4 -10   73.29    9.30
   5   4  10   71.19   11.00
   5   4  10   95.69   11.80
   5   4  10   84.39   10.90
  -6  -4 -10   31.90    9.40
  -6  -4 -10   15.70    8.70
   6   4  10   32.60   10.10
   6   4  10   16.40    9.10
   6   4  10   16.10    9.70
   0  -5 -10    0.90    8.70
   0  -5 -10    2.30    8.20
   0   5  10   -0.20    8.70
   0   5  10    5.80    9.40
   0   5  10    5.90   10.30
  -1  -5 -10  154.18   14.10
  -1  -5 -10  149.09   13.40
   1   5  10  166.38   14.70
   1   5  10  135.09   14.10
   1   5  10  160.88   16.80
  -2  -5 -10   14.70    6.90
  -2  -5 -10   24.80    8.40
   2   5  10   18.70    7.10
   2   5  10    7.40    8.70
   2   5  10   12.80    8.80
  -3  -5 -10   99.69   10.80
  -3  -5 -10  112.49   12.80
   3   5  10   72.99   10.90
   3   5  10   95.09   11.70
   3   5  10  100.69   14.20
  -4  -5 -10   16.60    8.40
  -4  -5 -10    7.40    7.00
   4   5  10  -11.50    7.20
   4   5  10   -6.80    8.60
   4   5  10  -10.30    7.60
  -5  -5 -10   33.10    9.10
  -5  -5 -10   23.00    8.40
   5   5  10   40.40   10.40
   5   5  10   16.50    9.00
   5   5  10   24.50    9.30
  -6  -5 -10   10.10    8.10
  -6  -5 -10    8.30   10.30
   6   5  10   24.70   10.80
   6   5  10    4.20    9.30
   6   5  10    5.30    8.70
  -1  -6 -10    5.70    9.60
   1   6  10    5.20    9.20
  -2  -6 -10   15.40   10.40
  -2  -6 -10   17.80    8.40
   2   6  10   24.00    9.90
   2   6  10   17.80   10.40
   2   6  10   17.30    8.80
  -3  -6 -10   58.39   10.40
   3   6  10   97.69   13.40
   3   6  10   91.09   11.80
   3   6  10   87.99   13.00
  -4  -6 -10  -11.80    8.60
  -4  -6 -10    1.90    8.50
   4   6  10    7.00    8.30
   4   6  10   -0.60    9.20
   4   6  10   11.00   10.30
  -5  -6 -10   82.39   13.20
  -5  -6 -10   54.09   11.00
   5   6  10   78.09   12.00
   5   6  10   71.49   11.60
   5   6  10   74.39   13.10
   2   4 -11   57.69   11.20
   1   4 -11  128.89   16.40
  -1  -4  11  116.09   12.30
   0   4 -11   76.99   12.90
   0  -4  11   49.40    8.20
  -1   4 -11   81.99   15.20
   1  -4  11   81.29   11.10
   3   3 -11   31.60   10.00
   2   3 -11   46.90   10.70
   1   3 -11  137.69   14.90
   0   3 -11   71.19   11.90
   0  -3  11   62.29    9.00
  -1   3 -11   11.90    9.20
   1  -3  11    3.60    5.60
   1  -3  11    1.80    2.30
   1  -3  11    0.50    2.20
  -2   3 -11    1.30    9.30
   2  -3  11   -0.90    3.90
   2  -3  11   -0.60    4.70
   2  -3  11    2.40    6.20
  -3   3 -11  200.68   11.10
   3  -3  11  215.58   14.30
   3  -3  11  199.78   13.60
   2   2 -11  105.59   14.20
   1   2 -11   10.80    8.40
   0   2 -11   34.60    9.30
  -1   2 -11   30.10    9.90
   1  -2  11   14.30    3.10
   1  -2  11    5.20    5.00
  -2   2 -11   58.29   11.30
  -2   2 -11   65.39    5.30
  -2   2 -11   66.89    5.20
   2  -2  11   66.89    8.30
   2  -2  11   63.09    7.60
  -3   2 -11   43.10    5.50
  -3   2 -11   30.70   11.20
  -3   2 -11   35.20    5.50
   3  -2  11   40.50    7.20
   3  -2  11   42.20    7.10
  -4   2 -11   23.80    6.80
   4  -2  11   28.10    8.50
   4  -2  11   21.80    6.30
  -3  -1  11    5.50    3.80
  -3  -1  11   -1.10    4.10
   1   1 -11    1.30    7.80
  -1  -1  11   15.50    7.50
  -1  -1  11    4.30    2.20
  -1  -1  11    0.00    2.40
   0   1 -11   71.89   10.20
   0  -1  11   63.89    4.90
  -1   1 -11    6.00    8.20
   1  -1  11    9.50    3.50
   1  -1  11    2.90    3.10
  -2   1 -11    9.30    3.50
  -2   1 -11   21.30    9.00
  -2   1 -11   14.00    3.70
   2  -1  11   18.70    5.00
   2  -1  11    5.20    4.40
   2  -1  11    1.50    4.20
  -3   1 -11    0.70    4.40
  -3   1 -11   -8.30    8.80
  -3   1 -11    0.50    4.40
   3  -1  11   -6.20    4.10
   3  -1  11   -4.20    4.80
  -4   1 -11   65.89   12.30
  -4   1 -11   82.79   10.00
  -4   1 -11   64.89    7.90
   4  -1  11   65.79    8.80
   4  -1  11   62.89    9.00
   3   0 -11  118.69   11.90
   3   0 -11  113.09    8.00
  -3   0  11   97.79   11.70
  -3   0  11  115.19   10.60
   2   0 -11   17.90    3.60
   2   0 -11   24.90    3.80
  -2   0  11   30.00    5.50
  -2   0  11   24.70    8.50
   1   0 -11   -1.00    2.50
   1   0 -11    3.60    2.50
  -1   0  11   -4.50    4.10
  -1   0  11   -4.30    7.10
  -1   0  11    2.10    3.90
   0   0 -11    6.60    8.00
   0   0 -11    5.10    2.70
   0   0 -11    6.30    2.50
   0   0  11    8.30    3.70
   0   0  11    7.20    7.40
  -1   0 -11  182.58   15.50
  -1   0 -11  167.08    8.00
  -1   0 -11  155.38    7.70
   1   0  11  179.28   14.40
   1   0  11  164.38    9.10
  -2   0 -11   17.20   13.50
  -2   0 -11   27.30    4.30
  -2   0 -11   18.40    4.30
   2   0  11   24.20    5.20
   2   0  11   24.50    8.30
   2   0  11   17.50    4.60
  -3   0 -11   -3.30    4.40
  -3   0 -11    3.50    4.40
  -3   0 -11    6.70    9.00
   3   0  11    0.90    4.70
   3   0  11    1.80    4.40
  -4   0 -11  205.78   17.50
  -4   0 -11  205.68   12.60
  -4   0 -11  200.58   12.40
   4   0  11  208.08   13.50
   4   0  11  200.18   11.40
   4   0  11  199.18   13.50
  -5   0 -11   12.20    7.10
  -5   0 -11   12.70   11.20
  -5   0 -11    4.90    7.20
   5   0  11    4.60    8.30
   5   0  11   -5.30    5.20
   5   0  11    7.30    8.20
   2  -1 -11   11.30    5.00
   2  -1 -11   27.20    5.60
  -2   1  11   23.50    6.70
  -2   1  11    9.80    5.50
  -2   1  11   23.30    8.90
   1  -1 -11  121.19    8.20
   1  -1 -11  102.29    8.00
  -1   1  11   80.79   10.60
   0  -1 -11    9.60    4.00
   0  -1 -11   12.60    4.30
   0   1  11    7.00    7.60
   0   1  11   17.20    5.00
   0   1  11   10.30    4.90
  -1  -1 -11   32.70    4.90
  -1  -1 -11   32.10    4.80
   1   1  11   38.50    8.40
   1   1  11   22.80    5.10
   1   1  11   24.30    5.60
  -2  -1 -11    5.40    4.10
  -2  -1 -11    1.10    4.10
   2   1  11   -2.70    6.90
   2   1  11    3.60    5.00
   2   1  11    6.60    4.70
  -3  -1 -11   69.19    8.40
  -3  -1 -11   90.79   13.90
  -3  -1 -11   82.59    8.60
   3   1  11  105.79   12.10
   3   1  11   81.59    9.50
  -4  -1 -11    2.50    6.10
  -4  -1 -11   10.00    9.70
  -4  -1 -11   13.40    6.10
   4   1  11   16.80    6.30
   4   1  11    7.10    6.80
   4   1  11   23.00    8.80
  -5  -1 -11   81.89    9.40
  -5  -1 -11   50.19   12.00
  -5  -1 -11   79.69    9.70
   5   1  11   69.39   10.00
   5   1  11   58.49   10.00
   5   1  11   91.59    8.90
   2  -2 -11   62.69    8.40
   2  -2 -11   77.69   10.70
  -2   2  11   66.09    9.40
  -2   2  11   62.69   11.20
   1  -2 -11   10.50    5.60
   1  -2 -11    1.30    5.40
  -1   2  11   -1.30    8.10
  -1   2  11   -2.40    5.50
  -1   2  11   -1.00    6.40
   0  -2 -11   18.00    5.40
   0  -2 -11    6.30    4.90
   0   2  11   33.60    9.50
   0   2  11   21.00    5.30
  -1  -2 -11   71.19    8.20
  -1  -2 -11   79.99    8.40
   1   2  11   92.89    9.30
   1   2  11  105.79   13.10
  -2  -2 -11  176.58   10.90
  -2  -2 -11  178.98   11.30
   2   2  11  161.98   15.00
   2   2  11  183.78   11.20
  -3  -2 -11   61.79    8.40
  -3  -2 -11   69.99    9.00
   3   2  11   69.79   10.10
   3   2  11   54.79    7.90
   3   2  11   71.09    9.10
  -4  -2 -11    5.40    5.90
  -4  -2 -11   -0.50    6.30
   4   2  11   -3.30    8.30
   4   2  11    0.50    6.20
   4   2  11   -2.90    6.90
  -5  -2 -11   -2.30    7.20
  -5  -2 -11    0.80    6.60
   5   2  11   -4.90    7.90
   5   2  11  -14.10    8.60
   5   2  11   -4.70    7.80
  -6  -2 -11   23.70    9.30
   6   2  11   32.40   10.50
   1  -3 -11    8.00    6.80
   1  -3 -11   25.70    7.40
  -1   3  11   25.10   10.00
  -1   3  11   16.60    8.20
  -1   3  11   21.30    7.90
   0  -3 -11   59.29    8.40
   0  -3 -11   71.29    9.80
   0   3  11   72.89    9.60
   0   3  11   73.29    9.00
   0   3  11   65.19   11.60
  -1  -3 -11   10.40    5.70
  -1  -3 -11   17.80    6.40
   1   3  11   16.00    7.00
   1   3  11   16.60    8.50
   1   3  11   14.90    6.30
  -2  -3 -11   68.79    8.00
   2   3  11   61.39    8.40
   2   3  11   67.19   10.70
   2   3  11   89.09   10.90
  -3  -3 -11   73.89    9.80
  -3  -3 -11   82.79   10.60
   3   3  11   51.79   10.40
   3   3  11   69.19    9.20
   3   3  11  102.59   10.80
  -4  -3 -11   29.40    7.80
  -4  -3 -11   18.70    6.60
   4   3  11   24.30    7.70
   4   3  11   17.90    9.20
   4   3  11   25.10    7.90
  -5  -3 -11    7.30    7.80
  -5  -3 -11   21.50    8.30
   5   3  11   38.10   10.30
   5   3  11    3.80    8.90
   5   3  11   15.80    8.30
  -6  -3 -11   61.19   11.40
   6   3  11   38.60   10.60
   6   3  11   64.99   12.10
   0  -4 -11   24.60    8.90
   0  -4 -11   35.30    8.20
   0   4  11   35.50    8.90
   0   4  11   43.30    9.60
   0   4  11   27.40   10.50
  -1  -4 -11    6.10    6.90
  -1  -4 -11   -6.20    7.30
   1   4  11    5.90   10.00
   1   4  11   11.70    8.30
   1   4  11   -0.80    7.10
  -2  -4 -11   52.89    8.30
  -2  -4 -11   58.39    8.60
   2   4  11   56.39    9.90
   2   4  11   43.20   10.20
   2   4  11   47.00    9.30
  -3  -4 -11   73.59    9.80
  -3  -4 -11   61.59    9.00
   3   4  11   77.59   11.70
   3   4  11   67.09    9.70
   3   4  11   68.69   10.10
  -4  -4 -11  101.79   12.20
  -4  -4 -11  106.79   12.70
   4   4  11   82.89   11.20
   4   4  11  119.69   15.00
   4   4  11   82.79   10.80
  -5  -4 -11   -8.50    7.50
  -5  -4 -11    2.50    8.00
   5   4  11    2.10    8.80
   5   4  11    4.80    8.90
   5   4  11    7.60    8.80
  -1  -5 -11   31.60    9.90
  -1  -5 -11   52.89   10.70
   1   5  11   53.39   11.10
  -2  -5 -11   -6.40    8.60
  -2  -5 -11   -1.40    8.20
   2   5  11    6.40    9.80
   2   5  11   -3.10    8.60
   2   5  11    7.90    8.10
  -3  -5 -11   24.30    9.30
  -3  -5 -11    0.40    7.90
   3   5  11    5.30    8.00
   3   5  11   10.50    9.70
   3   5  11   30.70    9.80
  -4  -5 -11   -5.80    8.30
  -4  -5 -11    4.20    8.10
   4   5  11   -3.80    7.80
   4   5  11   23.10   10.10
   4   5  11    0.30    9.30
  -5  -5 -11   18.20   10.80
   5   5  11    0.30   10.10
   5   5  11   17.20    9.60
   0   3 -12   47.60   11.50
   1  -3  12   14.90    6.40
   1   2 -12   27.90   10.10
   0   2 -12    2.60   10.20
  -1   2 -12    5.20    9.60
   1  -2  12    1.80    2.60
   1  -2  12   -2.30    5.80
   1  -2  12    4.00    2.60
  -2   2 -12   44.80   17.60
   2  -2  12   36.20    7.20
   2  -2  12   44.60    6.10
   0   1 -12    9.60    9.20
   0  -1  12   -0.40    2.60
   0  -1  12    4.00    2.70
  -1   1 -12   15.20    9.90
  -2   1 -12    0.70    3.30
  -2   1 -12   -0.20    9.20
   2  -1  12   -8.80    5.10
   2  -1  12    5.50    5.00
  -3   1 -12   73.49    8.50
  -3   1 -12   65.59    7.60
  -3   1 -12   55.19   15.10
   3  -1  12   59.39    8.10
   3  -1  12   60.49    7.50
  -1   0  12   16.60    9.90
  -1   0  12   25.10    5.20
   0   0 -12   50.19    3.50
   0   0 -12   55.39    3.70
   0   0  12   48.10    5.80
   0   0  12   51.89   11.00
  -1   0 -12    5.20    3.20
  -1   0 -12   11.70    9.50
  -1   0 -12   -2.90    3.10
   1   0  12   10.50    8.80
   1   0  12   -1.90    5.00
  -2   0 -12  146.39   17.40
  -2   0 -12  125.79    8.40
   2   0  12  132.79   14.80
  -3   0 -12   34.60   10.50
  -3   0 -12   39.50    6.10
  -3   0 -12   19.80    5.40
   3   0  12    5.60    6.00
   3   0  12   30.50    7.10
  -4   0 -12  -16.80   15.80
  -4   0 -12    2.50    6.40
   4   0  12   -3.50    6.60
   4   0  12    0.10    7.70
   4   0  12    1.50    5.40
   1  -1 -12   67.29    8.20
   1  -1 -12   41.00    5.70
  -1   1  12   53.89    7.50
  -1   1  12   59.19   11.20
   0  -1 -12   63.69    7.30
   0  -1 -12   72.09    7.50
   0   1  12   74.49   11.70
  -1  -1 -12    5.70    4.70
  -1  -1 -12   11.30    4.50
   1   1  12   13.90    9.50
   1   1  12   -8.10    4.90
  -2  -1 -12  109.99    9.00
   2   1  12  109.99   11.20
   2   1  12  102.79   13.90
  -3  -1 -12   77.49    9.30
  -3  -1 -12   30.70   11.40
  -3  -1 -12   55.59    7.10
   3   1  12   46.40    8.30
   3   1  12   68.09   11.70
  -4  -1 -12   73.99    8.80
  -4  -1 -12   65.89    8.90
  -4  -1 -12   52.69   11.60
   4   1  12   66.79    9.40
   4   1  12   76.89    9.50
   1  -2 -12   10.10    6.50
  -1   2  12    1.90    9.70
  -1   2  12    0.40    7.70
   0  -2 -12   14.70    5.60
   0  -2 -12    5.40    5.80
   0   2  12   11.40    7.00
   0   2  12   -4.70    6.00
   0   2  12   -1.20    9.70
  -1  -2 -12  102.19   10.00
  -1  -2 -12   74.69    9.40
   1   2  12  101.09   13.50
   1   2  12   99.59   11.70
  -2  -2 -12   43.40    7.10
   2   2  12   42.90    8.30
   2   2  12   59.49   11.10
   2   2  12   59.89    8.00
  -3  -2 -12  183.08   12.40
  -3  -2 -12  163.08   12.70
   3   2  12  156.58   17.10
   3   2  12  152.68   13.30
   3   2  12  157.68   12.30
  -4  -2 -12   83.69    9.60
  -4  -2 -12   71.39    9.20
   4   2  12  106.19   13.70
   4   2  12   88.79   10.60
   4   2  12   82.39   10.40
   0  -3 -12   91.19   12.00
   0   3  12   97.69   13.50
   0   3  12   93.39   13.10
  -1  -3 -12   43.50    8.10
  -1  -3 -12   31.20    7.60
   1   3  12   40.60    8.70
   1   3  12   21.30   11.00
   1   3  12   23.60    8.90
  -2  -3 -12   17.60    7.40
  -2  -3 -12   19.70    7.50
   2   3  12   24.00    7.60
   2   3  12   27.50    8.50
   2   3  12   25.90    9.70
  -3  -3 -12   64.19    8.80
  -3  -3 -12   57.39    9.50
   3   3  12   59.39    9.30
   3   3  12   40.10   10.50
   3   3  12   72.09   10.30
  -4  -3 -12   -2.00    7.20
  -4  -3 -12    7.70    8.10
   4   3  12    0.80    9.60
   4   3  12    4.70    8.30
   4   3  12    3.70    8.20
  -2  -4 -12   -7.30    8.20
  -2  -4 -12   -9.30    7.60
   2   4  12   11.00    9.00
   2   4  12  -17.50    8.20
  -3  -4 -12   27.60    9.30
  -3  -4 -12   30.50    8.60
   3   4  12   28.90    9.60
   3   4  12   47.70    9.40
  -4  -4 -12   76.59   10.80
   4   4  12   87.59   12.40
  -2  -1 -13   16.00    5.80
   2   1  13   12.10    7.50
_computing_structure_solution     'SHELXT 2014/4 (Sheldrick, 2014)'
;
_shelx_hkl_checksum              20141
_shelx_res_file
;
TITL UMD766_a.res in P-1
REM Old TITL UMD766 in P-1
REM SHELXT solution in P-1
REM R1 0.082, Rweak 0.008, Alpha 0.040, Orientation as input
REM Formula found by SHELXT: C8 N2 O6 Na S
CELL 0.71073 7.4526 7.9888 10.6916 85.916 80.181 65.237
ZERR 2 0.0017 0.0019 0.0022 0.01 0.01 0.01
LATT 1
SFAC C H N Na O S
UNIT 16 16 2 2 14 2
EQIV $1 -1+X,+Y,1+Z
EQIV $2 +X,+Y,1+Z
EQIV $3 2-X,1-Y,1-Z
EQIV $4 +X,-1+Y,1+Z
EQIV $5 2-X,1-Y,2-Z
EQIV $6 1+X,+Y,-1+Z
EQIV $7 1+X,+Y,+Z
DFIX 0.86 0.005 O6 H6b O6 H6a O7 H7b O7 H7a
DFIX 0.87 0.005 N1 H1
L.S. 10
PLAN  20
SIZE 0.14 0.15 0.18
TEMP -73.15
HTAB O6 O3_$1
HTAB O6 S1_$2
HTAB O6 O4_$2
HTAB O7 S1_$3
HTAB O7 O5_$3
HTAB O7 O3_$4
HTAB N1 O7_$5
HTAB C6 O6_$6
HTAB C7 O2_$7
BOND $H
CONF
HTAB 2
LIST 6
MORE -1
fmap 2
acta 50.5
OMIT -3 -1 11
REM <olex2.extras>
REM <HklSrc "%.\\UMD766_a.hkl">
REM </olex2.extras>
WGHT    0.034000    0.416900
FVAR       0.84909
NA1   4    0.620926    0.563763    1.112066    11.00000    0.02203    0.02557 =
         0.02355   -0.00069   -0.00403   -0.01231
S1    6    0.778577    0.885562    0.213704    11.00000    0.01715    0.01753 =
         0.01765    0.00101   -0.00200   -0.00892
O1    5    0.627750    0.557946    0.890244    11.00000    0.03191    0.03174 =
         0.01931    0.00619   -0.00608   -0.01881
O2    5    0.436605    0.593253    0.667575    11.00000    0.02981    0.03960 =
         0.02639    0.00360   -0.00634   -0.02575
O3    5    0.927403    0.959747    0.170780    11.00000    0.02550    0.02746 =
         0.02746    0.00565   -0.00328   -0.01823
O4    5    0.573514    1.022432    0.218170    11.00000    0.02007    0.02166 =
         0.02815    0.00026   -0.00463   -0.00563
O5    5    0.818459    0.720875    0.142650    11.00000    0.02431    0.02123 =
         0.01973   -0.00375   -0.00056   -0.01102
O6    5    0.346416    0.827786    1.186204    11.00000    0.02217    0.03532 =
         0.07680   -0.00700   -0.00701   -0.01248
H6A   2    0.231408    0.873329    1.161770    11.00000   -1.50000
H6B   2    0.383905    0.915939    1.186197    11.00000   -1.50000
O7    5    0.920656    0.300656    1.090339    11.00000    0.02751    0.02354 =
         0.02042   -0.00031   -0.00157   -0.01399
H7A   2    0.990122    0.288106    1.016224    11.00000   -1.50000
H7B   2    0.910502    0.198559    1.108383    11.00000   -1.50000
N1    3    0.841141    0.649022    0.747833    11.00000    0.02028    0.02776 =
         0.01913    0.00274   -0.00765   -0.01259
H1    2    0.917920    0.655729    0.797944    11.00000   -1.20000
C1    1    0.682749    0.606698    0.785946    11.00000    0.02111    0.01709 =
         0.01978   -0.00092   -0.00453   -0.00783
C2    1    0.577627    0.631473    0.667242    11.00000    0.02136    0.02015 =
         0.02054   -0.00024   -0.00346   -0.00971
C3    1    0.691764    0.700019    0.567434    11.00000    0.01796    0.01970 =
         0.02018   -0.00014   -0.00284   -0.00970
C4    1    0.667783    0.754126    0.443509    11.00000    0.01784    0.02180 =
         0.02084   -0.00118   -0.00454   -0.01082
AFIX  43
H4    2    0.560831    0.751414    0.407665    11.00000   -1.20000
AFIX   0
C5    1    0.806380    0.812901    0.372919    11.00000    0.01891    0.01659 =
         0.01805   -0.00160   -0.00093   -0.00828
C6    1    0.965122    0.813140    0.425518    11.00000    0.02165    0.02766 =
         0.02523    0.00143   -0.00165   -0.01552
AFIX  43
H6    2    1.059325    0.850870    0.374733    11.00000   -1.20000
AFIX   0
C7    1    0.989109    0.759411    0.550757    11.00000    0.01900    0.03280 =
         0.02519    0.00064   -0.00574   -0.01511
AFIX  43
H7    2    1.097208    0.760125    0.586341    11.00000   -1.20000
AFIX   0
C8    1    0.849452    0.705326    0.620551    11.00000    0.01732    0.01884 =
         0.01958   -0.00083   -0.00461   -0.00603
HKLF 4
REM  UMD766_a.res in P-1
REM R1 =  0.0339 for    1775 Fo > 4sig(Fo)  and  0.0465 for all    2142 data
REM    178 parameters refined using      5 restraints
END
WGHT      0.0340      0.4169
REM Instructions for potential hydrogen bonds
HTAB O6 O3_$1
HTAB O6 S1_$2
HTAB O6 O4_$2
HTAB O7 S1_$3
HTAB O7 O5_$3
HTAB O7 O3_$4
HTAB N1 O7_$5
HTAB C6 O6_$6
HTAB C7 O2_$7
REM Highest difference peak  0.373,  deepest hole -0.413,  1-sigma level  0.062
Q1    1   0.3766  0.8378  1.0978  11.00000  0.05    0.37
Q2    1   0.7790  0.8537  0.3000  11.00000  0.05    0.37
Q3    1   0.7589  0.7640  0.3988  11.00000  0.05    0.25
Q4    1   0.9123  0.6823  0.0635  11.00000  0.05    0.21
Q5    1   0.4656  0.7010  1.1106  11.00000  0.05    0.21
Q6    1   0.8245  0.7603  0.0411  11.00000  0.05    0.20
Q7    1   0.8036  0.6631  0.5806  11.00000  0.05    0.20
Q8    1   0.6415  0.6595  0.6025  11.00000  0.05    0.20
Q9    1   0.6147  0.6283  0.7316  11.00000  0.05    0.19
Q10   1   0.8972  0.7649  0.5979  11.00000  0.05    0.19
Q11   1   0.9212  0.7142  0.5834  11.00000  0.05    0.19
Q12   1   0.9654  0.3051  0.9164  11.00000  0.05    0.18
Q13   1   0.9357  0.6754  0.5682  11.00000  0.05    0.18
Q14   1   0.7529  0.7457  0.5981  11.00000  0.05    0.18
Q15   1   0.6508  1.1194  0.0993  11.00000  0.05    0.18
Q16   1   0.6557  0.9786  0.2402  11.00000  0.05    0.18
Q17   1   0.9102  0.7597  0.3985  11.00000  0.05    0.17
Q18   1   0.9494  0.8298  0.4995  11.00000  0.05    0.17
Q19   1   0.9474  0.8519  0.7438  11.00000  0.05    0.17
Q20   1   0.6412  0.9878  0.1400  11.00000  0.05    0.17
;
_shelx_res_checksum              28262
_shelxl_version_number           2014/6
loop_
_space_group_symop_operation_xyz
'x, y, z'
'-x, -y, -z'
loop_
_atom_site_type_symbol
_atom_site_label
_atom_site_fract_x
_atom_site_fract_y
_atom_site_fract_z
_atom_site_U_iso_or_equiv
_atom_site_adp_type
_atom_site_calc_flag
_atom_site_occupancy
Na Na1 0.62093(12) 0.56376(12) 1.11207(8) 0.0228(2) Uani d 1
S S1 0.77858(8) 0.88556(7) 0.21370(5) 0.01699(15) Uani d 1
O O1 0.6277(2) 0.5579(2) 0.89024(14) 0.0258(4) Uani d 1
O O2 0.4366(2) 0.5933(2) 0.66757(14) 0.0280(4) Uani d 1
O O3 0.9274(2) 0.9597(2) 0.17078(14) 0.0247(4) Uani d 1
O O4 0.5735(2) 1.0224(2) 0.21817(14) 0.0242(4) Uani d 1
O O5 0.8185(2) 0.7209(2) 0.14265(13) 0.0214(3) Uani d 1
O O6 0.3464(3) 0.8278(3) 1.1862(2) 0.0443(5) Uani d 1
H H6A 0.231(2) 0.873(4) 1.162(3) 0.066 Uiso d 1
H H6B 0.384(5) 0.916(3) 1.186(3) 0.066 Uiso d 1
O O7 0.9207(2) 0.3007(2) 1.09034(14) 0.0229(4) Uani d 1
H H7A 0.990(3) 0.288(4) 1.0162(11) 0.034 Uiso d 1
H H7B 0.911(4) 0.1986(19) 1.108(2) 0.034 Uiso d 1
N N1 0.8411(3) 0.6490(3) 0.74783(17) 0.0210(4) Uani d 1
H H1 0.918(3) 0.656(3) 0.7979(17) 0.025 Uiso d 1
C C1 0.6827(3) 0.6067(3) 0.78595(19) 0.0191(5) Uani d 1
C C2 0.5776(3) 0.6315(3) 0.6672(2) 0.0203(5) Uani d 1
C C3 0.6918(3) 0.7000(3) 0.56743(19) 0.0186(5) Uani d 1
C C4 0.6678(3) 0.7541(3) 0.44351(19) 0.0190(4) Uani d 1
H H4 0.5608 0.7514 0.4077 0.023 Uiso calc 1
C C5 0.8064(3) 0.8129(3) 0.37292(19) 0.0177(4) Uani d 1
C C6 0.9651(3) 0.8131(3) 0.4255(2) 0.0234(5) Uani d 1
H H6 1.0593 0.8509 0.3747 0.028 Uiso calc 1
C C7 0.9891(3) 0.7594(3) 0.5508(2) 0.0239(5) Uani d 1
H H7 1.0972 0.7601 0.5863 0.029 Uiso calc 1
C C8 0.8495(3) 0.7053(3) 0.62055(19) 0.0188(4) Uani d 1
loop_
_atom_site_aniso_label
_atom_site_aniso_U_11
_atom_site_aniso_U_22
_atom_site_aniso_U_33
_atom_site_aniso_U_12
_atom_site_aniso_U_13
_atom_site_aniso_U_23
Na1 0.0220(5) 0.0256(5) 0.0235(5) -0.0123(4) -0.0040(3) -0.0007(4)
S1 0.0172(3) 0.0175(3) 0.0177(3) -0.0089(2) -0.0020(2) 0.0010(2)
O1 0.0319(9) 0.0317(9) 0.0193(8) -0.0188(8) -0.0061(7) 0.0062(7)
O2 0.0298(9) 0.0396(10) 0.0264(8) -0.0258(8) -0.0063(7) 0.0036(7)
O3 0.0255(9) 0.0275(9) 0.0275(8) -0.0182(8) -0.0033(7) 0.0057(7)
O4 0.0201(8) 0.0217(8) 0.0281(8) -0.0056(7) -0.0046(6) 0.0003(7)
O5 0.0243(8) 0.0212(8) 0.0197(8) -0.0110(7) -0.0006(6) -0.0038(6)
O6 0.0222(10) 0.0353(11) 0.0768(14) -0.0125(9) -0.0070(9) -0.0070(10)
O7 0.0275(9) 0.0235(9) 0.0204(8) -0.0140(8) -0.0016(6) -0.0003(7)
N1 0.0203(10) 0.0278(10) 0.0191(9) -0.0126(9) -0.0077(7) 0.0027(8)
C1 0.0211(12) 0.0171(11) 0.0198(11) -0.0078(10) -0.0045(9) -0.0009(9)
C2 0.0214(12) 0.0201(11) 0.0205(11) -0.0097(10) -0.0035(9) -0.0002(9)
C3 0.0180(11) 0.0197(11) 0.0202(11) -0.0097(9) -0.0028(8) -0.0001(9)
C4 0.0178(11) 0.0218(11) 0.0208(11) -0.0108(10) -0.0045(8) -0.0012(9)
C5 0.0189(11) 0.0166(11) 0.0180(10) -0.0083(9) -0.0009(8) -0.0016(8)
C6 0.0216(12) 0.0277(13) 0.0252(12) -0.0155(11) -0.0017(9) 0.0014(9)
C7 0.0190(12) 0.0328(13) 0.0252(12) -0.0151(11) -0.0057(9) 0.0006(10)
C8 0.0173(11) 0.0188(11) 0.0196(11) -0.0060(9) -0.0046(8) -0.0008(8)
loop_
_atom_type_symbol
_atom_type_description
_atom_type_scat_dispersion_real
_atom_type_scat_dispersion_imag
_atom_type_scat_source
C C 0.0033 0.0016 'International Tables Vol C Tables 4.2.6.8 and 6.1.1.4'
H H 0.0000 0.0000 'International Tables Vol C Tables 4.2.6.8 and 6.1.1.4'
N N 0.0061 0.0033 'International Tables Vol C Tables 4.2.6.8 and 6.1.1.4'
Na Na 0.0362 0.0249 'International Tables Vol C Tables 4.2.6.8 and 6.1.1.4'
O O 0.0106 0.0060 'International Tables Vol C Tables 4.2.6.8 and 6.1.1.4'
S S 0.1246 0.1234 'International Tables Vol C Tables 4.2.6.8 and 6.1.1.4'
loop_
_geom_angle_atom_site_label_1
_geom_angle_atom_site_label_2
_geom_angle_atom_site_label_3
_geom_angle_site_symmetry_1
_geom_angle_site_symmetry_3
_geom_angle
O1 Na1 Na1 2_667 2_667 39.66(4)
O1 Na1 Na1 . 2_667 40.95(4)
O1 Na1 O1 . 2_667 80.61(6)
O1 Na1 O2 . 2_667 145.72(6)
O1 Na1 O2 2_667 2_667 69.98(5)
O1 Na1 O5 . 1_556 106.21(6)
O1 Na1 C1 2_667 2_667 21.08(5)
O1 Na1 C1 . 2_667 101.52(6)
O2 Na1 Na1 2_667 2_667 107.88(5)
O2 Na1 C1 2_667 2_667 49.33(5)
O5 Na1 Na1 1_556 2_667 146.48(5)
O5 Na1 O1 1_556 2_667 169.43(6)
O5 Na1 O2 1_556 2_667 105.59(6)
O5 Na1 C1 1_556 2_667 151.73(6)
O6 Na1 Na1 . 2_667 96.15(6)
O6 Na1 O1 . 2_667 83.70(7)
O6 Na1 O1 . . 106.17(8)
O6 Na1 O2 . 2_667 88.14(7)
O6 Na1 O5 . 1_556 86.60(7)
O6 Na1 O7 . . 164.59(8)
O6 Na1 C1 . 2_667 80.47(7)
O7 Na1 Na1 . 2_667 97.83(5)
O7 Na1 O1 . 2_667 103.12(6)
O7 Na1 O1 . . 88.71(6)
O7 Na1 O2 . 2_667 81.43(6)
O7 Na1 O5 . 1_556 85.33(6)
O7 Na1 C1 . 2_667 100.84(6)
C1 Na1 Na1 2_667 2_667 60.61(5)
O3 S1 O5 . . 111.89(9)
O3 S1 C5 . . 106.05(9)
O4 S1 O3 . . 113.46(9)
O4 S1 O5 . . 112.52(9)
O4 S1 C5 . . 106.06(9)
O5 S1 C5 . . 106.17(9)
Na1 O1 Na1 . 2_667 99.39(6)
C1 O1 Na1 . . 146.85(15)
C1 O1 Na1 . 2_667 112.95(14)
C2 O2 Na1 . 2_667 107.73(14)
S1 O5 Na1 . 1_554 133.64(9)
Na1 O6 H6A . . 127(2)
Na1 O6 H6B . . 109(2)
H6A O6 H6B . . 107(3)
Na1 O7 H7A . . 113.6(18)
Na1 O7 H7B . . 115.7(18)
H7A O7 H7B . . 107(3)
C1 N1 H1 . . 124.4(15)
C1 N1 C8 . . 111.27(17)
C8 N1 H1 . . 123.8(16)
O1 C1 Na1 . 2_667 45.97(11)
O1 C1 N1 . . 128.8(2)
O1 C1 C2 . . 124.92(19)
N1 C1 Na1 . 2_667 168.95(15)
N1 C1 C2 . . 106.28(17)
C2 C1 Na1 . 2_667 79.79(11)
O2 C2 C1 . . 122.89(19)
O2 C2 C3 . . 132.4(2)
C3 C2 C1 . . 104.67(17)
C4 C3 C2 . . 132.34(19)
C4 C3 C8 . . 121.11(19)
C8 C3 C2 . . 106.56(18)
C3 C4 H4 . . 121.2
C3 C4 C5 . . 117.57(19)
C5 C4 H4 . . 121.2
C4 C5 S1 . . 118.75(16)
C6 C5 S1 . . 120.41(16)
C6 C5 C4 . . 120.84(19)
C5 C6 H6 . . 119.2
C7 C6 C5 . . 121.68(19)
C7 C6 H6 . . 119.2
C6 C7 H7 . . 121.4
C8 C7 C6 . . 117.12(19)
C8 C7 H7 . . 121.4
N1 C8 C3 . . 111.14(18)
C7 C8 N1 . . 127.21(19)
C7 C8 C3 . . 121.65(19)
loop_
_geom_bond_atom_site_label_1
_geom_bond_atom_site_label_2
_geom_bond_site_symmetry_2
_geom_bond_distance
Na1 Na1 2_667 3.6590(17)
Na1 O1 . 2.3669(17)
Na1 O1 2_667 2.4309(18)
Na1 O2 2_667 2.6444(18)
Na1 O5 1_556 2.3706(17)
Na1 O6 . 2.309(2)
Na1 O7 . 2.3283(19)
Na1 C1 2_667 3.113(2)
S1 O3 . 1.4596(15)
S1 O4 . 1.4547(16)
S1 O5 . 1.4609(15)
S1 C5 . 1.777(2)
O1 Na1 2_667 2.4309(18)
O1 C1 . 1.216(2)
O2 Na1 2_667 2.6444(18)
O2 C2 . 1.210(3)
O5 Na1 1_554 2.3707(17)
O6 H6A . 0.858(5)
O6 H6B . 0.860(5)
O7 H7A . 0.857(5)
O7 H7B . 0.856(5)
N1 H1 . 0.867(5)
N1 C1 . 1.351(3)
N1 C8 . 1.402(3)
C1 Na1 2_667 3.113(2)
C1 C2 . 1.561(3)
C2 C3 . 1.470(3)
C3 C4 . 1.382(3)
C3 C8 . 1.406(3)
C4 H4 . 0.9500
C4 C5 . 1.395(3)
C5 C6 . 1.395(3)
C6 H6 . 0.9500
C6 C7 . 1.394(3)
C7 H7 . 0.9500
C7 C8 . 1.376(3)
loop_
_geom_hbond_atom_site_label_D
_geom_hbond_atom_site_label_H
_geom_hbond_atom_site_label_A
_geom_hbond_site_symmetry_A
_geom_hbond_distance_DH
_geom_hbond_distance_HA
_geom_hbond_distance_DA
_geom_hbond_angle_DHA
O6 H6A O3 1_456 0.858(5) 2.060(13) 2.878(2) 159(3)
O6 H6B O4 1_556 0.860(5) 2.013(16) 2.807(2) 153(3)
O7 H7A O5 2_766 0.857(5) 2.008(7) 2.854(2) 169(2)
O7 H7B O3 1_546 0.856(5) 1.936(8) 2.780(2) 168(3)
N1 H1 O7 2_767 0.867(5) 1.974(6) 2.837(2) 174(2)
C6 H6 O6 1_654 0.95 2.63 3.520(3) 155.8
C7 H7 O2 1_655 0.95 2.59 3.453(3) 151.8
loop_
_geom_torsion_atom_site_label_1
_geom_torsion_atom_site_label_2
_geom_torsion_atom_site_label_3
_geom_torsion_atom_site_label_4
_geom_torsion_site_symmetry_1
_geom_torsion_site_symmetry_4
_geom_torsion
Na1 O1 C1 Na1 . 2_667 -166.5(3)
Na1 O1 C1 N1 . . 26.5(4)
Na1 O1 C1 N1 2_667 . -166.99(19)
Na1 O1 C1 C2 2_667 . 12.7(3)
Na1 O1 C1 C2 . . -153.79(19)
Na1 O2 C2 C1 2_667 . -5.9(2)
Na1 O2 C2 C3 2_667 . 171.9(2)
Na1 C1 C2 O2 2_667 . 4.8(2)
Na1 C1 C2 C3 2_667 . -173.49(15)
S1 C5 C6 C7 . . 179.05(17)
O1 C1 C2 O2 . . -4.4(3)
O1 C1 C2 C3 . . 177.3(2)
O2 C2 C3 C4 . . 4.7(4)
O2 C2 C3 C8 . . -175.5(2)
O3 S1 O5 Na1 . 1_554 -161.56(11)
O3 S1 C5 C4 . . 173.02(16)
O3 S1 C5 C6 . . -7.6(2)
O4 S1 O5 Na1 . 1_554 -32.43(14)
O4 S1 C5 C4 . . 52.08(19)
O4 S1 C5 C6 . . -128.54(18)
O5 S1 C5 C4 . . -67.82(19)
O5 S1 C5 C6 . . 111.56(18)
N1 C1 C2 O2 . . 175.3(2)
N1 C1 C2 C3 . . -3.0(2)
C1 N1 C8 C3 . . -0.7(3)
C1 N1 C8 C7 . . 179.6(2)
C1 C2 C3 C4 . . -177.2(2)
C1 C2 C3 C8 . . 2.5(2)
C2 C3 C4 C5 . . -179.8(2)
C2 C3 C8 N1 . . -1.3(2)
C2 C3 C8 C7 . . 178.4(2)
C3 C4 C5 S1 . . -179.40(16)
C3 C4 C5 C6 . . 1.2(3)
C4 C3 C8 N1 . . 178.46(19)
C4 C3 C8 C7 . . -1.8(3)
C4 C5 C6 C7 . . -1.6(3)
C5 S1 O5 Na1 . 1_554 83.17(13)
C5 C6 C7 C8 . . 0.2(3)
C6 C7 C8 N1 . . -178.9(2)
C6 C7 C8 C3 . . 1.5(3)
C8 N1 C1 Na1 . 2_667 124.4(7)
C8 N1 C1 O1 . . -178.0(2)
C8 N1 C1 C2 . . 2.3(2)
C8 C3 C4 C5 . . 0.4(3)

_cod_database_fobs_code 1545652
