#------------------------------------------------------------------------------
#$Date: 2017-03-02 08:10:48 +0200 (Thu, 02 Mar 2017) $
#$Revision: 192771 $
#$URL: file:///home/coder/svn-repositories/cod/cif/1/54/53/1545386.cif $
#------------------------------------------------------------------------------
#
# This file is available in the Crystallography Open Database (COD),
# http://www.crystallography.net/. The original data for this entry
# were provided by IUCr Journals, http://journals.iucr.org/.
#
# The file may be used within the scientific community so long as
# proper attribution is given to the journal article from which the
# data were obtained.
#
data_1545386
loop_
_publ_author_name
'Kalaiyarasi, S.'
'Suresh, S.'
'Akilan, R.'
'Kumar, R. Mohan'
'Chakkaravarthi, G.'
_publ_section_title
;
 4-Methylanilinium 3-carboxy-4-hydroxybenzenesulfonate
;
_journal_coeditor_code           BT4043
_journal_issue                   2
_journal_name_full               IUCrData
_journal_page_first              x170254
_journal_paper_doi               10.1107/S2414314617002541
_journal_volume                  2
_journal_year                    2017
_chemical_formula_iupac          'C7 H10 N +, C7 H5 O6 S -'
_chemical_formula_moiety         'C7 H10 N +, C7 H5 O6 S -'
_chemical_formula_sum            'C14 H15 N O6 S'
_chemical_formula_weight         325.33
_chemical_name_systematic
;
4-Methylanilinium 3-carboxy-4-hydroxybenzenesulfonate
;
_space_group_crystal_system      monoclinic
_space_group_IT_number           14
_space_group_name_Hall           '-P 2yn'
_space_group_name_H-M_alt        'P 1 21/n 1'
_symmetry_space_group_name_Hall  '-P 2yn'
_symmetry_space_group_name_H-M   'P 1 21/n 1'
_atom_sites_solution_hydrogens   mixed
_audit_creation_method           SHELXL-2016/4
_cell_angle_alpha                90
_cell_angle_beta                 98.962(3)
_cell_angle_gamma                90
_cell_formula_units_Z            4
_cell_length_a                   9.5114(8)
_cell_length_b                   12.3080(11)
_cell_length_c                   12.5537(11)
_cell_measurement_reflns_used    8665
_cell_measurement_temperature    295(2)
_cell_measurement_theta_max      31.5
_cell_measurement_theta_min      2.3
_cell_volume                     1451.7(2)
_computing_cell_refinement
;
SAINT (Bruker, 2004)
;
_computing_data_collection
;
APEX2 (Bruker, 2004)
;
_computing_data_reduction
;
SAINT (Bruker, 2004)
;
_computing_molecular_graphics
;
PLATON (Spek, 2009)
;
_computing_publication_material
;
SHELXL2016 (Sheldrick, 2015) and PLATON (Spek, 2009)
;
_computing_structure_refinement
;
SHELXL2016 (Sheldrick, 2015)
;
_computing_structure_solution
;
SHELXS97 (Sheldrick, 2008)
;
_diffrn_ambient_temperature      295(2)
_diffrn_measured_fraction_theta_full 1.000
_diffrn_measured_fraction_theta_max 0.971
_diffrn_measurement_device_type  'Bruker Kappa APEXII CCD Diffractometer'
_diffrn_measurement_method       '\w and \f scan'
_diffrn_radiation_type           MoK\a
_diffrn_radiation_wavelength     0.71073
_diffrn_reflns_av_R_equivalents  0.0395
_diffrn_reflns_limit_h_max       13
_diffrn_reflns_limit_h_min       -14
_diffrn_reflns_limit_k_max       17
_diffrn_reflns_limit_k_min       -17
_diffrn_reflns_limit_l_max       18
_diffrn_reflns_limit_l_min       -18
_diffrn_reflns_number            26625
_diffrn_reflns_theta_full        25.242
_diffrn_reflns_theta_max         31.614
_diffrn_reflns_theta_min         2.331
_exptl_absorpt_coefficient_mu    0.253
_exptl_absorpt_correction_T_max  0.7462
_exptl_absorpt_correction_T_min  0.6089
_exptl_absorpt_correction_type   multi-scan
_exptl_absorpt_process_details
;
(SADABS; Bruker, 2004)
;
_exptl_crystal_colour            colourless
_exptl_crystal_density_diffrn    1.489
_exptl_crystal_description       block
_exptl_crystal_F_000             680
_exptl_crystal_size_max          0.240
_exptl_crystal_size_mid          0.200
_exptl_crystal_size_min          0.180
_refine_diff_density_max         0.401
_refine_diff_density_min         -0.757
_refine_ls_extinction_coef       0.030(2)
_refine_ls_extinction_expression Fc^*^=kFc[1+0.001xFc^2^\l^3^/sin(2\q)]^-1/4^
_refine_ls_extinction_method
;
SHELXL2016 (Sheldrick, 2016)
;
_refine_ls_goodness_of_fit_ref   1.096
_refine_ls_hydrogen_treatment    mixed
_refine_ls_matrix_type           full
_refine_ls_number_parameters     208
_refine_ls_number_reflns         4730
_refine_ls_number_restraints     2
_refine_ls_restrained_S_all      1.096
_refine_ls_R_factor_all          0.0777
_refine_ls_R_factor_gt           0.0512
_refine_ls_shift/su_max          0.000
_refine_ls_shift/su_mean         0.000
_refine_ls_structure_factor_coef Fsqd
_refine_ls_weighting_details
'w=1/[\s^2^(Fo^2^)+(0.0514P)^2^+0.9730P] where P=(Fo^2^+2Fc^2^)/3'
_refine_ls_weighting_scheme      calc
_refine_ls_wR_factor_gt          0.1225
_refine_ls_wR_factor_ref         0.1417
_reflns_number_gt                3474
_reflns_number_total             4730
_reflns_threshold_expression     'I > 2\s(I)'
_cod_data_source_file            bt4043sup1.cif
_cod_data_source_block           I
_cod_database_code               1545386
_shelx_space_group_comment
;
The symmetry employed for this shelxl refinement is uniquely defined
by the following loop, which should always be used as a source of
symmetry information in preference to the above space-group names.
They are only intended as comments.
;
_shelx_estimated_absorpt_t_min   0.942
_shelx_estimated_absorpt_t_max   0.956
_shelx_hkl_file
;
   1   0   0   -0.31    0.02
   1   0   0   -0.34    0.03
   1   0   0   -0.28    0.04
  -1   0   0   -0.23    0.04
  -1   0   0   -0.37    0.02
   2   0   0  263.45    9.38
   2   0   0  239.39    8.63
   2   0   0  260.19    8.17
   2   0   0  254.19    8.19
  -2   0   0  276.26    9.38
  -2   0   0  245.53    8.63
  -2   0   0  261.28    8.20
  -2   0   0  257.56    8.19
   3   0   0    0.33    0.08
  -3   0   0    0.21    0.08
  -3   0   0    0.08    0.09
  -3   0   0    0.01    0.09
  -3   0   0    0.13    0.11
   3   0   0   -0.01    0.06
   3   0   0    0.05    0.09
   3   0   0    0.12    0.13
  -4   0   0   77.05    2.82
  -4   0   0   75.11    2.46
  -4   0   0   70.54    2.60
   4   0   0   75.72    2.42
   4   0   0   72.91    2.45
   4   0   0   72.04    2.62
  -4   0   0   73.51    2.42
   4   0   0   73.60    2.83
  -5   0   0    0.70    0.17
  -5   0   0    0.39    0.17
   5   0   0    0.32    0.17
   5   0   0    1.11    0.18
   5   0   0    0.48    0.18
   6   0   0   21.21    0.82
   6   0   0   18.73    0.92
   6   0   0   20.23    0.81
   6   0   0   19.31    0.96
  -6   0   0   20.11    0.78
  -6   0   0   20.10    0.83
   7   0   0   -0.36    0.17
  -7   0   0   -0.30    0.11
  -7   0   0   -0.19    0.12
   7   0   0   -0.21    0.18
   8   0   0    9.92    0.56
   8   0   0   10.70    0.71
   8   0   0    9.57    0.72
  -8   0   0   10.08    0.54
   9   0   0    0.18    0.36
   9   0   0    0.19    0.29
  -9   0   0    0.11    0.17
   9   0   0    0.27    0.24
  10   0   0    1.16    0.46
  10   0   0    2.07    0.42
 -10   0   0    1.51    0.33
 -11   0   0    0.66    0.24
  11   0   0    0.18    0.36
  11   0   0    1.47    0.49
  12   0   0    5.73    0.74
 -12   0   0    4.60    0.50
 -13   0   0    0.78    0.35
   0  -1   0   -0.03    0.02
   0  -1   0   -0.04    0.01
   0  -1   0   -0.04    0.01
   0  -1   0   -0.06    0.02
   0   1   0   -0.03    0.01
   0   1   0   -0.01    0.03
   0   1   0   -0.03    0.02
   0   1   0   -0.04    0.02
   1  -1   0    5.21    0.24
  -1  -1   0    6.67    0.30
  -1  -1   0    6.52    0.28
  -1  -1   0    6.04    0.25
  -1  -1   0    6.97    0.26
   1  -1   0    6.61    0.22
   1   1   0    6.62    0.25
  -1   1   0    5.27    0.22
   1   1   0    6.71    0.28
  -1   1   0    6.27    0.23
   1   1   0    6.35    0.25
  -1   1   0    6.58    0.25
   1   1   0    6.61    0.24
   1   1   0    6.63    0.30
   2  -1   0  513.41   16.00
   2  -1   0  561.30   18.43
   2  -1   0  459.91   16.79
   2  -1   0  521.54   15.99
  -2  -1   0  499.81   15.91
  -2  -1   0  486.37   15.97
  -2  -1   0  492.26   18.34
  -2  -1   0  519.72   16.89
  -2  -1   0  488.77   16.70
  -2   1   0  517.74   16.01
   2   1   0  514.39   16.81
  -2   1   0  443.60   16.72
   2   1   0  493.65   15.99
   2   1   0  485.61   15.94
  -2   1   0  574.38   18.36
   2   1   0  466.34   18.28
  -2   1   0  481.66   15.99
   2   1   0  479.14   16.71
  -3  -1   0    3.15    0.20
  -3  -1   0    3.03    0.26
   3  -1   0    3.33    0.17
  -3  -1   0    3.33    0.23
   3  -1   0    3.32    0.19
   3  -1   0    3.25    0.23
  -3  -1   0    3.69    0.27
   3  -1   0    3.35    0.22
   3   1   0    3.71    0.22
  -3   1   0    3.38    0.18
   3   1   0    3.34    0.19
  -3   1   0    3.38    0.22
  -3   1   0    3.29    0.21
   3   1   0    3.36    0.19
   3   1   0    3.55    0.25
  -3   1   0    3.45    0.20
   3   1   0    2.86    0.24
   4  -1   0   29.93    1.03
   4  -1   0   28.52    1.13
  -4  -1   0   29.50    1.24
  -4  -1   0   28.97    1.17
   4  -1   0   30.71    1.01
  -4  -1   0   30.86    1.08
  -4  -1   0   28.53    1.02
   4  -1   0   26.16    1.18
   4   1   0   30.72    1.08
  -4   1   0   27.19    1.11
   4   1   0   29.49    1.25
  -4   1   0   28.86    1.04
  -4   1   0   29.91    1.01
  -4   1   0   30.92    1.19
   4   1   0   30.84    1.07
   4   1   0   27.99    1.16
   5  -1   0   51.42    1.97
   5  -1   0   53.20    1.82
  -5  -1   0   54.97    1.87
   5  -1   0   54.29    2.12
  -5  -1   0   53.30    1.82
  -5   1   0   52.80    1.80
   5   1   0   53.89    2.17
   5   1   0   54.88    1.91
   5   1   0   51.49    1.86
  -5   1   0   56.81    2.11
  -5   1   0   53.75    1.84
   5   1   0   52.80    2.02
  -6  -1   0    0.37    0.18
  -6  -1   0    0.52    0.13
   6  -1   0    0.24    0.21
   6  -1   0    0.46    0.15
   6  -1   0    0.20    0.16
  -6   1   0    0.47    0.15
  -6   1   0    0.54    0.17
   6   1   0    0.27    0.15
   6   1   0    0.15    0.19
   6   1   0    0.16    0.17
   6   1   0    0.05    0.25
   7  -1   0    1.36    0.21
   7  -1   0    0.93    0.21
   7  -1   0    0.97    0.24
   7  -1   0    1.07    0.30
  -7  -1   0    1.30    0.20
   7   1   0    1.42    0.29
   7   1   0    0.90    0.20
  -7   1   0    1.39    0.24
   7   1   0    1.21    0.34
  -7   1   0    1.21    0.21
   8  -1   0    3.59    0.34
   8  -1   0    3.16    0.39
  -8  -1   0    2.58    0.32
   8  -1   0    3.13    0.44
  -8   1   0    3.73    0.37
   8   1   0    3.39    0.44
   8   1   0    3.60    0.35
   8   1   0    2.81    0.43
  -8   1   0    3.50    0.32
  -9  -1   0   14.45    0.72
   9  -1   0   13.83    0.69
   9  -1   0   14.59    0.89
   9  -1   0   12.75    0.86
   9   1   0   14.77    0.76
   9   1   0   14.74    0.94
   9   1   0   12.95    0.93
  -9   1   0   15.05    0.69
  10  -1   0   10.59    0.80
  10  -1   0    9.91    0.80
 -10  -1   0   10.11    0.58
  10   1   0    9.83    0.84
  10   1   0    9.31    0.84
 -10   1   0    9.85    0.60
 -11  -1   0    6.05    0.56
  11  -1   0    7.18    0.75
  11  -1   0    6.19    0.68
 -11   1   0    6.18    0.53
  11   1   0    5.24    0.71
  11   1   0    5.02    0.69
  12  -1   0    5.61    0.69
 -12  -1   0    5.84    0.56
 -12   1   0    5.39    0.53
  12   1   0    4.07    0.67
  12   1   0    5.27    0.74
  13  -1   0    1.14    0.50
 -13  -1   0    0.76    0.36
 -13   1   0    1.31    0.37
  13   1   0    1.86    0.56
   0  -2   0   22.17    0.81
   0  -2   0   24.17    0.84
   0  -2   0   21.69    0.76
   0  -2   0   22.91    0.90
   0   2   0   23.62    0.77
   0   2   0   22.83    0.81
   0   2   0   22.52    0.83
   0   2   0   22.85    0.89
  -1  -2   0  127.25    3.95
  -1  -2   0  125.70    4.17
   1  -2   0  124.46    3.91
   1  -2   0  127.50    3.92
   1  -2   0  122.28    4.12
  -1  -2   0  119.77    4.53
  -1  -2   0  120.95    4.13
  -1  -2   0  120.70    3.93
   1   2   0  125.92    4.13
  -1   2   0  121.00    3.91
  -1   2   0  122.92    4.12
   1   2   0  120.36    4.53
   1   2   0  119.29    4.17
   1   2   0  123.55    3.95
   1   2   0  119.20    3.92
  -2  -2   0   55.59    1.79
   2  -2   0   54.26    1.84
  -2  -2   0   53.20    1.75
  -2  -2   0   53.36    1.90
  -2  -2   0   52.41    2.05
   2  -2   0   54.32    1.73
  -2  -2   0   52.76    1.84
   2  -2   0   55.17    1.73
  -2   2   0   54.29    1.74
  -2   2   0   51.78    1.83
   2   2   0   54.48    1.84
   2   2   0   50.71    2.06
   2   2   0   52.91    1.75
   2   2   0   53.87    1.79
   2   2   0   51.73    1.90
  -2   2   0   53.08    1.73
  -3  -2   0   25.13    0.87
   3  -2   0   25.98    0.84
  -3  -2   0   25.42    0.99
  -3  -2   0   25.59    0.92
  -3  -2   0   24.78    1.05
   3  -2   0   24.12    0.92
   3  -2   0   24.91    0.96
   3  -2   0   24.67    0.85
  -3  -2   0   24.32    0.91
   3   2   0   23.36    0.99
   3   2   0   25.25    0.91
   3   2   0   24.80    1.07
  -3   2   0   25.07    0.85
   3   2   0   25.16    0.87
  -3   2   0   24.18    0.91
   3   2   0   22.46    0.90
  -3   2   0   24.18    0.85
   4  -2   0   16.17    0.56
   4  -2   0   14.80    0.56
   4  -2   0   15.32    0.64
   4  -2   0   14.51    0.65
  -4  -2   0   15.07    0.65
  -4  -2   0   14.96    0.74
  -4  -2   0   14.17    0.58
   4   2   0   15.96    0.62
  -4   2   0   15.02    0.56
  -4   2   0   15.01    0.58
   4   2   0   14.64    0.64
  -4   2   0   14.00    0.62
   4   2   0   14.89    0.74
   4   2   0   13.23    0.71
   5  -2   0   33.69    1.20
  -5  -2   0   33.64    1.21
   5  -2   0   34.07    1.38
   5  -2   0   34.03    1.32
  -5  -2   0   34.94    1.28
   5   2   0   35.23    1.27
   5   2   0   35.05    1.28
  -5   2   0   34.42    1.19
  -5   2   0   32.43    1.21
   5   2   0   33.84    1.49
   5   2   0   32.30    1.39
  -5   2   0   35.80    1.37
   6  -2   0   24.10    0.89
   6  -2   0   22.57    1.00
   6  -2   0   23.77    1.04
  -6  -2   0   22.18    0.89
   6   2   0   23.41    0.95
   6   2   0   21.59    1.05
  -6   2   0   23.33    0.88
  -6   2   0   25.32    1.02
  -6   2   0   24.16    0.91
   6   2   0   23.21    1.13
  -7  -2   0    0.61    0.22
   7  -2   0    0.89    0.21
   7  -2   0    0.78    0.27
   7  -2   0    1.04    0.20
   7   2   0    0.84    0.25
  -7   2   0    0.97    0.19
   7   2   0    1.26    0.23
  -7   2   0    1.29    0.22
   7   2   0    0.78    0.28
   8  -2   0   12.02    0.57
  -8  -2   0   11.39    0.60
   8  -2   0   11.51    0.72
   8  -2   0   11.95    0.70
  -8   2   0   12.35    0.58
   8   2   0   11.12    0.82
   8   2   0   11.62    0.66
   8   2   0   11.58    0.83
  -8   2   0   10.75    0.59
  -9  -2   0    9.07    0.54
   9  -2   0   10.08    0.55
   9  -2   0    9.84    0.71
   9  -2   0    9.72    0.69
   9   2   0   10.17    0.82
   9   2   0    8.94    0.62
   9   2   0    8.05    0.80
  -9   2   0    9.69    0.54
 -10  -2   0    0.47    0.22
  10  -2   0    0.49    0.37
  10  -2   0    0.55    0.31
  10   2   0    0.67    0.39
  10   2   0    0.40    0.44
  10   2   0    0.46    0.28
 -10   2   0    0.33    0.24
 -11  -2   0    0.08    0.32
  11  -2   0   -0.40    0.35
  11   2   0    0.50    0.39
  11   2   0    0.39    0.43
 -11   2   0    0.16    0.28
  12  -2   0    2.94    0.55
 -12  -2   0    3.13    0.47
  12   2   0    2.91    0.65
 -12   2   0    2.80    0.41
  12   2   0    2.61    0.61
  13  -2   0    5.39    0.69
 -13  -2   0    4.78    0.57
  13   2   0    6.72    0.87
 -13   2   0    4.10    0.52
   0  -3   0    0.03    0.08
   0  -3   0   -0.09    0.06
   0  -3   0   -0.07    0.07
   0  -3   0   -0.01    0.09
   0   3   0    0.11    0.09
   0   3   0   -0.07    0.10
   0   3   0    0.03    0.06
   0   3   0   -0.01    0.05
   0   3   0   -0.04    0.07
  -1  -3   0  130.91    4.51
  -1  -3   0  138.33    4.33
  -1  -3   0  128.78    4.95
  -1  -3   0  136.51    4.56
   1  -3   0  131.51    4.50
   1  -3   0  140.64    4.29
   1  -3   0  130.64    4.27
   1  -3   0  136.24    4.89
  -1  -3   0  128.80    4.29
   1   3   0  138.47    4.33
  -1   3   0  139.77    4.52
   1   3   0  127.11    4.95
   1   3   0  126.14    4.56
  -1   3   0  132.42    4.50
   1   3   0  134.33    4.29
   1   3   0  134.11    4.51
  -1   3   0  135.97    4.27
  -2  -3   0   81.62    2.82
   2  -3   0   85.19    2.66
   2  -3   0   85.53    2.81
  -2  -3   0   79.94    2.68
  -2  -3   0   83.69    2.73
  -2  -3   0   82.68    3.14
  -2  -3   0   84.92    2.90
   2  -3   0   82.70    2.66
  -2   3   0   82.13    2.67
   2   3   0   82.63    2.83
  -2   3   0   78.68    2.66
   2   3   0   83.43    2.69
   2   3   0   82.07    3.14
   2   3   0   83.31    2.73
  -2   3   0   81.16    2.81
   2   3   0   80.20    2.90
  -3  -3   0   30.42    1.16
  -3  -3   0   30.96    1.10
  -3  -3   0   32.41    1.25
   3  -3   0   31.55    1.07
   3  -3   0   32.00    1.21
   3  -3   0   32.99    1.07
  -3  -3   0   31.16    1.35
  -3  -3   0   32.69    1.17
   3  -3   0   32.70    1.16
   3   3   0   32.78    1.17
   3   3   0   31.90    1.11
  -3   3   0   30.37    1.08
   3   3   0   31.02    1.34
   3   3   0   31.48    1.25
   3   3   0   31.66    1.16
  -3   3   0   32.37    1.08
  -3   3   0   32.34    1.15
   4  -3   0  144.32    5.12
   4  -3   0  139.22    4.48
  -4  -3   0  139.68    4.75
   4  -3   0  141.43    4.75
  -4  -3   0  138.99    4.52
  -4  -3   0  142.35    4.58
  -4   3   0  132.21    4.74
   4   3   0  145.56    4.76
  -4   3   0  141.17    4.49
  -4   3   0  132.10    4.49
   4   3   0  134.48    4.85
   4   3   0  136.92    5.27
   4   3   0  139.33    4.58
   5  -3   0   66.23    2.39
   5  -3   0   62.46    2.08
   5  -3   0   62.95    2.25
  -5  -3   0   62.00    2.12
  -5   3   0   60.95    2.10
   5   3   0   64.00    2.20
   5   3   0   60.74    2.53
   5   3   0   59.97    2.36
  -5   3   0   63.04    2.09
   6  -3   0   65.72    2.34
  -6  -3   0   63.34    2.19
   6  -3   0   65.09    2.48
   6  -3   0   64.03    2.15
  -6   3   0   61.57    2.17
   6   3   0   66.36    2.28
  -6   3   0   64.27    2.15
   6   3   0   62.37    2.64
   6   3   0   62.77    2.45
  -7  -3   0    3.71    0.31
   7  -3   0    4.02    0.31
   7  -3   0    3.98    0.35
   7  -3   0    4.13    0.41
  -7   3   0    3.91    0.30
   7   3   0    3.62    0.46
   7   3   0    3.77    0.46
  -7   3   0    3.78    0.31
   7   3   0    3.85    0.42
   8  -3   0   -0.05    0.18
   8  -3   0   -0.12    0.26
   8  -3   0    0.26    0.20
  -8  -3   0    0.30    0.18
  -8   3   0    0.24    0.19
   8   3   0    0.53    0.23
   8   3   0    0.26    0.24
   8   3   0   -0.21    0.27
   9  -3   0    0.47    0.31
  -9  -3   0    0.34    0.21
   9  -3   0    0.26    0.24
   9   3   0   -0.01    0.31
   9   3   0    0.39    0.23
   9   3   0    0.31    0.36
  -9   3   0    0.30    0.22
 -10  -3   0    0.47    0.24
  10  -3   0    0.02    0.32
  10   3   0    0.32    0.23
 -10   3   0   -0.40    0.21
  10   3   0   -0.12    0.45
  10   3   0   -0.42    0.38
  11  -3   0   12.94    0.88
 -11  -3   0   11.76    0.70
  11   3   0   13.31    1.09
  11   3   0   11.69    1.05
 -11   3   0   12.64    0.70
  12  -3   0    0.48    0.38
 -12  -3   0    0.57    0.37
  12   3   0    0.69    0.57
 -12   3   0   -0.30    0.27
  12   3   0   -0.48    0.43
  13  -3   0   10.83    0.87
 -13  -3   0    9.42    0.77
  13   3   0    7.10    0.94
 -13   3   0    8.00    0.65
  13   3   0    8.21    0.95
   0  -4   0  204.55    6.47
   0  -4   0  186.26    6.09
   0  -4   0  191.02    6.41
   0  -4   0  187.88    7.00
   0   4   0  180.92    6.45
   0   4   0  192.40    6.41
   0   4   0  185.49    7.00
   0   4   0  191.66    6.13
   0   4   0  193.74    6.09
   1  -4   0  109.63    3.96
  -1  -4   0  104.44    3.64
  -1  -4   0  111.28    3.71
  -1  -4   0  113.27    3.52
   1  -4   0  106.33    3.45
  -1  -4   0  106.73    4.02
  -1  -4   0  108.99    3.47
   1  -4   0  105.67    3.63
   1   4   0  106.32    3.47
   1   4   0  108.42    3.65
   1   4   0  101.36    3.71
   1   4   0  106.05    3.51
  -1   4   0  105.28    3.63
  -1   4   0  105.35    3.66
  -1   4   0  106.45    3.45
  -2  -4   0    2.79    0.22
   2  -4   0    2.86    0.19
   2  -4   0    2.72    0.16
  -2  -4   0    3.08    0.23
  -2  -4   0    2.84    0.21
  -2  -4   0    2.99    0.29
   2  -4   0    2.68    0.16
  -2  -4   0    3.28    0.27
   2   4   0    2.82    0.27
  -2   4   0    2.84    0.19
  -2   4   0    3.05    0.22
   2   4   0    2.78    0.20
   2   4   0    3.01    0.31
   2   4   0    2.75    0.23
  -2   4   0    2.80    0.16
   2   4   0    2.95    0.21
  -3  -4   0   11.79    0.50
  -3  -4   0   12.23    0.53
   3  -4   0   12.09    0.51
   3  -4   0   12.24    0.45
  -3  -4   0   12.59    0.55
   3  -4   0   11.73    0.45
  -3   4   0   11.08    0.49
  -3   4   0   11.14    0.45
   3   4   0   11.23    0.60
   3   4   0   11.12    0.56
   3   4   0   12.59    0.68
  -3   4   0   11.90    0.47
   4  -4   0    3.53    0.27
  -4  -4   0    3.61    0.29
   4  -4   0    3.28    0.20
  -4  -4   0    3.45    0.28
   4  -4   0    3.80    0.22
   4   4   0    3.42    0.30
  -4   4   0    3.29    0.23
  -4   4   0    3.13    0.22
   4   4   0    3.49    0.40
   4   4   0    3.41    0.36
   5  -4   0   46.75    1.75
   5  -4   0   46.56    1.67
   5  -4   0   46.11    1.54
  -5  -4   0   44.42    1.60
  -5  -4   0   46.40    1.67
   5   4   0   43.87    1.94
   5   4   0   45.25    1.68
  -5   4   0   46.50    1.56
   5   4   0   43.36    1.80
  -5   4   0   43.96    1.56
   6  -4   0   16.12    0.72
   6  -4   0   16.22    0.74
   6  -4   0   15.96    0.64
  -6  -4   0   15.66    0.68
   6   4   0   15.96    0.95
  -6   4   0   15.63    0.65
   6   4   0   15.34    0.75
  -6   4   0   16.05    0.66
   6   4   0   16.11    0.92
  -7  -4   0   17.09    0.78
   7  -4   0   18.35    0.81
   7  -4   0   17.41    0.82
   7  -4   0   17.24    0.70
  -7   4   0   18.56    0.73
   7   4   0   14.83    0.99
   7   4   0   16.77    0.86
  -7   4   0   17.43    0.73
   7   4   0   16.82    1.00
   8  -4   0   12.07    0.65
   8  -4   0   11.38    0.70
   8  -4   0   11.45    0.54
  -8  -4   0   10.56    0.64
  -8   4   0   12.17    0.57
   8   4   0   11.52    0.67
   8   4   0   12.19    0.84
   8   4   0   10.48    0.88
  -9  -4   0    4.67    0.46
   9  -4   0    4.43    0.45
   9  -4   0    5.04    0.51
   9   4   0    4.60    0.58
   9   4   0    4.63    0.49
   9   4   0    4.20    0.68
  -9   4   0    5.20    0.41
 -10  -4   0    1.20    0.35
  10  -4   0    1.31    0.37
  10   4   0    0.78    0.37
  10   4   0    0.83    0.53
 -10   4   0    1.18    0.32
  10   4   0    0.86    0.36
  11  -4   0    1.69    0.43
 -11  -4   0    1.09    0.38
  11   4   0    1.24    0.57
  11   4   0    0.47    0.50
 -11   4   0    0.72    0.29
  12  -4   0    1.51    0.46
 -12  -4   0    1.02    0.40
  12   4   0    0.49    0.45
 -12   4   0    1.49    0.33
  12   4   0    0.06    0.53
  13  -4   0    0.56    0.43
 -13  -4   0    0.12    0.39
  13   4   0   -0.74    0.36
 -13   4   0    0.03    0.28
   0  -5   0    0.03    0.11
   0  -5   0   -0.14    0.09
   0  -5   0   -0.15    0.11
   0  -5   0   -0.05    0.13
   0   5   0   -0.06    0.09
   0   5   0    0.16    0.13
   0   5   0   -0.16    0.14
   0   5   0   -0.18    0.10
   0   5   0   -0.08    0.07
  -1  -5   0    1.37    0.20
  -1  -5   0    1.16    0.17
   1  -5   0    1.45    0.17
  -1  -5   0    1.21    0.20
  -1  -5   0    1.16    0.15
   1  -5   0    0.86    0.12
   1  -5   0    1.08    0.11
   1   5   0    1.15    0.22
  -1   5   0    0.98    0.13
   1   5   0    1.32    0.19
   1   5   0    1.27    0.15
   1   5   0    0.93    0.18
  -1   5   0    1.19    0.15
  -1   5   0    1.24    0.16
   2  -5   0    0.96    0.13
  -2  -5   0    0.72    0.15
   2  -5   0    0.92    0.13
   2  -5   0    0.48    0.13
  -2  -5   0    0.52    0.17
   2  -5   0    0.59    0.11
  -2  -5   0    0.56    0.13
   2   5   0    0.60    0.16
   2   5   0    0.83    0.13
  -2   5   0    0.65    0.12
  -2   5   0    0.65    0.15
   2   5   0    0.59    0.18
  -2   5   0    0.65    0.11
   2   5   0    0.96    0.22
   3  -5   0  105.78    3.44
  -3  -5   0  106.44    3.49
   3  -5   0  108.92    3.65
  -3  -5   0  104.84    3.67
  -3   5   0  100.76    3.44
  -3   5   0  115.83    3.67
   3   5   0  108.49    4.11
   3   5   0   99.70    3.77
   3   5   0  105.70    3.56
   4  -5   0   28.41    1.06
   4  -5   0   27.88    0.96
  -4  -5   0   26.27    1.01
   4  -5   0   28.10    1.04
  -4  -5   0   27.29    1.08
   4   5   0   27.20    1.10
  -4   5   0   27.69    0.98
  -4   5   0   26.13    0.96
   4   5   0   26.77    1.21
   4   5   0   26.28    1.27
  -5  -5   0    7.61    0.41
   5  -5   0    7.94    0.37
   5  -5   0    7.38    0.36
  -5  -5   0    7.11    0.43
   5  -5   0    7.86    0.44
  -5   5   0    7.52    0.38
   5   5   0    6.76    0.54
   5   5   0    7.24    0.51
  -5   5   0    7.46    0.40
   5   5   0    8.35    0.64
   6  -5   0    4.07    0.35
  -6  -5   0    4.06    0.37
  -6  -5   0    4.10    0.33
   6  -5   0    4.31    0.28
   6  -5   0    4.33    0.26
   6   5   0    3.48    0.45
  -6   5   0    4.49    0.31
   6   5   0    4.18    0.54
   6   5   0    3.40    0.42
  -6   5   0    4.09    0.29
  -7  -5   0    0.06    0.18
   7  -5   0   -0.02    0.14
   7  -5   0   -0.10    0.23
   7  -5   0    0.26    0.13
   7   5   0   -0.42    0.38
   7   5   0   -0.06    0.22
  -7   5   0    0.18    0.15
  -7   5   0    0.15    0.17
   7   5   0    0.02    0.34
   8  -5   0    2.71    0.29
   8  -5   0    3.64    0.41
  -8  -5   0    3.24    0.35
   8   5   0    2.92    0.46
   8   5   0    3.04    0.60
  -8   5   0    3.63    0.34
   8   5   0    2.08    0.42
   9  -5   0   15.11    0.81
  -9  -5   0   13.38    0.73
   9   5   0   15.14    0.89
   9   5   0   14.75    1.09
  -9   5   0   14.11    0.69
   9   5   0   13.51    1.07
  10  -5   0    1.85    0.41
 -10  -5   0    1.70    0.33
 -10   5   0    1.62    0.30
  10   5   0    1.03    0.51
  10   5   0    2.00    0.60
  10   5   0    2.08    0.46
  11  -5   0    1.55    0.40
 -11  -5   0    0.84    0.30
 -11   5   0    1.55    0.35
  11   5   0    0.83    0.57
  11   5   0    0.26    0.49
  12  -5   0    1.96    0.48
 -12  -5   0    1.45    0.37
 -12   5   0    1.65    0.36
  12   5   0    0.80    0.50
  12   5   0    1.61    0.54
  13  -5   0    1.30    0.47
 -13   5   0    1.20    0.35
  13   5   0   -1.26    0.54
   0  -6   0    0.01    0.13
   0  -6   0   -0.10    0.10
   0  -6   0   -0.16    0.15
   0  -6   0   -0.10    0.13
   0   6   0    0.10    0.17
   0   6   0    0.02    0.08
   0   6   0    0.12    0.15
   0   6   0    0.03    0.11
   1  -6   0    0.69    0.15
  -1  -6   0    0.59    0.14
   1  -6   0    0.73    0.13
   1  -6   0    0.63    0.16
  -1  -6   0    0.82    0.22
  -1  -6   0    0.64    0.16
  -1   6   0    0.73    0.18
   1   6   0    0.54    0.14
   1   6   0    0.72    0.20
   1   6   0    0.68    0.24
   1   6   0    0.51    0.20
  -1   6   0    0.75    0.11
   2  -6   0   49.76    1.75
   2  -6   0   52.75    1.91
  -2  -6   0   48.05    1.68
   2  -6   0   48.45    1.64
  -2  -6   0   49.57    1.78
  -2   6   0   48.83    1.78
   2   6   0   48.19    1.88
   2   6   0   47.39    1.76
   2   6   0   48.73    2.03
  -2   6   0   48.40    1.65
  -3  -6   0   24.07    0.99
   3  -6   0   27.44    1.01
   3  -6   0   25.03    0.96
  -3  -6   0   24.35    0.94
   3  -6   0   24.72    0.88
  -3   6   0   26.03    0.98
   3   6   0   24.45    1.01
   3   6   0   24.67    1.13
   3   6   0   23.90    1.17
  -3   6   0   24.04    0.89
   4  -6   0    0.14    0.14
   4  -6   0    0.33    0.10
  -4  -6   0    0.09    0.15
  -4  -6   0    0.47    0.19
   4   6   0   -0.39    0.21
  -4   6   0    0.38    0.16
   4   6   0   -0.11    0.22
  -4   6   0    0.28    0.13
   4   6   0    0.35    0.21
   5  -6   0    8.83    0.40
   5  -6   0    8.95    0.49
  -5  -6   0    8.41    0.47
   5  -6   0    9.85    0.42
  -5  -6   0    9.58    0.54
   5   6   0    8.49    0.70
   5   6   0    8.66    0.60
   5   6   0    9.77    0.68
  -5   6   0    9.33    0.46
  -5   6   0    8.15    0.41
  -6  -6   0    2.93    0.35
   6  -6   0    3.24    0.32
  -6  -6   0    2.64    0.35
   6  -6   0    3.11    0.21
   6  -6   0    2.82    0.24
  -6   6   0    3.41    0.29
   6   6   0    3.42    0.46
   6   6   0    2.26    0.50
   6   6   0    3.42    0.40
  -6   6   0    3.05    0.25
   7  -6   0    3.02    0.28
   7  -6   0    3.54    0.26
  -7  -6   0    3.63    0.36
  -7  -6   0    3.52    0.36
   7  -6   0    3.55    0.37
   7   6   0    2.73    0.56
   7   6   0    3.46    0.47
   7   6   0    2.35    0.52
  -7   6   0    4.30    0.33
  -8  -6   0    8.57    0.55
   8  -6   0    9.73    0.62
   8   6   0    8.86    0.64
  -8   6   0    8.74    0.53
   8   6   0    8.62    0.78
   8   6   0    8.61    0.87
  -9  -6   0    0.78    0.28
   9  -6   0    0.94    0.31
   9   6   0    0.88    0.55
  -9   6   0    1.02    0.26
   9   6   0    0.88    0.40
   9   6   0    0.43    0.46
 -10  -6   0    0.05    0.26
  10  -6   0    1.11    0.34
  10   6   0    1.01    0.43
  10   6   0    0.21    0.54
  10   6   0    0.54    0.53
 -10   6   0    0.97    0.27
  11  -6   0   -0.18    0.29
 -11  -6   0    0.07    0.26
 -11   6   0   -0.30    0.23
  11   6   0   -0.95    0.48
  11   6   0   -0.17    0.52
 -12  -6   0   -0.12    0.28
  12  -6   0    0.05    0.36
  12   6   0   -0.72    0.55
  12   6   0   -0.15    0.41
 -12   6   0    0.09    0.30
  13  -6   0    1.97    0.46
 -13   6   0    1.47    0.37
  13   6   0   -0.05    0.65
   0  -7   0   -0.51    0.16
   0  -7   0   -0.46    0.12
   0   7   0   -0.29    0.19
   0   7   0   -0.17    0.15
   0   7   0   -0.51    0.16
   1  -7   0    0.18    0.15
   1  -7   0    0.08    0.15
  -1  -7   0    0.17    0.12
   1  -7   0    0.28    0.10
  -1  -7   0    0.23    0.14
   1   7   0   -0.18    0.22
  -1   7   0    0.41    0.20
  -1   7   0    0.37    0.11
   1   7   0   -0.01    0.20
   1   7   0    0.35    0.21
  -2  -7   0    2.19    0.22
   2  -7   0    2.22    0.23
  -2  -7   0    1.82    0.22
   2  -7   0    2.36    0.20
   2  -7   0    1.94    0.24
   2   7   0    2.18    0.31
  -2   7   0    2.43    0.21
   2   7   0    2.29    0.32
  -2   7   0    2.07    0.26
   2   7   0    2.15    0.31
   3  -7   0    1.86    0.21
  -3  -7   0    2.41    0.24
  -3  -7   0    2.25    0.25
   3  -7   0    2.46    0.24
   3  -7   0    2.35    0.19
   3   7   0    1.81    0.38
   3   7   0    1.87    0.37
   3   7   0    1.85    0.28
  -3   7   0    2.13    0.20
  -3   7   0    2.24    0.25
   4  -7   0   17.50    0.74
  -4  -7   0   17.25    0.77
  -4  -7   0   16.67    0.73
   4  -7   0   17.55    0.67
   4   7   0   17.97    1.01
  -4   7   0   16.37    0.67
   4   7   0   16.83    0.82
   4   7   0   16.42    0.95
  -4   7   0   18.50    0.76
   5  -7   0    0.40    0.18
  -5  -7   0    0.43    0.25
   5  -7   0    0.35    0.14
   5  -7   0    0.39    0.09
   5  -7   0    0.16    0.10
  -5  -7   0    0.12    0.23
  -5   7   0    0.29    0.15
  -5   7   0    0.42    0.18
   5   7   0    0.10    0.30
   5   7   0    0.27    0.25
   5   7   0    0.18    0.27
   6  -7   0   12.82    0.56
   6  -7   0   13.06    0.65
  -6  -7   0   14.63    0.73
   6  -7   0   13.21    0.55
  -6  -7   0   12.67    0.69
   6   7   0   12.39    0.74
   6   7   0   12.22    0.84
  -6   7   0   13.13    0.58
   6   7   0   13.08    0.90
  -7  -7   0    2.63    0.33
  -7  -7   0    2.64    0.33
   7  -7   0    2.62    0.33
  -7   7   0    2.68    0.31
   7   7   0    1.85    0.45
   7   7   0    2.01    0.52
   7   7   0    2.27    0.45
  -8  -7   0    2.65    0.36
   8  -7   0    3.97    0.43
  -8   7   0    3.30    0.34
   8   7   0    3.80    0.48
   8   7   0    2.66    0.53
   8   7   0    2.48    0.51
   9  -7   0    4.26    0.46
  -9  -7   0    3.05    0.41
  -9   7   0    4.60    0.42
   9   7   0    3.90    0.64
   9   7   0    4.02    0.52
   9   7   0    3.82    0.68
 -10  -7   0    3.72    0.45
  10  -7   0    3.09    0.47
  10   7   0    2.93    0.72
 -10   7   0    3.43    0.41
  10   7   0    2.70    0.68
  10   7   0    3.09    0.56
  11  -7   0    0.42    0.37
 -11  -7   0    0.33    0.29
 -11   7   0    0.77    0.31
  11   7   0   -0.36    0.54
  11   7   0   -0.05    0.58
  12  -7   0    2.24    0.48
 -12  -7   0    2.04    0.42
  12   7   0    2.14    0.75
  12   7   0    1.09    0.69
 -12   7   0    2.68    0.40
   0  -8   0   93.23    3.11
   0  -8   0   95.52    3.29
   0   8   0   94.10    3.20
   0   8   0   96.56    3.64
   0   8   0   89.54    3.37
   0   8   0   94.60    3.12
  -1  -8   0    6.36    0.38
   1  -8   0    6.24    0.35
  -1  -8   0    5.67    0.42
   1  -8   0    6.27    0.37
   1   8   0    5.80    0.46
   1   8   0    6.50    0.43
  -1   8   0    6.12    0.45
   1   8   0    6.59    0.53
  -1   8   0    5.89    0.39
  -1   8   0    6.34    0.36
   2  -8   0   29.23    1.20
   2  -8   0   27.72    1.08
   2  -8   0   28.22    1.00
  -2  -8   0   26.35    1.10
  -2  -8   0   26.74    1.05
  -2   8   0   27.55    1.01
   2   8   0   27.76    1.15
  -2   8   0   27.86    1.13
   2   8   0   26.10    1.21
   2   8   0   27.66    1.33
   3  -8   0   11.36    0.57
  -3  -8   0   11.50    0.61
   3  -8   0   11.01    0.48
   3  -8   0   10.57    0.54
  -3  -8   0   10.44    0.52
   3   8   0   10.13    0.66
  -3   8   0   10.64    0.48
   3   8   0   11.23    0.73
  -3   8   0   10.34    0.56
   3   8   0   10.04    0.74
  -4  -8   0    2.63    0.34
   4  -8   0    2.47    0.28
   4  -8   0    2.70    0.22
  -4  -8   0    2.48    0.32
   4  -8   0    2.56    0.24
  -4   8   0    2.93    0.31
   4   8   0    2.40    0.35
   4   8   0    2.73    0.42
   4   8   0    2.87    0.50
  -4   8   0    2.78    0.24
   5  -8   0    0.11    0.13
  -5  -8   0   -0.04    0.19
  -5  -8   0   -0.10    0.27
   5  -8   0   -0.19    0.10
   5  -8   0    0.46    0.20
  -5   8   0    0.15    0.14
  -5   8   0    0.32    0.19
   5   8   0    0.29    0.38
   5   8   0    0.16    0.42
   5   8   0   -0.25    0.23
   6  -8   0    5.63    0.43
  -6  -8   0    6.02    0.53
  -6  -8   0    5.28    0.44
   6  -8   0    5.31    0.33
  -6   8   0    5.78    0.44
   6   8   0    4.71    0.65
   6   8   0    5.47    0.71
   6   8   0    6.07    0.60
  -7  -8   0    3.81    0.41
   7  -8   0    4.23    0.41
  -7  -8   0    4.93    0.48
   7   8   0    3.15    0.62
   7   8   0    3.95    0.50
   7   8   0    3.51    0.66
  -8  -8   0   14.53    0.81
   8  -8   0   13.97    0.77
   8   8   0   12.36    0.83
   8   8   0   13.11    1.03
   8   8   0   13.06    1.09
   9  -8   0    0.86    0.35
  -9  -8   0    0.68    0.39
   9   8   0    0.68    0.54
   9   8   0    0.48    0.58
   9   8   0    0.25    0.41
  -9   8   0    1.14    0.27
  10  -8   0    1.80    0.38
 -10  -8   0    1.44    0.44
 -10   8   0    2.07    0.35
  10   8   0    1.18    0.50
  10   8   0    2.03    0.53
  10   8   0    1.59    0.58
  11  -8   0   -0.71    0.32
 -11  -8   0   -0.51    0.36
 -11   8   0    0.10    0.27
  11   8   0   -0.02    0.43
  11   8   0    0.63    0.49
  11   8   0   -0.60    0.39
  12  -8   0    0.12    0.37
  12   8   0   -0.94    0.40
 -12   8   0    1.00    0.32
   0  -9   0    0.36    0.21
   0  -9   0   -0.14    0.16
   0   9   0    0.07    0.24
   0   9   0   -0.26    0.22
  -1  -9   0   17.97    0.80
  -1  -9   0   18.08    0.75
   1  -9   0   17.59    0.72
   1  -9   0   18.69    0.81
  -1   9   0   17.44    0.73
  -1   9   0   16.97    0.86
   1   9   0   19.06    0.87
   1   9   0   18.15    0.95
   1   9   0   17.80    0.94
  -1   9   0   19.04    0.83
   2  -9   0   47.07    1.73
  -2  -9   0   46.76    1.67
   2  -9   0   47.18    1.62
  -2  -9   0   44.78    1.75
   2   9   0   46.12    1.78
  -2   9   0   44.91    1.78
  -2   9   0   47.44    1.63
   2   9   0   47.96    2.05
   2   9   0   45.61    1.90
  -3  -9   0    0.43    0.27
   3  -9   0    0.07    0.14
   3  -9   0    0.23    0.20
   3  -9   0    0.22    0.16
  -3  -9   0    0.44    0.18
   3   9   0    0.20    0.36
  -3   9   0    0.35    0.15
  -3   9   0    0.05    0.19
   3   9   0   -0.31    0.29
   3   9   0   -0.16    0.30
   4  -9   0   29.82    1.22
   4  -9   0   30.58    1.08
   4  -9   0   29.40    1.17
  -4  -9   0   30.69    1.19
  -4  -9   0   27.76    1.21
   4   9   0   28.01    1.42
  -4   9   0   27.56    1.08
  -4   9   0   29.24    1.19
   4   9   0   27.50    1.25
   4   9   0   30.28    1.54
   5  -9   0   21.29    0.82
  -5  -9   0   21.67    0.97
   5  -9   0   21.82    0.94
  -5  -9   0   21.25    0.96
   5   9   0   19.32    1.20
   5   9   0   19.93    1.20
  -5   9   0   19.45    0.90
   5   9   0   20.54    1.09
  -6  -9   0    0.70    0.33
   6  -9   0    0.65    0.24
  -6  -9   0    1.01    0.27
   6   9   0    0.22    0.49
   6   9   0    0.48    0.46
   6   9   0    0.88    0.33
  -7  -9   0    4.34    0.45
   7  -9   0    5.26    0.49
  -7  -9   0    5.87    0.58
   7   9   0    4.30    0.74
   7   9   0    4.96    0.57
   7   9   0    5.36    0.75
  -8  -9   0    0.71    0.36
   8  -9   0    0.24    0.26
  -8  -9   0    0.05    0.25
   8   9   0   -0.02    0.35
   8   9   0    0.40    0.44
   8   9   0    0.22    0.41
  -9  -9   0    0.62    0.30
   9  -9   0    0.27    0.28
   9   9   0    0.65    0.47
   9   9   0    0.17    0.56
   9   9   0    0.98    0.49
  10  -9   0    0.21    0.32
 -10  -9   0   -0.13    0.29
  10   9   0    0.40    0.47
  10   9   0   -0.23    0.41
  10   9   0   -0.24    0.41
 -11  -9   0    0.19    0.41
  11  -9   0   -0.30    0.29
  11   9   0    0.73    0.48
  11   9   0   -0.11    0.64
  11   9   0   -1.03    0.39
   0 -10   0    9.70    0.51
   0 -10   0    9.32    0.56
   0  10   0    8.84    0.61
   0  10   0    8.66    0.65
  -1 -10   0   23.29    1.01
   1 -10   0   23.06    0.90
   1 -10   0   22.95    0.96
  -1 -10   0   21.84    0.90
  -1  10   0   20.92    0.96
   1  10   0   22.70    1.05
  -1  10   0   22.66    1.06
   1  10   0   23.42    1.18
   1  10   0   21.37    1.11
  -2 -10   0    5.19    0.51
  -2 -10   0    5.10    0.38
   2 -10   0    5.69    0.44
   2 -10   0    4.90    0.32
   2  10   0    5.12    0.54
   2  10   0    6.21    0.50
  -2  10   0    5.37    0.48
  -2  10   0    5.73    0.47
   2  10   0    5.64    0.60
  -3 -10   0    0.40    0.26
  -3 -10   0    0.28    0.30
   3 -10   0    0.46    0.17
   3 -10   0    0.47    0.23
   3  10   0    0.09    0.28
  -3  10   0    0.17    0.25
  -3  10   0    0.11    0.18
   3  10   0   -0.09    0.33
   3  10   0    0.11    0.35
   4 -10   0    4.17    0.40
   4 -10   0    4.16    0.31
  -4 -10   0    3.92    0.41
  -4 -10   0    4.23    0.44
  -4  10   0    3.78    0.38
   4  10   0    3.50    0.58
   4  10   0    3.82    0.53
   4  10   0    3.23    0.45
  -5 -10   0    8.91    0.63
   5 -10   0    9.54    0.59
  -5 -10   0    8.78    0.61
   5  10   0    8.56    0.76
   5  10   0   10.01    0.83
   5  10   0    8.76    0.87
  -6 -10   0    8.69    0.69
  -6 -10   0    8.60    0.65
   6 -10   0    8.79    0.56
   6  10   0    8.58    0.79
   6  10   0    8.85    0.83
   6  10   0    8.53    0.89
   7 -10   0    1.78    0.32
  -7 -10   0    1.34    0.40
  -7 -10   0    0.94    0.38
   7  10   0    1.75    0.43
   7  10   0    1.29    0.45
   7  10   0    1.30    0.58
   8 -10   0    7.57    0.60
  -8 -10   0    5.74    0.60
  -8 -10   0    7.08    0.59
   8  10   0    7.47    0.70
   8  10   0    6.16    0.79
   8  10   0    7.07    0.85
  -9 -10   0    6.68    0.67
   9 -10   0    7.87    0.64
   9  10   0    6.68    0.85
   9  10   0    6.39    0.71
   9  10   0    5.62    0.90
  10 -10   0    5.28    0.55
 -10 -10   0    5.17    0.64
  10  10   0    6.04    0.94
  10  10   0    4.24    0.77
  10  10   0    5.01    0.66
  11 -10   0    3.90    0.50
 -11 -10   0    4.30    0.62
  11  10   0    4.01    0.68
  11  10   0    2.43    0.84
  11  10   0    3.79    0.90
   0 -11   0   -0.22    0.23
   0 -11   0   -0.11    0.30
   0  11   0   -0.18    0.34
   0  11   0   -0.17    0.32
  -1 -11   0    7.66    0.53
   1 -11   0    8.17    0.56
  -1 -11   0    7.47    0.52
   1 -11   0    7.95    0.48
   1  11   0    7.46    0.70
  -1  11   0    8.43    0.62
  -1  11   0    7.39    0.62
   1  11   0    7.17    0.57
  -2 -11   0    1.84    0.32
   2 -11   0    1.87    0.26
   2 -11   0    2.01    0.33
  -2 -11   0    1.69    0.31
  -2  11   0    2.04    0.35
   2  11   0    1.84    0.39
   2  11   0    1.87    0.45
   2  11   0    1.32    0.40
  -2  11   0    1.92    0.37
   3 -11   0    1.21    0.28
  -3 -11   0    0.81    0.24
  -3 -11   0    0.82    0.35
   3 -11   0    0.84    0.21
  -3  11   0    0.50    0.27
   3  11   0    0.64    0.31
  -3  11   0    1.07    0.29
   3  11   0    0.88    0.35
   3  11   0    0.99    0.45
   4 -11   0   11.14    0.63
  -4 -11   0   11.18    0.68
  -4 -11   0   10.37    0.61
   4  11   0   11.34    0.93
   4  11   0   10.84    0.87
   4  11   0    9.95    0.73
  -5 -11   0    1.58    0.38
  -5 -11   0    2.50    0.44
   5 -11   0    2.08    0.34
   5  11   0    1.47    0.45
   5  11   0    1.65    0.57
   5  11   0    2.13    0.50
   6 -11   0    5.72    0.48
  -6 -11   0    6.07    0.54
  -6 -11   0    5.20    0.55
   6  11   0    4.80    0.68
   6  11   0    4.63    0.75
   6  11   0    6.32    0.72
  -7 -11   0    0.41    0.39
  -7 -11   0    0.06    0.35
   7 -11   0    0.04    0.26
   7  11   0    0.41    0.43
   7  11   0    0.81    0.58
   7  11   0    0.24    0.45
  -8 -11   0    1.32    0.45
  -8 -11   0    0.96    0.43
   8 -11   0    0.59    0.34
   8  11   0    1.17    0.54
   8  11   0    1.00    0.50
   8  11   0    0.70    0.47
  -9 -11   0    1.26    0.46
   9 -11   0    1.39    0.39
   9  11   0    1.15    0.72
   9  11   0    2.20    0.59
   9  11   0    2.66    0.74
 -10 -11   0    0.53    0.35
  10 -11   0    0.92    0.38
  10  11   0    1.05    0.59
  10  11   0    2.20    0.79
  10  11   0    1.13    0.53
  11 -11   0    8.38    0.74
   0 -12   0    6.29    0.48
   0 -12   0    6.36    0.56
   0  12   0    6.78    0.65
   0  12   0    7.42    0.64
  -1 -12   0    4.80    0.46
   1 -12   0    5.46    0.51
  -1 -12   0    4.47    0.45
   1 -12   0    4.59    0.35
   1  12   0    4.95    0.60
   1  12   0    4.64    0.50
  -1  12   0    4.80    0.54
  -1  12   0    4.61    0.51
  -2 -12   0    3.56    0.41
   2 -12   0    3.07    0.40
  -2 -12   0    2.46    0.44
   2 -12   0    3.55    0.34
  -2  12   0    3.82    0.48
   2  12   0    2.77    0.54
   2  12   0    2.82    0.47
   2  12   0    3.68    0.47
  -2  12   0    3.54    0.45
  -3 -12   0    0.90    0.30
  -3 -12   0    1.16    0.33
   3 -12   0    1.00    0.30
   3  12   0    0.73    0.41
   3  12   0    0.83    0.37
  -3  12   0    1.21    0.33
   3  12   0    0.80    0.45
   4 -12   0    4.89    0.47
  -4 -12   0    3.87    0.51
  -4 -12   0    4.67    0.45
   4  12   0    5.37    0.64
   4  12   0    3.84    0.64
  -4  12   0    4.69    0.48
   4  12   0    5.16    0.71
  -5 -12   0    2.64    0.38
  -5 -12   0    1.58    0.44
   5 -12   0    2.48    0.36
   5  12   0    2.47    0.62
   5  12   0    2.31    0.60
   5  12   0    3.01    0.57
  -6 -12   0   -0.09    0.26
  -6 -12   0   -0.04    0.28
   6 -12   0   -0.46    0.23
   6  12   0   -0.10    0.37
   6  12   0   -0.48    0.47
   6  12   0    0.54    0.47
  -7 -12   0    2.23    0.42
   7 -12   0    2.11    0.37
  -7 -12   0    2.02    0.47
   7  12   0    3.75    0.66
   7  12   0    2.71    0.71
   7  12   0    1.99    0.57
  -8 -12   0    0.30    0.42
  -8 -12   0    1.82    0.50
   8 -12   0    1.05    0.35
   8  12   0   -0.08    0.59
   8  12   0    0.85    0.54
   8  12   0    1.34    0.52
   9 -12   0    8.50    0.69
  -9 -12   0    9.80    0.83
   9  12   0    7.14    1.09
   9  12   0    8.46    0.91
   9  12   0    8.75    1.06
  10 -12   0    0.75    0.34
 -10 -12   0    0.76    0.39
  10  12   0    2.16    0.61
  10  12   0    0.82    0.74
   0 -13   0   -0.06    0.22
   0 -13   0    0.01    0.30
   0  13   0   -0.16    0.23
   0  13   0   -0.28    0.32
  -1 -13   0    2.99    0.39
  -1 -13   0    2.71    0.45
   1 -13   0    2.89    0.35
   1 -13   0    3.10    0.38
  -1  13   0    3.00    0.48
  -1  13   0    2.89    0.47
   1  13   0    3.06    0.51
   1  13   0    2.96    0.53
  -2 -13   0    0.44    0.29
   2 -13   0    1.72    0.35
  -2 -13   0    1.72    0.30
  -2  13   0    1.26    0.31
   2  13   0    0.84    0.46
   2  13   0    1.26    0.44
   3 -13   0   12.15    0.71
  -3 -13   0   13.54    0.83
  -3 -13   0   10.03    0.64
  -3  13   0   11.59    0.74
   3  13   0   11.45    1.01
   3  13   0   12.63    0.90
   3  13   0   10.95    0.85
   4 -13   0   10.61    0.65
  -4 -13   0   10.30    0.71
  -4 -13   0   11.15    0.80
  -4  13   0    8.45    0.66
   4  13   0    9.48    1.02
   4  13   0    8.52    0.90
   4  13   0   10.31    0.88
  -5 -13   0    1.77    0.41
   5 -13   0    1.06    0.32
  -5 -13   0    1.90    0.47
   5  13   0    0.58    0.52
  -5  13   0    1.50    0.38
   5  13   0    1.47    0.50
   5  13   0    1.00    0.49
  -6 -13   0    3.84    0.51
  -6 -13   0    3.90    0.48
   6 -13   0    4.38    0.47
   6  13   0    3.28    0.77
   6  13   0    4.43    0.77
   6  13   0    4.56    0.69
   7 -13   0   -0.01    0.28
  -7 -13   0   -0.02    0.39
  -7 -13   0    0.37    0.33
   7  13   0   -0.70    0.56
   7  13   0    0.21    0.51
   7  13   0   -0.38    0.37
  -8 -13   0    0.43    0.46
   8 -13   0    0.42    0.36
  -8 -13   0    0.80    0.46
   8  13   0    0.92    0.56
   8  13   0   -0.25    0.68
   8  13   0    1.09    0.64
   9 -13   0    0.36    0.35
  -9 -13   0    0.72    0.48
   9  13   0    0.96    0.52
   9  13   0    1.61    0.61
   0 -14   0    3.96    0.52
   0  14   0    4.44    0.57
  -1 -14   0    0.47    0.29
  -1 -14   0    0.46    0.37
   1 -14   0    1.15    0.37
   1  14   0    0.82    0.43
   1  14   0    1.04    0.44
  -1  14   0    0.47    0.37
   2 -14   0    0.22    0.30
  -2 -14   0    0.21    0.22
  -2 -14   0    0.05    0.36
   2  14   0   -0.27    0.41
   2  14   0    0.30    0.40
  -2  14   0   -0.03    0.34
  -3 -14   0    0.70    0.34
  -3 -14   0    0.53    0.39
   3 -14   0    0.76    0.32
   3  14   0    0.84    0.46
  -3  14   0    1.03    0.37
   3  14   0    0.49    0.48
   4 -14   0    0.34    0.30
  -4 -14   0   -0.22    0.28
  -4 -14   0    0.55    0.28
   4  14   0   -0.26    0.33
   4  14   0    0.33    0.37
   4  14   0    0.41    0.36
  -4  14   0    0.26    0.32
  -5 -14   0    6.35    0.63
   5 -14   0    6.25    0.57
  -5 -14   0    7.32    0.69
   5  14   0    5.23    0.83
   5  14   0    6.49    0.85
   5  14   0    4.56    0.63
  -5  14   0    7.27    0.66
  -6 -14   0    1.90    0.49
  -6 -14   0    1.48    0.41
   6 -14   0    1.80    0.40
   6  14   0    3.53    0.73
   6  14   0    1.02    0.52
  -6  14   0    2.32    0.44
   6  14   0    0.91    0.43
  -7 -14   0    2.36    0.45
  -7 -14   0    2.38    0.48
   7 -14   0    2.55    0.44
   7  14   0    1.97    0.78
   7  14   0    3.50    0.70
   7  14   0    1.70    0.55
  -7  14   0    1.94    0.41
  -8 -14   0    0.65    0.51
  -8 -14   0   -0.07    0.43
   8 -14   0    0.07    0.33
   8  14   0   -0.55    0.68
   8  14   0    0.41    0.54
   8  14   0    0.78    0.63
   0 -15   0   -0.62    0.32
   0  15   0    0.11    0.29
   1 -15   0   -0.41    0.31
  -1 -15   0    0.08    0.38
   1  15   0   -0.53    0.40
  -1  15   0   -0.32    0.35
   2 -15   0   -0.01    0.32
  -2 -15   0   -0.25    0.38
  -2  15   0    0.23    0.35
   2  15   0    0.69    0.46
   3 -15   0    1.34    0.37
  -3 -15   0    1.28    0.45
  -3 -15   0    1.30    0.38
   3  15   0    1.86    0.57
  -3  15   0    1.53    0.41
   3  15   0    1.58    0.44
  -4 -15   0    0.63    0.46
  -4 -15   0    1.46    0.43
   4 -15   0    0.61    0.35
  -4  15   0    1.33    0.39
   4  15   0    1.23    0.55
   4  15   0    1.28    0.55
   5 -15   0    0.33    0.32
  -5 -15   0   -0.24    0.44
  -5 -15   0    0.14    0.38
  -5  15   0    0.42    0.37
   5  15   0    0.19    0.50
   5  15   0   -0.14    0.37
  -6 -15   0   -0.24    0.48
  -6 -15   0   -0.26    0.40
   6 -15   0   -0.43    0.28
   6  15   0   -0.66    0.31
   6  15   0   -0.97    0.38
   6  15   0    0.25    0.54
  -6  15   0    0.38    0.36
  -7 -15   0    0.14    0.43
   7 -15   0    0.48    0.38
  -7 -15   0   -0.11    0.50
   7  15   0    0.15    0.42
  -7  15   0    0.70    0.33
   7  15   0    1.09    0.62
   7  15   0   -0.84    0.63
   0 -16   0   -0.29    0.38
   0  16   0    0.64    0.34
  -1 -16   0   -0.32    0.37
   1 -16   0   -0.08    0.35
   1  16   0   -0.34    0.40
  -1  16   0    0.12    0.38
  -2 -16   0    0.50    0.32
   2 -16   0    0.39    0.33
   2  16   0    0.61    0.37
  -2  16   0    1.00    0.42
   3 -16   0    1.81    0.42
  -3 -16   0    1.40    0.41
  -3  16   0    1.82    0.47
   3  16   0    1.33    0.54
  -4 -16   0    0.41    0.38
   4 -16   0    0.47    0.40
   4  16   0    1.41    0.57
  -4  16   0    0.90    0.44
  -5 -16   0    0.23    0.51
   5 -16   0    0.17    0.33
  -5 -16   0    0.32    0.42
   5  16   0    0.92    0.45
  -5  16   0    0.44    0.39
  -6 -16   0   -0.28    0.40
   6 -16   0   -0.32    0.31
  -6  16   0    0.26    0.37
   0 -17   0   -0.10    0.40
   0  17   0    0.06    0.41
   1 -17   0   -0.11    0.27
  -1 -17   0   -0.14    0.41
   1  17   0   -0.03    0.45
  -1  17   0   -0.44    0.37
  -2 -17   0   -0.07    0.32
   2 -17   0    0.30    0.38
  -2  17   0    0.08    0.38
   2  17   0    0.18    0.37
  -3 -17   0    0.31    0.48
   3 -17   0   -0.34    0.38
  -3  17   0    0.36    0.38
   4 -17   0   -0.17    0.36
  -4  17   0    0.04    0.35
 -13   0   1   12.07    0.76
  13   0  -1   13.79    1.04
  12   0  -1   -0.32    0.37
 -12   0   1    0.44    0.30
  12   0  -1    0.59    0.43
  11   0  -1    8.28    0.80
  11   0  -1    8.92    0.82
 -11   0   1    9.29    0.61
 -10   0   1   -0.12    0.22
  10   0  -1    0.07    0.30
  10   0  -1   -0.10    0.36
   9   0  -1   23.08    0.98
   9   0  -1   24.08    1.25
  -9   0   1   23.78    0.97
   9   0  -1   23.06    1.18
   8   0  -1    0.01    0.17
  -8   0   1   -0.18    0.17
   8   0  -1   -0.34    0.16
  -8   0   1    0.13    0.19
   8   0  -1   -0.02    0.21
   7   0  -1    4.34    0.33
   7   0  -1    4.65    0.32
  -7   0   1    4.16    0.32
   7   0  -1    4.65    0.41
  -7   0   1    4.86    0.32
   7   0  -1    4.45    0.45
   6   0  -1   -0.23    0.15
   6   0  -1    0.03    0.18
  -6   0   1   -0.09    0.12
  -6   0   1    0.21    0.13
   6   0  -1   -0.21    0.10
   6   0  -1   -0.14    0.11
   5   0  -1  241.25    7.76
  -5   0   1  249.94    8.54
   5   0  -1  226.29    7.41
   5   0  -1  217.39    7.84
   5   0  -1  228.76    8.53
  -5   0   1  224.54    7.38
  -5   0   1  224.28    7.42
  -4   0   1    0.21    0.12
   4   0  -1    0.03    0.09
   4   0  -1    0.07    0.13
   4   0  -1    0.18    0.08
   4   0  -1    0.12    0.10
   4   0  -1    0.10    0.07
  -4   0   1    0.19    0.10
  -4   0   1    0.15    0.08
  -4   0   1    0.09    0.11
   3   0  -1  158.64    5.59
   3   0  -1  170.78    6.09
   3   0  -1  162.63    5.29
  -3   0   1  174.07    6.08
  -3   0   1  162.91    5.27
  -3   0   1  163.74    5.58
  -3   0   1  159.29    5.29
   3   0  -1  166.76    5.54
   3   0  -1  166.14    5.27
   2   0  -1   -0.12    0.05
  -2   0   1   -0.26    0.06
  -2   0   1   -0.32    0.06
  -2   0   1   -0.16    0.05
   2   0  -1   -0.27    0.06
   2   0  -1   -0.36    0.05
   2   0  -1   -0.04    0.05
  -2   0   1   -0.33    0.07
   2   0  -1   -0.27    0.07
   1   0  -1   18.57    0.60
   1   0  -1   18.11    0.63
   0   0  -1   -0.30    0.02
   0   0  -1   -0.33    0.01
   0   0  -1   -0.30    0.01
   0   0   1   -0.30    0.01
   0   0   1   -0.32    0.01
   0   0   1   -0.27    0.02
   1   0   1  138.50    4.41
  -1   0  -1  136.84    5.03
  -1   0  -1  138.21    4.41
  -1   0  -1  124.13    4.39
   1   0   1  146.94    4.40
  -1   0  -1  131.87    4.64
   1   0   1  133.87    4.64
   1   0   1  144.38    5.03
   2   0   1    0.00    0.10
  -2   0  -1    0.13    0.08
  -2   0  -1    0.01    0.06
   2   0   1   -0.04    0.08
   2   0   1    0.08    0.07
  -2   0  -1   -0.02    0.05
  -2   0  -1   -0.01    0.06
   2   0   1    0.07    0.05
  -3   0  -1  208.02    7.57
  -3   0  -1  225.48    7.19
   3   0   1  226.75    7.18
   3   0   1  217.38    7.58
   3   0   1  237.76    7.16
  -3   0  -1  224.99    7.16
   3   0   1  221.56    8.21
  -3   0  -1  229.57    8.21
   4   0   1    0.03    0.17
  -4   0  -1    0.01    0.10
  -4   0  -1   -0.02    0.11
   4   0   1    0.10    0.13
  -4   0  -1    0.17    0.11
   4   0   1    0.13    0.14
   5   0   1  252.42    9.44
  -5   0  -1  248.08    8.26
   5   0   1  259.35    8.26
   5   0   1  245.41    8.74
  -5   0  -1  262.78    8.22
  -5   0  -1  268.14    9.45
   6   0   1   -0.37    0.15
  -6   0  -1   -0.08    0.11
  -6   0  -1   -0.12    0.12
   6   0   1   -0.58    0.22
   6   0   1   -0.28    0.15
   7   0   1   21.18    1.06
   7   0   1   20.73    0.90
   7   0   1   22.56    1.06
  -7   0  -1   20.87    0.87
   8   0   1    0.01    0.24
  -8   0  -1   -0.26    0.21
   8   0   1   -0.90    0.31
   8   0   1   -0.08    0.22
   9   0   1   19.79    0.89
  -9   0  -1   17.63    0.85
   9   0   1   17.49    1.07
   9   0   1   18.42    1.04
  10   0   1   -0.28    0.27
 -10   0  -1   -0.47    0.24
  10   0   1   -0.07    0.31
  11   0   1    0.21    0.40
  11   0   1    0.32    0.47
 -11   0  -1    0.16    0.30
  12   0   1    0.93    0.53
 -12   0  -1    0.65    0.36
  13   0   1    2.69    0.65
 -13   0  -1    1.87    0.42
 -13  -1   1    2.80    0.43
  13  -1  -1    3.46    0.59
 -13   1   1    2.56    0.42
  13   1  -1    3.93    0.67
 -12  -1   1    0.40    0.32
  12  -1  -1    1.04    0.44
  12   1  -1    0.17    0.47
 -12   1   1    0.73    0.33
  12   1  -1    0.72    0.38
  11  -1  -1    6.46    0.69
 -11  -1   1    6.33    0.55
  11  -1  -1    5.62    0.66
  11   1  -1    5.33    0.66
 -11   1   1    5.73    0.50
  11   1  -1    5.47    0.70
  10  -1  -1    2.65    0.47
  10  -1  -1    3.16    0.47
 -10  -1   1    2.91    0.37
  10   1  -1    2.95    0.52
  10   1  -1    2.73    0.54
 -10   1   1    3.33    0.37
  -9  -1   1    7.72    0.49
   9  -1  -1    5.80    0.60
   9  -1  -1    7.58    0.62
   9  -1  -1    7.09    0.46
  -9   1   1    6.55    0.45
   9   1  -1    6.29    0.66
   9   1  -1    6.77    0.49
   9   1  -1    6.98    0.68
  -8  -1   1    0.92    0.23
   8  -1  -1    0.65    0.19
   8  -1  -1    0.31    0.27
   8  -1  -1    0.32    0.18
   8  -1  -1    0.59    0.28
   8   1  -1    0.24    0.22
  -8   1   1    0.75    0.20
  -8   1   1    0.83    0.22
   8   1  -1    0.15    0.32
   8   1  -1    0.55    0.22
   7  -1  -1   50.48    1.73
  -7  -1   1   47.60    1.67
   7  -1  -1   47.33    1.84
   7  -1  -1   46.99    1.98
  -7  -1   1   48.16    1.74
   7  -1  -1   47.53    1.66
   7   1  -1   46.60    2.03
  -7   1   1   46.88    1.70
  -7   1   1   47.05    1.64
   7   1  -1   46.58    1.89
   7   1  -1   46.73    1.70
   6  -1  -1   19.85    0.90
   6  -1  -1   20.58    0.97
   6  -1  -1   19.58    0.78
  -6  -1   1   19.85    0.78
   6  -1  -1   20.87    0.80
  -6  -1   1   20.73    0.84
   6   1  -1   21.61    0.84
  -6   1   1   20.57    0.81
   6   1  -1   21.40    0.83
  -6   1   1   20.32    0.77
   6   1  -1   20.18    0.93
   6   1  -1   19.86    1.01
   5  -1  -1  174.32    5.72
  -5  -1   1  177.16    5.77
  -5  -1   1  171.35    5.72
   5  -1  -1  179.19    6.60
   5  -1  -1  174.44    6.07
   5   1  -1  182.53    5.77
  -5   1   1  173.27    5.73
   5   1  -1  175.46    6.64
  -5   1   1  176.71    5.70
  -5   1   1  190.06    6.59
   5   1  -1  170.14    6.11
   5   1  -1  185.06    6.02
  -4  -1   1   14.73    0.64
   4  -1  -1   14.02    0.54
   4  -1  -1   14.38    0.67
  -4  -1   1   14.83    0.60
  -4  -1   1   14.62    0.69
  -4  -1   1   14.12    0.55
   4  -1  -1   14.96    0.53
   4  -1  -1   14.14    0.62
   4   1  -1   14.56    0.65
   4   1  -1   15.16    0.55
   4   1  -1   15.02    0.58
   4   1  -1   14.30    0.70
  -4   1   1   15.71    0.66
  -4   1   1   14.02    0.59
  -4   1   1   14.43    0.53
   4   1  -1   13.98    0.59
  -4   1   1   14.41    0.56
  -3  -1   1  192.92    6.36
   3  -1  -1  193.33    6.35
  -3  -1   1  201.80    6.74
  -3  -1   1  210.19    7.35
  -3  -1   1  200.88    6.40
   3  -1  -1  205.33    6.34
  -3  -1   1  198.03    6.69
   3  -1  -1  204.60    7.30
   3  -1  -1  194.98    6.70
   3   1  -1  193.36    6.75
  -3   1   1  195.05    6.69
  -3   1   1  197.87    6.36
   3   1  -1  195.37    6.39
  -3   1   1  202.91    6.34
   3   1  -1  200.92    6.36
   3   1  -1  198.99    7.35
   3   1  -1  200.00    6.69
  -2  -1   1    7.02    0.37
   2  -1  -1    6.93    0.29
   2  -1  -1    6.95    0.34
  -2  -1   1    6.68    0.28
  -2  -1   1    6.47    0.30
   2  -1  -1    7.31    0.26
   2  -1  -1    6.84    0.26
  -2  -1   1    7.16    0.34
  -2  -1   1    6.59    0.31
  -2   1   1    6.71    0.26
   2   1  -1    6.59    0.30
   2   1  -1    6.83    0.33
   2   1  -1    6.75    0.31
   2   1  -1    6.77    0.28
  -2   1   1    6.90    0.28
   2   1  -1    6.76    0.38
  -1  -1   1   12.70    0.45
  -1  -1   1   10.37    0.40
  -1  -1   1   12.21    0.49
  -1  -1   1   11.60    0.42
   1   1  -1   11.76    0.40
   1   1  -1   11.71    0.42
   1   1  -1   11.91    0.49
   1   1  -1   12.02    0.45
   1   1  -1   11.30    0.42
   0  -1   1  209.87    6.47
   0  -1  -1  167.51    6.52
   0   1  -1  212.49    6.80
   0   1   1  221.07    6.87
   0   1   1  206.22    6.53
   0   1  -1  188.31    7.46
   0   1  -1  219.82    6.48
   1  -1   1   20.79    0.72
  -1  -1  -1   20.47    0.79
   1  -1   1   21.45    0.72
  -1  -1  -1   20.69    0.74
  -1  -1  -1   21.12    0.85
   1  -1   1   20.83    0.77
  -1  -1  -1   21.20    0.72
   1   1   1   21.49    0.85
   1   1   1   20.62    0.79
  -1   1  -1   20.71    0.77
   1   1   1   21.02    0.75
   1   1   1   21.57    0.74
  -1   1  -1   20.52    0.72
   1   1   1   21.27    0.72
  -1   1  -1   21.58    0.72
  -2  -1  -1  144.07    5.48
  -2  -1  -1  149.51    4.79
   2  -1   1  148.48    5.42
   2  -1   1  155.17    4.76
   2  -1   1  146.19    5.03
   2  -1   1  152.95    4.77
  -2  -1  -1  147.33    4.76
  -2  -1  -1  141.07    5.05
  -2   1  -1  145.99    4.77
   2   1   1  153.15    4.76
   2   1   1  155.22    5.01
   2   1   1  145.85    5.48
   2   1   1  143.02    5.06
  -2   1  -1  150.49    4.76
  -2   1  -1  142.18    5.03
   2   1   1  152.28    4.79
  -2   1  -1  154.05    5.42
   3  -1   1    3.29    0.19
  -3  -1  -1    3.32    0.22
   3  -1   1    3.28    0.22
  -3  -1  -1    3.26    0.28
  -3  -1  -1    3.25    0.19
   3  -1   1    3.39    0.21
   3  -1   1    3.08    0.26
  -3  -1  -1    3.52    0.27
   3   1   1    3.46    0.20
  -3   1  -1    3.07    0.21
   3   1   1    2.58    0.25
   3   1   1    3.88    0.26
  -3   1  -1    3.24    0.25
   3   1   1    3.11    0.19
  -3   1  -1    3.44    0.21
  -3   1  -1    3.36    0.20
   3   1   1    3.20    0.22
   4  -1   1    2.96    0.26
  -4  -1  -1    2.74    0.20
  -4  -1  -1    2.78    0.28
   4  -1   1    2.83    0.22
   4  -1   1    2.73    0.25
  -4  -1  -1    2.72    0.26
  -4   1  -1    2.97    0.19
   4   1   1    2.86    0.27
   4   1   1    2.47    0.25
  -4   1  -1    2.58    0.23
   4   1   1    2.94    0.29
   4   1   1    2.75    0.23
  -4   1  -1    2.81    0.21
   5  -1   1   52.53    1.97
  -5  -1  -1   52.19    1.80
  -5  -1  -1   53.47    1.86
   5  -1   1   51.05    1.81
   5  -1   1   54.48    2.08
  -5   1  -1   50.92    1.82
   5   1   1   52.82    2.12
   5   1   1   54.39    1.90
   5   1   1   53.06    1.85
   5   1   1   49.89    2.00
  -5   1  -1   54.81    2.07
  -5   1  -1   52.73    1.79
   6  -1   1   -0.04    0.14
   6  -1   1   -0.24    0.13
   6  -1   1   -0.23    0.15
  -6  -1  -1   -0.08    0.12
  -6   1  -1   -0.05    0.10
  -6   1  -1   -0.10    0.15
   6   1   1   -0.42    0.25
   6   1   1   -0.44    0.16
   6   1   1   -0.14    0.19
  -6   1  -1    0.13    0.14
   7  -1   1    1.06    0.24
   7  -1   1    0.69    0.33
  -7  -1  -1    1.13    0.24
   7  -1   1    1.18    0.20
  -7   1  -1    0.99    0.25
   7   1   1    0.86    0.29
   7   1   1    0.85    0.21
   7   1   1    0.94    0.27
  -7   1  -1    0.60    0.21
   8  -1   1   -0.04    0.21
  -8  -1  -1   -0.02    0.23
   8  -1   1   -0.40    0.30
   8  -1   1   -0.25    0.19
   8   1   1   -0.52    0.21
   8   1   1   -0.19    0.25
  -8   1  -1    0.00    0.21
   8   1   1   -0.13    0.35
  -9  -1  -1   14.96    0.73
   9  -1   1   15.35    0.92
   9  -1   1   14.85    0.95
   9  -1   1   14.89    0.75
   9   1   1   15.21    0.81
   9   1   1   16.12    0.98
   9   1   1   14.68    1.00
  -9   1  -1   15.93    0.75
  10  -1   1    0.28    0.42
 -10  -1  -1    0.62    0.31
  10  -1   1    0.39    0.31
  10   1   1    0.30    0.29
  10   1   1    0.66    0.36
  10   1   1   -0.13    0.35
 -10   1  -1    0.20    0.28
  11  -1   1    3.44    0.60
 -11  -1  -1    3.21    0.40
 -11   1  -1    2.37    0.40
  11   1   1    3.56    0.66
  11   1   1    2.84    0.57
  12  -1   1    3.87    0.65
 -12  -1  -1    2.28    0.44
  12   1   1    3.08    0.66
 -12   1  -1    2.92    0.43
 -13  -1  -1    0.35    0.38
  13  -1   1    0.84    0.50
  13   1   1    1.79    0.59
 -13   1  -1    0.85    0.37
  13  -2  -1    3.71    0.56
 -13  -2   1    3.34    0.49
  13   2  -1    1.86    0.64
  13   2  -1    2.80    0.64
 -13   2   1    2.93    0.41
 -12  -2   1    5.08    0.53
  12  -2  -1    5.84    0.65
 -12   2   1    4.92    0.49
  12   2  -1    4.80    0.73
  12   2  -1    5.68    0.76
 -11  -2   1    0.12    0.29
  11  -2  -1    0.31    0.37
 -11   2   1    0.28    0.25
  11   2  -1    0.73    0.48
  11   2  -1    0.74    0.45
  10  -2  -1    3.58    0.50
  10  -2  -1    4.69    0.56
 -10  -2   1    3.96    0.42
 -10   2   1    3.98    0.38
  10   2  -1    4.29    0.59
  10   2  -1    4.13    0.62
   9  -2  -1   10.69    0.73
   9  -2  -1   11.64    0.75
  -9  -2   1   11.05    0.62
   9   2  -1   11.71    0.87
  -9   2   1   12.81    0.61
   9   2  -1   11.84    0.67
   9   2  -1   11.84    0.89
   8  -2  -1   22.14    1.11
   8  -2  -1   21.72    1.04
  -8  -2   1   20.83    0.89
   8  -2  -1   22.62    0.89
   8   2  -1   21.98    1.18
  -8   2   1   22.84    0.93
   8   2  -1   23.30    0.98
  -8   2   1   23.65    0.89
   8   2  -1   21.28    1.14
   7  -2  -1    7.22    0.49
  -7  -2   1    7.12    0.43
   7  -2  -1    7.14    0.50
   7  -2  -1    7.20    0.38
   7   2  -1    7.00    0.44
  -7   2   1    7.64    0.39
   7   2  -1    7.09    0.54
   7   2  -1    6.79    0.61
  -7   2   1    7.89    0.42
   6  -2  -1   16.08    0.64
   6  -2  -1   16.72    0.76
  -6  -2   1   16.68    0.74
   6  -2  -1   15.33    0.79
  -6  -2   1   15.71    0.65
   6   2  -1   16.60    0.69
  -6   2   1   16.04    0.67
  -6   2   1   16.44    0.64
   6   2  -1   16.00    0.84
   6   2  -1   16.16    0.72
   6   2  -1   15.78    0.89
  -5  -2   1   32.94    1.19
  -5  -2   1   35.58    1.25
   5  -2  -1   33.00    1.15
   5  -2  -1   34.71    1.38
   5  -2  -1   33.46    1.27
   5   2  -1   33.71    1.24
  -5   2   1   32.53    1.17
  -5   2   1   33.13    1.15
   5   2  -1   33.97    1.25
   5   2  -1   34.23    1.46
   5   2  -1   30.59    1.35
   4  -2  -1   74.59    3.04
   4  -2  -1   81.48    2.81
  -4  -2   1   81.02    2.79
   4  -2  -1   80.42    2.63
  -4  -2   1   83.08    2.72
  -4  -2   1   79.87    2.66
   4  -2  -1   84.59    2.62
  -4   2   1   78.00    2.64
   4   2  -1   83.73    2.80
  -4   2   1   82.14    2.63
   4   2  -1   84.89    2.72
   4   2  -1   80.86    3.15
  -4   2   1   80.70    2.79
   4   2  -1   78.64    2.89
   3  -2  -1   42.92    1.61
  -3  -2   1   42.96    1.45
   3  -2  -1   38.40    1.46
  -3  -2   1   43.84    1.54
  -3  -2   1   41.38    1.40
   3  -2  -1   44.27    1.37
  -3  -2   1   42.62    1.68
  -3  -2   1   41.91    1.47
   3  -2  -1   40.91    1.37
   3   2  -1   41.61    1.69
   3   2  -1   40.24    1.54
   3   2  -1   41.88    1.40
   3   2  -1   42.50    1.48
  -3   2   1   41.11    1.37
  -3   2   1   41.59    1.45
   3   2  -1   42.11    1.45
   2  -2  -1  135.12    4.28
  -2  -2   1  137.31    5.00
  -2  -2   1  135.18    4.54
   2  -2  -1  135.92    4.51
  -2  -2   1  141.03    4.36
  -2  -2   1  142.52    4.60
   2  -2  -1  140.36    4.28
  -2  -2   1  138.26    4.32
   2   2  -1  121.60    4.59
   2   2  -1  137.00    4.32
   2   2  -1  118.30    4.99
  -2   2   1  138.73    4.29
  -2   2   1  129.54    4.51
   2   2  -1  136.77    4.55
   2   2  -1  133.21    4.35
   1  -2  -1  380.43   11.61
   1  -2  -1  384.28   12.23
  -1  -2   1  343.45   13.23
  -1  -2   1  363.36   12.14
  -1  -2   1  380.81   12.18
   1  -2  -1  389.22   12.27
  -1  -2   1  347.32   11.59
   1   2  -1  355.32   12.17
  -1   2   1  361.94   12.21
   1   2  -1  379.61   12.14
   1   2  -1  358.56   11.56
   1   2  -1  324.72   13.23
   1   2  -1  359.78   11.57
   0  -2  -1   25.54    0.89
   0  -2  -1   26.40    0.92
   0  -2   1   24.48    0.90
   0  -2  -1   25.18    0.84
   0  -2   1   24.97    0.86
   0  -2  -1   26.79    0.87
   0  -2   1   25.39    0.98
   0   2  -1   25.66    0.86
   0   2  -1   26.18    0.99
   0   2   1   26.37    0.85
   0   2   1   26.07    0.87
   0   2  -1   26.11    0.91
   0   2   1   24.67    0.92
   0   2   1   26.00    0.89
  -1  -2  -1  125.79    4.62
   1  -2   1  130.85    4.60
  -1  -2  -1  122.21    4.01
  -1  -2  -1  123.56    4.26
   1  -2   1  126.63    4.01
   1  -2   1  126.83    4.22
  -1  -2  -1  122.51    4.21
  -1  -2  -1  126.88    4.04
   1  -2   1  127.09    4.00
  -1   2  -1  128.78    4.01
   1   2   1  123.16    4.00
   1   2   1  126.27    4.21
   1   2   1  119.15    4.26
  -1   2  -1  124.05    4.00
   1   2   1  124.33    4.03
  -1   2  -1  124.96    4.22
   1   2   1  123.97    4.62
  -2  -2  -1  217.16    6.82
  -2  -2  -1  204.73    7.23
   2  -2   1  217.59    6.81
   2  -2   1  221.26    6.81
  -2  -2  -1  204.49    7.84
   2  -2   1  229.56    7.19
   2  -2   1  210.90    7.79
  -2  -2  -1  215.64    6.86
  -2  -2  -1  212.21    7.17
   2   2   1  219.83    6.86
   2   2   1  196.34    7.22
  -2   2  -1  218.75    6.81
   2   2   1  221.25    7.17
   2   2   1  212.14    6.82
   2   2   1  214.70    7.85
  -2   2  -1  203.39    7.17
  -2   2  -1  207.81    6.81
  -3  -2  -1  199.83    6.40
   3  -2   1  210.63    6.33
  -3  -2  -1  192.95    6.75
   3  -2   1  200.19    7.21
  -3  -2  -1  190.97    7.32
   3  -2   1  203.37    6.70
  -3  -2  -1  193.64    6.35
   3  -2   1  200.22    6.34
   3   2   1  196.35    6.39
  -3   2  -1  193.41    6.34
  -3   2  -1  212.44    7.24
  -3   2  -1  185.05    6.69
  -3   2  -1  201.50    6.34
   3   2   1  206.20    6.68
   3   2   1  187.54    6.75
   3   2   1  197.68    6.35
   3   2   1  191.82    7.32
  -4  -2  -1  108.84    3.59
  -4  -2  -1  109.96    3.64
  -4  -2  -1  107.87    4.22
   4  -2   1  108.84    3.58
   4  -2   1  112.53    4.06
   4  -2   1  109.67    3.81
   4   2   1  104.23    3.86
   4   2   1  107.41    4.17
   4   2   1  110.26    3.64
  -4   2  -1  115.71    4.06
  -4   2  -1  105.64    3.58
  -4   2  -1  110.43    3.57
   4   2   1  114.02    3.77
   5  -2   1    0.96    0.23
   5  -2   1    0.91    0.16
  -5  -2  -1    0.79    0.16
   5  -2   1    0.74    0.15
   5   2   1    0.78    0.22
  -5   2  -1    1.10    0.16
   5   2   1    1.12    0.22
  -5   2  -1    1.24    0.16
  -5   2  -1    0.95    0.17
   5   2   1    0.76    0.28
   6  -2   1    2.85    0.30
  -6  -2  -1    2.99    0.26
   6  -2   1    3.02    0.27
   6  -2   1    3.34    0.36
   6   2   1    3.80    0.37
   6   2   1    3.01    0.39
  -6   2  -1    3.40    0.29
   6   2   1    2.93    0.37
  -6   2  -1    3.06    0.27
  -6   2  -1    3.17    0.27
  -7  -2  -1   -0.67    0.18
   7  -2   1   -0.20    0.16
   7  -2   1   -0.14    0.12
   7  -2   1   -0.43    0.17
  -7   2  -1   -0.40    0.15
   7   2   1   -1.01    0.29
   7   2   1   -0.26    0.24
  -7   2  -1   -0.48    0.14
   8  -2   1    0.19    0.21
  -8  -2  -1   -0.46    0.22
   8  -2   1   -0.27    0.29
   8  -2   1   -0.50    0.17
   8   2   1   -0.20    0.29
   8   2   1   -0.60    0.24
  -8   2  -1   -0.25    0.19
   8   2   1   -0.18    0.17
   9  -2   1    1.34    0.28
   9  -2   1    1.15    0.30
  -9  -2  -1    1.41    0.27
   9  -2   1    1.26    0.34
   9   2   1    1.38    0.35
   9   2   1    0.64    0.47
   9   2   1    0.39    0.36
  -9   2  -1    1.59    0.29
  10  -2   1    1.18    0.46
  10  -2   1    1.51    0.36
 -10  -2  -1    1.44    0.36
  10   2   1    0.98    0.51
 -10   2  -1    1.60    0.33
  10   2   1    2.10    0.40
  10   2   1    1.13    0.45
  11  -2   1    4.56    0.63
 -11  -2  -1    4.66    0.50
  11   2   1    3.72    0.62
  11   2   1    5.08    0.76
 -11   2  -1    3.94    0.46
  12  -2   1    0.02    0.43
 -12  -2  -1    0.18    0.36
 -12   2  -1    0.28    0.32
  12   2   1   -0.16    0.46
  12   2   1    0.76    0.56
 -13  -2  -1    0.72    0.41
  13  -2   1    1.23    0.51
  13   2   1    1.08    0.57
 -13   2  -1   -0.04    0.34
 -13  -3   1    0.79    0.41
  13  -3  -1    1.44    0.43
  13   3  -1    2.30    0.63
 -13   3   1    1.34    0.33
  13   3  -1    0.08    0.55
  12  -3  -1    2.04    0.45
 -12  -3   1    2.04    0.42
  12   3  -1    2.14    0.62
  12   3  -1    0.99    0.54
 -12   3   1    2.13    0.38
  11  -3  -1    4.43    0.55
 -11  -3   1    3.67    0.46
  11   3  -1    2.58    0.61
 -11   3   1    4.02    0.41
  11   3  -1    4.09    0.66
  10  -3  -1    0.83    0.33
  10  -3  -1    0.74    0.31
 -10  -3   1    1.40    0.32
  10   3  -1    0.60    0.44
  10   3  -1    0.77    0.31
 -10   3   1    1.36    0.29
  10   3  -1    0.92    0.42
   9  -3  -1    3.83    0.44
   9  -3  -1    4.95    0.49
  -9  -3   1    4.52    0.43
   9   3  -1    4.61    0.63
   9   3  -1    5.36    0.64
  -9   3   1    4.53    0.39
   9   3  -1    4.51    0.48
   8  -3  -1   22.39    1.09
   8  -3  -1   23.74    1.04
   8  -3  -1   22.74    0.88
  -8  -3   1   22.83    0.93
  -8   3   1   22.96    0.88
   8   3  -1   21.28    0.98
   8   3  -1   22.01    1.19
   8   3  -1   22.04    1.21
   7  -3  -1    7.04    0.37
  -7  -3   1    6.84    0.44
   7  -3  -1    7.33    0.47
   7  -3  -1    7.43    0.49
   7   3  -1    6.49    0.58
  -7   3   1    6.91    0.37
   7   3  -1    6.66    0.62
   7   3  -1    6.39    0.49
  -7   3   1    7.50    0.40
   6  -3  -1    6.35    0.39
   6  -3  -1    5.68    0.41
   6  -3  -1    5.95    0.31
  -6  -3   1    5.57    0.34
   6   3  -1    5.56    0.54
   6   3  -1    5.82    0.50
  -6   3   1    5.58    0.34
   6   3  -1    5.97    0.44
  -6   3   1    6.50    0.33
  -5  -3   1    2.84    0.26
   5  -3  -1    2.00    0.16
  -5  -3   1    2.01    0.23
  -5  -3   1    1.75    0.19
   5  -3  -1    2.13    0.23
   5  -3  -1    2.19    0.22
  -5   3   1    2.06    0.21
   5   3  -1    2.13    0.30
  -5   3   1    2.10    0.17
   5   3  -1    1.88    0.29
  -5   3   1    2.13    0.19
   5   3  -1    1.85    0.26
  -4  -3   1  155.28    5.10
   4  -3  -1  167.70    5.04
   4  -3  -1  154.95    5.04
  -4  -3   1  162.82    5.17
   4  -3  -1  161.17    5.35
   4  -3  -1  164.97    5.81
  -4  -3   1  157.49    5.36
  -4   3   1  150.94    5.06
   4   3  -1  151.78    5.46
   4   3  -1  158.45    5.16
   4   3  -1  152.72    5.94
  -4   3   1  149.50    5.32
   4   3  -1  160.04    5.37
  -4   3   1  159.89    5.05
  -3  -3   1  114.34    3.98
   3  -3  -1  118.29    3.95
  -3  -3   1  120.87    4.06
  -3  -3   1  121.10    3.85
   3  -3  -1  116.37    3.73
  -3  -3   1  118.10    4.41
  -3  -3   1  113.88    3.79
   3  -3  -1  121.46    3.73
   3   3  -1  112.02    4.42
   3   3  -1  119.22    3.99
   3   3  -1  116.44    3.79
  -3   3   1  113.21    3.94
   3   3  -1  115.91    3.84
   3   3  -1  111.36    4.06
  -3   3   1  118.77    3.74
  -2  -3   1    1.31    0.17
  -2  -3   1    1.11    0.14
   2  -3  -1    1.30    0.10
  -2  -3   1    1.34    0.17
   2  -3  -1    1.53    0.09
  -2  -3   1    1.35    0.18
   2  -3  -1    1.38    0.09
  -2  -3   1    1.16    0.12
   2   3  -1    1.28    0.14
   2   3  -1    1.31    0.20
   2   3  -1    1.29    0.18
  -2   3   1    1.40    0.10
   2   3  -1    1.31    0.12
   2   3  -1    1.57    0.17
  -1  -3   1   24.69    1.00
   1  -3  -1   24.37    0.86
  -1  -3   1   26.53    0.94
   1  -3  -1   25.43    0.89
   1  -3  -1   24.25    0.81
  -1  -3   1   24.34    0.85
  -1  -3   1   24.21    0.89
  -1   3   1   24.30    0.86
  -1   3   1   24.73    0.82
   1   3  -1   24.44    0.85
  -1   3   1   23.01    0.88
   1   3  -1   24.71    0.95
   1   3  -1   24.61    0.90
   1   3  -1   24.94    0.89
   1   3  -1   24.30    1.01
   0  -3  -1  724.27   24.87
   0  -3  -1  704.37   27.13
   0  -3  -1  693.32   23.64
   0  -3   1  738.79   23.63
   0  -3   1  773.89   24.92
   0  -3  -1  805.82   24.94
   0  -3   1  671.89   27.09
   0  -3  -1  854.05   23.77
   0   3   1  654.30   24.79
   0   3   1  751.81   23.70
   0   3  -1  784.56   24.81
   0   3  -1  628.30   27.12
   0   3  -1  718.04   24.87
   0   3   1  761.73   23.66
   0   3  -1  750.24   23.60
   0   3   1  830.47   24.91
  -1  -3  -1  862.83   34.12
   1  -3   1  946.28   31.28
  -1  -3  -1  937.93   31.30
   1  -3   1  980.34   33.94
  -1  -3  -1  913.03   31.10
   1  -3   1  956.35   29.69
  -1  -3  -1 1000.00   29.76
  -1  -3  -1  870.92   29.70
   1  -3   1  972.45   29.75
  -1   3  -1  984.38   31.26
   1   3   1  869.19   34.20
   1   3   1  916.36   29.69
   1   3   1  810.70   31.08
   1   3   1  957.23   29.75
  -1   3  -1  947.32   29.69
   1   3   1  979.64   31.32
  -1   3  -1  914.92   33.92
   2  -3   1    6.97    0.34
   2  -3   1    7.02    0.30
  -2  -3  -1    7.16    0.35
  -2  -3  -1    6.90    0.40
  -2  -3  -1    6.92    0.38
  -2  -3  -1    6.84    0.32
   2  -3   1    6.71    0.30
  -2  -3  -1    6.67    0.30
   2   3   1    7.20    0.35
   2   3   1    7.25    0.32
   2   3   1    6.76    0.41
   2   3   1    6.69    0.39
  -2   3  -1    6.54    0.30
  -2   3  -1    7.02    0.31
   2   3   1    7.21    0.31
  -2   3  -1    6.38    0.31
   3  -3   1   48.11    1.57
   3  -3   1   47.90    1.58
  -3  -3  -1   46.37    1.60
  -3  -3  -1   45.84    1.68
   3  -3   1   48.12    1.69
  -3  -3  -1   47.76    1.77
   3  -3   1   47.48    1.73
  -3  -3  -1   47.77    1.65
  -3  -3  -1   48.00    1.91
   3   3   1   47.83    1.68
  -3   3  -1   45.03    1.68
   3   3   1   48.46    1.66
  -3   3  -1   46.25    1.58
   3   3   1   48.22    1.60
  -3   3  -1   47.05    1.59
   3   3   1   44.37    1.77
   3   3   1   46.43    1.90
   4  -3   1   45.98    1.71
   4  -3   1   46.80    1.55
   4  -3   1   47.23    1.67
  -4  -3  -1   44.77    1.57
   4   3   1   44.05    1.77
  -4   3  -1   45.36    1.55
   4   3   1   46.39    1.88
   4   3   1   44.40    1.62
  -4   3  -1   43.80    1.55
  -5  -3  -1    1.09    0.21
   5  -3   1    1.22    0.15
   5  -3   1    1.57    0.24
   5  -3   1    1.88    0.19
   5   3   1    1.37    0.25
  -5   3  -1    1.64    0.19
  -5   3  -1    1.75    0.20
   5   3   1    1.86    0.36
   5   3   1    1.18    0.26
   6  -3   1    0.61    0.23
  -6  -3  -1    0.90    0.23
   6  -3   1    0.28    0.15
   6   3   1    0.38    0.19
   6   3   1    0.52    0.22
  -6   3  -1    0.88    0.17
   6   3   1    0.54    0.26
   7  -3   1    5.38    0.38
  -7  -3  -1    3.89    0.38
   7  -3   1    4.01    0.33
   7  -3   1    4.59    0.46
   7   3   1    4.29    0.42
  -7   3  -1    3.72    0.34
  -7   3  -1    4.63    0.35
   7   3   1    4.03    0.51
   7   3   1    3.06    0.53
   8  -3   1   -0.11    0.19
   8  -3   1   -0.34    0.28
  -8  -3  -1   -0.51    0.22
   8  -3   1   -0.20    0.17
  -8   3  -1   -0.08    0.20
   8   3   1   -0.31    0.27
   8   3   1   -0.86    0.36
   8   3   1    0.23    0.32
  -9  -3  -1    1.82    0.30
   9  -3   1    2.17    0.33
   9  -3   1    1.79    0.42
   9   3   1    1.95    0.41
   9   3   1    1.36    0.38
  -9   3  -1    1.55    0.30
   9   3   1    1.52    0.44
 -10  -3  -1    0.63    0.34
  10  -3   1    0.46    0.39
  10   3   1    0.22    0.39
 -10   3  -1    0.49    0.27
  10   3   1    0.82    0.54
  10   3   1    0.47    0.34
 -11  -3  -1    0.70    0.37
  11  -3   1    0.99    0.44
 -11   3  -1    1.07    0.36
  11   3   1    0.21    0.47
  11   3   1    0.86    0.56
  12  -3   1    0.60    0.44
 -12  -3  -1    0.49    0.36
 -12   3  -1    0.87    0.37
  12   3   1    0.37    0.55
  12   3   1    0.36    0.52
 -13  -3  -1    0.94    0.41
  13  -3   1    1.16    0.51
 -13   3  -1    0.09    0.37
  13  -4  -1    0.13    0.33
 -13  -4   1   -0.62    0.33
  13   4  -1   -0.40    0.51
  13   4  -1   -0.11    0.52
 -13   4   1   -0.37    0.24
  12  -4  -1    0.55    0.35
 -12  -4   1   -0.26    0.24
  12   4  -1   -0.56    0.49
 -12   4   1    0.08    0.24
  12   4  -1    0.03    0.52
  11  -4  -1    0.14    0.30
 -11  -4   1    0.07    0.23
  11   4  -1    0.15    0.35
  11   4  -1   -0.80    0.46
 -11   4   1   -0.21    0.21
 -10  -4   1    5.58    0.51
  10  -4  -1    6.37    0.56
  10   4  -1    4.75    0.68
  10   4  -1    4.22    0.70
  10   4  -1    5.29    0.56
 -10   4   1    5.69    0.45
  -9  -4   1    7.88    0.57
   9  -4  -1    7.24    0.56
   9  -4  -1    7.84    0.60
  -9   4   1    7.61    0.45
   9   4  -1    7.17    0.77
   9   4  -1    7.68    0.82
   9   4  -1    7.37    0.60
  -8  -4   1    0.94    0.28
   8  -4  -1    1.07    0.29
   8  -4  -1    1.13    0.24
   8   4  -1    0.94    0.26
   8   4  -1    0.96    0.39
   8   4  -1    1.05    0.45
  -8   4   1    1.20    0.21
   7  -4  -1   16.32    0.76
  -7  -4   1   15.80    0.72
   7  -4  -1   16.63    0.65
   7  -4  -1   17.48    0.82
  -7   4   1   16.23    0.69
  -7   4   1   17.39    0.68
   7   4  -1   16.47    0.83
   7   4  -1   17.28    0.99
   7   4  -1   15.34    0.91
   6  -4  -1    0.18    0.16
  -6  -4   1   -0.07    0.13
  -6  -4   1   -0.07    0.18
   6  -4  -1   -0.02    0.12
   6  -4  -1    0.07    0.10
   6   4  -1   -0.20    0.25
   6   4  -1   -0.27    0.22
  -6   4   1    0.16    0.14
  -6   4   1    0.05    0.12
   6   4  -1   -0.12    0.29
  -5  -4   1    0.39    0.14
   5  -4  -1    0.48    0.10
   5  -4  -1    0.47    0.14
  -5  -4   1    0.41    0.18
   5  -4  -1    0.57    0.13
   5   4  -1   -0.05    0.25
   5   4  -1    0.33    0.21
   5   4  -1    0.49    0.25
  -5   4   1    0.66    0.13
  -5   4   1    0.53    0.13
  -4  -4   1   37.44    1.40
  -4  -4   1   36.50    1.33
   4  -4  -1   40.07    1.27
   4  -4  -1   40.41    1.48
   4  -4  -1   39.22    1.37
   4  -4  -1   37.00    1.26
  -4   4   1   38.21    1.28
  -4   4   1   36.41    1.28
   4   4  -1   37.32    1.63
  -4   4   1   36.69    1.35
   4   4  -1   37.45    1.53
   4   4  -1   38.76    1.41
   3  -4  -1   92.63    3.14
   3  -4  -1   95.55    2.97
  -3  -4   1   93.47    3.19
   3  -4  -1   90.26    2.97
  -3  -4   1   93.24    3.03
  -3  -4   1   98.79    3.11
  -3   4   1   87.06    2.97
   3   4  -1   91.84    3.57
   3   4  -1   93.46    3.10
  -3   4   1   90.08    3.13
   3   4  -1   89.38    3.28
   3   4  -1   92.88    3.19
   2  -4  -1   10.09    0.38
  -2  -4   1   10.13    0.45
  -2  -4   1   10.86    0.48
   2  -4  -1   10.51    0.41
   2  -4  -1   10.84    0.39
  -2  -4   1   10.23    0.43
  -2  -4   1   10.74    0.56
  -2  -4   1   11.78    0.54
   2   4  -1    9.98    0.47
   2   4  -1   10.29    0.57
   2   4  -1   11.00    0.43
   2   4  -1   10.20    0.45
  -2   4   1   10.00    0.41
  -2   4   1    9.98    0.38
   2   4  -1    9.94    0.52
   1  -4  -1    4.08    0.19
  -1  -4   1    3.83    0.23
  -1  -4   1    4.52    0.28
  -1  -4   1    4.20    0.23
  -1  -4   1    4.04    0.30
   1  -4  -1    4.22    0.21
   1  -4  -1    4.48    0.25
   1  -4  -1    4.47    0.28
  -1   4   1    4.03    0.22
   1   4  -1    3.63    0.27
   1   4  -1    4.02    0.29
   1   4  -1    4.26    0.23
  -1   4   1    4.10    0.24
   1   4  -1    4.05    0.23
  -1   4   1    4.05    0.19
   1   4  -1    4.08    0.25
  -1   4   1    3.82    0.20
   0  -4  -1  277.03   10.16
   0  -4  -1  272.36    8.83
   0  -4   1  277.96    9.31
   0  -4  -1  284.47    9.29
   0  -4   1  265.01   10.13
   0  -4  -1  293.37    9.35
   0  -4   1  271.73    8.84
   0   4  -1  281.67    8.85
   0   4   1  262.29    9.33
   0   4   1  282.17    8.87
   0   4  -1  254.41   10.12
   0   4   1  291.16    9.29
   0   4  -1  273.28    9.35
   0   4   1  287.04    8.83
   0   4  -1  286.24    9.31
  -1  -4  -1   54.11    1.76
  -1  -4  -1   52.11    1.87
   1  -4   1   49.77    1.70
   1  -4   1   53.36    1.72
   1  -4   1   52.84    1.94
  -1  -4  -1   50.22    1.80
  -1  -4  -1   49.17    1.70
  -1  -4  -1   52.39    2.02
   1  -4   1   49.88    1.80
  -1   4  -1   55.00    1.84
  -1   4  -1   50.64    1.80
   1   4   1   52.87    2.03
  -1   4  -1   52.26    1.93
   1   4   1   50.64    1.79
  -1   4  -1   50.00    1.70
   1   4   1   50.69    1.71
   1   4   1   48.95    1.86
   1   4   1   51.00    1.75
  -2  -4  -1   17.20    0.75
  -2  -4  -1   17.07    0.68
   2  -4   1   16.96    0.61
   2  -4   1   17.01    0.62
   2  -4   1   16.68    0.66
  -2  -4  -1   16.50    0.79
  -2  -4  -1   15.42    0.62
  -2  -4  -1   16.24    0.66
   2  -4   1   17.53    0.64
   2   4   1   16.19    0.74
   2   4   1   17.30    0.68
   2   4   1   16.16    0.79
   2   4   1   16.64    0.63
  -2   4  -1   16.47    0.63
  -2   4  -1   16.11    0.66
   2   4   1   17.29    0.67
  -2   4  -1   15.98    0.61
  -3  -4  -1    0.13    0.11
  -3  -4  -1    0.05    0.14
   3  -4   1    0.15    0.13
   3  -4   1    0.15    0.10
   3   4   1    0.02    0.23
   3   4   1    0.26    0.16
   3   4   1    0.07    0.13
  -3   4  -1   -0.01    0.11
  -3   4  -1    0.19    0.10
   4  -4   1    4.83    0.21
  -4  -4  -1    4.49    0.33
  -4  -4  -1    4.61    0.32
   4  -4   1    4.92    0.33
   4  -4   1    4.77    0.27
   4   4   1    4.97    0.35
   4   4   1    3.62    0.43
   4   4   1    5.25    0.42
  -4   4  -1    4.77    0.29
  -4   4  -1    4.87    0.28
  -5  -4  -1    2.72    0.29
   5  -4   1    3.31    0.24
   5  -4   1    3.55    0.32
   5  -4   1    2.99    0.19
  -5   4  -1    3.41    0.25
   5   4   1    2.98    0.35
   5   4   1    2.42    0.42
  -5   4  -1    3.07    0.26
   5   4   1    2.71    0.36
  -6  -4  -1   54.67    1.98
   6  -4   1   59.95    2.15
   6  -4   1   53.55    1.92
   6  -4   1   59.41    2.11
   6   4   1   56.27    2.07
   6   4   1   55.64    2.26
  -6   4  -1   56.68    1.94
  -6   4  -1   54.19    1.95
   6   4   1   55.46    2.38
   7  -4   1    1.14    0.31
   7  -4   1    1.54    0.20
  -7  -4  -1    0.65    0.27
   7  -4   1    1.13    0.21
  -7   4  -1    1.51    0.24
   7   4   1    0.81    0.37
   7   4   1    0.96    0.35
  -7   4  -1    1.24    0.23
   7   4   1    1.05    0.34
   8  -4   1    0.04    0.17
   8  -4   1   -0.20    0.26
   8  -4   1   -0.25    0.15
  -8  -4  -1   -0.67    0.24
   8   4   1   -0.03    0.23
   8   4   1   -0.09    0.25
   8   4   1   -0.50    0.29
  -8   4  -1   -0.01    0.19
  -9  -4  -1    0.35    0.30
   9  -4   1    0.43    0.32
  -9   4  -1    0.23    0.27
   9   4   1   -0.48    0.44
   9   4   1   -0.06    0.31
   9   4   1    0.24    0.41
  10  -4   1    4.04    0.54
 -10  -4  -1    3.94    0.43
  10   4   1    4.04    0.66
  10   4   1    4.27    0.54
 -10   4  -1    4.04    0.43
  10   4   1    3.68    0.70
 -11  -4  -1    0.75    0.30
  11  -4   1    1.55    0.47
  11   4   1    0.38    0.50
 -11   4  -1    1.17    0.36
  11   4   1    0.94    0.46
 -12  -4  -1    2.98    0.51
  12  -4   1    3.60    0.58
  12   4   1    2.35    0.67
 -12   4  -1    3.54    0.45
  12   4   1    2.32    0.65
  13  -4   1    0.74    0.43
  13   4   1   -0.16    0.57
 -13   4  -1    0.36    0.34
  13  -5  -1    0.22    0.33
 -13   5   1    0.02    0.30
  13   5  -1   -0.75    0.58
 -12  -5   1    0.69    0.40
  12  -5  -1    1.37    0.39
  12   5  -1    0.77    0.48
 -12   5   1    1.25    0.33
  12   5  -1    1.43    0.63
 -11  -5   1   -0.27    0.32
  11  -5  -1    0.19    0.32
 -11   5   1    0.11    0.26
  11   5  -1   -0.48    0.46
  11   5  -1    0.45    0.56
  10  -5  -1    0.11    0.25
 -10  -5   1    0.09    0.31
  10   5  -1    0.11    0.50
 -10   5   1    0.22    0.24
  10   5  -1    0.45    0.46
  10   5  -1   -0.42    0.28
  -9  -5   1    1.65    0.34
   9  -5  -1    1.32    0.32
   9   5  -1    0.95    0.51
   9   5  -1    1.40    0.31
  -9   5   1    1.15    0.25
   9   5  -1    1.44    0.49
   8  -5  -1    9.42    0.56
  -8  -5   1    9.39    0.54
   8  -5  -1    9.42    0.56
   8   5  -1    7.93    0.71
  -8   5   1    9.37    0.50
   8   5  -1    9.79    0.67
   8   5  -1    9.48    0.86
  -7  -5   1   -0.26    0.15
   7  -5  -1    0.10    0.14
   7  -5  -1   -0.18    0.11
   7  -5  -1   -0.15    0.17
  -7  -5   1    0.02    0.24
  -7   5   1   -0.11    0.13
   7   5  -1   -0.59    0.23
   7   5  -1   -0.34    0.24
  -7   5   1    0.12    0.15
   7   5  -1    0.06    0.36
   6  -5  -1   12.61    0.59
  -6  -5   1   12.77    0.59
  -6  -5   1   12.64    0.61
   6  -5  -1   13.51    0.61
   6  -5  -1   12.49    0.50
  -6   5   1   11.49    0.53
   6   5  -1   12.24    0.80
  -6   5   1   12.85    0.53
   6   5  -1   11.93    0.65
   6   5  -1   12.03    0.81
  -5  -5   1   13.47    0.60
  -5  -5   1   13.92    0.66
   5  -5  -1   14.17    0.63
   5  -5  -1   13.30    0.60
   5  -5  -1   14.22    0.52
   5   5  -1   13.12    0.67
   5   5  -1   13.48    0.80
  -5   5   1   14.26    0.56
  -5   5   1   13.11    0.54
   5   5  -1   13.78    0.85
   4  -5  -1    5.76    0.32
  -4  -5   1    5.86    0.34
   4  -5  -1    6.15    0.27
  -4  -5   1    6.09    0.39
   4   5  -1    6.50    0.49
   4   5  -1    6.34    0.47
  -4   5   1    6.02    0.31
   4   5  -1    5.81    0.43
  -4   5   1    5.90    0.29
   3  -5  -1   10.73    0.40
   3  -5  -1   11.07    0.42
  -3  -5   1   10.57    0.47
  -3  -5   1   10.73    0.50
   3  -5  -1   11.05    0.46
  -3   5   1   10.09    0.41
   3   5  -1   10.36    0.62
   3   5  -1   10.52    0.66
   3   5  -1   10.47    0.55
  -3   5   1   11.45    0.45
   2  -5  -1   81.93    2.57
   2  -5  -1   79.53    2.69
  -2  -5   1   87.71    2.91
   2  -5  -1   77.45    2.55
  -2  -5   1   77.38    2.73
  -2  -5   1   77.10    2.60
  -2   5   1   77.08    2.71
   2   5  -1   80.44    2.61
  -2   5   1   77.48    2.68
   2   5  -1   74.78    2.82
   2   5  -1   77.62    2.66
   2   5  -1   75.58    3.05
  -2   5   1   77.10    2.55
   1  -5  -1    0.86    0.15
   1  -5  -1    0.58    0.10
  -1  -5   1    0.65    0.14
   1  -5  -1    0.54    0.11
  -1  -5   1    0.59    0.15
   1  -5  -1    0.75    0.15
  -1  -5   1    0.68    0.17
  -1  -5   1    0.83    0.17
   1   5  -1    0.66    0.14
  -1   5   1    0.61    0.11
  -1   5   1    0.87    0.14
  -1   5   1    0.71    0.11
   1   5  -1    0.63    0.17
   1   5  -1    0.67    0.15
   1   5  -1    0.46    0.15
  -1   5   1    0.47    0.15
   1   5  -1    0.57    0.14
   0  -5  -1    1.01    0.15
   0  -5  -1    1.09    0.12
   0  -5   1    1.22    0.17
   0  -5  -1    1.44    0.20
   0  -5   1    0.96    0.12
   0  -5   1    1.15    0.15
   0  -5  -1    1.27    0.19
   0   5   1    0.95    0.13
   0   5  -1    1.34    0.17
   0   5   1    1.07    0.14
   0   5  -1    1.28    0.14
   0   5  -1    1.14    0.21
   0   5   1    1.29    0.18
   0   5   1    1.08    0.20
   0   5  -1    1.04    0.17
  -1  -5  -1    9.89    0.51
  -1  -5  -1    9.58    0.54
   1  -5   1    9.51    0.40
   1  -5   1    8.65    0.43
  -1  -5  -1    9.24    0.39
   1  -5   1    9.80    0.45
  -1  -5  -1    9.26    0.43
   1   5   1    9.14    0.40
   1   5   1    8.72    0.51
  -1   5  -1    9.16    0.47
  -1   5  -1    9.12    0.40
  -1   5  -1    9.32    0.45
   1   5   1    9.71    0.53
   1   5   1    9.02    0.46
   2  -5   1    5.83    0.27
  -2  -5  -1    5.33    0.37
   2  -5   1    5.35    0.31
  -2  -5  -1    5.30    0.32
   2  -5   1    5.30    0.27
  -2  -5  -1    5.38    0.31
  -2   5  -1    5.13    0.26
   2   5   1    5.09    0.40
   2   5   1    4.76    0.38
   2   5   1    5.15    0.30
   2   5   1    4.98    0.37
  -3  -5  -1    5.42    0.33
   3  -5   1    5.73    0.34
  -3  -5  -1    5.70    0.32
   3  -5   1    5.82    0.29
   3  -5   1    6.05    0.24
   3   5   1    5.08    0.42
   3   5   1    5.81    0.49
  -3   5  -1    5.24    0.29
   3   5   1    5.53    0.37
  -3   5  -1    5.62    0.32
   4  -5   1    3.17    0.28
   4  -5   1    2.87    0.21
  -4  -5  -1    2.28    0.27
  -4  -5  -1    2.83    0.24
   4   5   1    2.76    0.40
  -4   5  -1    2.46    0.24
   4   5   1    2.62    0.37
  -4   5  -1    2.97    0.23
   4   5   1    2.53    0.30
  -5  -5  -1    6.80    0.40
   5  -5   1    7.07    0.28
  -5  -5  -1    6.39    0.45
   5  -5   1    6.99    0.36
   5  -5   1    7.30    0.44
   5   5   1    7.30    0.56
  -5   5  -1    6.84    0.39
   5   5   1    6.86    0.61
  -5   5  -1    6.81    0.37
   5   5   1    6.08    0.50
  -6  -5  -1    0.49    0.19
   6  -5   1    0.76    0.16
   6  -5   1    0.80    0.25
   6  -5   1    0.70    0.10
   6   5   1    0.87    0.29
   6   5   1   -0.03    0.27
   6   5   1    0.89    0.26
  -6   5  -1    0.64    0.19
  -6   5  -1    0.73    0.19
  -7  -5  -1    2.94    0.33
   7  -5   1    3.45    0.40
   7  -5   1    2.98    0.30
   7   5   1    3.10    0.40
  -7   5  -1    3.30    0.32
   7   5   1    2.45    0.46
  -7   5  -1    3.41    0.33
   7   5   1    2.95    0.46
   8  -5   1    3.54    0.43
  -8  -5  -1    3.13    0.36
  -8   5  -1    3.12    0.34
   8   5   1    2.84    0.55
   8   5   1    3.09    0.43
   8   5   1    2.68    0.60
  -9  -5  -1    2.02    0.34
   9  -5   1    2.11    0.39
   9   5   1    2.10    0.53
  -9   5  -1    1.94    0.32
   9   5   1    1.52    0.58
   9   5   1    1.97    0.38
 -10  -5  -1    4.31    0.45
  10  -5   1    4.30    0.53
  10   5   1    2.63    0.58
 -10   5  -1    3.35    0.40
  10   5   1    3.46    0.52
  10   5   1    3.36    0.57
  11  -5   1    0.57    0.37
 -11  -5  -1   -0.31    0.36
  11   5   1    0.02    0.39
 -11   5  -1    0.55    0.33
  11   5   1    0.44    0.43
  12  -5   1    1.45    0.46
 -12  -5  -1    1.24    0.45
  12   5   1    1.61    0.69
 -12   5  -1    1.01    0.34
  12   5   1    1.31    0.63
  13  -5   1    0.53    0.43
  13   5   1    0.26    0.67
 -13   5  -1   -0.39    0.30
  13  -6  -1    1.49    0.41
  13   6  -1    0.68    0.51
 -12  -6   1   -0.60    0.35
  12  -6  -1    0.15    0.36
  12   6  -1   -0.51    0.57
 -12   6   1    0.50    0.28
  12   6  -1   -0.38    0.56
  11  -6  -1    0.38    0.30
 -11  -6   1    0.20    0.36
  11   6  -1    0.80    0.59
  11   6  -1   -0.34    0.52
 -11   6   1    0.28    0.26
 -10  -6   1    4.93    0.53
  10  -6  -1    5.61    0.53
  10   6  -1    4.47    0.77
 -10   6   1    4.93    0.44
  10   6  -1    3.40    0.69
  10   6  -1    4.73    0.54
   9  -6  -1    0.61    0.26
  -9  -6   1   -0.09    0.22
   9   6  -1    0.00    0.50
   9   6  -1    0.02    0.42
   9   6  -1   -0.04    0.35
  -9   6   1    0.06    0.21
   8  -6  -1    7.05    0.46
   8  -6  -1    6.85    0.50
  -8  -6   1    6.47    0.48
   8   6  -1    6.86    0.77
   8   6  -1    7.70    0.83
   8   6  -1    5.75    0.53
  -8   6   1    7.16    0.44
  -7  -6   1    4.24    0.42
   7  -6  -1    4.80    0.37
  -7  -6   1    4.39    0.44
   7  -6  -1    4.35    0.34
   7   6  -1    4.33    0.55
   7   6  -1    3.91    0.54
   7   6  -1    4.56    0.51
  -7   6   1    4.72    0.34
   6  -6  -1    1.57    0.24
  -6  -6   1    1.62    0.30
   6  -6  -1    1.70    0.17
   6  -6  -1    1.75    0.20
  -6  -6   1    1.67    0.25
  -6   6   1    1.81    0.19
  -6   6   1    1.67    0.22
   6   6  -1    1.25    0.29
   6   6  -1    1.73    0.36
   6   6  -1    1.50    0.36
  -6   6   1    1.65    0.19
   5  -6  -1    3.64    0.30
   5  -6  -1    3.93    0.27
  -5  -6   1    3.24    0.30
   5  -6  -1    3.53    0.22
  -5  -6   1    3.79    0.32
   5   6  -1    3.86    0.46
   5   6  -1    3.20    0.42
   5   6  -1    3.23    0.36
  -5   6   1    3.78    0.25
   4  -6  -1   57.85    1.89
  -4  -6   1   58.67    2.09
   4  -6  -1   58.40    2.02
  -4  -6   1   56.53    1.98
   4   6  -1   57.00    2.07
   4   6  -1   56.75    2.23
  -4   6   1   55.01    1.90
   4   6  -1   57.52    2.40
  -3  -6   1    1.35    0.19
   3  -6  -1    1.49    0.13
  -3  -6   1    1.43    0.23
   3  -6  -1    1.43    0.17
   3   6  -1    1.47    0.33
  -3   6   1    1.76    0.18
   3   6  -1    1.53    0.24
   3   6  -1    1.29    0.30
  -3   6   1    1.51    0.15
  -2  -6   1   94.75    3.19
   2  -6  -1   96.42    3.31
   2  -6  -1  105.87    3.66
  -2  -6   1   97.07    3.36
   2  -6  -1   96.83    3.14
  -2   6   1   95.89    3.14
  -2   6   1   93.46    3.34
   2   6  -1   93.73    3.46
   2   6  -1   95.89    3.26
   2   6  -1   97.13    3.75
   1  -6  -1   28.11    1.06
   1  -6  -1   30.39    1.22
  -1  -6   1   28.94    1.24
   1  -6  -1   27.98    1.00
   1  -6  -1   32.08    1.14
  -1  -6   1   28.41    1.09
  -1  -6   1   28.48    1.04
  -1  -6   1   32.00    1.19
   1   6  -1   28.23    1.10
   1   6  -1   28.70    1.25
  -1   6   1   26.61    1.11
  -1   6   1   27.50    1.05
  -1   6   1   28.09    1.00
   1   6  -1   27.28    1.16
   1   6  -1   29.29    1.04
   0  -6   1    0.52    0.15
   0  -6  -1    0.48    0.18
   0  -6  -1    0.40    0.17
   0  -6   1    0.43    0.16
   0  -6   1    0.35    0.11
   0  -6  -1    0.38    0.09
   0  -6  -1    0.36    0.14
   0   6  -1    0.24    0.19
   0   6  -1    0.42    0.11
   0   6   1    0.40    0.16
   0   6  -1    0.40    0.16
   0   6   1    0.68    0.19
   0   6   1    0.36    0.12
  -1  -6  -1   65.87    2.35
  -1  -6  -1   66.71    2.23
  -1  -6  -1   71.90    2.46
   1  -6   1   65.64    2.35
   1  -6   1   66.50    2.23
   1  -6   1   69.84    2.56
  -1   6  -1   66.51    2.41
   1   6   1   67.15    2.23
  -1   6  -1   67.05    2.23
   1   6   1   62.59    2.43
   1   6   1   66.29    2.30
  -1   6  -1   68.07    2.55
   1   6   1   66.78    2.64
   2  -6   1    1.72    0.21
  -2  -6  -1    1.98    0.21
  -2  -6  -1    2.13    0.22
   2  -6   1    2.19    0.17
   2  -6   1    1.80    0.18
   2   6   1    1.78    0.27
   2   6   1    1.67    0.27
  -2   6  -1    1.87    0.17
   2   6   1    1.87    0.29
  -2   6  -1    2.11    0.25
  -3  -6  -1    6.72    0.36
  -3  -6  -1    6.81    0.38
   3  -6   1    7.03    0.31
   3  -6   1    7.03    0.39
   3  -6   1    6.16    0.31
  -3   6  -1    6.14    0.33
   3   6   1    5.64    0.52
   3   6   1    6.21    0.46
   3   6   1    6.38    0.55
  -4  -6  -1    1.28    0.24
  -4  -6  -1    1.32    0.21
   4  -6   1    1.47    0.18
   4  -6   1    1.33    0.23
   4   6   1    1.04    0.37
  -4   6  -1    1.17    0.20
   4   6   1    0.72    0.28
  -4   6  -1    1.46    0.18
   4   6   1    1.31    0.33
   5  -6   1   17.52    0.67
   5  -6   1   17.88    0.77
  -5  -6  -1   15.13    0.74
  -5  -6  -1   15.58    0.71
   5   6   1   16.80    0.97
  -5   6  -1   15.53    0.67
   5   6   1   17.41    0.96
  -5   6  -1   17.30    0.71
   5   6   1   16.14    0.81
  -6  -6  -1    0.75    0.22
  -6  -6  -1    1.15    0.28
   6  -6   1    1.24    0.20
   6  -6   1    1.25    0.27
   6   6   1    1.25    0.37
   6   6   1    0.52    0.33
  -6   6  -1    1.23    0.23
  -6   6  -1    1.21    0.21
   6   6   1    0.86    0.32
   7  -6   1   -0.10    0.16
   7  -6   1    0.01    0.25
  -7  -6  -1   -0.21    0.19
   7   6   1   -0.56    0.33
  -7   6  -1    0.48    0.22
   7   6   1   -0.49    0.29
   7   6   1   -0.14    0.26
  -8  -6  -1    2.56    0.35
   8  -6   1    3.15    0.41
   8   6   1    2.71    0.56
   8   6   1    2.86    0.43
  -8   6  -1    2.75    0.34
   8   6   1    2.15    0.50
  -9  -6  -1    0.37    0.25
   9  -6   1    0.42    0.30
   9   6   1   -0.52    0.51
   9   6   1    0.24    0.30
   9   6   1   -0.17    0.30
  -9   6  -1    0.36    0.28
  10  -6   1    0.37    0.34
 -10  -6  -1   -0.10    0.34
  10   6   1    0.53    0.32
  10   6   1   -0.24    0.46
  10   6   1    0.47    0.57
 -10   6  -1   -0.04    0.29
 -11  -6  -1   -0.43    0.35
  11  -6   1   -0.03    0.33
  11   6   1    0.61    0.32
  11   6   1    0.85    0.47
 -11   6  -1    0.43    0.30
  11   6   1   -0.39    0.52
 -12  -6  -1    3.54    0.58
  12  -6   1    3.44    0.53
  12   6   1    4.80    0.87
  12   6   1    2.08    0.74
 -12   6  -1    4.16    0.49
 -12  -7   1    0.05    0.38
  12  -7  -1    0.48    0.37
  12   7  -1   -0.65    0.59
  12   7  -1   -0.30    0.40
 -12   7   1   -0.09    0.26
 -11  -7   1   -0.13    0.37
  11  -7  -1   -0.23    0.32
 -11   7   1    0.11    0.25
  11   7  -1    0.44    0.44
  11   7  -1   -0.16    0.56
 -10  -7   1    0.90    0.39
  10  -7  -1    0.81    0.33
  10   7  -1    0.46    0.43
  10   7  -1    0.72    0.56
 -10   7   1    0.88    0.27
  10   7  -1    0.62    0.33
   9  -7  -1    4.71    0.43
  -9  -7   1    3.10    0.47
   9   7  -1    4.15    0.58
   9   7  -1    3.35    0.61
   9   7  -1    3.83    0.69
  -9   7   1    4.49    0.41
   8  -7  -1    0.52    0.25
  -8  -7   1    0.08    0.22
  -8  -7   1    0.31    0.23
   8   7  -1    0.33    0.28
   8   7  -1    0.70    0.41
   8   7  -1    0.53    0.46
  -8   7   1    0.20    0.21
  -7  -7   1   12.30    0.66
   7  -7  -1   13.57    0.64
  -7  -7   1   11.81    0.67
   7  -7  -1   13.50    0.62
   7   7  -1   13.61    0.84
   7   7  -1   11.87    0.91
   7   7  -1   12.37    0.96
   6  -7  -1   -0.47    0.16
  -6  -7   1   -0.02    0.17
   6  -7  -1    0.09    0.10
   6  -7  -1   -0.18    0.10
  -6  -7   1   -0.39    0.23
   6   7  -1   -0.27    0.37
   6   7  -1    0.18    0.36
  -6   7   1   -0.23    0.12
   6   7  -1   -0.34    0.19
  -6   7   1   -0.26    0.10
   5  -7  -1   15.41    0.65
  -5  -7   1   14.87    0.71
   5  -7  -1   15.25    0.58
  -5  -7   1   14.95    0.71
   5   7  -1   14.97    0.87
   5   7  -1   16.73    1.00
  -5   7   1   14.08    0.60
   5   7  -1   14.19    0.76
   4  -7  -1   15.93    0.66
  -4  -7   1   16.46    0.73
   4  -7  -1   15.62    0.59
  -4  -7   1   15.85    0.69
  -4   7   1   15.33    0.61
   4   7  -1   15.94    0.91
   4   7  -1   17.00    0.97
   4   7  -1   15.29    0.77
  -3  -7   1    0.64    0.18
  -3  -7   1    0.47    0.16
   3  -7  -1    0.52    0.14
   3  -7  -1    0.43    0.15
   3  -7  -1    0.78    0.12
   3   7  -1   -0.02    0.26
   3   7  -1    0.73    0.27
  -3   7   1    0.54    0.12
   3   7  -1    0.65    0.26
  -3   7   1    0.86    0.17
  -2  -7   1    1.44    0.20
   2  -7  -1    1.44    0.19
  -2  -7   1    1.29    0.21
   2  -7  -1    1.58    0.16
   2  -7  -1    1.48    0.22
   2   7  -1    1.47    0.24
   2   7  -1    1.67    0.31
  -2   7   1    1.60    0.18
   2   7  -1    1.05    0.25
  -2   7   1    1.58    0.21
   1  -7  -1   11.26    0.54
   1  -7  -1    8.16    0.53
   1  -7  -1    9.98    0.42
  -1  -7   1    9.27    0.49
  -1  -7   1    9.74    0.44
   1  -7  -1    9.28    0.45
   1   7  -1   10.00    0.60
   1   7  -1    8.98    0.54
  -1   7   1    9.36    0.46
  -1   7   1    9.64    0.51
  -1   7   1    9.61    0.42
   1   7  -1    8.93    0.50
   0  -7   1    8.67    0.44
   0  -7   1    9.01    0.52
   0  -7  -1    9.06    0.42
   0  -7  -1    9.13    0.44
   0  -7   1    8.54    0.45
   0  -7  -1    9.72    0.51
   0   7  -1    9.69    0.54
   0   7  -1    8.97    0.44
   0   7   1    9.43    0.43
   0   7   1    8.95    0.47
   0   7  -1    8.98    0.48
   0   7  -1    8.52    0.51
   0   7   1    8.18    0.52
  -1  -7  -1   33.08    1.28
  -1  -7  -1   29.94    1.10
   1  -7   1   30.34    1.18
   1  -7   1   31.73    1.29
   1  -7   1   30.62    1.11
  -1  -7  -1   30.41    1.18
   1   7   1   31.97    1.38
  -1   7  -1   31.12    1.23
   1   7   1   29.61    1.27
  -1   7  -1   29.95    1.11
   1   7   1   30.05    1.19
   1   7   1   30.89    1.12
   2  -7   1    0.48    0.12
   2  -7   1    0.31    0.18
   2  -7   1    0.12    0.12
  -2  -7  -1    0.46    0.14
  -2  -7  -1    0.38    0.19
   2   7   1    0.24    0.17
  -2   7  -1    0.30    0.20
  -2   7  -1    0.61    0.13
   2   7   1    0.34    0.22
   2   7   1    0.26    0.25
  -3  -7  -1    0.09    0.17
   3  -7   1   -0.21    0.08
   3  -7   1    0.06    0.17
  -3  -7  -1    0.13    0.15
   3  -7   1    0.03    0.12
   3   7   1    0.01    0.22
   3   7   1   -0.30    0.27
  -3   7  -1    0.15    0.19
  -3   7  -1   -0.08    0.12
   3   7   1   -0.02    0.18
  -4  -7  -1   -0.23    0.14
   4  -7   1   -0.27    0.17
  -4  -7  -1   -0.28    0.13
   4  -7   1   -0.28    0.12
   4  -7   1   -0.04    0.03
   4  -7   1    0.04    0.03
  -4   7  -1   -0.25    0.16
   4   7   1   -0.37    0.26
  -4   7  -1   -0.04    0.13
   4   7   1   -0.58    0.24
   4   7   1   -0.31    0.21
   5  -7   1    0.04    0.14
  -5  -7  -1   -0.24    0.16
  -5  -7  -1   -0.15    0.24
   5  -7   1    0.16    0.21
   5   7   1   -0.02    0.23
   5   7   1   -0.30    0.20
  -5   7  -1    0.23    0.16
   5   7   1   -0.33    0.26
   6  -7   1   21.85    0.98
   6  -7   1   21.62    0.86
  -6  -7  -1   23.78    1.02
  -6  -7  -1   21.36    0.93
  -6   7  -1   22.31    0.91
   6   7   1   20.92    1.22
   6   7   1   21.69    1.24
   6   7   1   21.86    1.10
  -6   7  -1   21.19    0.88
   7  -7   1    7.16    0.53
  -7  -7  -1    6.43    0.49
  -7   7  -1    7.55    0.48
   7   7   1    7.06    0.71
   7   7   1    6.47    0.77
   7   7   1    7.35    0.69
  -8  -7  -1   12.68    0.71
   8  -7   1   13.61    0.77
   8   7   1   13.30    0.97
   8   7   1   13.60    1.00
   8   7   1   12.39    0.88
  -8   7  -1   13.95    0.70
   9  -7   1    5.81    0.55
  -9  -7  -1    4.84    0.49
   9   7   1    4.44    0.72
   9   7   1    4.53    0.56
  -9   7  -1    5.91    0.49
   9   7   1    4.70    0.70
  10  -7   1    5.91    0.59
 -10  -7  -1    5.13    0.53
  10   7   1    6.18    0.88
  10   7   1    5.29    0.61
  10   7   1    5.22    0.82
 -10   7  -1    5.72    0.52
 -11  -7  -1   -0.57    0.36
  11  -7   1    0.33    0.40
  11   7   1    0.54    0.59
 -11   7  -1   -0.04    0.28
  11   7   1    0.07    0.57
  11   7   1    0.17    0.40
 -12  -7  -1    1.50    0.51
  12  -7   1    1.95    0.49
  12   7   1    0.94    0.68
  12   7   1    1.65    0.58
 -12   7  -1    2.26    0.42
  12  -8  -1   -0.38    0.33
  12   8  -1   -0.68    0.61
  11  -8  -1    4.48    0.50
 -11  -8   1    2.97    0.46
  11   8  -1    3.04    0.68
  11   8  -1    3.81    0.80
  10  -8  -1    3.80    0.45
 -10  -8   1    3.11    0.43
  10   8  -1    2.84    0.48
  10   8  -1    2.95    0.75
  10   8  -1    2.78    0.71
   9  -8  -1    3.42    0.40
  -9  -8   1    3.42    0.48
   9   8  -1    3.50    0.58
   9   8  -1    2.83    0.71
   9   8  -1    1.47    0.61
   8  -8  -1    0.48    0.26
  -8  -8   1    0.22    0.32
  -8  -8   1    0.34    0.24
   8   8  -1   -0.30    0.48
   8   8  -1    0.03    0.38
   8   8  -1   -0.17    0.31
  -7  -8   1    3.25    0.43
  -7  -8   1    2.26    0.34
   7  -8  -1    3.06    0.33
   7   8  -1    2.62    0.43
   7   8  -1    2.82    0.59
   7   8  -1    2.32    0.59
  -6  -8   1    1.24    0.27
   6  -8  -1    1.35    0.17
   6  -8  -1    1.36    0.23
  -6  -8   1    1.44    0.34
   6   8  -1    1.49    0.41
   6   8  -1    1.09    0.39
   6   8  -1    1.20    0.38
  -5  -8   1    7.40    0.55
  -5  -8   1    9.25    0.59
   5  -8  -1    9.01    0.47
   5  -8  -1    9.36    0.40
   5   8  -1    8.47    0.72
   5   8  -1    7.31    0.65
   5   8  -1    8.48    0.69
  -5   8   1    8.82    0.41
   4  -8  -1    0.53    0.13
  -4  -8   1    0.20    0.17
   4  -8  -1    0.29    0.17
   4  -8  -1    0.52    0.16
  -4  -8   1    0.48    0.26
   4   8  -1    0.55    0.34
  -4   8   1    0.33    0.13
  -4   8   1    0.42    0.17
   4   8  -1    0.33    0.37
   4   8  -1    0.22    0.23
   3  -8  -1   31.84    1.12
   3  -8  -1   31.90    1.21
  -3  -8   1   33.14    1.27
   3  -8  -1   33.85    1.36
  -3  -8   1   31.38    1.20
  -3   8   1   31.15    1.13
   3   8  -1   31.91    1.32
   3   8  -1   32.29    1.50
  -3   8   1   31.78    1.24
   3   8  -1   29.68    1.38
  -2  -8   1   55.31    2.05
  -2  -8   1   54.48    1.94
   2  -8  -1   56.34    1.89
   2  -8  -1   57.63    2.01
   2   8  -1   53.08    2.16
   2   8  -1   55.15    2.04
   2   8  -1   57.61    2.36
  -2   8   1   57.75    1.90
  -2   8   1   57.76    1.96
  -2   8   1   55.05    2.06
  -1  -8   1    0.88    0.24
  -1  -8   1    0.67    0.16
   1  -8  -1    0.86    0.20
   1  -8  -1    1.32    0.25
   1  -8  -1    0.86    0.16
  -1   8   1    1.15    0.17
   1   8  -1    0.96    0.27
  -1   8   1    0.89    0.18
   1   8  -1    0.32    0.19
  -1   8   1    0.72    0.24
   1   8  -1    0.76    0.24
   0  -8  -1    0.34    0.22
   0  -8  -1   -0.02    0.14
   0  -8  -1    0.17    0.19
   0  -8   1    0.05    0.20
   0  -8   1    0.25    0.13
   0   8  -1    0.27    0.20
   0   8  -1    0.07    0.22
   0   8   1    0.25    0.23
   0   8   1    0.28    0.18
   0   8  -1    0.33    0.27
   0   8   1    0.29    0.15
   1  -8   1    1.98    0.25
   1  -8   1    1.39    0.25
  -1  -8  -1    1.44    0.26
  -1  -8  -1    1.41    0.22
   1  -8   1    1.34    0.21
  -1   8  -1    1.93    0.28
   1   8   1    1.67    0.32
   1   8   1    1.62    0.29
   1   8   1    1.80    0.31
  -1   8  -1    2.13    0.24
   2  -8   1    0.22    0.19
   2  -8   1    0.02    0.14
  -2  -8  -1    0.16    0.17
   2  -8   1    0.28    0.16
  -2  -8  -1    0.15    0.14
   2   8   1   -0.06    0.27
  -2   8  -1    0.38    0.16
   2   8   1   -0.16    0.25
   2   8   1   -0.27    0.19
  -2   8  -1    0.28    0.21
  -3  -8  -1   18.49    0.79
   3  -8   1   20.69    0.82
  -3  -8  -1   18.79    0.84
   3  -8   1   19.27    0.76
   3  -8   1   19.15    0.84
   3   8   1   19.43    0.93
  -3   8  -1   19.76    0.89
   3   8   1   20.21    1.05
  -3   8  -1   18.03    0.76
   3   8   1   18.72    1.02
  -4  -8  -1    5.23    0.40
   4  -8   1    5.46    0.25
   4  -8   1    4.89    0.40
   4  -8   1    5.33    0.33
  -4  -8  -1    5.15    0.43
   4   8   1    4.89    0.46
   4   8   1    4.73    0.58
  -4   8  -1    5.21    0.34
   4   8   1    5.44    0.61
  -4   8  -1    5.47    0.45
  -5  -8  -1   46.78    1.84
  -5  -8  -1   47.99    1.77
   5  -8   1   49.20    1.82
   5  -8   1   47.34    1.67
  -5   8  -1   51.66    1.85
   5   8   1   46.87    2.06
   5   8   1   47.87    2.17
  -5   8  -1   43.88    1.68
   5   8   1   50.10    1.91
  -6  -8  -1    0.54    0.31
  -6  -8  -1    0.45    0.31
   6  -8   1    0.56    0.28
   6  -8   1    0.57    0.19
  -6   8  -1    0.75    0.24
   6   8   1    0.77    0.35
   6   8   1   -0.12    0.36
   6   8   1    0.33    0.36
  -7  -8  -1   17.65    0.89
  -7  -8  -1   18.99    0.92
   7  -8   1   18.15    0.89
   7   8   1   17.79    0.98
   7   8   1   18.39    1.13
   7   8   1   17.80    1.16
  -8  -8  -1    0.33    0.34
   8  -8   1    0.04    0.28
   8   8   1   -0.10    0.32
   8   8   1    0.02    0.52
  -8   8  -1    0.14    0.28
   8   8   1    0.14    0.29
  -9  -8  -1    0.18    0.27
   9  -8   1    0.44    0.32
   9   8   1   -0.58    0.26
  -9   8  -1    0.22    0.30
   9   8   1   -0.15    0.52
   9   8   1   -0.12    0.54
  10  -8   1    0.35    0.37
 -10  -8  -1    0.55    0.31
  10   8   1    0.18    0.42
  10   8   1    0.69    0.37
 -10   8  -1    1.07    0.33
  10   8   1    1.19    0.50
 -11  -8  -1    0.69    0.34
  11  -8   1    0.62    0.41
  11   8   1    0.46    0.65
  11   8   1    0.66    0.37
 -11   8  -1    1.07    0.34
  11   8   1   -0.03    0.45
  12  -8   1    0.41    0.41
  12   8   1   -0.69    0.64
 -12   8  -1    0.24    0.32
 -11  -9   1    0.36    0.43
  11  -9  -1    0.35    0.34
  11   9  -1   -0.39    0.43
  11   9  -1    0.38    0.51
  10  -9  -1    1.88    0.37
 -10  -9   1    0.98    0.43
  10   9  -1    1.08    0.50
  10   9  -1    0.63    0.62
  10   9  -1    1.55    0.54
  -9  -9   1    6.48    0.58
   9  -9  -1    7.28    0.56
   9   9  -1    7.44    0.69
   9   9  -1    6.95    0.84
   9   9  -1    5.90    0.89
  -8  -9   1    6.49    0.53
  -8  -9   1    4.47    0.48
   8  -9  -1    5.99    0.49
   8   9  -1    4.99    0.64
   8   9  -1    4.05    0.65
   8   9  -1    4.91    0.69
  -7  -9   1    4.98    0.52
  -7  -9   1    3.89    0.44
   7  -9  -1    4.43    0.42
   7   9  -1    3.61    0.66
   7   9  -1    4.85    0.66
   7   9  -1    4.47    0.60
   6  -9  -1    3.64    0.35
  -6  -9   1    4.01    0.42
  -6  -9   1    4.08    0.46
   6   9  -1    3.82    0.58
   6   9  -1    2.83    0.60
   6   9  -1    4.02    0.49
  -5  -9   1   -0.14    0.27
   5  -9  -1    0.01    0.20
  -5  -9   1    0.18    0.22
   5   9  -1    0.42    0.35
   5   9  -1   -0.01    0.34
   5   9  -1   -0.12    0.39
  -4  -9   1    4.51    0.39
   4  -9  -1    5.25    0.37
  -4  -9   1    4.76    0.43
   4  -9  -1    5.96    0.32
  -4   9   1    4.99    0.31
   4   9  -1    4.72    0.54
  -4   9   1    4.82    0.38
   4   9  -1    5.08    0.58
   4   9  -1    4.48    0.56
  -3  -9   1    1.55    0.27
  -3  -9   1    1.36    0.28
   3  -9  -1    1.61    0.23
   3  -9  -1    1.85    0.19
   3   9  -1    1.08    0.38
  -3   9   1    1.73    0.26
   3   9  -1    1.41    0.30
   3   9  -1    2.00    0.45
  -3   9   1    1.80    0.22
   2  -9  -1    0.03    0.13
  -2  -9   1    0.23    0.16
   2  -9  -1    0.42    0.18
  -2  -9   1   -0.04    0.23
   2   9  -1    0.11    0.20
  -2   9   1    0.09    0.19
   2   9  -1    0.10    0.21
  -2   9   1    0.05    0.21
  -2   9   1    0.21    0.15
   2   9  -1    0.18    0.32
   1  -9  -1   29.88    1.19
  -1  -9   1   29.38    1.13
   1  -9  -1   30.90    1.11
   1  -9  -1   35.41    1.32
  -1  -9   1   30.25    1.21
  -1   9   1   29.69    1.19
  -1   9   1   28.72    1.25
   1   9  -1   30.71    1.39
   1   9  -1   28.52    1.33
  -1   9   1   31.26    1.12
   1   9  -1   28.52    1.22
   0  -9   1    1.40    0.24
   0  -9  -1    1.80    0.23
   0  -9   1    1.52    0.28
   0  -9  -1    1.57    0.26
   0   9  -1    1.39    0.27
   0   9  -1    1.60    0.30
   0   9  -1    1.15    0.29
   0   9   1    1.37    0.25
   0   9   1    1.33    0.31
   1  -9   1    4.62    0.34
   1  -9   1    4.39    0.34
  -1  -9  -1    5.33    0.36
  -1  -9  -1    4.40    0.39
   1   9   1    4.02    0.47
  -1   9  -1    4.55    0.46
   1   9   1    4.20    0.39
   2  -9   1    0.07    0.15
  -2  -9  -1   -0.04    0.18
  -2  -9  -1    0.32    0.17
   2  -9   1   -0.13    0.16
   2  -9   1   -0.18    0.21
   2   9   1   -0.21    0.28
   2   9   1    0.29    0.30
  -2   9  -1    0.20    0.25
   2   9   1   -0.26    0.21
  -3  -9  -1   31.70    1.21
   3  -9   1   31.44    1.17
  -3  -9  -1   32.07    1.29
   3  -9   1   35.20    1.32
   3  -9   1   30.82    1.25
  -3   9  -1   30.66    1.18
  -3   9  -1   32.01    1.32
   3   9   1   31.61    1.32
   3   9   1   31.29    1.53
   3   9   1   30.88    1.46
  -4  -9  -1   12.68    0.71
   4  -9   1   11.78    0.54
   4  -9   1   10.89    0.51
  -4  -9  -1   11.18    0.59
   4  -9   1   11.43    0.62
   4   9   1   11.05    0.86
  -4   9  -1   10.82    0.54
  -4   9  -1   11.18    0.66
   4   9   1   11.43    0.83
   4   9   1   11.07    0.77
  -5  -9  -1   28.45    1.24
   5  -9   1   29.60    1.09
   5  -9   1   30.46    1.22
  -5  -9  -1   28.54    1.18
  -5   9  -1   28.44    1.21
   5   9   1   29.03    1.52
   5   9   1   28.93    1.30
   5   9   1   28.16    1.42
  -6  -9  -1    2.80    0.35
   6  -9   1    2.31    0.34
  -6  -9  -1    2.16    0.41
   6   9   1    1.83    0.47
   6   9   1    1.80    0.44
   6   9   1    2.25    0.42
  -7  -9  -1    0.69    0.28
  -7  -9  -1    0.81    0.29
   7  -9   1    0.72    0.33
   7   9   1    0.31    0.53
   7   9   1    0.29    0.32
   7   9   1    1.22    0.43
  -8  -9  -1    0.62    0.29
   8  -9   1    0.26    0.29
   8   9   1   -0.02    0.41
   8   9   1    0.20    0.39
   8   9   1    0.04    0.31
   9  -9   1   10.65    0.72
  -9  -9  -1    9.16    0.76
   9   9   1    8.76    1.02
   9   9   1   10.09    0.96
   9   9   1    9.76    0.79
  10  -9   1    1.06    0.41
 -10  -9  -1    0.81    0.44
  10   9   1    0.33    0.36
  10   9   1    0.52    0.65
  10   9   1    0.16    0.44
 -11  -9  -1   -0.39    0.41
  11  -9   1   -0.31    0.36
  11   9   1   -0.15    0.63
  11   9   1    0.24    0.34
  11   9   1   -0.79    0.62
  11 -10  -1    2.80    0.44
 -11 -10   1    2.80    0.47
  11  10  -1    2.67    0.71
  11  10  -1    3.91    0.87
 -10 -10   1    1.02    0.35
  10 -10  -1    1.72    0.36
  10  10  -1    2.46    0.58
  10  10  -1    0.23    0.63
  10  10  -1    0.76    0.49
   9 -10  -1    7.13    0.56
  -9 -10   1    5.52    0.57
  -9 -10   1    6.55    0.60
   9  10  -1    5.73    0.90
   9  10  -1    6.59    0.85
   9  10  -1    5.29    0.73
  -8 -10   1    4.28    0.48
  -8 -10   1    5.30    0.59
   8 -10  -1    4.79    0.48
   8  10  -1    4.57    0.70
   8  10  -1    5.35    0.67
   8  10  -1    3.57    0.66
   7 -10  -1    3.78    0.38
  -7 -10   1    4.32    0.47
  -7 -10   1    3.31    0.42
   7  10  -1    3.43    0.62
   7  10  -1    3.99    0.54
   7  10  -1    3.58    0.60
  -6 -10   1   -0.35    0.30
  -6 -10   1   -0.12    0.33
   6 -10  -1    0.02    0.22
   6  10  -1   -0.40    0.37
   6  10  -1   -0.11    0.33
   6  10  -1   -0.58    0.44
   5 -10  -1    4.45    0.38
  -5 -10   1    4.99    0.46
  -5 -10   1    4.64    0.47
   5  10  -1    4.49    0.58
   5  10  -1    4.41    0.61
   5  10  -1    4.63    0.68
   4 -10  -1   18.20    0.73
   4 -10  -1   18.65    0.82
  -4 -10   1   18.96    0.90
  -4 -10   1   18.21    0.84
   4  10  -1   19.70    1.21
   4  10  -1   18.27    1.13
   4  10  -1   16.92    0.94
  -4  10   1   18.01    0.87
  -3 -10   1   13.96    0.73
   3 -10  -1   14.27    0.68
   3 -10  -1   14.87    0.60
  -3 -10   1   14.75    0.69
   3  10  -1   12.88    0.78
  -3  10   1   12.92    0.69
   3  10  -1   15.03    1.00
   3  10  -1   14.96    0.96
  -3  10   1   14.56    0.70
   2 -10  -1   -0.03    0.14
   2 -10  -1   -0.03    0.19
  -2 -10   1   -0.45    0.18
  -2 -10   1   -0.15    0.22
  -2  10   1   -0.39    0.18
  -2  10   1   -0.18    0.15
   2  10  -1   -0.42    0.28
   2  10  -1   -0.38    0.28
   2  10  -1   -0.83    0.29
  -2  10   1   -0.37    0.21
  -1 -10   1   41.56    1.55
  -1 -10   1   43.62    1.66
   1 -10  -1   43.62    1.63
   1 -10  -1   43.66    1.53
   1  10  -1   44.92    1.91
   1  10  -1   42.21    1.80
  -1  10   1   44.14    1.63
   1  10  -1   40.23    1.65
  -1  10   1   41.89    1.71
   0 -10   1    0.12    0.20
   0 -10  -1    0.35    0.18
   0 -10   1    0.19    0.21
   0 -10  -1    0.35    0.15
   0  10  -1    0.28    0.25
   0  10   1    0.84    0.29
   0  10  -1    0.05    0.21
   0  10   1    0.47    0.29
   0  10  -1    0.26    0.31
   1 -10   1    0.32    0.26
  -1 -10  -1    0.35    0.17
   1 -10   1    0.24    0.21
  -1 -10  -1    0.07    0.20
   1  10   1    0.58    0.33
  -1  10  -1    0.35    0.30
   1  10   1    0.66    0.32
  -1  10  -1    0.18    0.27
   2 -10   1    2.34    0.28
   2 -10   1    2.07    0.34
  -2 -10  -1    2.12    0.31
  -2 -10  -1    2.09    0.27
   2  10   1    2.74    0.44
   2  10   1    2.28    0.45
  -2  10  -1    2.13    0.38
   2  10   1    1.69    0.45
  -3 -10  -1    3.69    0.43
   3 -10   1    3.72    0.33
   3 -10   1    3.96    0.39
  -3 -10  -1    3.15    0.33
   3  10   1    3.11    0.47
   3  10   1    3.29    0.43
  -3  10  -1    3.46    0.45
   3  10   1    2.90    0.45
  -4 -10  -1    8.97    0.55
  -4 -10  -1    9.59    0.60
   4 -10   1    9.78    0.59
   4 -10   1    9.05    0.49
   4  10   1    8.78    0.83
   4  10   1    8.99    0.74
   4  10   1    9.68    0.79
  -4  10  -1    9.06    0.59
  -5 -10  -1    1.15    0.27
   5 -10   1    0.82    0.28
  -5 -10  -1    0.87    0.36
   5  10   1    0.61    0.37
   5  10   1    0.85    0.46
   5  10   1    1.01    0.43
  -6 -10  -1   -0.31    0.21
  -6 -10  -1   -0.02    0.24
   6 -10   1   -0.24    0.28
   6  10   1   -0.44    0.46
   6  10   1   -0.23    0.31
   6  10   1   -0.18    0.40
   7 -10   1    1.36    0.34
  -7 -10  -1    2.20    0.45
  -7 -10  -1    1.21    0.40
   7  10   1    1.18    0.50
   7  10   1    1.25    0.46
   7  10   1    0.73    0.56
   8 -10   1   -0.14    0.32
  -8 -10  -1    0.50    0.38
   8  10   1    0.00    0.41
   8  10   1    0.19    0.45
   8  10   1   -0.21    0.39
   9 -10   1    0.41    0.37
  -9 -10  -1    0.28    0.30
   9  10   1    0.55    0.51
   9  10   1   -0.49    0.54
   9  10   1    0.71    0.62
  10 -10   1   -0.42    0.34
 -10 -10  -1    0.16    0.33
  10  10   1   -1.11    0.58
  10  10   1    0.86    0.65
  10  10   1    0.59    0.52
  11 -10   1    2.07    0.49
  11  10   1    2.62    0.63
  10 -11  -1    2.32    0.40
 -10 -11   1    2.12    0.50
  10  11  -1    0.90    0.75
  10  11  -1    3.44    0.64
  10  11  -1    2.51    0.65
  -9 -11   1    0.89    0.44
  -9 -11   1    0.79    0.44
   9 -11  -1    0.06    0.27
   9  11  -1    0.88    0.51
   9  11  -1    0.20    0.43
   9  11  -1    0.17    0.46
  -8 -11   1    0.22    0.39
   8 -11  -1   -0.01    0.27
  -8 -11   1    0.05    0.28
   8  11  -1    0.49    0.46
   8  11  -1   -0.71    0.50
   8  11  -1    0.56    0.37
   7 -11  -1    3.57    0.40
  -7 -11   1    3.86    0.46
  -7 -11   1    3.73    0.47
   7  11  -1    3.27    0.62
   7  11  -1    3.92    0.74
   7  11  -1    4.15    0.56
  -6 -11   1    4.52    0.51
   6 -11  -1    5.05    0.46
  -6 -11   1    5.64    0.57
   6  11  -1    3.94    0.63
   6  11  -1    5.97    0.81
   6  11  -1    3.41    0.59
  -5 -11   1    0.86    0.30
   5 -11  -1    0.86    0.27
  -5 -11   1    0.28    0.32
   5  11  -1    0.45    0.50
   5  11  -1    0.63    0.43
   5  11  -1    0.96    0.51
  -4 -11   1   10.69    0.66
  -4 -11   1   11.44    0.69
   4 -11  -1   10.90    0.59
   4  11  -1    9.24    0.79
  -4  11   1   10.56    0.61
   4  11  -1    9.57    0.84
   4  11  -1   10.86    0.74
  -3 -11   1    0.76    0.35
   3 -11  -1    0.84    0.19
   3 -11  -1    1.18    0.26
  -3 -11   1    0.62    0.30
   3  11  -1    1.10    0.36
   3  11  -1    0.48    0.37
  -3  11   1    1.11    0.30
   3  11  -1    0.98    0.35
  -3  11   1    1.51    0.30
   2 -11  -1   -0.06    0.17
   2 -11  -1    0.05    0.21
  -2 -11   1   -0.26    0.29
  -2 -11   1    0.19    0.26
   2  11  -1   -0.12    0.34
  -2  11   1    0.14    0.25
   2  11  -1    0.33    0.27
  -2  11   1    0.12    0.26
   2  11  -1   -0.28    0.35
  -1 -11   1    9.26    0.58
   1 -11  -1    9.79    0.53
  -1 -11   1    8.93    0.51
   1 -11  -1    9.99    0.51
   1  11  -1    8.88    0.74
  -1  11   1    9.73    0.63
   1  11  -1    8.77    0.68
  -1  11   1    8.22    0.62
   1  11  -1    8.30    0.74
   0 -11   1    1.44    0.25
   0 -11  -1    1.50    0.27
   0 -11  -1    1.44    0.32
   0 -11   1    1.02    0.28
   0  11  -1    0.65    0.36
   0  11   1    0.57    0.34
   0  11   1    1.30    0.37
   0  11  -1    0.50    0.38
  -1 -11  -1   96.22    3.28
   1 -11   1  100.36    3.48
   1 -11   1   96.21    3.27
  -1 -11  -1   98.93    3.49
  -1  11  -1   92.16    3.56
   1  11   1   92.05    3.60
   1  11   1  101.52    3.43
  -1  11  -1   97.53    3.39
   2 -11   1    2.03    0.28
   2 -11   1    2.15    0.35
  -2 -11  -1    1.90    0.31
  -2 -11  -1    1.56    0.31
  -2  11  -1    1.85    0.38
  -2  11  -1    1.98    0.38
   2  11   1    1.43    0.44
   2  11   1    1.92    0.37
  -3 -11  -1   17.42    0.84
   3 -11   1   17.00    0.75
   3 -11   1   18.71    0.87
  -3 -11  -1   18.24    0.92
  -3  11  -1   15.30    0.87
   3  11   1   16.70    0.92
   3  11   1   16.43    1.06
   3  11   1   18.14    1.09
  -4 -11  -1    4.19    0.45
   4 -11   1    3.89    0.42
  -4 -11  -1    4.37    0.42
   4  11   1    3.71    0.56
   4  11   1    4.35    0.64
   4  11   1    3.73    0.56
  -5 -11  -1   -0.29    0.20
  -5 -11  -1    0.30    0.35
   5 -11   1    0.13    0.27
   5  11   1   -0.72    0.40
   5  11   1   -0.20    0.41
   5  11   1   -0.55    0.42
   6 -11   1    5.71    0.52
  -6 -11  -1    5.80    0.60
  -6 -11  -1    5.14    0.54
   6  11   1    4.86    0.68
   6  11   1    5.26    0.68
   6  11   1    5.13    0.70
  -7 -11  -1    0.33    0.31
  -7 -11  -1   -0.30    0.36
   7 -11   1   -0.22    0.28
   7  11   1    0.34    0.47
   7  11   1    0.13    0.54
   7  11   1    0.37    0.41
  -8 -11  -1    3.49    0.46
  -8 -11  -1    2.74    0.45
   8 -11   1    3.23    0.48
   8  11   1    2.28    0.62
   8  11   1    2.54    0.60
   8  11   1    2.94    0.62
  -9 -11  -1    2.48    0.44
   9 -11   1    3.04    0.49
   9  11   1    3.56    0.81
   9  11   1    1.87    0.61
   9  11   1    2.29    0.62
  10 -11   1   -0.17    0.35
 -10 -11  -1    0.34    0.46
  10  11   1    0.17    0.39
  10  11   1   -0.63    0.44
  10  11   1   -1.08    0.63
 -10 -12   1    0.50    0.46
  10  12  -1    0.56    0.50
  10  12  -1    0.69    0.53
   9 -12  -1    3.03    0.42
  -9 -12   1    2.95    0.56
  -9 -12   1    3.04    0.57
   9  12  -1    3.21    0.68
   9  12  -1    4.39    0.78
   9  12  -1    2.95    0.55
  -8 -12   1    1.24    0.38
   8 -12  -1    1.27    0.33
  -8 -12   1    1.39    0.37
   8  12  -1    0.94    0.61
   8  12  -1   -0.34    0.59
   8  12  -1    1.09    0.43
  -7 -12   1    0.29    0.30
   7 -12  -1    0.17    0.27
  -7 -12   1    0.21    0.40
   7  12  -1    0.65    0.60
   7  12  -1   -0.34    0.30
   7  12  -1    0.16    0.56
  -6 -12   1    0.82    0.42
   6 -12  -1    0.15    0.25
  -6 -12   1    0.15    0.27
   6  12  -1    0.40    0.35
   6  12  -1    0.46    0.42
   6  12  -1   -0.47    0.48
  -5 -12   1    0.59    0.30
   5 -12  -1    0.24    0.23
  -5 -12   1    0.27    0.25
   5  12  -1    0.32    0.38
   5  12  -1    0.32    0.38
   5  12  -1   -0.13    0.42
  -5  12   1   -0.10    0.22
   4 -12  -1   12.88    0.69
  -4 -12   1   14.17    0.85
  -4 -12   1   12.74    0.71
   4  12  -1   13.55    0.93
   4  12  -1   12.96    1.03
   4  12  -1   11.36    1.05
  -4  12   1   12.80    0.71
  -3 -12   1    9.66    0.59
  -3 -12   1   10.68    0.67
   3 -12  -1   10.16    0.60
   3  12  -1    8.47    0.69
  -3  12   1   11.11    0.66
   3  12  -1    8.08    0.75
   3  12  -1   11.26    0.94
   2 -12  -1   14.28    0.73
  -2 -12   1   14.32    0.83
  -2 -12   1   13.28    0.69
   2  12  -1   14.88    0.93
   2  12  -1   12.51    0.87
   2  12  -1   11.79    0.78
  -2  12   1   13.31    0.76
   1 -12  -1   28.75    1.19
  -1 -12   1   26.90    1.20
  -1 -12   1   27.44    1.12
   1 -12  -1   28.92    1.10
   1  12  -1   28.93    1.44
   1  12  -1   27.81    1.29
  -1  12   1   27.17    1.22
  -1  12   1   27.59    1.30
   1  12  -1   25.20    1.36
   0 -12  -1   11.08    0.67
   0 -12  -1   10.99    0.58
   0 -12   1    9.42    0.61
   0 -12   1   10.01    0.55
   0  12   1   10.23    0.71
   0  12  -1    9.43    0.73
   0  12   1    9.94    0.68
   0  12  -1    9.48    0.70
   1 -12   1    1.22    0.28
  -1 -12  -1    0.27    0.24
   1 -12   1    1.09    0.34
  -1  12  -1    0.83    0.35
  -1  12  -1    1.09    0.37
   1  12   1    1.10    0.39
   1  12   1    1.00    0.39
   2 -12   1    0.07    0.21
  -2 -12  -1   -0.73    0.30
   2 -12   1    0.22    0.22
  -2 -12  -1    0.17    0.19
  -2  12  -1    0.07    0.29
  -2  12  -1    0.04    0.22
   2  12   1    0.08    0.40
   2  12   1    0.19    0.40
   3 -12   1    9.29    0.63
  -3 -12  -1    8.14    0.60
  -3 -12  -1    9.48    0.63
  -3  12  -1    8.40    0.59
   3  12   1    9.75    0.80
   3  12   1    9.04    0.84
  -4 -12  -1   22.98    1.04
   4 -12   1   22.69    1.04
  -4 -12  -1   21.23    1.06
   4  12   1   23.37    1.43
   4  12   1   19.12    1.19
   4  12   1   22.01    1.20
  -5 -12  -1    0.12    0.37
  -5 -12  -1    0.04    0.22
   5 -12   1    0.55    0.31
   5  12   1    0.20    0.49
   5  12   1   -0.42    0.41
   5  12   1   -0.56    0.46
  -6 -12  -1   -0.79    0.37
   6 -12   1   -0.44    0.26
  -6 -12  -1   -0.09    0.35
   6  12   1   -0.14    0.37
   6  12   1   -0.24    0.45
   6  12   1   -0.49    0.34
   7 -12   1   -0.42    0.32
  -7 -12  -1    0.14    0.42
  -7 -12  -1    0.07    0.38
   7  12   1    0.06    0.42
   7  12   1    0.24    0.36
   7  12   1    0.00    0.52
  -8 -12  -1    0.14    0.30
  -8 -12  -1    0.47    0.34
   8 -12   1   -0.01    0.30
   8  12   1   -0.33    0.43
   8  12   1   -0.02    0.34
   8  12   1    0.59    0.45
  -9 -12  -1    1.11    0.38
   9 -12   1    0.50    0.39
   9  12   1    0.82    0.44
   9  12   1    0.67    0.68
   9  12   1    0.13    0.51
  10 -12   1   -0.35    0.37
  10  12   1    0.72    0.45
   9 -13  -1    1.93    0.38
  -9 -13   1    1.69    0.50
  -9 -13   1    1.47    0.43
   9  13  -1    1.55    0.47
   9  13  -1    0.88    0.61
   9  13  -1    1.89    0.75
   8 -13  -1    1.85    0.37
  -8 -13   1    2.34    0.46
  -8 -13   1    1.82    0.42
   8  13  -1    1.74    0.49
   8  13  -1    3.10    0.77
   8  13  -1    1.09    0.59
  -7 -13   1    0.36    0.45
  -7 -13   1    0.24    0.31
   7 -13  -1    0.17    0.26
   7  13  -1    0.66    0.41
  -7  13   1    0.88    0.33
   7  13  -1    0.27    0.62
   7  13  -1    0.53    0.44
   6 -13  -1   -0.02    0.28
  -6 -13   1   -0.11    0.35
  -6 -13   1    0.02    0.41
   6  13  -1    0.95    0.60
  -6  13   1    0.23    0.26
   6  13  -1    0.16    0.42
   6  13  -1   -0.14    0.32
  -5 -13   1   19.24    1.00
  -5 -13   1   17.15    0.97
   5 -13  -1   19.29    0.89
   5  13  -1   19.28    1.29
   5  13  -1   17.04    1.34
   5  13  -1   17.45    1.06
  -5  13   1   16.88    0.91
   4 -13  -1    0.40    0.26
  -4 -13   1    0.34    0.29
  -4 -13   1    0.59    0.34
   4  13  -1    0.72    0.35
   4  13  -1    0.63    0.39
  -4  13   1    0.61    0.29
   4  13  -1    0.18    0.35
   3 -13  -1    2.22    0.35
  -3 -13   1    1.99    0.38
  -3 -13   1    1.29    0.44
   3  13  -1    2.12    0.42
  -3  13   1    1.80    0.37
   3  13  -1    1.55    0.43
   3  13  -1    1.22    0.53
   2 -13  -1    0.16    0.19
  -2 -13   1   -0.04    0.25
  -2 -13   1    0.21    0.21
  -2  13   1    0.63    0.32
   2  13  -1   -0.23    0.36
   2  13  -1   -0.12    0.38
   2  13  -1    0.23    0.32
  -1 -13   1    3.64    0.49
   1 -13  -1    3.55    0.43
  -1 -13   1    3.51    0.37
  -1  13   1    3.67    0.48
   1  13  -1    3.80    0.59
   1  13  -1    4.06    0.55
   0 -13  -1    1.89    0.38
   0 -13   1    1.40    0.31
   0 -13   1    1.18    0.38
   0 -13  -1    1.85    0.32
   0  13   1    1.58    0.41
   0  13   1    1.32    0.40
   0  13  -1    1.44    0.44
   0  13  -1    2.83    0.50
   1 -13   1    0.08    0.23
  -1 -13  -1    0.21    0.19
  -1 -13  -1    0.11    0.32
   1 -13   1    0.52    0.25
   1  13   1    0.11    0.27
   1  13   1    0.14    0.28
  -1  13  -1    0.17    0.34
  -1  13  -1   -0.35    0.29
  -2 -13  -1   21.54    1.04
  -2 -13  -1   22.92    1.01
   2 -13   1   22.06    1.06
   2  13   1   20.92    1.10
  -2  13  -1   23.42    1.11
   2  13   1   20.30    1.16
  -3 -13  -1    1.21    0.28
  -3 -13  -1    0.85    0.30
   3 -13   1    1.51    0.35
   3  13   1    1.27    0.48
   3  13   1    0.66    0.34
  -3  13  -1    1.66    0.38
  -4 -13  -1    7.23    0.68
   4 -13   1    6.39    0.57
  -4 -13  -1    7.17    0.61
   4  13   1    5.24    0.67
  -4  13  -1    5.59    0.56
   4  13   1    5.19    0.75
  -5 -13  -1    0.80    0.37
  -5 -13  -1    1.33    0.45
   5 -13   1    1.46    0.36
   5  13   1    1.06    0.51
   5  13   1    1.23    0.60
   5  13   1    0.61    0.40
   6 -13   1    0.17    0.35
  -6 -13  -1   -0.43    0.40
  -6 -13  -1   -0.04    0.26
   6  13   1    0.67    0.58
   6  13   1    0.32    0.51
   6  13   1    0.48    0.54
  -7 -13  -1   -0.13    0.42
   7 -13   1    0.12    0.33
  -7 -13  -1   -0.03    0.40
   7  13   1    0.42    0.38
   7  13   1   -0.20    0.44
   7  13   1    0.49    0.58
  -8 -13  -1    1.50    0.39
   8 -13   1    1.23    0.38
  -8 -13  -1    1.84    0.52
   8  13   1    1.20    0.47
   8  13   1    1.66    0.63
   8  13   1    2.36    0.60
   9 -13   1    0.02    0.34
  -9 -13  -1    0.13    0.33
   9  13   1    1.11    0.72
   9  13   1   -0.07    0.37
  -8 -14   1    0.23    0.33
   8 -14  -1    0.10    0.30
  -8 -14   1   -0.20    0.35
   8  14  -1   -1.07    0.46
   8  14  -1    1.20    0.55
   8  14  -1   -0.22    0.37
   7 -14  -1   -0.56    0.28
  -7 -14   1    0.34    0.44
  -7 -14   1   -0.31    0.42
   7  14  -1   -0.66    0.41
  -7  14   1    0.27    0.29
   7  14  -1    0.64    0.53
   7  14  -1    0.35    0.58
   6 -14  -1    0.19    0.30
  -6 -14   1   -0.25    0.42
  -6 -14   1    0.41    0.41
   6  14  -1    1.30    0.51
   6  14  -1    0.07    0.58
   6  14  -1    2.09    0.59
  -6  14   1    0.82    0.34
   5 -14  -1    0.64    0.32
  -5 -14   1   -0.04    0.43
  -5 -14   1    0.20    0.28
   5  14  -1    0.41    0.48
  -5  14   1    0.89    0.35
   5  14  -1    0.22    0.53
   5  14  -1    0.30    0.55
  -4 -14   1    0.94    0.30
  -4 -14   1    1.06    0.45
   4 -14  -1    0.20    0.30
   4  14  -1    1.65    0.53
   4  14  -1    1.03    0.44
  -4  14   1    1.29    0.38
   4  14  -1    0.73    0.53
  -3 -14   1    1.19    0.35
   3 -14  -1    1.54    0.35
  -3 -14   1    1.13    0.37
   3  14  -1    0.56    0.49
   3  14  -1    0.18    0.48
   3  14  -1    1.46    0.51
  -3  14   1    1.00    0.35
   2 -14  -1    2.58    0.40
  -2 -14   1    3.04    0.43
  -2 -14   1    2.15    0.34
   2  14  -1    2.09    0.46
  -2  14   1    2.45    0.43
   2  14  -1    2.25    0.52
   1 -14  -1    0.86    0.33
  -1 -14   1    1.61    0.42
  -1 -14   1    1.21    0.33
   1  14  -1    1.01    0.45
   1  14  -1    1.37    0.48
  -1  14   1    1.32    0.40
   0 -14   1    3.58    0.51
   0 -14   1    3.97    0.44
   0 -14  -1    3.86    0.50
   0  14  -1    3.36    0.58
   0  14   1    3.62    0.52
   0  14  -1    4.67    0.60
   1 -14   1   -0.10    0.33
  -1 -14  -1   -0.30    0.34
  -1 -14  -1    0.19    0.28
   1  14   1   -0.40    0.35
  -1  14  -1    0.12    0.28
   2 -14   1    0.31    0.34
  -2 -14  -1    0.40    0.23
  -2 -14  -1    0.34    0.37
  -2  14  -1    0.59    0.37
   2  14   1    0.13    0.41
   2  14   1    0.57    0.43
  -3 -14  -1    1.47    0.37
  -3 -14  -1    2.06    0.46
   3 -14   1    1.95    0.39
   3  14   1    1.43    0.49
  -3  14  -1    1.85    0.41
   3  14   1    1.10    0.38
  -4 -14  -1   -0.40    0.38
  -4 -14  -1    0.12    0.24
   4 -14   1    0.65    0.33
  -4  14  -1   -0.08    0.31
   4  14   1   -0.33    0.29
   4  14   1   -0.19    0.32
   5 -14   1    1.26    0.37
  -5 -14  -1    1.07    0.41
  -5 -14  -1    0.93    0.47
   5  14   1    1.48    0.55
  -5  14  -1    0.97    0.37
   5  14   1    0.93    0.56
  -6 -14  -1    4.96    0.54
   6 -14   1    5.17    0.55
  -6 -14  -1    5.13    0.67
   6  14   1    5.89    0.78
   6  14   1    3.89    0.76
  -7 -14  -1    0.94    0.54
   7 -14   1    0.35    0.38
  -7 -14  -1    0.22    0.42
   7  14   1    1.08    0.58
   7  14   1    1.09    0.49
   7  14   1   -0.11    0.46
   8 -14   1    0.37    0.39
  -8 -14  -1   -0.38    0.42
  -8 -14  -1    0.09    0.53
   8  14   1    0.61    0.63
   8  14   1    0.60    0.43
   7 -15  -1   -0.45    0.29
  -7 -15   1   -0.12    0.35
  -7 -15   1   -0.20    0.31
  -7  15   1   -0.23    0.27
   7  15  -1   -0.47    0.51
   7  15  -1   -0.10    0.41
   7  15  -1   -1.14    0.64
   6 -15  -1    0.85    0.33
  -6 -15   1    0.90    0.42
  -6 -15   1    0.80    0.36
   6  15  -1    0.69    0.59
  -6  15   1    1.19    0.36
   6  15  -1    1.10    0.59
   6  15  -1   -0.55    0.61
   5 -15  -1   -0.32    0.26
  -5 -15   1   -0.25    0.38
  -5 -15   1   -0.19    0.32
   5  15  -1   -0.30    0.35
   5  15  -1   -0.32    0.34
   5  15  -1   -0.50    0.37
  -5  15   1    0.28    0.31
   4 -15  -1   -0.18    0.28
  -4 -15   1   -0.24    0.24
  -4 -15   1    0.39    0.33
   4  15  -1   -0.67    0.33
  -4  15   1   -0.45    0.27
   4  15  -1   -0.08    0.35
   4  15  -1   -0.31    0.49
  -3 -15   1    0.59    0.36
  -3 -15   1    0.41    0.43
   3 -15  -1    0.36    0.30
  -3  15   1    0.88    0.35
   3  15  -1    1.78    0.51
   3  15  -1    0.38    0.51
  -2 -15   1   -0.38    0.30
   2 -15  -1   -0.21    0.28
  -2 -15   1   -0.12    0.37
   2  15  -1   -0.35    0.40
  -2  15   1    0.40    0.34
   2  15  -1    0.01    0.44
  -1 -15   1   -0.37    0.36
   1 -15  -1   -0.34    0.29
   1  15  -1   -0.79    0.38
  -1  15   1   -0.19    0.33
   0 -15  -1    0.00    0.34
   0 -15   1   -0.70    0.35
   0  15   1   -0.02    0.28
   0  15  -1    0.00    0.30
  -1 -15  -1    1.37    0.43
   1 -15   1    2.07    0.44
   1  15   1    1.05    0.47
  -1  15  -1    2.27    0.50
  -2 -15  -1    3.34    0.47
   2 -15   1    4.09    0.51
  -2  15  -1    2.96    0.52
   2  15   1    3.95    0.61
  -3 -15  -1   -0.15    0.27
   3 -15   1    0.14    0.32
  -3  15  -1    0.82    0.39
   3  15   1    0.33    0.46
   4 -15   1    1.77    0.41
  -4 -15  -1    1.82    0.42
  -4 -15  -1    1.93    0.45
   4  15   1    1.78    0.57
   4  15   1    2.67    0.66
  -4  15  -1    1.85    0.47
  -5 -15  -1    0.07    0.32
   5 -15   1    0.38    0.35
  -5 -15  -1    0.44    0.31
   5  15   1    0.33    0.40
   5  15   1    0.50    0.41
  -5  15  -1    0.29    0.39
  -6 -15  -1   -0.08    0.46
  -6 -15  -1   -0.30    0.38
   6 -15   1    0.28    0.33
   6  15   1   -0.32    0.37
   6  15   1    0.12    0.37
  -6  15  -1    0.37    0.38
  -7 -15  -1    0.58    0.35
  -7 -15  -1    0.30    0.52
   7 -15   1    0.69    0.38
   7  15   1    1.67    0.65
  -7  15  -1    0.41    0.38
   6 -16  -1   -0.24    0.29
  -6 -16   1   -0.53    0.42
   6  16  -1   -0.33    0.50
   6  16  -1   -0.77    0.43
  -6  16   1    0.47    0.34
  -5 -16   1   -0.64    0.27
   5 -16  -1    0.52    0.31
  -5 -16   1   -0.56    0.48
   5  16  -1    0.38    0.53
   5  16  -1   -0.20    0.37
  -5  16   1    0.11    0.30
  -4 -16   1    1.14    0.43
  -4 -16   1    0.80    0.52
   4 -16  -1    0.22    0.34
   4  16  -1   -0.06    0.50
  -4  16   1    0.51    0.32
  -3 -16   1    9.07    0.85
   3 -16  -1    8.68    0.68
   3  16  -1    6.80    0.77
  -3  16   1    8.68    0.72
   2 -16  -1    1.97    0.41
  -2 -16   1    3.26    0.57
  -2  16   1    2.44    0.48
   2  16  -1    2.07    0.57
   1 -16  -1    1.62    0.42
  -1 -16   1    0.90    0.44
   1  16  -1    0.44    0.47
  -1  16   1    0.66    0.42
   0 -16  -1   -0.60    0.34
   0 -16   1   -0.35    0.37
   0  16  -1    0.09    0.40
   0  16   1   -0.20    0.36
  -1 -16  -1   -0.11    0.28
   1 -16   1    0.38    0.30
  -1  16  -1   -0.21    0.37
   1  16   1   -0.34    0.41
   2 -16   1    0.23    0.37
  -2 -16  -1    0.01    0.40
  -2  16  -1    0.57    0.40
   2  16   1    0.24    0.35
  -3 -16  -1    0.98    0.47
   3 -16   1    0.50    0.38
   3  16   1    0.16    0.48
  -3  16  -1    0.54    0.44
   4 -16   1    0.13    0.35
  -4 -16  -1   -0.35    0.46
  -4  16  -1    1.06    0.42
   4  16   1    0.14    0.37
  -5 -16  -1    1.75    0.55
   5 -16   1    1.60    0.44
   5  16   1    1.43    0.62
  -5  16  -1    2.35    0.50
   6 -16   1    3.38    0.51
  -6  16  -1    3.99    0.56
   4 -17  -1    0.97    0.39
  -4  17   1    1.92    0.46
  -3 -17   1   -0.10    0.46
   3 -17  -1   -0.25    0.33
  -3  17   1   -0.24    0.31
   3  17  -1    0.94    0.55
   2 -17  -1    0.42    0.37
  -2 -17   1   -0.48    0.44
  -2  17   1   -0.76    0.32
   2  17  -1    0.61    0.51
  -1 -17   1    0.07    0.43
   1 -17  -1    0.34    0.38
   1  17  -1    0.34    0.49
  -1  17   1    0.44    0.40
   0 -17   1    0.06    0.31
   0 -17  -1   -0.26    0.37
   0  17   1   -0.03    0.39
   0  17  -1    0.04    0.44
  -1 -17  -1    0.67    0.34
   1 -17   1    0.88    0.44
   1  17   1    1.35    0.52
  -1  17  -1    0.23    0.33
  -2 -17  -1   -0.37    0.40
   2 -17   1   -0.44    0.35
  -2  17  -1    0.37    0.42
   2  17   1   -0.32    0.45
   3 -17   1    2.14    0.48
  -3  17  -1    1.84    0.48
  -4  17  -1    0.46    0.40
 -13   0   2    0.27    0.30
  13   0  -2    1.08    0.49
  12   0  -2   10.43    0.92
 -12   0   2   10.27    0.65
  12   0  -2   10.40    0.88
  11   0  -2    0.04    0.38
  11   0  -2    0.65    0.40
 -11   0   2   -0.05    0.25
  10   0  -2   44.32    1.91
  10   0  -2   44.42    2.08
 -10   0   2   45.57    1.65
   9   0  -2   -0.06    0.17
  -9   0   2    0.28    0.21
   9   0  -2   -0.10    0.27
   9   0  -2    0.17    0.31
  -8   0   2    0.83    0.23
   8   0  -2    1.30    0.33
  -8   0   2    0.75    0.20
   8   0  -2    0.37    0.21
   8   0  -2    0.43    0.18
   8   0  -2    0.73    0.31
   7   0  -2   -0.11    0.12
  -7   0   2   -0.06    0.13
   7   0  -2   -0.13    0.12
   7   0  -2    0.11    0.20
   7   0  -2   -0.12    0.20
  -7   0   2   -0.12    0.14
   6   0  -2   18.49    0.85
  -6   0   2   19.10    0.77
  -6   0   2   19.30    0.72
   6   0  -2   18.22    0.94
   6   0  -2   19.35    0.75
   6   0  -2   18.98    0.74
  -5   0   2   -0.19    0.09
  -5   0   2   -0.08    0.12
   5   0  -2   -0.17    0.10
   5   0  -2   -0.60    0.16
   5   0  -2   -0.18    0.11
   5   0  -2   -0.11    0.08
   4   0  -2  304.21   11.26
   4   0  -2  299.21    9.78
   4   0  -2  310.50    9.76
   4   0  -2  293.93   10.32
  -4   0   2  334.93   11.26
   4   0  -2  303.63   10.26
  -4   0   2  315.46   10.30
  -4   0   2  295.98    9.76
  -4   0   2  303.05    9.79
   3   0  -2   -0.05    0.04
   3   0  -2   -0.02    0.05
  -3   0   2   -0.14    0.05
   3   0  -2   -0.05    0.09
   3   0  -2   -0.06    0.06
   3   0  -2   -0.06    0.10
  -3   0   2   -0.08    0.06
  -3   0   2   -0.05    0.09
  -3   0   2   -0.10    0.07
   2   0  -2    2.34    0.13
   2   0  -2    2.26    0.11
  -2   0   2    2.18    0.11
   2   0  -2    2.25    0.19
   2   0  -2    2.40    0.12
   2   0  -2    2.34    0.14
   1   0  -2   -0.19    0.04
   1   0  -2   -0.22    0.04
  -1   0   2   -0.33    0.03
  -1   0   2   -0.27    0.04
  -1   0   2   -0.29    0.04
   0   0  -2  215.01    6.99
   0   0   2  223.12    6.99
   0   0  -2  219.57    6.99
   0   0   2  216.96    6.99
   0   0  -2  222.43    7.36
   0   0   2  220.59    7.36
   1   0   2    0.03    0.11
  -1   0  -2   -0.10    0.06
   1   0   2   -0.13    0.06
  -1   0  -2    0.10    0.09
  -1   0  -2    0.15    0.08
   1   0   2    0.01    0.07
  -2   0  -2  745.74   23.91
   2   0   2  812.31   23.84
   2   0   2  759.83   23.86
  -2   0  -2  716.49   24.91
   2   0   2  712.58   24.91
  -2   0  -2  709.05   27.34
  -2   0  -2  767.72   23.80
  -3   0  -2    0.10    0.09
   3   0   2    0.10    0.10
  -3   0  -2    0.25    0.10
   3   0   2    0.12    0.13
  -3   0  -2    0.36    0.16
  -3   0  -2    0.23    0.09
   3   0   2    0.09    0.08
  -4   0  -2   14.20    0.61
  -4   0  -2   14.28    0.67
  -4   0  -2   14.38    0.57
   4   0   2   13.88    0.68
   4   0   2   14.59    0.68
   4   0   2   14.41    0.60
  -5   0  -2   -0.07    0.12
   5   0   2   -0.34    0.16
  -5   0  -2   -0.06    0.11
   5   0   2    0.20    0.15
   5   0   2   -0.17    0.17
  -5   0  -2   -0.17    0.16
   6   0   2   -0.46    0.25
   6   0   2    0.00    0.19
  -6   0  -2   -0.23    0.17
   6   0   2   -0.18    0.13
   7   0   2   -0.35    0.14
   7   0   2   -0.48    0.21
  -7   0  -2   -0.11    0.15
   7   0   2    0.15    0.21
   8   0   2    4.90    0.61
  -8   0  -2    4.76    0.37
   8   0   2    4.18    0.39
   8   0   2    4.37    0.49
   9   0   2   -0.27    0.18
  -9   0  -2   -0.19    0.19
   9   0   2    0.01    0.31
   9   0   2   -0.44    0.41
 -10   0  -2    2.24    0.39
  10   0   2    1.91    0.39
  10   0   2    2.01    0.46
  10   0   2    2.23    0.55
 -11   0  -2    0.19    0.33
  11   0   2   -0.09    0.47
 -12   0  -2   10.19    0.76
  12   0   2   10.91    0.91
 -13   0  -2    0.72    0.38
  13   0   2    1.85    0.63
 -13  -1   2    0.88    0.33
  13  -1  -2    0.96    0.42
  13   1  -2    1.02    0.49
 -13   1   2    0.51    0.32
  12  -1  -2    0.86    0.45
 -12  -1   2    0.44    0.29
 -12   1   2    0.85    0.28
  12   1  -2    0.55    0.45
  12   1  -2    0.70    0.47
  11  -1  -2    7.98    0.76
  11  -1  -2    5.52    0.63
 -11  -1   2    6.44    0.53
  11   1  -2    8.22    0.82
  11   1  -2    7.28    0.76
 -11   1   2    7.17    0.50
 -10  -1   2    5.42    0.45
  10  -1  -2    4.28    0.53
  10  -1  -2    5.79    0.62
  10   1  -2    3.87    0.58
  10   1  -2    5.06    0.62
 -10   1   2    5.73    0.43
   9  -1  -2    0.61    0.31
  -9  -1   2    0.58    0.22
   9  -1  -2   -0.09    0.26
   9   1  -2    0.19    0.34
   9   1  -2    0.63    0.34
  -9   1   2    0.54    0.23
   9   1  -2    0.79    0.23
  -8  -1   2   38.40    1.42
   8  -1  -2   35.07    1.65
   8  -1  -2   36.44    1.32
   8  -1  -2   39.31    1.40
  -8  -1   2   35.81    1.34
   8  -1  -2   36.60    1.51
  -8   1   2   36.94    1.31
   8   1  -2   35.79    1.56
   8   1  -2   35.75    1.38
   8   1  -2   35.15    1.70
  -8   1   2   35.99    1.37
   7  -1  -2   10.16    0.59
   7  -1  -2   11.52    0.51
   7  -1  -2   10.52    0.67
  -7  -1   2   10.25    0.53
   7  -1  -2   11.09    0.49
  -7  -1   2   10.99    0.51
   7   1  -2   11.02    0.72
   7   1  -2    9.03    0.63
  -7   1   2   10.10    0.47
  -7   1   2   10.37    0.51
   7   1  -2   10.18    0.53
   7   1  -2   11.67    0.53
   6  -1  -2   58.33    2.01
   6  -1  -2   59.13    2.40
  -6  -1   2   59.95    2.08
  -6  -1   2   59.07    2.02
   6  -1  -2   59.05    2.18
   6  -1  -2   63.28    2.10
   6   1  -2   62.97    2.13
  -6   1   2   59.17    1.99
   6   1  -2   59.89    2.06
  -6   1   2   60.17    2.04
   6   1  -2   56.61    2.23
   6   1  -2   59.43    2.45
   5  -1  -2   12.52    0.50
   5  -1  -2   11.90    0.62
  -5  -1   2   12.11    0.55
  -5  -1   2   12.08    0.50
   5  -1  -2   12.26    0.48
   5  -1  -2   11.75    0.56
  -5   1   2   12.36    0.51
  -5   1   2   11.83    0.47
  -5   1   2   13.48    0.53
   5   1  -2   11.49    0.62
   5   1  -2   12.22    0.52
   5   1  -2   12.48    0.54
   5   1  -2   12.41    0.69
  -4  -1   2    1.41    0.22
   4  -1  -2    0.94    0.15
   4  -1  -2    1.08    0.11
  -4  -1   2    0.97    0.13
  -4  -1   2    1.12    0.16
   4  -1  -2    1.15    0.10
  -4  -1   2    1.25    0.17
  -4  -1   2    1.14    0.13
   4  -1  -2    0.87    0.17
   4  -1  -2    1.11    0.11
   4   1  -2    0.95    0.15
   4   1  -2    0.85    0.17
  -4   1   2    0.97    0.10
   4   1  -2    0.90    0.18
  -4   1   2    1.16    0.13
   4   1  -2    1.22    0.13
   4   1  -2    1.20    0.12
  -4   1   2    1.21    0.13
   3  -1  -2   11.97    0.43
   3  -1  -2   12.68    0.56
  -3  -1   2   13.04    0.52
  -3  -1   2   12.73    0.49
  -3  -1   2   12.31    0.58
  -3  -1   2   11.71    0.47
   3  -1  -2   12.10    0.44
  -3  -1   2   11.80    0.45
   3  -1  -2   11.67    0.48
   3  -1  -2   12.37    0.42
   3   1  -2   12.02    0.45
   3   1  -2   11.61    0.53
  -3   1   2   12.23    0.42
   3   1  -2   12.07    0.48
   3   1  -2   12.34    0.59
  -3   1   2   13.19    0.45
   3   1  -2   12.41    0.48
   2  -1  -2  200.71    6.97
   2  -1  -2  214.20    7.33
   2  -1  -2  233.99    7.34
   2  -1  -2  221.77    6.95
  -2  -1   2  227.92    8.00
  -2  -1   2  212.76    7.30
  -2  -1   2  210.51    6.95
  -2  -1   2  239.99    7.34
  -2   1   2  215.79    7.00
   2   1  -2  217.66    6.95
   2   1  -2  214.19    8.00
   2   1  -2  220.82    7.34
   2   1  -2  220.08    7.31
   2   1  -2  212.26    6.97
  -2   1   2  211.73    6.96
  -1  -1   2   22.18    0.74
   1  -1  -2   21.40    0.75
   1  -1  -2   22.26    0.72
   1  -1  -2   21.94    0.71
  -1  -1   2   21.35    0.78
  -1   1   2   22.99    0.74
   1   1  -2   21.80    0.88
  -1   1   2   21.42    0.74
   1   1  -2   22.36    0.74
   1   1  -2   22.30    0.78
  -1   1   2   22.33    0.72
   0  -1  -2  245.65    9.15
   0  -1  -2  265.86    8.76
   0  -1  -2  263.64    8.70
   0  -1   2  280.06    8.70
   0  -1   2  280.49    8.71
   0  -1   2  299.85    9.16
   0   1   2  259.39    8.72
   0   1   2  274.34    8.72
   0   1   2  253.27    9.15
   0   1  -2  276.33    8.70
   0   1  -2  306.26    9.16
   0   1  -2  281.55    8.71
  -1  -1  -2  349.99   12.61
   1  -1   2  389.79   12.60
   1  -1   2  381.41   11.97
  -1  -1  -2  379.77   11.96
   1  -1   2  397.92   11.99
  -1  -1  -2  369.48   11.98
  -1   1  -2  384.47   12.00
   1   1   2  373.51   11.98
   1   1   2  349.07   12.61
  -1   1  -2  379.77   12.60
  -1   1  -2  381.77   11.97
   1   1   2  384.29   11.99
   2  -1   2  247.00    7.43
  -2  -1  -2  225.02    7.87
  -2  -1  -2  230.65    8.53
   2  -1   2  238.95    7.85
  -2  -1  -2  209.31    7.42
  -2  -1  -2  230.46    7.46
   2  -1   2  244.24    7.45
   2   1   2  224.25    7.87
   2   1   2  244.60    8.53
  -2   1  -2  226.71    8.47
  -2   1  -2  228.13    7.84
  -2   1  -2  242.31    7.43
  -2   1  -2  233.00    7.44
   2   1   2  244.31    7.43
   2   1   2  220.75    7.46
   3  -1   2   56.67    2.03
  -3  -1  -2   62.13    2.35
  -3  -1  -2   59.58    2.02
  -3  -1  -2   59.46    2.19
   3  -1   2   59.70    2.17
  -3  -1  -2   59.59    2.05
   3  -1   2   64.87    2.29
   3  -1   2   62.92    2.02
  -3   1  -2   60.61    2.02
   3   1   2   63.17    2.35
  -3   1  -2   56.50    2.16
  -3   1  -2   59.24    2.04
   3   1   2   63.50    2.02
  -3   1  -2   60.18    2.29
   3   1   2   60.43    2.20
   3   1   2   61.81    2.06
  -4  -1  -2   16.57    0.66
   4  -1   2   17.17    0.73
  -4  -1  -2   17.61    0.79
  -4  -1  -2   16.47    0.69
   4  -1   2   16.70    0.66
   4  -1   2   16.56    0.76
   4   1   2   17.21    0.80
  -4   1  -2   16.21    0.72
   4   1   2   16.59    0.70
   4   1   2   16.08    0.77
  -4   1  -2   15.66    0.65
  -4   1  -2   15.98    0.66
   5  -1   2    0.40    0.16
   5  -1   2    0.06    0.24
   5  -1   2   -0.07    0.16
  -5  -1  -2    0.31    0.17
  -5   1  -2    0.46    0.15
   5   1   2   -0.05    0.25
  -5   1  -2    0.33    0.14
   5   1   2    0.35    0.20
  -5   1  -2    0.33    0.13
   5   1   2    0.60    0.20
   6  -1   2   -0.49    0.24
   6  -1   2    0.15    0.16
   6  -1   2   -0.27    0.17
  -6  -1  -2   -0.03    0.18
  -6   1  -2    0.01    0.14
   6   1   2   -0.16    0.20
   6   1   2   -0.05    0.18
   6   1   2   -0.80    0.25
  -6   1  -2    0.08    0.13
   7  -1   2   -0.67    0.18
   7  -1   2   -0.46    0.29
   7  -1   2    0.14    0.18
  -7  -1  -2   -0.37    0.21
   7   1   2    0.20    0.24
   7   1   2   -0.63    0.31
  -7   1  -2   -0.24    0.20
   7   1   2   -0.25    0.17
  -8  -1  -2    2.87    0.37
   8  -1   2    3.40    0.52
   8  -1   2    3.87    0.37
   8  -1   2    3.20    0.38
   8   1   2    2.87    0.43
   8   1   2    3.26    0.56
   8   1   2    3.00    0.41
  -8   1  -2    2.94    0.34
   9  -1   2   -0.43    0.26
   9  -1   2   -0.83    0.22
   9  -1   2   -0.21    0.23
  -9  -1  -2    0.10    0.29
   9   1   2   -1.07    0.38
   9   1   2   -0.35    0.27
   9   1   2   -0.29    0.28
  -9   1  -2   -0.56    0.24
  10  -1   2    6.61    0.61
 -10  -1  -2    6.02    0.50
  10  -1   2    6.07    0.71
 -10   1  -2    5.90    0.55
  10   1   2    7.34    0.54
  10   1   2    6.40    0.78
  10   1   2    5.83    0.65
  11  -1   2    0.77    0.50
 -11  -1  -2   -0.12    0.33
  11   1   2    0.61    0.43
  11   1   2   -0.24    0.40
 -11   1  -2    0.16    0.31
 -12  -1  -2    1.06    0.39
  12  -1   2    1.31    0.43
 -12   1  -2    1.46    0.40
  12   1   2    0.91    0.59
 -13  -1  -2    2.90    0.50
  13  -1   2    3.75    0.71
  13   1   2    4.88    0.80
 -13   1  -2    2.55    0.48
 -13  -2   2    7.17    0.64
  13  -2  -2    9.67    0.77
  13   2  -2    6.39    0.85
  13   2  -2    6.89    0.84
 -13   2   2    7.85    0.61
  12  -2  -2    7.91    0.71
 -12  -2   2    6.16    0.58
  12   2  -2    6.76    0.80
  12   2  -2    6.50    0.76
 -12   2   2    7.37    0.51
  11  -2  -2    4.35    0.57
  11  -2  -2    5.26    0.60
 -11  -2   2    4.34    0.46
  11   2  -2    5.04    0.68
  11   2  -2    5.24    0.68
 -11   2   2    5.15    0.46
  10  -2  -2    1.31    0.35
 -10  -2   2    1.05    0.29
  10  -2  -2    0.92    0.34
  10   2  -2    1.27    0.43
 -10   2   2    1.22    0.25
  10   2  -2    0.93    0.44
   9  -2  -2    2.96    0.42
   9  -2  -2    2.32    0.38
  -9  -2   2    2.28    0.32
  -9   2   2    2.49    0.29
   9   2  -2    2.35    0.33
   9   2  -2    2.22    0.46
   9   2  -2    2.63    0.48
   8  -2  -2    2.37    0.38
   8  -2  -2    3.31    0.26
  -8  -2   2    3.12    0.32
   8  -2  -2    2.98    0.37
   8   2  -2    2.64    0.34
   8   2  -2    3.24    0.44
  -8   2   2    3.13    0.30
  -8   2   2    3.54    0.33
   8   2  -2    3.04    0.47
   7  -2  -2    6.08    0.45
   7  -2  -2    6.56    0.34
   7  -2  -2    6.41    0.49
  -7  -2   2    6.14    0.36
  -7  -2   2    6.51    0.45
   7  -2  -2    6.59    0.35
   7   2  -2    6.82    0.44
  -7   2   2    6.40    0.37
   7   2  -2    5.32    0.47
   7   2  -2    5.60    0.59
  -7   2   2    6.43    0.33
  -6  -2   2   40.71    1.45
   6  -2  -2   38.49    1.32
   6  -2  -2   38.66    1.62
   6  -2  -2   38.36    1.47
  -6  -2   2   39.40    1.37
  -6   2   2   39.04    1.32
   6   2  -2   40.79    1.45
   6   2  -2   38.03    1.42
  -6   2   2   38.43    1.36
   6   2  -2   37.27    1.71
   6   2  -2   36.57    1.54
   5  -2  -2    0.65    0.15
   5  -2  -2    0.48    0.15
  -5  -2   2    0.87    0.15
  -5  -2   2    0.37    0.15
  -5  -2   2    0.82    0.19
   5  -2  -2    0.58    0.10
  -5   2   2    0.66    0.11
   5   2  -2    0.53    0.14
  -5   2   2    0.64    0.12
  -5   2   2    0.58    0.12
   5   2  -2    0.70    0.18
   5   2  -2    0.56    0.18
   5   2  -2    0.30    0.22
   4  -2  -2  384.22   13.51
  -4  -2   2  356.47   11.78
  -4  -2   2  378.97   11.84
   4  -2  -2  363.58   11.79
  -4  -2   2  364.31   12.38
   4  -2  -2  379.18   11.81
   4  -2  -2  361.73   12.37
   4   2  -2  377.25   12.39
   4   2  -2  354.87   11.82
  -4   2   2  371.73   11.83
   4   2  -2  356.17   12.47
  -4   2   2  388.33   12.36
   4   2  -2  368.66   13.58
  -3  -2   2   61.94    2.09
  -3  -2   2   66.52    2.47
   3  -2  -2   62.89    2.16
   3  -2  -2   65.12    2.03
  -3  -2   2   65.50    2.13
  -3  -2   2   66.43    2.25
   3  -2  -2   61.45    2.03
  -3  -2   2   62.43    2.19
   3   2  -2   63.02    2.47
   3   2  -2   61.02    2.26
   3   2  -2   61.80    2.12
  -3   2   2   64.34    2.03
   3   2  -2   65.16    2.09
  -3   2   2   62.55    2.04
   3   2  -2   62.61    2.19
  -2  -2   2    3.16    0.23
  -2  -2   2    3.05    0.22
  -2  -2   2    2.88    0.18
  -2  -2   2    3.04    0.18
   2   2  -2    3.09    0.24
   2   2  -2    3.06    0.24
   2   2  -2    3.15    0.17
   2   2  -2    3.19    0.19
   2   2  -2    3.16    0.16
  -1  -2   2    8.99    0.38
   1  -2  -2    8.75    0.35
   1  -2  -2    9.18    0.33
  -1  -2   2    9.09    0.35
   1  -2  -2    9.88    0.33
   1  -2  -2    9.59    0.31
  -1  -2   2    9.81    0.44
   1   2  -2    9.62    0.41
  -1   2   2    9.34    0.32
   1   2  -2    9.03    0.43
  -1   2   2    8.50    0.33
   1   2  -2    9.47    0.35
   1   2  -2    9.12    0.38
  -1   2   2    9.79    0.33
   0  -2  -2   24.25    0.86
   0  -2  -2   25.60    0.84
   0  -2  -2   23.82    0.89
   0  -2  -2   24.65    0.82
   0  -2   2   24.00    0.83
   0  -2   2   23.82    0.88
   0  -2   2   24.30    0.84
   0  -2   2   25.48    0.95
   0   2   2   24.69    0.86
   0   2   2   23.54    0.88
   0   2   2   24.96    0.82
   0   2  -2   24.06    0.83
   0   2   2   25.08    0.84
   0   2  -2   24.71    0.95
   0   2  -2   24.71    0.88
   1  -2   2   -0.05    0.06
   1  -2   2   -0.21    0.06
  -1  -2  -2   -0.01    0.05
   1  -2   2   -0.22    0.07
  -1  -2  -2    0.08    0.07
  -1  -2  -2   -0.01    0.08
  -1  -2  -2   -0.14    0.10
  -1  -2  -2   -0.23    0.06
   1   2   2   -0.13    0.05
  -1   2  -2   -0.10    0.08
   1   2   2   -0.06    0.07
   1   2   2   -0.05    0.12
  -1   2  -2   -0.21    0.08
   1   2   2    0.05    0.08
  -1   2  -2   -0.21    0.09
   2  -2   2  281.08    9.26
  -2  -2  -2  268.37    9.30
  -2  -2  -2  270.79   10.09
  -2  -2  -2  281.82    8.78
   2  -2   2  284.49    8.78
   2  -2   2  285.48    8.79
  -2  -2  -2  277.91    8.82
   2   2   2  277.62    8.82
   2   2   2  275.15   10.09
  -2   2  -2  256.91   10.10
   2   2   2  288.42    9.24
   2   2   2  258.28    9.30
  -2   2  -2  273.39    8.78
  -2   2  -2  264.93    9.25
   2   2   2  278.75    8.78
  -2   2  -2  280.50    8.79
  -3  -2  -2   56.00    1.92
   3  -2   2   57.08    1.86
  -3  -2  -2   55.99    2.20
  -3  -2  -2   53.96    1.87
  -3  -2  -2   53.82    2.05
   3  -2   2   58.82    1.88
   3  -2   2   56.99    2.01
   3   2   2   57.53    2.20
   3   2   2   58.49    1.98
   3   2   2   56.52    1.88
  -3   2  -2   51.77    2.00
   3   2   2   54.54    2.06
  -3   2  -2   55.26    1.87
  -3   2  -2   56.98    2.08
   3   2   2   57.87    1.93
  -3   2  -2   53.68    1.87
   4  -2   2   48.66    1.78
   4  -2   2   46.61    1.74
  -4  -2  -2   45.60    1.60
   4  -2   2   46.66    1.61
   4   2   2   45.48    1.79
  -4   2  -2   46.61    1.78
   4   2   2   46.73    1.66
   4   2   2   48.58    1.92
  -4   2  -2   45.42    1.61
  -4   2  -2   46.14    1.60
  -5  -2  -2   -0.32    0.14
   5  -2   2   -0.01    0.21
   5  -2   2   -0.11    0.13
   5  -2   2    0.11    0.12
   5   2   2   -0.11    0.20
   5   2   2    0.15    0.15
  -5   2  -2    0.46    0.15
   5   2   2   -0.05    0.19
  -5   2  -2    0.23    0.11
  -5   2  -2    0.18    0.16
   6  -2   2   45.76    1.61
  -6  -2  -2   44.10    1.61
   6  -2   2   45.52    1.76
   6   2   2   44.48    1.83
   6   2   2   44.46    1.92
   6   2   2   45.08    1.68
  -6   2  -2   46.57    1.78
  -6   2  -2   43.46    1.62
  -6   2  -2   44.24    1.59
   7  -2   2   -0.64    0.27
   7  -2   2   -0.15    0.16
   7  -2   2   -0.39    0.18
  -7   2  -2   -0.40    0.18
  -7   2  -2   -0.13    0.15
   7   2   2   -0.44    0.17
   7   2   2   -0.50    0.25
   7   2   2   -0.63    0.23
   8  -2   2    1.71    0.30
   8  -2   2    1.87    0.30
   8  -2   2    1.89    0.37
  -8  -2  -2    1.86    0.33
  -8   2  -2    1.60    0.28
   8   2   2    1.29    0.36
   8   2   2    0.67    0.47
   8   2   2    1.90    0.35
   9  -2   2    0.51    0.27
   9  -2   2    0.37    0.40
  -9  -2  -2    0.96    0.33
   9  -2   2    0.97    0.30
   9   2   2   -0.40    0.46
   9   2   2    0.53    0.33
   9   2   2    1.22    0.40
  -9   2  -2    0.75    0.30
 -10  -2  -2    1.34    0.30
  10  -2   2    1.61    0.47
 -10   2  -2    0.95    0.32
  10   2   2    1.05    0.44
  10   2   2    1.23    0.45
  10   2   2    1.51    0.40
  11  -2   2    5.60    0.64
 -11  -2  -2    5.62    0.58
  11   2   2    5.75    0.82
 -11   2  -2    5.31    0.52
  11   2   2    4.49    0.66
  12  -2   2    2.11    0.48
 -12  -2  -2    2.11    0.39
  12   2   2    3.31    0.73
 -12   2  -2    2.32    0.43
 -13  -2  -2    1.81    0.47
  13  -2   2    2.22    0.61
 -13   2  -2    0.84    0.40
 -13  -3   2    2.68    0.46
  13  -3  -2    2.92    0.51
  13   3  -2    1.57    0.66
 -13   3   2    3.23    0.40
  13   3  -2    2.76    0.66
  12  -3  -2    0.33    0.33
 -12  -3   2    0.19    0.32
 -12   3   2    0.44    0.27
  12   3  -2   -0.10    0.46
  12   3  -2    0.30    0.48
  11  -3  -2    0.32    0.35
 -11  -3   2   -0.09    0.20
  11   3  -2    0.25    0.32
 -11   3   2    0.07    0.22
  11   3  -2   -0.12    0.41
  10  -3  -2    4.51    0.52
 -10  -3   2    5.38    0.49
  10  -3  -2    5.64    0.55
  10   3  -2    4.94    0.66
  10   3  -2    3.75    0.61
 -10   3   2    4.38    0.40
   9  -3  -2    0.80    0.30
   9  -3  -2    0.33    0.29
  -9  -3   2    0.31    0.26
   9   3  -2    0.53    0.28
  -9   3   2    0.56    0.19
   9   3  -2    0.37    0.42
   9   3  -2    0.94    0.33
   8  -3  -2    2.81    0.36
   8  -3  -2    2.47    0.36
   8  -3  -2    2.80    0.24
  -8  -3   2    2.28    0.31
   8   3  -2    2.34    0.31
  -8   3   2    2.99    0.28
   8   3  -2    1.83    0.38
   8   3  -2    2.03    0.45
  -8   3   2    3.08    0.28
   7  -3  -2    0.16    0.17
   7  -3  -2    0.02    0.19
  -7  -3   2    0.12    0.14
   7  -3  -2    0.18    0.12
   7   3  -2    0.59    0.32
  -7   3   2    0.10    0.13
   7   3  -2    0.28    0.17
   7   3  -2   -0.14    0.22
  -7   3   2    0.41    0.16
   6  -3  -2  122.13    4.45
   6  -3  -2  118.03    3.79
  -6  -3   2  115.08    3.86
   6  -3  -2  116.97    4.05
  -6  -3   2  117.21    4.05
   6   3  -2  117.90    3.93
  -6   3   2  120.07    3.80
   6   3  -2  114.41    4.58
   6   3  -2  115.10    4.21
  -6   3   2  116.39    3.83
  -5  -3   2   10.92    0.50
  -5  -3   2   10.93    0.50
   5  -3  -2   10.85    0.42
   5  -3  -2   11.73    0.58
   5  -3  -2   11.34    0.50
   5  -3  -2   12.45    0.42
  -5  -3   2   11.35    0.57
  -5   3   2   11.63    0.44
   5   3  -2   11.45    0.54
   5   3  -2    9.94    0.60
   5   3  -2   11.16    0.67
  -5   3   2   11.56    0.43
   5   3  -2   11.69    0.52
  -4  -3   2  171.75    5.90
  -4  -3   2  166.76    5.61
   4  -3  -2  177.64    6.43
   4  -3  -2  173.16    5.54
  -4  -3   2  184.26    5.69
   4  -3  -2  181.15    5.54
   4  -3  -2  173.42    5.86
  -4   3   2  175.94    5.55
   4   3  -2  169.92    5.67
   4   3  -2  168.95    6.00
   4   3  -2  177.74    5.91
   4   3  -2  168.04    6.53
  -3  -3   2   32.88    1.15
   3  -3  -2   33.33    1.15
   3  -3  -2   32.22    1.07
  -3  -3   2   35.47    1.21
   3  -3  -2   35.22    1.07
  -3  -3   2   31.87    1.21
  -3  -3   2   34.22    1.39
  -3  -3   2   34.16    1.28
   3   3  -2   33.19    1.15
  -3   3   2   31.27    1.08
   3   3  -2   33.46    1.21
   3   3  -2   32.96    1.28
   3   3  -2   32.82    1.41
  -3   3   2   33.88    1.09
   3   3  -2   32.75    1.20
   2  -3  -2  141.42    4.65
  -2  -3   2  139.27    4.48
   2  -3  -2  151.90    4.67
   2  -3  -2  143.90    4.43
  -2  -3   2  139.40    4.71
   2  -3  -2  136.22    4.44
  -2  -3   2  153.66    4.78
  -2  -3   2  141.66    5.19
   2   3  -2  135.07    5.19
  -2   3   2  119.96    4.42
   2   3  -2  139.65    4.48
   2   3  -2  143.52    4.72
   2   3  -2  137.46    4.78
   2   3  -2  125.38    4.51
  -1  -3   2  244.14    8.16
  -1  -3   2  241.28    8.90
   1  -3  -2  245.58    8.14
   1  -3  -2  237.94    7.78
  -1  -3   2  249.35    7.76
   1  -3  -2  254.07    8.15
   1   3  -2  240.74    7.76
   1   3  -2  246.71    8.21
  -1   3   2  222.07    7.76
  -1   3   2  251.25    7.74
   1   3  -2  226.48    8.90
  -1   3   2  249.15    8.11
   1   3  -2  250.94    8.17
   0  -3  -2  111.14    3.67
   0  -3   2  107.52    3.69
   0  -3  -2  106.69    3.71
   0  -3  -2  114.53    3.52
   0  -3  -2  107.68    3.48
   0  -3   2  109.30    4.01
   0  -3   2  106.36    3.51
   0   3  -2  111.28    3.70
   0   3  -2  105.70    4.01
   0   3  -2  107.80    3.51
   0   3   2  112.83    3.66
   0   3   2  100.87    3.70
   0   3   2  108.77    3.48
   0   3   2  110.07    3.52
   1  -3   2  467.29   14.29
  -1  -3  -2  443.91   15.00
   1  -3   2  458.95   14.28
  -1  -3  -2  427.54   14.27
  -1  -3  -2  432.87   15.06
   1  -3   2  476.59   15.03
  -1  -3  -2  457.88   14.31
  -1  -3  -2  458.96   16.39
  -1   3  -2  450.37   14.29
   1   3   2  443.19   14.31
  -1   3  -2  437.82   14.27
   1   3   2  404.51   15.05
   1   3   2  457.69   15.00
  -1   3  -2  469.69   15.03
  -1   3  -2  452.21   16.52
   1   3   2  448.45   14.27
  -2  -3  -2    1.20    0.13
  -2  -3  -2    1.12    0.20
   2  -3   2    0.77    0.14
  -2  -3  -2    1.01    0.12
   2  -3   2    0.77    0.13
   2  -3   2    0.98    0.13
  -2  -3  -2    1.00    0.17
  -2  -3  -2    0.95    0.17
   2   3   2    1.10    0.12
  -2   3  -2    0.94    0.14
   2   3   2    1.00    0.21
   2   3   2    0.93    0.17
   2   3   2    1.02    0.12
   2   3   2    1.01    0.18
  -2   3  -2    0.97    0.12
  -2   3  -2    0.93    0.12
  -3  -3  -2   23.27    0.87
  -3  -3  -2   23.39    1.03
   3  -3   2   23.86    0.86
  -3  -3  -2   25.10    0.99
   3  -3   2   24.10    0.94
   3   3   2   25.03    0.88
   3   3   2   23.32    1.06
   3   3   2   23.96    0.94
   3   3   2   23.30    1.03
  -3   3  -2   23.47    0.87
  -3   3  -2   22.52    0.86
  -4  -3  -2    0.22    0.13
   4  -3   2    0.33    0.19
   4  -3   2    0.34    0.14
  -4   3  -2    0.56    0.16
   4   3   2   -0.27    0.24
  -4   3  -2    0.40    0.06
   4   3   2    0.31    0.21
   4   3   2    0.03    0.20
  -4   3  -2    0.39    0.14
   5  -3   2    4.54    0.40
   5  -3   2    4.37    0.28
   5  -3   2    4.59    0.27
  -5  -3  -2    4.50    0.30
   5   3   2    4.32    0.40
   5   3   2    4.41    0.43
  -5   3  -2    4.04    0.28
  -5   3  -2    4.53    0.31
  -5   3  -2    4.77    0.25
   5   3   2    4.49    0.41
  -6  -3  -2   34.85    1.36
   6  -3   2   36.10    1.34
   6  -3   2   40.44    1.48
   6  -3   2   38.15    1.51
   6   3   2   35.85    1.43
  -6   3  -2   35.68    1.36
  -6   3  -2   37.93    1.45
   6   3   2   34.43    1.57
   6   3   2   37.16    1.67
  -6   3  -2   37.42    1.35
   7  -3   2    0.55    0.26
  -7  -3  -2    0.36    0.20
   7  -3   2    0.05    0.21
   7  -3   2    0.71    0.18
   7   3   2    0.07    0.22
   7   3   2   -0.08    0.21
   7   3   2   -0.47    0.37
  -7   3  -2    0.59    0.16
  -7   3  -2    0.46    0.22
   8  -3   2    4.66    0.41
  -8  -3  -2    4.82    0.46
   8  -3   2    5.60    0.51
   8  -3   2    5.66    0.44
  -8   3  -2    5.28    0.43
   8   3   2    5.20    0.54
   8   3   2    4.30    0.65
   8   3   2    4.97    0.60
  -9  -3  -2    0.22    0.23
   9  -3   2    0.13    0.23
   9  -3   2    0.16    0.36
   9   3   2    0.03    0.26
  -9   3  -2    0.10    0.26
   9   3   2    0.17    0.37
   9   3   2   -0.48    0.29
  10  -3   2    3.98    0.59
 -10  -3  -2    3.60    0.49
  10   3   2    3.75    0.47
  10   3   2    2.72    0.56
 -10   3  -2    4.41    0.46
  10   3   2    3.94    0.74
  11  -3   2    0.01    0.42
 -11  -3  -2    0.41    0.28
  11   3   2    0.05    0.41
  11   3   2   -0.15    0.44
 -11   3  -2    0.56    0.34
 -12  -3  -2    0.57    0.42
  12  -3   2    1.77    0.53
 -12   3  -2    1.15    0.38
  12   3   2    0.75    0.51
  12   3   2    2.20    0.68
 -13   3  -2    0.58    0.40
 -13  -4   2   -0.54    0.33
  13  -4  -2    0.58    0.37
  13   4  -2    0.32    0.50
  13   4  -2   -0.84    0.47
 -13   4   2   -0.04    0.24
 -12  -4   2    0.19    0.34
  12  -4  -2    0.50    0.34
  12   4  -2   -0.17    0.48
  12   4  -2    0.34    0.40
 -12   4   2    0.23    0.25
 -11  -4   2    5.47    0.52
  11  -4  -2    4.78    0.51
  11   4  -2    4.37    0.71
  11   4  -2    4.55    0.71
 -11   4   2    4.24    0.40
  10  -4  -2   -0.08    0.24
  10  -4  -2   -0.08    0.27
 -10  -4   2   -0.14    0.20
  10   4  -2   -0.54    0.33
 -10   4   2    0.15    0.20
  10   4  -2   -0.17    0.26
  10   4  -2   -0.13    0.41
  -9  -4   2    8.58    0.58
   9  -4  -2    8.94    0.65
   9  -4  -2    9.82    0.61
  -9   4   2    9.24    0.49
   9   4  -2    9.60    0.85
   9   4  -2    9.11    0.64
   9   4  -2    9.49    0.79
   8  -4  -2    5.75    0.49
  -8  -4   2    6.29    0.42
   8  -4  -2    6.14    0.46
  -8   4   2    6.70    0.37
   8   4  -2    6.39    0.47
   8   4  -2    4.93    0.62
   8   4  -2    5.73    0.65
  -7  -4   2    0.81    0.24
   7  -4  -2    0.58    0.19
   7  -4  -2    0.59    0.20
  -7  -4   2    0.77    0.19
   7  -4  -2    0.68    0.13
  -7   4   2    0.64    0.16
  -7   4   2    0.77    0.16
   7   4  -2    0.62    0.29
   7   4  -2    0.31    0.33
   7   4  -2    0.73    0.22
  -6  -4   2   32.09    1.17
  -6  -4   2   31.04    1.21
   6  -4  -2   31.34    1.18
   6  -4  -2   31.64    1.32
   6  -4  -2   30.67    1.06
  -6   4   2   32.08    1.08
  -6   4   2   30.32    1.09
   6   4  -2   31.06    1.50
   6   4  -2   29.49    1.35
   6   4  -2   31.71    1.23
   5  -4  -2    3.01    0.26
  -5  -4   2    2.94    0.29
   5  -4  -2    2.67    0.16
  -5  -4   2    3.02    0.24
   5  -4  -2    2.87    0.22
   5   4  -2    2.36    0.33
  -5   4   2    3.14    0.20
   5   4  -2    3.62    0.34
   5   4  -2    3.10    0.35
  -5   4   2    3.02    0.13
  -5   4   2    2.96    0.13
  -4  -4   2   12.12    0.57
   4  -4  -2   10.98    0.45
   4  -4  -2   11.87    0.40
  -4  -4   2   11.18    0.51
   4  -4  -2   11.27    0.40
  -4  -4   2   10.94    0.49
   4   4  -2   11.13    0.69
  -4   4   2   11.00    0.42
   4   4  -2   11.56    0.55
   4   4  -2   10.89    0.64
   3  -4  -2   37.65    1.30
  -3  -4   2   36.78    1.36
   3  -4  -2   39.73    1.22
  -3  -4   2   37.35    1.31
   3  -4  -2   37.10    1.21
   3   4  -2   36.09    1.58
   3   4  -2   38.15    1.37
   3   4  -2   37.03    1.46
   3   4  -2   36.62    1.36
   2  -4  -2    2.81    0.15
  -2  -4   2    2.53    0.20
  -2  -4   2    3.07    0.22
  -2  -4   2    2.67    0.27
   2  -4  -2    2.81    0.14
   2  -4  -2    2.72    0.13
   2  -4  -2    3.09    0.18
  -2  -4   2    2.81    0.25
   2   4  -2    2.85    0.23
  -2   4   2    2.80    0.14
   2   4  -2    2.95    0.19
   2   4  -2    2.93    0.20
   2   4  -2    2.43    0.28
  -2   4   2    2.67    0.15
  -2   4   2    2.95    0.17
   2   4  -2    2.56    0.29
  -1  -4   2   11.67    0.49
  -1  -4   2   12.17    0.51
   1  -4  -2   12.11    0.47
   1  -4  -2   12.83    0.51
   1  -4  -2   12.14    0.44
  -1  -4   2   12.81    0.59
   1   4  -2   12.15    0.57
   1   4  -2   12.33    0.51
  -1   4   2   12.15    0.50
   1   4  -2   12.72    0.49
  -1   4   2   12.29    0.45
  -1   4   2   12.69    0.47
   1   4  -2   12.35    0.61
  -1   4   2   12.48    0.47
   0  -4  -2    0.50    0.15
   0  -4  -2    0.37    0.13
   0  -4  -2    0.37    0.07
   0  -4   2    0.37    0.14
   0  -4  -2    0.32    0.10
   0  -4   2    0.22    0.09
   0  -4  -2    0.49    0.11
   0  -4   2    0.40    0.10
   0   4  -2    0.55    0.13
   0   4  -2    0.44    0.13
   0   4   2    0.34    0.08
   0   4  -2    0.33    0.12
   0   4   2    0.44    0.12
   0   4   2    0.31    0.13
   0   4  -2    0.49    0.12
   0   4   2    0.41    0.09
  -1  -4  -2  248.98    8.14
  -1  -4  -2  258.47    9.39
   1  -4   2  265.50    9.28
   1  -4   2  259.22    8.58
  -1  -4  -2  262.75    8.19
  -1  -4  -2  254.89    8.64
   1  -4   2  237.53    8.14
  -1  -4  -2  255.49    8.56
   1  -4   2  266.53    8.17
  -1   4  -2  259.25    8.58
   1   4   2  264.34    8.56
   1   4   2  233.35    8.62
   1   4   2  253.75    8.19
  -1   4  -2  255.26    8.15
   1   4   2  253.99    8.14
  -1   4  -2  250.09    9.34
  -2  -4  -2    7.10    0.44
  -2  -4  -2    6.69    0.34
   2  -4   2    6.44    0.31
  -2  -4  -2    7.29    0.33
   2  -4   2    6.87    0.38
   2   4   2    6.86    0.44
  -2   4  -2    6.77    0.33
  -2   4  -2    6.81    0.39
   2   4   2    6.58    0.42
  -2   4  -2    7.41    0.34
   2   4   2    7.00    0.32
   2   4   2    6.78    0.38
   3  -4   2   41.96    1.45
  -3  -4  -2   42.16    1.46
   3  -4   2   43.75    1.56
  -3  -4  -2   42.27    1.54
   3   4   2   43.18    1.78
  -3   4  -2   42.92    1.47
  -3   4  -2   41.45    1.45
   3   4   2   43.48    1.54
   3   4   2   39.25    1.63
   4  -4   2    1.27    0.18
  -4  -4  -2    1.23    0.18
   4  -4   2    1.34    0.24
   4   4   2    1.56    0.25
  -4   4  -2    1.33    0.19
   4   4   2    1.19    0.25
   4   4   2    1.34    0.33
  -4   4  -2    1.73    0.21
   5  -4   2    0.27    0.15
  -5  -4  -2    0.03    0.19
   5  -4   2    0.42    0.18
   5   4   2   -0.14    0.25
   5   4   2    0.14    0.23
  -5   4  -2    0.20    0.15
   5   4   2    0.38    0.19
  -5   4  -2    0.06    0.12
  -6  -4  -2    7.21    0.47
   6  -4   2    7.56    0.54
   6  -4   2    6.39    0.41
  -6   4  -2    6.19    0.39
   6   4   2    6.65    0.49
   6   4   2    5.93    0.63
   6   4   2    7.13    0.65
  -6   4  -2    7.60    0.44
   7  -4   2    3.45    0.46
   7  -4   2    3.84    0.35
  -7  -4  -2    3.83    0.37
   7   4   2    4.08    0.45
   7   4   2    3.93    0.53
   7   4   2    3.53    0.51
  -7   4  -2    3.82    0.36
   8  -4   2   -0.22    0.28
   8  -4   2    0.01    0.20
  -8  -4  -2   -0.27    0.28
   8   4   2   -0.43    0.32
   8   4   2   -0.41    0.33
  -8   4  -2    0.14    0.24
   8   4   2   -0.59    0.30
   9  -4   2   34.73    1.56
  -9  -4  -2   32.28    1.38
   9   4   2   36.52    1.78
   9   4   2   37.59    1.55
   9   4   2   33.95    1.78
  -9   4  -2   34.56    1.38
  10  -4   2    5.42    0.62
 -10  -4  -2    4.94    0.49
  10   4   2    4.82    0.60
  10   4   2    4.71    0.68
  10   4   2    4.28    0.67
 -10   4  -2    4.81    0.48
 -11  -4  -2    4.93    0.58
  11  -4   2    5.32    0.65
  11   4   2    6.27    0.87
 -11   4  -2    5.18    0.52
  11   4   2    4.83    0.74
  12  -4   2    0.57    0.44
 -12  -4  -2    0.09    0.29
  12   4   2   -0.84    0.47
  12   4   2    0.22    0.60
 -12   4  -2   -0.16    0.30
 -13   4  -2    1.43    0.46
  13  -5  -2    0.63    0.36
 -13  -5   2    0.02    0.38
  13   5  -2   -0.12    0.59
  12  -5  -2    0.40    0.32
 -12  -5   2    0.05    0.34
 -12   5   2    0.61    0.27
  12   5  -2    0.21    0.40
  12   5  -2    0.17    0.40
 -11  -5   2   -0.20    0.22
  11  -5  -2   -0.05    0.24
  11   5  -2   -0.35    0.48
  11   5  -2   -0.33    0.44
 -11   5   2   -0.13    0.21
 -10  -5   2    4.06    0.46
  10  -5  -2    4.21    0.45
  10   5  -2    3.10    0.62
 -10   5   2    3.55    0.34
  10   5  -2    3.94    0.51
  10   5  -2    4.02    0.68
   9  -5  -2    3.18    0.37
  -9  -5   2    3.08    0.40
   9  -5  -2    2.55    0.36
   9   5  -2    3.41    0.53
   9   5  -2    2.80    0.44
   9   5  -2    2.38    0.57
  -9   5   2    3.42    0.32
   8  -5  -2   -0.19    0.17
   8  -5  -2   -0.09    0.20
  -8  -5   2   -0.05    0.18
  -8   5   2   -0.23    0.15
   8   5  -2   -0.03    0.26
   8   5  -2   -0.46    0.25
   8   5  -2   -0.33    0.26
   7  -5  -2   69.19    2.39
  -7  -5   2   64.93    2.32
   7  -5  -2   68.64    2.19
  -7  -5   2   65.54    2.42
   7  -5  -2   70.57    2.63
  -7   5   2   65.38    2.24
   7   5  -2   66.18    2.85
  -7   5   2   69.71    2.23
  -7   5   2   58.23    2.22
   7   5  -2   66.91    2.42
   7   5  -2   67.62    2.65
   6  -5  -2    2.69    0.27
  -6  -5   2    3.00    0.32
   6  -5  -2    3.18    0.18
  -6  -5   2    2.97    0.28
   6  -5  -2    3.44    0.31
   6   5  -2    2.79    0.41
   6   5  -2    3.08    0.38
  -6   5   2    3.05    0.24
   6   5  -2    2.71    0.45
   5  -5  -2    0.02    0.13
   5  -5  -2    0.18    0.12
  -5  -5   2    0.10    0.14
   5  -5  -2    0.10    0.07
  -5  -5   2    0.37    0.15
   5   5  -2    0.27    0.20
  -5   5   2    0.05    0.11
   5   5  -2    0.19    0.17
   5   5  -2    0.09    0.28
   4  -5  -2   29.97    0.99
   4  -5  -2   30.91    1.08
   4  -5  -2   32.65    1.00
  -4  -5   2   30.35    1.11
  -4  -5   2   30.25    1.16
  -4   5   2   30.80    1.01
   4   5  -2   29.70    1.38
   4   5  -2   28.00    1.26
  -4   5   2   26.09    1.01
   4   5  -2   30.49    1.17
   3  -5  -2   21.74    0.72
   3  -5  -2   21.50    0.77
  -3  -5   2   20.63    0.84
   3  -5  -2   22.16    0.72
  -3  -5   2   21.44    0.82
  -3   5   2   20.29    0.75
   3   5  -2   20.42    0.96
   3   5  -2   21.33    0.87
  -3   5   2   21.38    0.75
   3   5  -2   20.48    1.03
   2  -5  -2    6.08    0.30
  -2  -5   2    5.10    0.29
   2  -5  -2    5.52    0.23
   2  -5  -2    5.27    0.26
  -2  -5   2    5.22    0.34
   2   5  -2    4.93    0.42
  -2   5   2    5.48    0.27
   2   5  -2    4.86    0.42
  -2   5   2    5.41    0.24
  -2   5   2    5.47    0.24
   2   5  -2    5.27    0.34
   1  -5  -2  176.05    5.73
  -1  -5   2  167.60    6.31
   1  -5  -2  167.15    5.43
  -1  -5   2  168.54    5.48
   1  -5  -2  182.48    5.79
  -1  -5   2  167.30    5.77
  -1   5   2  160.63    5.76
  -1   5   2  174.25    5.48
   1   5  -2  171.40    5.48
  -1   5   2  174.74    5.44
   1   5  -2  163.93    5.83
  -1   5   2  173.28    5.72
   1   5  -2  161.03    6.32
   0  -5  -2    7.02    0.34
   0  -5  -2    6.54    0.30
   0  -5  -2    6.53    0.41
   0  -5   2    6.32    0.31
   0  -5  -2    6.59    0.32
   0  -5   2    6.58    0.37
   0  -5   2    6.30    0.36
   0  -5  -2    6.96    0.39
   0   5   2    6.31    0.38
   0   5   2    6.35    0.29
   0   5  -2    6.47    0.33
   0   5  -2    6.73    0.42
   0   5   2    6.45    0.31
   0   5   2    6.74    0.36
   0   5  -2    6.23    0.38
  -1  -5  -2    4.44    0.29
   1  -5   2    4.91    0.27
   1  -5   2    4.82    0.26
  -1  -5  -2    4.67    0.27
   1  -5   2    4.77    0.32
  -1  -5  -2    4.50    0.36
  -1   5  -2    4.54    0.29
   1   5   2    4.75    0.25
  -1   5  -2    4.84    0.28
   1   5   2    3.80    0.37
   1   5   2    4.90    0.31
  -2  -5  -2   26.21    0.99
   2  -5   2   27.98    0.97
  -2  -5  -2   24.98    1.07
   2  -5   2   24.65    0.98
  -2  -5  -2   24.82    0.93
   2  -5   2   26.29    0.93
   2   5   2   23.00    1.06
   2   5   2   25.95    0.94
  -2   5  -2   25.07    0.92
   2   5   2   25.86    1.16
   2   5   2   25.25    0.99
  -3  -5  -2   19.92    0.83
   3  -5   2   20.22    0.85
   3  -5   2   20.66    0.77
  -3  -5  -2   20.43    0.78
  -3   5  -2   20.65    0.80
  -3   5  -2   20.27    0.77
   3   5   2   20.15    0.99
   3   5   2   20.46    0.88
   3   5   2   20.07    0.97
   4  -5   2    7.34    0.45
  -4  -5  -2    7.10    0.44
  -4  -5  -2    7.12    0.39
   4  -5   2    7.28    0.38
  -4   5  -2    6.83    0.37
  -4   5  -2    7.44    0.40
   4   5   2    7.49    0.46
   4   5   2    6.53    0.52
   4   5   2    7.22    0.54
   5  -5   2   30.95    1.14
   5  -5   2   32.34    1.25
  -5  -5  -2   30.36    1.17
  -5   5  -2   31.75    1.17
   5   5   2   30.52    1.46
   5   5   2   31.68    1.26
  -5   5  -2   29.13    1.14
   5   5   2   32.13    1.43
   6  -5   2   36.31    1.43
  -6  -5  -2   33.44    1.30
   6  -5   2   35.71    1.28
   6   5   2   35.64    1.41
  -6   5  -2   32.17    1.28
   6   5   2   33.91    1.55
  -6   5  -2   34.92    1.30
   6   5   2   34.02    1.63
   7  -5   2   14.24    0.64
  -7  -5  -2   12.41    0.71
   7  -5   2   13.39    0.72
   7   5   2   12.73    0.88
  -7   5  -2   14.64    0.68
   7   5   2   12.12    0.96
   7   5   2   12.81    0.76
   8  -5   2    3.43    0.34
  -8  -5  -2    3.35    0.39
   8  -5   2    4.11    0.49
   8   5   2    3.48    0.46
   8   5   2    2.98    0.56
  -8   5  -2    3.02    0.36
   8   5   2    3.19    0.54
   9  -5   2    3.79    0.50
  -9  -5  -2    3.97    0.43
   9   5   2    4.06    0.72
   9   5   2    3.97    0.50
   9   5   2    3.93    0.63
  -9   5  -2    3.54    0.42
  10  -5   2    1.85    0.44
 -10  -5  -2    1.78    0.43
  10   5   2    1.45    0.50
 -10   5  -2    1.64    0.35
  10   5   2    2.21    0.48
  10   5   2    1.29    0.54
 -11  -5  -2    1.08    0.33
  11  -5   2    1.12    0.46
  11   5   2   -0.39    0.50
 -11   5  -2    0.54    0.34
  11   5   2    1.55    0.47
  11   5   2    0.86    0.62
  12  -5   2    0.38    0.47
 -12  -5  -2   -0.21    0.39
  12   5   2    0.35    0.45
  12   5   2   -0.58    0.54
 -12   5  -2    0.12    0.33
  13  -6  -2   -0.35    0.31
  13   6  -2    0.15    0.62
 -12  -6   2    5.05    0.57
  12  -6  -2    4.63    0.52
  12   6  -2    3.89    0.81
 -12   6   2    5.72    0.48
  12   6  -2    4.30    0.70
  11  -6  -2   -0.19    0.27
 -11  -6   2    0.17    0.27
  11   6  -2    0.32    0.53
 -11   6   2    0.52    0.25
  11   6  -2    0.16    0.40
  10  -6  -2    2.31    0.36
 -10  -6   2    2.31    0.41
 -10   6   2    2.53    0.30
  10   6  -2    2.66    0.62
  10   6  -2    2.41    0.47
  10   6  -2    1.71    0.59
   9  -6  -2    1.04    0.26
  -9  -6   2    0.86    0.34
   9   6  -2    0.94    0.47
   9   6  -2    0.85    0.30
  -9   6   2    0.91    0.21
   9   6  -2    0.48    0.51
   8  -6  -2   11.21    0.57
   8  -6  -2   10.86    0.63
  -8  -6   2    9.97    0.59
  -8  -6   2    9.68    0.64
  -8   6   2   11.37    0.52
   8   6  -2   10.37    0.85
   8   6  -2    9.92    0.71
   8   6  -2   10.44    0.80
  -7  -6   2   14.27    0.72
  -7  -6   2   14.70    0.75
   7  -6  -2   15.22    0.74
   7  -6  -2   14.99    0.66
   7   6  -2   13.87    0.96
  -7   6   2   13.44    0.61
   7   6  -2   14.67    0.82
   7   6  -2   14.13    1.03
  -6  -6   2   16.48    0.79
   6  -6  -2   17.22    0.70
  -6  -6   2   16.54    0.77
   6  -6  -2   16.72    0.60
   6  -6  -2   17.72    0.79
   6   6  -2   15.50    1.03
   6   6  -2   15.45    0.92
   6   6  -2   17.68    0.87
  -5  -6   2   17.91    0.81
   5  -6  -2   18.38    0.72
  -5  -6   2   17.09    0.77
   5  -6  -2   18.43    0.63
   5   6  -2   17.68    0.83
   5   6  -2   17.05    0.92
   5   6  -2   18.88    1.02
  -4  -6   2    9.07    0.44
  -4  -6   2    7.79    0.45
   4  -6  -2    8.54    0.38
   4  -6  -2    8.19    0.32
  -4   6   2    7.57    0.33
   4   6  -2    8.60    0.58
   4   6  -2    8.69    0.61
   4   6  -2    8.96    0.55
  -4   6   2    7.28    0.33
   3  -6  -2   33.12    1.16
  -3  -6   2   32.01    1.18
   3  -6  -2   32.11    1.08
  -3  -6   2   33.94    1.25
  -3   6   2   31.04    1.09
   3   6  -2   33.95    1.46
   3   6  -2   31.78    1.34
  -3   6   2   32.24    1.14
   3   6  -2   31.86    1.24
  -3   6   2   29.72    1.15
   2  -6  -2   32.94    1.10
   2  -6  -2   35.97    1.23
  -2  -6   2   32.24    1.18
   2  -6  -2   33.11    1.18
  -2  -6   2   32.88    1.24
   2   6  -2   30.94    1.34
   2   6  -2   32.99    1.44
  -2   6   2   30.35    1.19
  -2   6   2   33.24    1.16
  -2   6   2   32.38    1.11
  -2   6   2   32.21    1.16
   2   6  -2   31.59    1.24
   1  -6  -2   59.53    1.99
   1  -6  -2   53.99    1.91
   1  -6  -2   58.47    2.17
   1  -6  -2   53.03    1.80
  -1  -6   2   54.07    2.16
  -1  -6   2   53.56    1.85
  -1  -6   2   52.05    1.95
   1   6  -2   52.45    2.03
   1   6  -2   54.29    1.91
   1   6  -2   54.05    2.18
  -1   6   2   51.45    1.95
  -1   6   2   55.19    1.86
  -1   6   2   55.12    1.81
   0  -6   2   51.83    1.78
   0  -6  -2   55.34    1.95
   0  -6  -2   51.98    1.86
   0  -6   2   51.90    1.89
   0  -6   2   54.17    2.06
   0  -6  -2   51.98    1.76
   0   6  -2   52.88    2.07
   0   6  -2   53.24    1.79
   0   6   2   53.44    1.76
   0   6   2   52.21    1.81
   0   6  -2   50.63    1.94
   0   6   2   50.05    1.92
   1  -6   2   95.78    3.21
   1  -6   2  101.13    3.66
  -1  -6  -2   95.58    3.20
   1  -6   2   99.01    3.40
  -1  -6  -2  103.17    3.49
  -1  -6  -2   95.28    3.37
   1   6   2   97.59    3.28
   1   6   2  100.31    3.21
  -1   6  -2   96.87    3.65
  -1   6  -2   99.03    3.45
   1   6   2   93.36    3.46
  -1   6  -2   95.78    3.21
   2  -6   2   55.73    1.91
  -2  -6  -2   56.88    1.93
   2  -6   2   56.15    2.04
   2  -6   2   59.47    2.12
  -2  -6  -2   56.57    2.03
   2   6   2   59.40    2.32
   2   6   2   55.59    2.01
  -2   6  -2   56.13    1.92
   2   6   2   53.32    2.14
  -3  -6  -2    3.70    0.28
   3  -6   2    3.60    0.33
  -3  -6  -2    3.54    0.27
   3  -6   2    3.54    0.27
  -3   6  -2    3.25    0.27
   3   6   2    4.23    0.41
   3   6   2    3.67    0.36
   3   6   2    3.63    0.44
   4  -6   2    3.51    0.36
  -4  -6  -2    3.99    0.32
   4  -6   2    4.11    0.29
  -4  -6  -2    4.04    0.30
   4   6   2    3.75    0.46
   4   6   2    3.66    0.42
  -4   6  -2    3.79    0.33
  -4   6  -2    3.88    0.29
   4   6   2    3.28    0.42
   5  -6   2   40.70    1.56
  -5  -6  -2   42.19    1.56
  -5  -6  -2   37.20    1.45
   5  -6   2   40.04    1.42
  -5   6  -2   37.48    1.43
   5   6   2   40.40    1.57
   5   6   2   40.25    1.74
   5   6   2   39.12    1.81
  -5   6  -2   41.06    1.47
   6  -6   2   49.96    1.71
  -6  -6  -2   48.62    1.77
   6  -6   2   50.00    1.87
   6   6   2   47.94    2.19
  -6   6  -2   43.45    1.70
   6   6   2   48.66    1.87
  -6   6  -2   48.66    1.74
   6   6   2   47.01    2.03
   7  -6   2    0.94    0.22
   7  -6   2    0.55    0.32
  -7  -6  -2    0.89    0.26
  -7   6  -2    1.27    0.27
   7   6   2    0.46    0.29
   7   6   2    0.43    0.50
   7   6   2    0.78    0.44
   8  -6   2    0.18    0.33
  -8  -6  -2    0.54    0.26
   8   6   2    0.50    0.39
   8   6   2    0.19    0.33
  -8   6  -2    0.45    0.27
   8   6   2    0.14    0.40
  -9  -6  -2    2.62    0.44
   9  -6   2    4.22    0.51
   9   6   2    3.57    0.66
  -9   6  -2    3.27    0.40
   9   6   2    3.09    0.70
   9   6   2    4.69    0.61
  10  -6   2    7.11    0.68
 -10  -6  -2    7.88    0.69
  10   6   2    8.77    0.87
  10   6   2    8.83    0.80
  10   6   2    5.37    0.74
 -10   6  -2    7.20    0.61
 -11  -6  -2    0.52    0.33
  11  -6   2    0.90    0.42
  11   6   2    1.96    0.70
 -11   6  -2    0.85    0.34
  11   6   2    0.25    0.55
  11   6   2    1.42    0.48
 -12  -6  -2    1.03    0.46
  12  -6   2    1.22    0.46
 -12   6  -2    0.41    0.34
  12   6   2    0.55    0.65
  12   6   2   -0.32    0.57
 -12  -7   2    0.47    0.40
  12  -7  -2    0.24    0.32
  12   7  -2   -0.75    0.58
  12   7  -2    0.31    0.61
 -11  -7   2   -0.06    0.25
  11  -7  -2    0.05    0.30
  11   7  -2   -0.53    0.52
 -11   7   2    0.53    0.22
  11   7  -2   -0.04    0.53
  10  -7  -2    1.03    0.30
 -10  -7   2    0.99    0.30
  10   7  -2    0.60    0.55
  10   7  -2    0.89    0.41
 -10   7   2    1.28    0.26
  10   7  -2    1.20    0.47
   9  -7  -2   15.82    0.79
  -9  -7   2   16.56    0.90
   9   7  -2   15.89    1.10
  -9   7   2   18.04    0.74
   9   7  -2   16.71    1.26
   9   7  -2   17.09    0.94
  -8  -7   2    3.69    0.44
   8  -7  -2    3.63    0.36
  -8  -7   2    2.63    0.36
   8   7  -2    2.94    0.60
   8   7  -2    4.02    0.67
   8   7  -2    3.14    0.50
  -7  -7   2   -0.18    0.27
   7  -7  -2    0.25    0.17
   7  -7  -2    0.01    0.17
  -7  -7   2   -0.19    0.26
   7   7  -2   -0.15    0.41
   7   7  -2   -0.46    0.29
   7   7  -2   -0.07    0.26
   6  -7  -2    6.75    0.29
  -6  -7   2    6.69    0.51
   6  -7  -2    6.61    0.41
  -6  -7   2    5.96    0.43
   6  -7  -2    6.31    0.38
   6   7  -2    5.73    0.56
   6   7  -2    5.98    0.60
   6   7  -2    6.90    0.65
  -5  -7   2    0.24    0.17
  -5  -7   2    0.05    0.16
   5  -7  -2    0.12    0.08
   5  -7  -2   -0.12    0.13
  -5   7   2   -0.10    0.09
   5   7  -2   -0.11    0.25
  -5   7   2    0.05    0.05
  -5   7   2    0.03    0.06
   5   7  -2   -0.55    0.18
   5   7  -2   -0.17    0.27
   4  -7  -2   66.45    2.31
  -4  -7   2   67.08    2.29
   4  -7  -2   68.14    2.17
  -4  -7   2   69.52    2.42
   4   7  -2   65.86    2.39
   4   7  -2   66.80    2.77
   4   7  -2   65.15    2.57
  -4   7   2   63.68    2.28
  -4   7   2   64.16    2.18
  -3  -7   2    1.41    0.26
   3  -7  -2    1.18    0.13
  -3  -7   2    1.31    0.19
   3  -7  -2    1.41    0.17
  -3   7   2    1.23    0.18
   3   7  -2    0.97    0.27
   3   7  -2    0.97    0.23
  -3   7   2    1.19    0.14
   3   7  -2    0.84    0.33
  -2  -7   2   10.94    0.52
  -2  -7   2    9.64    0.50
   2  -7  -2   12.45    0.54
   2  -7  -2   10.06    0.42
   2  -7  -2   10.54    0.46
  -2   7   2   10.28    0.49
  -2   7   2    9.83    0.50
   2   7  -2    9.55    0.62
   2   7  -2   10.37    0.55
   2   7  -2   10.13    0.65
  -2   7   2   10.32    0.43
  -1  -7   2    9.62    0.45
   1  -7  -2    9.39    0.41
   1  -7  -2    9.76    0.45
   1  -7  -2   10.26    0.52
  -1  -7   2    9.85    0.49
   1   7  -2   10.49    0.62
  -1   7   2    9.74    0.48
   1   7  -2    8.77    0.50
   1   7  -2   10.02    0.60
  -1   7   2    9.67    0.42
  -1   7   2    9.09    0.50
   0  -7   2    3.98    0.27
   0  -7  -2    4.01    0.32
   0  -7  -2    3.52    0.29
   0  -7   2    3.60    0.34
   0  -7  -2    4.02    0.26
   0  -7   2    3.89    0.32
   0   7   2    3.92    0.34
   0   7  -2    3.72    0.39
   0   7  -2    3.78    0.35
   0   7   2    4.15    0.27
   0   7   2    4.07    0.32
  -1  -7  -2  207.90    6.92
  -1  -7  -2  203.66    6.56
   1  -7   2  200.40    6.57
   1  -7   2  207.15    6.93
   1  -7   2  212.54    7.51
  -1  -7  -2  210.07    7.03
   1   7   2  204.80    6.65
   1   7   2  204.61    6.57
   1   7   2  187.47    7.00
  -1   7  -2  206.61    6.58
  -1   7  -2  200.80    7.50
  -1   7  -2  195.68    6.98
   2  -7   2   70.17    2.52
  -2  -7  -2   70.51    2.51
   2  -7   2   73.99    2.65
  -2  -7  -2   67.66    2.37
   2  -7   2   69.70    2.37
  -2   7  -2   69.84    2.37
   2   7   2   74.71    2.87
   2   7   2   68.67    2.47
   2   7   2   64.78    2.61
  -2   7  -2   73.58    2.58
   3  -7   2   21.26    0.76
  -3  -7  -2   19.74    0.86
   3  -7   2   19.69    0.87
   3  -7   2   20.06    0.79
  -3  -7  -2   19.53    0.81
   3   7   2   21.84    1.10
  -3   7  -2   18.97    0.79
   3   7   2   19.53    1.01
   3   7   2   20.81    0.91
   4  -7   2   13.01    0.58
  -4  -7  -2   13.45    0.68
  -4  -7  -2   12.51    0.61
   4  -7   2   13.61    0.68
  -4   7  -2   12.57    0.59
   4   7   2   13.88    0.88
   4   7   2   14.20    0.81
   4   7   2   12.86    0.75
  -5  -7  -2    5.15    0.40
   5  -7   2    4.57    0.44
   5  -7   2    3.92    0.34
  -5  -7  -2    4.79    0.38
   5   7   2    3.83    0.50
   5   7   2    4.74    0.53
  -5   7  -2    4.32    0.35
   5   7   2    4.81    0.62
  -5   7  -2    4.32    0.36
   6  -7   2    2.46    0.28
   6  -7   2    2.69    0.38
  -6  -7  -2    2.07    0.36
  -6   7  -2    2.65    0.33
   6   7   2    1.70    0.45
   6   7   2    2.28    0.52
   6   7   2    2.91    0.50
   7  -7   2   26.47    1.05
   7  -7   2   27.43    1.20
  -7  -7  -2   26.65    1.16
   7   7   2   24.39    1.44
   7   7   2   26.63    1.29
  -7   7  -2   26.36    1.11
   7   7   2   27.85    1.52
   8  -7   2    2.85    0.43
  -8  -7  -2    2.69    0.38
   8   7   2    3.28    0.62
   8   7   2    2.51    0.52
  -8   7  -2    2.64    0.37
   8   7   2    2.38    0.54
  -9  -7  -2    1.61    0.40
   9  -7   2    1.23    0.39
  -9   7  -2    1.06    0.32
   9   7   2    1.01    0.45
   9   7   2    1.85    0.53
   9   7   2    1.91    0.49
 -10  -7  -2    2.13    0.46
  10  -7   2    1.87    0.47
  10   7   2    1.69    0.52
 -10   7  -2    1.98    0.41
  10   7   2    0.86    0.59
  10   7   2    2.85    0.73
  11  -7   2    1.16    0.48
 -11  -7  -2    0.52    0.33
 -11   7  -2    0.90    0.38
  11   7   2    0.79    0.50
  11   7   2    0.61    0.61
  11   7   2    1.17    0.49
  12  -7   2    2.62    0.54
 -12   7  -2    2.53    0.45
  12   7   2    1.42    0.70
 -12  -8   2    3.38    0.55
  12   8  -2    1.78    0.79
  11  -8  -2   -0.20    0.29
 -11  -8   2   -0.45    0.36
  11   8  -2    0.08    0.57
  11   8  -2   -0.62    0.58
 -10  -8   2    4.40    0.53
  10  -8  -2    4.09    0.42
  10   8  -2    4.46    0.61
  10   8  -2    2.32    0.71
  10   8  -2    3.49    0.76
   9  -8  -2    0.35    0.25
  -9  -8   2    0.43    0.27
  -9  -8   2    0.43    0.27
   9   8  -2    0.20    0.29
   9   8  -2    0.79    0.57
   9   8  -2    0.61    0.52
   8  -8  -2    0.45    0.23
  -8  -8   2    0.97    0.36
  -8  -8   2    0.28    0.32
   8   8  -2    0.25    0.51
   8   8  -2    0.36    0.39
   8   8  -2    0.38    0.35
  -7  -8   2    9.96    0.61
  -7  -8   2   10.27    0.70
   7  -8  -2   10.88    0.54
   7  -8  -2   11.09    0.58
   7   8  -2   10.03    0.86
   7   8  -2    9.65    0.81
   7   8  -2    9.55    0.69
  -6  -8   2    9.15    0.61
   6  -8  -2    9.06    0.46
   6  -8  -2    9.47    0.50
  -6  -8   2    7.65    0.58
   6   8  -2    7.98    0.74
   6   8  -2    7.68    0.71
   6   8  -2    8.10    0.61
  -5  -8   2    1.11    0.30
   5  -8  -2    1.13    0.19
  -5  -8   2    1.08    0.24
   5  -8  -2    1.19    0.13
  -5   8   2    0.96    0.12
   5   8  -2   -0.13    0.39
  -5   8   2    1.37    0.17
   5   8  -2    0.71    0.40
   5   8  -2    0.19    0.33
   4  -8  -2    8.92    0.38
  -4  -8   2   10.08    0.54
  -4  -8   2    8.98    0.50
   4  -8  -2    9.10    0.45
   4   8  -2    8.59    0.63
  -4   8   2    8.75    0.40
   4   8  -2    8.28    0.64
   4   8  -2    9.58    0.70
  -4   8   2    8.23    0.42
  -3  -8   2    2.05    0.28
   3  -8  -2    2.55    0.22
  -3  -8   2    1.59    0.29
   3  -8  -2    1.73    0.16
   3   8  -2    1.91    0.34
   3   8  -2    1.76    0.34
   3   8  -2    1.41    0.28
  -3   8   2    1.62    0.21
  -3   8   2    1.90    0.23
  -3   8   2    1.82    0.19
  -2  -8   2    2.27    0.27
   2  -8  -2    2.28    0.20
   2  -8  -2    2.24    0.22
   2  -8  -2    2.57    0.28
  -2  -8   2    2.11    0.24
   2   8  -2    2.27    0.40
  -2   8   2    2.33    0.22
   2   8  -2    1.63    0.34
  -2   8   2    2.30    0.27
   2   8  -2    2.16    0.30
  -2   8   2    2.03    0.26
   1  -8  -2   12.87    0.53
   1  -8  -2   13.72    0.66
  -1  -8   2   12.47    0.57
  -1  -8   2   12.03    0.61
   1  -8  -2   12.50    0.57
  -1   8   2   12.07    0.60
  -1   8   2   12.94    0.54
   1   8  -2   13.98    0.73
   1   8  -2   12.37    0.64
   1   8  -2   12.58    0.70
  -1   8   2   12.12    0.63
   0  -8  -2    5.04    0.35
   0  -8   2    4.61    0.35
   0  -8   2    4.87    0.32
   0  -8  -2    5.89    0.40
   0  -8  -2    5.07    0.28
   0   8   2    4.59    0.39
   0   8   2    4.74    0.31
   0   8  -2    5.04    0.42
   0   8  -2    5.15    0.42
   0   8   2    4.57    0.42
   1  -8   2   14.38    0.70
   1  -8   2   15.23    0.67
  -1  -8  -2   16.67    0.66
  -1  -8  -2   14.93    0.69
   1  -8   2   16.92    0.75
   1   8   2   15.57    0.76
  -1   8  -2   16.19    0.75
  -1   8  -2   15.13    0.80
   1   8   2   15.79    0.82
  -2  -8  -2   36.39    1.42
   2  -8   2   36.15    1.42
   2  -8   2   38.42    1.35
  -2  -8  -2   37.49    1.36
   2  -8   2   38.96    1.48
   2   8   2   36.51    1.44
   2   8   2   36.08    1.56
   2   8   2   38.30    1.68
  -2   8  -2   36.01    1.48
   3  -8   2    4.38    0.33
  -3  -8  -2    4.33    0.38
  -3  -8  -2    4.20    0.36
   3  -8   2    4.89    0.25
   3  -8   2    3.88    0.40
   3   8   2    4.34    0.52
  -3   8  -2    4.62    0.43
   3   8   2    4.42    0.48
   3   8   2    4.71    0.48
  -4  -8  -2   13.87    0.65
   4  -8   2   12.92    0.62
   4  -8   2   13.82    0.72
  -4  -8  -2   14.12    0.73
   4   8   2   14.53    0.95
   4   8   2   13.38    0.90
   4   8   2   13.66    0.81
  -4   8  -2   13.39    0.66
  -4   8  -2   13.30    0.73
  -5  -8  -2    2.99    0.36
   5  -8   2    3.85    0.34
  -5  -8  -2    2.68    0.33
   5  -8   2    3.09    0.38
   5   8   2    3.45    0.54
   5   8   2    3.39    0.45
   5   8   2    3.36    0.51
  -6  -8  -2    0.26    0.30
  -6  -8  -2   -0.03    0.20
   6  -8   2   -0.10    0.26
   6  -8   2   -0.12    0.19
   6   8   2   -0.23    0.26
   6   8   2    0.00    0.29
   6   8   2   -0.55    0.43
   7  -8   2    0.58    0.32
  -7  -8  -2    0.53    0.33
   7   8   2    0.50    0.32
   7   8   2    0.34    0.35
   7   8   2    0.48    0.39
  -7   8  -2    0.51    0.27
   8  -8   2    0.95    0.36
  -8  -8  -2    1.49    0.39
  -8   8  -2    1.37    0.36
   8   8   2    1.84    0.50
   8   8   2    2.23    0.60
   8   8   2    1.33    0.62
  -9  -8  -2    0.32    0.29
   9  -8   2    0.23    0.34
   9   8   2   -0.30    0.40
  -9   8  -2    0.30    0.31
   9   8   2    0.39    0.45
   9   8   2   -0.50    0.50
  10  -8   2    4.89    0.57
 -10  -8  -2    4.85    0.59
  10   8   2    6.49    0.75
  10   8   2    6.25    0.92
 -10   8  -2    4.93    0.54
  10   8   2    4.35    0.73
 -11  -8  -2    0.67    0.45
  11  -8   2    0.75    0.40
 -11   8  -2    0.12    0.36
  11   8   2    0.27    0.67
  11   8   2   -0.78    0.56
  11   8   2    0.34    0.46
 -12   8  -2    1.66    0.39
 -11  -9   2    0.39    0.31
  11   9  -2   -0.86    0.62
  11   9  -2    0.25    0.66
 -10  -9   2    0.31    0.38
  10  -9  -2    0.28    0.26
  10   9  -2    0.27    0.31
  10   9  -2    0.53    0.58
  10   9  -2    0.03    0.59
  -9  -9   2   13.26    0.86
  -9  -9   2   13.31    0.85
   9  -9  -2   13.77    0.70
   9   9  -2   13.16    0.97
   9   9  -2   12.65    1.17
   9   9  -2   13.02    1.23
  -8  -9   2   20.40    1.03
  -8  -9   2   18.72    0.99
   8  -9  -2   19.47    0.86
   8   9  -2   19.40    1.31
   8   9  -2   17.91    1.04
   8   9  -2   20.05    1.31
   7  -9  -2    0.20    0.20
  -7  -9   2   -0.20    0.22
  -7  -9   2    0.12    0.24
   7   9  -2    0.18    0.36
   7   9  -2    0.16    0.45
   7   9  -2    0.54    0.41
   6  -9  -2    0.98    0.22
  -6  -9   2    0.38    0.32
  -6  -9   2    1.32    0.28
   6   9  -2    0.70    0.30
   6   9  -2    1.08    0.49
   6   9  -2    0.55    0.38
   5  -9  -2    4.24    0.33
  -5  -9   2    4.74    0.41
  -5  -9   2    4.66    0.42
   5   9  -2    4.10    0.52
   5   9  -2    4.32    0.63
   5   9  -2    3.32    0.59
  -4  -9   2   12.50    0.69
   4  -9  -2   12.67    0.51
  -4  -9   2   13.30    0.69
   4  -9  -2   13.01    0.59
   4   9  -2   11.93    0.79
   4   9  -2   13.26    0.95
  -4   9   2   12.52    0.54
  -4   9   2   11.51    0.55
   4   9  -2   12.54    0.90
  -4   9   2   13.31    0.61
  -3  -9   2    1.23    0.26
   3  -9  -2    1.26    0.22
  -3  -9   2    0.78    0.21
   3  -9  -2    1.01    0.16
  -3   9   2    1.51    0.25
   3   9  -2    0.89    0.34
   3   9  -2    1.07    0.32
  -3   9   2    1.25    0.19
  -3   9   2    1.29    0.22
   3   9  -2    0.80    0.28
   2  -9  -2   23.69    0.91
   2  -9  -2   23.15    0.84
  -2  -9   2   21.17    0.90
  -2  -9   2   23.09    1.00
   2   9  -2   21.01    1.11
  -2   9   2   21.33    0.95
   2   9  -2   22.05    1.03
  -2   9   2   22.64    0.92
   2   9  -2   22.68    1.18
  -2   9   2   22.86    0.85
   1  -9  -2    4.31    0.40
   1  -9  -2    4.11    0.33
  -1  -9   2    3.84    0.36
  -1  -9   2    3.26    0.33
   1  -9  -2    3.76    0.27
   1   9  -2    3.51    0.42
   1   9  -2    3.18    0.41
  -1   9   2    3.85    0.29
   1   9  -2    3.92    0.43
  -1   9   2    3.72    0.38
  -1   9   2    3.51    0.35
   0  -9   2   78.12    2.73
   0  -9  -2   75.41    2.53
   0  -9  -2   76.26    2.68
   0  -9   2   75.98    2.57
   0   9  -2   78.13    2.99
   0   9  -2   72.39    2.80
   0   9   2   76.69    2.63
   0   9  -2   70.57    2.63
   0   9   2   75.88    2.54
   0   9   2   71.86    2.76
  -1  -9  -2   19.45    0.84
  -1  -9  -2   18.72    0.76
   1  -9   2   17.80    0.83
   1  -9   2   19.58    0.80
  -1   9  -2   19.30    0.89
  -1   9  -2   18.74    0.94
   1   9   2   17.07    0.93
   1   9   2   20.38    0.90
  -2  -9  -2   16.21    0.71
   2  -9   2   16.67    0.71
   2  -9   2   17.51    0.78
  -2  -9  -2   16.79    0.80
   2  -9   2   16.69    0.80
   2   9   2   17.42    0.87
  -2   9  -2   16.78    0.86
   2   9   2   16.26    0.93
  -3  -9  -2   36.40    1.44
   3  -9   2   36.30    1.43
  -3  -9  -2   35.01    1.33
   3  -9   2   35.86    1.31
   3  -9   2   35.15    1.38
   3   9   2   38.10    1.74
   3   9   2   32.34    1.53
  -3   9  -2   35.53    1.47
   3   9   2   33.13    1.43
  -4  -9  -2   34.26    1.31
   4  -9   2   33.29    1.25
  -4  -9  -2   31.87    1.35
   4  -9   2   33.12    1.37
   4   9   2   34.57    1.65
   4   9   2   33.74    1.41
  -4   9  -2   32.98    1.40
   4   9   2   32.29    1.56
  -5  -9  -2   12.71    0.71
  -5  -9  -2   11.99    0.70
   5  -9   2   12.60    0.67
   5  -9   2   11.97    0.60
   5   9   2   13.11    1.01
  -5   9  -2   13.21    0.75
   5   9   2   11.58    0.85
   5   9   2   12.04    0.77
   6  -9   2    0.02    0.27
  -6  -9  -2   -0.47    0.19
  -6  -9  -2   -0.81    0.29
   6   9   2   -0.18    0.28
   6   9   2   -0.20    0.29
   6   9   2   -0.30    0.32
  -7  -9  -2   -0.21    0.23
   7  -9   2   -0.28    0.29
   7   9   2    0.69    0.53
   7   9   2   -0.06    0.33
   7   9   2   -0.35    0.28
  -8  -9  -2    0.91    0.39
   8  -9   2    1.35    0.37
   8   9   2    0.42    0.43
   8   9   2    0.63    0.45
   8   9   2    0.74    0.38
  -9  -9  -2    0.74    0.41
   9  -9   2    0.77    0.37
   9   9   2   -0.08    0.56
   9   9   2    0.08    0.34
   9   9   2   -0.61    0.55
  10  -9   2    1.50    0.42
 -10  -9  -2    1.83    0.40
  10   9   2    1.47    0.55
  10   9   2    2.37    0.60
  10   9   2    1.46    0.69
 -11  -9  -2   -0.49    0.41
  11  -9   2   -0.09    0.37
  11   9   2   -1.49    0.59
  11   9   2    0.56    0.51
  11   9   2    0.22    0.49
 -11 -10   2    2.75    0.55
  11  10  -2    2.22    0.84
  11  10  -2    3.09    0.84
 -10 -10   2    1.45    0.46
  10 -10  -2    1.78    0.34
  10  10  -2    2.81    0.74
  10  10  -2    0.79    0.68
  10  10  -2    2.24    0.57
  -9 -10   2    1.93    0.45
  -9 -10   2    0.92    0.42
   9  10  -2    1.51    0.65
   9  10  -2    1.56    0.54
   9  10  -2    1.03    0.40
  -8 -10   2    0.51    0.29
  -8 -10   2    1.19    0.33
   8 -10  -2    0.64    0.25
   8  10  -2    1.46    0.62
   8  10  -2    1.05    0.38
   8  10  -2    0.72    0.58
  -7 -10   2    0.26    0.34
   7 -10  -2    0.02    0.20
  -7 -10   2   -0.03    0.24
   7  10  -2    0.16    0.50
   7  10  -2   -0.31    0.38
   7  10  -2    0.36    0.37
  -6 -10   2    3.86    0.48
   6 -10  -2    4.09    0.34
  -6 -10   2    4.68    0.46
   6  10  -2    4.22    0.62
   6  10  -2    3.98    0.52
   6  10  -2    3.38    0.58
   5 -10  -2   -0.06    0.16
  -5 -10   2   -0.07    0.22
  -5 -10   2   -0.41    0.28
   5  10  -2   -0.82    0.32
   5  10  -2   -0.09    0.31
  -5  10   2   -0.09    0.20
   5  10  -2   -0.26    0.29
  -4 -10   2   39.22    1.48
   4 -10  -2   38.68    1.45
  -4 -10   2   39.26    1.56
   4  10  -2   35.28    1.71
  -4  10   2   39.93    1.44
   4  10  -2   38.81    1.90
   4  10  -2   37.40    1.59
  -3 -10   2    9.86    0.61
   3 -10  -2   10.73    0.48
   3 -10  -2   10.64    0.54
  -3 -10   2   10.14    0.62
   3  10  -2   11.33    0.79
   3  10  -2   10.37    0.75
  -3  10   2    9.52    0.55
   3  10  -2   10.14    0.67
  -3  10   2   10.41    0.57
   2 -10  -2   10.97    0.55
   2 -10  -2   10.44    0.49
  -2 -10   2   10.41    0.60
  -2 -10   2   10.61    0.56
  -2  10   2    9.70    0.58
  -2  10   2   11.21    0.50
   2  10  -2   10.22    0.78
  -2  10   2   10.68    0.59
   2  10  -2    9.61    0.63
   2  10  -2   10.42    0.79
   1 -10  -2    0.65    0.18
   1 -10  -2    0.75    0.18
  -1 -10   2    1.07    0.27
  -1 -10   2    0.44    0.23
   1  10  -2    0.87    0.34
   1  10  -2    0.49    0.28
  -1  10   2    0.96    0.28
  -1  10   2    0.70    0.19
   1  10  -2    0.64    0.35
  -1  10   2    0.92    0.27
   0 -10  -2    7.59    0.44
   0 -10   2    6.55    0.54
   0 -10   2    8.05    0.46
   0 -10  -2    7.39    0.45
   0  10   2    7.54    0.50
   0  10  -2    8.79    0.62
   0  10   2    7.49    0.58
   0  10  -2    7.32    0.64
   0  10  -2    7.64    0.60
  -1 -10  -2    0.29    0.20
   1 -10   2    0.18    0.29
   1 -10   2    0.21    0.23
  -1 -10  -2    0.72    0.22
   1  10   2    0.39    0.32
  -1  10  -2    0.55    0.33
   1  10   2    0.37    0.31
   2 -10   2   55.77    1.93
  -2 -10  -2   55.69    2.07
   2 -10   2   55.47    2.07
  -2 -10  -2   53.35    1.92
   2  10   2   50.97    2.19
  -2  10  -2   52.60    2.13
   2  10   2   56.27    2.08
   3 -10   2   18.01    0.80
   3 -10   2   19.88    0.93
  -3 -10  -2   18.49    0.83
  -3 -10  -2   19.53    0.90
   3  10   2   21.74    1.04
   3  10   2   19.19    1.05
  -3  10  -2   19.76    0.98
   4 -10   2   11.44    0.69
  -4 -10  -2   11.59    0.67
   4 -10   2   12.04    0.59
  -4 -10  -2   11.83    0.74
   4  10   2   11.65    0.90
   4  10   2   11.38    0.87
   4  10   2   12.96    0.85
  -4  10  -2   11.23    0.71
  -5 -10  -2    8.40    0.56
   5 -10   2    9.61    0.65
   5 -10   2    9.05    0.54
  -5 -10  -2   10.52    0.71
   5  10   2    9.31    0.80
   5  10   2    8.90    0.89
   5  10   2    9.50    0.94
   6 -10   2    6.58    0.58
  -6 -10  -2    6.79    0.56
  -6 -10  -2    6.67    0.53
   6  10   2    7.50    0.75
   6  10   2    7.58    0.75
   6  10   2    8.11    0.80
   7 -10   2    0.18    0.31
  -7 -10  -2    0.35    0.28
  -7 -10  -2    0.09    0.34
   7  10   2    0.45    0.55
   7  10   2    0.05    0.37
   7  10   2    0.51    0.47
   8 -10   2    0.43    0.39
  -8 -10  -2    0.63    0.38
   8  10   2    0.28    0.43
   8  10   2    0.01    0.40
   8  10   2    0.30    0.47
   9 -10   2   -0.17    0.33
  -9 -10  -2    0.18    0.30
   9  10   2   -0.01    0.46
   9  10   2    0.09    0.44
   9  10   2   -0.39    0.55
 -10 -10  -2   -0.37    0.41
  10 -10   2   -0.37    0.35
  10  10   2   -0.98    0.60
  10  10   2    0.22    0.38
  10  10   2   -0.30    0.43
  11 -10   2    0.72    0.41
  11  10   2    0.65    0.43
 -10 -11   2    9.28    0.81
  10  11  -2    6.02    0.71
  10  11  -2    5.58    0.99
  10  11  -2    8.04    1.05
   9 -11  -2   14.00    0.70
  -9 -11   2   13.28    0.93
  -9 -11   2   11.63    0.79
   9  11  -2   13.94    1.25
   9  11  -2   11.59    0.91
   9  11  -2   10.88    1.13
   8 -11  -2    0.36    0.25
  -8 -11   2    0.25    0.29
  -8 -11   2    0.12    0.30
   8  11  -2   -0.49    0.44
   8  11  -2   -0.07    0.57
   8  11  -2   -0.95    0.48
  -7 -11   2    1.94    0.37
   7 -11  -2    1.86    0.29
  -7 -11   2    1.68    0.45
   7  11  -2    2.12    0.66
   7  11  -2    2.09    0.53
   7  11  -2    2.07    0.65
  -6 -11   2    2.15    0.36
   6 -11  -2    1.76    0.26
  -6 -11   2    2.28    0.38
  -6  11   2    1.68    0.29
   6  11  -2    2.22    0.43
   6  11  -2    0.98    0.59
   6  11  -2    1.93    0.59
  -5 -11   2   -0.01    0.24
   5 -11  -2    0.13    0.21
  -5 -11   2   -0.31    0.30
   5  11  -2   -0.31    0.43
   5  11  -2   -0.55    0.44
   5  11  -2    0.02    0.40
  -5  11   2    0.26    0.23
   4 -11  -2    0.14    0.19
  -4 -11   2   -0.13    0.28
  -4 -11   2   -0.05    0.33
   4  11  -2    0.03    0.31
  -4  11   2    0.10    0.24
   4  11  -2   -0.35    0.24
   4  11  -2    0.00    0.45
  -3 -11   2   -0.29    0.31
   3 -11  -2   -0.06    0.19
  -3 -11   2   -0.02    0.20
  -3  11   2   -0.03    0.21
   3  11  -2   -0.06    0.35
   3  11  -2   -0.20    0.34
   3  11  -2   -0.23    0.41
  -2 -11   2   12.24    0.63
  -2 -11   2   12.55    0.69
   2 -11  -2   12.26    0.63
   2 -11  -2   12.56    0.57
   2  11  -2   12.89    0.84
  -2  11   2   11.85    0.67
   2  11  -2   12.19    0.88
   2  11  -2   12.53    0.74
  -2  11   2   10.91    0.66
   1 -11  -2    1.17    0.27
  -1 -11   2    1.38    0.29
  -1 -11   2    1.57    0.30
   1 -11  -2    1.82    0.24
  -1  11   2    2.16    0.38
   1  11  -2    1.33    0.35
  -1  11   2    1.37    0.33
   1  11  -2    1.66    0.40
   1  11  -2    1.06    0.34
   0 -11  -2   -0.09    0.13
   0 -11   2   -0.19    0.21
   0 -11  -2    0.40    0.26
   0 -11   2   -0.48    0.23
   0  11   2   -0.21    0.28
   0  11  -2   -0.45    0.21
   0  11  -2   -0.16    0.24
   0  11  -2   -0.28    0.23
   0  11   2   -0.16    0.29
  -1 -11  -2   14.58    0.75
   1 -11   2   14.51    0.73
   1 -11   2   14.58    0.81
  -1 -11  -2   14.99    0.71
   1  11   2   13.83    0.89
  -1  11  -2   14.86    0.85
  -1  11  -2   14.37    0.89
   1  11   2   15.26    0.87
  -2 -11  -2    1.47    0.30
  -2 -11  -2    1.59    0.37
   2 -11   2    1.27    0.36
   2 -11   2    1.57    0.30
  -2  11  -2    1.53    0.40
   2  11   2    1.72    0.43
   2  11   2    1.04    0.42
  -3 -11  -2    0.91    0.28
   3 -11   2    1.37    0.26
   3 -11   2    0.84    0.26
  -3 -11  -2    0.97    0.24
  -3  11  -2    1.71    0.37
   3  11   2    1.63    0.44
   3  11   2    1.07    0.36
  -4 -11  -2    3.13    0.41
   4 -11   2    2.58    0.32
  -4 -11  -2    2.26    0.37
   4 -11   2    2.54    0.41
   4  11   2    2.30    0.51
  -4  11  -2    2.80    0.45
   4  11   2    2.67    0.50
   4  11   2    2.84    0.57
   5 -11   2    0.83    0.33
  -5 -11  -2    0.44    0.37
  -5 -11  -2    0.68    0.26
   5  11   2    0.29    0.43
   5  11   2    1.17    0.52
   5  11   2    0.36    0.47
  -6 -11  -2    8.81    0.74
   6 -11   2    9.07    0.67
  -6 -11  -2    8.64    0.68
   6  11   2    8.03    0.80
   6  11   2    7.70    0.79
   6  11   2    9.02    0.89
   7 -11   2    2.91    0.44
  -7 -11  -2    2.57    0.51
  -7 -11  -2    2.66    0.48
   7  11   2    2.54    0.51
   7  11   2    1.64    0.64
   7  11   2    1.85    0.65
   8 -11   2    3.01    0.50
  -8 -11  -2    3.06    0.45
   8  11   2    2.34    0.51
   8  11   2    2.16    0.58
   8  11   2    1.75    0.69
  -9 -11  -2    0.24    0.44
   9 -11   2    0.38    0.40
   9  11   2    0.15    0.60
   9  11   2   -0.34    0.44
   9  11   2   -0.11    0.37
 -10 -11  -2   -0.28    0.42
  10 -11   2    0.03    0.36
  10  11   2   -0.13    0.65
  10  11   2   -1.47    0.61
  10  11   2   -0.18    0.51
  10  12  -2    2.88    0.54
  -9 -12   2    3.01    0.49
  -9 -12   2    3.57    0.57
   9 -12  -2    3.10    0.42
   9  12  -2    3.06    0.80
   9  12  -2    2.61    0.63
   9  12  -2    1.59    0.78
   8 -12  -2    0.76    0.28
  -8 -12   2    1.44    0.38
  -8 -12   2    1.65    0.48
  -8  12   2    0.92    0.26
   8  12  -2    1.57    0.56
   8  12  -2    1.25    0.64
   8  12  -2    0.53    0.49
  -7 -12   2    1.19    0.44
   7 -12  -2    1.45    0.30
  -7 -12   2    1.16    0.34
   7  12  -2    1.88    0.54
   7  12  -2    1.04    0.50
  -7  12   2    1.14    0.29
   7  12  -2    1.25    0.48
   6 -12  -2    0.26    0.24
  -6 -12   2    0.77    0.32
  -6 -12   2    0.66    0.30
   6  12  -2    0.39    0.34
   6  12  -2    0.48    0.42
   6  12  -2    0.40    0.41
  -6  12   2    0.76    0.26
  -5 -12   2   -0.24    0.35
   5 -12  -2   -0.15    0.19
  -5 -12   2   -0.41    0.21
   5  12  -2   -0.34    0.31
   5  12  -2   -0.31    0.33
  -5  12   2   -0.24    0.23
   5  12  -2   -0.35    0.29
  -4 -12   2    1.53    0.34
   4 -12  -2    1.33    0.26
  -4 -12   2    1.00    0.28
   4  12  -2    1.47    0.53
  -4  12   2    1.36    0.32
   4  12  -2    1.52    0.48
   4  12  -2    1.66    0.53
  -3 -12   2    5.48    0.53
   3 -12  -2    6.53    0.50
  -3 -12   2    6.70    0.49
   3  12  -2    6.28    0.67
  -3  12   2    6.02    0.50
   3  12  -2    6.42    0.73
   3  12  -2    6.40    0.75
   2 -12  -2    0.44    0.25
  -2 -12   2   -0.11    0.34
  -2 -12   2    0.40    0.22
   2  12  -2    0.17    0.35
   2  12  -2   -0.10    0.39
  -2  12   2    0.08    0.26
   2  12  -2    0.03    0.27
   1 -12  -2    0.43    0.27
  -1 -12   2    0.06    0.19
   1 -12  -2    0.10    0.18
  -1 -12   2   -0.08    0.24
   1  12  -2    0.14    0.32
   1  12  -2    0.00    0.28
   1  12  -2   -0.66    0.33
  -1  12   2   -0.07    0.26
  -1  12   2    0.12    0.28
   0 -12  -2    1.11    0.25
   0 -12   2    0.75    0.23
   0 -12   2    1.05    0.36
   0 -12  -2    0.93    0.30
   0  12  -2    1.20    0.41
   0  12   2    0.90    0.35
   0  12  -2    0.72    0.41
   0  12   2    1.40    0.37
  -1 -12  -2    0.97    0.33
   1 -12   2    0.85    0.35
   1 -12   2    1.25    0.25
  -1 -12  -2    1.24    0.24
  -1  12  -2    0.83    0.31
  -1  12  -2    0.67    0.29
   1  12   2    0.76    0.30
   1  12   2    0.60    0.37
   2 -12   2    0.28    0.32
   2 -12   2    0.42    0.19
  -2 -12  -2    0.31    0.33
  -2 -12  -2    0.09    0.26
  -2  12  -2    0.50    0.26
   2  12   2    0.74    0.40
   2  12   2   -0.40    0.24
  -2  12  -2    0.22    0.33
  -3 -12  -2    6.95    0.54
   3 -12   2    6.43    0.51
  -3 -12  -2    6.17    0.47
   3 -12   2    6.72    0.47
   3  12   2    5.44    0.64
  -3  12  -2    6.66    0.62
   3  12   2    5.86    0.70
   4 -12   2    6.60    0.59
  -4 -12  -2    6.79    0.59
  -4 -12  -2    6.54    0.56
   4  12   2    6.65    0.79
   4  12   2    6.85    0.72
   5 -12   2    3.15    0.44
  -5 -12  -2    3.04    0.43
  -5 -12  -2    3.40    0.41
   5  12   2    2.82    0.62
   5  12   2    3.05    0.59
   6 -12   2    0.96    0.36
  -6 -12  -2   -0.06    0.34
  -6 -12  -2   -0.04    0.41
   6  12   2    0.66    0.42
   6  12   2    0.05    0.40
   6  12   2    0.66    0.38
   7 -12   2    0.54    0.36
  -7 -12  -2    0.54    0.42
  -7 -12  -2    0.05    0.36
   7  12   2   -0.07    0.58
   7  12   2    1.43    0.45
   7  12   2    1.36    0.62
   8 -12   2    0.45    0.37
  -8 -12  -2   -0.39    0.27
   8  12   2   -0.01    0.41
   8  12   2   -0.20    0.48
   8  12   2   -0.75    0.60
   9 -12   2    1.63    0.43
  -9 -12  -2    1.59    0.49
   9  12   2    2.32    0.64
   9  12   2    0.51    0.56
   9  12   2    2.00    0.75
  10 -12   2   -0.13    0.37
  10  12   2    1.37    0.60
  -9 -13   2    3.43    0.55
  -9 -13   2    4.70    0.65
   9  13  -2    5.23    0.78
   9  13  -2    3.34    0.94
   9  13  -2    4.28    0.89
  -8 -13   2    0.66    0.47
  -8 -13   2    0.38    0.45
   8 -13  -2   -0.03    0.24
   8  13  -2   -0.55    0.63
   8  13  -2    0.52    0.47
   8  13  -2    0.28    0.53
  -7 -13   2    2.06    0.49
  -7 -13   2    2.16    0.52
   7 -13  -2    2.29    0.34
   7  13  -2    1.32    0.55
  -7  13   2    1.98    0.33
   7  13  -2    2.44    0.62
   7  13  -2    2.25    0.67
  -6 -13   2    0.41    0.31
   6 -13  -2    0.31    0.26
  -6 -13   2   -0.45    0.35
   6  13  -2   -0.02    0.55
  -6  13   2    0.03    0.26
   6  13  -2   -0.90    0.47
   6  13  -2    0.37    0.47
  -5 -13   2    1.03    0.40
   5 -13  -2    0.42    0.25
  -5 -13   2   -0.14    0.41
  -5  13   2    1.11    0.32
   5  13  -2    1.19    0.48
   5  13  -2    0.04    0.44
   5  13  -2    1.45    0.59
  -4 -13   2    0.23    0.34
  -4 -13   2   -0.09    0.38
   4 -13  -2   -0.31    0.22
   4  13  -2   -0.84    0.39
  -4  13   2   -0.32    0.23
   4  13  -2    0.01    0.30
   4  13  -2   -0.19    0.33
  -3 -13   2    2.35    0.35
  -3 -13   2    2.12    0.39
   3 -13  -2    2.39    0.35
   3  13  -2    2.42    0.54
   3  13  -2    1.82    0.41
  -3  13   2    2.40    0.41
   3  13  -2    3.00    0.63
   2 -13  -2    1.00    0.29
  -2 -13   2    0.84    0.26
  -2 -13   2    1.01    0.40
  -2  13   2    0.82    0.32
   2  13  -2    1.22    0.39
   2  13  -2    0.38    0.40
   2  13  -2    0.63    0.32
  -1 -13   2    5.06    0.50
   1 -13  -2    5.72    0.50
  -1 -13   2    4.60    0.42
  -1  13   2    5.02    0.52
   1  13  -2    5.96    0.68
   1  13  -2    4.65    0.59
   1  13  -2    4.55    0.59
   0 -13   2    1.02    0.30
   0 -13   2    0.83    0.38
   0 -13  -2    1.08    0.33
   0  13  -2    0.80    0.34
   0  13   2    0.99    0.39
   0  13  -2    1.60    0.45
   1 -13   2    2.53    0.44
  -1 -13  -2    2.20    0.35
  -1 -13  -2    2.35    0.34
   1 -13   2    1.99    0.35
  -1  13  -2    2.17    0.47
   1  13   2    2.94    0.50
   1  13   2    2.58    0.48
  -1  13  -2    2.68    0.48
   2 -13   2   -0.04    0.23
  -2 -13  -2    0.05    0.24
  -2 -13  -2    0.35    0.21
   2 -13   2    0.31    0.25
  -2  13  -2    0.02    0.34
   2  13   2    0.10    0.38
   2  13   2    0.36    0.39
  -3 -13  -2    2.37    0.39
  -3 -13  -2    2.62    0.39
   3 -13   2    2.77    0.44
   3  13   2    2.35    0.44
   3  13   2    2.44    0.54
   4 -13   2    1.45    0.37
  -4 -13  -2    0.65    0.34
  -4 -13  -2    0.90    0.32
   4  13   2    1.30    0.48
   4  13   2    0.68    0.39
   5 -13   2    5.14    0.53
  -5 -13  -2    4.39    0.52
  -5 -13  -2    5.05    0.54
   5  13   2    5.30    0.68
   5  13   2    4.37    0.68
   6 -13   2    0.55    0.37
  -6 -13  -2    0.67    0.39
  -6 -13  -2    0.79    0.35
   6  13   2    0.35    0.38
   6  13   2    0.19    0.54
   7 -13   2    3.90    0.53
  -7 -13  -2    3.79    0.54
  -7 -13  -2    3.11    0.52
   7  13   2    4.94    0.82
   7  13   2    3.89    0.61
  -8 -13  -2   -0.50    0.28
   8 -13   2    0.47    0.36
   8  13   2   -0.45    0.51
   8  13   2    0.34    0.43
   9 -13   2    0.28    0.38
  -9 -13  -2   -0.38    0.42
   9  13   2    0.73    0.56
   9  13   2    1.97    0.77
  -8 -14   2    0.09    0.48
  -8 -14   2    0.03    0.46
   8  14  -2    0.35    0.41
   8  14  -2    0.65    0.69
   8  14  -2   -0.91    0.68
  -7 -14   2    1.84    0.54
  -7 -14   2    2.03    0.42
   7 -14  -2    2.59    0.35
   7  14  -2    1.41    0.74
  -7  14   2    2.24    0.36
   7  14  -2    2.05    0.67
   7  14  -2    2.13    0.52
  -6 -14   2   -0.06    0.29
   6 -14  -2    0.30    0.29
  -6 -14   2    0.87    0.46
  -6  14   2    0.50    0.29
   6  14  -2    0.79    0.49
   6  14  -2   -0.75    0.54
   6  14  -2    0.87    0.42
  -5 -14   2    5.45    0.61
  -5 -14   2    7.23    0.59
   5 -14  -2    6.27    0.51
   5  14  -2    5.44    0.78
  -5  14   2    5.94    0.56
   5  14  -2    5.47    0.67
   5  14  -2    6.02    0.85
  -4 -14   2    0.69    0.37
   4 -14  -2    0.06    0.29
  -4 -14   2    0.24    0.41
   4  14  -2    0.60    0.38
   4  14  -2   -0.15    0.49
  -4  14   2    0.47    0.33
   4  14  -2    0.23    0.39
  -3 -14   2    2.90    0.51
   3 -14  -2    2.33    0.36
  -3 -14   2    2.51    0.44
   3  14  -2    2.40    0.55
   3  14  -2    2.83    0.62
   3  14  -2    2.47    0.59
  -3  14   2    2.58    0.40
  -2 -14   2    0.36    0.38
   2 -14  -2    0.85    0.30
  -2 -14   2    0.45    0.25
   2  14  -2    0.34    0.41
  -2  14   2    0.80    0.34
   2  14  -2    0.85    0.39
   2  14  -2   -0.36    0.38
  -1 -14   2   -0.48    0.26
  -1 -14   2   -0.14    0.24
   1 -14  -2   -0.01    0.27
   1  14  -2    0.16    0.42
  -1  14   2   -0.49    0.27
   1  14  -2   -0.04    0.28
   0 -14   2   -0.17    0.24
   0 -14  -2   -0.62    0.28
   0 -14   2   -0.37    0.25
   0  14  -2   -0.10    0.39
   0  14  -2   -0.10    0.26
   0  14   2    0.26    0.38
   1 -14   2   12.15    0.81
  -1 -14  -2   11.70    0.79
  -1  14  -2   10.65    0.76
   1  14   2   12.35    0.79
  -2 -14  -2    0.16    0.29
   2 -14   2   -0.04    0.34
  -2 -14  -2    0.35    0.37
  -2  14  -2    0.22    0.39
   2  14   2    0.31    0.40
   3 -14   2    4.70    0.54
  -3 -14  -2    5.03    0.58
  -3 -14  -2    3.69    0.46
   3  14   2    4.28    0.62
  -3  14  -2    3.90    0.55
   3  14   2    3.52    0.63
  -4 -14  -2    0.00    0.24
  -4 -14  -2   -0.03    0.39
   4 -14   2   -0.33    0.29
   4  14   2    0.30    0.36
   4  14   2    0.44    0.46
  -4  14  -2   -0.27    0.33
  -5 -14  -2    1.54    0.47
  -5 -14  -2    1.19    0.41
   5 -14   2    0.96    0.38
   5  14   2    0.71    0.51
   5  14   2    1.73    0.57
  -6 -14  -2   -0.09    0.32
  -6 -14  -2   -0.17    0.28
   6 -14   2   -0.18    0.33
   6  14   2    1.24    0.59
   6  14   2    0.29    0.50
  -7 -14  -2    0.62    0.43
   7 -14   2    0.07    0.36
  -7 -14  -2    0.21    0.36
   7  14   2    0.80    0.44
   7  14   2    0.44    0.43
   8 -14   2    0.45    0.39
  -8 -14  -2    0.68    0.36
   8  14   2    1.58    0.55
  -7 -15   2   -0.38    0.42
  -7 -15   2    0.56    0.52
   7 -15  -2   -0.07    0.29
   7  15  -2    0.06    0.38
   7  15  -2    0.19    0.63
   7  15  -2   -0.43    0.47
  -6 -15   2   -1.13    0.38
  -6 -15   2   -0.26    0.46
   6 -15  -2   -0.16    0.30
   6  15  -2   -0.13    0.59
   6  15  -2    0.47    0.45
  -6  15   2   -0.19    0.26
   6  15  -2   -0.29    0.48
   5 -15  -2    1.02    0.35
  -5 -15   2    0.28    0.31
  -5 -15   2    0.29    0.48
   5  15  -2    0.67    0.62
   5  15  -2    0.32    0.56
  -5  15   2    1.43    0.36
   5  15  -2    1.18    0.56
  -4 -15   2    1.78    0.38
   4 -15  -2    1.73    0.35
  -4 -15   2    1.81    0.52
  -4  15   2    2.40    0.40
   4  15  -2    1.25    0.48
   4  15  -2    1.12    0.61
   4  15  -2    2.56    0.60
  -3 -15   2    3.63    0.57
  -3 -15   2    4.53    0.54
   3 -15  -2    3.72    0.44
  -3  15   2    3.40    0.47
   3  15  -2    4.19    0.67
   3  15  -2    2.84    0.67
   3  15  -2    4.50    0.73
  -2 -15   2   -0.22    0.28
  -2 -15   2   -0.28    0.22
   2 -15  -2   -0.17    0.27
   2  15  -2    0.11    0.42
   2  15  -2    0.19    0.44
  -2  15   2    0.03    0.31
  -1 -15   2    0.22    0.30
   1 -15  -2    0.52    0.33
  -1 -15   2    0.13    0.33
  -1  15   2    0.76    0.36
   1  15  -2    1.09    0.39
   0 -15  -2    0.36    0.34
   0 -15   2    0.39    0.29
   0  15  -2   -0.88    0.34
   0  15   2   -0.13    0.36
   1 -15   2    0.18    0.29
  -1 -15  -2    0.36    0.36
  -1  15  -2   -0.30    0.40
   1  15   2    0.27    0.40
  -2 -15  -2    0.14    0.28
   2 -15   2    0.42    0.38
  -2  15  -2   -0.51    0.25
   2  15   2    0.61    0.45
  -3 -15  -2   -0.42    0.25
   3 -15   2    0.63    0.37
   3  15   2    0.19    0.43
  -3  15  -2    0.33    0.38
  -4 -15  -2    0.65    0.45
   4 -15   2    1.52    0.42
  -4  15  -2    0.60    0.38
   4  15   2    0.73    0.51
  -5 -15  -2    0.67    0.48
   5 -15   2    0.69    0.39
  -5 -15  -2    1.07    0.34
  -5  15  -2    0.74    0.44
   5  15   2    1.16    0.46
  -6 -15  -2    0.21    0.50
  -6 -15  -2   -0.40    0.37
   6 -15   2   -0.52    0.32
   6  15   2    0.47    0.56
   6  15   2    0.26    0.40
  -7 -15  -2   -0.46    0.40
   7 -15   2    0.10    0.42
   7  15   2    1.57    0.61
   6 -16  -2    0.48    0.34
  -6 -16   2    0.35    0.42
  -6 -16   2    0.32    0.45
  -6  16   2    0.35    0.32
   6  16  -2   -0.24    0.66
   6  16  -2    0.58    0.65
  -5 -16   2    1.23    0.47
   5 -16  -2    0.86    0.36
  -5 -16   2    1.39    0.45
   5  16  -2    0.95    0.46
   5  16  -2    1.90    0.63
   5  16  -2   -0.41    0.56
  -5  16   2    1.50    0.37
   4 -16  -2    0.32    0.30
  -4 -16   2    0.84    0.34
  -4 -16   2    0.74    0.39
   4  16  -2    0.59    0.55
   4  16  -2    0.86    0.41
   4  16  -2    0.27    0.43
  -4  16   2    0.68    0.36
  -3 -16   2    4.22    0.57
  -3 -16   2    3.57    0.54
   3 -16  -2    3.83    0.48
  -3  16   2    4.65    0.57
   3  16  -2    4.23    0.70
   2 -16  -2    0.18    0.32
  -2 -16   2    0.38    0.34
   2  16  -2    0.08    0.46
  -2  16   2    0.26    0.39
  -1 -16   2    0.22    0.41
   1 -16  -2    0.67    0.37
  -1  16   2    0.55    0.39
   1  16  -2    0.69    0.37
   0 -16  -2    0.26    0.37
   0 -16   2    0.84    0.45
   0  16  -2    0.67    0.46
   0  16   2    1.32    0.45
   1 -16   2    0.26    0.41
  -1 -16  -2   -0.02    0.27
  -1  16  -2    0.40    0.33
   1  16   2    0.62    0.43
   2 -16   2    2.95    0.52
  -2 -16  -2    2.73    0.52
   2  16   2    2.86    0.52
  -2  16  -2    3.11    0.57
   3 -16   2    0.43    0.37
  -3 -16  -2    0.18    0.43
   3  16   2    0.30    0.48
  -3  16  -2    0.34    0.40
   4 -16   2    1.37    0.43
  -4 -16  -2    0.37    0.35
  -4  16  -2    1.08    0.45
   4  16   2    0.19    0.52
   5 -16   2   -0.27    0.36
  -5 -16  -2    1.17    0.53
  -5  16  -2   -0.17    0.40
   4 -17  -2    0.28    0.33
  -4  17   2    0.60    0.34
  -3 -17   2    0.50    0.40
   3 -17  -2   -0.26    0.36
  -3  17   2    0.34    0.34
   2 -17  -2    0.54    0.37
  -2 -17   2    0.85    0.38
   2  17  -2    1.21    0.55
  -2  17   2    0.79    0.43
   1 -17  -2    0.19    0.36
  -1 -17   2   -0.09    0.44
  -1  17   2   -0.29    0.33
   1  17  -2   -0.79    0.40
   0 -17   2    0.13    0.44
   0 -17  -2   -0.24    0.36
   0  17   2    0.55    0.42
   0  17  -2    0.18    0.45
   1 -17   2    0.62    0.43
  -1 -17  -2    0.94    0.44
   1  17   2    0.80    0.48
  -1  17  -2    0.73    0.48
  -2 -17  -2   -0.39    0.39
   2 -17   2    0.01    0.40
  -2  17  -2    0.14    0.39
   2  17   2    0.32    0.48
   3 -17   2   -0.02    0.39
  -3  17  -2    0.41    0.43
 -14   0   3   -0.32    0.29
  13   0  -3    0.81    0.43
 -13   0   3    0.25    0.28
  12   0  -3    1.13    0.42
  12   0  -3    0.16    0.39
 -12   0   3    0.45    0.26
  11   0  -3    1.61    0.45
  11   0  -3    1.47    0.44
 -11   0   3    1.33    0.29
 -10   0   3    0.62    0.23
  10   0  -3    0.61    0.34
  10   0  -3    0.62    0.34
   9   0  -3   80.94    3.39
  -9   0   3   82.85    2.78
   9   0  -3   82.46    3.08
   8   0  -3   -0.30    0.22
  -8   0   3    0.07    0.16
   8   0  -3   -0.24    0.16
  -8   0   3   -0.22    0.15
   8   0  -3   -0.12    0.14
   7   0  -3   18.83    1.00
   7   0  -3   19.47    0.78
   7   0  -3   19.15    0.90
  -7   0   3   20.22    0.81
   7   0  -3   19.96    0.79
  -7   0   3   19.96    0.76
  -6   0   3    0.11    0.12
  -6   0   3   -0.30    0.12
   6   0  -3   -0.01    0.18
   6   0  -3   -0.28    0.09
   6   0  -3   -0.04    0.10
   6   0  -3   -0.06    0.14
  -5   0   3  283.74    8.53
  -5   0   3  247.02    8.03
   5   0  -3  240.02    8.05
   5   0  -3  245.54    9.31
   5   0  -3  251.89    8.45
  -5   0   3  252.95    8.07
   5   0  -3  240.23    8.52
   4   0  -3   -0.09    0.05
  -4   0   3   -0.12    0.09
   4   0  -3   -0.09    0.10
   4   0  -3   -0.07    0.14
   4   0  -3   -0.18    0.06
  -4   0   3    0.26    0.10
  -4   0   3   -0.13    0.08
   4   0  -3   -0.17    0.08
   3   0  -3    0.38    0.10
  -3   0   3    0.32    0.06
   3   0  -3    0.43    0.07
   3   0  -3    0.29    0.07
   3   0  -3    0.20    0.10
   3   0  -3    0.29    0.08
   2   0  -3    0.01    0.04
  -2   0   3    0.00    0.03
   2   0  -3   -0.02    0.04
  -2   0   3   -0.05    0.04
   1   0  -3  308.35   10.00
   1   0  -3  303.86    9.97
  -1   0   3  310.90    9.97
   1   0  -3  321.33   10.49
  -1   0   3  326.21   10.48
  -1   0   3  308.68   10.00
   0   0   3    0.02    0.04
   0   0   3    0.00    0.05
   0   0  -3    0.00    0.06
   0   0  -3    0.06    0.06
   0   0  -3    0.02    0.07
   0   0   3   -0.06    0.07
  -1   0  -3    3.85    0.25
   1   0   3    3.95    0.25
  -1   0  -3    4.00    0.22
   1   0   3    3.81    0.21
   1   0   3    3.62    0.22
  -1   0  -3    3.90    0.21
   2   0   3    0.09    0.09
   2   0   3    0.09    0.07
   2   0   3    0.00    0.15
  -2   0  -3    0.26    0.14
  -2   0  -3    0.57    0.11
  -2   0  -3    0.08    0.08
  -2   0  -3    0.06    0.10
  -3   0  -3   16.75    0.66
  -3   0  -3   16.19    0.63
  -3   0  -3   15.95    0.75
   3   0   3   15.73    0.73
  -3   0  -3   17.34    0.74
   3   0   3   16.26    0.66
   4   0   3   -0.10    0.16
  -4   0  -3   -0.18    0.11
  -4   0  -3   -0.11    0.11
   4   0   3    0.13    0.18
  -4   0  -3    0.01    0.14
   5   0   3    0.22    0.27
   5   0   3    0.29    0.21
   5   0   3    0.64    0.18
  -5   0  -3    0.46    0.18
  -5   0  -3    0.56    0.17
   6   0   3    0.26    0.19
   6   0   3   -0.06    0.15
  -6   0  -3   -0.05    0.20
   6   0   3    0.22    0.31
   7   0   3   21.37    0.97
   7   0   3   21.64    1.09
   7   0   3   23.07    1.08
  -7   0  -3   19.40    0.88
   8   0   3   -0.43    0.21
   8   0   3   -0.63    0.39
   8   0   3   -0.52    0.24
  -8   0  -3   -0.44    0.24
   9   0   3    0.50    0.30
   9   0   3    0.11    0.30
   9   0   3    0.43    0.45
  -9   0  -3    0.49    0.31
 -10   0  -3   -0.06    0.32
  10   0   3   -0.21    0.30
  10   0   3   -0.60    0.43
  10   0   3    0.16    0.32
  11   0   3   -0.02    0.51
 -11   0  -3    0.21    0.35
  12   0   3    0.89    0.56
 -12   0  -3   -0.04    0.35
  13  -1  -3    2.93    0.50
 -13  -1   3    1.54    0.36
  13   1  -3    2.04    0.52
  13   1  -3    1.61    0.55
 -13   1   3    1.29    0.31
  12  -1  -3    2.55    0.48
 -12  -1   3    2.02    0.39
  12  -1  -3    2.41    0.49
  12   1  -3    2.41    0.55
 -12   1   3    2.69    0.35
  12   1  -3    1.86    0.53
 -11  -1   3   28.96    1.17
  11  -1  -3   29.16    1.52
  11  -1  -3   27.67    1.34
  11   1  -3   27.79    1.42
  11   1  -3   28.38    1.57
 -11   1   3   28.05    1.12
  10  -1  -3    1.19    0.37
 -10  -1   3    1.55    0.27
  10  -1  -3    1.04    0.34
  10   1  -3    0.81    0.38
  10   1  -3    1.34    0.39
 -10   1   3    0.83    0.23
   9  -1  -3    9.75    0.63
  -9  -1   3    9.68    0.51
   9  -1  -3    8.61    0.71
  -9   1   3    8.99    0.47
   9   1  -3    8.76    0.70
   9   1  -3    8.25    0.67
   9   1  -3    9.10    0.52
   8  -1  -3   13.60    0.82
  -8  -1   3   14.52    0.69
   8  -1  -3   13.36    0.60
  -8  -1   3   14.44    0.63
   8  -1  -3   14.16    0.76
  -8   1   3   13.94    0.59
   8   1  -3   14.03    0.80
  -8   1   3   14.38    0.64
   8   1  -3   13.19    0.86
   8   1  -3   13.20    0.65
   8   1  -3   14.87    0.68
  -7  -1   3    2.39    0.27
   7  -1  -3    1.86    0.21
   7  -1  -3    1.52    0.27
   7  -1  -3    2.31    0.22
   7  -1  -3    1.65    0.26
  -7  -1   3    2.02    0.23
  -7   1   3    1.74    0.20
  -7   1   3    1.77    0.23
   7   1  -3    2.22    0.23
   7   1  -3    2.17    0.24
   7   1  -3    2.14    0.33
   7   1  -3    1.08    0.32
   6  -1  -3    5.57    0.30
  -6  -1   3    6.08    0.37
  -6  -1   3    6.15    0.33
   6  -1  -3    6.03    0.31
   6  -1  -3    5.77    0.46
   6  -1  -3    5.59    0.39
  -6   1   3    5.84    0.33
   6   1  -3    6.31    0.37
   6   1  -3    5.87    0.51
   6   1  -3    5.50    0.43
  -6   1   3    5.96    0.30
   6   1  -3    6.09    0.33
  -5  -1   3   32.71    1.21
  -5  -1   3   33.75    1.22
   5  -1  -3   35.12    1.13
  -5  -1   3   33.49    1.17
   5  -1  -3   32.48    1.42
   5  -1  -3   34.81    1.20
   5  -1  -3   32.93    1.26
   5  -1  -3   32.81    1.15
  -5   1   3   36.96    1.21
   5   1  -3   31.97    1.20
   5   1  -3   35.64    1.23
  -5   1   3   34.03    1.14
  -5   1   3   33.89    1.17
   5   1  -3   32.38    1.31
   5   1  -3   33.45    1.46
   4  -1  -3    2.78    0.15
   4  -1  -3    2.53    0.20
  -4  -1   3    2.74    0.22
  -4  -1   3    3.16    0.18
  -4  -1   3    2.95    0.19
  -4  -1   3    3.14    0.25
   4  -1  -3    2.69    0.14
   4  -1  -3    2.44    0.16
   4  -1  -3    3.80    0.30
   4   1  -3    2.69    0.26
   4   1  -3    2.56    0.28
  -4   1   3    2.35    0.15
   4   1  -3    2.97    0.18
   4   1  -3    2.87    0.21
   4   1  -3    2.95    0.19
   3  -1  -3  235.37    7.38
  -3  -1   3  245.84    8.54
   3  -1  -3  243.34    7.75
   3  -1  -3  222.69    7.35
   3  -1  -3  228.72    7.78
  -3  -1   3  219.59    7.76
  -3  -1   3  226.12    7.38
   3   1  -3  230.28    8.54
  -3   1   3  230.27    7.42
   3   1  -3  233.70    7.82
   3   1  -3  237.17    7.38
   3   1  -3  231.92    7.77
   3   1  -3  226.42    7.41
  -2  -1   3    7.21    0.30
  -2  -1   3    7.08    0.28
   2  -1  -3    7.22    0.27
   2  -1  -3    7.13    0.25
   2   1  -3    7.21    0.38
  -2   1   3    7.09    0.25
   2   1  -3    7.11    0.30
   2   1  -3    7.30    0.29
   2   1  -3    7.88    0.34
  -1  -1   3    7.21    0.31
  -1  -1   3    7.55    0.30
   1  -1  -3    7.81    0.30
   1  -1  -3    7.34    0.27
   1  -1  -3    7.69    0.28
  -1  -1   3    7.31    0.30
   1   1  -3    7.54    0.32
  -1   1   3    7.70    0.28
   1   1  -3    7.40    0.30
  -1   1   3    7.22    0.27
   0  -1   3   73.89    2.49
   0  -1  -3   73.10    2.34
   0  -1   3   72.50    2.36
   0  -1  -3   72.12    2.36
   0  -1   3   74.51    2.36
   0  -1  -3   70.17    2.49
   0   1   3   74.28    2.34
   0   1   3   72.09    2.36
   0   1  -3   70.29    2.36
   0   1  -3   73.92    2.36
   0   1  -3   72.61    2.49
   0   1   3   70.83    2.48
  -1  -1  -3  131.35    4.18
   1  -1   3  122.89    4.19
   1  -1   3  133.41    4.18
  -1  -1  -3  129.54    4.20
  -1  -1  -3  123.53    4.43
   1  -1   3  134.50    4.43
   1   1   3  127.68    4.43
   1   1   3  129.35    4.17
  -1   1  -3  136.17    4.19
  -1   1  -3  130.34    4.19
  -1   1  -3  127.96    4.42
   1   1   3  131.66    4.20
  -2  -1  -3    2.22    0.22
  -2  -1  -3    1.87    0.19
  -2  -1  -3    1.81    0.17
  -2  -1  -3    2.28    0.19
   2  -1   3    1.86    0.17
   2  -1   3    2.05    0.18
   2  -1   3    1.96    0.21
   2   1   3    2.38    0.18
   2   1   3    2.09    0.21
  -2   1  -3    2.29    0.23
  -2   1  -3    1.70    0.16
  -2   1  -3    1.64    0.16
   2   1   3    1.97    0.25
  -3  -1  -3    5.35    0.31
  -3  -1  -3    5.10    0.34
   3  -1   3    5.42    0.30
   3  -1   3    4.98    0.35
  -3  -1  -3    5.13    0.28
  -3  -1  -3    5.18    0.37
   3   1   3    5.93    0.38
  -3   1  -3    5.36    0.31
  -3   1  -3    4.88    0.32
   3   1   3    5.40    0.28
   3   1   3    5.20    0.32
  -3   1  -3    5.15    0.28
  -4  -1  -3   21.88    0.84
  -4  -1  -3   21.85    1.00
   4  -1   3   21.49    0.95
   4  -1   3   22.94    0.88
   4   1   3   22.24    0.90
  -4   1  -3   22.71    0.86
  -4   1  -3   22.05    0.94
   4   1   3   21.87    1.00
  -4   1  -3   22.41    0.85
   4   1   3   22.26    1.00
   5  -1   3   53.26    1.87
  -5  -1  -3   51.71    1.84
   5  -1   3   53.15    2.03
  -5   1  -3   51.98    2.08
  -5   1  -3   51.28    1.83
   5   1   3   55.85    2.16
   5   1   3   52.77    1.89
   5   1   3   54.66    2.08
   6  -1   3    2.38    0.28
   6  -1   3    2.94    0.31
   6  -1   3    2.45    0.42
  -6  -1  -3    2.34    0.30
   6   1   3    2.12    0.34
   6   1   3    2.56    0.38
  -6   1  -3    2.48    0.28
  -6   1  -3    2.05    0.28
   6   1   3    2.29    0.33
   7  -1   3   11.21    0.65
   7  -1   3   10.61    0.79
  -7  -1  -3   10.66    0.62
   7  -1   3   13.27    0.70
   7   1   3   12.25    0.75
  -7   1  -3   11.07    0.58
   7   1   3   10.21    0.82
   7   1   3   10.94    0.68
   8  -1   3    0.19    0.21
  -8  -1  -3   -0.08    0.27
   8  -1   3   -0.03    0.30
   8  -1   3    0.09    0.24
   8   1   3    0.31    0.30
   8   1   3    0.22    0.31
  -8   1  -3    0.69    0.27
   8   1   3   -0.48    0.41
  -9  -1  -3   -0.76    0.27
   9  -1   3   -0.50    0.24
   9  -1   3   -1.19    0.38
  -9   1  -3   -0.23    0.19
   9   1   3   -0.54    0.18
   9   1   3   -0.39    0.26
   9   1   3   -1.12    0.42
 -10  -1  -3    2.46    0.44
  10  -1   3    2.63    0.60
  10   1   3    2.59    0.65
  10   1   3    1.95    0.36
 -10   1  -3    2.14    0.40
  10   1   3    1.57    0.46
  11  -1   3    4.64    0.70
 -11  -1  -3    3.84    0.51
  11   1   3    3.37    0.65
  11   1   3    5.01    0.80
 -11   1  -3    3.23    0.48
 -12  -1  -3    0.66    0.31
  12  -1   3    1.00    0.54
 -12   1  -3    0.32    0.38
  12   1   3    0.91    0.56
  13  -2  -3    1.05    0.39
 -13  -2   3    0.75    0.34
 -13   2   3    0.22    0.27
  13   2  -3    1.09    0.52
  13   2  -3   -0.46    0.45
 -12  -2   3   -0.35    0.26
  12  -2  -3    1.13    0.36
 -12   2   3   -0.04    0.23
  12   2  -3    0.23    0.40
  12   2  -3    0.25    0.42
  11  -2  -3    3.35    0.46
 -11  -2   3    3.24    0.39
  11  -2  -3    2.35    0.45
  11   2  -3    2.69    0.48
 -11   2   3    3.03    0.33
  11   2  -3    2.69    0.52
 -10  -2   3   17.74    0.83
  10  -2  -3   19.27    1.09
  10  -2  -3   19.54    0.98
 -10   2   3   17.97    0.77
  10   2  -3   18.32    1.09
  10   2  -3   17.00    1.10
   9  -2  -3   -0.14    0.25
  -9  -2   3    0.14    0.22
   9  -2  -3    0.44    0.27
  -9   2   3    0.18    0.18
   9   2  -3    0.13    0.21
   9   2  -3    0.11    0.33
   9   2  -3    0.25    0.33
   8  -2  -3   25.25    1.08
  -8  -2   3   24.04    0.98
  -8  -2   3   25.65    1.13
   8  -2  -3   24.40    0.91
   8  -2  -3   24.41    1.23
  -8   2   3   26.29    0.93
   8   2  -3   24.38    1.33
   8   2  -3   23.59    1.02
   8   2  -3   24.32    1.19
  -8   2   3   25.12    0.96
  -7  -2   3  100.37    3.31
   7  -2  -3  100.31    3.34
   7  -2  -3   94.41    3.78
  -7  -2   3   96.94    3.22
   7  -2  -3   96.49    3.42
   7  -2  -3   95.08    3.16
   7   2  -3  102.88    3.40
  -7   2   3   97.74    3.17
   7   2  -3   93.16    3.53
   7   2  -3   92.86    3.87
  -7   2   3   96.28    3.21
   7   2  -3   96.37    3.28
  -6  -2   3   34.34    1.30
  -6  -2   3   34.61    1.26
   6  -2  -3   33.60    1.19
   6  -2  -3   36.52    1.27
  -6  -2   3   38.52    1.34
   6  -2  -3   34.82    1.51
   6  -2  -3   34.90    1.33
   6   2  -3   34.44    1.31
  -6   2   3   37.60    1.25
   6   2  -3   33.90    1.44
   6   2  -3   36.32    1.33
   6   2  -3   34.59    1.60
  -6   2   3   35.79    1.20
  -5  -2   3   12.34    0.52
  -5  -2   3   13.11    0.57
   5  -2  -3   12.49    0.44
   5  -2  -3   13.03    0.48
  -5  -2   3   12.26    0.52
   5  -2  -3   11.72    0.63
   5  -2  -3   11.84    0.53
   5  -2  -3   12.04    0.45
  -5   2   3   12.34    0.45
   5   2  -3   12.72    0.54
   5   2  -3   12.23    0.72
   5   2  -3   11.16    0.60
   5   2  -3   13.13    0.56
   4  -2  -3   30.24    1.11
   4  -2  -3   31.58    1.29
  -4  -2   3   30.58    1.09
   4  -2  -3   32.41    1.01
  -4  -2   3   32.69    1.14
   4  -2  -3   30.08    1.01
   4  -2  -3   31.46    1.08
  -4  -2   3   31.16    1.14
  -4   2   3   31.09    1.04
   4   2  -3   31.56    1.13
   4   2  -3   31.20    1.23
  -4   2   3   31.32    1.02
   4   2  -3   31.00    1.35
   4   2  -3   31.94    1.15
  -3  -2   3   67.09    2.30
   3  -2  -3   68.89    2.34
   3  -2  -3   71.61    2.35
  -3  -2   3   78.48    2.48
  -3  -2   3   71.69    2.71
  -3  -2   3   66.67    2.41
   3   2  -3   67.35    2.71
   3   2  -3   69.21    2.48
   3   2  -3   70.08    2.30
   3   2  -3   69.21    2.42
   3   2  -3   69.08    2.33
  -3   2   3   71.39    2.23
  -2  -2   3    0.48    0.13
  -2  -2   3   -0.06    0.08
   2  -2  -3    0.22    0.03
  -2  -2   3    0.12    0.09
   2   2  -3    0.28    0.10
   2   2  -3    0.05    0.06
   2   2  -3    0.11    0.12
  -2   2   3    0.19    0.03
   2   2  -3    0.07    0.07
  -2   2   3    0.20    0.02
  -1  -2   3  193.76    6.37
  -1  -2   3  190.76    6.06
   1  -2  -3  171.91    6.34
   1  -2  -3  198.63    6.03
   1  -2  -3  180.52    6.01
  -1   2   3  181.47    6.03
   1   2  -3  200.51    6.38
   1   2  -3  191.15    6.05
  -1   2   3  199.01    6.38
   1   2  -3  185.85    6.95
   0  -2   3  239.76    7.44
   0  -2  -3  230.43    7.42
   0  -2  -3  211.03    7.81
   0  -2   3  237.86    7.43
   0  -2  -3  231.61    7.40
   0  -2   3  244.97    7.82
   0   2  -3  234.13    7.44
   0   2   3  218.60    7.81
   0   2  -3  229.00    7.42
   0   2   3  233.18    7.40
   0   2  -3  244.96    7.82
   0   2   3  242.00    7.78
   0   2   3  225.84    7.42
  -1  -2  -3  275.49    8.84
   1  -2   3  287.04    8.86
  -1  -2  -3  256.94    9.35
   1  -2   3  281.68    8.86
  -1  -2  -3  277.78    8.87
   1  -2   3  290.82    9.34
  -1   2  -3  279.84    8.87
   1   2   3  283.21    9.30
   1   2   3  285.04    8.85
  -1   2  -3  271.82    8.86
   1   2   3  276.03    8.88
   1   2   3  259.24    9.34
  -1   2  -3  282.85    9.33
  -2  -2  -3   20.45    0.75
  -2  -2  -3   20.30    0.91
  -2  -2  -3   19.83    0.85
   2  -2   3   20.80    0.75
   2  -2   3   20.65    0.76
   2  -2   3   19.58    0.82
  -2  -2  -3   20.77    0.79
   2   2   3   21.87    0.75
  -2   2  -3   19.81    0.81
   2   2   3   19.87    0.85
   2   2   3   21.16    0.79
   2   2   3   21.40    0.78
  -2   2  -3   20.45    0.76
  -2   2  -3   20.87    0.77
   3  -2   3   94.40    3.26
  -3  -2  -3   92.01    3.04
   3  -2   3   95.32    3.06
  -3  -2  -3   92.93    3.54
   3   2   3   93.31    3.10
   3   2   3   90.55    3.30
  -3   2  -3   92.51    3.05
  -3   2  -3   92.83    3.42
  -3   2  -3   88.86    3.05
   4  -2   3  120.95    3.91
   4  -2   3  118.96    4.15
  -4  -2  -3  117.34    3.89
  -4   2  -3  113.11    3.90
  -4   2  -3  118.95    4.39
   4   2   3  121.29    4.52
  -4   2  -3  115.30    3.88
   4   2   3  118.61    4.21
   4   2   3  122.41    3.95
   5  -2   3    5.44    0.35
  -5  -2  -3    5.05    0.33
   5  -2   3    5.32    0.48
  -5   2  -3    5.36    0.37
   5   2   3    5.65    0.43
   5   2   3    5.20    0.47
   5   2   3    5.17    0.38
  -5   2  -3    5.55    0.33
  -6  -2  -3   58.03    2.11
   6  -2   3   64.04    2.34
   6  -2   3   63.44    2.14
  -6   2  -3   60.00    2.35
   6   2   3   59.76    2.18
  -6   2  -3   57.90    2.10
   6   2   3   59.14    2.37
   6   2   3   63.13    2.51
  -7  -2  -3    0.74    0.23
   7  -2   3    1.36    0.30
   7  -2   3    1.37    0.41
  -7   2  -3    1.63    0.25
   7   2   3    1.07    0.35
  -7   2  -3    1.47    0.23
   7   2   3    1.34    0.30
   7   2   3    0.79    0.46
   8  -2   3    9.23    0.78
  -8  -2  -3    9.16    0.56
   8  -2   3    9.59    0.56
  -8   2  -3   10.23    0.56
   8   2   3    9.58    0.87
   8   2   3    9.51    0.70
   8   2   3    9.75    0.77
   9  -2   3    0.80    0.31
  -9  -2  -3    0.24    0.33
   9  -2   3    1.10    0.38
   9   2   3    0.37    0.53
  -9   2  -3    0.50    0.31
   9   2   3    0.10    0.35
   9   2   3    0.59    0.30
 -10  -2  -3    3.09    0.47
  10  -2   3    3.44    0.62
  10   2   3    3.04    0.44
  10   2   3    2.16    0.51
 -10   2  -3    3.42    0.44
  10   2   3    3.15    0.69
 -11  -2  -3    1.01    0.31
  11  -2   3    2.43    0.58
  11   2   3    1.14    0.49
 -11   2  -3    1.24    0.32
  11   2   3    1.05    0.47
 -12  -2  -3    0.02    0.38
  12  -2   3    0.17    0.45
 -12   2  -3   -0.54    0.31
  12   2   3    0.00    0.55
  13  -3  -3    0.02    0.33
 -13  -3   3   -0.14    0.31
  13   3  -3   -0.45    0.48
  13   3  -3    0.51    0.45
 -13   3   3   -0.03    0.25
  12  -3  -3    6.85    0.63
 -12  -3   3    5.94    0.54
  12   3  -3    4.57    0.76
  12   3  -3    6.31    0.78
 -12   3   3    5.03    0.45
  11  -3  -3    1.23    0.37
 -11  -3   3    1.39    0.33
  11  -3  -3    1.26    0.36
 -11   3   3    1.00    0.26
  11   3  -3    1.43    0.50
  11   3  -3    1.45    0.48
  10  -3  -3    7.03    0.56
  10  -3  -3    7.22    0.63
 -10  -3   3    5.74    0.44
  10   3  -3    6.71    0.69
  10   3  -3    5.54    0.68
 -10   3   3    6.61    0.42
   9  -3  -3   17.90    0.86
  -9  -3   3   18.24    0.81
   9  -3  -3   16.75    0.97
   9   3  -3   16.98    1.13
   9   3  -3   16.77    1.03
   9   3  -3   16.97    0.82
  -9   3   3   17.73    0.71
   8  -3  -3   10.35    0.57
   8  -3  -3    9.35    0.66
  -8  -3   3    9.95    0.55
  -8   3   3   10.34    0.50
   8   3  -3    9.52    0.75
   8   3  -3    9.37    0.75
  -8   3   3   10.10    0.46
   8   3  -3   10.53    0.57
   7  -3  -3    7.22    0.52
   7  -3  -3    6.56    0.35
  -7  -3   3    7.55    0.43
   7  -3  -3    6.62    0.31
   7  -3  -3    7.15    0.43
   7   3  -3    7.61    0.61
   7   3  -3    6.56    0.59
  -7   3   3    7.54    0.34
   7   3  -3    7.24    0.48
  -6  -3   3   85.21    2.81
   6  -3  -3   83.25    2.70
  -6  -3   3   82.17    2.93
   6  -3  -3   85.94    3.26
   6  -3  -3   83.60    2.92
  -6  -3   3   89.05    2.90
   6   3  -3   84.50    2.87
   6   3  -3   79.56    3.07
  -6   3   3   84.33    2.72
   6   3  -3   81.00    3.37
   5  -3  -3   26.13    0.89
  -5  -3   3   26.03    1.03
   5  -3  -3   28.18    1.18
  -5  -3   3   28.48    1.07
  -5  -3   3   27.19    1.01
   5  -3  -3   27.24    1.01
   5  -3  -3   28.22    0.90
  -5   3   3   27.14    0.93
   5   3  -3   26.64    1.15
  -5   3   3   27.89    0.92
   5   3  -3   28.52    1.06
   5   3  -3   28.22    1.07
   5   3  -3   27.47    1.28
  -4  -3   3  107.42    3.66
   4  -3  -3  105.24    3.59
  -4  -3   3  106.29    3.48
  -4   3   3  111.24    3.40
   4   3  -3  104.28    3.53
  -4   3   3  105.72    3.40
   4   3  -3  105.53    4.11
   4   3  -3  104.34    3.76
   4   3  -3  108.84    3.67
   3  -3  -3  250.36    8.27
  -3  -3   3  248.99    8.31
  -3  -3   3  245.29    7.91
   3   3  -3  245.04    8.39
   3   3  -3  253.33    8.32
   3   3  -3  242.84    7.95
   3   3  -3  242.25    9.14
  -2  -3   3    4.70    0.31
   2  -3  -3    4.47    0.20
   2  -3  -3    4.83    0.18
  -2  -3   3    4.38    0.25
  -2  -3   3    4.88    0.24
  -2   3   3    4.53    0.17
   2   3  -3    4.48    0.35
   2   3  -3    4.73    0.27
   2   3  -3    4.95    0.31
  -2   3   3    4.83    0.18
   2   3  -3    4.60    0.25
  -1  -3   3   95.90    3.39
   1  -3  -3   97.39    3.17
  -1  -3   3  103.42    3.71
   1  -3  -3   93.50    3.37
   1  -3  -3  105.70    3.20
  -1  -3   3   98.14    3.22
   1  -3  -3  101.29    3.34
   1   3  -3   97.80    3.72
  -1   3   3  102.27    3.33
   1   3  -3   98.01    3.22
   1   3  -3  100.35    3.40
  -1   3   3   94.89    3.17
  -1   3   3  100.80    3.20
   0  -3  -3   74.55    2.59
   0  -3  -3   75.58    2.46
   0  -3   3   75.01    2.62
   0  -3  -3   78.43    2.49
   0  -3   3   77.36    2.51
   0  -3  -3   73.39    2.63
   0  -3   3   75.46    2.49
   0   3   3   71.96    2.62
   0   3   3   77.80    2.46
   0   3  -3   76.82    2.63
   0   3   3   76.65    2.49
   0   3  -3   76.43    2.85
   0   3  -3   75.36    2.49
   0   3   3   77.59    2.58
   1  -3   3    4.12    0.28
  -1  -3  -3    3.47    0.22
  -1  -3  -3    3.39    0.20
   1  -3   3    3.28    0.20
  -1  -3  -3    2.97    0.27
  -1  -3  -3    3.24    0.27
   1  -3   3    3.34    0.20
   1   3   3    3.33    0.22
  -1   3  -3    3.28    0.22
   1   3   3    2.70    0.21
  -1   3  -3    3.14    0.22
  -1   3  -3    2.98    0.20
  -1   3  -3    3.51    0.25
   1   3   3    2.87    0.28
   1   3   3    3.07    0.18
  -2  -3  -3  175.54    6.08
   2  -3   3  180.75    5.71
  -2  -3  -3  176.93    5.75
   2  -3   3  182.26    6.03
  -2  -3  -3  176.51    6.59
  -2  -3  -3  175.38    5.70
  -2   3  -3  168.29    5.70
  -2   3  -3  179.14    5.72
   2   3   3  178.64    5.75
   2   3   3  172.19    6.07
   2   3   3  179.59    5.70
  -2   3  -3  179.15    6.07
   3  -3   3    6.15    0.32
  -3  -3  -3    5.49    0.33
   3  -3   3    6.04    0.37
  -3   3  -3    5.73    0.31
   3   3   3    5.41    0.46
  -3   3  -3    5.66    0.25
   3   3   3    5.58    0.40
   3   3   3    6.39    0.43
  -3   3  -3    7.05    0.36
   4  -3   3   69.09    2.29
   4  -3   3   68.37    2.45
  -4  -3  -3   67.17    2.29
  -4   3  -3   67.49    2.28
  -4   3  -3   68.64    2.50
  -4   3  -3   63.75    2.28
   4   3   3   68.82    2.70
   4   3   3   66.66    2.52
   4   3   3   67.17    2.35
   5  -3   3   14.68    0.65
   5  -3   3   14.14    0.72
  -5  -3  -3   15.65    0.66
  -5   3  -3   14.67    0.65
   5   3   3   14.31    0.70
  -5   3  -3   13.75    0.60
   5   3   3   14.23    0.79
   5   3   3   13.04    0.78
   6  -3   3   47.09    1.69
  -6  -3  -3   44.75    1.68
   6  -3   3   46.61    1.84
   6   3   3   46.50    1.94
   6   3   3   47.30    2.04
  -6   3  -3   47.46    1.69
   6   3   3   47.92    1.79
  -6   3  -3   46.84    1.80
  -7  -3  -3    2.10    0.30
   7  -3   3    1.68    0.30
   7  -3   3    1.62    0.42
  -7   3  -3    1.84    0.27
   7   3   3    1.93    0.41
   7   3   3    1.34    0.41
   7   3   3    1.51    0.32
  -7   3  -3    1.88    0.22
   8  -3   3    0.56    0.27
   8  -3   3    0.51    0.40
  -8  -3  -3    0.35    0.31
   8   3   3    0.49    0.36
  -8   3  -3    0.83    0.23
   8   3   3    0.58    0.37
   8   3   3   -0.12    0.35
   9  -3   3    1.39    0.34
  -9  -3  -3    1.68    0.39
   9  -3   3    1.79    0.49
  -9   3  -3    1.96    0.36
   9   3   3    1.06    0.36
   9   3   3    1.46    0.47
   9   3   3    1.75    0.37
  10  -3   3    3.55    0.57
 -10  -3  -3    2.77    0.41
  10   3   3    2.45    0.69
 -10   3  -3    2.75    0.43
  10   3   3    3.40    0.54
  10   3   3    2.92    0.57
  11  -3   3    0.52    0.48
 -11  -3  -3    0.85    0.41
  11   3   3    0.34    0.59
  11   3   3    0.27    0.48
 -11   3  -3    0.42    0.36
 -12  -3  -3    0.01    0.39
  12  -3   3    0.97    0.51
  12   3   3   -0.75    0.45
  12   3   3    0.04    0.44
 -12   3  -3   -0.65    0.32
  13  -4  -3    2.03    0.40
 -13  -4   3    1.66    0.41
  13   4  -3    0.65    0.53
  13   4  -3    1.49    0.53
 -12  -4   3    0.47    0.34
  12  -4  -3    0.18    0.30
 -12   4   3    0.48    0.23
  12   4  -3   -0.08    0.47
  12   4  -3    0.66    0.51
 -11  -4   3    0.08    0.21
  11  -4  -3    0.08    0.28
  11   4  -3   -0.06    0.42
  11   4  -3    0.01    0.42
 -11   4   3   -0.10    0.20
  10  -4  -3   -0.02    0.26
  10  -4  -3    0.06    0.25
 -10  -4   3   -0.12    0.26
 -10   4   3   -0.13    0.18
  10   4  -3    0.37    0.40
  10   4  -3    0.09    0.42
   9  -4  -3    0.65    0.25
  -9  -4   3    0.80    0.27
   9  -4  -3    0.55    0.27
   9   4  -3    0.46    0.22
   9   4  -3    0.97    0.43
  -9   4   3    0.78    0.20
   9   4  -3    0.41    0.31
   8  -4  -3   30.43    1.36
  -8  -4   3   28.82    1.13
   8  -4  -3   28.76    1.17
   8   4  -3   28.42    1.20
   8   4  -3   29.24    1.42
   8   4  -3   28.04    1.53
  -8   4   3   29.17    1.05
   7  -4  -3    3.41    0.37
  -7  -4   3    4.06    0.31
  -7  -4   3    3.49    0.30
   7  -4  -3    3.55    0.30
   7  -4  -3    3.26    0.18
   7   4  -3    3.04    0.45
   7   4  -3    3.30    0.48
   7   4  -3    3.82    0.35
  -7   4   3    2.64    0.21
  -7   4   3    3.50    0.24
   6  -4  -3   40.91    1.68
   6  -4  -3   41.16    1.47
  -6  -4   3   40.24    1.46
   6  -4  -3   39.32    1.32
  -6  -4   3   40.59    1.52
   6   4  -3   41.15    1.54
   6   4  -3   39.81    1.66
  -6   4   3   42.72    1.36
  -6   4   3   40.22    1.37
   6   4  -3   39.47    1.84
  -5  -4   3   11.59    0.53
   5  -4  -3   10.31    0.37
   5  -4  -3   11.75    0.46
  -5  -4   3   12.23    0.54
   5  -4  -3   12.25    0.38
  -5   4   3   12.03    0.42
  -5   4   3   10.99    0.43
   5   4  -3   10.84    0.70
   5   4  -3   11.53    0.59
   5   4  -3   11.09    0.68
  -4  -4   3   37.68    1.39
  -4  -4   3   37.32    1.34
   4  -4  -3   38.66    1.31
   4   4  -3   40.92    1.46
   4   4  -3   37.80    1.40
   4   4  -3   37.75    1.65
   4   4  -3   36.93    1.51
  -4   4   3   36.47    1.23
  -3  -4   3   -0.06    0.14
  -3  -4   3   -0.01    0.13
   3  -4  -3    0.16    0.05
   3   4  -3   -0.01    0.14
  -3   4   3    0.18    0.04
  -3   4   3    0.20    0.06
   3   4  -3    0.02    0.15
   3   4  -3    0.15    0.15
   3   4  -3    0.19    0.17
   2  -4  -3    3.94    0.18
  -2  -4   3    4.13    0.30
  -2  -4   3    3.76    0.25
   2  -4  -3    3.80    0.21
  -2  -4   3    3.79    0.23
   2  -4  -3    3.94    0.16
   2   4  -3    3.93    0.25
   2   4  -3    3.67    0.26
   2   4  -3    3.97    0.32
   2   4  -3    3.92    0.31
  -2   4   3    3.90    0.19
  -1  -4   3    0.67    0.16
   1  -4  -3    0.58    0.07
  -1  -4   3    0.53    0.13
   1  -4  -3    0.66    0.09
   1  -4  -3    0.65    0.12
   1  -4  -3    0.56    0.09
  -1  -4   3    0.27    0.13
   1   4  -3    0.42    0.13
  -1   4   3    0.51    0.11
  -1   4   3    0.54    0.08
   1   4  -3    0.49    0.12
   1   4  -3    0.61    0.16
  -1   4   3    0.67    0.10
   1   4  -3    0.50    0.11
  -1   4   3    0.58    0.08
   0  -4   3   47.32    1.61
   0  -4  -3   46.20    1.70
   0  -4   3   46.05    1.59
   0  -4  -3   48.47    1.59
   0  -4   3   46.33    1.68
   0  -4  -3   46.42    1.55
   0  -4  -3   46.20    1.64
   0  -4   3   49.42    1.81
   0   4  -3   46.17    1.68
   0   4  -3   45.48    1.82
   0   4   3   47.66    1.63
   0   4   3   46.45    1.69
   0   4   3   47.37    1.60
   0   4   3   46.82    1.55
   0   4  -3   46.13    1.59
  -1  -4  -3  302.17    9.38
  -1  -4  -3  288.11    9.32
  -1  -4  -3  287.56    9.89
   1  -4   3  293.31    9.35
   1  -4   3  310.21    9.85
  -1  -4  -3  292.36    9.81
   1   4   3  286.18    9.37
   1   4   3  278.05    9.87
   1   4   3  293.90    9.33
  -1   4  -3  288.21    9.34
   1   4   3  299.61    9.81
  -1   4  -3  286.71   10.64
   2  -4   3    1.60    0.17
  -2  -4  -3    1.74    0.27
   2  -4   3    1.52    0.20
  -2  -4  -3    1.58    0.17
  -2  -4  -3    1.51    0.17
  -2   4  -3    1.29    0.17
   2   4   3    1.19    0.20
  -2   4  -3    1.52    0.18
   2   4   3    1.57    0.18
  -2   4  -3    1.39    0.11
   2   4   3    1.37    0.24
   3  -4   3   30.43    1.19
  -3  -4  -3   28.81    1.09
   3  -4   3   30.89    1.10
   3   4   3   32.47    1.37
   3   4   3   30.05    1.28
  -3   4  -3   29.10    1.10
   3   4   3   32.11    1.19
  -3   4  -3   29.53    1.10
   4  -4   3    8.63    0.49
   4  -4   3    8.67    0.42
  -4  -4  -3    8.48    0.43
   4   4   3    8.99    0.58
   4   4   3    8.38    0.57
  -4   4  -3    7.82    0.44
   4   4   3    8.52    0.50
  -4   4  -3    8.59    0.46
   5  -4   3   24.80    1.08
  -5  -4  -3   23.92    0.97
   5  -4   3   25.17    0.96
   5   4   3   24.93    1.04
   5   4   3   23.44    1.14
   5   4   3   23.85    1.18
  -5   4  -3   23.57    0.96
  -6  -4  -3    2.80    0.31
   6  -4   3    3.69    0.35
   6  -4   3    3.26    0.43
   6   4   3    2.66    0.45
   6   4   3    4.04    0.48
   6   4   3    3.12    0.47
  -6   4  -3    3.51    0.31
   7  -4   3    7.42    0.49
  -7  -4  -3    6.53    0.47
   7  -4   3    7.29    0.64
   7   4   3    6.61    0.55
   7   4   3    6.49    0.66
  -7   4  -3    7.47    0.51
   7   4   3    7.86    0.73
   8  -4   3   24.68    1.04
   8  -4   3   25.09    1.22
  -8  -4  -3   23.80    1.09
   8   4   3   24.85    1.37
  -8   4  -3   23.57    1.02
   8   4   3   24.93    1.40
   8   4   3   23.57    1.19
  -9  -4  -3    2.34    0.36
   9  -4   3    2.96    0.50
   9   4   3    2.61    0.48
   9   4   3    2.40    0.42
  -9   4  -3    2.51    0.34
   9   4   3    3.35    0.69
 -10  -4  -3    1.64    0.44
  10  -4   3    3.22    0.55
 -10   4  -3    2.35    0.42
  10   4   3    2.62    0.57
  10   4   3    3.00    0.53
  10   4   3    1.28    0.51
  11  -4   3    0.71    0.47
 -11  -4  -3    1.05    0.34
  11   4   3    0.29    0.51
  11   4   3    1.58    0.46
  11   4   3    0.36    0.60
 -11   4  -3    0.49    0.34
  12  -4   3    1.22    0.53
 -12  -4  -3    0.71    0.46
  12   4   3    1.15    0.68
 -12   4  -3    0.59    0.38
  12   4   3    0.68    0.58
 -13  -5   3    3.26    0.51
  13  -5  -3    4.20    0.52
  13   5  -3    2.76    0.75
 -12  -5   3    7.83    0.60
  12  -5  -3   10.11    0.67
  12   5  -3   10.69    1.03
  12   5  -3    8.04    0.96
 -12   5   3    9.94    0.58
 -11  -5   3    1.58    0.38
  11  -5  -3    1.60    0.34
  11   5  -3    1.19    0.53
  11   5  -3    1.85    0.48
 -11   5   3    1.33    0.26
 -10  -5   3    3.26    0.42
  10  -5  -3    3.72    0.39
  10   5  -3    3.23    0.64
 -10   5   3    3.21    0.30
  10   5  -3    2.31    0.58
  -9  -5   3    8.36    0.58
   9  -5  -3    8.69    0.64
   9  -5  -3    8.82    0.54
   9   5  -3    7.48    0.79
   9   5  -3    8.63    0.63
   9   5  -3    9.07    0.80
  -9   5   3    8.71    0.45
  -8  -5   3    3.35    0.38
   8  -5  -3    3.01    0.30
   8  -5  -3    3.26    0.37
  -8  -5   3    2.95    0.36
   8   5  -3    3.06    0.41
  -8   5   3    2.75    0.26
   8   5  -3    2.61    0.52
   8   5  -3    3.25    0.56
   7  -5  -3    4.76    0.42
   7  -5  -3    4.03    0.31
  -7  -5   3    3.42    0.33
  -7  -5   3    4.12    0.34
   7   5  -3    3.61    0.56
  -7   5   3    3.28    0.25
   7   5  -3    3.81    0.43
   7   5  -3    3.10    0.50
  -7   5   3    4.05    0.26
   6  -5  -3   46.75    1.85
   6  -5  -3   46.22    1.62
  -6  -5   3   46.58    1.64
   6  -5  -3   43.62    1.46
  -6  -5   3   45.64    1.71
  -6   5   3   44.11    1.52
  -6   5   3   46.70    1.52
   6   5  -3   47.67    2.07
   6   5  -3   43.64    1.70
   6   5  -3   44.26    1.88
   5  -5  -3   -0.21    0.09
  -5  -5   3    0.04    0.18
  -5  -5   3    0.08    0.14
   5   5  -3   -0.13    0.26
   5   5  -3   -0.08    0.24
   5   5  -3    0.06    0.21
  -5   5   3   -0.08    0.07
  -4  -5   3   60.35    2.16
  -4  -5   3   59.86    2.06
   4  -5  -3   61.54    2.06
   4   5  -3   59.95    2.29
   4   5  -3   60.71    2.50
  -4   5   3   58.26    1.94
   4   5  -3   61.01    2.13
  -3  -5   3   48.21    1.76
   3  -5  -3   48.25    1.56
   3  -5  -3   51.15    1.57
   3  -5  -3   49.18    1.67
  -3  -5   3   47.57    1.67
   3   5  -3   47.43    1.86
  -3   5   3   50.38    1.60
   3   5  -3   48.48    1.75
  -3   5   3   46.44    1.57
   3   5  -3   48.38    2.02
   2  -5  -3   10.59    0.38
  -2  -5   3   10.78    0.48
   2  -5  -3   11.09    0.46
  -2  -5   3   10.42    0.51
   2  -5  -3   10.40    0.41
   2   5  -3   10.37    0.59
   2   5  -3    9.89    0.61
  -2   5   3   10.81    0.39
  -2   5   3   11.14    0.43
   2   5  -3    9.95    0.52
  -2   5   3   10.06    0.41
  -1  -5   3   21.37    0.80
  -1  -5   3   22.11    0.92
   1  -5  -3   20.62    0.73
   1  -5  -3   21.11    0.78
   1  -5  -3   21.07    0.83
  -1  -5   3   20.32    0.83
  -1   5   3   20.71    0.76
  -1   5   3   20.43    0.73
   1   5  -3   20.91    0.90
  -1   5   3   20.86    0.77
   1   5  -3   21.21    0.95
  -1   5   3   20.09    0.80
   0  -5  -3  238.20    7.83
   0  -5  -3  235.01    7.91
   0  -5   3  234.17    7.88
   0  -5   3  234.63    7.48
   0  -5  -3  227.35    7.44
   0  -5   3  238.44    8.55
   0   5   3  236.94    7.50
   0   5  -3  221.50    8.56
   0   5  -3  229.98    7.48
   0   5   3  237.70    7.45
   0   5  -3  242.24    7.94
   0   5   3  218.57    7.88
  -1  -5  -3   14.64    0.67
   1  -5   3   13.88    0.58
  -1  -5  -3   14.00    0.60
   1  -5   3   14.43    0.64
   1  -5   3   16.39    0.62
  -1  -5  -3   15.16    0.56
  -1   5  -3   13.81    0.59
   1   5   3   14.33    0.56
   1   5   3   13.44    0.66
  -1   5  -3   14.13    0.63
   1   5   3   13.73    0.61
  -2  -5  -3    2.77    0.34
  -2  -5  -3    2.45    0.24
  -2  -5  -3    2.89    0.27
   2  -5   3    2.86    0.22
   2  -5   3    3.02    0.27
  -2   5  -3    2.72    0.24
  -2   5  -3    3.10    0.17
   2   5   3    2.55    0.21
  -2   5  -3    2.81    0.22
   2   5   3    2.99    0.37
   2   5   3    2.83    0.31
   3  -5   3   78.91    2.76
   3  -5   3   79.30    2.60
  -3  -5  -3   76.57    2.73
  -3  -5  -3   77.24    2.60
   3   5   3   75.10    2.86
   3   5   3   79.36    2.69
  -3   5  -3   76.99    2.61
  -3   5  -3   72.80    2.58
   3   5   3   80.60    3.09
  -4  -5  -3   19.49    0.82
   4  -5   3   19.75    0.90
   4  -5   3   20.33    0.79
  -4   5  -3   20.26    0.83
   4   5   3   18.75    1.01
  -4   5  -3   19.26    0.80
   4   5   3   21.70    1.07
   4   5   3   20.71    0.90
  -5  -5  -3    0.64    0.19
   5  -5   3    0.58    0.28
   5  -5   3    0.52    0.20
   5   5   3    0.57    0.32
   5   5   3    0.87    0.26
  -5   5  -3    0.29    0.18
   5   5   3    0.34    0.37
  -6  -5  -3   40.99    1.56
   6  -5   3   40.95    1.53
   6  -5   3   44.25    1.72
   6   5   3   42.33    1.88
   6   5   3   41.87    1.70
   6   5   3   42.64    1.92
  -6   5  -3   42.88    1.57
   7  -5   3    4.18    0.51
  -7  -5  -3    4.24    0.41
   7  -5   3    4.39    0.40
  -7   5  -3    4.18    0.42
   7   5   3    4.22    0.58
   7   5   3    4.17    0.49
   7   5   3    4.86    0.56
   8  -5   3    0.38    0.25
  -8  -5  -3    0.61    0.25
   8  -5   3    0.18    0.35
   8   5   3    0.13    0.38
  -8   5  -3    0.44    0.28
   8   5   3    0.25    0.27
   8   5   3    0.18    0.30
   9  -5   3    1.88    0.45
  -9  -5  -3    1.89    0.41
   9   5   3    1.56    0.51
  -9   5  -3    1.56    0.30
   9   5   3    2.10    0.49
   9   5   3    2.45    0.66
 -10  -5  -3    6.31    0.56
  10  -5   3    7.87    0.75
  10   5   3    5.10    0.69
  10   5   3    5.71    0.77
 -10   5  -3    5.64    0.55
  10   5   3    5.83    0.63
 -11  -5  -3    0.53    0.42
  11  -5   3    0.29    0.43
  11   5   3    0.33    0.32
  11   5   3    1.43    0.64
  11   5   3    0.14    0.53
 -11   5  -3    0.24    0.35
  12  -5   3    1.07    0.51
 -12  -5  -3    1.64    0.49
 -12   5  -3    1.01    0.39
  12   5   3   -0.05    0.58
  12   5   3    2.77    0.78
  13   6  -3    3.31    0.85
 -12  -6   3    0.89    0.30
  12  -6  -3    1.46    0.32
  12   6  -3    1.29    0.62
  12   6  -3    0.48    0.44
  11  -6  -3    0.37    0.27
 -11  -6   3   -0.03    0.33
 -11   6   3    0.59    0.22
  11   6  -3    0.39    0.52
  11   6  -3    0.00    0.50
  10  -6  -3    2.33    0.34
 -10  -6   3    1.85    0.33
 -10   6   3    2.33    0.26
  10   6  -3    2.91    0.43
  10   6  -3    2.14    0.60
  10   6  -3    2.46    0.53
   9  -6  -3   13.24    0.64
   9  -6  -3   12.90    0.78
  -9  -6   3   12.72    0.74
   9   6  -3   13.16    0.99
   9   6  -3   12.39    1.01
  -9   6   3   13.75    0.58
   9   6  -3   12.11    0.80
  -8  -6   3   20.94    0.97
   8  -6  -3   21.87    0.91
  -8  -6   3   22.21    0.96
   8  -6  -3   22.09    1.07
   8   6  -3   21.22    1.19
   8   6  -3   21.59    1.28
  -8   6   3   22.95    0.83
   8   6  -3   22.24    1.08
  -7  -6   3   34.56    1.29
   7  -6  -3   34.53    1.44
  -7  -6   3   33.24    1.34
   7  -6  -3   32.67    1.23
   7   6  -3   34.68    1.40
  -7   6   3   31.52    1.15
   7   6  -3   30.56    1.50
   7   6  -3   32.43    1.65
   6  -6  -3   18.49    0.63
  -6  -6   3   20.60    0.83
  -6  -6   3   19.36    0.87
   6  -6  -3   20.03    0.76
   6  -6  -3   20.03    0.91
  -6   6   3   19.33    0.70
   6   6  -3   20.10    0.91
   6   6  -3   18.34    1.06
   6   6  -3   19.02    1.10
  -5  -6   3   -0.08    0.15
   5  -6  -3    0.09    0.04
   5  -6  -3    0.06    0.04
   5  -6  -3   -0.02    0.10
  -5  -6   3   -0.02    0.20
   5   6  -3    0.04    0.24
  -5   6   3    0.12    0.08
   5   6  -3   -0.36    0.29
   5   6  -3    0.13    0.28
   4  -6  -3  169.20    5.02
  -4  -6   3  162.92    5.43
   4  -6  -3  161.97    5.31
   4  -6  -3  156.37    5.01
  -4  -6   3  152.88    5.15
  -4   6   3  149.57    5.03
   4   6  -3  153.07    5.23
   4   6  -3  152.04    5.55
   4   6  -3  160.38    6.05
   3  -6  -3   19.38    0.69
   3  -6  -3   20.24    0.76
   3  -6  -3   21.50    0.71
  -3  -6   3   20.04    0.85
  -3  -6   3   21.35    0.83
  -3   6   3   21.17    0.75
   3   6  -3   20.73    0.88
   3   6  -3   19.99    0.98
   3   6  -3   20.94    1.06
   2  -6  -3   65.87    2.18
  -2  -6   3   67.54    2.28
  -2  -6   3   65.92    2.39
   2  -6  -3   68.19    2.31
   2  -6  -3   70.27    2.37
   2   6  -3   66.32    2.48
   2   6  -3   66.22    2.69
  -2   6   3   65.96    2.19
  -2   6   3   68.27    2.23
   2   6  -3   66.71    2.34
  -2   6   3   66.92    2.29
   1  -6  -3   34.60    1.30
  -1  -6   3   33.85    1.23
  -1  -6   3   33.31    1.29
  -1  -6   3   36.17    1.44
   1  -6  -3   35.10    1.16
   1  -6  -3   35.18    1.24
  -1   6   3   34.00    1.22
   1   6  -3   34.07    1.46
  -1   6   3   31.58    1.27
   1   6  -3   33.28    1.38
  -1   6   3   34.63    1.17
   0  -6  -3   66.98    2.23
   0  -6  -3   67.54    2.36
   0  -6   3   66.37    2.40
   0  -6   3   68.87    2.60
   0  -6   3   66.83    2.27
   0  -6  -3   72.18    2.46
   0   6   3   63.79    2.42
   0   6  -3   68.43    2.48
   0   6   3   67.35    2.24
   0   6  -3   66.80    2.62
   0   6   3   68.28    2.30
  -1  -6  -3  148.33    5.19
   1  -6   3  160.32    5.62
  -1  -6  -3  153.18    4.93
  -1  -6  -3  154.34    5.30
   1  -6   3  151.86    4.95
   1  -6   3  155.13    5.23
   1   6   3  152.42    4.93
   1   6   3  154.15    5.01
  -1   6  -3  150.84    5.63
   1   6   3  141.56    5.27
  -2  -6  -3   60.97    2.20
   2  -6   3   62.20    2.09
  -2  -6  -3   61.08    2.08
   2  -6   3   62.77    2.22
  -2   6  -3   60.24    2.12
  -2   6  -3   62.28    2.28
   2   6   3   58.01    2.29
   2   6   3   62.46    2.17
   3  -6   3    7.88    0.53
   3  -6   3    9.00    0.47
  -3  -6  -3    9.46    0.48
  -3  -6  -3   10.00    0.48
   3   6   3   10.05    0.63
  -3   6  -3    8.37    0.46
  -3   6  -3    9.24    0.51
   3   6   3    8.78    0.57
   3   6   3    9.11    0.60
   4  -6   3    5.06    0.45
  -4  -6  -3    5.19    0.41
  -4  -6  -3    5.16    0.35
   4  -6   3    4.70    0.32
   4   6   3    4.58    0.47
   4   6   3    4.82    0.51
  -4   6  -3    4.51    0.35
   4   6   3    6.11    0.52
   5  -6   3   40.37    1.51
  -5  -6  -3   42.10    1.57
   5  -6   3   40.89    1.65
   5   6   3   43.60    1.92
  -5   6  -3   42.63    1.57
   5   6   3   44.03    1.69
   5   6   3   43.34    1.85
   6  -6   3    1.80    0.29
  -6  -6  -3    1.95    0.30
   6  -6   3    1.76    0.37
  -6   6  -3    2.75    0.33
   6   6   3    2.09    0.38
   6   6   3    1.98    0.53
   6   6   3    1.72    0.46
   7  -6   3    2.59    0.33
  -7  -6  -3    2.42    0.40
   7  -6   3    3.03    0.46
   7   6   3    2.76    0.42
   7   6   3    2.34    0.51
  -7   6  -3    2.84    0.33
   7   6   3    2.88    0.53
   8  -6   3    6.64    0.64
  -8  -6  -3    6.58    0.52
   8   6   3    6.52    0.76
   8   6   3    6.23    0.76
  -8   6  -3    6.83    0.56
   8   6   3    7.43    0.72
  -9  -6  -3    1.05    0.38
   9  -6   3    0.64    0.39
   9   6   3    0.70    0.48
   9   6   3    0.26    0.41
   9   6   3    0.79    0.58
  -9   6  -3    0.46    0.30
  10  -6   3    8.15    0.76
 -10  -6  -3    6.62    0.59
  10   6   3    5.08    0.79
  10   6   3    5.97    0.66
  10   6   3    6.84    0.84
 -10   6  -3    7.55    0.63
 -11  -6  -3    0.17    0.42
  11  -6   3    0.25    0.42
  11   6   3    0.06    0.43
  11   6   3   -0.34    0.38
  11   6   3    0.27    0.62
 -11   6  -3   -0.35    0.31
 -12  -6  -3    2.18    0.46
  12  -6   3    2.19    0.54
  12   6   3    1.21    0.65
 -12   6  -3    1.72    0.43
 -12  -7   3    0.85    0.32
  12   7  -3    0.55    0.46
  12   7  -3    0.50    0.49
 -11  -7   3    1.28    0.40
  11  -7  -3    1.12    0.31
  11   7  -3    0.50    0.57
  11   7  -3    1.01    0.59
 -10  -7   3    0.07    0.32
  10  -7  -3    0.16    0.24
  10   7  -3    0.47    0.28
  10   7  -3    0.20    0.52
  10   7  -3    0.80    0.55
  -9  -7   3    2.53    0.39
  -9  -7   3    2.03    0.33
   9  -7  -3    1.86    0.28
   9   7  -3    1.24    0.45
   9   7  -3    1.83    0.57
   9   7  -3    1.17    0.41
  -8  -7   3   26.80    1.20
   8  -7  -3   26.29    1.23
  -8  -7   3   28.83    1.19
   8  -7  -3   27.61    1.07
   8   7  -3   26.25    1.27
   8   7  -3   26.76    1.58
   8   7  -3   27.29    1.48
   7  -7  -3    0.03    0.16
   7  -7  -3    0.17    0.18
  -7  -7   3    0.25    0.27
  -7  -7   3   -0.17    0.27
   7   7  -3   -0.48    0.29
   7   7  -3    0.08    0.32
   7   7  -3    0.05    0.38
  -6  -7   3    1.18    0.30
  -6  -7   3    1.21    0.29
   6  -7  -3    0.86    0.17
   6   7  -3    0.96    0.33
  -6   7   3    1.12    0.14
   6   7  -3    0.55    0.34
   6   7  -3    0.54    0.41
  -5  -7   3    9.70    0.56
  -5  -7   3   10.74    0.56
   5  -7  -3   10.11    0.36
   5  -7  -3   10.24    0.45
   5   7  -3   10.70    0.82
   5   7  -3    9.99    0.76
   5   7  -3   10.12    0.66
  -5   7   3    9.68    0.40
   4  -7  -3    6.26    0.32
  -4  -7   3    6.87    0.45
  -4  -7   3    6.56    0.42
   4  -7  -3    6.12    0.25
   4   7  -3    6.01    0.45
  -4   7   3    6.60    0.33
   4   7  -3    6.23    0.60
   4   7  -3    6.48    0.56
  -3  -7   3  143.52    4.73
   3  -7  -3  153.68    4.89
  -3  -7   3  148.86    4.99
   3  -7  -3  144.30    4.61
  -3   7   3  144.83    4.84
   3   7  -3  140.98    4.81
   3   7  -3  145.18    5.54
  -3   7   3  133.83    4.85
  -3   7   3  136.04    4.63
   3   7  -3  144.43    5.12
  -3   7   3  149.50    4.68
   2  -7  -3    2.56    0.26
   2  -7  -3    2.36    0.19
  -2  -7   3    2.51    0.27
   2  -7  -3    2.39    0.17
  -2  -7   3    2.21    0.26
   2   7  -3    2.26    0.32
  -2   7   3    1.92    0.20
  -2   7   3    2.22    0.22
  -2   7   3    2.56    0.19
   2   7  -3    2.51    0.36
   2   7  -3    2.39    0.39
   1  -7  -3    0.81    0.19
  -1  -7   3    0.76    0.16
  -1  -7   3    0.58    0.21
   1  -7  -3    0.86    0.12
   1  -7  -3    0.59    0.15
  -1   7   3    0.92    0.14
  -1   7   3    0.54    0.19
   1   7  -3    0.68    0.22
   1   7  -3    0.79    0.23
  -1   7   3    0.63    0.18
   0  -7  -3   44.64    1.51
   0  -7  -3   43.48    1.60
   0  -7  -3   44.23    1.68
   0  -7   3   44.75    1.56
   0  -7   3   45.63    1.78
   0  -7   3   43.18    1.64
   0   7   3   45.63    1.59
   0   7   3   41.40    1.67
   0   7  -3   44.53    1.80
   0   7  -3   42.76    1.71
   0   7   3   43.45    1.51
   1  -7   3   20.64    0.89
  -1  -7  -3   20.57    0.87
   1  -7   3   21.31    0.84
  -1  -7  -3   22.49    0.99
   1  -7   3   23.93    0.93
  -1  -7  -3   20.99    0.81
   1   7   3   21.62    0.89
  -1   7  -3   21.02    0.96
   1   7   3   20.88    0.98
   1   7   3   21.31    0.82
  -1   7  -3   20.96    0.94
  -2  -7  -3  123.00    4.04
   2  -7   3  124.95    4.05
   2  -7   3  133.98    4.53
  -2  -7  -3  119.67    4.25
   2  -7   3  123.25    4.27
   2   7   3  120.07    4.12
   2   7   3  112.87    4.35
  -3  -7  -3   17.83    0.79
  -3  -7  -3   17.37    0.76
   3  -7   3   18.63    0.76
   3  -7   3   18.13    0.84
   3   7   3   18.65    0.88
   3   7   3   17.08    0.91
   4  -7   3    1.71    0.33
  -4  -7  -3    1.69    0.24
  -4  -7  -3    1.71    0.26
   4  -7   3    1.78    0.26
   4   7   3    1.50    0.38
   4   7   3    1.13    0.40
   4   7   3    1.64    0.31
  -5  -7  -3   25.95    1.09
   5  -7   3   26.75    1.05
   5  -7   3   26.64    1.17
  -5   7  -3   26.45    1.09
   5   7   3   26.50    1.18
   5   7   3   25.11    1.35
   5   7   3   27.20    1.43
   6  -7   3   22.23    0.93
  -6  -7  -3   22.42    0.99
   6  -7   3   24.92    1.11
  -6   7  -3   24.38    1.02
   6   7   3   24.77    1.31
   6   7   3   21.65    1.22
   6   7   3   21.74    1.09
   7  -7   3    0.40    0.26
   7  -7   3    0.47    0.23
  -7  -7  -3    0.76    0.34
   7   7   3    0.69    0.36
   7   7   3    1.08    0.44
   7   7   3    0.75    0.41
  -7   7  -3    1.07    0.31
   8  -7   3    0.46    0.28
  -8  -7  -3    0.52    0.26
   8   7   3    0.54    0.42
   8   7   3    0.89    0.58
  -8   7  -3    0.11    0.30
   8   7   3    0.44    0.36
   9  -7   3    3.58    0.53
  -9  -7  -3    4.37    0.53
   9   7   3    4.13    0.78
  -9   7  -3    4.01    0.47
   9   7   3    3.62    0.53
   9   7   3    3.35    0.60
  10  -7   3    7.81    0.73
 -10  -7  -3    6.21    0.59
  10   7   3    6.24    0.68
  10   7   3    4.91    0.82
  10   7   3    5.57    0.81
 -10   7  -3    5.47    0.56
  11  -7   3   -0.03    0.41
 -11  -7  -3    0.34    0.44
  11   7   3    0.07    0.60
  11   7   3    1.35    0.72
  11   7   3    1.94    0.56
 -11   7  -3    0.62    0.40
 -12   7  -3    1.54    0.42
 -12  -8   3    0.34    0.41
  12   8  -3   -0.05    0.49
 -11  -8   3    0.18    0.27
  11   8  -3    0.31    0.59
  11   8  -3    0.59    0.58
  10  -8  -3   -0.26    0.23
 -10  -8   3   -0.07    0.34
  10   8  -3   -0.14    0.36
  10   8  -3    0.63    0.57
  10   8  -3    0.40    0.29
  -9  -8   3   18.17    0.96
  -9  -8   3   18.17    0.95
   9  -8  -3   17.87    0.79
   9   8  -3   16.81    1.05
   9   8  -3   18.35    1.27
   9   8  -3   18.71    1.29
   8  -8  -3    3.11    0.30
  -8  -8   3    2.76    0.37
  -8  -8   3    2.92    0.38
   8   8  -3    2.94    0.45
   8   8  -3    2.54    0.51
   8   8  -3    2.82    0.64
  -7  -8   3   27.28    1.16
   7  -8  -3   27.94    1.19
  -7  -8   3   26.12    1.15
   7  -8  -3   26.17    1.02
   7   8  -3   27.35    1.23
   7   8  -3   25.64    1.47
   7   8  -3   23.81    1.35
  -6  -8   3    0.05    0.29
  -6  -8   3    0.94    0.25
   6  -8  -3    0.54    0.16
   6   8  -3   -0.33    0.32
   6   8  -3    0.16    0.40
  -6   8   3    0.47    0.13
   6   8  -3    0.07    0.44
  -5  -8   3   28.44    1.16
  -5  -8   3   29.49    1.24
   5  -8  -3   29.69    1.09
   5   8  -3   30.48    1.55
  -5   8   3   30.07    1.06
   5   8  -3   28.01    1.37
   5   8  -3   28.35    1.25
   4  -8  -3    1.30    0.13
   4  -8  -3    1.55    0.18
  -4  -8   3    1.72    0.27
  -4  -8   3    1.06    0.22
   4   8  -3    1.26    0.34
  -4   8   3    1.33    0.19
   4   8  -3    0.95    0.36
   4   8  -3    1.45    0.29
   3  -8  -3    1.13    0.13
   3  -8  -3    1.23    0.18
  -3  -8   3    1.58    0.23
  -3  -8   3    1.75    0.30
   3   8  -3    1.52    0.39
  -3   8   3    1.35    0.16
   3   8  -3    1.04    0.27
   3   8  -3    0.78    0.33
  -3   8   3    1.26    0.16
  -3   8   3    1.20    0.20
   2  -8  -3    4.29    0.29
  -2  -8   3    3.72    0.37
   2  -8  -3    4.62    0.33
   2  -8  -3    3.83    0.24
  -2  -8   3    4.04    0.36
   2   8  -3    3.39    0.45
  -2   8   3    3.75    0.31
  -2   8   3    3.92    0.31
   2   8  -3    4.25    0.47
   2   8  -3    4.30    0.44
  -2   8   3    3.73    0.24
  -1  -8   3   18.87    0.85
  -1  -8   3   19.32    0.82
   1  -8  -3   20.00    0.74
   1  -8  -3   21.59    0.90
   1  -8  -3   19.69    0.80
   1   8  -3   18.77    0.87
  -1   8   3   20.22    0.75
   1   8  -3   18.37    0.93
   1   8  -3   19.66    0.99
  -1   8   3   18.57    0.84
  -1   8   3   20.82    0.83
   0  -8  -3   21.98    0.96
   0  -8   3   19.61    0.84
   0  -8  -3   21.50    0.80
   0  -8   3   20.45    0.89
   0  -8  -3   21.09    0.86
   0   8  -3   19.60    0.96
   0   8   3   21.49    0.80
   0   8   3   21.34    0.89
   0   8   3   19.97    0.93
   0   8  -3   21.03    1.00
  -1  -8  -3    0.04    0.18
   1  -8   3   -0.01    0.13
   1  -8   3   -0.17    0.11
   1  -8   3    0.16    0.18
  -1  -8  -3   -0.06    0.15
  -1   8  -3    0.04    0.15
  -1   8  -3   -0.13    0.25
   1   8   3    0.26    0.26
   1   8   3   -0.06    0.20
   2  -8   3    3.92    0.35
  -2  -8  -3    3.80    0.32
  -2  -8  -3    3.92    0.29
   2  -8   3    3.42    0.38
   2  -8   3    4.52    0.28
   2   8   3    4.05    0.48
  -2   8  -3    3.60    0.39
   2   8   3    3.94    0.42
  -3  -8  -3    1.24    0.27
   3  -8   3    1.55    0.25
  -3  -8  -3    1.41    0.30
   3  -8   3    1.25    0.30
   3   8   3    1.76    0.42
   3   8   3    1.17    0.35
  -3   8  -3    2.29    0.31
  -4  -8  -3    0.23    0.19
   4  -8   3   -0.20    0.21
  -4  -8  -3   -0.03    0.21
   4  -8   3   -0.06    0.29
   4   8   3    0.00    0.33
   4   8   3    0.16    0.39
   4   8   3    0.08    0.25
   5  -8   3   11.78    0.60
  -5  -8  -3   11.08    0.65
  -5  -8  -3   11.83    0.66
   5  -8   3   11.38    0.71
   5   8   3   10.85    0.71
   5   8   3    9.52    0.78
   5   8   3   11.28    0.84
   6  -8   3    1.07    0.27
   6  -8   3    1.27    0.38
  -6  -8  -3    1.59    0.30
   6   8   3    1.58    0.38
  -6   8  -3    1.48    0.34
   6   8   3    1.14    0.47
   6   8   3    1.06    0.40
  -7  -8  -3   19.09    0.95
   7  -8   3   18.22    0.94
   7   8   3   18.35    1.25
   7   8   3   19.65    1.10
  -7   8  -3   18.57    0.92
   7   8   3   17.79    1.26
   8  -8   3    0.15    0.34
  -8  -8  -3    0.15    0.25
   8   8   3   -0.43    0.52
   8   8   3    0.44    0.45
   8   8   3   -0.23    0.48
  -8   8  -3    0.25    0.32
   9  -8   3    4.30    0.56
  -9  -8  -3    3.74    0.51
   9   8   3    3.80    0.56
   9   8   3    3.92    0.68
   9   8   3    3.45    0.72
  -9   8  -3    3.44    0.48
  10  -8   3    0.61    0.39
 -10  -8  -3    0.59    0.42
  10   8   3    1.01    0.41
  10   8   3    1.73    0.70
  10   8   3   -0.01    0.42
 -10   8  -3    0.95    0.38
  11  -8   3    0.37    0.41
 -11  -8  -3    0.20    0.33
  11   8   3   -0.02    0.49
  11   8   3   -0.82    0.57
 -11   8  -3   -0.02    0.35
  11   8   3    0.94    0.52
 -11  -9   3    5.77    0.63
  11   9  -3    3.86    0.77
  11   9  -3    6.78    0.87
 -10  -9   3    1.54    0.44
  10   9  -3    1.68    0.64
  10   9  -3    2.77    0.56
  10   9  -3    1.24    0.53
  -9  -9   3    3.34    0.43
   9  -9  -3    3.07    0.32
  -9  -9   3    2.82    0.41
   9   9  -3    2.66    0.68
   9   9  -3    2.08    0.55
   9   9  -3    3.34    0.51
  -8  -9   3    0.28    0.35
  -8  -9   3    0.55    0.35
   8  -9  -3    0.13    0.19
   8   9  -3    0.32    0.49
   8   9  -3    0.56    0.42
   8   9  -3    0.25    0.52
  -7  -9   3    3.66    0.42
   7  -9  -3    4.31    0.34
  -7  -9   3    4.29    0.50
   7   9  -3    3.57    0.59
   7   9  -3    4.43    0.63
   7   9  -3    4.00    0.50
  -6  -9   3    0.35    0.31
  -6  -9   3   -0.26    0.28
   6  -9  -3   -0.02    0.15
  -6   9   3    0.19    0.15
   6   9  -3   -0.22    0.24
   6   9  -3   -0.19    0.32
   6   9  -3   -0.07    0.40
  -5  -9   3    3.63    0.38
   5  -9  -3    3.81    0.30
  -5  -9   3    3.76    0.44
   5   9  -3    3.66    0.54
   5   9  -3    3.42    0.50
  -5   9   3    3.49    0.29
   5   9  -3    3.78    0.60
  -4  -9   3    0.33    0.23
  -4  -9   3   -0.02    0.27
   4  -9  -3    0.37    0.11
   4  -9  -3    0.45    0.16
   4   9  -3    0.12    0.29
  -4   9   3    0.43    0.18
   4   9  -3   -0.45    0.32
  -4   9   3    0.28    0.14
  -4   9   3    0.34    0.10
   4   9  -3   -0.44    0.31
  -3  -9   3   55.73    2.00
   3  -9  -3   56.41    1.87
  -3  -9   3   55.82    2.10
   3  -9  -3   56.78    2.00
  -3   9   3   55.38    1.94
   3   9  -3   59.26    2.45
  -3   9   3   54.90    1.88
   3   9  -3   54.35    2.27
   3   9  -3   54.98    2.11
   2  -9  -3    0.48    0.16
   2  -9  -3    0.59    0.13
  -2  -9   3    0.69    0.28
  -2  -9   3    0.15    0.22
   2  -9  -3    0.56    0.21
  -2   9   3    0.58    0.16
   2   9  -3    0.69    0.32
   2   9  -3    0.47    0.23
  -2   9   3    0.60    0.19
  -2   9   3    0.13    0.21
   2   9  -3    0.80    0.29
   1  -9  -3   15.57    0.68
   1  -9  -3   16.72    0.78
   1  -9  -3   15.94    0.62
  -1  -9   3   14.02    0.67
  -1  -9   3   15.39    0.74
   1   9  -3   13.93    0.75
  -1   9   3   15.74    0.76
   1   9  -3   14.97    0.87
  -1   9   3   15.36    0.72
   1   9  -3   15.01    0.87
  -1   9   3   15.55    0.64
   0  -9   3    1.52    0.23
   0  -9  -3    1.42    0.25
   0  -9   3    1.43    0.31
   0  -9  -3    1.21    0.20
   0   9   3    1.44    0.22
   0   9   3    1.14    0.28
   0   9  -3    1.14    0.27
   0   9  -3    1.33    0.30
   0   9   3    1.29    0.29
  -1  -9  -3    2.77    0.28
   1  -9   3    2.71    0.32
  -1  -9  -3    2.88    0.29
   1  -9   3    3.15    0.31
   1  -9   3    2.91    0.33
  -1   9  -3    2.86    0.31
   1   9   3    2.83    0.41
   1   9   3    3.03    0.38
  -1   9  -3    2.45    0.40
   2  -9   3   15.42    0.68
  -2  -9  -3   14.91    0.68
   2  -9   3   14.03    0.72
  -2  -9  -3   13.94    0.73
   2  -9   3   14.50    0.68
   2   9   3   13.32    0.80
   2   9   3   15.02    0.80
  -2   9  -3   15.28    0.83
   3  -9   3    1.09    0.26
  -3  -9  -3    0.74    0.24
  -3  -9  -3    1.03    0.23
   3  -9   3    0.49    0.24
   3   9   3    0.39    0.29
  -3   9  -3    0.52    0.32
   3   9   3    0.78    0.36
   4  -9   3   -0.15    0.31
  -4  -9  -3    0.73    0.28
  -4  -9  -3    0.92    0.25
   4  -9   3    0.31    0.24
   4   9   3    0.79    0.34
  -4   9  -3    0.36    0.29
   4   9   3    0.68    0.37
  -5  -9  -3   20.32    0.98
  -5  -9  -3   18.34    0.86
   5  -9   3   19.06    0.84
   5  -9   3   18.47    0.95
   5   9   3   18.40    1.16
   5   9   3   18.50    1.15
   5   9   3   18.52    1.04
  -6  -9  -3    1.57    0.38
   6  -9   3    1.45    0.30
   6  -9   3    1.78    0.40
   6   9   3    1.33    0.51
   6   9   3    1.86    0.58
   6   9   3    1.61    0.39
  -7  -9  -3    3.42    0.42
   7  -9   3    3.83    0.49
   7   9   3    3.39    0.52
   7   9   3    3.88    0.63
   7   9   3    3.01    0.56
  -8  -9  -3    1.42    0.40
   8  -9   3    0.28    0.35
   8   9   3    0.74    0.44
   8   9   3    0.73    0.48
   8   9   3    0.48    0.57
  -9  -9  -3    0.98    0.34
   9  -9   3    0.56    0.37
  -9   9  -3    0.25    0.34
   9   9   3    1.14    0.62
   9   9   3    0.70    0.50
   9   9   3    0.06    0.57
 -10  -9  -3    0.71    0.46
  10  -9   3    0.38    0.41
 -10   9  -3    0.83    0.37
  10   9   3    0.27    0.63
  10   9   3    0.75    0.42
  10   9   3    1.29    0.53
 -11  -9  -3    0.95    0.50
  11  -9   3    0.91    0.48
  11   9   3    1.88    0.82
 -11   9  -3    0.84    0.38
  11   9   3    1.28    0.45
 -11 -10   3    0.26    0.41
  11  10  -3    1.81    0.73
  11  10  -3   -0.35    0.48
 -10 -10   3    1.94    0.41
 -10 -10   3    1.48    0.38
  10  10  -3    0.98    0.55
  10  10  -3    2.38    0.74
  10  10  -3    1.24    0.39
   9 -10  -3   15.89    0.76
  -9 -10   3   15.25    0.88
  -9 -10   3   17.43    1.01
   9  10  -3   13.91    1.36
   9  10  -3   18.38    1.13
   9  10  -3   17.75    1.33
  -8 -10   3    2.62    0.41
   8 -10  -3    2.99    0.30
  -8 -10   3    2.88    0.49
   8  10  -3    2.76    0.66
   8  10  -3    2.98    0.72
   8  10  -3    2.71    0.55
  -7 -10   3    2.17    0.37
   7 -10  -3    2.03    0.25
  -7 -10   3    1.16    0.32
   7  10  -3    2.23    0.51
   7  10  -3    0.82    0.56
   7  10  -3    1.12    0.44
  -7  10   3    1.32    0.22
  -6 -10   3    1.90    0.34
   6 -10  -3    1.90    0.24
  -6 -10   3    1.91    0.40
   6  10  -3    1.99    0.48
  -6  10   3    2.06    0.25
   6  10  -3    1.77    0.48
   6  10  -3    2.29    0.43
  -5 -10   3    0.47    0.32
   5 -10  -3    0.60    0.18
  -5 -10   3    0.60    0.34
   5  10  -3    0.35    0.37
   5  10  -3    1.14    0.41
   5  10  -3    0.47    0.33
  -5  10   3    0.68    0.20
  -4 -10   3   -0.14    0.20
   4 -10  -3    0.01    0.15
  -4 -10   3   -0.02    0.31
   4  10  -3   -0.15    0.41
   4  10  -3   -0.04    0.25
   4  10  -3   -0.20    0.26
  -4  10   3   -0.41    0.17
   3 -10  -3    1.12    0.17
  -3 -10   3    0.80    0.31
  -3 -10   3    1.06    0.36
   3 -10  -3    1.01    0.21
   3  10  -3    0.57    0.44
   3  10  -3    1.11    0.41
   3  10  -3    0.65    0.29
  -3  10   3    1.25    0.25
  -2 -10   3    0.11    0.22
   2 -10  -3   -0.08    0.12
   2 -10  -3    0.20    0.17
  -2 -10   3   -0.27    0.17
  -2  10   3   -0.11    0.16
   2  10  -3   -0.45    0.20
  -2  10   3   -0.40    0.19
   2  10  -3   -0.23    0.29
  -2  10   3   -0.18    0.19
   2  10  -3   -0.37    0.22
   1 -10  -3   10.78    0.63
  -1 -10   3    9.41    0.58
  -1 -10   3    9.62    0.53
   1 -10  -3   10.11    0.47
   1 -10  -3   10.37    0.54
   1  10  -3    9.30    0.70
  -1  10   3    9.53    0.58
   1  10  -3    8.47    0.65
  -1  10   3    8.59    0.59
  -1  10   3   10.32    0.49
   1  10  -3    8.77    0.66
   0 -10   3    7.86    0.51
   0 -10  -3    8.12    0.44
   0 -10   3    7.77    0.52
   0 -10  -3    8.25    0.50
   0  10   3    8.14    0.57
   0  10   3    7.89    0.58
   0  10  -3    7.70    0.58
   0  10  -3    7.46    0.59
   1 -10   3    1.20    0.29
  -1 -10  -3    1.48    0.26
   1 -10   3    1.30    0.28
  -1 -10  -3    1.58    0.30
   1  10   3    1.80    0.37
  -1  10  -3    1.51    0.27
   1  10   3    1.69    0.32
  -1  10  -3    1.29    0.32
   2 -10   3    2.02    0.34
   2 -10   3    2.71    0.30
  -2 -10  -3    1.84    0.36
  -2 -10  -3    2.47    0.29
   2  10   3    2.50    0.42
  -2  10  -3    2.42    0.37
   2  10   3    2.62    0.46
   3 -10   3   19.48    1.00
  -3 -10  -3   21.07    0.99
   3 -10   3   20.13    0.86
  -3 -10  -3   20.92    0.91
  -3  10  -3   20.56    1.05
   3  10   3   21.33    1.07
   3  10   3   18.95    1.07
   4 -10   3    0.19    0.18
  -4 -10  -3    0.57    0.34
  -4 -10  -3    0.38    0.21
   4 -10   3    0.20    0.24
   4  10   3    0.10    0.32
  -4  10  -3    0.55    0.31
   4  10   3    0.16    0.28
   5 -10   3   10.18    0.70
  -5 -10  -3    9.58    0.65
  -5 -10  -3    9.60    0.64
   5 -10   3    9.92    0.57
   5  10   3    9.00    0.78
  -5  10  -3    9.01    0.68
   5  10   3   10.17    0.73
   6 -10   3    1.45    0.38
  -6 -10  -3    1.25    0.32
  -6 -10  -3    1.20    0.30
   6  10   3    0.45    0.38
   6  10   3    1.67    0.56
   6  10   3    1.64    0.49
   7 -10   3    8.74    0.69
  -7 -10  -3    6.50    0.63
   7  10   3    7.94    0.92
   7  10   3    7.36    0.78
   7  10   3    7.31    0.85
  -8 -10  -3    0.49    0.30
   8 -10   3    0.46    0.38
   8  10   3    0.23    0.45
   8  10   3    0.89    0.50
   8  10   3    0.63    0.39
   9 -10   3    2.49    0.49
  -9 -10  -3    1.89    0.49
   9  10   3    1.11    0.54
   9  10   3    1.99    0.68
   9  10   3    1.55    0.46
 -10 -10  -3   -0.22    0.30
  10 -10   3   -0.10    0.38
  10  10   3    0.46    0.66
  10  10   3    0.05    0.53
 -10 -11   3    0.80    0.36
  10  11  -3   -0.64    0.62
  10  11  -3    1.44    0.72
  10  11  -3    1.08    0.40
  -9 -11   3    4.63    0.53
  -9 -11   3    4.84    0.61
   9  11  -3    4.27    0.70
   9  11  -3    5.51    0.89
   9  11  -3    3.84    0.85
  -8 -11   3    0.43    0.41
   8 -11  -3    0.55    0.23
  -8 -11   3    0.91    0.43
   8  11  -3    0.66    0.38
   8  11  -3    1.08    0.62
   8  11  -3   -0.02    0.43
  -7 -11   3    0.04    0.26
  -7 -11   3   -0.42    0.34
   7 -11  -3   -0.08    0.17
  -7  11   3    0.02    0.18
   7  11  -3   -0.33    0.40
   7  11  -3   -0.41    0.53
   7  11  -3   -0.73    0.47
   6 -11  -3    1.22    0.23
  -6 -11   3    1.26    0.31
  -6 -11   3    0.99    0.38
   6  11  -3    0.51    0.51
  -6  11   3    0.94    0.23
   6  11  -3    0.62    0.54
   6  11  -3    0.75    0.44
  -5 -11   3    4.69    0.46
   5 -11  -3    4.65    0.37
  -5 -11   3    4.22    0.52
  -5  11   3    4.21    0.38
   5  11  -3    4.42    0.70
   5  11  -3    5.03    0.71
   5  11  -3    4.49    0.55
   4 -11  -3    5.46    0.40
  -4 -11   3    4.76    0.48
  -4 -11   3    5.15    0.51
  -4  11   3    5.12    0.42
   4  11  -3    4.67    0.69
   4  11  -3    5.38    0.61
   4  11  -3    5.18    0.64
  -3 -11   3    4.27    0.45
   3 -11  -3    3.79    0.38
  -3 -11   3    4.31    0.42
   3  11  -3    4.94    0.52
   3  11  -3    3.94    0.62
  -3  11   3    4.20    0.39
   3  11  -3    4.80    0.61
  -2 -11   3   14.04    0.70
   2 -11  -3   13.85    0.67
  -2 -11   3   14.38    0.76
  -2  11   3   14.59    0.74
   2  11  -3   13.96    0.94
   2  11  -3   12.93    0.93
   2  11  -3   12.80    0.79
   1 -11  -3   13.62    0.68
  -1 -11   3   14.46    0.73
  -1 -11   3   14.28    0.75
   1 -11  -3   13.42    0.61
   1  11  -3   13.25    0.90
  -1  11   3   13.32    0.76
   1  11  -3   14.09    0.89
  -1  11   3   13.47    0.73
   1  11  -3   13.29    0.83
   0 -11   3    0.69    0.35
   0 -11  -3    1.22    0.23
   0 -11  -3    1.64    0.30
   0 -11   3    1.06    0.30
   0  11  -3    1.38    0.32
   0  11   3    1.78    0.36
   0  11  -3    1.62    0.33
   0  11   3    1.42    0.35
   0  11  -3    0.99    0.40
  -1 -11  -3    1.56    0.34
   1 -11   3    1.97    0.28
  -1 -11  -3    1.90    0.29
   1 -11   3    0.92    0.37
   1  11   3    1.71    0.40
   1  11   3    2.18    0.43
  -1  11  -3    2.06    0.44
   2 -11   3   19.25    0.92
  -2 -11  -3   19.34    0.90
   2 -11   3   18.51    0.83
  -2 -11  -3   19.00    0.83
  -2  11  -3   18.75    1.02
   2  11   3   17.87    1.00
   2  11   3   18.87    1.01
  -3 -11  -3   13.06    0.78
  -3 -11  -3   13.18    0.71
   3 -11   3   13.68    0.69
   3 -11   3   13.76    0.81
   3  11   3   13.44    0.87
   3  11   3   12.69    0.80
  -3  11  -3   12.31    0.82
  -4 -11  -3    3.12    0.37
   4 -11   3    3.61    0.38
  -4 -11  -3    3.89    0.49
   4 -11   3    4.32    0.49
   4  11   3    3.20    0.52
  -4  11  -3    3.75    0.49
   4  11   3    4.21    0.53
  -5 -11  -3    0.98    0.40
  -5 -11  -3    1.16    0.35
   5 -11   3    0.34    0.35
   5  11   3    1.01    0.46
   5  11   3    1.25    0.43
   6 -11   3    1.61    0.42
  -6 -11  -3    1.56    0.45
  -6 -11  -3    2.07    0.36
   6  11   3    2.23    0.62
   6  11   3    1.95    0.53
   7 -11   3    1.30    0.39
  -7 -11  -3    1.39    0.41
   7  11   3    0.48    0.56
   7  11   3    0.54    0.39
   8 -11   3   -0.11    0.35
  -8 -11  -3    0.00    0.28
   8  11   3    0.72    0.52
   8  11   3    0.64    0.60
   9 -11   3   -0.16    0.37
  -9 -11  -3   -0.23    0.42
   9  11   3    0.33    0.47
   9  11   3    0.46    0.55
  10 -11   3   -0.45    0.43
 -10 -11  -3    0.41    0.34
  10  11   3    1.10    0.71
  10  11   3    0.65    0.41
  10  12  -3    0.79    0.52
  -9 -12   3   -0.31    0.29
  -9 -12   3    0.40    0.34
   9  12  -3    0.64    0.55
   9  12  -3   -0.18    0.48
   9  12  -3    0.18    0.47
  -8 -12   3    1.13    0.46
   8 -12  -3    0.71    0.24
  -8 -12   3    0.39    0.42
   8  12  -3    0.27    0.45
   8  12  -3    0.67    0.39
   8  12  -3    0.24    0.62
  -7 -12   3    2.66    0.50
   7 -12  -3    1.86    0.27
  -7 -12   3    1.42    0.39
   7  12  -3    1.29    0.50
   7  12  -3    1.58    0.44
   7  12  -3    1.42    0.52
  -7  12   3    2.25    0.28
  -6 -12   3   -0.19    0.33
  -6 -12   3    0.04    0.38
   6 -12  -3    0.09    0.19
   6  12  -3    0.70    0.46
  -6  12   3   -0.17    0.20
   6  12  -3   -0.21    0.36
   6  12  -3   -0.33    0.34
  -5 -12   3   -0.16    0.25
   5 -12  -3    0.00    0.20
  -5 -12   3   -1.08    0.29
  -5  12   3   -0.14    0.22
   5  12  -3   -0.46    0.44
   5  12  -3   -0.34    0.27
   5  12  -3   -0.18    0.34
  -4 -12   3    0.06    0.26
   4 -12  -3    0.04    0.21
  -4 -12   3   -0.41    0.20
   4  12  -3   -0.42    0.42
  -4  12   3   -0.17    0.22
   4  12  -3   -0.13    0.41
   4  12  -3   -0.51    0.25
  -3 -12   3   -0.02    0.22
  -3 -12   3   -0.33    0.34
   3 -12  -3   -0.19    0.18
   3  12  -3   -0.41    0.35
   3  12  -3   -0.73    0.40
   3  12  -3   -0.10    0.37
  -3  12   3    0.25    0.23
   2 -12  -3    0.23    0.22
  -2 -12   3    0.32    0.27
  -2 -12   3    0.11    0.21
  -2  12   3    0.04    0.28
   2  12  -3    0.51    0.36
   2  12  -3    0.51    0.30
   2  12  -3    0.10    0.44
  -1 -12   3   -0.14    0.33
   1 -12  -3    0.34    0.25
  -1 -12   3    0.38    0.22
  -1  12   3   -0.30    0.27
   1  12  -3    0.22    0.32
   1  12  -3   -0.08    0.25
   1  12  -3    0.22    0.30
   0 -12  -3   19.39    0.81
   0 -12   3   19.09    0.98
   0 -12  -3   19.24    0.90
   0 -12   3   17.86    0.84
   0  12  -3   16.67    1.00
   0  12  -3   18.42    1.02
   0  12   3   18.77    0.95
   0  12  -3   20.16    1.03
   0  12   3   16.30    0.95
  -1 -12  -3    1.07    0.22
  -1 -12  -3    1.05    0.27
   1 -12   3    0.73    0.36
   1 -12   3    1.22    0.26
  -1  12  -3    1.38    0.43
   1  12   3    1.25    0.40
  -1  12  -3    0.46    0.37
   1  12   3    1.22    0.39
  -2 -12  -3   13.78    0.71
  -2 -12  -3   13.00    0.73
   2 -12   3   13.93    0.82
   2 -12   3   13.62    0.67
   2  12   3   12.33    0.89
  -2  12  -3   13.19    0.86
   2  12   3   13.76    0.89
  -3 -12  -3   10.38    0.63
   3 -12   3    9.94    0.71
   3 -12   3   10.17    0.59
  -3 -12  -3    8.79    0.62
   3  12   3    8.45    0.68
   3  12   3    8.29    0.72
  -3  12  -3    7.98    0.71
  -4 -12  -3    0.24    0.22
  -4 -12  -3   -0.02    0.26
   4 -12   3    0.23    0.37
   4  12   3    0.70    0.44
   4  12   3    0.23    0.32
  -5 -12  -3    0.38    0.32
   5 -12   3   -0.57    0.31
  -5 -12  -3    0.10    0.28
   5  12   3    0.54    0.39
   5  12   3    0.04    0.43
   6 -12   3    0.43    0.35
  -6 -12  -3    0.02    0.28
  -6 -12  -3    0.68    0.36
   6  12   3    0.24    0.51
   6  12   3    0.50    0.38
   7 -12   3    0.10    0.35
  -7 -12  -3   -0.23    0.25
   7  12   3    0.53    0.57
   7  12   3   -0.47    0.46
   8 -12   3   -0.14    0.37
  -8 -12  -3   -0.07    0.40
   8  12   3   -0.46    0.52
   8  12   3   -0.14    0.50
   9 -12   3   -0.11    0.43
  -9 -12  -3   -0.15    0.31
   9  12   3    0.28    0.49
   9  12   3    0.29    0.40
  -9 -13   3   -0.36    0.32
  -9 -13   3   -0.61    0.43
   9  13  -3   -0.03    0.51
   9  13  -3    0.97    0.72
  -8 -13   3    2.30    0.55
  -8 -13   3    1.88    0.43
   8  13  -3    1.83    0.61
   8  13  -3    2.35    0.62
   8  13  -3    3.07    0.79
  -7 -13   3    0.34    0.31
   7 -13  -3    0.28    0.24
  -7 -13   3    0.44    0.33
   7  13  -3   -0.39    0.30
   7  13  -3   -0.92    0.54
   7  13  -3   -0.26    0.54
  -6 -13   3   -0.01    0.40
   6 -13  -3    0.30    0.24
  -6 -13   3    0.02    0.27
   6  13  -3    0.69    0.38
   6  13  -3    0.07    0.55
  -6  13   3    0.43    0.24
   6  13  -3    0.35    0.45
  -5 -13   3   -0.50    0.23
   5 -13  -3   -0.53    0.20
  -5 -13   3   -0.21    0.27
   5  13  -3   -0.27    0.34
   5  13  -3   -0.04    0.36
  -5  13   3   -0.19    0.23
   5  13  -3   -0.45    0.40
  -4 -13   3    2.04    0.41
  -4 -13   3    1.69    0.35
   4 -13  -3    2.10    0.31
   4  13  -3    2.35    0.61
  -4  13   3    2.29    0.36
   4  13  -3    1.67    0.51
   4  13  -3    1.91    0.58
  -3 -13   3    0.31    0.25
   3 -13  -3    0.60    0.25
  -3 -13   3   -0.11    0.38
   3  13  -3    0.03    0.43
   3  13  -3    0.55    0.49
  -3  13   3    0.56    0.27
   3  13  -3    0.27    0.43
  -2 -13   3    4.83    0.51
  -2 -13   3    5.18    0.45
   2 -13  -3    5.51    0.46
   2  13  -3    4.73    0.56
   2  13  -3    4.29    0.60
   2  13  -3    4.28    0.61
  -2  13   3    4.74    0.48
  -1 -13   3   -0.09    0.34
  -1 -13   3    0.23    0.22
   1 -13  -3    0.40    0.26
   1  13  -3    0.12    0.40
   1  13  -3    0.52    0.31
  -1  13   3    0.63    0.30
   1  13  -3   -0.34    0.31
   0 -13   3    2.18    0.37
   0 -13  -3    2.28    0.38
   0 -13   3    1.93    0.37
   0  13  -3    2.79    0.44
   0  13  -3    2.44    0.53
   0  13   3    2.78    0.46
   1 -13   3    4.48    0.53
   1 -13   3    4.52    0.47
  -1 -13  -3    5.08    0.50
  -1  13  -3    4.29    0.61
   1  13   3    4.13    0.50
  -1  13  -3    4.42    0.51
   2 -13   3    5.37    0.49
   2 -13   3    3.82    0.52
  -2 -13  -3    4.20    0.44
  -2 -13  -3    4.77    0.52
  -2  13  -3    3.31    0.53
   2  13   3    3.66    0.56
   2  13   3    4.11    0.59
  -2  13  -3    4.32    0.50
  -3 -13  -3    2.49    0.39
   3 -13   3    2.06    0.45
  -3 -13  -3    1.70    0.42
   3  13   3    3.00    0.54
   3  13   3    2.89    0.56
   4 -13   3    5.00    0.56
  -4 -13  -3    5.82    0.49
  -4 -13  -3    6.36    0.56
   4  13   3    6.18    0.75
   4  13   3    4.37    0.59
  -5 -13  -3    0.69    0.33
  -5 -13  -3    0.30    0.34
   5 -13   3    0.93    0.32
   5  13   3    1.27    0.52
   5  13   3    2.37    0.58
  -6 -13  -3    0.20    0.36
  -6 -13  -3   -0.12    0.30
   6 -13   3    0.82    0.40
   6  13   3   -0.80    0.46
   6  13   3   -0.22    0.34
  -7 -13  -3    0.94    0.34
   7 -13   3    1.18    0.42
   7  13   3    0.74    0.60
   7  13   3    0.35    0.53
   8 -13   3    0.48    0.41
  -8 -13  -3    0.24    0.42
   8  13   3    0.45    0.61
   8  13   3    0.39    0.51
  -9 -13  -3   -0.02    0.32
  -8 -14   3    0.51    0.53
  -8 -14   3    0.07    0.45
   8  14  -3    0.68    0.53
   8  14  -3   -0.19    0.69
   8  14  -3    1.10    0.58
  -7 -14   3   -0.83    0.40
  -7 -14   3   -0.12    0.44
   7 -14  -3   -0.36    0.23
   7  14  -3   -1.01    0.38
   7  14  -3    0.68    0.52
   7  14  -3   -0.41    0.53
  -6 -14   3    0.34    0.33
   6 -14  -3    0.48    0.26
  -6 -14   3    0.45    0.42
   6  14  -3   -0.74    0.44
   6  14  -3    0.27    0.59
   6  14  -3   -0.69    0.53
  -6  14   3    0.47    0.26
   5 -14  -3    0.69    0.28
  -5 -14   3    0.07    0.39
  -5 -14   3    1.52    0.48
   5  14  -3   -0.23    0.52
   5  14  -3   -0.13    0.40
  -5  14   3    0.57    0.28
   5  14  -3    1.08    0.52
   4 -14  -3    0.35    0.28
  -4 -14   3    0.17    0.43
  -4 -14   3    0.74    0.31
   4  14  -3    0.58    0.43
  -4  14   3    0.89    0.30
   4  14  -3    1.18    0.55
   4  14  -3    0.60    0.46
  -3 -14   3    0.65    0.28
   3 -14  -3    0.70    0.28
  -3 -14   3    1.32    0.37
  -3  14   3    0.88    0.30
   3  14  -3    0.69    0.37
   3  14  -3    0.34    0.47
   3  14  -3    0.79    0.53
   2 -14  -3    1.96    0.34
  -2 -14   3    1.71    0.33
  -2 -14   3    1.16    0.35
   2  14  -3    1.06    0.47
  -2  14   3    1.68    0.38
   2  14  -3    1.80    0.47
   2  14  -3    1.79    0.43
  -1 -14   3   -0.21    0.36
   1 -14  -3   -0.28    0.25
  -1 -14   3    0.22    0.31
   1  14  -3   -0.18    0.27
  -1  14   3    0.27    0.33
   1  14  -3   -0.55    0.32
   1  14  -3   -0.38    0.40
   0 -14   3    0.52    0.40
   0 -14  -3    0.79    0.26
   0 -14   3    0.37    0.30
   0  14  -3    0.62    0.45
   0  14  -3    0.29    0.41
   0  14   3    0.09    0.34
  -1 -14  -3    2.16    0.42
   1 -14   3    2.36    0.47
   1 -14   3    2.01    0.32
  -1  14  -3    2.67    0.51
   1  14   3    1.69    0.46
   2 -14   3    5.06    0.58
  -2 -14  -3    4.81    0.56
   2  14   3    4.51    0.55
  -2  14  -3    5.51    0.65
   3 -14   3    0.57    0.38
  -3 -14  -3    0.43    0.39
   3  14   3    0.46    0.46
  -3  14  -3    0.43    0.29
  -4 -14  -3    0.95    0.43
   4 -14   3    1.05    0.41
  -4 -14  -3    0.71    0.35
   4  14   3    0.97    0.41
   4  14   3    0.99    0.53
  -5 -14  -3    1.49    0.42
   5 -14   3    2.10    0.44
  -5 -14  -3    1.10    0.37
   5  14   3    2.77    0.61
   5  14   3    2.11    0.59
  -6 -14  -3   -0.64    0.28
   6 -14   3    0.42    0.40
  -6 -14  -3   -0.45    0.25
   6  14   3    0.01    0.50
   6  14   3    0.41    0.39
   7 -14   3    0.35    0.41
  -7 -14  -3   -0.75    0.25
   7  14   3    0.48    0.57
   7  14   3   -0.32    0.51
  -8 -14  -3    2.05    0.53
   8  14   3    2.01    0.59
  -7 -15   3   -0.23    0.51
  -7 -15   3   -0.09    0.31
   7  15  -3    0.01    0.38
   7  15  -3   -0.74    0.64
   7  15  -3   -0.80    0.37
  -6 -15   3   -0.37    0.30
   6 -15  -3   -0.43    0.24
  -6 -15   3   -0.13    0.47
   6  15  -3    0.25    0.56
   6  15  -3    0.02    0.38
   6  15  -3   -1.44    0.52
  -5 -15   3   -0.04    0.41
   5 -15  -3   -0.38    0.25
  -5 -15   3    0.54    0.46
  -5  15   3    0.10    0.28
   5  15  -3    0.34    0.57
   5  15  -3   -1.29    0.47
   5  15  -3    0.10    0.35
  -4 -15   3    2.57    0.49
   4 -15  -3    1.57    0.33
  -4 -15   3    1.33    0.40
   4  15  -3    1.89    0.55
   4  15  -3    1.56    0.46
  -4  15   3    1.61    0.38
   4  15  -3    1.59    0.50
   3 -15  -3    4.20    0.48
  -3 -15   3    4.51    0.56
  -3 -15   3    4.90    0.51
   3  15  -3    4.38    0.66
   3  15  -3    4.63    0.62
   3  15  -3    5.49    0.80
  -3  15   3    5.95    0.56
  -2 -15   3    3.30    0.54
  -2 -15   3    2.98    0.47
   2 -15  -3    3.35    0.43
   2  15  -3    2.49    0.59
   2  15  -3    3.29    0.53
  -2  15   3    3.05    0.47
   2  15  -3    3.08    0.65
  -1 -15   3    0.08    0.40
   1 -15  -3   -0.19    0.26
  -1 -15   3   -0.05    0.31
   1  15  -3    0.17    0.43
  -1  15   3   -0.13    0.32
   1  15  -3    0.20    0.33
   0 -15   3   -0.50    0.37
   0 -15  -3   -0.15    0.31
   0  15  -3    0.03    0.43
   0  15   3   -0.12    0.35
  -1 -15  -3    0.02    0.34
   1 -15   3    0.39    0.43
  -1  15  -3    0.03    0.31
   1  15   3    0.06    0.37
  -2 -15  -3   -0.33    0.24
   2 -15   3    0.23    0.31
  -2  15  -3    0.13    0.42
   2  15   3    0.67    0.45
  -3 -15  -3    0.57    0.43
   3 -15   3    0.94    0.42
   3  15   3    0.48    0.46
  -3  15  -3    0.41    0.40
  -4 -15  -3    1.56    0.48
   4 -15   3    0.89    0.42
   4  15   3    0.63    0.52
  -4  15  -3    0.68    0.42
   5 -15   3    1.58    0.44
  -5 -15  -3    1.07    0.39
   5  15   3    1.73    0.59
  -6 -15  -3   -0.08    0.35
   6 -15   3    0.06    0.40
   6  15   3    0.93    0.45
  -6 -16   3   -0.08    0.32
   6 -16  -3   -0.12    0.27
  -6 -16   3    0.30    0.41
   6  16  -3   -0.29    0.41
   6  16  -3   -1.03    0.61
   5 -16  -3   -0.36    0.28
  -5 -16   3    0.01    0.38
  -5 -16   3   -0.02    0.30
   5  16  -3   -0.77    0.54
   5  16  -3   -0.06    0.55
  -5  16   3    0.14    0.29
   5  16  -3    0.17    0.52
  -4 -16   3    4.33    0.65
   4 -16  -3    3.63    0.46
  -4 -16   3    4.84    0.61
   4  16  -3    3.04    0.74
   4  16  -3    3.06    0.65
   4  16  -3    3.47    0.66
  -4  16   3    3.95    0.49
  -3 -16   3   -0.20    0.26
  -3 -16   3    0.33    0.46
   3 -16  -3   -0.11    0.32
  -3  16   3   -0.06    0.33
   3  16  -3    0.10    0.37
   3  16  -3    0.26    0.50
   3  16  -3   -0.45    0.49
  -2 -16   3    0.43    0.46
   2 -16  -3    0.42    0.32
   2  16  -3    1.24    0.53
  -2  16   3    0.91    0.38
  -1 -16   3    0.45    0.34
   1 -16  -3    0.51    0.34
  -1  16   3   -0.04    0.36
   1  16  -3    0.93    0.51
   0 -16  -3    1.93    0.43
   0 -16   3    1.73    0.41
   0  16  -3    1.91    0.44
   0  16   3    1.89    0.48
   1 -16   3    0.41    0.40
  -1 -16  -3    0.46    0.29
   1  16   3   -0.28    0.40
  -1  16  -3    0.15    0.44
  -2 -16  -3    0.92    0.42
   2 -16   3    1.23    0.46
   2  16   3    0.86    0.39
  -2  16  -3    0.36    0.33
   3 -16   3    0.98    0.42
  -3 -16  -3    0.67    0.34
  -3  16  -3    0.40    0.43
   3  16   3    0.11    0.47
  -4 -16  -3    0.05    0.45
   4 -16   3    0.88    0.44
  -4  16  -3    0.72    0.44
   4  16   3    0.73    0.54
  -5  16  -3    0.30    0.41
   4 -17  -3    0.33    0.34
  -4  17   3    0.64    0.31
   3 -17  -3    0.42    0.33
  -3  17   3    0.51    0.38
  -2 -17   3    0.52    0.49
   2 -17  -3   -0.18    0.32
  -2  17   3    0.54    0.37
   2  17  -3   -0.47    0.47
   1 -17  -3    0.86    0.40
  -1 -17   3    0.02    0.34
  -1  17   3    0.35    0.38
   1  17  -3    0.95    0.54
   0 -17   3    0.25    0.44
   0 -17  -3   -0.25    0.34
   0  17   3    0.05    0.41
   0  17  -3    0.38    0.47
  -1 -17  -3    0.04    0.39
   1 -17   3   -0.22    0.42
  -1  17  -3   -0.47    0.41
   1  17   3    0.32    0.46
   2 -17   3    1.21    0.38
  -2  17  -3    1.28    0.53
   2  17   3    0.44    0.50
  13   0  -4    0.70    0.42
 -13   0   4   -0.13    0.28
  13   0  -4    0.28    0.43
 -12   0   4    4.56    0.42
  12   0  -4    3.94    0.63
  12   0  -4    4.63    0.59
  11   0  -4    0.46    0.34
  11   0  -4    0.77    0.36
 -11   0   4    0.20    0.26
  10   0  -4   10.60    0.86
 -10   0   4   11.12    0.56
  10   0  -4   11.18    0.75
   9   0  -4    0.16    0.32
   9   0  -4   -0.17    0.29
  -9   0   4   -0.07    0.19
   8   0  -4    4.02    0.31
   8   0  -4    3.08    0.47
  -8   0   4    3.64    0.31
   8   0  -4    3.32    0.41
  -8   0   4    4.32    0.34
   7   0  -4    0.31    0.21
   7   0  -4    0.09    0.12
   7   0  -4    0.43    0.24
   7   0  -4   -0.12    0.12
  -7   0   4    0.15    0.15
  -7   0   4    0.19    0.13
   6   0  -4   19.32    0.98
   6   0  -4   20.29    0.77
  -6   0   4   20.78    0.78
  -6   0   4   19.84    0.73
   6   0  -4   18.59    0.84
   6   0  -4   19.09    0.74
   5   0  -4   -0.10    0.12
  -5   0   4    0.12    0.10
   5   0  -4    0.00    0.07
   5   0  -4    0.02    0.13
   5   0  -4    0.15    0.10
   4   0  -4   79.39    2.64
   4   0  -4   79.42    2.51
   4   0  -4   75.48    3.00
  -4   0   4   77.19    2.51
   4   0  -4   77.93    2.69
   4   0  -4   74.70    2.53
  -3   0   4   -0.08    0.02
   3   0  -4   -0.08    0.09
   3   0  -4   -0.11    0.07
   3   0  -4   -0.19    0.08
  -3   0   4   -0.12    0.06
   3   0  -4   -0.09    0.06
   3   0  -4   -0.10    0.05
  -2   0   4  308.38    9.91
  -2   0   4  307.96   10.40
   2   0  -4  320.73   10.42
  -2   0   4  312.40    9.90
   2   0  -4  308.75    9.90
  -1   0   4   -0.03    0.07
   1   0  -4   -0.04    0.06
   1   0  -4   -0.05    0.05
  -1   0   4   -0.04    0.06
   1   0  -4    0.11    0.07
  -1   0   4   -0.03    0.06
   0   0  -4  283.07    8.74
   0   0   4  274.49    9.20
   0   0   4  269.21    8.74
   0   0  -4  270.84    9.21
   0   0  -4  271.82    8.74
   0   0   4  274.86    8.73
  -1   0  -4    0.16    0.10
  -1   0  -4    0.05    0.07
  -1   0  -4    0.00    0.10
   1   0   4    0.12    0.14
   1   0   4   -0.01    0.08
   1   0   4    0.02    0.09
  -2   0  -4  186.32    6.22
   2   0   4  198.23    6.20
   2   0   4  199.40    6.23
   2   0   4  193.31    6.58
  -2   0  -4  184.13    6.57
  -2   0  -4  195.12    6.21
   3   0   4    0.16    0.13
   3   0   4    0.05    0.16
  -3   0  -4    0.09    0.12
  -3   0  -4    0.02    0.11
  -4   0  -4    1.77    0.21
   4   0   4    1.36    0.25
  -4   0  -4    1.58    0.22
   4   0   4    1.65    0.28
   5   0   4   -0.40    0.19
  -5   0  -4   -0.29    0.18
   5   0   4   -0.09    0.15
  -6   0  -4   11.66    0.61
   6   0   4   11.01    0.71
   6   0   4   11.54    0.66
   7   0   4   -0.59    0.26
  -7   0  -4   -0.56    0.25
   7   0   4   -0.10    0.21
   8   0   4   15.21    1.01
   8   0   4   15.26    0.83
  -8   0  -4   13.78    0.72
  -9   0  -4   -0.46    0.20
   9   0   4   -0.78    0.28
   9   0   4   -0.66    0.30
 -10   0  -4    5.53    0.57
  10   0   4    6.66    0.76
  10   0   4    7.22    0.66
 -11   0  -4   -0.12    0.37
  11   0   4    0.09    0.55
  12   0   4    0.56    0.60
 -12   0  -4    0.22    0.39
 -13  -1   4    0.09    0.28
  13  -1  -4    0.61    0.37
  13   1  -4    0.47    0.47
 -13   1   4    0.59    0.28
  13   1  -4   -0.13    0.41
 -12  -1   4    4.31    0.46
  12  -1  -4    5.26    0.59
  12  -1  -4    5.25    0.68
  12   1  -4    4.06    0.63
  12   1  -4    5.72    0.67
 -12   1   4    4.55    0.41
 -11  -1   4    1.65    0.30
  11  -1  -4    2.41    0.43
  11  -1  -4    1.91    0.45
  11   1  -4    1.82    0.40
 -11   1   4    1.83    0.26
  11   1  -4    1.60    0.47
  10  -1  -4    2.59    0.49
 -10  -1   4    3.17    0.34
  10  -1  -4    3.22    0.44
  10   1  -4    3.65    0.54
 -10   1   4    3.55    0.33
  10   1  -4    3.21    0.49
   9  -1  -4    1.59    0.34
   9  -1  -4    1.46    0.33
  -9  -1   4    2.04    0.28
   9   1  -4    1.69    0.42
   9   1  -4    2.18    0.41
  -9   1   4    2.16    0.26
  -8  -1   4    2.94    0.32
   8  -1  -4    2.09    0.33
   8  -1  -4    2.29    0.40
  -8  -1   4    2.46    0.26
   8  -1  -4    2.55    0.23
   8   1  -4    2.05    0.43
   8   1  -4    2.78    0.40
  -8   1   4    2.97    0.26
  -8   1   4    3.01    0.28
   8   1  -4    2.02    0.26
   7  -1  -4    8.39    0.41
   7  -1  -4    9.86    0.66
  -7  -1   4   10.11    0.50
   7  -1  -4    7.34    0.52
  -7  -1   4   10.19    0.46
   7  -1  -4    8.74    0.43
   7   1  -4    8.08    0.63
  -7   1   4    9.26    0.41
   7   1  -4    9.69    0.46
   7   1  -4    9.71    0.48
  -7   1   4    8.49    0.45
   7   1  -4    8.61    0.57
  -6  -1   4   26.81    0.98
   6  -1  -4   27.45    1.00
  -6  -1   4   27.93    1.04
   6  -1  -4   28.35    1.25
   6  -1  -4   26.35    0.96
   6  -1  -4   26.58    1.08
   6   1  -4   28.51    1.04
  -6   1   4   27.93    0.95
   6   1  -4   26.10    1.29
   6   1  -4   27.51    1.15
  -6   1   4   27.83    0.99
   6   1  -4   27.39    1.02
   5  -1  -4    5.83    0.33
   5  -1  -4    6.05    0.27
  -5  -1   4    5.90    0.30
   5  -1  -4    6.23    0.28
   5  -1  -4    6.23    0.25
  -5  -1   4    6.19    0.30
   5  -1  -4    6.08    0.42
   5   1  -4    5.95    0.47
   5   1  -4    6.21    0.31
   5   1  -4    5.83    0.39
  -5   1   4    5.84    0.26
   5   1  -4    5.70    0.32
  -4  -1   4    1.83    0.16
   4  -1  -4    1.32    0.20
  -4  -1   4    1.63    0.15
   4  -1  -4    1.64    0.12
   4  -1  -4    1.66    0.17
   4  -1  -4    1.90    0.12
   4  -1  -4    1.71    0.11
   4   1  -4    1.69    0.17
   4   1  -4    1.85    0.16
   4   1  -4    1.93    0.27
   4   1  -4    2.00    0.22
  -4   1   4    1.66    0.12
  -3  -1   4   29.31    1.04
   3  -1  -4   28.41    1.01
   3  -1  -4   29.10    0.95
   3  -1  -4   28.42    0.96
  -3  -1   4   29.35    1.00
   3   1  -4   30.51    1.10
   3   1  -4   28.96    1.02
   3   1  -4   29.27    1.05
   3   1  -4   29.43    0.99
   3   1  -4   28.15    1.22
  -3   1   4   28.83    0.96
  -2  -1   4   42.10    1.48
  -2  -1   4   42.27    1.41
   2  -1  -4   42.75    1.38
   2  -1  -4   42.03    1.46
   2   1  -4   43.21    1.49
  -2   1   4   42.85    1.38
   2   1  -4   42.25    1.41
   2   1  -4   43.67    1.69
  -2   1   4   40.71    1.44
  -1  -1   4   12.24    0.47
  -1  -1   4   11.65    0.48
   1  -1  -4   12.22    0.44
   1  -1  -4   11.59    0.47
  -1  -1   4   11.83    0.45
   1  -1  -4   11.97    0.43
   1   1  -4   12.55    0.49
  -1   1   4   11.92    0.44
  -1   1   4   12.02    0.43
   1   1  -4   11.61    0.45
  -1   1   4   12.45    0.46
   0  -1   4    3.66    0.25
   0  -1  -4    3.88    0.23
   0  -1   4    4.10    0.21
   0  -1  -4    3.93    0.20
   0  -1   4    3.74    0.21
   0  -1  -4    3.88    0.21
   0   1   4    3.80    0.20
   0   1   4    4.05    0.24
   0   1   4    3.81    0.22
   0   1  -4    3.90    0.23
   0   1  -4    3.88    0.20
   0   1  -4    3.72    0.22
  -1  -1  -4   13.04    0.52
   1  -1   4   13.61    0.58
   1  -1   4   13.10    0.52
  -1  -1  -4   12.80    0.58
   1  -1   4   12.94    0.50
  -1  -1  -4   13.48    0.51
   1   1   4   13.31    0.58
  -1   1  -4   12.30    0.55
   1   1   4   13.35    0.50
  -1   1  -4   12.70    0.52
  -1   1  -4   13.10    0.52
   1   1   4   12.58    0.52
   2  -1   4    0.27    0.15
  -2  -1  -4    0.45    0.11
  -2  -1  -4    0.61    0.19
   2  -1   4    0.37    0.11
  -2  -1  -4    0.60    0.13
   2  -1   4    0.47    0.16
  -2   1  -4    0.62    0.13
  -2   1  -4    0.54    0.15
  -2   1  -4    0.18    0.14
   2   1   4    0.51    0.13
   2   1   4    0.71    0.22
   2   1   4    0.46    0.17
   3  -1   4   46.18    1.56
  -3  -1  -4   43.70    1.52
   3  -1   4   43.43    1.66
  -3  -1  -4   44.00    1.76
  -3   1  -4   42.80    1.52
   3   1   4   42.25    1.68
   3   1   4   43.05    1.55
  -3   1  -4   44.63    1.71
  -4  -1  -4   23.82    0.94
   4  -1   4   24.36    1.06
   4  -1   4   24.28    0.96
  -4   1  -4   24.67    1.05
   4   1   4   24.95    0.98
  -4   1  -4   25.10    0.95
   4   1   4   25.21    1.12
   5  -1   4    1.20    0.26
  -5  -1  -4    0.97    0.23
   5  -1   4    1.12    0.28
   5   1   4    0.73    0.33
  -5   1  -4    1.17    0.24
   5   1   4    1.34    0.24
  -5   1  -4    1.04    0.20
  -6  -1  -4    2.23    0.32
   6  -1   4    2.65    0.35
   6  -1   4    2.62    0.44
   6   1   4    2.44    0.48
  -6   1  -4    2.79    0.33
   6   1   4    2.84    0.38
   7  -1   4    9.23    0.65
   7  -1   4   10.63    0.82
  -7  -1  -4   10.50    0.64
  -7   1  -4   10.66    0.62
   7   1   4   10.49    0.76
   7   1   4   11.00    0.70
  -8  -1  -4    5.54    0.46
   8  -1   4    6.34    0.49
   8  -1   4    6.36    0.71
   8   1   4    6.54    0.53
  -8   1  -4    6.57    0.54
   8   1   4    6.00    0.73
   9  -1   4    0.98    0.29
  -9  -1  -4    1.13    0.30
   9  -1   4    1.00    0.39
   9   1   4    0.48    0.36
   9   1   4    0.06    0.37
  -9   1  -4    0.64    0.26
 -10  -1  -4    2.76    0.40
  10  -1   4    3.18    0.49
  10  -1   4    1.94    0.61
  10   1   4    3.02    0.50
 -10   1  -4    2.47    0.38
  10   1   4    2.62    0.57
  11  -1   4    0.42    0.54
 -11  -1  -4   -0.13    0.26
 -11   1  -4   -0.50    0.33
  11   1   4    0.57    0.44
  12  -1   4    1.52    0.61
 -12  -1  -4    0.41    0.32
 -12   1  -4    0.63    0.41
  12   1   4    1.35    0.64
 -13  -2   4   -0.75    0.30
  13  -2  -4    0.50    0.32
 -13   2   4   -0.21    0.24
  13   2  -4    0.14    0.46
  13   2  -4   -0.27    0.37
  12  -2  -4    0.21    0.29
 -12  -2   4    0.20    0.28
  12  -2  -4    0.69    0.37
  12   2  -4    0.51    0.42
  12   2  -4    0.22    0.44
 -12   2   4    0.74    0.26
 -11  -2   4   14.93    0.78
  11  -2  -4   14.84    1.01
  11  -2  -4   15.33    0.87
 -11   2   4   14.61    0.69
  11   2  -4   14.21    0.99
  11   2  -4   14.14    1.09
  10  -2  -4   11.33    0.85
  10  -2  -4   11.85    0.71
 -10  -2   4   12.13    0.63
  10   2  -4   10.15    0.82
 -10   2   4   11.66    0.55
  10   2  -4   11.33    0.87
   9  -2  -4    3.67    0.48
  -9  -2   4    3.35    0.33
   9  -2  -4    2.87    0.38
   9   2  -4    3.13    0.48
   9   2  -4    2.36    0.43
   9   2  -4    3.24    0.36
  -9   2   4    2.82    0.26
   8  -2  -4    1.49    0.27
   8  -2  -4    1.67    0.35
  -8  -2   4    1.57    0.24
  -8   2   4    1.42    0.19
  -8   2   4    1.48    0.21
   8   2  -4    0.94    0.34
   8   2  -4    1.59    0.27
   8   2  -4    1.41    0.34
  -7  -2   4    1.29    0.21
   7  -2  -4    0.98    0.27
  -7  -2   4    1.72    0.26
   7  -2  -4    1.17    0.13
   7  -2  -4    1.32    0.17
   7  -2  -4    1.22    0.22
   7   2  -4    1.67    0.22
   7   2  -4    0.56    0.26
  -7   2   4    1.48    0.17
   7   2  -4    1.09    0.22
   7   2  -4    1.43    0.32
   6  -2  -4    8.62    0.44
   6  -2  -4    8.79    0.37
   6  -2  -4    8.25    0.34
  -6  -2   4    8.94    0.42
   6  -2  -4    8.91    0.57
  -6  -2   4    9.61    0.48
  -6  -2   4    8.72    0.41
   6   2  -4    7.85    0.63
   6   2  -4    8.26    0.45
   6   2  -4    8.94    0.44
   6   2  -4    7.79    0.54
  -6   2   4    8.83    0.35
  -5  -2   4   36.20    1.28
   5  -2  -4   36.30    1.27
   5  -2  -4   38.36    1.19
   5  -2  -4   37.61    1.32
  -5  -2   4   35.27    1.32
   5  -2  -4   37.51    1.55
   5  -2  -4   34.94    1.19
   5   2  -4   36.24    1.44
  -5   2   4   37.17    1.20
   5   2  -4   36.35    1.32
   5   2  -4   37.63    1.35
   5   2  -4   36.25    1.61
   4  -2  -4    8.82    0.32
  -4  -2   4    8.12    0.38
   4  -2  -4    8.98    0.35
  -4  -2   4    8.26    0.39
   4   2  -4    8.80    0.40
   4   2  -4    7.84    0.52
   4   2  -4    8.20    0.41
  -4   2   4    8.89    0.30
   4   2  -4    8.26    0.45
   3  -2  -4   26.97    0.94
  -3  -2   4   27.14    1.01
  -3  -2   4   27.56    0.97
   3   2  -4   28.19    1.02
  -3   2   4   26.26    0.89
   3   2  -4   26.69    1.19
   3   2  -4   27.47    1.00
  -3   2   4   28.40    0.89
   3   2  -4   28.39    1.08
   2  -2  -4   46.46    1.62
  -2  -2   4   47.85    1.59
  -2  -2   4   47.11    1.67
   2  -2  -4   47.82    1.53
   2   2  -4   49.00    1.68
  -2   2   4   47.27    1.53
   2   2  -4   47.28    1.88
   2   2  -4   47.33    1.59
   1  -2  -4    2.36    0.16
  -1  -2   4    2.62    0.19
   1  -2  -4    2.21    0.14
  -1  -2   4    2.32    0.17
  -1  -2   4    2.25    0.16
   1  -2  -4    2.24    0.13
   1   2  -4    2.21    0.15
  -1   2   4    2.39    0.13
  -1   2   4    2.03    0.12
   1   2  -4    2.05    0.19
  -1   2   4    2.32    0.14
   1   2  -4    2.00    0.18
   0  -2   4    0.22    0.11
   0  -2  -4    0.44    0.12
   0  -2   4    0.35    0.11
   0  -2   4    0.25    0.13
   0  -2  -4    0.39    0.10
   0  -2  -4    0.24    0.08
   0   2   4    0.40    0.08
   0   2   4    0.39    0.10
   0   2  -4    0.41    0.09
   0   2  -4    0.29    0.10
   0   2   4    0.42    0.12
   0   2  -4    0.39    0.10
   1  -2   4   91.45    2.96
  -1  -2  -4   85.82    3.15
   1  -2   4   92.36    2.97
  -1  -2  -4   90.09    2.98
  -1  -2  -4   92.48    2.95
   1  -2   4   92.00    3.14
   1   2   4   88.26    3.15
   1   2   4   93.41    2.95
  -1   2  -4   88.94    3.13
  -1   2  -4   87.31    2.96
   1   2   4   92.05    2.98
  -1   2  -4   90.15    2.97
   2  -2   4   35.87    1.26
  -2  -2  -4   35.32    1.24
   2  -2   4   35.99    1.35
  -2  -2  -4   33.99    1.37
  -2  -2  -4   36.81    1.48
   2   2   4   35.80    1.39
  -2   2  -4   33.92    1.25
   2   2   4   36.15    1.24
  -2   2  -4   35.89    1.26
   2   2   4   37.55    1.29
  -3  -2  -4    0.00    0.15
   3  -2   4   -0.10    0.15
   3  -2   4    0.09    0.12
   3   2   4    0.19    0.15
   3   2   4   -0.25    0.23
  -3   2  -4    0.19    0.12
  -3   2  -4    0.16    0.10
   4  -2   4   68.80    2.29
  -4  -2  -4   65.58    2.27
   4  -2   4   68.44    2.47
   4   2   4   65.71    2.50
  -4   2  -4   65.38    2.27
   4   2   4   66.45    2.33
  -4   2  -4   65.99    2.53
   5  -2   4   23.10    1.04
   5  -2   4   22.95    0.93
  -5  -2  -4   22.84    0.93
  -5   2  -4   22.61    0.91
   5   2   4   24.15    0.98
   5   2   4   22.35    1.08
  -5   2  -4   22.33    0.97
   6  -2   4   68.67    2.35
  -6  -2  -4   65.28    2.32
   6  -2   4   69.40    2.56
  -6   2  -4   66.58    2.32
   6   2   4   69.07    2.63
   6   2   4   63.81    2.37
  -6   2  -4   62.12    2.56
   7  -2   4    9.82    0.70
  -7  -2  -4    9.41    0.57
   7  -2   4   10.35    0.64
   7   2   4   10.04    0.76
  -7   2  -4    9.31    0.55
   7   2   4    9.36    0.63
   7   2   4   11.48    0.76
   8  -2   4   10.42    0.62
  -8  -2  -4    9.83    0.61
   8  -2   4   10.22    0.76
   8   2   4   10.70    0.94
  -8   2  -4   11.51    0.67
   8   2   4   12.32    0.83
   8   2   4   10.57    0.69
   9  -2   4    0.73    0.32
  -9  -2  -4   -0.05    0.25
   9  -2   4   -0.09    0.44
   9   2   4    0.04    0.53
   9   2   4    0.11    0.27
  -9   2  -4    0.12    0.31
  10  -2   4    0.74    0.52
 -10  -2  -4    0.61    0.31
  10   2   4    0.50    0.58
  10   2   4    0.89    0.42
 -10   2  -4    0.79    0.28
  11  -2   4    1.76    0.59
 -11  -2  -4    1.00    0.41
 -11   2  -4    1.23    0.40
  11   2   4    1.62    0.65
  12  -2   4    0.92    0.57
 -12  -2  -4    0.03    0.40
 -12   2  -4   -0.15    0.37
  12   2   4   -0.16    0.59
 -13  -3   4   -0.49    0.29
  13  -3  -4   -0.08    0.30
  13   3  -4   -0.75    0.47
  13   3  -4    0.48    0.48
 -12  -3   4    0.39    0.30
  12  -3  -4    0.42    0.32
  12   3  -4    0.62    0.50
 -12   3   4    0.22    0.23
  12   3  -4    0.72    0.44
  11  -3  -4    1.82    0.40
  11  -3  -4    1.72    0.37
 -11  -3   4    1.78    0.34
  11   3  -4    1.85    0.51
 -11   3   4    1.52    0.25
  11   3  -4    2.61    0.55
 -10  -3   4    3.25    0.38
  10  -3  -4    2.75    0.46
  10  -3  -4    3.37    0.39
  10   3  -4    2.54    0.50
  10   3  -4    3.57    0.54
 -10   3   4    3.18    0.28
  -9  -3   4    0.12    0.22
   9  -3  -4   -0.09    0.25
   9  -3  -4    0.26    0.23
  -9   3   4   -0.12    0.15
   9   3  -4    0.93    0.26
   9   3  -4    0.13    0.35
   9   3  -4   -0.37    0.30
   8  -3  -4  101.96    3.60
  -8  -3   4  106.93    3.45
   8  -3  -4  104.13    4.05
  -8   3   4  105.34    3.35
   8   3  -4  101.46    3.50
   8   3  -4   96.68    3.77
   8   3  -4  101.70    4.18
   7  -3  -4   29.61    1.35
  -7  -3   4   28.83    1.14
   7  -3  -4   30.78    1.07
   7  -3  -4   29.33    1.14
  -7  -3   4   29.80    1.12
  -7  -3   4   31.70    1.26
   7  -3  -4   28.77    0.98
   7   3  -4   27.95    1.32
   7   3  -4   28.88    1.17
  -7   3   4   29.86    1.01
   7   3  -4   28.79    1.48
  -7   3   4   29.54    1.04
  -6  -3   4   26.74    1.04
   6  -3  -4   27.63    1.22
   6  -3  -4   29.36    0.87
   6  -3  -4   24.34    0.86
  -6  -3   4   27.49    1.01
   6  -3  -4   27.73    0.96
   6  -3  -4   26.26    1.01
   6   3  -4   24.95    1.29
   6   3  -4   26.31    1.06
   6   3  -4   27.11    1.20
  -6   3   4   28.04    0.91
  -6   3   4   26.83    0.92
   6   3  -4   27.37    1.06
   5  -3  -4    3.48    0.33
  -5  -3   4    2.66    0.25
  -5  -3   4    2.97    0.26
   5  -3  -4    3.00    0.15
   5  -3  -4    3.10    0.19
   5   3  -4    2.90    0.28
   5   3  -4    3.09    0.26
  -5   3   4    3.11    0.13
   5   3  -4    2.81    0.34
   5   3  -4    2.80    0.35
  -4  -3   4   38.69    1.35
   4  -3  -4   38.29    1.31
   4  -3  -4   41.78    1.33
  -4  -3   4   38.57    1.42
   4   3  -4   38.45    1.41
   4   3  -4   40.36    1.43
   4   3  -4   37.59    1.66
   4   3  -4   37.76    1.51
  -3  -3   4  139.42    4.80
   3  -3  -4  128.67    4.72
  -3  -3   4  142.15    4.57
   3   3  -4  139.28    4.61
   3   3  -4  151.07    4.82
   3   3  -4  143.63    4.88
   3   3  -4  143.43    5.33
  -2  -3   4    9.74    0.43
   2  -3  -4   10.60    0.36
  -2  -3   4   10.14    0.46
   2  -3  -4    9.92    0.35
   2  -3  -4    9.66    0.40
  -2  -3   4   11.02    0.54
  -2   3   4   10.28    0.36
   2   3  -4    9.88    0.56
   2   3  -4    9.62    0.50
  -2   3   4   10.64    0.37
   2   3  -4   10.24    0.46
   1  -3  -4   88.76    2.79
   1  -3  -4   80.90    2.94
   1  -3  -4   84.24    2.76
  -1  -3   4   85.26    2.96
  -1  -3   4   87.72    2.84
  -1  -3   4   85.03    2.82
  -1   3   4   86.54    2.79
   1   3  -4   84.23    3.25
  -1   3   4   87.97    2.90
   1   3  -4   88.25    2.97
   1   3  -4   84.45    2.81
  -1   3   4   86.13    2.76
   0  -3  -4    0.69    0.14
   0  -3   4    0.66    0.12
   0  -3   4    0.74    0.12
   0  -3  -4    0.75    0.12
   0  -3  -4    0.56    0.10
   0  -3   4    0.62    0.13
   0   3   4    0.69    0.10
   0   3  -4    0.65    0.13
   0   3  -4    0.53    0.15
   0   3   4    0.74    0.10
   0   3   4    0.65    0.13
   0   3  -4    0.47    0.12
   0   3   4    0.74    0.14
  -1  -3  -4   66.39    2.47
   1  -3   4   70.99    2.31
  -1  -3  -4   70.88    2.29
   1  -3   4   68.76    2.44
   1  -3   4   69.82    2.31
   1   3   4   71.15    2.33
   1   3   4   67.67    2.47
  -1   3  -4   66.50    2.30
  -1   3  -4   68.22    2.44
   1   3   4   70.51    2.29
  -1   3  -4   70.66    2.60
  -1   3  -4   69.58    2.33
  -2  -3  -4   35.07    1.41
   2  -3   4   36.28    1.27
  -2  -3  -4   35.84    1.25
   2  -3   4   36.03    1.36
   2   3   4   35.75    1.40
   2   3   4   36.51    1.31
   2   3   4   36.68    1.25
  -2   3  -4   34.28    1.26
  -2   3  -4   36.03    1.28
   3  -3   4    2.02    0.31
   3  -3   4    2.26    0.23
  -3  -3  -4    2.27    0.22
  -3   3  -4    2.25    0.17
  -3   3  -4    2.08    0.22
   3   3   4    2.16    0.26
   3   3   4    1.78    0.35
  -4  -3  -4   10.28    0.52
   4  -3   4   10.69    0.50
   4  -3   4   10.72    0.58
  -4   3  -4    9.85    0.45
   4   3   4   10.10    0.59
  -4   3  -4    9.95    0.49
   4   3   4    9.68    0.68
  -5  -3  -4    1.56    0.27
   5  -3   4    1.36    0.26
   5  -3   4    1.51    0.34
  -5   3  -4    1.60    0.27
  -5   3  -4    1.40    0.16
   5   3   4    1.75    0.36
   5   3   4    1.41    0.32
   6  -3   4   49.69    1.86
   6  -3   4   54.81    2.08
  -6  -3  -4   47.68    1.85
   6   3   4   53.25    2.22
  -6   3  -4   51.29    1.87
  -6   3  -4   50.71    1.99
   6   3   4   54.38    2.18
   6   3   4   54.02    1.98
   7  -3   4    5.57    0.61
  -7  -3  -4    5.01    0.43
   7  -3   4    4.98    0.48
   7   3   4    6.27    0.64
   7   3   4    5.64    0.53
   7   3   4    5.72    0.64
  -7   3  -4    5.16    0.42
  -8  -3  -4   13.24    0.72
   8  -3   4   13.75    0.76
   8  -3   4   13.98    0.94
   8   3   4   14.88    0.98
  -8   3  -4   13.09    0.70
   8   3   4   13.63    0.96
   8   3   4   13.94    0.81
   9  -3   4    3.23    0.58
   9  -3   4    3.06    0.42
  -9  -3  -4    2.09    0.43
   9   3   4    3.17    0.60
  -9   3  -4    3.08    0.39
   9   3   4    3.57    0.55
   9   3   4    2.81    0.53
  10  -3   4    2.05    0.48
 -10  -3  -4    1.73    0.45
  10   3   4    2.57    0.50
  10   3   4    2.31    0.55
 -10   3  -4    1.96    0.42
 -11  -3  -4    4.46    0.57
  11  -3   4    5.18    0.74
  11   3   4    3.91    0.68
 -11   3  -4    3.53    0.52
  11   3   4    3.91    0.54
 -12  -3  -4    0.99    0.37
  12  -3   4    1.91    0.59
 -12   3  -4    0.90    0.42
  12   3   4    1.83    0.71
 -13  -4   4   -0.39    0.32
  13   4  -4   -0.14    0.48
  13   4  -4    0.52    0.54
 -12  -4   4   -0.28    0.27
  12  -4  -4   -0.15    0.25
  12   4  -4    0.34    0.47
 -12   4   4   -0.03    0.24
  12   4  -4    0.88    0.54
  11  -4  -4    2.30    0.37
 -11  -4   4    2.75    0.41
  11   4  -4    2.52    0.51
 -11   4   4    2.40    0.27
  11   4  -4    1.57    0.53
  10  -4  -4    4.77    0.55
  10  -4  -4    4.71    0.46
 -10  -4   4    5.13    0.48
 -10   4   4    4.55    0.34
  10   4  -4    5.42    0.69
  10   4  -4    5.35    0.70
   9  -4  -4    8.10    0.51
  -9  -4   4    8.19    0.54
   9  -4  -4    7.71    0.64
  -9   4   4    8.57    0.40
   9   4  -4    7.43    0.66
   9   4  -4    8.85    0.85
   9   4  -4    8.48    0.58
   8  -4  -4   70.53    2.53
  -8  -4   4   74.02    2.48
  -8  -4   4   71.58    2.57
   8  -4  -4   73.09    2.90
   8   4  -4   72.91    2.55
  -8   4   4   69.39    2.37
   8   4  -4   67.12    2.76
   8   4  -4   66.93    3.03
  -8   4   4   74.86    2.35
   7  -4  -4   15.02    0.63
  -7  -4   4   15.32    0.69
   7  -4  -4   14.65    0.58
  -7  -4   4   13.67    0.66
   7  -4  -4   15.16    0.81
   7   4  -4   15.01    0.74
   7   4  -4   13.66    0.86
  -7   4   4   14.80    0.56
  -7   4   4   15.67    0.55
   7   4  -4   13.35    0.97
   6  -4  -4    1.49    0.15
  -6  -4   4    1.40    0.20
  -6  -4   4    1.17    0.23
   6  -4  -4    1.38    0.24
   6   4  -4    1.10    0.27
  -6   4   4    1.20    0.11
  -6   4   4    1.45    0.11
   6   4  -4    1.64    0.28
   6   4  -4    1.30    0.30
  -5  -4   4    8.02    0.44
   5  -4  -4    8.41    0.33
  -5  -4   4    8.23    0.45
   5   4  -4    8.23    0.49
   5   4  -4    7.75    0.53
   5   4  -4    8.23    0.63
  -4  -4   4    9.58    0.47
  -4  -4   4    9.24    0.43
   4  -4  -4    9.18    0.33
   4   4  -4    9.29    0.54
   4   4  -4   10.70    0.53
   4   4  -4    9.25    0.50
   4   4  -4    9.12    0.60
   3  -4  -4  159.36    5.52
  -3  -4   4  167.62    5.35
  -3  -4   4  167.39    5.62
   3  -4  -4  167.75    5.53
   3   4  -4  167.21    5.71
   3   4  -4  165.48    6.22
  -3   4   4  174.36    5.26
   3   4  -4  171.88    5.64
   3   4  -4  166.26    5.41
  -3   4   4  145.32    5.24
   2  -4  -4   19.90    0.69
  -2  -4   4   18.90    0.78
  -2  -4   4   19.60    0.74
   2  -4  -4   18.49    0.72
   2  -4  -4   19.14    0.64
   2   4  -4   19.47    0.78
  -2   4   4   20.06    0.67
   2   4  -4   19.97    0.86
   2   4  -4   18.84    0.90
  -1  -4   4    8.02    0.41
   1  -4  -4    7.58    0.39
   1  -4  -4    8.73    0.36
  -1  -4   4    8.42    0.40
  -1  -4   4    8.89    0.46
   1  -4  -4    8.11    0.35
   1  -4  -4    8.30    0.33
  -1   4   4    8.85    0.34
   1   4  -4    8.19    0.42
   1   4  -4    8.43    0.49
  -1   4   4    8.59    0.37
  -1   4   4    8.54    0.33
   0  -4  -4    8.47    0.44
   0  -4   4    8.84    0.40
   0  -4  -4    8.78    0.36
   0  -4   4    8.59    0.43
   0  -4  -4    8.95    0.40
   0  -4  -4    8.54    0.39
   0   4   4    8.59    0.36
   0   4   4    8.29    0.43
   0   4   4    8.30    0.37
   0   4  -4    9.15    0.46
   0   4   4    8.87    0.41
  -1  -4  -4   91.85    3.09
   1  -4   4   97.70    3.31
  -1  -4  -4   92.01    3.34
   1  -4   4   95.75    3.13
  -1   4  -4   94.71    3.16
  -1   4  -4   95.20    3.52
  -1   4  -4   94.57    3.15
   1   4   4   91.46    3.32
   1   4   4   97.04    3.10
   1   4   4   96.57    3.15
   2  -4   4   59.23    2.11
  -2  -4  -4   55.38    2.16
   2  -4   4   59.49    1.99
  -2  -4  -4   56.72    1.96
   2   4   4   55.93    2.16
  -2   4  -4   59.85    2.17
  -2   4  -4   58.51    2.00
   2   4   4   60.10    2.03
   2   4   4   58.21    1.97
   3  -4   4   12.58    0.66
   3  -4   4   13.19    0.57
  -3  -4  -4   12.85    0.57
   3   4   4   13.11    0.62
  -3   4  -4   13.12    0.50
  -3   4  -4   12.81    0.57
   3   4   4   11.79    0.68
  -3   4  -4   12.25    0.50
  -4  -4  -4    0.57    0.21
   4  -4   4    0.50    0.28
   4  -4   4    0.58    0.17
   4   4   4    0.29    0.33
  -4   4  -4    0.52    0.22
   4   4   4    0.52    0.21
   5  -4   4    0.17    0.22
  -5  -4  -4    0.42    0.18
   5  -4   4    0.51    0.31
   5   4   4    1.01    0.33
   5   4   4    0.79    0.31
  -5   4  -4    0.27    0.18
   6  -4   4    0.75    0.27
   6  -4   4    0.60    0.37
  -6  -4  -4    0.55    0.22
   6   4   4    0.30    0.35
  -6   4  -4    0.81    0.29
   6   4   4    0.67    0.45
   6   4   4    1.02    0.34
  -7  -4  -4   -0.45    0.29
   7  -4   4    0.01    0.20
   7  -4   4   -0.19    0.39
  -7   4  -4    0.33    0.21
   7   4   4   -0.40    0.47
   7   4   4    0.75    0.37
   7   4   4    0.13    0.27
   8  -4   4    9.36    0.64
   8  -4   4   11.18    0.84
  -8  -4  -4   11.10    0.72
  -8   4  -4   10.54    0.68
   8   4   4   10.85    1.00
   8   4   4    9.96    0.89
   8   4   4   10.99    0.81
  -9  -4  -4   -0.08    0.24
   9  -4   4   -0.12    0.29
   9   4   4   -0.02    0.53
  -9   4  -4    0.16    0.32
   9   4   4   -0.03    0.40
   9   4   4   -0.18    0.39
  10  -4   4    0.89    0.50
 -10  -4  -4    0.69    0.31
  10   4   4    0.59    0.34
  10   4   4    0.36    0.58
 -10   4  -4   -0.11    0.24
 -11  -4  -4    1.56    0.47
  11  -4   4    1.22    0.54
  11   4   4    1.25    0.52
  11   4   4    2.59    0.54
 -11   4  -4    1.23    0.42
 -12  -4  -4    1.70    0.50
  12  -4   4    2.91    0.64
 -12   4  -4    2.29    0.48
  12   4   4    2.44    0.75
 -13  -5   4   -0.15    0.33
  13   5  -4    0.07    0.40
  12  -5  -4    0.38    0.26
 -12  -5   4    0.04    0.31
  12   5  -4    0.39    0.49
  12   5  -4    0.33    0.56
 -11  -5   4    1.62    0.37
  11  -5  -4    1.40    0.30
 -11   5   4    1.50    0.23
  11   5  -4    1.92    0.58
  11   5  -4    1.62    0.49
 -10  -5   4    0.40    0.29
  10  -5  -4    0.41    0.25
  10  -5  -4    0.72    0.24
 -10   5   4    0.50    0.17
  10   5  -4    0.31    0.45
  10   5  -4    0.04    0.44
  -9  -5   4    0.02    0.25
   9  -5  -4   -0.18    0.22
   9  -5  -4   -0.28    0.17
   9   5  -4   -0.19    0.25
  -9   5   4   -0.06    0.13
   9   5  -4    0.34    0.29
   9   5  -4    0.12    0.30
  -8  -5   4    5.75    0.46
   8  -5  -4    4.92    0.48
   8  -5  -4    4.75    0.34
  -8  -5   4    4.68    0.42
  -8   5   4    4.74    0.27
   8   5  -4    4.06    0.61
   8   5  -4    4.68    0.48
   8   5  -4    5.16    0.62
  -7  -5   4   46.43    1.75
   7  -5  -4   47.44    1.65
  -7  -5   4   49.00    1.70
   7  -5  -4   48.17    1.96
  -7   5   4   44.44    1.52
   7   5  -4   44.49    2.11
   7   5  -4   43.22    1.91
   7   5  -4   46.12    1.77
  -6  -5   4    0.32    0.22
   6  -5  -4    0.25    0.19
  -6  -5   4    0.26    0.17
   6  -5  -4    0.39    0.10
  -6   5   4    0.43    0.06
   6   5  -4    0.32    0.24
   6   5  -4    0.24    0.25
   6   5  -4    0.28    0.25
  -5  -5   4   65.42    2.36
  -5  -5   4   66.85    2.26
   5  -5  -4   67.04    2.23
   5   5  -4   64.88    2.73
   5   5  -4   65.71    2.33
   5   5  -4   64.05    2.51
  -4  -5   4   36.11    1.34
   4  -5  -4   37.24    1.28
  -4  -5   4   38.70    1.42
   4   5  -4   36.00    1.53
   4   5  -4   38.77    1.42
   4   5  -4   37.29    1.68
  -3  -5   4   25.84    0.98
   3  -5  -4   27.53    0.96
  -3  -5   4   26.54    1.05
   3  -5  -4   26.64    0.93
  -3   5   4   25.65    0.87
  -3   5   4   27.60    0.89
   3   5  -4   25.83    1.15
   3   5  -4   25.65    1.04
   3   5  -4   27.16    1.25
  -2  -5   4   25.24    0.99
  -2  -5   4   25.33    0.95
   2  -5  -4   25.93    0.85
   2  -5  -4   25.31    0.91
   2  -5  -4   25.02    0.95
  -2   5   4   26.39    0.89
  -2   5   4   25.63    0.87
   2   5  -4   24.87    1.09
  -2   5   4   24.30    0.88
   2   5  -4   26.14    1.17
   1  -5  -4   49.00    1.57
   1  -5  -4   46.22    1.60
   1  -5  -4   44.97    1.51
  -1  -5   4   44.90    1.67
   1  -5  -4   45.08    1.66
  -1  -5   4   44.77    1.58
  -1  -5   4   46.45    1.82
  -1   5   4   45.50    1.51
   1   5  -4   44.85    1.85
  -1   5   4   45.83    1.56
   1   5  -4   46.45    1.74
  -1   5   4   42.08    1.62
  -1   5   4   46.44    1.58
   0  -5   4    4.28    0.34
   0  -5   4    4.15    0.27
   0  -5   4    4.68    0.31
   0  -5  -4    3.71    0.26
   0  -5  -4    4.45    0.32
   0  -5  -4    4.38    0.24
   0   5   4    4.34    0.32
   0   5  -4    4.03    0.34
   0   5   4    4.29    0.24
   0   5   4    4.53    0.30
   1  -5   4   75.51    2.56
   1  -5   4   78.47    2.72
  -1  -5  -4   75.85    2.53
  -1  -5  -4   75.73    2.76
  -1  -5  -4   75.82    2.67
   1   5   4   77.22    2.60
   1   5   4   77.55    2.54
   1   5   4   73.21    2.74
  -1   5  -4   79.18    2.89
  -2  -5  -4    5.43    0.33
   2  -5   4    5.05    0.36
   2  -5   4    4.99    0.35
   2   5   4    5.06    0.40
  -2   5  -4    5.33    0.38
   2   5   4    4.80    0.32
  -2   5  -4    5.68    0.28
   2   5   4    4.73    0.39
  -3  -5  -4    1.11    0.21
   3  -5   4    0.90    0.18
   3  -5   4    0.94    0.28
   3   5   4    1.79    0.31
  -3   5  -4    1.14    0.24
   3   5   4    0.99    0.34
   4  -5   4   34.90    1.41
  -4  -5  -4   35.18    1.31
   4  -5   4   36.83    1.32
  -4   5  -4   35.15    1.32
   4   5   4   35.53    1.39
   4   5   4   33.75    1.50
   5  -5   4   23.48    0.94
  -5  -5  -4   23.33    0.98
   5  -5   4   22.62    1.05
   5   5   4   23.30    1.22
  -5   5  -4   22.93    0.96
   5   5   4   25.09    1.10
  -6  -5  -4   14.38    0.74
   6  -5   4   15.45    0.86
   6  -5   4   13.34    0.70
  -6   5  -4   13.82    0.68
   6   5   4   14.20    0.89
   6   5   4   12.36    0.77
   6   5   4   13.87    0.99
  -7  -5  -4    3.30    0.38
   7  -5   4    2.61    0.50
   7  -5   4    3.03    0.34
   7   5   4    2.71    0.62
  -7   5  -4    3.50    0.37
   7   5   4    3.59    0.56
   7   5   4    3.46    0.46
  -8  -5  -4    1.89    0.34
   8  -5   4    2.30    0.37
   8  -5   4    1.87    0.39
   8   5   4    2.31    0.50
  -8   5  -4    1.73    0.38
   8   5   4    1.99    0.63
   8   5   4    1.82    0.50
   9  -5   4    7.84    0.78
  -9  -5  -4    8.58    0.70
   9   5   4    8.15    0.68
  -9   5  -4    7.29    0.64
   9   5   4    7.83    0.92
   9   5   4    7.68    0.78
  10  -5   4    0.50    0.45
 -10  -5  -4    0.50    0.30
  10   5   4    0.93    0.46
 -10   5  -4    0.06    0.35
  10   5   4    1.03    0.63
 -11  -5  -4    3.48    0.50
  11  -5   4    3.74    0.58
  11   5   4    5.19    0.67
 -11   5  -4    3.63    0.52
  11   5   4    5.52    0.81
 -12  -5  -4    0.14    0.46
  12  -5   4    0.99    0.53
 -12   5  -4    0.96    0.43
  13   6  -4   -0.38    0.56
 -12  -6   4    0.59    0.38
  12   6  -4    0.65    0.60
  12   6  -4    1.28    0.48
  11  -6  -4    3.12    0.36
 -11  -6   4    2.56    0.42
  11   6  -4    3.62    0.69
  11   6  -4    3.07    0.61
 -10  -6   4    0.22    0.31
  10  -6  -4   -0.32    0.19
  10   6  -4   -0.86    0.39
  10   6  -4   -0.54    0.42
   9  -6  -4    0.44    0.18
  -9  -6   4    0.49    0.29
  -9  -6   4    0.59    0.27
   9  -6  -4    0.06    0.23
   9   6  -4    0.45    0.32
   9   6  -4    0.16    0.43
   9   6  -4    1.19    0.48
  -8  -6   4   13.70    0.74
   8  -6  -4   15.16    0.83
   8  -6  -4   14.01    0.62
  -8  -6   4   14.27    0.71
   8   6  -4   14.31    0.82
   8   6  -4   13.82    0.99
   8   6  -4   13.32    0.98
   7  -6  -4    0.30    0.20
  -7  -6   4   -0.01    0.18
   7  -6  -4   -0.09    0.11
  -7  -6   4    0.20    0.19
   7   6  -4    0.23    0.27
   7   6  -4    0.22    0.29
  -7   6   4    0.01    0.07
   7   6  -4   -0.14    0.27
   6  -6  -4    1.10    0.13
  -6  -6   4    1.05    0.27
  -6  -6   4    1.41    0.28
   6   6  -4    0.68    0.31
   6   6  -4    0.91    0.31
  -6   6   4    0.98    0.08
   6   6  -4    0.84    0.25
  -5  -6   4   22.67    0.97
  -5  -6   4   23.01    0.94
   5  -6  -4   23.09    0.82
   5   6  -4   23.27    1.20
  -5   6   4   24.18    0.76
   5   6  -4   23.58    1.14
  -5   6   4   21.09    0.75
   5   6  -4   22.00    1.01
  -4  -6   4    8.31    0.46
  -4  -6   4    8.28    0.47
   4  -6  -4    8.21    0.34
   4   6  -4    8.76    0.58
  -4   6   4    7.76    0.30
  -4   6   4    8.90    0.33
   4   6  -4    7.74    0.60
   4   6  -4    8.26    0.54
   3  -6  -4  228.38    7.17
  -3  -6   4  214.08    7.24
  -3  -6   4  208.63    6.88
   3  -6  -4  223.04    6.75
   3  -6  -4  214.17    7.12
   3  -6  -4  208.31    6.74
  -3   6   4  216.23    6.79
  -3   6   4  204.97    6.76
   3   6  -4  204.52    7.34
   3   6  -4  205.12    6.95
   3   6  -4  207.52    7.98
  -2  -6   4   12.63    0.56
  -2  -6   4   12.93    0.60
   2  -6  -4   12.76    0.47
   2  -6  -4   13.08    0.51
   2  -6  -4   13.29    0.57
   2   6  -4   12.51    0.68
  -2   6   4   12.52    0.48
  -2   6   4   13.21    0.52
   2   6  -4   13.17    0.74
  -2   6   4   13.27    0.48
  -2   6   4   11.93    0.50
   1  -6  -4   19.29    0.81
   1  -6  -4   19.24    0.70
  -1  -6   4   18.38    0.81
   1  -6  -4   19.87    0.75
  -1  -6   4   19.75    0.77
  -1   6   4   19.60    0.76
  -1   6   4   18.29    0.78
  -1   6   4   19.87    0.71
   1   6  -4   19.10    0.93
   1   6  -4   20.36    0.92
   0  -6   4   12.24    0.62
   0  -6   4   12.52    0.55
   0  -6  -4   13.29    0.51
   0  -6  -4   12.17    0.62
   0  -6  -4   12.88    0.55
   0  -6   4   13.09    0.62
   0   6  -4   13.11    0.66
   0   6  -4   13.10    0.65
   0   6   4   12.51    0.51
   0   6   4   11.97    0.60
   0   6   4   12.53    0.58
   1  -6   4   21.88    0.86
  -1  -6  -4   22.80    0.99
  -1  -6  -4   22.47    0.90
  -1  -6  -4   22.49    0.83
   1  -6   4   23.08    0.93
   1   6   4   21.30    0.98
  -1   6  -4   21.65    0.95
   1   6   4   22.95    0.85
   1   6   4   22.62    0.92
   2  -6   4   29.75    1.18
  -2  -6  -4   29.33    1.08
  -2  -6  -4   28.85    1.14
   2  -6   4   29.55    1.10
  -2   6  -4   29.21    1.15
   2   6   4   30.01    1.18
   2   6   4   29.06    1.27
   3  -6   4    6.28    0.43
  -3  -6  -4    5.88    0.39
   3  -6   4    6.10    0.37
  -3  -6  -4    5.45    0.35
   3   6   4    6.46    0.50
   3   6   4    6.08    0.44
  -3   6  -4    5.82    0.39
  -4  -6  -4    1.30    0.22
   4  -6   4    1.63    0.23
   4  -6   4    1.20    0.27
   4   6   4    1.29    0.35
  -4   6  -4    1.31    0.29
   4   6   4    0.94    0.40
   5  -6   4   40.46    1.45
   5  -6   4   40.25    1.57
  -5  -6  -4   36.36    1.43
   5   6   4   35.24    1.66
   5   6   4   37.57    1.54
  -5   6  -4   39.31    1.48
  -6  -6  -4   14.12    0.74
   6  -6   4   13.36    0.65
   6  -6   4   12.94    0.83
  -6   6  -4   12.65    0.68
   6   6   4   13.71    0.92
   6   6   4   14.42    0.92
   6   6   4   13.73    0.87
   7  -6   4   10.09    0.61
   7  -6   4   11.02    0.79
  -7  -6  -4   10.71    0.69
   7   6   4   10.84    0.83
   7   6   4    8.55    0.80
   7   6   4    9.98    0.72
  -7   6  -4    9.52    0.60
   8  -6   4    1.03    0.43
  -8  -6  -4    0.66    0.27
   8  -6   4    0.22    0.27
   8   6   4    0.82    0.36
   8   6   4    0.16    0.52
   8   6   4    1.47    0.46
  -8   6  -4    0.44    0.32
   9  -6   4    0.49    0.43
  -9  -6  -4    0.44    0.38
  -9   6  -4    0.31    0.33
   9   6   4    0.77    0.62
   9   6   4    0.80    0.36
   9   6   4    0.49    0.38
  10  -6   4    0.47    0.43
 -10  -6  -4    1.07    0.43
  10   6   4    1.07    0.64
  10   6   4    0.86    0.48
 -10   6  -4    0.31    0.35
  11  -6   4    0.00    0.44
 -11  -6  -4   -0.30    0.29
 -11   6  -4   -0.09    0.35
  11   6   4    0.50    0.36
  11   6   4    0.41    0.49
 -12   6  -4    0.85    0.41
 -12  -7   4   -0.03    0.36
  12   7  -4   -0.01    0.59
  12   7  -4    1.19    0.62
 -11  -7   4    0.32    0.36
  11   7  -4    0.12    0.39
  11   7  -4    0.57    0.44
 -10  -7   4    2.50    0.43
  10  -7  -4    2.72    0.30
  10   7  -4    2.09    0.54
  10   7  -4    2.21    0.62
   9  -7  -4   15.39    0.67
  -9  -7   4   15.77    0.83
  -9  -7   4   14.30    0.78
   9   7  -4   15.20    1.12
   9   7  -4   15.10    0.92
   9   7  -4   16.05    1.22
   8  -7  -4    4.25    0.29
  -8  -7   4    3.95    0.45
   8  -7  -4    4.43    0.47
  -8  -7   4    4.42    0.45
   8   7  -4    4.16    0.65
   8   7  -4    4.39    0.68
   8   7  -4    4.53    0.49
  -7  -7   4   -0.13    0.19
   7  -7  -4    0.12    0.12
  -7  -7   4   -0.11    0.27
   7  -7  -4    0.21    0.21
  -7   7   4    0.11    0.07
   7   7  -4    0.38    0.40
   7   7  -4    0.08    0.31
   7   7  -4    0.38    0.24
   6  -7  -4    0.18    0.11
  -6  -7   4    0.25    0.26
  -6  -7   4   -0.31    0.25
   6   7  -4    0.09    0.28
   6   7  -4    0.16    0.30
  -6   7   4    0.04    0.07
   6   7  -4    0.40    0.30
  -6   7   4    0.04    0.08
  -5  -7   4    8.09    0.52
   5  -7  -4    8.85    0.36
  -5  -7   4    8.96    0.50
   5   7  -4    8.14    0.63
   5   7  -4    7.61    0.53
  -5   7   4    7.90    0.32
  -5   7   4    8.40    0.34
   5   7  -4    8.65    0.69
   4  -7  -4   -0.06    0.03
   4  -7  -4    0.05    0.09
   4  -7  -4   -0.04    0.03
  -4  -7   4   -0.25    0.14
  -4  -7   4    0.08    0.17
  -4   7   4    0.03    0.07
  -4   7   4   -0.07    0.10
   4   7  -4    0.03    0.25
   4   7  -4   -0.18    0.21
   4   7  -4   -0.07    0.28
   3  -7  -4    5.87    0.30
   3  -7  -4    5.81    0.25
   3  -7  -4    6.48    0.35
  -3  -7   4    5.80    0.42
  -3  -7   4    5.43    0.39
   3   7  -4    5.53    0.49
   3   7  -4    5.51    0.43
   3   7  -4    6.11    0.58
  -3   7   4    6.08    0.32
  -2  -7   4    2.11    0.26
  -2  -7   4    1.97    0.24
   2  -7  -4    2.13    0.20
   2  -7  -4    2.95    0.26
   2  -7  -4    2.08    0.15
  -2   7   4    2.46    0.23
   2   7  -4    2.17    0.34
  -2   7   4    2.24    0.18
   2   7  -4    2.31    0.30
   2   7  -4    2.19    0.34
  -2   7   4    1.37    0.16
   1  -7  -4   15.54    0.58
  -1  -7   4   15.18    0.72
   1  -7  -4   14.75    0.62
  -1  -7   4   15.25    0.68
   1  -7  -4   15.96    0.71
   1   7  -4   15.62    0.82
  -1   7   4   14.93    0.65
   1   7  -4   15.18    0.81
  -1   7   4   14.31    0.67
  -1   7   4   15.32    0.59
   0  -7  -4    8.25    0.50
   0  -7  -4    8.28    0.39
   0  -7  -4    8.59    0.43
   0  -7   4    8.57    0.52
   0  -7   4    7.69    0.43
   0  -7   4    8.63    0.48
   0   7  -4    8.02    0.51
   0   7   4    8.23    0.51
   0   7   4    7.78    0.39
   0   7  -4    8.83    0.60
   0   7   4    8.67    0.48
   1  -7   4   41.39    1.54
  -1  -7  -4   37.88    1.45
  -1  -7  -4   39.58    1.57
   1  -7   4   39.27    1.51
  -1  -7  -4   38.78    1.37
   1  -7   4   37.90    1.39
   1   7   4   36.84    1.43
   1   7   4   36.90    1.54
  -1   7  -4   38.37    1.56
   1   7   4   39.17    1.37
  -2  -7  -4   13.06    0.62
   2  -7   4   12.73    0.63
   2  -7   4   12.63    0.57
  -2  -7  -4   12.12    0.57
   2   7   4   11.23    0.62
  -2   7  -4   12.24    0.55
   2   7   4   11.78    0.69
  -3  -7  -4   33.26    1.26
   3  -7   4   34.47    1.36
  -3  -7  -4   33.85    1.34
   3  -7   4   35.45    1.28
   3   7   4   30.84    1.46
   3   7   4   34.35    1.38
  -4  -7  -4    0.16    0.17
   4  -7   4   -0.04    0.22
   4  -7   4    0.03    0.21
   4   7   4    0.28    0.25
  -4   7  -4   -0.60    0.26
   4   7   4    0.46    0.38
   5  -7   4   15.89    0.84
  -5  -7  -4   15.52    0.75
   5  -7   4   15.60    0.77
   5   7   4   16.82    1.05
   5   7   4   17.93    0.95
  -5   7  -4   17.36    0.83
   6  -7   4    3.90    0.53
   6  -7   4    4.59    0.42
  -6  -7  -4    4.68    0.42
  -6   7  -4    4.84    0.43
   6   7   4    5.64    0.56
   6   7   4    4.37    0.59
   7  -7   4   10.03    0.76
   7  -7   4    9.58    0.60
  -7  -7  -4   10.49    0.70
   7   7   4    9.62    0.84
   7   7   4    9.57    0.96
  -7   7  -4    8.85    0.60
   7   7   4   11.71    0.86
  -8  -7  -4    3.60    0.43
   8  -7   4    3.71    0.56
   8   7   4    2.73    0.48
   8   7   4    4.05    0.75
  -8   7  -4    3.13    0.46
   9  -7   4    3.57    0.56
  -9  -7  -4    3.45    0.51
   9   7   4    4.60    0.81
  -9   7  -4    3.17    0.48
   9   7   4    2.86    0.50
 -10  -7  -4    2.33    0.50
  10  -7   4    3.80    0.61
  10   7   4    3.15    0.63
  10   7   4    2.31    0.61
 -10   7  -4    2.91    0.47
  11  -7   4   -0.03    0.44
 -11  -7  -4   -0.38    0.41
 -11   7  -4    0.38    0.42
  11   7   4    0.56    0.38
  11   7   4    1.25    0.72
 -12  -8   4    3.97    0.50
  12   8  -4    2.29    0.80
 -11  -8   4    3.70    0.52
  11   8  -4    2.20    0.61
  11   8  -4    3.88    0.77
 -10  -8   4    3.67    0.50
  10   8  -4    4.17    0.76
  10   8  -4    3.92    0.69
  -9  -8   4    1.11    0.39
  -9  -8   4    1.95    0.39
   9  -8  -4    1.78    0.23
   9   8  -4    1.41    0.36
   9   8  -4    1.18    0.47
   9   8  -4    0.91    0.44
   8  -8  -4   13.44    0.57
   8  -8  -4   13.15    0.77
  -8  -8   4   12.97    0.78
  -8  -8   4   12.94    0.72
   8   8  -4   13.50    1.03
   8   8  -4   12.34    1.06
   8   8  -4   12.39    0.86
  -7  -8   4    0.17    0.30
   7  -8  -4    0.17    0.14
  -7  -8   4    0.92    0.32
   7  -8  -4    0.63    0.22
   7   8  -4    0.26    0.35
  -7   8   4    0.54    0.11
   7   8  -4    1.35    0.42
   7   8  -4    0.38    0.43
  -6  -8   4    5.00    0.43
   6  -8  -4    4.48    0.27
  -6  -8   4    5.54    0.51
  -6   8   4    4.78    0.23
  -6   8   4    4.79    0.25
   6   8  -4    4.50    0.64
   6   8  -4    4.81    0.54
   6   8  -4    4.65    0.64
  -5  -8   4   23.79    1.04
   5  -8  -4   23.27    0.86
  -5  -8   4   23.36    1.00
  -5   8   4   22.43    0.82
   5   8  -4   22.26    1.26
  -5   8   4   22.00    0.79
   5   8  -4   22.39    1.22
   5   8  -4   24.07    1.10
  -4  -8   4   12.63    0.63
   4  -8  -4   11.71    0.42
   4  -8  -4   11.54    0.49
  -4  -8   4   12.10    0.63
  -4   8   4   11.32    0.45
   4   8  -4   11.01    0.66
  -4   8   4   12.37    0.50
   4   8  -4   11.80    0.81
   4   8  -4    9.98    0.73
   3  -8  -4    2.11    0.20
   3  -8  -4    2.09    0.16
  -3  -8   4    2.17    0.32
  -3  -8   4    1.67    0.30
   3  -8  -4    2.47    0.25
  -3   8   4    1.74    0.14
  -3   8   4    1.80    0.22
  -3   8   4    1.89    0.17
   3   8  -4    1.74    0.34
   3   8  -4    1.64    0.33
   3   8  -4    1.86    0.37
   2  -8  -4   23.92    0.85
  -2  -8   4   23.95    1.01
   2  -8  -4   23.55    0.92
   2  -8  -4   26.16    1.00
  -2  -8   4   23.59    0.97
   2   8  -4   23.97    1.12
  -2   8   4   24.26    0.87
   2   8  -4   22.06    1.02
   2   8  -4   23.58    1.20
  -2   8   4   23.89    0.92
  -1  -8   4    0.53    0.20
  -1  -8   4    0.64    0.18
   1  -8  -4    0.64    0.21
   1  -8  -4    0.30    0.12
   1  -8  -4    0.41    0.15
   1   8  -4    0.56    0.31
  -1   8   4    0.39    0.19
   1   8  -4    0.28    0.23
  -1   8   4    0.33    0.13
  -1   8   4    0.54    0.18
   0  -8  -4    0.00    0.20
   0  -8   4    0.09    0.15
   0  -8  -4    0.01    0.15
   0  -8  -4    0.12    0.13
   0  -8   4    0.03    0.17
   0   8   4    0.04    0.19
   0   8  -4    0.14    0.28
   0   8  -4    0.23    0.18
   0   8   4    0.24    0.14
   0   8   4    0.26    0.21
   1  -8   4    1.64    0.20
  -1  -8  -4    1.10    0.21
   1  -8   4    1.38    0.22
  -1  -8  -4    1.12    0.20
   1  -8   4    1.17    0.30
   1   8   4    1.42    0.26
  -1   8  -4    1.38    0.23
   1   8   4    1.57    0.32
  -1   8  -4    1.23    0.28
  -2  -8  -4   -0.24    0.20
   2  -8   4   -0.74    0.24
  -2  -8  -4   -0.05    0.17
   2  -8   4   -0.61    0.19
  -2   8  -4    0.02    0.12
  -2   8  -4    0.11    0.22
   2   8   4   -0.32    0.25
   2   8   4   -0.33    0.25
  -3  -8  -4    0.50    0.29
   3  -8   4    0.94    0.21
  -3  -8  -4    1.25    0.26
   3  -8   4    0.87    0.33
   3   8   4    0.98    0.37
   3   8   4    1.59    0.38
   4  -8   4    3.20    0.40
  -4  -8  -4    3.87    0.34
  -4  -8  -4    3.98    0.43
   4  -8   4    3.69    0.39
   4   8   4    3.34    0.56
   4   8   4    4.10    0.46
  -5  -8  -4   14.61    0.72
   5  -8   4   13.90    0.73
   5  -8   4   14.04    0.80
   5   8   4   15.89    1.04
   5   8   4   16.66    0.94
   6  -8   4    6.30    0.61
   6  -8   4    6.28    0.50
  -6  -8  -4    7.09    0.58
   6   8   4    5.74    0.60
   6   8   4    6.23    0.77
  -6   8  -4    6.65    0.51
  -7  -8  -4    0.78    0.28
   7  -8   4    0.23    0.28
   7   8   4    0.92    0.54
   7   8   4    0.35    0.42
  -7   8  -4    0.28    0.31
  -8  -8  -4   -0.13    0.25
   8  -8   4   -0.19    0.26
  -8   8  -4    0.08    0.31
   8   8   4    0.10    0.41
   8   8   4    0.24    0.43
   9  -8   4    0.25    0.43
  -9  -8  -4    0.46    0.41
   9   8   4    0.60    0.46
  -9   8  -4   -0.11    0.34
   9   8   4    0.25    0.34
 -10  -8  -4    0.34    0.34
  10  -8   4   -0.07    0.40
  10   8   4   -0.40    0.58
  10   8   4    0.12    0.49
 -10   8  -4   -0.01    0.35
  11  -8   4    0.29    0.44
 -11  -8  -4   -0.08    0.46
  11   8   4    1.31    0.45
  11   8   4    1.35    0.77
 -11   8  -4    0.33    0.39
 -11  -9   4    2.38    0.49
  11   9  -4    1.43    0.70
  11   9  -4    2.46    0.72
 -10  -9   4    0.07    0.26
  10   9  -4    0.31    0.53
  10   9  -4    0.06    0.58
  -9  -9   4    3.71    0.52
  -9  -9   4    3.26    0.49
   9   9  -4    2.82    0.71
   9   9  -4    3.24    0.56
   9   9  -4    3.92    0.64
  -8  -9   4    0.23    0.26
   8  -9  -4    0.77    0.17
  -8  -9   4    0.47    0.26
   8   9  -4    0.85    0.57
   8   9  -4    0.59    0.52
   8   9  -4    1.12    0.35
  -7  -9   4    0.47    0.25
   7  -9  -4    0.45    0.22
   7  -9  -4    0.55    0.14
  -7  -9   4    0.74    0.34
   7   9  -4    0.29    0.35
   7   9  -4    0.47    0.30
  -7   9   4    0.42    0.12
   7   9  -4    0.07    0.35
  -6  -9   4   34.14    1.43
  -6  -9   4   34.21    1.37
   6  -9  -4   33.36    1.25
   6   9  -4   34.25    1.70
   6   9  -4   35.08    1.53
  -6   9   4   34.24    1.19
   6   9  -4   36.16    1.84
   5  -9  -4    0.15    0.14
  -5  -9   4   -0.15    0.20
  -5  -9   4    0.15    0.29
   5   9  -4    0.17    0.28
   5   9  -4   -0.45    0.31
  -5   9   4   -0.01    0.13
   5   9  -4   -0.72    0.25
   4  -9  -4    1.85    0.20
  -4  -9   4    1.28    0.26
  -4  -9   4    1.27    0.33
   4   9  -4    1.40    0.39
  -4   9   4    1.60    0.21
   4   9  -4    1.06    0.35
   4   9  -4    0.96    0.44
  -3  -9   4   17.89    0.87
   3  -9  -4   18.75    0.76
  -3  -9   4   18.65    0.86
   3  -9  -4   21.11    0.85
   3  -9  -4   18.63    0.69
  -3   9   4   18.22    0.71
   3   9  -4   18.31    1.01
   3   9  -4   19.53    1.12
   3   9  -4   18.02    0.96
  -3   9   4   19.09    0.78
   2  -9  -4    2.17    0.23
   2  -9  -4    1.96    0.19
   2  -9  -4    2.42    0.31
  -2  -9   4    1.50    0.31
  -2  -9   4    1.50    0.33
  -2   9   4    1.89    0.24
   2   9  -4    1.97    0.44
  -2   9   4    2.05    0.29
   2   9  -4    1.88    0.38
   2   9  -4    1.99    0.34
  -2   9   4    1.98    0.21
  -1  -9   4   -0.02    0.19
   1  -9  -4   -0.23    0.11
   1  -9  -4    0.18    0.16
  -1  -9   4    0.03    0.16
   1  -9  -4   -0.32    0.17
  -1   9   4   -0.05    0.13
   1   9  -4   -0.23    0.22
  -1   9   4   -0.20    0.16
   1   9  -4    0.00    0.22
  -1   9   4   -0.23    0.18
   0  -9  -4   26.02    0.97
   0  -9  -4   25.60    1.04
   0  -9  -4   26.23    1.14
   0  -9   4   24.80    1.02
   0  -9   4   25.95    1.10
   0   9   4   26.08    0.98
   0   9   4   25.22    1.07
   0   9  -4   26.39    1.20
   0   9   4   25.68    1.14
   0   9  -4   25.25    1.18
  -1  -9  -4    0.44    0.18
  -1  -9  -4   -0.10    0.21
   1  -9   4    0.47    0.16
   1  -9   4   -0.06    0.23
   1  -9   4    0.24    0.30
  -1   9  -4    0.54    0.20
   1   9   4    0.71    0.29
   1   9   4    0.23    0.27
  -1   9  -4   -0.07    0.30
  -2  -9  -4   55.41    2.00
   2  -9   4   56.24    2.02
   2  -9   4   59.11    2.18
  -2  -9  -4   58.40    2.14
   2   9   4   53.52    2.25
  -2   9  -4   61.43    2.27
   2   9   4   56.07    2.11
   3  -9   4   18.91    0.86
   3  -9   4   18.60    0.92
  -3  -9  -4   20.18    0.94
  -3  -9  -4   18.17    0.82
   3   9   4   19.34    1.00
   3   9   4   19.79    1.08
  -3   9  -4   20.87    1.04
  -4  -9  -4   11.12    0.58
   4  -9   4    9.86    0.56
  -4  -9  -4   11.01    0.69
   4  -9   4    9.77    0.73
   4   9   4   10.61    0.77
   4   9   4   10.63    0.70
   5  -9   4    3.53    0.39
   5  -9   4    3.18    0.48
  -5  -9  -4    3.37    0.42
   5   9   4    3.18    0.46
   5   9   4    3.52    0.55
   6  -9   4    4.58    0.49
   6  -9   4    3.59    0.41
  -6  -9  -4    4.51    0.49
   6   9   4    3.99    0.59
   6   9   4    4.03    0.61
   7  -9   4    5.53    0.61
  -7  -9  -4    5.71    0.51
   7   9   4    5.84    0.65
   7   9   4    5.91    0.76
   8  -9   4   -0.08    0.38
  -8  -9  -4    0.15    0.38
   8   9   4    0.49    0.49
   8   9   4    0.75    0.60
  -8   9  -4    0.00    0.33
   9  -9   4    0.67    0.41
  -9  -9  -4    0.64    0.33
   9   9   4    1.07    0.66
  -9   9  -4    0.67    0.38
   9   9   4    0.73    0.40
  10  -9   4   -0.20    0.40
 -10  -9  -4   -0.33    0.43
  10   9   4   -0.04    0.50
  10   9   4    1.17    0.57
 -10   9  -4    0.13    0.35
  11   9   4    2.09    0.62
 -11   9  -4    0.10    0.36
 -11 -10   4    0.10    0.31
 -10 -10   4    6.19    0.65
  10  10  -4    4.95    0.94
  10  10  -4    4.76    0.85
  -9 -10   4    0.26    0.39
  -9 -10   4    0.02    0.36
   9  10  -4    0.04    0.40
   9  10  -4    0.64    0.44
   9  10  -4   -0.56    0.37
   8 -10  -4   22.69    0.90
  -8 -10   4   22.72    1.08
  -8 -10   4   23.71    1.18
   8  10  -4   21.31    1.44
   8  10  -4   25.43    1.51
   8  10  -4   22.74    1.20
   7 -10  -4    1.61    0.20
  -7 -10   4    1.80    0.41
  -7 -10   4    1.29    0.41
   7  10  -4    1.32    0.37
   7  10  -4    0.76    0.53
   7  10  -4    1.63    0.60
  -7  10   4    1.63    0.17
   6 -10  -4    0.45    0.16
  -6 -10   4   -0.09    0.22
  -6 -10   4    0.05    0.23
   6  10  -4   -0.14    0.29
  -6  10   4    0.10    0.14
   6  10  -4   -0.53    0.34
   6  10  -4    0.20    0.35
   5 -10  -4   -0.08    0.14
  -5 -10   4   -0.19    0.22
  -5 -10   4   -0.49    0.27
   5  10  -4   -0.12    0.28
   5  10  -4   -0.56    0.21
   5  10  -4   -0.34    0.30
  -5  10   4   -0.04    0.15
   4 -10  -4    0.08    0.15
  -4 -10   4   -0.03    0.23
  -4 -10   4    0.14    0.21
   4  10  -4   -0.59    0.38
   4  10  -4    0.00    0.28
   4  10  -4    0.10    0.25
  -4  10   4    0.19    0.17
  -3 -10   4   11.24    0.67
  -3 -10   4   11.97    0.73
   3 -10  -4   11.63    0.55
  -3  10   4   10.86    0.56
   3  10  -4   10.18    0.69
   3  10  -4    9.57    0.85
   3  10  -4   12.44    0.90
  -2 -10   4   23.39    1.00
   2 -10  -4   23.73    0.88
  -2 -10   4   24.94    1.11
   2 -10  -4   23.72    0.96
  -2  10   4   24.93    1.00
  -2  10   4   22.14    0.98
   2  10  -4   23.49    1.19
   2  10  -4   24.50    1.28
   2  10  -4   22.80    1.13
  -1 -10   4    3.69    0.35
   1 -10  -4    2.79    0.26
   1 -10  -4    3.54    0.34
  -1 -10   4    3.72    0.44
  -1  10   4    3.93    0.39
   1  10  -4    3.05    0.45
   1  10  -4    3.04    0.45
   1  10  -4    3.78    0.48
  -1  10   4    3.74    0.39
   0 -10   4    5.00    0.50
   0 -10  -4    5.50    0.36
   0 -10   4    5.52    0.40
   0 -10  -4    5.33    0.42
   0  10   4    6.02    0.59
   0  10  -4    5.87    0.60
   0  10   4    5.32    0.48
   0  10  -4    5.66    0.50
  -1 -10  -4    3.66    0.35
  -1 -10  -4    3.70    0.34
   1 -10   4    4.31    0.42
   1 -10   4    3.83    0.46
  -1  10  -4    4.45    0.54
   1  10   4    4.21    0.49
  -1  10  -4    3.88    0.41
   1  10   4    5.00    0.49
  -2 -10  -4   31.48    1.26
   2 -10   4   34.63    1.42
  -2 -10  -4   30.80    1.33
   2 -10   4   33.41    1.30
  -2  10  -4   33.50    1.49
   2  10   4   32.02    1.49
   2  10   4   33.98    1.42
   3 -10   4    3.54    0.40
   3 -10   4    3.78    0.50
  -3 -10  -4    3.74    0.40
  -3 -10  -4    4.16    0.41
  -3  10  -4    4.38    0.53
   3  10   4    3.48    0.45
   3  10   4    3.67    0.49
  -4 -10  -4   10.56    0.67
  -4 -10  -4   12.23    0.68
   4 -10   4   11.23    0.70
   4 -10   4   11.77    0.66
  -4  10  -4   11.84    0.80
   4  10   4   12.05    0.92
   4  10   4   13.11    0.86
   5 -10   4    0.47    0.21
  -5 -10  -4    0.01    0.25
   5 -10   4    0.59    0.36
  -5 -10  -4    0.49    0.24
  -5  10  -4    0.32    0.34
   5  10   4   -0.18    0.42
   5  10   4    0.66    0.34
   6 -10   4    2.43    0.49
  -6 -10  -4    2.56    0.38
   6  10   4    3.11    0.58
   6  10   4    2.04    0.60
  -7 -10  -4    0.33    0.37
   7 -10   4    0.30    0.37
   7  10   4    0.38    0.53
   7  10   4    0.16    0.45
  -8 -10  -4    1.16    0.35
   8 -10   4    1.71    0.47
   8  10   4    1.98    0.48
   8  10   4    2.37    0.59
  -9 -10  -4    0.77    0.45
   9 -10   4    1.68    0.49
   9  10   4    1.12    0.52
   9  10   4    1.14    0.57
  10 -10   4   -0.13    0.41
 -10 -10  -4   -0.71    0.28
  10  10   4   -0.43    0.34
  10  10   4   -0.57    0.65
 -10 -11   4    1.53    0.48
  10  11  -4    2.20    0.73
  10  11  -4    1.35    0.61
  -9 -11   4    0.43    0.32
  -9 -11   4    0.02    0.39
   9  11  -4   -0.37    0.42
   9  11  -4    0.62    0.61
   9  11  -4    0.78    0.38
  -8 -11   4   15.61    0.89
  -8 -11   4   17.16    1.01
   8  11  -4   16.41    1.10
   8  11  -4   15.28    1.16
   8  11  -4   15.96    1.37
   7 -11  -4    1.26    0.21
  -7 -11   4    1.42    0.35
  -7 -11   4    0.99    0.41
   7  11  -4    0.42    0.43
   7  11  -4    1.77    0.50
   7  11  -4    1.23    0.47
  -6 -11   4    7.05    0.57
   6 -11  -4    6.52    0.39
  -6 -11   4    6.17    0.59
   6  11  -4    7.36    0.80
  -6  11   4    6.14    0.38
   6  11  -4    6.23    0.76
   6  11  -4    6.15    0.63
   5 -11  -4    3.02    0.28
  -5 -11   4    2.23    0.37
  -5 -11   4    2.41    0.37
  -5  11   4    2.79    0.28
   5  11  -4    1.88    0.58
   5  11  -4    1.88    0.45
   5  11  -4    1.89    0.41
  -4 -11   4    7.79    0.66
   4 -11  -4    7.39    0.45
  -4 -11   4    7.46    0.60
   4  11  -4    7.87    0.82
  -4  11   4    8.19    0.48
   4  11  -4    7.72    0.73
   4  11  -4    8.21    0.76
  -3 -11   4   -0.14    0.33
  -3 -11   4   -0.09    0.28
   3 -11  -4   -0.13    0.20
   3  11  -4   -0.22    0.40
   3  11  -4   -0.32    0.34
  -3  11   4   -0.19    0.22
   3  11  -4    0.33    0.28
   2 -11  -4    2.17    0.28
  -2 -11   4    2.25    0.32
  -2 -11   4    2.02    0.40
  -2  11   4    2.53    0.33
   2  11  -4    2.09    0.46
   2  11  -4    2.08    0.46
   2  11  -4    2.33    0.51
  -1 -11   4   -0.43    0.30
   1 -11  -4   -0.05    0.14
  -1 -11   4   -0.10    0.26
   1 -11  -4   -0.02    0.20
  -1  11   4    0.07    0.26
  -1  11   4    0.13    0.25
   1  11  -4   -0.19    0.22
   1  11  -4   -0.12    0.36
   1  11  -4   -0.45    0.25
   0 -11  -4    7.52    0.43
   0 -11   4    7.90    0.55
   0 -11  -4    7.33    0.51
   0 -11   4    7.46    0.54
   0  11  -4    6.98    0.61
   0  11  -4    7.39    0.71
   0  11   4    6.31    0.55
   0  11   4    6.98    0.55
   1 -11   4    0.55    0.35
  -1 -11  -4    0.74    0.29
  -1 -11  -4    0.63    0.18
   1 -11   4    0.02    0.27
  -1  11  -4    0.63    0.39
  -1  11  -4    0.67    0.25
   1  11   4    0.82    0.34
   1  11   4    0.93    0.35
  -2 -11  -4   -0.10    0.29
   2 -11   4    0.35    0.28
  -2 -11  -4    0.33    0.19
   2 -11   4   -0.08    0.34
  -2  11  -4    0.54    0.30
   2  11   4    0.10    0.26
   2  11   4    0.14    0.32
  -3 -11  -4    7.88    0.50
   3 -11   4    7.65    0.55
  -3 -11  -4    8.80    0.65
   3 -11   4    8.03    0.67
  -3  11  -4    8.41    0.71
   3  11   4    8.46    0.77
   3  11   4    6.45    0.67
   4 -11   4    2.07    0.30
  -4 -11  -4    1.51    0.41
  -4 -11  -4    2.33    0.37
   4 -11   4    2.77    0.46
  -4  11  -4    3.02    0.48
   4  11   4    2.08    0.42
   4  11   4    2.45    0.55
   5 -11   4    0.60    0.40
  -5 -11  -4    0.97    0.34
  -5 -11  -4    1.14    0.41
   5  11   4    1.42    0.48
   5  11   4    1.23    0.53
  -6 -11  -4    1.37    0.32
   6 -11   4    0.80    0.32
   6  11   4    1.17    0.58
   6  11   4    0.67    0.47
   7 -11   4    1.37    0.45
  -7 -11  -4    0.97    0.32
   7  11   4    1.32    0.63
   7  11   4    0.99    0.42
  -8 -11  -4    1.77    0.48
   8 -11   4    2.53    0.51
   8  11   4    2.85    0.65
   8  11   4    1.37    0.67
  -9 -11  -4   -0.09    0.30
   9 -11   4    0.72    0.44
   9  11   4    0.60    0.47
   9  11   4    0.18    0.38
  10  11   4    0.59    0.54
  10  11   4    0.23    0.54
  -9 -12   4    0.12    0.44
  -9 -12   4    1.15    0.48
   9  12  -4    1.27    0.72
   9  12  -4    0.26    0.37
   9  12  -4    0.27    0.68
  -8 -12   4    3.04    0.54
  -8 -12   4    3.22    0.55
   8  12  -4    1.61    0.70
   8  12  -4    1.67    0.58
   8  12  -4    2.12    0.49
  -7 -12   4   -0.12    0.38
   7 -12  -4    0.42    0.19
  -7 -12   4   -0.18    0.26
   7  12  -4    0.09    0.56
   7  12  -4    0.03    0.58
   7  12  -4    0.25    0.46
   6 -12  -4    0.78    0.20
  -6 -12   4    0.57    0.32
  -6 -12   4    0.38    0.28
   6  12  -4   -0.11    0.30
  -6  12   4    0.67    0.21
   6  12  -4   -0.16    0.53
   6  12  -4    0.28    0.54
   5 -12  -4   -0.15    0.17
  -5 -12   4   -0.53    0.31
  -5 -12   4   -0.42    0.35
   5  12  -4   -0.11    0.48
   5  12  -4   -0.25    0.39
   5  12  -4   -0.71    0.40
  -5  12   4   -0.06    0.19
  -4 -12   4    1.49    0.35
  -4 -12   4    1.35    0.38
   4 -12  -4    1.60    0.26
   4  12  -4    1.13    0.54
   4  12  -4    0.91    0.40
  -4  12   4    1.82    0.30
   4  12  -4    1.64    0.50
  -3 -12   4    6.37    0.58
   3 -12  -4    6.69    0.46
  -3 -12   4    6.05    0.54
   3  12  -4    5.48    0.69
  -3  12   4    6.40    0.47
   3  12  -4    6.14    0.75
   3  12  -4    5.85    0.61
  -2 -12   4    1.40    0.43
  -2 -12   4    2.78    0.36
   2 -12  -4    2.68    0.32
  -2  12   4    2.78    0.36
   2  12  -4    2.67    0.49
   2  12  -4    2.72    0.56
   2  12  -4    2.21    0.49
   1 -12  -4   12.42    0.65
  -1 -12   4   10.30    0.70
  -1 -12   4   11.45    0.65
  -1  12   4   13.40    0.72
   1  12  -4   10.74    0.74
   1  12  -4   12.47    0.85
   1  12  -4   11.51    0.82
   0 -12   4    1.26    0.27
   0 -12   4    1.20    0.40
   0 -12  -4    1.74    0.32
   0  12   4    1.51    0.36
   0  12  -4    1.28    0.32
   0  12  -4    1.32    0.35
   0  12  -4    1.34    0.37
  -1 -12  -4    0.03    0.15
   1 -12   4   -0.01    0.26
   1 -12   4   -0.13    0.19
  -1 -12  -4   -0.02    0.27
  -1  12  -4    0.01    0.38
   1  12   4   -0.20    0.32
   1  12   4   -0.08    0.29
  -2 -12  -4    1.08    0.24
   2 -12   4    1.50    0.33
   2 -12   4    1.36    0.41
  -2 -12  -4    1.34    0.36
  -2  12  -4    1.02    0.40
   2  12   4    1.79    0.42
   2  12   4    1.25    0.34
   3 -12   4    0.12    0.27
  -3 -12  -4   -0.13    0.19
   3 -12   4    0.10    0.37
  -3 -12  -4    0.01    0.33
   3  12   4    0.55    0.42
  -3  12  -4    0.78    0.37
   3  12   4    0.11    0.39
   4 -12   4   -0.09    0.37
  -4 -12  -4    0.00    0.27
  -4 -12  -4   -0.24    0.34
   4  12   4   -0.13    0.28
   4  12   4    0.27    0.45
   5 -12   4    2.22    0.46
  -5 -12  -4    2.48    0.42
  -5 -12  -4    2.09    0.40
   5  12   4    2.85    0.63
   5  12   4    2.20    0.55
   6 -12   4   -0.92    0.34
  -6 -12  -4   -0.16    0.34
   6  12   4    0.34    0.52
   6  12   4    0.57    0.38
   7 -12   4    0.03    0.38
  -7 -12  -4   -0.28    0.26
   7  12   4    0.49    0.57
   7  12   4   -0.10    0.48
   8 -12   4    0.64    0.43
  -8 -12  -4    0.41    0.43
   8  12   4    0.97    0.46
   8  12   4    1.28    0.64
  -9 -12  -4    0.12    0.44
   9 -12   4    0.58    0.45
   9  12   4   -0.15    0.53
   9  12   4   -0.57    0.57
  -9 -13   4    3.69    0.61
  -9 -13   4    3.66    0.64
   9  13  -4    4.88    0.76
   9  13  -4    2.92    0.69
  -8 -13   4   -0.06    0.45
  -8 -13   4    0.27    0.46
   8  13  -4   -0.94    0.61
   8  13  -4    0.01    0.44
   8  13  -4    0.20    0.36
  -7 -13   4    1.20    0.47
  -7 -13   4    1.94    0.42
   7  13  -4    1.90    0.47
   7  13  -4    1.85    0.56
   7  13  -4    1.10    0.65
   6 -13  -4    0.34    0.20
  -6 -13   4    0.38    0.40
  -6 -13   4    0.03    0.42
  -6  13   4    0.48    0.21
   6  13  -4    0.80    0.45
   6  13  -4    0.71    0.50
   6  13  -4   -0.68    0.50
  -5 -13   4    2.87    0.45
   5 -13  -4    2.68    0.32
  -5 -13   4    2.93    0.50
   5  13  -4    2.46    0.58
   5  13  -4    2.82    0.68
  -5  13   4    2.94    0.35
   5  13  -4    3.35    0.70
   4 -13  -4    1.18    0.28
  -4 -13   4    1.50    0.47
  -4 -13   4    0.76    0.38
   4  13  -4    0.98    0.42
   4  13  -4    1.31    0.57
   4  13  -4    1.58    0.42
  -4  13   4    1.20    0.29
   3 -13  -4    6.44    0.47
  -3 -13   4    6.57    0.61
  -3 -13   4    5.82    0.57
   3  13  -4    5.46    0.72
   3  13  -4    6.06    0.64
  -3  13   4    5.94    0.54
   3  13  -4    6.34    0.78
  -2 -13   4    3.84    0.52
  -2 -13   4    3.36    0.45
   2 -13  -4    4.29    0.42
   2  13  -4    3.46    0.55
   2  13  -4    2.86    0.51
   2  13  -4    3.25    0.55
  -2  13   4    3.76    0.45
  -1 -13   4   -0.32    0.25
  -1 -13   4   -0.18    0.28
   1 -13  -4    0.20    0.25
   1  13  -4   -0.11    0.34
   1  13  -4    0.19    0.39
  -1  13   4    0.40    0.30
   1  13  -4   -0.43    0.40
   0 -13   4    0.01    0.36
   0 -13   4    0.61    0.33
   0 -13  -4    0.82    0.29
   0  13  -4    0.42    0.29
   0  13  -4    0.80    0.43
   0  13  -4    0.49    0.41
   0  13   4    0.84    0.36
   1 -13   4    9.20    0.65
  -1 -13  -4   10.36    0.69
   1 -13   4   10.29    0.77
  -1  13  -4    9.21    0.79
  -1  13  -4    9.48    0.84
   1  13   4   10.01    0.77
  -2 -13  -4   -0.05    0.34
   2 -13   4    0.12    0.27
   2 -13   4    0.92    0.41
   2  13   4    0.09    0.37
  -2  13  -4    0.17    0.36
  -3 -13  -4    3.91    0.43
   3 -13   4    3.70    0.55
  -3 -13  -4    3.84    0.51
   3  13   4    3.54    0.58
   3  13   4    3.95    0.54
   4 -13   4    0.91    0.44
  -4 -13  -4    1.03    0.33
  -4 -13  -4    0.84    0.34
   4  13   4    1.73    0.52
   4  13   4    0.41    0.34
  -5 -13  -4    0.60    0.33
  -5 -13  -4    0.62    0.36
   5 -13   4    0.66    0.32
   5  13   4    0.27    0.47
   5  13   4    0.02    0.46
   6 -13   4    0.24    0.41
  -6 -13  -4    0.21    0.37
   6  13   4    0.81    0.55
   6  13   4    0.16    0.37
  -7 -13  -4    3.59    0.49
   7 -13   4    3.91    0.59
   7  13   4    4.56    0.79
   7  13   4    5.32    0.75
  -8 -13  -4   -0.20    0.41
   8 -13   4    0.46    0.45
   8  13   4   -0.07    0.40
   8  13   4    0.65    0.62
  -8 -14   4    0.37    0.37
  -8 -14   4   -0.01    0.51
   8  14  -4   -0.12    0.53
   8  14  -4    0.60    0.69
   8  14  -4    1.21    0.58
  -7 -14   4   -0.07    0.32
  -7 -14   4   -0.24    0.30
   7  14  -4    0.30    0.38
   7  14  -4    0.00    0.47
   7  14  -4    0.11    0.60
   6 -14  -4    0.00    0.23
  -6 -14   4   -0.10    0.29
  -6 -14   4   -0.27    0.31
   6  14  -4    0.22    0.42
   6  14  -4   -0.05    0.34
   6  14  -4   -0.77    0.36
  -5 -14   4   -0.45    0.40
  -5 -14   4   -0.04    0.28
   5 -14  -4   -0.22    0.21
   5  14  -4   -0.66    0.46
  -5  14   4   -0.08    0.22
   5  14  -4   -0.42    0.31
   5  14  -4   -0.25    0.36
  -4 -14   4    1.23    0.42
   4 -14  -4    0.83    0.29
  -4 -14   4    1.36    0.40
   4  14  -4    1.94    0.45
   4  14  -4    1.33    0.59
  -4  14   4    1.57    0.33
   4  14  -4    0.68    0.53
  -3 -14   4    7.32    0.65
   3 -14  -4    5.84    0.50
  -3 -14   4    7.71    0.64
   3  14  -4    5.50    0.71
   3  14  -4    6.05    0.72
   3  14  -4    5.77    0.76
  -3  14   4    6.38    0.58
   2 -14  -4   -0.15    0.24
  -2 -14   4    0.19    0.40
  -2 -14   4    0.26    0.33
   2  14  -4    0.38    0.46
   2  14  -4    0.98    0.46
   2  14  -4    0.03    0.37
  -2  14   4   -0.14    0.27
   1 -14  -4    4.41    0.45
  -1 -14   4    4.74    0.58
  -1 -14   4    4.74    0.51
   1  14  -4    3.26    0.57
  -1  14   4    4.27    0.50
   1  14  -4    3.13    0.63
   1  14  -4    3.50    0.57
   0 -14  -4    0.00    0.28
   0 -14   4   -0.40    0.19
   0 -14   4   -0.29    0.25
   0  14  -4   -0.30    0.37
   0  14  -4    0.37    0.43
   0  14   4   -0.13    0.31
   1 -14   4    0.18    0.31
   1 -14   4    0.03    0.28
  -1 -14  -4    0.61    0.32
   1  14   4    0.39    0.37
  -1  14  -4    0.10    0.29
  -1  14  -4   -0.07    0.37
  -2 -14  -4    4.25    0.52
   2 -14   4    2.74    0.44
   2  14   4    3.63    0.58
  -2  14  -4    4.25    0.58
   3 -14   4   25.17    1.28
  -3 -14  -4   25.28    1.27
   3  14   4   25.17    1.35
  -4 -14  -4    0.66    0.31
   4 -14   4    0.78    0.42
   4  14   4    0.73    0.38
  -5 -14  -4    6.80    0.68
  -5 -14  -4    7.79    0.68
   5 -14   4    8.14    0.75
   5  14   4    6.06    0.78
  -6 -14  -4   -0.08    0.37
   6 -14   4   -0.43    0.39
   6  14   4    0.22    0.39
   7 -14   4    0.62    0.47
  -7 -14  -4    0.86    0.36
  -7 -15   4   -0.50    0.49
  -7 -15   4    0.34    0.46
   7  15  -4   -0.08    0.67
   7  15  -4   -0.43    0.67
   7  15  -4    0.78    0.56
  -6 -15   4    0.34    0.48
  -6 -15   4   -0.52    0.40
   6 -15  -4    0.02    0.23
   6  15  -4   -0.66    0.56
   6  15  -4   -0.04    0.57
   6  15  -4    1.08    0.58
  -5 -15   4    0.62    0.37
  -5 -15   4    0.22    0.32
   5 -15  -4    0.71    0.28
   5  15  -4    0.74    0.53
   5  15  -4   -0.17    0.42
   5  15  -4    0.45    0.46
  -5  15   4    0.83    0.29
  -4 -15   4    0.70    0.37
  -4 -15   4    1.70    0.39
   4 -15  -4    1.50    0.31
  -4  15   4    1.40    0.33
   4  15  -4    2.34    0.61
   4  15  -4    0.80    0.58
   4  15  -4    0.79    0.57
  -3 -15   4    0.72    0.40
   3 -15  -4    0.24    0.27
  -3 -15   4    0.04    0.45
   3  15  -4    0.10    0.46
   3  15  -4    0.20    0.38
  -3  15   4    0.19    0.31
   3  15  -4   -0.21    0.48
  -2 -15   4    0.49    0.44
  -2 -15   4    0.16    0.35
   2 -15  -4   -0.32    0.29
  -2  15   4    0.22    0.31
   2  15  -4    0.56    0.51
   2  15  -4   -0.72    0.41
   2  15  -4   -0.07    0.31
  -1 -15   4    2.19    0.51
   1 -15  -4    1.76    0.38
  -1 -15   4    1.82    0.35
   1  15  -4    1.01    0.38
  -1  15   4    2.08    0.43
   1  15  -4    1.25    0.51
   0 -15   4    0.40    0.34
   0 -15   4    0.78    0.44
   0 -15  -4   -0.02    0.29
   0  15   4    0.06    0.35
   0  15  -4    0.77    0.36
  -1 -15  -4    8.08    0.69
   1 -15   4    7.71    0.77
  -1  15  -4    7.42    0.78
   1  15   4    8.75    0.79
   2 -15   4    8.17    0.77
  -2 -15  -4    7.98    0.63
  -2  15  -4    7.84    0.71
   2  15   4    9.70    0.85
   3 -15   4    2.54    0.45
  -3 -15  -4    3.16    0.54
  -3  15  -4    4.16    0.61
   3  15   4    3.09    0.52
  -4 -15  -4    0.56    0.43
   4 -15   4    0.38    0.43
   4  15   4    0.69    0.49
   5 -15   4    0.55    0.42
  -5 -15  -4    0.88    0.39
   5  15   4    1.34    0.58
   6 -15   4   -0.19    0.38
  -6 -16   4   -0.52    0.43
  -6 -16   4    0.33    0.52
   6  16  -4    0.23    0.67
   6  16  -4   -0.49    0.62
  -5 -16   4    0.83    0.47
   5 -16  -4    0.73    0.31
  -5 -16   4    1.09    0.55
   5  16  -4    1.05    0.50
   5  16  -4    0.84    0.67
   5  16  -4    1.43    0.59
  -4 -16   4    5.56    0.73
  -4 -16   4    5.04    0.56
   4 -16  -4    4.45    0.47
  -4  16   4    4.64    0.51
   4  16  -4    5.48    0.84
   4  16  -4    5.57    0.78
   4  16  -4    2.49    0.72
  -3 -16   4    0.62    0.50
   3 -16  -4    0.52    0.31
  -3 -16   4   -0.08    0.39
   3  16  -4   -0.95    0.46
   3  16  -4    0.32    0.50
   3  16  -4    1.38    0.58
  -3  16   4    0.17    0.33
   2 -16  -4    0.53    0.35
  -2 -16   4    0.54    0.49
  -2 -16   4    0.33    0.30
   2  16  -4   -0.29    0.32
  -2  16   4    0.57    0.34
  -1 -16   4    0.34    0.45
   1 -16  -4   -0.05    0.31
  -1  16   4   -0.07    0.32
   1  16  -4    0.31    0.46
   0 -16   4   -0.28    0.41
   0 -16  -4   -0.32    0.33
   0  16   4    0.25    0.35
   0  16  -4   -0.33    0.43
   1 -16   4    0.55    0.33
  -1 -16  -4    0.36    0.28
  -1  16  -4    0.91    0.38
   1  16   4    1.24    0.44
  -2 -16  -4    0.92    0.44
   2 -16   4    0.39    0.43
  -2  16  -4    1.15    0.49
   2  16   4    0.41    0.44
   3 -16   4    0.62    0.44
  -3 -16  -4    0.09    0.29
   3  16   4   -0.08    0.46
  -3  16  -4   -0.09    0.41
   4 -16   4    2.88    0.56
  -4  16  -4    2.36    0.53
  -4 -17   4    1.73    0.42
   4 -17  -4    2.21    0.42
   4  17  -4    0.71    0.63
  -4  17   4    2.75    0.43
   3 -17  -4    0.81    0.37
  -3  17   4    0.73    0.37
  -2 -17   4    1.83    0.59
   2 -17  -4    1.34    0.41
  -2  17   4    1.70    0.41
  -1 -17   4    0.27    0.35
   1 -17  -4    0.23    0.33
  -1  17   4    1.12    0.45
   0 -17  -4    1.38    0.42
   0 -17   4    1.81    0.45
   0  17   4    2.51    0.50
   0  17  -4    1.62    0.47
  -1 -17  -4   -0.07    0.36
   1  17   4   -0.55    0.39
  13   0  -5    1.31    0.50
 -13   0   5    0.61    0.28
  13   0  -5    1.17    0.43
  12   0  -5    0.44    0.40
  12   0  -5    0.30    0.33
 -12   0   5    0.17    0.25
  11   0  -5   15.78    1.06
 -11   0   5   15.43    0.73
  11   0  -5   16.40    0.94
 -10   0   5    0.27    0.21
  10   0  -5    0.18    0.33
  10   0  -5    0.20    0.31
  -9   0   5    0.83    0.21
   9   0  -5    0.65    0.28
   9   0  -5    0.72    0.28
   8   0  -5   -0.25    0.28
   8   0  -5   -0.10    0.24
   8   0  -5    0.08    0.13
  -8   0   5    0.07    0.13
  -7   0   5  421.16   13.48
   7   0  -5  419.83   15.64
   7   0  -5  413.20   14.29
   7   0  -5  418.74   13.51
   7   0  -5  442.69   14.19
   6   0  -5    0.06    0.10
   6   0  -5   -0.03    0.17
   6   0  -5    0.12    0.16
   6   0  -5   -0.18    0.09
  -6   0   5   -0.04    0.10
   5   0  -5   15.21    0.61
   5   0  -5   15.46    0.83
   5   0  -5   16.65    0.63
  -5   0   5   16.48    0.59
   5   0  -5   16.83    0.70
   4   0  -5   -0.03    0.07
   4   0  -5   -0.05    0.07
  -4   0   5   -0.01    0.02
   4   0  -5    0.12    0.13
   4   0  -5   -0.12    0.07
  -4   0   5    0.01    0.08
   4   0  -5   -0.02    0.12
   3   0  -5    0.58    0.10
  -3   0   5    0.46    0.10
  -3   0   5    0.63    0.11
   3   0  -5    0.61    0.09
  -3   0   5    0.24    0.07
   2   0  -5   -0.05    0.07
  -2   0   5   -0.12    0.08
  -2   0   5   -0.08    0.07
  -2   0   5   -0.05    0.08
   2   0  -5    0.01    0.09
   1   0  -5  278.46    9.18
  -1   0   5  283.86    9.18
  -1   0   5  297.61    9.66
   1   0  -5  287.26    9.67
  -1   0   5  292.50    9.18
   1   0  -5  288.53    9.19
   0   0   5   -0.22    0.12
   0   0  -5   -0.19    0.10
   0   0  -5    0.15    0.10
   0   0   5   -0.11    0.08
   0   0  -5   -0.11    0.09
   0   0   5   -0.05    0.07
   1   0   5    8.61    0.39
   1   0   5    8.83    0.40
  -1   0  -5    8.37    0.45
  -1   0  -5    8.48    0.38
   1   0   5    8.28    0.43
   2   0   5    0.67    0.19
   2   0   5    0.60    0.16
  -2   0  -5    0.51    0.14
  -3   0  -5    5.66    0.34
  -3   0  -5    6.07    0.40
   3   0   5    6.24    0.38
   3   0   5    6.10    0.49
   4   0   5   -0.06    0.20
  -4   0  -5    0.18    0.14
   4   0   5    0.06    0.16
   5   0   5    0.91    0.37
   5   0   5    1.80    0.27
  -5   0  -5    1.58    0.23
   6   0   5    0.33    0.22
  -6   0  -5    0.38    0.20
   6   0   5    0.30    0.29
  -7   0  -5  112.62    3.90
   7   0   5  116.70    3.97
   7   0   5  115.80    4.26
   8   0   5   -0.24    0.22
   8   0   5   -0.47    0.43
  -8   0  -5    0.04    0.30
  -9   0  -5   11.09    0.75
   9   0   5   10.53    0.99
   9   0   5   11.78    0.82
 -10   0  -5   -0.16    0.26
  10   0   5   -0.43    0.36
  10   0   5    0.28    0.55
 -11   0  -5    3.80    0.50
  11   0   5    4.20    0.68
 -12   0  -5   -0.24    0.28
  12   0   5   -0.60    0.36
  13  -1  -5    1.45    0.40
 -13  -1   5    0.83    0.30
  13   1  -5    1.75    0.57
  13   1  -5    1.85    0.47
 -13   1   5    1.20    0.30
 -12  -1   5    1.80    0.34
  12  -1  -5    1.48    0.47
  12  -1  -5    1.26    0.39
  12   1  -5    1.82    0.48
 -12   1   5    1.33    0.27
  12   1  -5    2.11    0.53
 -11  -1   5    7.86    0.52
  11  -1  -5    6.85    0.60
  11  -1  -5    8.57    0.79
  11   1  -5    7.25    0.73
 -11   1   5    7.52    0.47
  11   1  -5    6.73    0.68
  10  -1  -5    2.49    0.47
 -10  -1   5    2.96    0.32
  10  -1  -5    2.85    0.41
 -10   1   5    2.62    0.28
  10   1  -5    2.29    0.48
  10   1  -5    2.05    0.41
   9  -1  -5   59.75    2.65
  -9  -1   5   61.43    2.13
   9  -1  -5   62.89    2.34
   9   1  -5   62.37    2.71
  -9   1   5   62.08    2.09
   9   1  -5   60.31    2.40
  -8  -1   5    0.72    0.19
   8  -1  -5    0.72    0.27
   8  -1  -5    0.96    0.26
   8   1  -5    1.33    0.21
   8   1  -5    1.17    0.31
  -8   1   5    1.12    0.20
  -8   1   5    1.01    0.17
   8   1  -5    0.62    0.27
  -7  -1   5   61.99    2.03
   7  -1  -5   57.08    2.19
   7  -1  -5   58.45    2.48
   7  -1  -5   61.41    2.10
   7  -1  -5   57.93    1.99
   7   1  -5   57.15    2.06
   7   1  -5   60.03    2.26
   7   1  -5   63.81    2.15
  -7   1   5   60.73    1.99
   7   1  -5   59.68    2.55
   6  -1  -5    1.59    0.15
   6  -1  -5    1.49    0.21
  -6  -1   5    1.88    0.18
  -6  -1   5    1.59    0.18
   6  -1  -5    1.18    0.28
   6  -1  -5    1.73    0.16
  -6   1   5    1.70    0.15
   6   1  -5    1.58    0.27
   6   1  -5    1.29    0.26
   6   1  -5    1.73    0.20
   6   1  -5    1.77    0.19
  -5  -1   5    0.24    0.11
   5  -1  -5    0.51    0.08
  -5  -1   5    0.41    0.11
   5  -1  -5    0.35    0.07
   5  -1  -5    0.30    0.13
   5  -1  -5    0.38    0.08
   5  -1  -5    0.24    0.15
   5   1  -5    0.38    0.21
  -5   1   5    0.23    0.08
   5   1  -5    0.40    0.11
   5   1  -5    0.39    0.18
   5   1  -5    0.44    0.12
   4  -1  -5   56.96    1.86
   4  -1  -5   51.62    1.82
  -4  -1   5   52.30    1.84
   4  -1  -5   51.34    1.73
   4  -1  -5   54.34    1.72
  -4  -1   5   53.09    1.76
   4   1  -5   54.33    1.92
   4   1  -5   49.50    2.13
  -4   1   5   52.85    1.72
   4   1  -5   53.53    1.86
   4   1  -5   51.96    1.79
  -3  -1   5  137.94    4.67
   3  -1  -5  137.17    4.41
  -3  -1   5  137.55    4.45
   3  -1  -5  137.10    4.65
   3   1  -5  140.30    4.68
  -3   1   5  137.70    4.61
  -3   1   5  141.18    4.41
   3   1  -5  135.64    5.19
   2  -1  -5   80.64    2.57
  -2  -1   5   79.53    2.59
  -2  -1   5   78.07    2.72
   2  -1  -5   77.77    2.71
  -2  -1   5   81.19    2.61
   2   1  -5   78.30    2.59
  -2   1   5   78.51    2.57
  -2   1   5   79.52    2.57
   2   1  -5   80.88    2.74
   1  -1  -5   28.99    0.97
  -1  -1   5   28.71    0.99
  -1  -1   5   27.72    0.99
   1  -1  -5   27.94    0.98
   1  -1  -5   27.59    1.04
  -1  -1   5   28.62    1.05
  -1   1   5   28.24    1.03
   1   1  -5   28.37    1.05
   1   1  -5   27.84    0.99
  -1   1   5   28.85    0.97
  -1   1   5   29.14    0.98
   1   1  -5   29.07    1.01
   0  -1  -5   38.17    1.28
   0  -1  -5   36.63    1.37
   0  -1   5   36.33    1.29
   0  -1   5   37.06    1.37
   0  -1   5   38.59    1.29
   0  -1  -5   36.96    1.29
   0   1   5   38.55    1.27
   0   1   5   37.98    1.29
   0   1  -5   36.33    1.28
   0   1   5   36.87    1.36
   0   1  -5   36.78    1.37
   0   1  -5   38.79    1.30
   1  -1   5   31.96    1.14
   1  -1   5   32.70    1.12
   1  -1   5   32.52    1.21
  -1  -1  -5   31.06    1.22
  -1  -1  -5   31.96    1.12
   1   1   5   32.10    1.22
  -1   1  -5   31.21    1.12
   1   1   5   31.16    1.13
   1   1   5   31.72    1.11
  -1   1  -5   30.70    1.21
   2  -1   5  236.44    7.76
  -2  -1  -5  209.88    7.75
  -2  -1  -5  226.77    7.32
   2  -1   5  234.37    7.35
   2   1   5  229.52    7.36
   2   1   5  228.86    7.32
  -2   1  -5  226.47    7.33
   2   1   5  228.36    7.77
   3  -1   5    1.46    0.26
   3  -1   5    0.96    0.23
  -3  -1  -5    0.96    0.20
   3   1   5    0.90    0.30
   3   1   5    0.98    0.20
  -3   1  -5    0.96    0.17
  -3   1  -5    1.13    0.22
  -4  -1  -5    0.25    0.15
   4  -1   5    0.17    0.22
   4  -1   5    0.05    0.21
   4   1   5    0.11    0.17
  -4   1  -5    0.30    0.15
  -4   1  -5    0.19    0.16
   4   1   5   -0.52    0.28
   5  -1   5   10.08    0.63
   5  -1   5   10.12    0.54
  -5  -1  -5    9.43    0.54
  -5   1  -5    9.60    0.54
   5   1   5   10.11    0.56
  -5   1  -5    9.24    0.50
   5   1   5    9.13    0.64
   6  -1   5    5.12    0.48
   6  -1   5    4.98    0.58
  -6  -1  -5    4.88    0.46
  -6   1  -5    4.22    0.38
   6   1   5    4.71    0.48
   6   1   5    4.07    0.58
   7  -1   5   37.23    1.51
  -7  -1  -5   37.40    1.47
   7  -1   5   38.05    1.69
   7   1   5   37.59    1.71
   7   1   5   39.59    1.55
  -7   1  -5   39.72    1.51
   8  -1   5    1.97    0.41
  -8  -1  -5    1.81    0.38
   8  -1   5    1.90    0.54
   8   1   5    1.19    0.41
  -8   1  -5    1.44    0.30
   8   1   5    0.85    0.53
   9  -1   5    6.45    0.57
  -9  -1  -5    8.23    0.67
   9  -1   5    6.58    0.81
   9   1   5    8.04    0.72
   9   1   5    7.95    0.80
  -9   1  -5    6.82    0.64
  10  -1   5   -0.09    0.36
  10  -1   5   -0.26    0.37
 -10  -1  -5    0.10    0.37
 -10   1  -5    0.07    0.27
  10   1   5    0.25    0.57
  10   1   5    0.09    0.39
 -11  -1  -5    0.08    0.39
  11  -1   5    1.06    0.59
  11   1   5    0.69    0.61
 -11   1  -5    1.17    0.44
  12  -1   5    2.67    0.71
 -12  -1  -5    0.71    0.45
 -12   1  -5    0.93    0.46
  12   1   5    1.50    0.70
 -13  -2   5    2.68    0.42
  13  -2  -5    3.55    0.48
  13   2  -5    1.94    0.50
  13   2  -5    2.88    0.55
  12  -2  -5    5.34    0.66
 -12  -2   5    5.23    0.48
  12  -2  -5    5.53    0.56
 -12   2   5    5.22    0.42
  12   2  -5    5.25    0.70
  12   2  -5    4.93    0.65
 -11  -2   5    7.84    0.54
  11  -2  -5    6.96    0.60
  11  -2  -5    7.91    0.77
  11   2  -5    8.22    0.76
  11   2  -5    8.02    0.78
 -11   2   5    8.63    0.46
 -10  -2   5   10.38    0.57
  10  -2  -5    9.54    0.63
  10  -2  -5   10.52    0.82
 -10   2   5    9.66    0.48
  10   2  -5   10.40    0.83
  10   2  -5    9.26    0.76
   9  -2  -5   27.19    1.44
   9  -2  -5   26.83    1.19
  -9  -2   5   30.35    1.12
  -9   2   5   30.34    1.04
   9   2  -5   27.28    1.48
   9   2  -5   27.77    1.33
  -8  -2   5    0.05    0.18
   8  -2  -5   -0.12    0.25
   8  -2  -5   -0.25    0.20
   8   2  -5   -0.22    0.25
   8   2  -5   -0.28    0.15
   8   2  -5   -0.10    0.23
   7  -2  -5    0.62    0.22
   7  -2  -5    0.63    0.09
  -7  -2   5    1.03    0.17
   7  -2  -5    0.57    0.13
   7  -2  -5    0.51    0.19
  -7  -2   5    0.97    0.19
   7   2  -5    0.92    0.35
   7   2  -5    0.92    0.29
  -7   2   5    0.86    0.13
   7   2  -5    1.02    0.20
   7   2  -5    0.61    0.19
   6  -2  -5   27.25    0.94
  -6  -2   5   29.69    1.05
   6  -2  -5   28.36    1.03
   6  -2  -5   29.73    1.10
   6  -2  -5   30.20    0.94
   6  -2  -5   28.44    1.32
  -6  -2   5   28.68    1.08
   6   2  -5   27.72    1.38
   6   2  -5   28.79    1.10
  -6   2   5   28.93    0.97
   6   2  -5   29.41    1.22
   6   2  -5   29.53    1.11
  -5  -2   5   61.62    2.11
   5  -2  -5   64.63    2.53
   5  -2  -5   63.13    2.18
  -5  -2   5   60.91    2.20
   5  -2  -5   63.99    2.14
   5   2  -5   61.93    2.31
   5   2  -5   62.18    2.15
   5   2  -5   65.15    2.23
   5   2  -5   61.73    2.56
  -5   2   5   63.88    2.03
  -4  -2   5    3.78    0.25
   4  -2  -5    4.26    0.18
  -4  -2   5    3.99    0.26
   4  -2  -5    4.44    0.21
   4   2  -5    4.63    0.42
   4   2  -5    3.89    0.28
   4   2  -5    3.87    0.33
   4   2  -5    3.78    0.26
  -4   2   5    4.16    0.17
  -4   2   5    4.08    0.17
  -3  -2   5   34.52    1.24
   3  -2  -5   34.09    1.18
   3  -2  -5   35.37    1.11
   3  -2  -5   33.77    1.11
  -3  -2   5   33.10    1.19
   3   2  -5   35.57    1.32
  -3   2   5   33.30    1.12
   3   2  -5   32.79    1.45
   3   2  -5   34.88    1.26
  -3   2   5   34.94    1.12
   2  -2  -5    0.67    0.08
  -2  -2   5    0.43    0.11
   2  -2  -5    0.62    0.08
  -2  -2   5    0.54    0.14
  -2  -2   5    0.59    0.14
   2  -2  -5    0.49    0.09
   2   2  -5    0.36    0.14
  -2   2   5    0.55    0.06
  -2   2   5    0.51    0.07
   2   2  -5    0.56    0.15
  -2   2   5    0.51    0.09
   1  -2  -5   13.06    0.50
  -1  -2   5   12.98    0.52
   1  -2  -5   12.31    0.54
  -1  -2   5   13.06    0.53
  -1  -2   5   12.64    0.54
   1  -2  -5   13.46    0.48
  -1   2   5   13.12    0.51
   1   2  -5   13.07    0.55
  -1   2   5   13.09    0.48
  -1   2   5   12.82    0.50
   0  -2   5    2.11    0.18
   0  -2  -5    1.84    0.18
   0  -2   5    2.14    0.21
   0  -2   5    2.07    0.21
   0  -2  -5    1.92    0.16
   0  -2  -5    2.69    0.23
   0   2   5    2.04    0.20
   0   2  -5    1.88    0.20
   0   2   5    2.38    0.17
   0   2   5    1.97    0.21
   0   2  -5    2.11    0.23
   1  -2   5    9.11    0.42
  -1  -2  -5    9.75    0.41
  -1  -2  -5    9.38    0.50
   1  -2   5    9.85    0.44
   1  -2   5   10.23    0.52
   1   2   5   10.38    0.47
  -1   2  -5    9.06    0.46
   1   2   5    9.71    0.51
  -1   2  -5    8.83    0.46
   1   2   5    9.33    0.40
   2  -2   5  158.37    5.10
   2  -2   5  163.37    5.39
  -2  -2  -5  146.31    5.40
  -2  -2  -5  156.17    5.07
   2   2   5  157.29    5.11
   2   2   5  159.10    5.06
  -2   2  -5  156.59    5.09
   2   2   5  152.76    5.40
   3  -2   5   49.74    1.72
  -3  -2  -5   48.71    1.69
   3  -2   5   50.59    1.86
  -3   2  -5   46.72    1.69
   3   2   5   48.85    1.88
  -3   2  -5   46.92    1.87
   3   2   5   47.44    1.73
   4  -2   5   18.77    0.88
  -4  -2  -5   18.71    0.77
   4  -2   5   18.75    0.79
   4   2   5   18.54    0.92
  -4   2  -5   18.65    0.79
  -4   2  -5   18.27    0.81
   4   2   5   18.26    0.82
   5  -2   5   14.11    0.67
   5  -2   5   15.57    0.79
  -5  -2  -5   13.47    0.64
   5   2   5   14.41    0.87
  -5   2  -5   12.98    0.64
  -5   2  -5   13.62    0.67
   5   2   5   13.57    0.70
  -6  -2  -5   31.69    1.23
   6  -2   5   30.12    1.37
   6  -2   5   30.88    1.25
  -6   2  -5   30.44    1.23
  -6   2  -5   27.77    1.28
   6   2   5   29.46    1.26
   6   2   5   33.07    1.50
   7  -2   5    0.89    0.46
   7  -2   5    0.93    0.34
  -7  -2  -5    0.81    0.26
  -7   2  -5    0.85    0.32
   7   2   5    0.85    0.39
   7   2   5    1.09    0.39
   8  -2   5    1.46    0.53
   8  -2   5    0.97    0.36
  -8  -2  -5    1.89    0.39
   8   2   5    1.30    0.58
   8   2   5    1.15    0.42
  -8   2  -5    1.80    0.39
  -9  -2  -5    1.07    0.39
   9  -2   5    1.16    0.55
   9  -2   5    1.80    0.41
  -9   2  -5    1.24    0.40
   9   2   5    1.55    0.46
   9   2   5    2.03    0.65
  10  -2   5    1.32    0.46
 -10  -2  -5    0.87    0.41
  10   2   5    1.87    0.54
  10   2   5    0.99    0.44
 -10   2  -5    1.78    0.37
  11  -2   5    1.98    0.64
 -11  -2  -5    1.64    0.47
 -11   2  -5    0.98    0.43
  11   2   5    2.45    0.59
  12  -2   5    3.29    0.75
 -12  -2  -5    2.99    0.55
 -12   2  -5    2.96    0.55
  12   2   5    3.04    0.68
 -13  -3   5    0.65    0.33
  13   3  -5    1.78    0.53
  13   3  -5    1.12    0.57
 -12  -3   5    1.00    0.32
  12  -3  -5    0.98    0.32
  12   3  -5    0.65    0.48
  12   3  -5    1.36    0.49
  11  -3  -5    1.73    0.31
  11  -3  -5    1.31    0.39
 -11  -3   5    0.47    0.28
  11   3  -5    0.95    0.44
 -11   3   5    1.09    0.21
  11   3  -5    1.09    0.38
 -10  -3   5    8.93    0.55
  10  -3  -5    7.65    0.55
  10  -3  -5    8.77    0.74
 -10   3   5    8.76    0.43
  10   3  -5    8.03    0.74
  10   3  -5    9.01    0.80
  -9  -3   5    0.45    0.23
   9  -3  -5    0.62    0.30
   9  -3  -5    0.72    0.22
   9   3  -5    0.78    0.40
  -9   3   5    0.63    0.15
   9   3  -5    0.76    0.38
  -8  -3   5    1.15    0.24
   8  -3  -5    0.79    0.21
   8  -3  -5    1.46    0.33
   8   3  -5    1.14    0.41
   8   3  -5    1.04    0.24
  -8   3   5    0.91    0.15
   8   3  -5    1.08    0.37
  -7  -3   5   25.14    1.02
  -7  -3   5   26.98    1.01
   7  -3  -5   26.08    0.94
   7  -3  -5   25.29    1.24
   7  -3  -5   25.00    0.99
   7   3  -5   24.91    1.05
  -7   3   5   26.38    0.88
   7   3  -5   25.26    1.20
   7   3  -5   26.35    1.38
  -6  -3   5   16.23    0.70
  -6  -3   5   16.70    0.68
   6  -3  -5   16.49    0.86
   6  -3  -5   16.65    0.65
   6  -3  -5   16.74    0.60
  -6   3   5   17.35    0.56
   6   3  -5   16.61    0.71
   6   3  -5   15.63    0.73
   6   3  -5   15.97    0.84
   6   3  -5   16.01    0.96
  -5  -3   5    2.99    0.25
   5  -3  -5    2.94    0.17
  -5  -3   5    3.02    0.26
   5  -3  -5    3.14    0.14
   5   3  -5    3.00    0.26
   5   3  -5    2.75    0.34
   5   3  -5    2.74    0.38
   5   3  -5    3.18    0.29
  -4  -3   5    2.64    0.23
   4  -3  -5    2.67    0.12
  -4  -3   5    2.40    0.23
   4  -3  -5    2.06    0.10
   4   3  -5    2.24    0.29
   4   3  -5    2.32    0.20
   4   3  -5    2.01    0.32
   4   3  -5    2.05    0.22
   3  -3  -5  148.14    5.22
  -3  -3   5  156.77    5.05
  -3  -3   5  154.69    5.30
   3   3  -5  162.23    5.32
   3   3  -5  154.72    5.87
  -3   3   5  147.93    4.94
  -3   3   5  161.37    4.97
   3   3  -5  162.16    5.39
  -2  -3   5  211.64    6.88
   2  -3  -5  210.79    6.80
  -2  -3   5  217.61    7.23
   2  -3  -5  224.89    6.82
   2  -3  -5  196.01    7.18
  -2   3   5  225.75    7.16
   2   3  -5  224.34    7.25
   2   3  -5  211.87    7.93
  -2   3   5  208.42    7.15
  -2   3   5  208.24    6.81
   1  -3  -5    4.34    0.26
  -1  -3   5    5.03    0.28
  -1  -3   5    4.26    0.28
   1  -3  -5    4.29    0.21
   1  -3  -5    4.32    0.23
  -1  -3   5    4.12    0.28
  -1   3   5    4.10    0.24
  -1   3   5    4.51    0.24
   1   3  -5    4.46    0.34
  -1   3   5    4.33    0.21
  -1   3   5    4.38    0.21
   1   3  -5    4.36    0.28
   0  -3   5   43.78    1.48
   0  -3  -5   43.31    1.44
   0  -3   5   42.56    1.56
   0  -3  -5   40.75    1.57
   0  -3   5   43.22    1.48
   0   3  -5   41.22    1.49
   0   3   5   42.18    1.55
   0   3  -5   42.55    1.68
   0   3   5   44.10    1.44
   0   3  -5   41.81    1.56
   0   3   5   43.27    1.47
  -1  -3  -5   44.79    1.52
   1  -3   5   44.72    1.65
  -1  -3  -5   44.25    1.68
   1  -3   5   45.08    1.55
   1   3   5   45.69    1.57
   1   3   5   44.93    1.52
  -1   3  -5   43.44    1.56
   1   3   5   43.86    1.66
  -2  -3  -5   80.21    2.68
  -2  -3  -5   75.78    2.90
   2  -3   5   82.57    2.71
   2  -3   5   82.96    2.88
   2   3   5   79.61    2.90
   2   3   5   81.49    2.68
   2   3   5   79.56    2.74
  -2   3  -5   82.03    2.72
   3  -3   5   29.23    1.18
  -3  -3  -5   27.76    1.05
   3  -3   5   27.54    1.05
   3   3   5   27.49    1.19
   3   3   5   27.13    1.09
  -3   3  -5   26.96    1.07
  -4  -3  -5   44.85    1.65
   4  -3   5   47.12    1.67
   4  -3   5   48.57    1.83
  -4   3  -5   45.84    1.67
   4   3   5   46.55    1.88
  -4   3  -5   44.69    1.77
   4   3   5   45.63    1.71
  -5  -3  -5    4.72    0.37
   5  -3   5    4.57    0.51
   5  -3   5    4.95    0.44
  -5   3  -5    5.32    0.43
   5   3   5    5.94    0.46
   5   3   5    4.66    0.57
  -5   3  -5    4.61    0.32
  -6  -3  -5   95.67    3.31
   6  -3   5   98.14    3.33
   6  -3   5  102.43    3.60
  -6   3  -5   95.06    3.31
  -6   3  -5   93.01    3.63
   6   3   5   99.43    3.41
   6   3   5   93.89    3.64
  -7  -3  -5    0.18    0.23
   7  -3   5   -0.16    0.30
   7  -3   5   -0.20    0.29
  -7   3  -5    0.02    0.22
   7   3   5   -0.23    0.36
   7   3   5   -0.29    0.47
  -8  -3  -5    0.38    0.26
   8  -3   5    1.29    0.40
   8  -3   5    0.79    0.34
   8   3   5    1.18    0.44
   8   3   5    0.86    0.43
  -8   3  -5    0.55    0.25
  -9  -3  -5    0.07    0.27
   9  -3   5   -0.03    0.31
   9  -3   5    0.17    0.34
   9   3   5    0.08    0.40
   9   3   5   -0.03    0.27
  -9   3  -5    0.40    0.26
  10  -3   5   -0.39    0.34
 -10  -3  -5    0.18    0.28
  10   3   5    0.85    0.35
 -10   3  -5    0.04    0.35
  10   3   5   -0.18    0.55
  11  -3   5    1.12    0.57
 -11  -3  -5    0.61    0.33
  11   3   5    1.04    0.46
 -11   3  -5    0.83    0.32
  11   3   5    1.93    0.67
 -12  -3  -5   -0.18    0.44
 -12   3  -5    0.91    0.42
 -13  -4   5    1.13    0.36
  13   4  -5    0.78    0.57
  13   4  -5    1.06    0.57
 -12  -4   5    7.90    0.61
  12   4  -5    6.70    0.89
  12   4  -5   10.27    0.92
  11  -4  -5    0.34    0.23
 -11  -4   5    0.25    0.27
  11  -4  -5    0.09    0.28
  11   4  -5    0.40    0.33
  11   4  -5    0.46    0.44
  10  -4  -5    6.30    0.63
  10  -4  -5    5.76    0.44
 -10  -4   5    6.21    0.50
 -10   4   5    5.98    0.33
  10   4  -5    5.11    0.71
  10   4  -5    5.60    0.68
  -9  -4   5    3.35    0.34
   9  -4  -5    2.52    0.44
   9  -4  -5    3.43    0.33
   9   4  -5    3.97    0.44
   9   4  -5    2.71    0.52
  -9   4   5    3.28    0.23
   9   4  -5    3.02    0.56
  -8  -4   5   11.62    0.62
   8  -4  -5   12.01    0.78
   8  -4  -5   11.50    0.54
  -8  -4   5   12.25    0.61
   8   4  -5   11.41    0.83
   8   4  -5   11.02    0.85
   8   4  -5   12.80    0.68
  -8   4   5   12.23    0.45
   7  -4  -5   28.78    1.01
   7  -4  -5   29.47    1.35
   7  -4  -5   27.58    1.04
  -7  -4   5   28.37    1.11
  -7  -4   5   28.56    1.13
   7   4  -5   27.40    1.17
   7   4  -5   26.98    1.28
  -7   4   5   30.21    0.93
   7   4  -5   27.58    1.49
  -6  -4   5    7.09    0.42
   6  -4  -5    7.17    0.28
  -6  -4   5    7.29    0.43
   6  -4  -5    7.25    0.30
   6  -4  -5    7.16    0.52
   6   4  -5    7.18    0.48
   6   4  -5    6.53    0.57
   6   4  -5    6.93    0.59
   5  -4  -5    0.46    0.04
  -5  -4   5    0.32    0.14
  -5  -4   5    0.35    0.14
   5   4  -5    0.25    0.20
   5   4  -5    0.18    0.19
   5   4  -5    0.01    0.18
  -4  -4   5   59.12    2.13
  -4  -4   5   59.21    2.03
   4   4  -5   60.00    2.09
   4   4  -5   60.51    2.25
   4   4  -5   59.20    2.46
  -3  -4   5    1.47    0.18
   3  -4  -5    1.37    0.12
  -3  -4   5    1.45    0.18
  -3   4   5    1.48    0.07
  -3   4   5    1.76    0.08
   3   4  -5    1.27    0.28
   3   4  -5    1.56    0.24
  -2  -4   5    0.53    0.13
   2  -4  -5    0.56    0.07
   2  -4  -5    0.75    0.09
   2  -4  -5    0.68    0.12
  -2  -4   5    0.48    0.14
  -2   4   5    0.57    0.10
   2   4  -5    0.27    0.18
  -2   4   5    0.56    0.04
   2   4  -5    0.01    0.20
  -2   4   5    0.52    0.04
   1  -4  -5    1.09    0.14
  -1  -4   5    1.18    0.18
   1  -4  -5    1.06    0.16
   1  -4  -5    0.99    0.11
  -1  -4   5    1.22    0.16
  -1   4   5    1.20    0.12
   1   4  -5    1.10    0.18
  -1   4   5    1.09    0.11
  -1   4   5    1.10    0.16
  -1   4   5    0.93    0.14
   0  -4  -5   83.35    2.72
   0  -4  -5   81.19    2.93
   0  -4   5   82.40    2.92
   0  -4   5   84.00    2.78
   0   4   5   85.55    2.72
   0   4   5   79.71    2.90
   0   4  -5   83.12    3.16
   0   4   5   85.71    2.77
   1  -4   5   26.06    0.99
  -1  -4  -5   25.18    1.07
  -1  -4  -5   26.84    0.95
   1  -4   5   26.57    1.05
   1   4   5   26.31    1.07
   1   4   5   27.35    1.01
  -1   4  -5   25.97    1.07
   1   4   5   26.34    0.94
  -1   4  -5   24.76    1.01
   2  -4   5    7.30    0.45
  -2  -4  -5    7.56    0.37
   2  -4   5    7.64    0.43
   2   4   5    6.86    0.51
   2   4   5    7.96    0.38
  -2   4  -5    7.26    0.37
   2   4   5    7.82    0.47
  -2   4  -5    6.89    0.41
   3  -4   5   15.07    0.73
   3  -4   5   14.40    0.65
  -3  -4  -5   15.07    0.63
   3   4   5   14.44    0.70
   3   4   5   14.96    0.82
  -3   4  -5   14.69    0.66
  -4  -4  -5  102.09    3.57
   4  -4   5  107.80    3.59
   4  -4   5  116.48    3.86
  -4   4  -5  103.65    3.93
   4   4   5  109.12    3.92
   4   4   5  106.46    3.66
  -4   4  -5  104.94    3.59
  -5  -4  -5    7.47    0.45
   5  -4   5    7.34    0.62
   5  -4   5    6.97    0.50
  -5   4  -5    6.91    0.52
   5   4   5    7.18    0.61
  -5   4  -5    6.15    0.31
   5   4   5    7.19    0.52
  -6  -4  -5   49.03    1.80
   6  -4   5   50.81    2.00
   6  -4   5   48.10    1.79
   6   4   5   48.88    2.05
  -6   4  -5   48.17    1.80
  -6   4  -5   45.37    1.79
   6   4   5   47.01    1.86
   7  -4   5    7.75    0.59
   7  -4   5    8.27    0.77
  -7  -4  -5    9.34    0.64
  -7   4  -5    8.24    0.62
   7   4   5    8.36    0.64
   7   4   5    7.81    0.75
  -8  -4  -5    1.17    0.37
   8  -4   5    0.75    0.47
   8  -4   5    1.18    0.34
   8   4   5    0.53    0.54
   8   4   5    0.79    0.33
  -8   4  -5    1.10    0.36
  -9  -4  -5    2.00    0.44
   9  -4   5    0.79    0.37
   9  -4   5    0.75    0.38
  -9   4  -5    1.72    0.42
   9   4   5    1.75    0.39
   9   4   5    1.79    0.65
 -10  -4  -5    1.24    0.43
  10  -4   5    1.07    0.52
 -10   4  -5    1.57    0.43
  10   4   5    2.32    0.71
  10   4   5    2.47    0.55
  11  -4   5   -0.02    0.49
 -11  -4  -5    0.23    0.32
  11   4   5   -0.01    0.61
  11   4   5    0.11    0.31
 -11   4  -5   -0.14    0.36
 -12   4  -5   -0.25    0.40
 -13  -5   5    0.13    0.32
  13   5  -5    0.90    0.64
 -12  -5   5   -0.01    0.30
  12   5  -5    0.81    0.51
  12   5  -5    0.20    0.51
  11  -5  -5    4.38    0.41
 -11  -5   5    3.73    0.45
  11   5  -5    3.28    0.66
  11   5  -5    3.01    0.63
  10  -5  -5   22.16    1.23
 -10  -5   5   22.56    1.03
  10  -5  -5   23.45    0.96
  10   5  -5   24.53    1.50
  10   5  -5   22.31    1.26
  -9  -5   5    3.73    0.37
   9  -5  -5    3.42    0.29
   9  -5  -5    2.86    0.44
  -9  -5   5    3.43    0.36
   9   5  -5    2.55    0.42
   9   5  -5    3.37    0.54
   9   5  -5    3.61    0.57
   8  -5  -5    3.94    0.27
   8  -5  -5    4.93    0.53
  -8  -5   5    4.14    0.40
  -8  -5   5    4.14    0.40
   8   5  -5    4.78    0.55
   8   5  -5    4.20    0.61
   8   5  -5    4.24    0.41
   7  -5  -5    7.78    0.60
  -7  -5   5    8.69    0.53
   7  -5  -5    8.63    0.34
   7  -5  -5    8.82    0.37
  -7  -5   5    8.45    0.53
   7   5  -5    9.18    0.74
   7   5  -5    8.80    0.59
   7   5  -5    8.57    0.73
   6  -5  -5    9.37    0.34
  -6  -5   5    9.64    0.53
   6  -5  -5    9.28    0.33
  -6  -5   5    8.80    0.52
   6   5  -5    8.65    0.70
   6   5  -5    8.73    0.69
   6   5  -5    9.24    0.58
  -5  -5   5   12.60    0.59
  -5  -5   5   12.64    0.60
   5   5  -5   13.57    0.68
   5   5  -5   13.10    0.77
   5   5  -5   13.71    0.86
   4  -5  -5   38.65    1.26
  -4  -5   5   37.40    1.41
  -4  -5   5   37.04    1.35
   4   5  -5   37.65    1.41
   4   5  -5   35.60    1.65
   4   5  -5   35.47    1.52
   3  -5  -5    3.59    0.18
  -3  -5   5    3.36    0.32
   3  -5  -5    3.95    0.21
  -3  -5   5    3.44    0.31
  -3   5   5    3.56    0.15
   3   5  -5    3.88    0.36
   3   5  -5    3.13    0.39
   3   5  -5    3.19    0.37
  -3   5   5    3.91    0.18
   2  -5  -5   69.62    2.36
   2  -5  -5   67.57    2.41
   2  -5  -5   67.92    2.23
   2  -5  -5   74.00    2.26
  -2  -5   5   67.19    2.45
  -2  -5   5   66.66    2.33
   2   5  -5   71.90    2.56
  -2   5   5   66.02    2.32
  -2   5   5   69.57    2.32
   2   5  -5   65.80    2.74
  -2   5   5   71.57    2.27
   1  -5  -5   11.01    0.53
   1  -5  -5   11.22    0.44
  -1  -5   5   11.90    0.54
  -1  -5   5   11.10    0.54
   1  -5  -5   11.29    0.47
  -1   5   5   11.19    0.50
  -1   5   5   11.37    0.45
  -1   5   5   12.21    0.50
   1   5  -5   11.24    0.63
   0  -5   5    0.01    0.14
   0  -5  -5    0.14    0.14
   0  -5   5    0.21    0.18
   0  -5  -5    0.22    0.10
   0   5   5    0.28    0.15
   0   5   5    0.13    0.17
   0   5  -5    0.20    0.14
   0   5   5    0.31    0.11
  -1  -5  -5    0.23    0.13
   1  -5   5    0.10    0.13
   1  -5   5    0.06    0.16
  -1  -5  -5    0.43    0.20
   1   5   5    0.16    0.18
   1   5   5    0.04    0.14
   1   5   5    0.10    0.13
  -1   5  -5    0.07    0.12
  -2  -5  -5    4.71    0.32
   2  -5   5    4.42    0.35
   2  -5   5    4.50    0.37
   2   5   5    4.29    0.40
   2   5   5    4.90    0.36
  -2   5  -5    4.50    0.34
  -2   5  -5    4.53    0.28
   3  -5   5    0.27    0.21
   3  -5   5    0.20    0.16
  -3  -5  -5    0.16    0.14
   3   5   5   -0.11    0.29
   3   5   5   -0.18    0.17
  -3   5  -5    0.21    0.06
  -3   5  -5   -0.49    0.20
  -4  -5  -5   13.21    0.64
   4  -5   5   13.96    0.77
   4  -5   5   13.33    0.62
  -4   5  -5   12.86    0.64
   4   5   5   13.26    0.79
   4   5   5   11.21    0.67
   5  -5   5    7.72    0.53
   5  -5   5    7.21    0.65
  -5  -5  -5    7.46    0.47
   5   5   5    7.78    0.56
  -5   5  -5    6.67    0.56
   5   5   5    6.82    0.63
   6  -5   5   35.66    1.38
   6  -5   5   33.87    1.50
  -6  -5  -5   33.51    1.35
   6   5   5   33.59    1.61
  -6   5  -5   34.92    1.39
   6   5   5   36.07    1.47
  -7  -5  -5    2.75    0.36
   7  -5   5    3.56    0.54
   7  -5   5    2.77    0.38
   7   5   5    2.52    0.62
  -7   5  -5    2.72    0.43
   7   5   5    2.44    0.42
   8  -5   5   10.14    0.63
   8  -5   5   12.79    0.92
  -8  -5  -5   10.86    0.68
   8   5   5   13.61    0.92
  -8   5  -5   10.92    0.68
   8   5   5   12.96    1.08
  -9  -5  -5    0.37    0.29
   9  -5   5    0.95    0.50
   9   5   5   -0.45    0.56
  -9   5  -5    0.26    0.27
   9   5   5    0.31    0.32
  10  -5   5    0.53    0.50
 -10  -5  -5    0.24    0.40
  10   5   5    0.72    0.37
 -10   5  -5   -0.20    0.27
  10   5   5    0.40    0.64
 -11  -5  -5   -0.22    0.42
  11  -5   5    0.26    0.49
 -11   5  -5    0.05    0.40
  11   5   5    1.18    0.50
  11   5   5    1.41    0.74
 -12  -6   5    0.48    0.36
  12   6  -5   -0.12    0.50
  12   6  -5   -0.11    0.52
 -11  -6   5    5.82    0.55
  11   6  -5    3.90    0.76
  11   6  -5    5.04    0.69
 -10  -6   5    0.83    0.27
  10   6  -5    0.47    0.39
  10   6  -5    1.12    0.53
  -9  -6   5    1.99    0.31
   9  -6  -5    2.08    0.21
  -9  -6   5    1.71    0.32
   9  -6  -5    1.94    0.39
   9   6  -5    2.35    0.40
   9   6  -5    1.20    0.50
   9   6  -5    1.71    0.52
   8  -6  -5    9.42    0.65
   8  -6  -5    8.88    0.39
  -8  -6   5    8.95    0.53
  -8  -6   5    9.04    0.54
   8   6  -5    7.84    0.79
   8   6  -5    7.60    0.57
   8   6  -5   10.24    0.93
  -7  -6   5    0.99    0.29
   7  -6  -5    1.39    0.14
   7  -6  -5    1.03    0.27
  -7  -6   5    1.17    0.24
   7  -6  -5    1.54    0.12
   7   6  -5    1.36    0.38
   7   6  -5    0.89    0.44
   7   6  -5    1.35    0.35
  -6  -6   5   23.99    1.04
   6  -6  -5   24.91    0.84
  -6  -6   5   24.57    1.01
   6   6  -5   25.30    1.33
   6   6  -5   23.57    1.06
   6   6  -5   23.58    1.23
   5  -6  -5   21.21    0.71
  -5  -6   5   20.05    0.84
  -5  -6   5   20.72    0.90
   5   6  -5   20.06    1.11
   5   6  -5   19.04    0.93
   5   6  -5   19.87    1.01
  -4  -6   5   29.95    1.20
   4  -6  -5   31.61    1.06
  -4  -6   5   30.11    1.15
   4   6  -5   29.80    1.23
   4   6  -5   30.11    1.44
   4   6  -5   29.95    1.35
   3  -6  -5    5.22    0.29
   3  -6  -5    5.01    0.19
   3  -6  -5    5.23    0.20
   3  -6  -5    4.74    0.25
  -3  -6   5    5.19    0.41
  -3  -6   5    5.48    0.39
   3   6  -5    4.99    0.39
   3   6  -5    5.22    0.44
  -3   6   5    5.18    0.22
  -3   6   5    5.15    0.25
   3   6  -5    4.97    0.46
   2  -6  -5    4.02    0.24
  -2  -6   5    4.16    0.33
   2  -6  -5    4.00    0.28
  -2  -6   5    3.73    0.34
   2  -6  -5    3.90    0.20
  -2   6   5    4.18    0.19
  -2   6   5    3.53    0.21
  -2   6   5    4.13    0.21
   2   6  -5    3.53    0.44
  -2   6   5    4.57    0.27
   2   6  -5    4.29    0.45
  -1  -6   5   23.04    0.91
   1  -6  -5   22.77    0.94
   1  -6  -5   22.83    0.81
  -1  -6   5   22.23    0.96
   1  -6  -5   22.50    0.86
  -1   6   5   21.92    0.89
   1   6  -5   22.09    1.05
  -1   6   5   22.38    0.81
  -1   6   5   23.60    0.88
   1   6  -5   24.06    1.03
   0  -6  -5   28.21    1.14
   0  -6  -5   27.15    1.04
   0  -6   5   26.66    1.04
   0  -6  -5   27.85    0.98
   0  -6   5   28.25    1.11
   0   6   5   27.84    0.99
   0   6  -5   27.25    1.20
   0   6   5   26.26    1.10
   0   6   5   27.67    1.05
   1  -6   5   69.22    2.36
   1  -6   5   67.47    2.49
  -1  -6  -5   68.50    2.44
  -1  -6  -5   70.22    2.31
  -1  -6  -5   67.84    2.54
  -1   6  -5   69.69    2.64
   1   6   5   70.71    2.31
   1   6   5   68.70    2.38
   1   6   5   65.50    2.51
  -2  -6  -5    9.54    0.48
   2  -6   5    9.86    0.59
   2  -6   5    9.80    0.50
   2   6   5    9.50    0.53
   2   6   5    9.39    0.63
  -2   6  -5    9.76    0.47
   3  -6   5    0.01    0.21
   3  -6   5   -0.55    0.25
  -3  -6  -5    0.07    0.14
   3   6   5   -0.17    0.22
   3   6   5   -0.11    0.19
  -3   6  -5    0.05    0.24
  -4  -6  -5   16.18    0.72
   4  -6   5   17.00    0.77
   4  -6   5   15.94    0.87
   4   6   5   16.25    0.97
  -4   6  -5   15.77    0.76
   4   6   5   16.73    0.83
   5  -6   5   28.87    1.16
   5  -6   5   31.15    1.35
  -5  -6  -5   28.59    1.19
  -5   6  -5   29.37    1.23
   5   6   5   28.63    1.40
   5   6   5   29.40    1.28
   6  -6   5    0.43    0.31
  -6  -6  -5    0.87    0.32
   6  -6   5    0.61    0.29
   6   6   5    0.88    0.40
   6   6   5    0.69    0.48
  -6   6  -5    0.54    0.25
  -7  -6  -5    3.84    0.42
   7  -6   5    3.70    0.39
   7  -6   5    3.16    0.47
  -7   6  -5    3.34    0.46
   7   6   5    3.85    0.51
   7   6   5    4.82    0.74
   8  -6   5    9.96    0.83
  -8  -6  -5    8.09    0.61
   8  -6   5    8.92    0.62
   8   6   5    7.43    0.70
   8   6   5    8.77    0.96
  -8   6  -5    9.54    0.71
  -9  -6  -5    0.40    0.29
   9  -6   5    0.17    0.45
   9   6   5    0.62    0.60
   9   6   5    0.52    0.48
  -9   6  -5    0.57    0.38
  10  -6   5    3.79    0.65
 -10  -6  -5    2.95    0.54
  10   6   5    3.79    0.58
  10   6   5    4.41    0.87
 -10   6  -5    2.93    0.51
  11  -6   5    0.32    0.47
 -11  -6  -5   -0.09    0.46
  11   6   5    1.37    0.76
  11   6   5    0.29    0.48
 -11   6  -5    0.16    0.40
 -12  -7   5   -0.32    0.34
  12   7  -5    0.20    0.46
  12   7  -5    0.15    0.41
 -11  -7   5    0.45    0.27
  11   7  -5    0.23    0.55
  11   7  -5   -0.53    0.49
 -10  -7   5    3.33    0.47
  10   7  -5    3.02    0.61
  10   7  -5    2.86    0.57
  -9  -7   5    1.97    0.36
   9  -7  -5    2.78    0.41
  -9  -7   5    1.65    0.38
   9   7  -5    1.39    0.46
   9   7  -5    2.25    0.45
   9   7  -5    2.41    0.60
   8  -7  -5   21.50    0.81
  -8  -7   5   21.99    0.99
   8  -7  -5   22.40    1.12
  -8  -7   5   22.44    1.02
   8   7  -5   22.29    1.35
   8   7  -5   22.24    1.10
   8   7  -5   22.81    1.31
  -7  -7   5   38.33    1.58
   7  -7  -5   43.65    1.76
   7  -7  -5   39.40    1.37
  -7  -7   5   41.04    1.54
   7   7  -5   37.02    1.58
   7   7  -5   38.47    1.81
   7   7  -5   38.67    1.94
  -6  -7   5    2.73    0.32
   6  -7  -5    2.56    0.15
  -6  -7   5    2.01    0.34
   6   7  -5    2.24    0.34
   6   7  -5    2.27    0.44
   6   7  -5    2.21    0.41
   5  -7  -5   15.28    0.54
  -5  -7   5   14.38    0.72
  -5  -7   5   13.94    0.70
   5   7  -5   14.56    0.94
   5   7  -5   15.12    0.87
   5   7  -5   14.15    0.79
  -4  -7   5   12.57    0.66
   4  -7  -5   13.07    0.49
  -4  -7   5   11.93    0.60
   4   7  -5   12.39    0.86
   4   7  -5   12.04    0.71
  -4   7   5   11.39    0.43
   4   7  -5   12.50    0.80
  -4   7   5   12.95    0.46
  -3  -7   5   33.19    1.30
   3  -7  -5   34.63    1.23
   3  -7  -5   33.70    1.18
  -3  -7   5   33.12    1.25
   3  -7  -5   33.05    1.08
  -3   7   5   30.83    1.10
   3   7  -5   32.18    1.31
   3   7  -5   31.44    1.43
   3   7  -5   31.18    1.51
  -3   7   5   33.93    1.14
  -2  -7   5   19.28    0.83
   2  -7  -5   20.78    0.78
  -2  -7   5   19.55    0.88
   2  -7  -5   20.72    0.72
   2  -7  -5   20.73    0.85
  -2   7   5   20.16    0.73
   2   7  -5   19.38    1.04
  -2   7   5   21.54    0.79
   2   7  -5   19.59    1.01
  -2   7   5   19.68    0.76
   1  -7  -5   27.09    0.96
  -1  -7   5   27.38    1.06
   1  -7  -5   27.69    1.03
  -1  -7   5   26.19    1.10
   1  -7  -5   27.10    1.12
  -1   7   5   25.38    1.05
   1   7  -5   26.50    1.25
   1   7  -5   28.72    1.23
  -1   7   5   27.09    0.96
  -1   7   5   28.34    1.04
   0  -7  -5    0.36    0.19
   0  -7   5    0.51    0.20
   0  -7   5    0.38    0.17
   0  -7  -5    0.32    0.15
   0  -7  -5    0.19    0.13
   0   7  -5    0.22    0.27
   0   7   5    0.27    0.19
   0   7   5    0.45    0.14
   0   7   5    0.41    0.22
   0   7  -5    0.36    0.18
  -1  -7  -5    2.06    0.35
  -1  -7  -5    1.92    0.23
  -1  -7  -5    1.95    0.23
   1  -7   5    1.91    0.32
   1  -7   5    2.03    0.25
   1   7   5    2.23    0.33
  -1   7  -5    1.69    0.24
   1   7   5    2.00    0.30
   1   7   5    2.30    0.22
   2  -7   5    3.83    0.37
  -2  -7  -5    3.58    0.31
  -2  -7  -5    4.05    0.29
   2  -7   5    3.62    0.35
   2   7   5    3.69    0.45
   2   7   5    3.68    0.41
  -2   7  -5    3.76    0.28
   3  -7   5    1.62    0.29
  -3  -7  -5    1.80    0.27
   3  -7   5    1.48    0.36
   3   7   5    1.41    0.33
   3   7   5    1.64    0.36
   4  -7   5    7.37    0.53
   4  -7   5    8.27    0.57
  -4  -7  -5    9.46    0.53
   4   7   5    7.86    0.72
  -4   7  -5    7.15    0.52
   4   7   5    7.22    0.63
   5  -7   5    6.07    0.45
   5  -7   5    6.49    0.56
  -5  -7  -5    7.28    0.52
   5   7   5    6.33    0.66
  -5   7  -5    6.65    0.57
   5   7   5    7.08    0.58
   6  -7   5    1.08    0.44
  -6  -7  -5    1.87    0.37
   6  -7   5    1.61    0.34
  -6   7  -5    2.09    0.33
   6   7   5    1.72    0.54
   6   7   5    1.06    0.35
   7  -7   5    6.92    0.68
  -7  -7  -5    7.16    0.62
   7  -7   5    5.91    0.46
  -7   7  -5    5.36    0.51
   7   7   5    6.17    0.69
   7   7   5    5.71    0.80
   8  -7   5    1.49    0.49
  -8  -7  -5    1.15    0.33
  -8   7  -5    1.07    0.40
   8   7   5    1.55    0.66
   8   7   5    1.98    0.46
   9  -7   5    0.15    0.44
  -9  -7  -5    0.54    0.31
   9   7   5   -0.09    0.57
  -9   7  -5   -0.36    0.23
   9   7   5    1.10    0.52
 -10  -7  -5    1.72    0.50
  10  -7   5    2.21    0.56
  10   7   5    2.29    0.51
 -10   7  -5    1.90    0.39
  10   7   5    2.88    0.78
  11  -7   5    0.77    0.51
 -11  -7  -5   -0.52    0.43
  11   7   5    0.18    0.49
 -11   7  -5    0.02    0.40
  11   7   5    0.64    0.56
 -11  -8   5    1.91    0.45
  11   8  -5    1.57    0.70
  11   8  -5    2.88    0.71
 -10  -8   5    1.16    0.39
  10   8  -5    0.57    0.58
  10   8  -5    0.71    0.57
  -9  -8   5    0.50    0.32
  -9  -8   5    0.99    0.36
   9   8  -5    0.17    0.50
   9   8  -5   -0.25    0.50
   9   8  -5    0.58    0.37
   8  -8  -5   17.08    0.64
  -8  -8   5   16.86    0.88
  -8  -8   5   17.34    0.90
   8  -8  -5   16.22    0.91
   8   8  -5   16.64    1.25
   8   8  -5   14.78    0.89
   8   8  -5   16.83    1.17
  -7  -8   5   22.08    1.00
  -7  -8   5   20.79    0.97
   7  -8  -5   20.31    0.76
   7   8  -5   20.01    1.03
   7   8  -5   21.44    1.36
   7   8  -5   21.37    1.19
   6  -8  -5    6.29    0.29
  -6  -8   5    6.29    0.54
  -6  -8   5    7.37    0.56
   6   8  -5    5.48    0.69
   6   8  -5    6.21    0.67
   6   8  -5    5.52    0.58
  -5  -8   5   45.32    1.76
   5  -8  -5   45.92    1.58
  -5  -8   5   48.06    1.71
  -5   8   5   41.76    1.47
   5   8  -5   43.37    1.79
  -5   8   5   48.15    1.48
   5   8  -5   46.00    1.97
   5   8  -5   44.78    2.10
   4  -8  -5    0.87    0.13
  -4  -8   5    0.61    0.27
  -4  -8   5    0.50    0.28
   4   8  -5    0.92    0.40
   4   8  -5    0.73    0.26
   4   8  -5    0.15    0.34
  -4   8   5    0.60    0.10
  -4   8   5    0.77    0.14
  -3  -8   5   24.31    1.01
   3  -8  -5   23.76    0.82
   3  -8  -5   25.84    0.97
  -3  -8   5   23.41    1.02
   3  -8  -5   23.85    0.90
  -3   8   5   23.94    0.89
   3   8  -5   23.98    1.27
   3   8  -5   21.84    1.04
   3   8  -5   22.62    1.14
  -2  -8   5    0.57    0.25
   2  -8  -5    1.48    0.23
   2  -8  -5    1.09    0.14
  -2  -8   5    1.44    0.26
   2  -8  -5    0.73    0.16
   2   8  -5    0.31    0.28
  -2   8   5    0.88    0.21
   2   8  -5    1.09    0.29
  -2   8   5    1.18    0.15
  -2   8   5    0.96    0.17
   1  -8  -5    3.48    0.35
  -1  -8   5    3.26    0.38
   1  -8  -5    3.66    0.28
  -1  -8   5    3.71    0.36
   1  -8  -5    2.91    0.24
  -1   8   5    3.23    0.32
   1   8  -5    2.96    0.38
  -1   8   5    2.78    0.25
   1   8  -5    3.05    0.44
  -1   8   5    3.42    0.32
   0  -8   5    0.76    0.22
   0  -8   5    1.35    0.27
   0  -8  -5    0.74    0.16
   0  -8  -5    0.72    0.20
   0  -8  -5    0.78    0.24
   0   8   5    1.11    0.25
   0   8   5    0.53    0.24
   0   8   5    0.86    0.18
   0   8  -5    0.74    0.24
   0   8  -5    1.33    0.35
  -1  -8  -5   17.79    0.73
   1  -8   5   16.97    0.79
  -1  -8  -5   17.41    0.79
   1  -8   5   18.03    0.88
  -1   8  -5   17.67    0.84
   1   8   5   17.92    0.84
  -1   8  -5   20.04    0.97
   1   8   5   16.85    0.87
   2  -8   5    0.55    0.20
  -2  -8  -5    0.34    0.24
   2  -8   5    0.47    0.32
  -2  -8  -5    0.62    0.17
   2   8   5    0.82    0.25
   2   8   5    0.31    0.31
  -2   8  -5    0.58    0.15
   3  -8   5    7.49    0.55
  -3  -8  -5    7.75    0.50
   3  -8   5    8.21    0.49
   3   8   5    8.06    0.63
   3   8   5    7.90    0.62
  -4  -8  -5    0.83    0.28
   4  -8   5   -0.35    0.35
   4  -8   5    0.37    0.22
   4   8   5    0.10    0.40
   4   8   5   -0.05    0.34
   5  -8   5   -0.75    0.25
   5  -8   5   -0.70    0.35
  -5  -8  -5   -0.03    0.27
   5   8   5   -0.07    0.30
   5   8   5   -0.23    0.26
  -5   8  -5   -0.01    0.22
   6  -8   5    0.56    0.29
  -6  -8  -5    0.12    0.30
   6  -8   5    0.14    0.38
  -6   8  -5    0.41    0.36
   6   8   5   -0.19    0.29
   6   8   5    0.01    0.34
  -7  -8  -5    0.08    0.25
   7  -8   5   -0.39    0.27
   7   8   5   -0.13    0.36
   7   8   5    0.51    0.46
  -7   8  -5    0.01    0.35
  -8  -8  -5    0.22    0.29
   8  -8   5    0.08    0.42
  -8   8  -5    0.51    0.29
   8   8   5    0.30    0.43
   8   8   5   -0.06    0.33
   9  -8   5    1.14    0.50
  -9  -8  -5    1.83    0.48
  -9   8  -5    1.23    0.43
   9   8   5    1.34    0.56
   9   8   5    2.01    0.58
 -10  -8  -5   -1.02    0.40
  10  -8   5    0.27    0.48
  10   8   5   -0.15    0.36
 -10   8  -5   -0.43    0.37
  10   8   5   -0.55    0.41
  11   8   5    1.39    0.59
 -11  -9   5    2.67    0.43
  11   9  -5    2.17    0.65
  11   9  -5    2.47    0.61
 -10  -9   5    3.08    0.50
  10   9  -5    2.00    0.66
  10   9  -5    1.86    0.57
  -9  -9   5    6.47    0.56
  -9  -9   5    5.20    0.56
   9   9  -5    4.75    0.74
   9   9  -5    5.68    0.67
   9   9  -5    5.36    0.83
  -8  -9   5    0.03    0.34
  -8  -9   5    0.10    0.33
   8   9  -5   -0.26    0.34
   8   9  -5    0.32    0.39
   8   9  -5    0.29    0.36
  -7  -9   5    0.20    0.33
  -7  -9   5    0.15    0.32
   7  -9  -5    0.32    0.11
   7   9  -5    0.27    0.46
   7   9  -5   -0.23    0.35
   7   9  -5   -0.07    0.48
   6  -9  -5   36.64    1.32
  -6  -9   5   36.98    1.46
  -6  -9   5   40.67    1.57
   6   9  -5   35.74    1.73
   6   9  -5   37.81    1.93
   6   9  -5   34.43    1.55
  -5  -9   5    2.62    0.36
   5  -9  -5    2.72    0.22
  -5  -9   5    3.87    0.39
  -5   9   5    2.77    0.21
   5   9  -5    1.92    0.50
   5   9  -5    3.09    0.42
   5   9  -5    2.86    0.56
  -4  -9   5   -0.25    0.19
   4  -9  -5    0.25    0.13
  -4  -9   5   -0.01    0.27
   4   9  -5   -0.22    0.25
   4   9  -5    0.05    0.24
   4   9  -5    0.04    0.39
  -4   9   5    0.12    0.14
  -4   9   5    0.24    0.11
  -3  -9   5   17.72    0.88
   3  -9  -5   18.84    0.72
  -3  -9   5   17.60    0.84
  -3   9   5   15.96    0.65
   3   9  -5   15.87    0.95
  -3   9   5   18.11    0.72
   3   9  -5   16.71    0.92
   3   9  -5   16.66    1.01
   2  -9  -5   -0.21    0.11
   2  -9  -5   -0.32    0.13
  -2  -9   5   -0.37    0.19
  -2  -9   5   -0.26    0.18
   2  -9  -5   -0.09    0.17
   2   9  -5   -0.13    0.35
  -2   9   5   -0.12    0.17
   2   9  -5   -0.30    0.29
  -2   9   5   -0.12    0.13
  -2   9   5    0.11    0.09
   2   9  -5   -0.51    0.27
   1  -9  -5   16.18    0.69
  -1  -9   5   15.89    0.73
  -1  -9   5   15.01    0.77
   1  -9  -5   16.07    0.78
   1  -9  -5   14.98    0.62
   1   9  -5   16.40    0.90
  -1   9   5   14.88    0.72
  -1   9   5   14.97    0.73
   1   9  -5   15.18    0.87
  -1   9   5   15.44    0.64
   0  -9  -5   14.06    0.60
   0  -9   5   13.64    0.70
   0  -9  -5   14.08    0.76
   0  -9   5   13.68    0.76
   0  -9  -5   13.29    0.65
   0   9  -5   13.43    0.77
   0   9  -5   13.69    0.80
   0   9   5   13.83    0.61
   0   9   5   13.37    0.72
   0   9   5   13.86    0.71
  -1  -9  -5    5.24    0.43
  -1  -9  -5    6.09    0.39
   1  -9   5    5.27    0.52
   1  -9   5    5.23    0.40
  -1   9  -5    5.83    0.59
   1   9   5    6.31    0.51
  -1   9  -5    5.64    0.44
   1   9   5    5.02    0.50
  -2  -9  -5   11.66    0.69
   2  -9   5   13.26    0.71
  -2  -9  -5   11.80    0.58
   2  -9   5   13.99    0.69
  -2   9  -5   11.18    0.59
   2   9   5   11.63    0.69
   2   9   5   10.85    0.72
  -2   9  -5   14.29    0.84
   3  -9   5    5.85    0.49
   3  -9   5    6.11    0.59
  -3  -9  -5    4.36    0.48
  -3  -9  -5    5.11    0.39
   3   9   5    4.83    0.56
   3   9   5    5.33    0.61
   4  -9   5    1.20    0.34
  -4  -9  -5    1.30    0.26
   4  -9   5    1.25    0.32
   4   9   5    1.53    0.40
   4   9   5    1.37    0.44
   5  -9   5   -0.49    0.35
  -5  -9  -5    0.30    0.22
   5  -9   5   -0.64    0.24
   5   9   5   -0.48    0.42
   5   9   5   -0.05    0.27
  -6  -9  -5    0.40    0.24
   6  -9   5   -0.17    0.37
   6  -9   5   -0.04    0.27
   6   9   5   -0.65    0.46
   6   9   5    0.62    0.45
  -7  -9  -5    1.02    0.31
   7  -9   5    1.13    0.46
   7   9   5    1.22    0.57
   7   9   5    1.33    0.42
   8  -9   5    1.99    0.52
  -8  -9  -5    1.19    0.42
  -8   9  -5    1.08    0.42
   8   9   5    1.98    0.57
   8   9   5    1.78    0.67
   9  -9   5    0.52    0.45
  -9  -9  -5   -0.01    0.44
   9   9   5    0.83    0.54
  -9   9  -5    0.94    0.40
   9   9   5    0.89    0.66
  10  -9   5    0.18    0.47
 -10  -9  -5   -0.17    0.32
  10   9   5    0.18    0.66
 -10   9  -5   -0.11    0.37
  10   9   5    0.35    0.54
 -10 -10   5   -0.20    0.40
  10  10  -5    0.17    0.47
  10  10  -5    1.32    0.66
  -9 -10   5    1.29    0.42
  -9 -10   5    0.88    0.34
   9  10  -5    0.84    0.36
   9  10  -5    0.81    0.62
   9  10  -5    1.05    0.63
  -8 -10   5    1.40    0.42
  -8 -10   5    0.34    0.36
   8  10  -5    1.05    0.45
   8  10  -5    0.50    0.42
   8  10  -5    0.96    0.56
  -7 -10   5    0.03    0.25
  -7 -10   5   -0.13    0.34
   7 -10  -5    0.20    0.12
   7  10  -5    0.77    0.40
   7  10  -5    0.21    0.39
   7  10  -5   -0.15    0.38
   6 -10  -5    1.88    0.19
  -6 -10   5    2.28    0.42
  -6 -10   5    1.75    0.40
   6  10  -5    2.17    0.41
   6  10  -5    1.69    0.57
   6  10  -5    1.36    0.53
  -6  10   5    2.26    0.17
  -5 -10   5    0.11    0.32
  -5 -10   5   -0.42    0.19
   5 -10  -5   -0.06    0.13
   5  10  -5   -0.26    0.23
   5  10  -5    0.24    0.33
  -5  10   5    0.04    0.13
   5  10  -5    0.15    0.41
  -4 -10   5    1.63    0.30
   4 -10  -5    1.66    0.20
  -4 -10   5    1.46    0.37
   4  10  -5    1.51    0.42
  -4  10   5    1.63    0.23
   4  10  -5    1.44    0.46
   4  10  -5    0.90    0.47
  -3 -10   5    0.89    0.32
   3 -10  -5    1.16    0.20
  -3 -10   5    1.00    0.35
   3  10  -5    0.53    0.36
   3  10  -5    0.65    0.44
   3  10  -5    0.89    0.40
  -3  10   5    0.71    0.22
   2 -10  -5   17.39    0.76
  -2 -10   5   18.63    0.88
  -2 -10   5   17.35    0.81
   2  10  -5   17.98    1.00
   2  10  -5   16.52    1.05
   2  10  -5   16.52    0.89
  -2  10   5   17.84    0.80
  -1 -10   5    2.76    0.38
   1 -10  -5    2.82    0.30
   1 -10  -5    3.46    0.29
  -1 -10   5    3.24    0.40
   1  10  -5    3.24    0.44
  -1  10   5    3.69    0.37
  -1  10   5    3.17    0.37
   1  10  -5    3.73    0.49
   0 -10  -5    0.20    0.16
   0 -10   5    0.30    0.25
   0 -10  -5    0.49    0.22
   0 -10   5    0.42    0.22
   0  10  -5    0.29    0.23
   0  10   5   -0.04    0.25
   0  10  -5    0.45    0.29
   0  10   5    0.16    0.25
  -1 -10  -5    0.11    0.19
   1 -10   5   -0.29    0.32
   1 -10   5    0.01    0.19
  -1 -10  -5    0.06    0.17
   1  10   5    0.33    0.28
  -1  10  -5    0.08    0.20
   1  10   5   -0.36    0.26
  -1  10  -5   -0.25    0.24
   2 -10   5   17.31    0.89
   2 -10   5   18.77    0.86
  -2 -10  -5   17.90    0.80
  -2 -10  -5   17.15    0.88
   2  10   5   16.41    0.98
  -2  10  -5   17.48    0.96
   2  10   5   17.85    0.95
   3 -10   5   15.12    0.77
  -3 -10  -5   16.77    0.89
   3 -10   5   18.20    0.96
  -3 -10  -5   16.04    0.79
   3  10   5   15.46    0.94
   3  10   5   17.47    0.97
  -3  10  -5   18.40    1.01
  -4 -10  -5    2.87    0.39
   4 -10   5    3.32    0.40
   4 -10   5    3.07    0.50
   4  10   5    3.37    0.47
   4  10   5    2.25    0.53
  -4  10  -5    2.62    0.49
   5 -10   5   -0.17    0.18
  -5 -10  -5    0.37    0.30
   5  10   5   -0.46    0.38
   5  10   5    0.06    0.32
   6 -10   5    0.75    0.42
  -6 -10  -5    1.28    0.38
   6  10   5    1.36    0.42
   6  10   5    0.85    0.42
   7 -10   5    1.19    0.37
  -7 -10  -5    1.04    0.40
   7  10   5    1.23    0.43
   7  10   5    1.27    0.49
   8 -10   5    0.12    0.41
  -8 -10  -5   -0.32    0.25
   8  10   5   -0.22    0.40
   8  10   5    0.46    0.52
  -9 -10  -5    1.74    0.41
   9 -10   5    1.75    0.54
   9  10   5    1.49    0.56
   9  10   5    1.38    0.48
 -10 -10  -5    0.40    0.50
  10  10   5    1.33    0.60
  10  10   5    1.78    0.75
 -10 -11   5   -0.20    0.41
  10  11  -5    0.23    0.49
  10  11  -5   -1.40    0.58
  -9 -11   5    0.80    0.34
  -9 -11   5    0.51    0.33
   9  11  -5    0.74    0.38
   9  11  -5    0.46    0.61
   9  11  -5    0.72    0.61
  -8 -11   5    3.08    0.52
  -8 -11   5    3.78    0.55
   8  11  -5    2.38    0.61
   8  11  -5    3.85    0.64
   8  11  -5    2.95    0.73
  -7 -11   5    3.23    0.53
  -7 -11   5    2.99    0.50
   7  11  -5    2.60    0.67
   7  11  -5    4.07    0.73
   7  11  -5    3.93    0.54
   6 -11  -5    0.61    0.15
  -6 -11   5    0.68    0.38
  -6 -11   5    0.39    0.27
   6  11  -5   -0.06    0.46
  -6  11   5    0.54    0.14
   6  11  -5   -0.08    0.35
   6  11  -5    0.00    0.40
  -5 -11   5    1.87    0.36
  -5 -11   5    1.27    0.38
   5 -11  -5    1.95    0.22
   5  11  -5    1.18    0.44
  -5  11   5    1.67    0.21
   5  11  -5    1.92    0.40
   5  11  -5    2.19    0.54
   4 -11  -5    7.17    0.43
  -4 -11   5    8.06    0.59
  -4 -11   5    6.96    0.53
  -4  11   5    7.71    0.46
   4  11  -5    7.33    0.63
   4  11  -5    6.98    0.78
   4  11  -5    7.10    0.71
   3 -11  -5   10.24    0.55
  -3 -11   5   10.98    0.69
  -3 -11   5   10.20    0.66
   3  11  -5   10.75    0.91
   3  11  -5   10.46    0.88
   3  11  -5   10.12    0.80
  -3  11   5   10.58    0.58
   2 -11  -5    6.87    0.46
  -2 -11   5    7.41    0.58
  -2 -11   5    6.97    0.55
   2  11  -5    6.09    0.57
   2  11  -5    7.75    0.77
  -2  11   5    6.74    0.48
   2  11  -5    7.21    0.71
  -1 -11   5    6.51    0.48
  -1 -11   5    6.67    0.61
   1 -11  -5    6.79    0.48
   1  11  -5    6.32    0.70
   1  11  -5    6.77    0.63
  -1  11   5    7.32    0.52
   1  11  -5    5.98    0.63
   0 -11   5    2.72    0.35
   0 -11  -5    3.30    0.31
   0 -11   5    3.29    0.47
   0 -11  -5    2.74    0.34
   0  11   5    3.66    0.43
   0  11  -5    3.20    0.55
   0  11  -5    3.50    0.42
   0  11   5    3.37    0.43
  -1 -11  -5    8.15    0.49
   1 -11   5    8.82    0.55
  -1 -11  -5    9.09    0.58
   1 -11   5    8.13    0.60
  -1  11  -5    8.41    0.67
   1  11   5    8.08    0.64
   1  11   5    7.89    0.63
  -1  11  -5    8.30    0.59
  -2 -11  -5    0.97    0.32
  -2 -11  -5    0.97    0.22
   2 -11   5    1.00    0.26
   2 -11   5    0.48    0.38
   2  11   5    1.01    0.31
  -2  11  -5    0.81    0.41
   2  11   5    0.59    0.35
   3 -11   5    0.05    0.38
  -3 -11  -5    0.08    0.24
  -3 -11  -5   -0.06    0.18
   3 -11   5    0.52    0.23
   3  11   5    0.11    0.38
  -3  11  -5    0.15    0.28
   3  11   5    0.19    0.38
  -4 -11  -5    7.80    0.67
   4 -11   5    8.06    0.72
   4 -11   5    8.47    0.60
  -4 -11  -5    7.03    0.51
  -4  11  -5    8.40    0.74
   4  11   5    6.96    0.71
   4  11   5    6.84    0.75
  -5 -11  -5    2.47    0.36
   5 -11   5    1.82    0.39
   5  11   5    2.77    0.47
   5  11   5    2.28    0.50
  -6 -11  -5    1.17    0.31
   6 -11   5    0.38    0.43
   6  11   5    1.61    0.54
   6  11   5    1.07    0.56
   7 -11   5    0.41    0.44
  -7 -11  -5   -0.27    0.24
   7  11   5    0.16    0.51
   7  11   5    0.54    0.57
  -8 -11  -5    1.69    0.47
   8 -11   5    0.66    0.47
   8  11   5    1.46    0.47
   8  11   5    1.42    0.64
  -9 -11  -5   -1.18    0.38
   9 -11   5    0.16    0.44
   9  11   5    0.63    0.67
   9  11   5    0.85    0.56
  -9 -12   5   -0.10    0.33
  -9 -12   5   -0.39    0.41
   9  12  -5    0.02    0.34
   9  12  -5   -0.11    0.45
   9  12  -5   -0.69    0.42
  -8 -12   5    0.51    0.33
  -8 -12   5    0.23    0.33
   8  12  -5    0.60    0.49
   8  12  -5    0.12    0.58
   8  12  -5    0.04    0.45
  -7 -12   5    1.93    0.49
  -7 -12   5    0.67    0.42
   7  12  -5    1.51    0.52
   7  12  -5    0.92    0.40
   7  12  -5    0.94    0.59
  -6 -12   5    4.73    0.57
  -6 -12   5    4.01    0.49
   6 -12  -5    3.93    0.31
   6  12  -5    3.37    0.62
   6  12  -5    4.34    0.57
   6  12  -5    3.62    0.65
  -5 -12   5    3.71    0.45
   5 -12  -5    4.12    0.34
  -5 -12   5    4.38    0.55
  -5  12   5    4.36    0.34
   5  12  -5    3.56    0.58
   5  12  -5    4.22    0.65
   5  12  -5    3.77    0.61
   4 -12  -5    0.36    0.20
  -4 -12   5    0.78    0.40
  -4 -12   5    0.52    0.27
   4  12  -5    0.21    0.43
  -4  12   5    0.30    0.22
   4  12  -5    0.19    0.32
   4  12  -5   -0.09    0.35
   3 -12  -5    2.91    0.32
  -3 -12   5    3.18    0.39
  -3 -12   5    2.95    0.42
   3  12  -5    2.50    0.50
   3  12  -5    3.20    0.55
  -3  12   5    3.03    0.36
   3  12  -5    2.85    0.49
  -2 -12   5   13.06    0.76
   2 -12  -5   11.95    0.64
  -2 -12   5   14.14    0.84
   2  12  -5   12.55    0.93
  -2  12   5   12.52    0.68
   2  12  -5   12.29    0.80
   2  12  -5   10.81    0.85
   1 -12  -5    0.84    0.25
  -1 -12   5    0.59    0.38
  -1 -12   5    1.31    0.35
  -1  12   5    0.93    0.30
   1  12  -5    0.56    0.31
   1  12  -5    0.90    0.36
   1  12  -5    0.46    0.33
   0 -12  -5    0.32    0.25
   0 -12   5   -0.13    0.29
   0 -12   5    0.32    0.29
   0  12  -5   -0.28    0.26
   0  12   5    0.42    0.31
   0  12  -5   -0.42    0.39
   1 -12   5    0.14    0.27
  -1 -12  -5    0.17    0.28
   1 -12   5    0.34    0.30
   1  12   5   -0.19    0.32
  -1  12  -5   -0.08    0.22
  -1  12  -5   -0.26    0.36
  -2 -12  -5   24.47    1.13
   2 -12   5   23.91    1.09
  -2 -12  -5   26.00    1.07
   2 -12   5   26.79    1.27
  -2  12  -5   25.80    1.34
   2  12   5   24.24    1.27
   2  12   5   27.27    1.26
   3 -12   5    0.97    0.44
  -3 -12  -5    0.77    0.36
  -3 -12  -5    0.67    0.28
   3 -12   5    0.86    0.32
  -3  12  -5    0.03    0.35
   3  12   5    0.42    0.39
   3  12   5    0.43    0.31
   4 -12   5    1.58    0.48
  -4 -12  -5    1.96    0.44
  -4 -12  -5    1.71    0.36
   4  12   5    1.41    0.41
   4  12   5    1.35    0.49
   5 -12   5    0.24    0.42
  -5 -12  -5    0.71    0.34
   5  12   5    1.00    0.50
   5  12   5    1.04    0.49
  -6 -12  -5   -0.15    0.33
   6 -12   5    0.07    0.41
   6  12   5    0.07    0.35
   6  12   5    0.87    0.56
  -7 -12  -5    3.61    0.47
   7 -12   5    3.27    0.59
   7  12   5    3.46    0.69
   7  12   5    4.05    0.77
   8 -12   5   -0.62    0.39
  -8 -12  -5    0.12    0.30
   8  12   5    0.44    0.57
   8  12   5    0.51    0.56
  -9 -12  -5   -0.53    0.42
   9  12   5    0.60    0.71
   9  13  -5    0.51    0.39
  -8 -13   5    2.64    0.58
  -8 -13   5    2.94    0.57
   8  13  -5    3.33    0.58
   8  13  -5    2.64    0.82
   8  13  -5    3.16    0.73
  -7 -13   5    0.04    0.31
  -7 -13   5   -0.25    0.41
   7  13  -5    0.46    0.60
   7  13  -5   -0.27    0.41
   7  13  -5    0.47    0.49
  -6 -13   5   -0.28    0.39
   6 -13  -5   -0.07    0.18
  -6 -13   5   -0.35    0.26
   6  13  -5    0.23    0.57
   6  13  -5   -0.35    0.41
   6  13  -5   -0.18    0.38
  -5 -13   5   -0.07    0.39
  -5 -13   5    0.26    0.28
   5 -13  -5    0.02    0.20
   5  13  -5   -0.08    0.32
  -5  13   5    0.09    0.19
   5  13  -5   -0.73    0.48
   5  13  -5   -0.53    0.32
   4 -13  -5    8.32    0.51
  -4 -13   5    9.20    0.78
  -4 -13   5    7.46    0.59
   4  13  -5    8.17    0.81
   4  13  -5    7.38    0.88
  -4  13   5    7.61    0.52
   4  13  -5    6.85    0.80
  -3 -13   5    8.95    0.69
   3 -13  -5   10.21    0.56
  -3 -13   5    9.49    0.64
   3  13  -5    8.82    0.82
   3  13  -5    9.71    0.85
  -3  13   5    9.18    0.61
   3  13  -5    9.26    0.92
   2 -13  -5    3.76    0.39
  -2 -13   5    3.83    0.43
  -2 -13   5    4.72    0.57
   2  13  -5    4.45    0.61
  -2  13   5    4.13    0.47
   2  13  -5    3.69    0.57
   2  13  -5    3.94    0.66
  -1 -13   5    0.02    0.23
   1 -13  -5    0.11    0.23
  -1 -13   5   -0.01    0.27
  -1  13   5   -0.31    0.26
   1  13  -5   -0.67    0.31
   1  13  -5    0.25    0.31
   1  13  -5    0.70    0.48
   0 -13   5    0.69    0.41
   0 -13  -5    1.27    0.31
   0 -13   5    0.91    0.28
   0  13   5    1.04    0.36
   0  13  -5    0.77    0.36
   0  13  -5    0.50    0.33
   0  13  -5    0.85    0.33
  -1 -13  -5    0.21    0.29
   1 -13   5   -0.01    0.30
   1 -13   5    0.22    0.39
  -1  13  -5    0.64    0.43
   1  13   5    0.27    0.36
  -2 -13  -5    0.12    0.25
   2 -13   5    1.34    0.34
   2 -13   5    0.87    0.43
   2  13   5    1.31    0.44
  -2  13  -5    1.09    0.45
  -3 -13  -5    6.97    0.68
   3 -13   5    7.68    0.75
   3  13   5    5.86    0.63
  -4 -13  -5    0.09    0.29
  -4 -13  -5    0.70    0.35
   4 -13   5    0.20    0.43
   4  13   5    0.02    0.31
  -5 -13  -5    1.91    0.42
   5 -13   5    1.51    0.49
   5  13   5    1.76    0.55
   5  13   5    1.52    0.54
  -6 -13  -5   -0.16    0.36
   6 -13   5   -0.23    0.30
   6  13   5    0.10    0.48
   6  13   5    0.40    0.55
   7 -13   5    1.38    0.48
  -7 -13  -5    0.19    0.30
   7  13   5    1.05    0.45
   7  13   5    0.69    0.59
  -8 -13  -5   -0.01    0.31
   8  13   5    1.30    0.63
  -8 -14   5    1.87    0.56
  -8 -14   5    1.71    0.54
   8  14  -5    1.33    0.60
   8  14  -5    0.84    0.75
   8  14  -5    1.90    0.50
  -7 -14   5    0.47    0.46
  -7 -14   5    0.22    0.34
   7  14  -5   -0.03    0.36
   7  14  -5    1.04    0.70
   7  14  -5    0.53    0.64
  -6 -14   5    0.20    0.45
  -6 -14   5    0.17    0.40
   6  14  -5    1.03    0.62
   6  14  -5    0.18    0.59
   6  14  -5    0.75    0.39
   5 -14  -5   -0.36    0.20
  -5 -14   5    0.08    0.31
  -5 -14   5   -0.94    0.40
   5  14  -5    0.31    0.56
   5  14  -5   -0.06    0.46
   5  14  -5   -0.06    0.52
  -4 -14   5    2.69    0.46
   4 -14  -5    2.58    0.34
  -4 -14   5    3.04    0.44
   4  14  -5    2.67    0.57
   4  14  -5    3.07    0.60
   4  14  -5    1.89    0.62
  -4  14   5    2.63    0.36
  -3 -14   5    0.37    0.28
   3 -14  -5   -0.05    0.25
  -3 -14   5    0.64    0.45
   3  14  -5    0.84    0.48
   3  14  -5    0.16    0.45
   3  14  -5    1.07    0.54
  -3  14   5    0.56    0.29
   2 -14  -5    0.86    0.29
  -2 -14   5    1.51    0.34
  -2 -14   5    1.61    0.48
   2  14  -5    1.04    0.46
   2  14  -5    1.12    0.50
  -2  14   5    1.44    0.37
   2  14  -5    1.14    0.54
   1 -14  -5   -0.12    0.26
  -1 -14   5    0.39    0.33
  -1 -14   5    0.04    0.30
   1  14  -5   -0.20    0.40
   1  14  -5   -0.25    0.31
  -1  14   5    0.49    0.35
   1  14  -5    0.50    0.35
   0 -14  -5    0.67    0.30
   0 -14   5    0.98    0.38
   0 -14   5    1.13    0.36
   0  14   5    0.64    0.36
   0  14  -5    1.50    0.50
   0  14  -5    0.83    0.48
   1 -14   5    0.15    0.24
   1 -14   5    0.04    0.29
  -1 -14  -5    0.33    0.32
   1  14   5    0.12    0.37
  -1  14  -5    0.15    0.43
  -1  14  -5   -0.10    0.40
   2 -14   5    1.04    0.36
  -2 -14  -5    1.37    0.33
   2  14   5    0.48    0.42
  -3 -14  -5    2.46    0.49
   3 -14   5    4.00    0.59
   3  14   5    3.06    0.50
  -4 -14  -5    1.03    0.35
   4 -14   5    1.39    0.49
   4  14   5    1.59    0.44
   5 -14   5    0.29    0.44
   5  14   5    0.02    0.48
   6 -14   5    0.39    0.44
   6  14   5    1.06    0.55
  -7 -15   5   -0.68    0.48
  -7 -15   5   -0.27    0.44
   7  15  -5    0.44    0.52
   7  15  -5    0.47    0.52
   7  15  -5   -0.32    0.64
  -6 -15   5   -0.75    0.45
  -6 -15   5   -0.37    0.41
   6  15  -5   -0.57    0.57
   6  15  -5   -0.84    0.57
   6  15  -5    0.62    0.53
  -5 -15   5    0.65    0.46
   5 -15  -5    0.23    0.24
  -5 -15   5    0.12    0.35
   5  15  -5   -0.25    0.58
   5  15  -5    0.63    0.54
   5  15  -5    0.35    0.55
  -4 -15   5    6.00    0.71
  -4 -15   5    5.62    0.58
   4 -15  -5    5.63    0.50
   4  15  -5    5.18    0.74
   4  15  -5    4.63    0.80
   4  15  -5    4.11    0.69
  -4  15   5    5.67    0.53
  -3 -15   5    5.01    0.67
   3 -15  -5    4.96    0.48
  -3 -15   5    4.82    0.52
  -3  15   5    4.82    0.50
   3  15  -5    3.42    0.68
   3  15  -5    4.70    0.71
   3  15  -5    5.16    0.80
  -2 -15   5    0.95    0.41
   2 -15  -5    1.62    0.36
  -2 -15   5    1.41    0.49
   2  15  -5    2.18    0.53
   2  15  -5    2.11    0.56
   2  15  -5    0.74    0.47
  -2  15   5    1.48    0.39
   1 -15  -5    2.48    0.40
  -1 -15   5    2.41    0.46
  -1 -15   5    2.23    0.53
   1  15  -5    1.90    0.58
  -1  15   5    2.19    0.43
   1  15  -5    2.86    0.59
   0 -15   5    0.82    0.30
   0 -15  -5    0.72    0.32
   0 -15   5   -0.18    0.42
   0  15  -5    1.21    0.54
   0  15   5    1.08    0.38
   0  15  -5    1.22    0.41
   1 -15   5    0.52    0.43
  -1 -15  -5    0.19    0.32
  -1  15  -5    0.73    0.45
   1  15   5    0.33    0.38
   2 -15   5    0.40    0.44
  -2 -15  -5    0.47    0.38
  -2  15  -5    1.01    0.49
   2  15   5    0.33    0.32
  -3 -15  -5    0.96    0.42
   3 -15   5    0.98    0.35
   3  15   5    0.49    0.43
  -4 -15  -5   -0.40    0.38
   4 -15   5    1.47    0.49
   4  15   5    0.38    0.50
   5 -15   5    0.48    0.46
   5  15   5    0.37    0.53
  -5 -16   5    1.70    0.53
  -5 -16   5    0.45    0.55
   5  16  -5    1.13    0.66
   5  16  -5    1.78    0.60
   5  16  -5    1.09    0.70
   4 -16  -5    3.27    0.42
  -4 -16   5    3.85    0.52
  -4 -16   5    4.32    0.69
   4  16  -5    2.64    0.69
   4  16  -5    4.90    0.80
   4  16  -5    4.60    0.72
  -4  16   5    2.80    0.40
  -3 -16   5    5.56    0.72
   3 -16  -5    4.20    0.46
  -3 -16   5    4.66    0.54
  -3  16   5    4.40    0.50
   3  16  -5    2.94    0.70
   3  16  -5    4.39    0.73
   3  16  -5    5.12    0.79
  -2 -16   5    1.69    0.55
   2 -16  -5    1.61    0.35
  -2 -16   5    1.29    0.44
  -2  16   5    1.31    0.38
   2  16  -5    0.78    0.51
   2  16  -5    2.02    0.60
  -1 -16   5    0.77    0.49
   1 -16  -5   -0.46    0.29
   1  16  -5    0.40    0.37
  -1  16   5   -0.29    0.35
   0 -16  -5    0.99    0.39
   0 -16   5    1.36    0.51
   0  16  -5    1.03    0.53
   0  16   5    0.83    0.41
  -1 -16  -5    2.03    0.45
   1 -16   5    2.41    0.48
   1  16   5    2.35    0.51
  -1  16  -5    3.01    0.61
   2 -16   5    0.24    0.46
  -2 -16  -5    0.00    0.38
   2  16   5   -0.04    0.41
  -2  16  -5    0.51    0.47
  -3 -16  -5    0.09    0.32
   3 -16   5    0.65    0.46
   3  16   5   -0.07    0.44
  -3  16  -5    0.25    0.43
   3 -17  -5    0.45    0.31
  -3  17   5    0.39    0.34
   2 -17  -5   -0.07    0.31
  -2  17   5    1.32    0.40
   1 -17  -5    1.91    0.43
  -1  17   5    1.74    0.43
   0 -17  -5    0.21    0.37
   0  17   5    0.09    0.36
 -13   0   6   -0.07    0.23
  13   0  -6    0.60    0.42
  13   0  -6    0.32    0.35
  12   0  -6    1.22    0.39
 -12   0   6    0.78    0.26
  12   0  -6    0.69    0.44
  11   0  -6    0.12    0.34
  11   0  -6    0.21    0.33
 -11   0   6    0.00    0.21
  10   0  -6    2.85    0.43
  10   0  -6    3.12    0.54
 -10   0   6    3.43    0.33
   9   0  -6   -0.31    0.28
  -9   0   6   -0.23    0.16
   9   0  -6   -0.27    0.24
   8   0  -6    7.32    0.53
  -8   0   6    7.92    0.40
   8   0  -6    7.04    0.69
   7   0  -6    0.70    0.26
   7   0  -6    0.66    0.23
   6   0  -6   53.93    2.26
   6   0  -6   53.45    1.82
  -6   0   6   53.74    1.80
   6   0  -6   52.62    1.98
   6   0  -6   55.37    1.90
   5   0  -6   -0.11    0.08
   5   0  -6   -0.13    0.13
  -5   0   6   -0.02    0.10
   5   0  -6   -0.09    0.14
   5   0  -6   -0.21    0.08
  -5   0   6   -0.03    0.06
  -4   0   6   12.72    0.51
  -4   0   6   12.53    0.49
   4   0  -6   13.63    0.58
   4   0  -6   12.66    0.51
   4   0  -6   12.47    0.52
   4   0  -6   12.09    0.71
  -3   0   6    0.23    0.08
  -3   0   6   -0.02    0.10
   3   0  -6   -0.03    0.08
  -3   0   6   -0.16    0.09
  -2   0   6  578.58   18.64
  -2   0   6  546.96   17.74
  -2   0   6  551.28   17.74
   2   0  -6  557.04   18.66
  -1   0   6   -0.06    0.08
  -1   0   6   -0.16    0.09
   1   0  -6   -0.13    0.09
   1   0  -6   -0.14    0.11
  -1   0   6   -0.15    0.11
   0   0   6   13.44    0.61
   0   0  -6   14.13    0.62
   0   0   6   13.86    0.56
   0   0  -6   13.64    0.56
   0   0   6   13.45    0.54
  -1   0  -6   -0.01    0.14
   1   0   6    0.38    0.17
   1   0   6   -0.05    0.19
  -1   0  -6    0.15    0.13
   1   0   6    0.19    0.13
  -2   0  -6  354.57   11.26
   2   0   6  350.13   11.28
   2   0   6  348.92   11.89
  -3   0  -6    0.12    0.13
   3   0   6    0.09    0.20
   3   0   6   -0.16    0.21
  -4   0  -6   10.65    0.56
   4   0   6   10.60    0.57
   4   0   6   10.20    0.64
   5   0   6   -0.09    0.28
   5   0   6    0.65    0.38
  -5   0  -6    0.49    0.20
   6   0   6   56.80    2.27
   6   0   6   59.26    2.12
  -6   0  -6   52.16    2.01
  -7   0  -6    0.55    0.24
   7   0   6    1.42    0.40
   7   0   6    0.84    0.36
   8   0   6   14.53    0.82
  -8   0  -6   12.84    0.75
   8   0   6   14.74    0.98
   9   0   6    0.50    0.54
  -9   0  -6    0.35    0.37
   9   0   6    0.17    0.38
  10   0   6   -0.42    0.51
  10   0   6    0.17    0.41
 -10   0  -6    0.65    0.41
 -11   0  -6   -0.37    0.28
  11   0   6    0.83    0.63
  13  -1  -6    0.46    0.39
 -13  -1   6    0.03    0.26
  13  -1  -6    0.22    0.31
  13   1  -6    1.01    0.39
  13   1  -6    0.19    0.42
  12  -1  -6   14.82    1.13
 -12  -1   6   16.43    0.78
  12  -1  -6   15.36    0.91
  12   1  -6   16.19    1.22
  12   1  -6   16.72    1.00
 -12   1   6   14.82    0.71
 -11  -1   6    2.92    0.34
  11  -1  -6    2.68    0.52
  11  -1  -6    2.82    0.43
  11   1  -6    3.19    0.57
 -11   1   6    2.87    0.30
  11   1  -6    2.98    0.49
  10  -1  -6   18.71    1.20
 -10  -1   6   20.97    0.83
  10  -1  -6   18.90    0.96
 -10   1   6   20.03    0.78
  10   1  -6   18.95    1.18
  10   1  -6   18.88    1.02
   9  -1  -6    1.47    0.30
   9  -1  -6    1.86    0.41
  -9  -1   6    0.98    0.23
  -9   1   6    1.47    0.21
   9   1  -6    1.63    0.35
   9   1  -6    1.32    0.44
   8  -1  -6    1.75    0.34
  -8  -1   6    1.12    0.21
   8  -1  -6    0.91    0.25
   8   1  -6    0.56    0.34
  -8   1   6    0.43    0.15
   8   1  -6    0.66    0.28
   7  -1  -6   89.44    3.22
   7  -1  -6   88.63    3.64
   7  -1  -6   92.62    3.13
  -7  -1   6   92.53    3.01
   7  -1  -6   88.50    2.96
   7   1  -6   88.20    3.67
   7   1  -6   90.98    3.29
  -7   1   6   93.43    2.97
   7   1  -6   95.08    3.18
   7   1  -6   90.38    3.05
   6  -1  -6    0.00    0.09
   6  -1  -6    0.07    0.08
  -6  -1   6    0.05    0.12
  -6  -1   6    0.33    0.11
   6  -1  -6    0.12    0.15
   6  -1  -6    0.04    0.17
   6   1  -6    0.09    0.13
   6   1  -6    0.01    0.18
  -6   1   6    0.08    0.10
   6   1  -6    0.00    0.11
   6   1  -6    0.35    0.19
   5  -1  -6    0.79    0.15
  -5  -1   6    0.69    0.13
   5  -1  -6    0.63    0.23
  -5  -1   6    0.91    0.12
   5  -1  -6    0.88    0.10
   5  -1  -6    0.77    0.11
   5   1  -6    0.93    0.15
   5   1  -6    0.56    0.25
   5   1  -6    0.43    0.19
  -5   1   6    0.79    0.11
   5   1  -6    0.76    0.13
  -4  -1   6    8.52    0.38
  -4  -1   6    8.87    0.39
   4  -1  -6    8.74    0.35
   4  -1  -6    8.78    0.33
   4  -1  -6    8.03    0.36
   4   1  -6    8.07    0.56
  -4   1   6    8.36    0.31
  -4   1   6    8.94    0.34
   4   1  -6    8.12    0.45
   4   1  -6    8.64    0.40
   4   1  -6    8.39    0.40
  -3  -1   6    1.44    0.16
   3  -1  -6    1.50    0.14
  -3  -1   6    1.39    0.16
  -3  -1   6    1.18    0.14
   3  -1  -6    1.40    0.13
   3   1  -6    1.52    0.17
  -3   1   6    1.38    0.13
  -3   1   6    1.45    0.13
  -3   1   6    1.67    0.11
   3   1  -6    1.10    0.20
   2  -1  -6    8.16    0.38
  -2  -1   6    9.80    0.40
  -2  -1   6    8.87    0.39
  -2  -1   6    8.28    0.39
   2  -1  -6    8.26    0.35
   2  -1  -6    8.26    0.35
  -2   1   6    8.24    0.35
  -2   1   6    8.18    0.36
  -2   1   6    8.47    0.36
   2   1  -6    8.60    0.41
  -1  -1   6   24.23    0.87
   1  -1  -6   22.79    0.91
   1  -1  -6   23.96    0.85
  -1  -1   6   23.32    0.86
  -1  -1   6   23.44    0.91
  -1   1   6   23.64    0.89
   1   1  -6   23.73    0.92
  -1   1   6   24.04    0.84
   1   1  -6   23.72    0.88
  -1   1   6   23.82    0.86
   0  -1   6   46.99    1.63
   0  -1  -6   46.08    1.74
   0  -1  -6   48.09    1.62
   0  -1   6   48.28    1.63
   0  -1   6   47.22    1.73
   0   1  -6   47.60    1.64
   0   1   6   49.91    1.61
   0   1   6   48.00    1.72
   0   1   6   48.30    1.64
   0   1  -6   45.16    1.73
   1  -1   6    9.33    0.49
   1  -1   6    9.19    0.42
  -1  -1  -6    9.72    0.44
  -1  -1  -6    8.51    0.48
   1  -1   6    9.44    0.47
   1   1   6    9.71    0.49
   1   1   6    9.10    0.41
   1   1   6    9.43    0.45
  -1   1  -6    9.08    0.44
  -2  -1  -6    3.44    0.27
   2  -1   6    4.11    0.35
   2  -1   6    4.66    0.36
  -2   1  -6    4.01    0.29
   2   1   6    3.28    0.34
   2   1   6    4.19    0.36
   3  -1   6    2.16    0.26
  -3  -1  -6    2.62    0.25
   3  -1   6    2.54    0.37
   3   1   6    2.17    0.27
  -3   1  -6    2.18    0.25
   3   1   6    2.82    0.34
   4  -1   6   17.74    0.87
   4  -1   6   17.32    0.77
  -4  -1  -6   16.24    0.73
   4   1   6   17.45    0.88
   4   1   6   16.64    0.78
  -4   1  -6   16.76    0.76
   5  -1   6   11.03    0.70
   5  -1   6   11.07    0.60
  -5  -1  -6   10.17    0.60
   5   1   6   10.66    0.62
   5   1   6   10.89    0.72
  -5   1  -6   10.76    0.61
  -6  -1  -6    0.44    0.31
   6  -1   6    0.66    0.26
   6  -1   6   -0.13    0.29
   6   1   6    0.37    0.26
   6   1   6   -0.09    0.30
  -6   1  -6    0.28    0.22
  -7  -1  -6   26.25    1.14
   7  -1   6   27.68    1.35
   7  -1   6   28.04    1.20
   7   1   6   27.57    1.37
   7   1   6   29.08    1.28
  -7   1  -6   24.98    1.13
  -8  -1  -6    2.65    0.38
   8  -1   6    2.43    0.46
   8  -1   6    2.35    0.49
   8   1   6    2.02    0.39
  -8   1  -6    1.57    0.40
   8   1   6    2.37    0.52
  -9  -1  -6    1.06    0.32
   9  -1   6    0.74    0.33
   9  -1   6    1.04    0.45
   9   1   6    1.08    0.59
  -9   1  -6    1.63    0.43
   9   1   6    0.75    0.43
  10  -1   6    3.07    0.69
  10  -1   6    1.63    0.47
 -10  -1  -6    1.96    0.47
 -10   1  -6    1.77    0.45
  10   1   6    2.05    0.67
  10   1   6    2.43    0.53
  11  -1   6    1.43    0.50
 -11  -1  -6   -0.03    0.41
 -11   1  -6    0.14    0.31
  11   1   6   -0.32    0.42
 -13  -2   6    3.69    0.43
  13   2  -6    3.38    0.70
  13   2  -6    3.58    0.58
  12  -2  -6    0.50    0.29
  12  -2  -6    0.04    0.34
 -12  -2   6    0.60    0.26
  12   2  -6    1.39    0.50
  12   2  -6    0.73    0.39
 -11  -2   6    0.25    0.23
  11  -2  -6    0.18    0.27
  11  -2  -6    0.52    0.35
 -11   2   6    0.40    0.19
  11   2  -6    0.18    0.34
  11   2  -6    0.61    0.41
 -10  -2   6    3.80    0.38
  10  -2  -6    4.83    0.59
  10  -2  -6    4.96    0.45
 -10   2   6    4.32    0.31
  10   2  -6    4.27    0.59
  10   2  -6    4.01    0.54
  -9  -2   6   41.09    1.47
   9  -2  -6   40.30    1.90
   9  -2  -6   40.85    1.58
  -9   2   6   40.50    1.38
   9   2  -6   38.57    1.73
   9   2  -6   39.67    1.94
   8  -2  -6    5.73    0.59
  -8  -2   6    5.01    0.36
   8  -2  -6    4.80    0.40
   8   2  -6    5.73    0.57
   8   2  -6    4.79    0.37
  -8   2   6    5.54    0.28
   8   2  -6    5.11    0.58
   7  -2  -6    1.02    0.21
   7  -2  -6    1.10    0.29
   7  -2  -6    0.96    0.14
  -7  -2   6    1.55    0.20
  -7  -2   6    1.23    0.21
   7  -2  -6    1.08    0.08
   7   2  -6    1.70    0.23
  -7   2   6    1.02    0.13
   7   2  -6    1.06    0.37
   7   2  -6    1.41    0.24
   7   2  -6    1.65    0.33
   6  -2  -6   15.94    0.67
   6  -2  -6   15.62    0.90
  -6  -2   6   15.99    0.66
   6  -2  -6   15.90    0.61
  -6  -2   6   16.92    0.67
   6   2  -6   17.54    0.97
   6   2  -6   16.04    0.80
   6   2  -6   16.69    0.70
  -6   2   6   16.63    0.57
   6   2  -6   16.41    0.70
   5  -2  -6    1.72    0.26
   5  -2  -6    1.59    0.12
  -5  -2   6    1.73    0.19
  -5  -2   6    1.52    0.19
   5  -2  -6    1.87    0.17
   5   2  -6    1.21    0.26
   5   2  -6    1.52    0.19
  -5   2   6    1.64    0.11
   5   2  -6    1.84    0.22
  -5   2   6    1.84    0.12
   5   2  -6    1.56    0.26
  -4  -2   6    1.51    0.18
   4  -2  -6    1.41    0.12
  -4  -2   6    1.46    0.19
   4  -2  -6    1.47    0.08
   4  -2  -6    1.71    0.08
   4   2  -6    1.74    0.21
   4   2  -6    1.67    0.19
   4   2  -6    1.74    0.25
  -4   2   6    1.67    0.11
   4   2  -6    1.30    0.27
  -4   2   6    1.58    0.11
  -3  -2   6    3.12    0.23
  -3  -2   6    2.95    0.23
   3  -2  -6    3.14    0.16
  -3  -2   6    3.14    0.25
   3  -2  -6    2.98    0.18
  -3   2   6    3.27    0.17
   3   2  -6    2.45    0.32
   3   2  -6    3.21    0.24
   2  -2  -6   44.43    1.60
   2  -2  -6   45.44    1.50
   2  -2  -6   45.14    1.51
  -2  -2   6   47.17    1.57
  -2  -2   6   44.52    1.55
  -2  -2   6   44.87    1.63
  -2   2   6   45.93    1.50
   2   2  -6   45.56    1.65
   2   2  -6   44.84    1.85
  -2   2   6   45.68    1.51
   1  -2  -6   -0.34    0.09
  -1  -2   6   -0.28    0.13
  -1  -2   6   -0.14    0.10
   1  -2  -6   -0.01    0.09
  -1  -2   6   -0.08    0.12
  -1   2   6   -0.12    0.12
  -1   2   6   -0.12    0.08
   1   2  -6   -0.14    0.10
  -1   2   6   -0.11    0.10
   0  -2  -6    9.19    0.47
   0  -2   6   10.00    0.45
   0  -2  -6   10.25    0.42
   0  -2   6    9.43    0.43
   0  -2   6    9.62    0.48
   0   2   6   10.46    0.46
   0   2  -6   10.03    0.50
   0   2   6    9.49    0.47
   0   2   6    9.86    0.42
   0   2  -6    9.35    0.45
  -1  -2  -6    3.26    0.28
   1  -2   6    3.29    0.26
   1  -2   6    3.49    0.30
  -1  -2  -6    3.18    0.22
  -1   2  -6    2.78    0.26
   1   2   6    3.39    0.30
   1   2   6    3.60    0.33
   1   2   6    3.20    0.24
   2  -2   6    9.06    0.46
  -2  -2  -6    9.21    0.43
   2  -2   6    9.89    0.57
   2   2   6    8.46    0.52
  -2   2  -6    9.00    0.49
   2   2   6    8.49    0.47
   3  -2   6   14.37    0.65
   3  -2   6   15.23    0.78
  -3  -2  -6   13.51    0.62
   3   2   6   14.65    0.68
  -3   2  -6   14.15    0.64
   3   2   6   14.20    0.80
  -4  -2  -6   -0.49    0.20
   4  -2   6    0.05    0.17
   4  -2   6    0.41    0.31
   4   2   6   -0.20    0.19
  -4   2  -6    0.23    0.22
  -4   2  -6   -0.04    0.13
   4   2   6   -0.51    0.31
   5  -2   6    0.85    0.23
   5  -2   6    0.35    0.36
  -5  -2  -6    0.47    0.20
   5   2   6    0.68    0.31
  -5   2  -6    0.32    0.27
  -5   2  -6    0.31    0.18
   5   2   6    0.66    0.25
  -6  -2  -6    3.30    0.42
   6  -2   6    3.77    0.57
   6  -2   6    3.25    0.44
  -6   2  -6    3.26    0.37
   6   2   6    3.12    0.50
   6   2   6    3.05    0.48
   7  -2   6   23.99    1.10
  -7  -2  -6   21.20    1.01
   7  -2   6   23.30    1.20
  -7   2  -6   22.59    1.06
   7   2   6   24.87    1.17
   7   2   6   22.48    1.24
  -8  -2  -6    2.57    0.44
   8  -2   6    3.03    0.53
   8  -2   6    2.96    0.47
   8   2   6    2.82    0.44
  -8   2  -6    3.02    0.46
   8   2   6    4.09    0.69
  -9  -2  -6    1.86    0.37
   9  -2   6    2.11    0.39
   9  -2   6    2.38    0.53
   9   2   6    2.54    0.45
  -9   2  -6    1.00    0.42
   9   2   6    2.59    0.57
 -10  -2  -6    1.70    0.37
  10  -2   6    1.35    0.58
  10   2   6    0.94    0.37
 -10   2  -6    0.62    0.32
  10   2   6    1.28    0.68
  11  -2   6    0.41    0.54
 -11  -2  -6   -0.33    0.28
 -11   2  -6    0.04    0.41
  11   2   6    0.41    0.64
 -13  -3   6    0.01    0.31
  13   3  -6    0.32    0.49
  13   3  -6   -0.16    0.46
 -12  -3   6    0.42    0.27
  12  -3  -6    0.57    0.39
  12   3  -6    0.62    0.48
  12   3  -6    0.80    0.42
  11  -3  -6   14.19    1.02
 -11  -3   6   15.17    0.76
  11  -3  -6   15.05    0.78
  11   3  -6   16.77    1.21
  11   3  -6   13.59    0.98
 -10  -3   6    0.74    0.28
  10  -3  -6    0.55    0.23
  10  -3  -6    0.59    0.33
 -10   3   6    0.77    0.16
  10   3  -6    0.28    0.35
  10   3  -6    0.45    0.42
  -9  -3   6    0.06    0.22
   9  -3  -6    0.41    0.31
   9  -3  -6    0.24    0.19
  -9   3   6    0.60    0.13
   9   3  -6    1.26    0.44
   9   3  -6   -0.03    0.33
  -8  -3   6   -0.04    0.17
   8  -3  -6   -0.10    0.15
   8  -3  -6    0.17    0.20
  -8  -3   6    0.08    0.19
   8   3  -6   -0.18    0.26
   8   3  -6    0.08    0.34
   8   3  -6   -0.05    0.18
  -8   3   6    0.11    0.09
   7  -3  -6  180.56    6.81
  -7  -3   6  177.88    6.10
   7  -3  -6  172.01    6.06
  -7  -3   6  183.83    5.84
   7  -3  -6  183.61    6.02
   7   3  -6  172.78    6.27
  -7   3   6  187.32    5.69
   7   3  -6  175.06    5.89
   7   3  -6  177.74    6.92
  -6  -3   6   49.21    1.77
   6  -3  -6   51.07    2.08
  -6  -3   6   48.30    1.70
   6  -3  -6   47.67    1.70
   6  -3  -6   47.85    1.67
   6   3  -6   48.96    1.92
   6   3  -6   50.86    1.81
   6   3  -6   47.85    2.14
   6   3  -6   47.36    1.75
  -5  -3   6   25.34    1.00
   5  -3  -6   27.21    0.93
  -5  -3   6   25.81    0.98
   5  -3  -6   25.53    0.90
   5   3  -6   25.06    1.01
   5   3  -6   26.28    1.13
   5   3  -6   26.48    1.03
   5   3  -6   26.66    1.29
   4  -3  -6   17.14    0.62
  -4  -3   6   16.55    0.71
  -4  -3   6   17.56    0.68
   4   3  -6   17.71    0.82
  -4   3   6   16.35    0.56
   4   3  -6   18.06    0.73
   4   3  -6   16.84    0.92
  -4   3   6   18.31    0.56
   4   3  -6   17.10    0.74
   3  -3  -6    5.09    0.19
  -3  -3   6    4.38    0.31
  -3  -3   6    4.53    0.30
   3  -3  -6    4.62    0.24
   3   3  -6    4.47    0.38
   3   3  -6    4.63    0.32
  -3   3   6    4.71    0.19
   3   3  -6    4.66    0.39
  -3   3   6    5.01    0.20
  -2  -3   6    0.05    0.11
   2  -3  -6    0.15    0.07
   2  -3  -6    0.13    0.10
  -2  -3   6   -0.07    0.10
   2  -3  -6    0.19    0.08
  -2  -3   6    0.15    0.14
   2   3  -6    0.16    0.12
  -2   3   6    0.17    0.06
  -2   3   6    0.07    0.06
  -2   3   6    0.18    0.09
  -2   3   6    0.13    0.07
   2   3  -6    0.09    0.18
   1  -3  -6   71.59    2.68
  -1  -3   6   76.23    2.56
   1  -3  -6   76.85    2.51
  -1  -3   6   80.12    2.58
  -1  -3   6   75.22    2.69
  -1   3   6   77.03    2.65
  -1   3   6   77.54    2.51
  -1   3   6   79.40    2.53
   1   3  -6   76.49    2.97
   1   3  -6   76.42    2.71
   0  -3  -6    8.55    0.38
   0  -3   6    8.55    0.48
   0  -3  -6    8.27    0.45
   0  -3   6    8.35    0.43
   0   3  -6    7.76    0.43
   0   3   6    8.32    0.37
   0   3   6    8.34    0.42
   0   3   6    8.29    0.44
   1  -3   6    5.05    0.36
  -1  -3  -6    4.33    0.37
  -1  -3  -6    5.19    0.30
   1  -3   6    5.13    0.36
   1   3   6    5.37    0.36
   1   3   6    5.11    0.30
   1   3   6    4.99    0.39
  -1   3  -6    4.88    0.33
   2  -3   6   13.25    0.61
  -2  -3  -6   13.84    0.58
   2  -3   6   14.23    0.71
  -2   3  -6   14.19    0.62
   2   3   6   12.91    0.72
   2   3   6   13.81    0.66
   3  -3   6   12.64    0.63
  -3  -3  -6   11.56    0.58
   3  -3   6   13.78    0.73
   3   3   6   12.65    0.67
   3   3   6   12.00    0.69
  -3   3  -6   12.90    0.60
   4  -3   6   21.91    0.91
  -4  -3  -6   20.77    0.88
   4  -3   6   23.14    1.06
  -4   3  -6   21.87    0.93
   4   3   6   21.64    1.06
  -4   3  -6   20.77    0.92
   4   3   6   21.66    0.99
   5  -3   6    2.33    0.39
   5  -3   6    2.11    0.30
  -5  -3  -6    2.28    0.29
  -5   3  -6    1.70    0.28
   5   3   6    2.02    0.41
  -5   3  -6    2.00    0.24
   5   3   6    2.09    0.34
   6  -3   6    1.23    0.35
  -6  -3  -6    1.48    0.35
   6  -3   6    1.36    0.37
  -6   3  -6    1.10    0.35
   6   3   6    1.45    0.42
   6   3   6    0.69    0.37
  -7  -3  -6    9.57    0.62
   7  -3   6   12.02    0.89
   7  -3   6    9.67    0.63
  -7   3  -6    9.74    0.62
   7   3   6   12.57    1.00
   7   3   6   12.01    0.82
   8  -3   6    2.56    0.39
   8  -3   6    1.75    0.46
  -8  -3  -6    2.53    0.37
   8   3   6    2.91    0.55
  -8   3  -6    2.13    0.37
   8   3   6    2.41    0.49
   9  -3   6   12.99    0.83
  -9  -3  -6   11.73    0.82
   9  -3   6   12.87    0.93
   9   3   6   13.57    0.93
   9   3   6   14.37    1.16
  -9   3  -6   10.07    0.72
  10  -3   6    0.87    0.55
 -10  -3  -6    0.61    0.41
  10   3   6    1.25    0.49
  10   3   6    1.80    0.68
 -10   3  -6    0.89    0.42
  11  -3   6    3.47    0.73
 -11  -3  -6    3.45    0.58
  11   3   6    2.72    0.60
 -11   3  -6    2.69    0.53
  11   3   6    3.21    0.83
 -13  -4   6   -0.39    0.27
  13   4  -6    0.12    0.46
  13   4  -6   -0.19    0.35
 -12  -4   6    0.17    0.29
  12   4  -6    0.16    0.52
  12   4  -6    0.85    0.44
 -11  -4   6    0.85    0.30
  11  -4  -6    0.62    0.35
  11   4  -6    0.81    0.50
  11   4  -6    0.39    0.41
 -10  -4   6    0.57    0.28
  10  -4  -6    0.88    0.34
  10  -4  -6    0.73    0.22
  10   4  -6    0.98    0.48
  10   4  -6    0.93    0.42
  -9  -4   6    4.75    0.43
   9  -4  -6    4.35    0.31
   9  -4  -6    4.28    0.52
  -9   4   6    5.11    0.20
   9   4  -6    4.29    0.59
   9   4  -6    4.30    0.60
  -8  -4   6    5.60    0.43
  -8  -4   6    5.62    0.39
   8  -4  -6    4.33    0.51
   8  -4  -6    4.90    0.30
   8   4  -6    5.01    0.44
   8   4  -6    5.98    0.63
   8   4  -6    4.95    0.64
  -7  -4   6   40.96    1.48
   7  -4  -6   39.52    1.37
  -7  -4   6   40.29    1.52
   7  -4  -6   41.45    1.79
   7  -4  -6   40.07    1.40
   7   4  -6   38.89    1.91
   7   4  -6   39.58    1.71
   7   4  -6   39.35    1.53
  -6  -4   6    2.59    0.28
  -6  -4   6    2.90    0.30
   6  -4  -6    2.77    0.13
   6  -4  -6    2.33    0.11
   6   4  -6    2.55    0.40
   6   4  -6    3.19    0.34
   6   4  -6    2.43    0.40
  -5  -4   6    0.15    0.16
  -5  -4   6    0.50    0.19
   5   4  -6    0.01    0.25
   5   4  -6    0.31    0.21
   5   4  -6    0.20    0.19
  -4  -4   6    1.39    0.22
  -4  -4   6    1.27    0.22
   4  -4  -6    1.42    0.10
   4   4  -6    1.42    0.28
   4   4  -6    1.58    0.27
   4   4  -6    1.41    0.25
  -3  -4   6    8.83    0.42
   3  -4  -6    8.10    0.36
  -3  -4   6    8.74    0.44
   3   4  -6    7.89    0.58
  -3   4   6    8.20    0.30
  -3   4   6    8.53    0.31
   3   4  -6    8.58    0.54
  -2  -4   6   32.50    1.29
   2  -4  -6   34.85    1.16
   2  -4  -6   32.69    1.25
  -2  -4   6   33.09    1.22
   2  -4  -6   34.35    1.13
  -2   4   6   33.36    1.17
  -2   4   6   35.26    1.16
  -2   4   6   34.98    1.16
   2   4  -6   35.31    1.48
   1  -4  -6  122.63    4.45
  -1  -4   6  130.57    4.25
   1  -4  -6  131.52    4.18
  -1  -4   6  129.50    4.47
   1   4  -6  129.63    4.89
  -1   4   6  129.27    4.40
  -1   4   6  130.70    4.21
  -1   4   6  131.94    4.18
   0  -4  -6   15.01    0.57
   0  -4   6   14.41    0.64
   0  -4  -6   13.09    0.66
   0  -4   6   14.47    0.67
   0   4   6   15.12    0.58
   0   4   6   15.26    0.63
   0   4   6   14.63    0.65
   0   4  -6   14.32    0.70
  -1  -4  -6   39.24    1.32
   1  -4   6   38.21    1.44
   1  -4   6   36.88    1.35
  -1  -4  -6   35.55    1.45
   1   4   6   36.74    1.36
  -1   4  -6   37.80    1.50
   1   4   6   37.08    1.45
  -1   4  -6   35.41    1.36
   1   4   6   36.83    1.30
  -2  -4  -6    0.26    0.16
   2  -4   6    0.22    0.16
   2  -4   6    0.03    0.19
  -2   4  -6   -0.02    0.15
   2   4   6    0.16    0.26
   2   4   6    0.22    0.17
   3  -4   6   29.06    1.13
   3  -4   6   30.55    1.26
  -3  -4  -6   28.53    1.10
   3   4   6   29.41    1.17
   3   4   6   28.26    1.26
  -3   4  -6   28.18    1.15
   4  -4   6    2.31    0.29
  -4  -4  -6    2.35    0.27
   4  -4   6    2.68    0.36
  -4   4  -6    1.85    0.21
   4   4   6    2.83    0.40
   4   4   6    2.76    0.47
  -4   4  -6    2.64    0.36
   5  -4   6   24.56    1.16
  -5  -4  -6   21.46    0.95
   5  -4   6   23.18    0.98
  -5   4  -6   22.75    0.99
  -5   4  -6   21.83    0.92
   5   4   6   23.37    1.24
   5   4   6   23.78    1.06
   6  -4   6    0.15    0.42
  -6  -4  -6    0.62    0.25
   6  -4   6    0.77    0.26
  -6   4  -6    0.61    0.26
   6   4   6    0.40    0.48
   6   4   6    1.30    0.35
   7  -4   6   28.25    1.41
  -7  -4  -6   27.74    1.22
   7  -4   6   28.23    1.22
  -7   4  -6   26.29    1.22
   7   4   6   26.76    1.43
   7   4   6   29.25    1.35
  -8  -4  -6    5.45    0.51
   8  -4   6    6.52    0.61
   8  -4   6    5.59    0.71
   8   4   6    6.27    0.83
   8   4   6    5.53    0.65
  -8   4  -6    4.36    0.48
   9  -4   6    0.47    0.35
  -9  -4  -6    0.98    0.32
   9  -4   6    0.18    0.37
  -9   4  -6    0.49    0.39
   9   4   6    0.47    0.61
   9   4   6    2.09    0.51
 -10  -4  -6    1.16    0.36
  10  -4   6    1.32    0.58
  10   4   6    1.17    0.39
  10   4   6    1.62    0.65
 -10   4  -6    0.60    0.43
 -11  -4  -6    0.27    0.43
  11  -4   6    0.63    0.59
  11   4   6    1.79    0.71
  11   4   6    0.90    0.38
 -11   4  -6    0.41    0.43
 -13  -5   6    2.06    0.45
  13   5  -6    2.29    0.63
 -12  -5   6   -0.66    0.27
  12   5  -6    0.31    0.44
  12   5  -6   -0.51    0.48
 -11  -5   6    3.75    0.45
  11   5  -6    3.93    0.72
  11   5  -6    3.45    0.64
  10  -5  -6    1.20    0.37
 -10  -5   6    1.38    0.34
  10   5  -6    1.08    0.43
  10   5  -6    0.42    0.44
   9  -5  -6    4.16    0.49
  -9  -5   6    3.15    0.38
   9  -5  -6    3.46    0.24
   9   5  -6    3.61    0.62
   9   5  -6    2.28    0.53
  -8  -5   6    0.48    0.22
   8  -5  -6    0.22    0.09
   8  -5  -6    0.39    0.26
  -8  -5   6    0.30    0.19
   8   5  -6    0.51    0.28
   8   5  -6    0.36    0.31
   8   5  -6    0.12    0.28
   7  -5  -6    1.15    0.06
   7  -5  -6    1.46    0.07
   7  -5  -6    1.58    0.32
  -7  -5   6    1.41    0.29
  -7  -5   6    1.01    0.25
   7   5  -6    1.30    0.32
   7   5  -6    1.10    0.42
   7   5  -6    0.87    0.40
  -6  -5   6   44.70    1.69
  -6  -5   6   46.69    1.64
   6   5  -6   44.54    2.05
   6   5  -6   43.88    1.84
   6   5  -6   44.71    1.70
  -5  -5   6   98.91    3.27
  -5  -5   6   95.10    3.41
   5   5  -6   97.77    3.92
   5   5  -6   95.92    3.57
   5   5  -6   98.84    3.34
   4  -5  -6   14.11    0.53
  -4  -5   6   14.86    0.66
  -4  -5   6   14.57    0.68
   4   5  -6   14.31    0.69
   4   5  -6   14.64    0.80
   4   5  -6   15.40    0.86
  -3  -5   6   43.09    1.56
  -3  -5   6   43.04    1.64
   3  -5  -6   42.37    1.55
  -3   5   6   43.04    1.43
   3   5  -6   45.91    1.76
   3   5  -6   44.62    1.91
  -3   5   6   46.17    1.44
   2  -5  -6    0.71    0.15
  -2  -5   6    0.40    0.23
   2  -5  -6    0.75    0.09
  -2  -5   6    0.33    0.16
  -2   5   6    0.85    0.14
   2   5  -6    0.50    0.24
  -2   5   6    0.85    0.08
  -2   5   6    0.70    0.08
   2   5  -6    0.70    0.28
  -1  -5   6    6.50    0.46
   1  -5  -6    7.37    0.32
   1  -5  -6    6.30    0.39
  -1  -5   6    6.60    0.39
  -1   5   6    6.84    0.38
  -1   5   6    7.06    0.32
   1   5  -6    7.07    0.49
  -1   5   6    6.52    0.36
   0  -5  -6    5.76    0.30
   0  -5  -6    5.54    0.39
   0  -5   6    5.57    0.39
   0  -5   6    5.79    0.36
   0   5   6    6.32    0.38
   0   5   6    5.99    0.31
   0   5   6    5.39    0.38
   0   5  -6    5.59    0.41
  -1  -5  -6    4.18    0.35
  -1  -5  -6    4.33    0.30
   1  -5   6    4.18    0.42
   1  -5   6    3.91    0.31
  -1   5  -6    4.77    0.33
   1   5   6    4.38    0.39
   1   5   6    4.43    0.37
   1   5   6    4.44    0.29
   2  -5   6   10.44    0.53
  -2  -5  -6   10.48    0.49
   2  -5   6   11.32    0.60
  -2   5  -6    9.52    0.54
  -2   5  -6   10.03    0.51
   2   5   6   10.22    0.65
   2   5   6   10.59    0.60
  -3  -5  -6   35.54    1.35
   3  -5   6   38.49    1.39
   3  -5   6   38.44    1.50
   3   5   6   37.27    1.55
  -3   5  -6   35.00    1.39
  -3   5  -6   36.38    1.42
   3   5   6   36.90    1.46
   4  -5   6    0.14    0.19
  -4  -5  -6    0.44    0.19
   4  -5   6    0.17    0.25
   4   5   6    0.39    0.32
  -4   5  -6    0.15    0.27
   4   5   6    0.24    0.37
  -4   5  -6    0.42    0.07
  -4   5  -6    0.30    0.07
   5  -5   6   24.77    1.17
  -5  -5  -6   25.88    1.07
   5  -5   6   24.90    1.04
   5   5   6   25.64    1.26
  -5   5  -6   23.02    1.05
   5   5   6   24.58    1.13
   6  -5   6    6.46    0.60
  -6  -5  -6    6.72    0.49
   6  -5   6    6.28    0.48
   6   5   6    6.81    0.68
  -6   5  -6    5.40    0.54
   6   5   6    6.28    0.58
  -7  -5  -6    3.68    0.42
   7  -5   6    3.83    0.53
   7  -5   6    4.60    0.50
   7   5   6    3.61    0.49
   7   5   6    4.39    0.64
  -7   5  -6    4.18    0.45
   8  -5   6    0.55    0.34
  -8  -5  -6    0.29    0.27
   8  -5   6    0.75    0.49
  -8   5  -6    0.71    0.39
   8   5   6    0.52    0.33
   8   5   6    1.84    0.63
   9  -5   6    1.29    0.55
  -9  -5  -6    1.36    0.35
   9   5   6    1.02    0.59
   9   5   6    1.48    0.51
  -9   5  -6   -0.09    0.38
  10  -5   6    0.31    0.52
 -10  -5  -6    0.47    0.34
 -10   5  -6    0.16    0.41
  10   5   6    0.37    0.48
  10   5   6    0.75    0.50
 -11  -5  -6    0.13    0.33
  11  -5   6    0.08    0.54
 -11   5  -6   -0.07    0.29
  11   5   6    0.93    0.69
  11   5   6    0.94    0.39
 -12  -6   6   -0.20    0.30
  12   6  -6    0.23    0.55
  12   6  -6    0.52    0.51
 -11  -6   6    0.53    0.34
  11   6  -6    1.63    0.52
  11   6  -6    0.67    0.54
 -10  -6   6    1.23    0.35
  10  -6  -6    1.50    0.37
  10   6  -6    0.94    0.55
  10   6  -6    1.77    0.56
   9  -6  -6   16.78    1.00
  -9  -6   6   17.04    0.85
   9   6  -6   15.69    1.13
   9   6  -6   15.28    1.09
  -8  -6   6    1.91    0.31
   8  -6  -6    1.65    0.34
  -8  -6   6    1.09    0.31
   8   6  -6    1.17    0.46
   8   6  -6    1.85    0.52
   8   6  -6    1.21    0.35
  -7  -6   6   13.87    0.66
  -7  -6   6   12.55    0.68
   7  -6  -6   13.31    0.80
   7   6  -6   12.80    0.90
   7   6  -6   12.81    1.00
   7   6  -6   12.71    0.71
  -6  -6   6   46.98    1.79
  -6  -6   6   49.44    1.74
   6   6  -6   45.68    1.79
   6   6  -6   46.65    2.17
   6   6  -6   48.17    2.00
  -5  -6   6    0.86    0.26
  -5  -6   6    1.15    0.23
   5   6  -6    0.72    0.30
   5   6  -6    1.04    0.31
   5   6  -6    1.36    0.34
  -4  -6   6    1.54    0.24
  -4  -6   6    1.84    0.29
   4  -6  -6    1.74    0.15
   4   6  -6    1.57    0.37
   4   6  -6    1.72    0.31
   4   6  -6    2.13    0.39
   3  -6  -6    1.28    0.07
  -3  -6   6    1.42    0.23
  -3  -6   6    1.28    0.26
   3  -6  -6    1.31    0.17
   3   6  -6    1.37    0.34
  -3   6   6    1.36    0.12
   3   6  -6    1.37    0.29
  -3   6   6    1.55    0.14
  -2  -6   6   19.73    0.88
   2  -6  -6   19.72    0.69
  -2  -6   6   19.43    0.83
   2  -6  -6   19.59    0.81
  -2   6   6   19.67    0.71
  -2   6   6   19.01    0.70
  -2   6   6   19.92    0.74
   2   6  -6   20.65    0.99
   2   6  -6   19.15    1.01
  -2   6   6   20.02    0.70
  -1  -6   6   56.04    1.98
  -1  -6   6   57.38    2.10
   1  -6  -6   57.24    1.89
   1  -6  -6   55.34    2.08
   1   6  -6   56.07    2.31
  -1   6   6   59.10    1.95
  -1   6   6   56.91    1.90
  -1   6   6   55.80    2.02
   0  -6   6   21.39    0.87
   0  -6  -6   20.34    0.92
   0  -6   6   21.71    0.93
   0  -6  -6   20.23    0.78
   0   6   6   21.10    0.85
   0   6   6   19.19    0.88
   0   6  -6   20.16    0.96
   0   6   6   20.51    0.78
   1  -6   6   10.04    0.60
   1  -6   6   10.47    0.55
  -1  -6  -6    9.14    0.59
  -1  -6  -6    9.68    0.47
   1   6   6   10.02    0.56
   1   6   6    9.53    0.59
   1   6   6    9.76    0.47
  -1   6  -6   10.35    0.55
   2  -6   6    0.86    0.31
  -2  -6  -6    0.77    0.17
   2  -6   6    0.70    0.20
   2   6   6    0.94    0.29
  -2   6  -6    0.83    0.16
   2   6   6    0.69    0.30
   3  -6   6    1.93    0.27
   3  -6   6    1.88    0.33
  -3  -6  -6    1.62    0.24
   3   6   6    1.53    0.41
   3   6   6    2.00    0.32
  -3   6  -6    1.42    0.27
  -3   6  -6    1.88    0.17
   4  -6   6    8.54    0.52
  -4  -6  -6    9.55    0.55
   4  -6   6    8.24    0.68
  -4   6  -6    7.26    0.54
   4   6   6    9.51    0.67
   4   6   6    8.97    0.75
  -5  -6  -6    1.00    0.24
   5  -6   6    0.00    0.28
   5  -6   6   -0.20    0.27
   5   6   6   -0.01    0.36
   5   6   6    0.59    0.45
  -5   6  -6    0.70    0.34
  -6  -6  -6    6.26    0.48
   6  -6   6    5.30    0.51
   6  -6   6    5.75    0.67
   6   6   6    5.78    0.68
  -6   6  -6    5.61    0.56
   6   6   6    5.59    0.63
   7  -6   6    7.65    0.75
   7  -6   6    5.83    0.49
  -7  -6  -6    6.30    0.53
  -7   6  -6    5.24    0.56
   7   6   6    6.31    0.82
   7   6   6    7.17    0.65
   8  -6   6    1.85    0.47
   8  -6   6    1.35    0.36
  -8  -6  -6    1.39    0.34
   8   6   6    0.93    0.40
  -8   6  -6    1.75    0.36
   8   6   6    1.44    0.67
  -9  -6  -6    1.30    0.36
   9  -6   6    1.04    0.56
   9   6   6    3.73    0.76
  -9   6  -6    1.14    0.42
   9   6   6    2.07    0.47
 -10  -6  -6   -0.09    0.30
  10  -6   6    0.00    0.50
  10   6   6    1.58    0.71
 -10   6  -6    1.26    0.44
  10   6   6    0.68    0.52
  11  -6   6    0.61    0.58
 -11  -6  -6   -0.55    0.30
 -11   6  -6    0.39    0.41
  11   6   6    0.64    0.69
  11   6   6    0.46    0.50
 -12  -7   6    1.65    0.43
  12   7  -6    0.48    0.66
  12   7  -6    1.29    0.60
 -11  -7   6    4.27    0.52
  11   7  -6    4.14    0.71
  11   7  -6    4.19    0.72
 -10  -7   6    2.97    0.39
  10   7  -6    2.39    0.63
  10   7  -6    2.39    0.65
   9  -7  -6    3.78    0.49
  -9  -7   6    3.96    0.42
   9   7  -6    4.51    0.70
   9   7  -6    3.65    0.69
   8  -7  -6    4.27    0.47
  -8  -7   6    3.67    0.42
  -8  -7   6    4.16    0.42
   8   7  -6    3.80    0.65
   8   7  -6    3.91    0.50
   8   7  -6    3.87    0.64
  -7  -7   6    0.32    0.22
  -7  -7   6    0.59    0.22
   7   7  -6    0.52    0.33
   7   7  -6    0.53    0.32
   7   7  -6    0.61    0.34
  -6  -7   6    7.66    0.55
  -6  -7   6    8.05    0.55
   6   7  -6    7.38    0.71
   6   7  -6    7.38    0.65
   6   7  -6    7.67    0.55
  -5  -7   6    5.38    0.46
  -5  -7   6    4.54    0.43
   5  -7  -6    5.43    0.22
   5   7  -6    5.24    0.55
   5   7  -6    5.05    0.51
   5   7  -6    4.63    0.57
   4  -7  -6   23.08    0.85
   4  -7  -6   23.53    0.82
  -4  -7   6   22.55    0.94
  -4  -7   6   24.25    1.01
  -4   7   6   22.69    0.75
  -4   7   6   20.50    0.74
   4   7  -6   22.36    1.15
   4   7  -6   22.86    1.25
   4   7  -6   21.95    1.00
   3  -7  -6    3.42    0.15
   3  -7  -6    3.25    0.22
  -3  -7   6    2.52    0.33
  -3  -7   6    3.25    0.37
   3  -7  -6    3.30    0.27
   3   7  -6    2.97    0.45
  -3   7   6    3.44    0.23
   3   7  -6    3.79    0.38
  -3   7   6    3.04    0.19
   3   7  -6    3.64    0.48
   2  -7  -6    9.77    0.40
  -2  -7   6   10.20    0.52
   2  -7  -6    9.70    0.51
   2  -7  -6    9.74    0.45
  -2  -7   6    9.29    0.54
   2   7  -6    9.86    0.70
  -2   7   6   10.00    0.47
   2   7  -6    9.22    0.69
  -2   7   6    9.55    0.41
   1  -7  -6    1.77    0.26
   1  -7  -6    2.19    0.20
   1  -7  -6    1.98    0.22
  -1  -7   6    1.62    0.24
  -1  -7   6    2.02    0.28
  -1   7   6    1.53    0.23
  -1   7   6    1.56    0.23
   1   7  -6    2.19    0.40
  -1   7   6    1.69    0.18
   1   7  -6    1.52    0.30
   0  -7   6    4.01    0.33
   0  -7  -6    3.91    0.38
   0  -7   6    3.81    0.37
   0  -7  -6    3.64    0.27
   0   7   6    4.25    0.37
   0   7   6    4.22    0.29
   0   7  -6    4.18    0.39
   0   7   6    4.03    0.39
  -1  -7  -6   38.55    1.38
   1  -7   6   39.01    1.53
   1  -7   6   37.63    1.43
   1   7   6   36.69    1.54
  -1   7  -6   37.77    1.58
   1   7   6   39.46    1.38
   1   7   6   39.78    1.48
  -2  -7  -6    0.82    0.22
   2  -7   6    0.77    0.27
   2  -7   6    0.55    0.25
   2   7   6    0.60    0.30
   2   7   6    0.71    0.33
  -2   7  -6    0.99    0.17
  -3  -7  -6   16.94    0.77
   3  -7   6   17.77    0.87
   3  -7   6   18.81    0.84
  -3   7  -6   16.59    0.66
   3   7   6   17.53    0.90
   3   7   6   15.91    0.91
   4  -7   6   -0.10    0.25
  -4  -7  -6    0.07    0.23
   4  -7   6   -0.07    0.19
   4   7   6    0.01    0.39
  -4   7  -6   -1.00    0.28
   4   7   6   -0.07    0.24
   5  -7   6   24.20    1.08
  -5  -7  -6   23.06    1.03
   5  -7   6   25.20    1.23
  -5   7  -6   23.80    1.09
   5   7   6   27.29    1.24
   5   7   6   24.53    1.34
  -6  -7  -6    0.99    0.29
   6  -7   6    0.74    0.35
   6  -7   6    0.98    0.34
   6   7   6    1.12    0.46
  -6   7  -6    0.70    0.29
   6   7   6    0.93    0.42
  -7  -7  -6   15.23    0.85
   7  -7   6   17.65    0.89
   7  -7   6   16.77    0.98
   7   7   6   17.31    1.13
   7   7   6   18.58    1.11
  -7   7  -6   16.41    0.89
  -8  -7  -6    0.76    0.32
   8  -7   6    1.28    0.51
   8   7   6    1.10    0.39
   8   7   6    2.50    0.70
  -8   7  -6    1.29    0.41
  -9  -7  -6    0.04    0.29
   9  -7   6    0.13    0.46
  -9   7  -6   -0.57    0.35
   9   7   6    0.18    0.36
   9   7   6    0.90    0.66
 -10  -7  -6    1.11    0.40
  10  -7   6    1.93    0.59
  10   7   6    2.33    0.63
  10   7   6    0.97    0.74
 -10   7  -6    1.25    0.45
  11   7   6   -0.05    0.38
 -11  -8   6   -0.32    0.33
  11   8  -6    0.38    0.55
  11   8  -6   -0.54    0.56
 -10  -8   6    3.12    0.48
  10   8  -6    2.72    0.69
  10   8  -6    3.09    0.64
  -9  -8   6   11.67    0.75
   9   8  -6   10.14    0.86
   9   8  -6    9.31    0.95
   9   8  -6   10.43    1.01
  -8  -8   6    3.12    0.38
   8  -8  -6    2.47    0.41
  -8  -8   6    2.92    0.38
   8   8  -6    3.33    0.51
   8   8  -6    1.86    0.48
   8   8  -6    2.27    0.51
  -7  -8   6    1.39    0.30
  -7  -8   6    1.14    0.35
   7   8  -6    1.71    0.45
   7   8  -6    1.10    0.52
   7   8  -6    1.60    0.42
   6  -8  -6    9.67    0.36
  -6  -8   6   10.38    0.59
  -6  -8   6   10.24    0.65
   6   8  -6   10.21    0.87
   6   8  -6    8.97    0.64
   6   8  -6    9.02    0.81
   5  -8  -6   -0.12    0.08
  -5  -8   6    0.02    0.19
  -5  -8   6    0.00    0.27
   5   8  -6   -0.23    0.36
   5   8  -6   -0.29    0.35
   5   8  -6   -0.06    0.21
  -4  -8   6    0.20    0.21
  -4  -8   6    0.08    0.20
   4  -8  -6    0.29    0.14
   4  -8  -6    0.37    0.12
  -4   8   6    0.48    0.11
   4   8  -6    0.03    0.30
   4   8  -6    0.52    0.30
  -4   8   6    0.44    0.09
   4   8  -6    0.38    0.30
  -3  -8   6   11.48    0.60
   3  -8  -6   11.96    0.56
   3  -8  -6   11.28    0.49
  -3  -8   6   11.85    0.68
   3  -8  -6   11.03    0.42
   3   8  -6   11.03    0.74
   3   8  -6   11.52    0.66
   3   8  -6   10.55    0.82
  -3   8   6   11.37    0.50
  -2  -8   6   35.61    1.48
   2  -8  -6   38.19    1.37
   2  -8  -6   38.87    1.46
  -2  -8   6   37.63    1.41
   2  -8  -6   37.42    1.27
  -2   8   6   38.43    1.35
  -2   8   6   34.89    1.33
  -2   8   6   38.06    1.29
   2   8  -6   37.33    1.71
   2   8  -6   35.62    1.59
   1  -8  -6    2.45    0.24
   1  -8  -6    3.11    0.27
  -1  -8   6    2.80    0.39
   1  -8  -6    3.02    0.34
  -1  -8   6    2.94    0.31
  -1   8   6    2.80    0.30
   1   8  -6    3.22    0.48
   1   8  -6    2.65    0.38
  -1   8   6    2.86    0.29
  -1   8   6    2.67    0.25
   0  -8  -6   19.30    0.84
   0  -8  -6   19.49    0.95
   0  -8   6   19.51    0.86
   0  -8   6   21.17    0.93
   0  -8  -6   19.84    0.78
   0   8   6   20.04    0.87
   0   8  -6   20.42    0.99
   0   8   6   18.68    0.90
   0   8   6   19.52    0.78
   0   8  -6   20.61    1.01
  -1  -8  -6   24.60    0.95
   1  -8   6   25.74    1.11
  -1  -8  -6   23.60    1.02
   1  -8   6   26.89    1.06
   1   8   6   23.78    1.12
   1   8   6   25.25    1.08
  -1   8  -6   25.09    1.12
  -2  -8  -6    0.62    0.21
   2  -8   6    0.83    0.28
   2  -8   6    0.78    0.23
   2   8   6   -0.05    0.31
  -2   8  -6    0.54    0.16
   2   8   6    0.28    0.24
   3  -8   6    8.86    0.53
   3  -8   6    9.53    0.69
  -3  -8  -6    7.98    0.53
   3   8   6    8.34    0.60
   3   8   6    8.30    0.65
   4  -8   6   -0.29    0.36
  -4  -8  -6    0.07    0.18
   4  -8   6   -0.57    0.26
   4   8   6   -0.11    0.38
   4   8   6   -0.45    0.23
  -5  -8  -6    6.01    0.46
   5  -8   6    5.69    0.64
   5  -8   6    5.83    0.46
  -5   8  -6    4.57    0.54
   5   8   6    6.68    0.60
   5   8   6    5.41    0.70
   6  -8   6    1.60    0.31
  -6  -8  -6    2.35    0.35
   6  -8   6    2.41    0.52
   6   8   6    2.41    0.52
   6   8   6    2.42    0.61
  -6   8  -6    1.95    0.44
   7  -8   6    0.35    0.34
  -7  -8  -6    0.25    0.27
   7  -8   6    0.32    0.47
   7   8   6    0.67    0.48
  -7   8  -6    0.65    0.40
   7   8   6    1.10    0.45
  -8  -8  -6    2.22    0.39
   8  -8   6    3.13    0.61
  -8   8  -6    2.23    0.41
   8   8   6    3.01    0.62
   8   8   6    2.83    0.51
   9  -8   6    0.03    0.36
  -9  -8  -6   -0.33    0.29
   9   8   6    0.86    0.42
   9   8   6   -0.05    0.45
  -9   8  -6    0.42    0.42
  10  -8   6   -0.21    0.47
 -10  -8  -6   -0.19    0.45
  10   8   6   -0.81    0.50
  10   8   6    0.38    0.51
 -10   8  -6   -0.13    0.40
 -11  -9   6   -0.12    0.37
  11   9  -6    0.35    0.58
  11   9  -6   -1.78    0.52
 -10  -9   6    6.26    0.62
  10   9  -6    5.07    0.89
  10   9  -6    5.97    0.87
  -9  -9   6    1.03    0.40
   9   9  -6    1.16    0.61
   9   9  -6    0.89    0.34
   9   9  -6    1.75    0.62
  -8  -9   6    0.16    0.27
   8  -9  -6    0.50    0.28
  -8  -9   6    0.70    0.35
   8   9  -6    0.90    0.53
   8   9  -6    0.47    0.38
   8   9  -6    0.37    0.50
  -7  -9   6   -0.01    0.32
  -7  -9   6   -0.02    0.31
   7   9  -6   -0.33    0.34
   7   9  -6   -0.01    0.43
   7   9  -6   -0.25    0.47
  -6  -9   6    0.15    0.24
   6  -9  -6    0.10    0.09
  -6  -9   6    0.05    0.31
   6   9  -6   -0.30    0.32
   6   9  -6    0.13    0.32
   6   9  -6    0.04    0.33
  -5  -9   6    0.41    0.31
   5  -9  -6    0.04    0.11
  -5  -9   6   -0.06    0.22
   5   9  -6    0.06    0.43
  -5   9   6    0.17    0.06
   5   9  -6   -0.04    0.34
   5   9  -6   -0.17    0.37
  -5   9   6    0.16    0.03
   4  -9  -6   19.40    0.75
  -4  -9   6   20.38    0.97
  -4  -9   6   18.50    0.87
   4   9  -6   18.93    1.13
   4   9  -6   19.12    1.07
  -4   9   6   19.91    0.73
   4   9  -6   18.48    0.96
  -3  -9   6    0.30    0.24
  -3  -9   6    0.52    0.24
   3  -9  -6    0.55    0.16
  -3   9   6    0.55    0.19
   3   9  -6    0.77    0.42
   3   9  -6    0.12    0.26
   3   9  -6    0.64    0.27
  -2  -9   6   38.14    1.47
   2  -9  -6   38.68    1.43
  -2  -9   6   39.04    1.56
  -2   9   6   38.04    1.42
   2   9  -6   39.94    1.81
   2   9  -6   38.59    1.69
  -1  -9   6   -0.50    0.29
   1  -9  -6    0.02    0.18
  -1  -9   6   -0.31    0.26
   1  -9  -6   -0.13    0.12
   1   9  -6   -0.45    0.34
  -1   9   6   -0.24    0.18
  -1   9   6   -0.49    0.22
   1   9  -6    0.09    0.24
   0  -9   6    0.96    0.36
   0  -9   6    0.93    0.25
   0  -9  -6    1.04    0.20
   0  -9  -6    1.11    0.24
   0   9  -6    1.09    0.27
   0   9  -6    0.70    0.31
   0   9   6    0.66    0.29
   0   9   6    0.42    0.27
   1  -9   6    2.11    0.35
  -1  -9  -6    1.71    0.26
   1  -9   6    1.78    0.33
  -1  -9  -6    2.06    0.27
   1   9   6    2.04    0.38
  -1   9  -6    1.94    0.38
  -1   9  -6    1.59    0.27
   1   9   6    1.30    0.34
   2  -9   6   35.25    1.46
   2  -9   6   36.33    1.38
  -2  -9  -6   33.23    1.30
   2   9   6   33.21    1.40
   2   9   6   33.88    1.52
   3  -9   6    1.71    0.36
   3  -9   6    1.85    0.36
  -3  -9  -6    1.40    0.30
   3   9   6    2.11    0.37
   3   9   6    0.96    0.42
  -4  -9  -6    3.05    0.38
   4  -9   6    2.62    0.44
   4  -9   6    2.95    0.36
   4   9   6    3.52    0.47
   4   9   6    3.24    0.58
  -5  -9  -6    0.44    0.23
   5  -9   6   -0.39    0.28
   5  -9   6   -0.30    0.27
   5   9   6    0.55    0.42
   5   9   6    0.25    0.33
  -6  -9  -6    3.60    0.41
   6  -9   6    3.44    0.57
   6  -9   6    3.70    0.46
   6   9   6    3.96    0.70
   6   9   6    4.44    0.63
  -7  -9  -6    3.93    0.46
   7  -9   6    4.48    0.65
  -7   9  -6    3.95    0.50
   7   9   6    4.32    0.66
   7   9   6    5.32    0.83
   8  -9   6    0.14    0.45
  -8  -9  -6    0.23    0.38
  -8   9  -6    0.55    0.42
   8   9   6    2.14    0.68
   8   9   6    0.72    0.41
   9  -9   6    0.37    0.49
  -9  -9  -6    0.16    0.44
  -9   9  -6    0.09    0.30
   9   9   6    0.47    0.61
   9   9   6    0.58    0.56
 -10  -9  -6   -0.21    0.47
  10   9   6    0.59    0.73
 -10   9  -6    0.19    0.41
  10   9   6   -0.68    0.49
 -10 -10   6    2.47    0.43
  10  10  -6    3.34    0.79
  10  10  -6    0.68    0.52
  -9 -10   6    0.44    0.40
   9  10  -6   -0.38    0.25
   9  10  -6   -0.30    0.37
   9  10  -6   -0.18    0.38
  -8 -10   6   15.00    0.90
  -8 -10   6   14.53    0.81
   8  10  -6   12.61    0.87
   8  10  -6   16.53    1.22
   8  10  -6   12.63    1.11
  -7 -10   6   -0.73    0.32
  -7 -10   6   -0.82    0.32
   7  10  -6   -0.44    0.37
   7  10  -6   -0.11    0.45
   7  10  -6   -0.56    0.33
  -6 -10   6    7.84    0.58
   6 -10  -6    8.80    0.38
  -6 -10   6    9.08    0.69
   6  10  -6    7.96    0.78
   6  10  -6    8.96    0.84
   6  10  -6    8.01    0.75
   5 -10  -6    3.88    0.26
  -5 -10   6    3.78    0.43
  -5 -10   6    3.89    0.46
   5  10  -6    3.64    0.48
  -5  10   6    4.43    0.23
   5  10  -6    4.21    0.66
   5  10  -6    3.90    0.63
  -4 -10   6    4.87    0.47
  -4 -10   6    4.82    0.49
   4 -10  -6    4.87    0.31
   4  10  -6    4.70    0.60
   4  10  -6    5.01    0.66
   4  10  -6    4.73    0.53
  -4  10   6    4.62    0.32
  -3 -10   6   12.18    0.67
   3 -10  -6   12.27    0.56
  -3 -10   6   12.02    0.70
   3  10  -6   11.32    0.90
   3  10  -6   12.85    0.94
  -3  10   6   11.89    0.57
   3  10  -6   10.48    0.72
  -2 -10   6    1.80    0.36
  -2 -10   6    1.89    0.34
   2 -10  -6    1.98    0.26
   2  10  -6    1.12    0.40
   2  10  -6    1.41    0.47
  -2  10   6    1.28    0.28
   2  10  -6    1.75    0.42
  -1 -10   6    0.24    0.22
   1 -10  -6    0.14    0.19
  -1 -10   6    0.03    0.24
  -1  10   6    0.16    0.25
   1  10  -6    0.33    0.30
   1  10  -6    0.61    0.30
   0 -10  -6   -0.35    0.16
   0 -10   6   -0.25    0.19
   0 -10   6   -0.28    0.22
   0 -10  -6   -0.15    0.20
   0  10   6   -0.08    0.24
   0  10   6   -0.33    0.23
   0  10  -6   -0.11    0.26
   0  10  -6   -0.15    0.23
   1 -10   6   -0.58    0.27
  -1 -10  -6   -0.18    0.22
  -1 -10  -6    0.17    0.18
   1 -10   6   -0.34    0.35
   1  10   6   -0.11    0.25
  -1  10  -6    0.24    0.20
  -1  10  -6   -0.30    0.34
   1  10   6   -0.02    0.28
   2 -10   6    5.27    0.50
  -2 -10  -6    5.81    0.44
  -2 -10  -6    5.36    0.51
   2 -10   6    4.88    0.51
  -2  10  -6    4.93    0.60
   2  10   6    4.91    0.55
   2  10   6    4.89    0.57
   3 -10   6    0.15    0.29
   3 -10   6    0.53    0.24
  -3 -10  -6    0.59    0.21
   3  10   6    0.64    0.37
   3  10   6    0.47    0.39
  -3  10  -6    0.65    0.42
   4 -10   6    0.55    0.33
   4 -10   6    0.49    0.33
  -4 -10  -6    0.89    0.30
   4  10   6    0.83    0.36
   4  10   6    0.77    0.42
   5 -10   6   -0.35    0.20
   5 -10   6   -0.13    0.41
  -5 -10  -6    0.72    0.31
   5  10   6    0.10    0.43
   5  10   6    0.34    0.42
   6 -10   6    0.40    0.35
  -6 -10  -6    0.73    0.36
   6  10   6    0.50    0.53
   6  10   6    0.49    0.36
   7 -10   6   -0.59    0.28
  -7 -10  -6   -0.42    0.34
   7  10   6   -0.28    0.34
   7  10   6   -0.08    0.40
   8 -10   6    2.64    0.57
  -8 -10  -6    3.44    0.56
   8  10   6    2.32    0.60
   8  10   6    3.24    0.65
   9 -10   6    0.00    0.48
  -9 -10  -6   -0.52    0.29
   9  10   6    0.16    0.46
   9  10   6    0.29    0.56
 -10 -11   6    2.00    0.42
  10  11  -6    1.71    0.75
  -9 -11   6    1.73    0.47
   9  11  -6    1.58    0.44
   9  11  -6    2.49    0.76
   9  11  -6    0.91    0.68
  -8 -11   6   -0.03    0.39
  -8 -11   6   -0.04    0.29
   8  11  -6   -0.03    0.54
   8  11  -6    0.11    0.42
   8  11  -6    0.12    0.43
  -7 -11   6   -0.17    0.27
  -7 -11   6    0.11    0.39
   7  11  -6   -0.10    0.38
   7  11  -6    0.07    0.49
   7  11  -6   -0.75    0.36
  -6 -11   6    3.08    0.50
   6 -11  -6    2.59    0.22
  -6 -11   6    2.10    0.45
   6  11  -6    2.24    0.64
   6  11  -6    2.51    0.45
   6  11  -6    2.76    0.55
  -5 -11   6   -0.10    0.33
  -5 -11   6    0.18    0.24
   5 -11  -6    0.38    0.14
   5  11  -6    0.49    0.39
   5  11  -6   -0.44    0.45
  -5  11   6    0.04    0.12
   5  11  -6    0.15    0.43
  -4 -11   6    0.02    0.31
  -4 -11   6   -0.05    0.25
   4 -11  -6    0.04    0.15
   4  11  -6   -0.56    0.34
  -4  11   6    0.38    0.18
   4  11  -6    0.18    0.33
   4  11  -6   -0.28    0.24
  -3 -11   6    1.51    0.31
  -3 -11   6    1.50    0.33
   3 -11  -6    1.38    0.24
   3  11  -6    1.09    0.35
   3  11  -6    1.73    0.38
  -3  11   6    1.16    0.25
   3  11  -6    1.64    0.43
  -2 -11   6    1.24    0.32
  -2 -11   6    1.26    0.29
   2 -11  -6    0.69    0.21
   2  11  -6    0.79    0.41
   2  11  -6    1.33    0.40
   2  11  -6    0.35    0.35
  -2  11   6    0.97    0.27
   1 -11  -6    0.53    0.22
  -1 -11   6    0.05    0.29
  -1 -11   6    0.21    0.35
  -1  11   6    0.14    0.24
   1  11  -6   -0.06    0.30
   1  11  -6    0.58    0.33
   0 -11  -6    4.61    0.42
   0 -11   6    4.45    0.49
   0 -11   6    4.28    0.48
   0  11   6    4.11    0.45
   0  11  -6    3.96    0.47
   0  11  -6    4.66    0.57
   1 -11   6    0.55    0.41
  -1 -11  -6    0.49    0.28
   1 -11   6    1.05    0.34
  -1 -11  -6    1.32    0.26
   1  11   6    0.97    0.34
  -1  11  -6    1.08    0.27
  -1  11  -6    1.26    0.45
  -2 -11  -6    1.32    0.24
   2 -11   6    0.77    0.32
  -2 -11  -6    1.07    0.27
   2 -11   6    1.30    0.36
   2  11   6    1.17    0.39
   2  11   6    0.71    0.37
  -2  11  -6    0.99    0.36
   3 -11   6    2.04    0.40
  -3 -11  -6    2.63    0.37
   3 -11   6    2.28    0.34
   3  11   6    2.17    0.49
  -3  11  -6    2.92    0.54
   3  11   6    2.34    0.48
   4 -11   6    3.88    0.48
  -4 -11  -6    3.56    0.43
   4 -11   6    4.35    0.52
   4  11   6    3.98    0.61
   4  11   6    3.46    0.51
  -4  11  -6    3.45    0.59
   5 -11   6   -0.30    0.41
  -5 -11  -6   -0.03    0.21
   5  11   6    0.56    0.48
   5  11   6   -0.18    0.29
  -6 -11  -6    1.77    0.35
   6 -11   6    1.42    0.52
   6  11   6    1.97    0.56
   6  11   6    2.73    0.56
  -7 -11  -6    0.03    0.28
   7 -11   6   -0.81    0.41
   7  11   6   -0.18    0.49
   7  11   6   -0.81    0.49
  -8 -11  -6    0.30    0.43
   8 -11   6    0.66    0.49
   8  11   6    0.91    0.65
   8  11   6    0.59    0.42
  -9 -11  -6   -1.33    0.39
   9  11   6    0.34    0.67
  -9 -12   6    1.80    0.42
   9  12  -6    2.06    0.49
   9  12  -6    1.48    0.72
   9  12  -6    0.72    0.55
  -8 -12   6    2.70    0.54
  -8 -12   6    3.21    0.55
   8  12  -6    2.89    0.63
   8  12  -6    3.38    0.76
   8  12  -6    2.52    0.75
  -7 -12   6    1.89    0.51
  -7 -12   6    1.47    0.47
   7  12  -6    2.85    0.74
   7  12  -6    2.05    0.56
   7  12  -6    2.03    0.47
  -6 -12   6   -0.52    0.24
  -6 -12   6   -0.11    0.26
   6  12  -6   -0.27    0.42
   6  12  -6    0.20    0.54
   6  12  -6   -0.24    0.46
  -5 -12   6    2.85    0.43
   5 -12  -6    2.85    0.29
  -5 -12   6    2.55    0.39
   5  12  -6    2.11    0.62
  -5  12   6    3.04    0.27
   5  12  -6    3.16    0.66
   5  12  -6    2.68    0.48
   4 -12  -6    2.10    0.25
  -4 -12   6    2.10    0.46
  -4 -12   6    2.24    0.43
   4  12  -6    1.92    0.52
  -4  12   6    2.16    0.27
   4  12  -6    2.04    0.59
   4  12  -6    1.97    0.50
   3 -12  -6    9.46    0.54
  -3 -12   6    9.89    0.68
  -3 -12   6   10.35    0.71
  -3  12   6    9.22    0.55
   3  12  -6    8.32    0.70
   3  12  -6    7.94    0.85
   3  12  -6    9.23    0.92
  -2 -12   6    3.56    0.42
  -2 -12   6    3.89    0.47
   2 -12  -6    3.19    0.36
   2  12  -6    3.45    0.49
   2  12  -6    2.79    0.52
   2  12  -6    3.13    0.61
  -2  12   6    5.12    0.47
  -1 -12   6   -0.17    0.36
   1 -12  -6   -0.07    0.21
  -1 -12   6   -0.10    0.23
   1  12  -6    0.17    0.34
   1  12  -6    0.32    0.44
  -1  12   6    0.05    0.28
   1  12  -6   -0.10    0.37
   0 -12   6    0.05    0.22
   0 -12   6   -0.87    0.32
   0 -12  -6   -0.06    0.22
   0  12  -6   -0.17    0.27
   0  12  -6    0.10    0.31
   0  12   6    0.07    0.28
   1 -12   6    2.17    0.40
   1 -12   6    2.05    0.40
  -1 -12  -6    1.74    0.35
   1  12   6    1.54    0.40
  -1  12  -6    2.17    0.53
   2 -12   6    4.23    0.47
  -2 -12  -6    3.66    0.48
   2 -12   6    3.94    0.48
   2  12   6    4.33    0.57
  -2  12  -6    3.28    0.51
   3 -12   6    7.78    0.67
   3 -12   6    9.38    0.60
  -3 -12  -6    7.88    0.61
  -3  12  -6    8.95    0.83
   3  12   6    9.18    0.79
  -4 -12  -6    2.14    0.34
   4 -12   6    2.53    0.54
   4 -12   6    2.69    0.39
   4  12   6    2.21    0.53
   4  12   6    3.33    0.61
   5 -12   6   -0.82    0.43
  -5 -12  -6    0.03    0.23
   5  12   6    0.39    0.47
   5  12   6    0.48    0.45
   6 -12   6    0.34    0.47
  -6 -12  -6    0.84    0.31
   6  12   6    0.31    0.38
   6  12   6    1.42    0.54
  -7 -12  -6    0.51    0.32
   7 -12   6    0.20    0.47
   7  12   6    0.00    0.38
   7  12   6   -0.23    0.52
  -8 -12  -6    0.39    0.34
   8 -12   6    0.67    0.53
   8  12   6    0.16    0.57
   8  12   6    0.74    0.58
  -8 -13   6    5.84    0.61
  -8 -13   6    5.75    0.70
   8  13  -6    5.78    0.76
   8  13  -6    5.71    0.93
   8  13  -6    4.26    0.79
  -7 -13   6    0.21    0.45
  -7 -13   6    1.43    0.40
   7  13  -6    1.07    0.52
   7  13  -6    0.79    0.48
   7  13  -6    0.89    0.62
  -6 -13   6    0.91    0.36
  -6 -13   6    0.72    0.44
   6  13  -6    1.06    0.60
   6  13  -6    1.14    0.41
   6  13  -6    0.36    0.55
   5 -13  -6    3.47    0.34
  -5 -13   6    3.51    0.52
  -5 -13   6    3.63    0.57
   5  13  -6    4.58    0.75
   5  13  -6    2.62    0.65
   5  13  -6    2.63    0.50
   4 -13  -6    1.42    0.26
  -4 -13   6    1.26    0.37
  -4 -13   6    1.73    0.43
  -4  13   6    1.26    0.26
   4  13  -6    1.13    0.57
   4  13  -6    0.97    0.43
   4  13  -6    1.66    0.51
   3 -13  -6    9.40    0.59
  -3 -13   6   12.43    0.86
  -3 -13   6   11.38    0.77
   3  13  -6   10.05    0.97
  -3  13   6    9.82    0.61
   3  13  -6   12.35    1.04
   3  13  -6    9.21    0.77
  -2 -13   6   13.07    0.79
  -2 -13   6   12.09    0.86
   2 -13  -6   10.86    0.62
  -2  13   6   10.27    0.67
   2  13  -6   10.03    0.90
   2  13  -6   10.12    0.78
   2  13  -6    9.32    0.84
  -1 -13   6    1.33    0.40
  -1 -13   6    0.81    0.34
   1 -13  -6    1.31    0.29
   1  13  -6    1.45    0.39
  -1  13   6    1.55    0.37
   1  13  -6    0.75    0.38
   1  13  -6    1.34    0.43
   0 -13   6    0.09    0.24
   0 -13  -6    0.23    0.26
   0 -13   6   -0.20    0.38
   0  13  -6   -0.28    0.42
   0  13   6    0.56    0.32
   0  13  -6    0.06    0.29
   1 -13   6    0.68    0.27
  -1 -13  -6    0.97    0.31
   1 -13   6    1.36    0.47
  -1  13  -6    0.83    0.48
   1  13   6    0.58    0.36
  -2 -13  -6   10.09    0.74
   2 -13   6   11.45    0.75
   2 -13   6   12.56    0.88
  -2  13  -6    9.19    0.79
   2  13   6   10.79    0.83
   3 -13   6   10.77    0.86
  -3 -13  -6    8.39    0.75
   3  13   6   10.64    0.87
   4 -13   6    8.93    0.84
   4  13   6    8.97    0.86
   5 -13   6    1.50    0.52
   5  13   6    2.26    0.59
   6 -13   6   -0.30    0.44
   6  13   6   -0.65    0.47
   7 -13   6    1.01    0.53
  -7 -13  -6    0.41    0.43
   7  13   6    1.04    0.46
  -8 -14   6    2.20    0.60
   8  14  -6    2.68    0.55
  -7 -14   6    9.49    0.77
  -7 -14   6    9.62    0.86
   7  14  -6    7.36    0.94
   7  14  -6    7.39    1.06
   7  14  -6    7.58    0.81
  -6 -14   6   -0.81    0.40
  -6 -14   6   -0.56    0.42
   6  14  -6   -0.64    0.34
   6  14  -6   -0.99    0.52
   6  14  -6   -0.25    0.45
  -5 -14   6    0.73    0.47
   5 -14  -6    0.74    0.23
  -5 -14   6    1.36    0.47
   5  14  -6    1.09    0.52
   5  14  -6    0.66    0.59
   5  14  -6    1.47    0.60
   4 -14  -6    0.13    0.22
  -4 -14   6    0.53    0.34
  -4 -14   6    0.26    0.39
   4  14  -6    0.34    0.46
   4  14  -6    0.46    0.54
  -4  14   6    0.47    0.24
   4  14  -6    0.46    0.41
  -3 -14   6    0.25    0.38
   3 -14  -6    0.25    0.22
  -3 -14   6    0.62    0.44
   3  14  -6    0.75    0.41
  -3  14   6    0.13    0.27
   3  14  -6    0.41    0.46
   3  14  -6    0.12    0.44
  -2 -14   6    0.71    0.31
  -2 -14   6    1.01    0.47
   2 -14  -6    0.47    0.26
   2  14  -6    0.23    0.44
   2  14  -6    0.41    0.51
  -2  14   6    0.39    0.30
   2  14  -6    1.03    0.48
   1 -14  -6    7.69    0.57
  -1 -14   6    7.89    0.67
  -1 -14   6    7.17    0.59
   1  14  -6    6.75    0.83
  -1  14   6    8.51    0.67
   1  14  -6    6.95    0.77
   0 -14  -6   -0.13    0.26
   0 -14   6    0.36    0.36
   0 -14   6   -0.29    0.30
   0  14  -6   -0.16    0.45
   0  14  -6    0.39    0.46
   0  14   6    0.34    0.32
  -1 -14  -6    3.82    0.47
   1 -14   6    4.86    0.55
   1 -14   6    3.79    0.52
  -1  14  -6    3.94    0.59
   1  14   6    5.05    0.59
  -2 -14  -6    0.10    0.36
   2 -14   6   -0.41    0.40
   2  14   6    0.31    0.40
   3 -14   6    0.18    0.45
  -3 -14  -6   -0.06    0.37
   3  14   6    0.01    0.41
   4 -14   6    0.06    0.32
   4  14   6    0.16    0.46
   5 -14   6    1.65    0.56
   5  14   6    1.62    0.58
  -7 -15   6    0.85    0.56
   7  15  -6    2.17    0.62
  -6 -15   6    2.28    0.59
  -6 -15   6    0.91    0.49
   6  15  -6    1.20    0.65
   6  15  -6    1.30    0.57
   6  15  -6    1.95    0.59
  -5 -15   6    1.41    0.43
  -5 -15   6    0.83    0.47
   5  15  -6    0.70    0.61
   5  15  -6    2.86    0.62
   5  15  -6    0.30    0.59
  -4 -15   6    0.28    0.35
  -4 -15   6    0.69    0.43
   4 -15  -6    0.31    0.25
   4  15  -6    0.57    0.56
   4  15  -6    0.82    0.51
   4  15  -6    0.09    0.40
  -3 -15   6    4.43    0.65
  -3 -15   6    4.20    0.50
   3 -15  -6    3.60    0.42
   3  15  -6    3.55    0.64
   3  15  -6    4.68    0.70
   3  15  -6    2.84    0.62
  -3  15   6    3.71    0.44
   2 -15  -6    0.70    0.33
  -2 -15   6    0.84    0.34
  -2 -15   6    0.97    0.50
  -2  15   6    1.00    0.35
   2  15  -6    1.11    0.55
   2  15  -6    0.67    0.51
  -1 -15   6   -0.21    0.44
  -1 -15   6   -0.31    0.35
   1 -15  -6    0.47    0.33
   1  15  -6    0.47    0.49
   1  15  -6    0.31    0.50
  -1  15   6    0.32    0.31
   0 -15   6    0.25    0.28
   0 -15  -6    0.01    0.28
   0 -15   6    0.15    0.46
   0  15  -6   -0.33    0.31
   0  15  -6    0.07    0.33
   0  15   6    0.10    0.37
   1 -15   6    1.67    0.53
  -1 -15  -6    1.82    0.40
   1  15   6    2.11    0.48
  -1  15  -6    2.07    0.53
  -2 -15  -6    1.27    0.42
   2 -15   6    1.32    0.41
   2  15   6    0.85    0.45
  -3 -15  -6    2.62    0.50
   3 -15   6    2.54    0.57
   3  15   6    2.38    0.58
   4 -15   6    2.20    0.48
   4  15   6    2.04    0.59
  -5 -16   6    0.86    0.56
  -5 -16   6    0.61    0.48
   5  16  -6    0.01    0.62
   5  16  -6    1.80    0.72
  -4 -16   6    0.96    0.55
   4 -16  -6    0.38    0.29
  -4 -16   6    0.31    0.45
   4  16  -6    0.82    0.54
   4  16  -6   -0.86    0.57
   4  16  -6    0.82    0.48
  -3 -16   6    1.46    0.57
  -3 -16   6    1.17    0.37
   3 -16  -6    0.36    0.31
   3  16  -6    0.83    0.58
  -3  16   6    0.64    0.31
   3  16  -6    1.31    0.55
  -2 -16   6    0.46    0.52
   2 -16  -6    0.56    0.30
  -2 -16   6    1.42    0.46
  -2  16   6    0.84    0.35
   2  16  -6    0.41    0.51
   2  16  -6    0.02    0.38
   1 -16  -6    4.66    0.51
  -1 -16   6    5.79    0.72
  -1 -16   6    4.42    0.52
   1  16  -6    4.94    0.66
  -1  16   6    4.97    0.58
   0 -16   6    0.38    0.39
   0 -16  -6    0.29    0.33
   0  16   6    0.78    0.37
   0  16  -6    0.65    0.50
   1 -16   6    0.83    0.38
  -1 -16  -6    0.30    0.37
   1  16   6    1.53    0.45
  -1  16  -6    1.47    0.56
   2 -16   6    0.44    0.50
  -2 -16  -6    0.72    0.42
  -2  16  -6    0.86    0.52
   2  16   6   -0.62    0.39
   2 -17  -6    0.24    0.35
  -2  17   6    0.58    0.35
  -1  17   6    0.55    0.35
   0  17   6    0.58    0.39
  13   0  -7    2.48    0.46
  13   0  -7    2.17    0.55
 -12   0   7   -0.30    0.19
  12   0  -7    0.13    0.37
  12   0  -7   -0.10    0.26
 -11   0   7   20.29    0.82
  11   0  -7   20.87    1.32
  11   0  -7   18.42    1.03
 -10   0   7   -0.05    0.17
  10   0  -7   -0.26    0.23
  10   0  -7    0.04    0.26
   9   0  -7    3.17    0.53
  -9   0   7    2.88    0.27
   9   0  -7    3.40    0.39
   8   0  -7   -0.16    0.18
  -8   0   7   -0.19    0.14
   8   0  -7    0.08    0.23
  -7   0   7  101.22    3.25
   7   0  -7   99.38    3.99
   7   0  -7   99.08    3.53
   7   0  -7   97.58    3.27
   6   0  -7    0.18    0.27
   6   0  -7   -0.15    0.19
  -6   0   7   -0.08    0.13
   6   0  -7   -0.29    0.10
  -5   0   7    0.08    0.10
  -5   0   7    0.19    0.08
   5   0  -7    0.09    0.10
   5   0  -7    0.13    0.10
   5   0  -7    0.14    0.22
  -5   0   7    0.38    0.12
   5   0  -7    0.06    0.15
   4   0  -7   -0.11    0.10
  -4   0   7   -0.02    0.10
  -4   0   7    0.02    0.11
  -4   0   7   -0.06    0.03
   4   0  -7   -0.08    0.19
  -3   0   7   61.18    2.05
  -3   0   7   62.96    2.06
   3   0  -7   61.26    2.17
  -3   0   7   61.73    2.14
   2   0  -7    0.16    0.12
  -2   0   7    0.31    0.12
  -2   0   7   -0.03    0.10
  -2   0   7    0.09    0.11
  -1   0   7   32.26    1.16
  -1   0   7   32.55    1.22
   1   0  -7   34.23    1.17
   1   0  -7   32.06    1.24
  -1   0   7   32.03    1.14
   0   0   7    0.03    0.09
   0   0   7   -0.05    0.17
   0   0   7    0.03    0.11
   0   0  -7    0.00    0.14
   0   0  -7   -0.02    0.13
   1   0   7   10.24    0.52
   1   0   7   10.55    0.54
  -1   0  -7    9.83    0.47
   2   0   7    0.38    0.22
  -2   0  -7    0.35    0.19
   2   0   7    0.24    0.21
   3   0   7   35.02    1.48
  -3   0  -7   35.54    1.33
   3   0   7   35.26    1.35
  -4   0  -7   -0.07    0.22
   4   0   7    0.10    0.24
   4   0   7   -0.32    0.18
   5   0   7   35.91    1.58
  -5   0  -7   34.97    1.40
   5   0   7   36.84    1.44
  -6   0  -7    1.10    0.35
   6   0   7    0.43    0.28
   6   0   7    1.08    0.49
   7   0   7   13.83    1.02
  -7   0  -7   12.73    0.78
   7   0   7   12.71    0.77
   8   0   7   -0.30    0.51
   8   0   7   -0.58    0.35
  -8   0  -7   -0.38    0.33
   9   0   7    0.83    0.36
   9   0   7    0.91    0.59
  -9   0  -7    0.74    0.32
  10   0   7   -0.10    0.41
 -10   0  -7    0.38    0.42
  10   0   7   -0.32    0.55
  11   0   7    1.76    0.58
 -11   0  -7    0.28    0.46
 -13  -1   7    3.48    0.39
  13  -1  -7    3.53    0.64
  13   1  -7    3.52    0.55
  13   1  -7    3.20    0.59
 -12  -1   7    0.60    0.26
  12  -1  -7    0.47    0.31
  12  -1  -7    0.64    0.32
  12   1  -7    0.66    0.37
  12   1  -7    0.77    0.44
  11  -1  -7    4.05    0.63
  11  -1  -7    3.95    0.46
 -11  -1   7    4.52    0.37
  11   1  -7    4.59    0.57
 -11   1   7    4.64    0.35
  11   1  -7    4.77    0.69
  10  -1  -7    0.91    0.29
 -10  -1   7    1.17    0.24
  10  -1  -7    0.94    0.33
 -10   1   7    0.79    0.19
  10   1  -7    0.71    0.40
  10   1  -7    0.99    0.32
   9  -1  -7    3.60    0.52
  -9  -1   7    3.70    0.33
   9  -1  -7    3.25    0.38
   9   1  -7    3.43    0.44
   9   1  -7    3.99    0.53
  -9   1   7    3.21    0.26
   8  -1  -7    1.26    0.38
  -8  -1   7    1.75    0.22
   8  -1  -7    1.57    0.28
   8   1  -7    1.82    0.32
   8   1  -7    1.53    0.42
  -8   1   7    1.74    0.18
  -7  -1   7    1.54    0.20
   7  -1  -7    1.66    0.25
   7  -1  -7    2.07    0.40
   7   1  -7    1.19    0.31
  -7   1   7    1.64    0.17
   7   1  -7    1.79    0.22
   7   1  -7    1.43    0.29
   6  -1  -7   22.47    0.84
  -6  -1   7   21.85    0.83
   6  -1  -7   22.08    0.91
   6  -1  -7   22.20    1.15
   6  -1  -7   22.26    0.78
  -6  -1   7   20.46    0.82
   6   1  -7   21.16    0.98
   6   1  -7   22.24    0.86
   6   1  -7   23.81    1.19
  -6   1   7   22.79    0.78
   6   1  -7   21.73    0.88
   5  -1  -7    9.65    0.40
   5  -1  -7   10.50    0.65
   5  -1  -7   10.20    0.44
   5  -1  -7   10.55    0.49
  -5  -1   7    9.63    0.45
  -5  -1   7   10.39    0.44
   5   1  -7    9.96    0.47
   5   1  -7   10.78    0.55
   5   1  -7    9.99    0.65
  -5   1   7   10.45    0.41
   5   1  -7   10.64    0.48
   4  -1  -7    4.58    0.23
  -4  -1   7    4.43    0.26
  -4  -1   7    4.94    0.27
   4  -1  -7    4.24    0.25
  -4  -1   7    5.02    0.28
   4   1  -7    4.33    0.29
  -4   1   7    4.58    0.19
   4   1  -7    4.11    0.39
  -4   1   7    3.86    0.22
  -4   1   7    4.35    0.23
   3  -1  -7    8.30    0.39
  -3  -1   7    8.00    0.39
  -3  -1   7    8.35    0.40
  -3  -1   7    8.68    0.41
   3   1  -7    9.06    0.55
   3   1  -7    8.47    0.42
  -3   1   7    8.72    0.37
  -3   1   7    8.51    0.36
  -2  -1   7    2.77    0.23
   2  -1  -7    2.87    0.23
   2  -1  -7    2.33    0.19
  -2  -1   7    3.52    0.26
  -2  -1   7    3.03    0.24
  -2   1   7    2.82    0.21
  -2   1   7    2.76    0.20
   2   1  -7    2.63    0.24
  -2   1   7    2.62    0.20
  -1  -1   7   26.76    0.96
  -1  -1   7   27.44    0.98
   1  -1  -7   26.41    0.95
  -1  -1   7   26.29    1.02
   1  -1  -7   25.70    1.03
   1   1  -7   25.20    1.04
   1   1  -7   25.77    0.98
  -1   1   7   26.63    0.95
  -1   1   7   27.29    0.97
  -1   1   7   26.93    1.01
   0  -1   7    1.33    0.17
   0  -1  -7    1.73    0.21
   0  -1   7    1.28    0.24
   0  -1  -7    1.82    0.20
   0  -1   7    1.74    0.23
   0   1   7    1.57    0.16
   0   1  -7    1.54    0.19
   0   1   7    1.66    0.23
   0   1  -7    1.91    0.22
   0   1   7    1.53    0.19
   1  -1   7    0.32    0.15
   1  -1   7    0.54    0.19
  -1  -1  -7    0.31    0.15
   1   1   7    0.56    0.22
   1   1   7    0.38    0.12
   1   1   7    0.29    0.15
  -1   1  -7    0.21    0.13
   2  -1   7   35.38    1.42
  -2  -1  -7   35.07    1.28
   2  -1   7   34.89    1.30
   2   1   7   33.00    1.39
   2   1   7   36.14    1.33
  -2   1  -7   34.04    1.29
   3  -1   7   38.24    1.53
   3  -1   7   36.57    1.38
  -3  -1  -7   34.19    1.34
   3   1   7   36.21    1.39
   3   1   7   36.93    1.50
  -3   1  -7   36.80    1.37
   4  -1   7    6.06    0.45
   4  -1   7    6.06    0.59
  -4  -1  -7    5.47    0.39
  -4   1  -7    5.98    0.41
   4   1   7    5.46    0.51
   4   1   7    6.41    0.53
   5  -1   7    0.10    0.30
  -5  -1  -7    0.36    0.28
   5  -1   7    0.39    0.40
  -5   1  -7    0.51    0.22
   5   1   7    0.22    0.33
   5   1   7    0.37    0.31
  -6  -1  -7    1.58    0.30
   6  -1   7    1.38    0.40
   6  -1   7    1.42    0.33
   6   1   7    2.36    0.46
   6   1   7    1.95    0.44
  -6   1  -7    1.33    0.37
   7  -1   7   10.17    0.92
   7  -1   7   10.57    0.68
  -7  -1  -7    9.50    0.70
   7   1   7    9.50    0.69
   7   1   7   10.77    0.95
  -7   1  -7   10.21    0.71
  -8  -1  -7    0.94    0.38
   8  -1   7    1.52    0.57
   8  -1   7    1.22    0.44
   8   1   7    1.69    0.48
   8   1   7    1.15    0.45
  -8   1  -7    0.61    0.38
  -9  -1  -7   -0.05    0.36
   9  -1   7    0.35    0.31
   9  -1   7   -0.54    0.50
  -9   1  -7   -0.04    0.28
   9   1   7    0.12    0.40
   9   1   7    0.22    0.32
 -10  -1  -7    0.06    0.29
  10  -1   7    0.37    0.44
  10  -1   7    0.29    0.44
  10   1   7    0.55    0.36
  10   1   7    0.42    0.60
 -10   1  -7    0.59    0.43
  11  -1   7    0.52    0.63
 -11  -1  -7   -0.18    0.43
  11   1   7    1.21    0.71
 -11   1  -7    0.16    0.33
 -13  -2   7    0.12    0.27
  13   2  -7    0.68    0.38
  13   2  -7    1.13    0.52
  12  -2  -7    3.97    0.62
 -12  -2   7    3.85    0.40
  12   2  -7    4.13    0.70
  12   2  -7    3.53    0.53
  11  -2  -7   11.41    0.69
 -11  -2   7   11.03    0.64
  11  -2  -7   11.94    0.97
 -11   2   7   11.63    0.51
  11   2  -7   11.37    0.87
  11   2  -7   12.23    1.06
  10  -2  -7   22.04    1.31
  10  -2  -7   22.17    1.01
 -10  -2   7   22.98    0.94
  10   2  -7   23.99    1.43
 -10   2   7   23.45    0.83
  10   2  -7   21.05    1.15
  -9  -2   7    3.65    0.34
   9  -2  -7    3.69    0.36
   9  -2  -7    3.55    0.48
   9   2  -7    3.61    0.48
  -9   2   7    3.84    0.25
   9   2  -7    3.23    0.57
  -8  -2   7   10.92    0.53
   8  -2  -7   11.00    0.56
   8  -2  -7   10.47    0.75
   8   2  -7   10.16    0.86
   8   2  -7   10.60    0.70
  -8   2   7   10.95    0.43
   7  -2  -7    1.07    0.36
   7  -2  -7    1.70    0.17
  -7  -2   7    1.96    0.21
  -7  -2   7    1.61    0.22
   7  -2  -7    1.45    0.22
  -7   2   7    1.32    0.13
   7   2  -7    1.91    0.34
   7   2  -7    1.37    0.34
   7   2  -7    1.87    0.24
   6  -2  -7    3.68    0.46
   6  -2  -7    4.19    0.24
   6  -2  -7    4.18    0.29
  -6  -2   7    4.48    0.30
  -6  -2   7    4.62    0.32
   6   2  -7    3.62    0.45
   6   2  -7    4.45    0.33
  -6   2   7    4.32    0.21
   6   2  -7    4.09    0.32
   6   2  -7    4.42    0.42
  -6   2   7    4.50    0.21
   5  -2  -7   43.90    1.33
   5  -2  -7   44.06    1.50
  -5  -2   7   41.04    1.50
   5  -2  -7   40.16    1.46
  -5  -2   7   41.92    1.46
  -5   2   7   41.29    1.37
   5   2  -7   40.74    1.84
   5   2  -7   41.71    1.63
  -5   2   7   40.69    1.37
   5   2  -7   42.13    1.54
   5   2  -7   40.58    1.49
  -4  -2   7   12.34    0.53
   4  -2  -7   12.18    0.50
   4  -2  -7   12.66    0.44
  -4  -2   7   13.63    0.57
  -4  -2   7   12.05    0.54
   4  -2  -7   12.27    0.45
  -4   2   7   12.31    0.46
   4   2  -7   11.77    0.71
   4   2  -7   11.94    0.63
  -4   2   7   12.58    0.46
   4   2  -7   13.14    0.57
  -3  -2   7   16.15    0.65
  -3  -2   7   15.55    0.66
   3  -2  -7   15.83    0.63
  -3  -2   7   16.50    0.66
   3   2  -7   16.06    0.68
  -3   2   7   15.95    0.57
   3   2  -7   15.43    0.82
  -3   2   7   16.15    0.58
  -2  -2   7    6.01    0.35
   2  -2  -7    6.16    0.29
  -2  -2   7    5.89    0.32
  -2  -2   7    5.96    0.35
   2  -2  -7    5.57    0.32
  -2   2   7    5.99    0.28
   2   2  -7    5.94    0.36
  -2   2   7    6.09    0.30
  -1  -2   7   15.95    0.70
   1  -2  -7   15.80    0.69
  -1  -2   7   16.02    0.65
   1  -2  -7   15.30    0.61
  -1  -2   7   16.72    0.65
  -1   2   7   16.12    0.61
   1   2  -7   15.80    0.71
  -1   2   7   16.89    0.65
  -1   2   7   15.98    0.66
   0  -2  -7    7.07    0.43
   0  -2   7    7.61    0.39
   0  -2  -7    7.05    0.36
   0  -2   7    7.42    0.42
   0   2   7    7.36    0.35
   0   2  -7    6.98    0.39
   0   2   7    7.42    0.38
   0   2   7    7.55    0.42
  -1  -2  -7   14.42    0.73
   1  -2   7   14.61    0.74
   1  -2   7   15.21    0.68
  -1  -2  -7   15.11    0.63
   1   2   7   14.94    0.68
   1   2   7   15.26    0.61
   1   2   7   16.17    0.74
  -1   2  -7   14.53    0.65
   2  -2   7    1.72    0.34
   2  -2   7    1.25    0.22
  -2  -2  -7    1.09    0.21
  -2   2  -7    1.51    0.26
   2   2   7    1.56    0.24
   2   2   7    1.57    0.32
   3  -2   7    0.21    0.18
  -3  -2  -7   -0.08    0.14
   3  -2   7   -0.10    0.21
   3   2   7    0.18    0.26
   3   2   7   -0.04    0.22
  -3   2  -7   -0.08    0.15
  -4  -2  -7    9.13    0.55
   4  -2   7    9.41    0.63
   4  -2   7   10.22    0.57
  -4   2  -7    9.00    0.57
   4   2   7    9.54    0.58
   4   2   7    9.44    0.66
  -5  -2  -7   21.51    0.98
   5  -2   7   25.00    1.16
   5  -2   7   24.03    1.04
  -5   2  -7   24.04    1.04
   5   2   7   22.98    1.18
   5   2   7   23.70    1.07
   6  -2   7    7.78    0.67
  -6  -2  -7    6.95    0.59
   6  -2   7    7.59    0.64
   6   2   7    7.72    0.69
  -6   2  -7    7.74    0.54
   6   2   7    7.27    0.69
   7  -2   7    0.64    0.38
   7  -2   7    0.05    0.48
  -7  -2  -7    0.37    0.35
  -7   2  -7    0.31    0.34
   7   2   7    0.14    0.38
   7   2   7    0.48    0.32
   8  -2   7    3.04    0.63
   8  -2   7    1.97    0.47
  -8  -2  -7    2.08    0.37
   8   2   7    2.23    0.63
  -8   2  -7    1.31    0.41
   8   2   7    1.51    0.47
   9  -2   7    3.48    0.68
   9  -2   7    3.57    0.48
  -9  -2  -7    3.77    0.54
  -9   2  -7    3.63    0.48
   9   2   7    2.07    0.66
   9   2   7    3.75    0.59
  10  -2   7    0.12    0.55
 -10  -2  -7    0.18    0.41
  10   2   7    0.14    0.44
 -10   2  -7   -0.51    0.37
  10   2   7    0.80    0.63
 -11  -2  -7   -0.05    0.42
  11  -2   7   -0.11    0.41
  11   2   7    0.77    0.53
 -11   2  -7   -0.50    0.41
 -13  -3   7    4.45    0.46
  13   3  -7    5.12    0.68
  13   3  -7    4.20    0.76
  12  -3  -7    0.20    0.37
 -12  -3   7   -0.01    0.28
  12   3  -7    0.47    0.50
  12   3  -7    0.25    0.39
 -11  -3   7    0.84    0.30
  11  -3  -7    1.04    0.43
  11   3  -7    0.88    0.39
  11   3  -7    0.92    0.42
 -10  -3   7    0.85    0.27
  10  -3  -7    0.73    0.21
  10  -3  -7    1.19    0.40
  10   3  -7    0.67    0.36
  10   3  -7    0.96    0.40
   9  -3  -7    1.43    0.22
  -9  -3   7    1.10    0.26
   9  -3  -7    1.23    0.38
   9   3  -7    1.47    0.40
  -9   3   7    1.62    0.12
   9   3  -7    1.71    0.41
  -8  -3   7    3.13    0.32
   8  -3  -7    3.12    0.27
   8  -3  -7    3.10    0.47
  -8   3   7    3.93    0.15
   8   3  -7    3.79    0.52
  -8   3   7    3.36    0.14
   8   3  -7    3.12    0.45
   7  -3  -7   18.82    0.97
   7  -3  -7   16.40    0.63
   7  -3  -7   16.08    0.68
  -7  -3   7   16.94    0.73
  -7  -3   7   17.89    0.74
   7   3  -7   16.70    0.77
   7   3  -7   17.16    1.03
   7   3  -7   17.03    0.91
  -6  -3   7  141.06    4.96
   6  -3  -7  143.08    4.87
   6  -3  -7  146.07    4.91
  -6  -3   7  145.49    4.75
   6  -3  -7  149.44    5.59
   6   3  -7  158.02    5.09
   6   3  -7  141.41    5.11
   6   3  -7  142.17    5.64
   6   3  -7  139.49    4.80
  -5  -3   7    3.33    0.29
  -5  -3   7    2.85    0.26
   5  -3  -7    3.24    0.20
   5  -3  -7    2.64    0.16
   5   3  -7    2.28    0.36
   5   3  -7    2.84    0.29
  -5   3   7    3.00    0.11
   5   3  -7    2.71    0.30
   5   3  -7    2.37    0.34
  -4  -3   7    2.05    0.23
  -4  -3   7    2.08    0.24
   4  -3  -7    2.50    0.17
  -4   3   7    2.66    0.13
   4   3  -7    2.20    0.36
   4   3  -7    2.50    0.27
   4   3  -7    2.72    0.28
  -4   3   7    2.31    0.13
   4   3  -7    2.62    0.33
   3  -3  -7   12.37    0.45
  -3  -3   7   12.20    0.55
   3  -3  -7   11.47    0.50
  -3  -3   7   12.64    0.57
  -3  -3   7   12.47    0.57
   3   3  -7   12.39    0.58
  -3   3   7   12.05    0.45
   3   3  -7   11.50    0.72
   2  -3  -7   26.05    0.91
  -2  -3   7   27.16    1.05
  -2  -3   7   26.49    1.00
   2  -3  -7   24.44    1.00
  -2  -3   7   26.84    1.01
  -2   3   7   27.06    0.93
  -2   3   7   26.43    0.91
   2   3  -7   26.87    1.20
  -1  -3   7  112.20    3.69
   1  -3  -7  112.36    3.63
  -1  -3   7  113.27    3.88
   1  -3  -7  105.12    3.87
   1   3  -7  113.32    4.26
  -1   3   7  112.05    3.62
  -1   3   7  115.16    3.66
  -1   3   7  109.40    3.82
   0  -3   7   19.65    0.81
   0  -3   7   20.89    0.89
   0  -3  -7   19.32    0.86
   0  -3  -7   20.89    0.77
   0   3   7   19.86    0.76
   0   3  -7   20.11    0.82
   0   3   7   20.89    0.81
   0   3   7   19.43    0.84
   1  -3   7   -0.18    0.25
  -1  -3  -7    0.18    0.19
   1  -3   7   -0.15    0.20
  -1  -3  -7    0.44    0.16
   1   3   7    0.09    0.19
   1   3   7    0.13    0.22
  -1   3  -7    0.13    0.15
   1   3   7    0.20    0.14
   2  -3   7  101.09    3.54
  -2  -3  -7   99.65    3.30
   2  -3   7   97.46    3.33
   2   3   7   97.69    3.54
  -2   3  -7   95.91    3.33
   2   3   7  100.86    3.36
  -3  -3  -7   14.99    0.68
   3  -3   7   16.96    0.86
   3  -3   7   15.61    0.72
  -3   3  -7   14.75    0.71
   3   3   7   15.37    0.86
   3   3   7   15.38    0.74
   4  -3   7    3.14    0.39
  -4  -3  -7    2.61    0.34
   4  -3   7    3.62    0.49
  -4   3  -7    2.47    0.37
   4   3   7    3.53    0.39
  -4   3  -7    2.83    0.29
   4   3   7    3.33    0.44
  -5  -3  -7    0.45    0.28
   5  -3   7    0.21    0.23
   5  -3   7    0.48    0.31
  -5   3  -7   -0.06    0.21
   5   3   7    0.23    0.25
  -5   3  -7    0.13    0.16
   5   3   7    0.23    0.42
   6  -3   7    0.30    0.25
   6  -3   7   -0.17    0.30
  -6  -3  -7   -0.51    0.29
  -6   3  -7   -0.40    0.30
   6   3   7   -0.47    0.36
   6   3   7   -0.04    0.45
   7  -3   7    4.61    0.48
  -7  -3  -7    4.12    0.45
   7  -3   7    4.88    0.68
   7   3   7    4.92    0.74
   7   3   7    4.77    0.54
  -7   3  -7    4.26    0.46
  -8  -3  -7    8.16    0.69
   8  -3   7    7.58    0.82
   8  -3   7    6.33    0.58
   8   3   7    7.00    0.65
   8   3   7    6.62    0.77
  -8   3  -7    6.53    0.63
   9  -3   7    0.73    0.54
   9  -3   7    0.07    0.27
  -9  -3  -7    0.32    0.30
   9   3   7    0.62    0.45
  -9   3  -7   -0.21    0.28
   9   3   7    0.94    0.60
  10  -3   7    0.73    0.60
 -10  -3  -7    0.37    0.32
  10   3   7    0.63    0.47
 -10   3  -7   -0.18    0.29
  10   3   7    0.49    0.47
 -11  -3  -7   -0.41    0.29
  11  -3   7    0.79    0.66
  11   3   7    0.11    0.47
 -11   3  -7   -0.12    0.43
  11   3   7    0.33    0.47
 -13  -4   7    1.24    0.34
  13   4  -7    0.92    0.52
  13   4  -7    0.91    0.60
 -12  -4   7    3.55    0.44
  12   4  -7    3.43    0.65
  12   4  -7    3.14    0.62
  11  -4  -7   -0.30    0.31
 -11  -4   7   -0.61    0.23
  11   4  -7   -0.14    0.38
  11   4  -7   -0.24    0.29
  10  -4  -7   15.98    1.03
 -10  -4   7   16.12    0.80
  10   4  -7   15.05    1.02
  10   4  -7   13.89    1.17
   9  -4  -7   -0.08    0.12
   9  -4  -7   -0.36    0.26
  -9  -4   7   -0.35    0.22
   9   4  -7    0.18    0.38
   9   4  -7   -0.14    0.33
   8  -4  -7   28.50    1.04
  -8  -4   7   30.41    1.15
   8  -4  -7   27.84    1.41
  -8  -4   7   29.30    1.17
   8   4  -7   28.85    1.20
   8   4  -7   28.45    1.54
   8   4  -7   28.76    1.38
   7  -4  -7    1.02    0.09
  -7  -4   7    1.12    0.25
   7  -4  -7    0.90    0.08
  -7  -4   7    0.80    0.22
   7  -4  -7    1.31    0.34
   7   4  -7    0.77    0.36
   7   4  -7    0.96    0.26
   7   4  -7    0.83    0.32
   6  -4  -7   11.24    0.38
  -6  -4   7    9.89    0.55
  -6  -4   7   11.11    0.57
   6   4  -7   11.07    0.73
   6   4  -7   11.00    0.61
   6   4  -7   11.21    0.79
  -5  -4   7    4.84    0.32
   5  -4  -7    5.17    0.20
  -5  -4   7    4.45    0.35
   5  -4  -7    4.01    0.19
   5   4  -7    4.39    0.46
   5   4  -7    4.81    0.40
   5   4  -7    3.74    0.50
  -4  -4   7    3.28    0.31
  -4  -4   7    3.15    0.30
   4  -4  -7    3.47    0.19
  -4   4   7    3.83    0.13
   4   4  -7    3.40    0.34
   4   4  -7    2.81    0.34
  -4   4   7    3.21    0.12
   4   4  -7    2.77    0.41
   3  -4  -7    0.16    0.05
  -3  -4   7    0.15    0.13
  -3  -4   7    0.15    0.18
   3  -4  -7    0.16    0.10
   3   4  -7   -0.08    0.22
  -3   4   7    0.07    0.07
  -3   4   7    0.13    0.08
   3   4  -7    0.02    0.23
   2  -4  -7    1.35    0.12
  -2  -4   7    1.09    0.20
   2  -4  -7    1.33    0.19
  -2  -4   7    1.13    0.23
  -2   4   7    1.27    0.13
  -2   4   7    1.39    0.13
   2   4  -7    1.49    0.29
  -2   4   7    1.49    0.13
  -2   4   7    1.59    0.17
  -1  -4   7    5.62    0.40
   1  -4  -7    6.30    0.38
  -1  -4   7    5.50    0.38
   1  -4  -7    5.94    0.31
   1   4  -7    5.98    0.47
  -1   4   7    6.19    0.30
  -1   4   7    6.26    0.35
  -1   4   7    6.38    0.34
   0  -4  -7   25.37    1.08
   0  -4   7   25.95    1.10
   0  -4  -7   26.50    0.96
   0  -4   7   24.88    1.02
   0   4   7   25.91    1.05
   0   4   7   26.62    0.95
   0   4   7   27.36    1.01
   0   4  -7   26.62    1.16
   1  -4   7    3.64    0.37
  -1  -4  -7    3.73    0.38
  -1  -4  -7    3.82    0.29
   1  -4   7    3.10    0.35
   1   4   7    4.51    0.37
  -1   4  -7    3.62    0.33
   1   4   7    4.04    0.29
  -1   4  -7    3.96    0.32
   1   4   7    3.59    0.33
   2  -4   7   41.70    1.53
   2  -4   7   43.32    1.67
  -2  -4  -7   41.79    1.49
  -2   4  -7   39.13    1.53
   2   4   7   40.70    1.65
   2   4   7   42.29    1.57
  -3  -4  -7   15.71    0.73
   3  -4   7   16.50    0.83
   3  -4   7   15.94    0.74
   3   4   7   15.55    0.89
  -3   4  -7   15.08    0.74
   3   4   7   17.02    0.83
  -4  -4  -7   10.62    0.61
   4  -4   7   12.18    0.72
   4  -4   7   12.17    0.67
   4   4   7   11.34    0.74
  -4   4  -7   11.82    0.63
  -4   4  -7   10.14    0.55
   4   4   7   11.72    0.73
   5  -4   7    0.12    0.40
  -5  -4  -7   -0.02    0.27
   5  -4   7    0.24    0.30
   5   4   7   -0.13    0.25
   5   4   7    0.22    0.32
  -5   4  -7   -0.62    0.28
   6  -4   7   10.28    0.84
  -6  -4  -7    9.04    0.58
   6  -4   7    9.96    0.69
  -6   4  -7    8.90    0.61
   6   4   7    9.61    0.78
   6   4   7   10.77    0.79
   7  -4   7    0.55    0.36
   7  -4   7    1.03    0.50
  -7  -4  -7    0.96    0.36
   7   4   7    1.16    0.44
  -7   4  -7    0.62    0.36
   7   4   7    0.78    0.42
  -8  -4  -7   33.43    1.54
   8  -4   7   41.66    1.87
   8  -4   7   39.24    1.62
   8   4   7   42.59    1.76
   8   4   7   44.14    2.01
  -8   4  -7   33.49    1.55
  -9  -4  -7    1.41    0.36
   9  -4   7    0.86    0.41
   9  -4   7    0.90    0.44
   9   4   7    1.40    0.50
   9   4   7    1.15    0.50
  -9   4  -7    1.04    0.36
 -10  -4  -7   -0.16    0.41
  10  -4   7    0.14    0.53
  10   4   7    0.67    0.51
 -10   4  -7    0.66    0.43
  10   4   7    0.40    0.46
 -11  -4  -7    0.11    0.45
  11  -4   7    0.18    0.57
 -11   4  -7   -0.01    0.45
  11   4   7   -0.38    0.48
  11   4   7    0.12    0.51
 -12  -5   7    2.01    0.39
  12   5  -7    3.75    0.67
  12   5  -7    1.87    0.57
  11  -5  -7    1.30    0.42
 -11  -5   7    1.63    0.36
  11   5  -7    1.13    0.57
  11   5  -7    1.28    0.53
 -10  -5   7    0.12    0.27
  10  -5  -7   -0.09    0.29
  10   5  -7   -0.33    0.43
  10   5  -7    0.01    0.41
  -9  -5   7    2.60    0.36
   9  -5  -7    2.66    0.44
   9   5  -7    2.36    0.52
   9   5  -7    2.13    0.46
  -8  -5   7   24.22    1.01
  -8  -5   7   24.65    1.02
   8  -5  -7   23.48    1.25
   8   5  -7   21.86    1.19
   8   5  -7   23.26    1.07
   8   5  -7   24.13    1.43
   7  -5  -7    2.88    0.39
  -7  -5   7    4.01    0.37
  -7  -5   7    3.56    0.37
   7   5  -7    2.34    0.48
   7   5  -7    2.94    0.39
   7   5  -7    3.30    0.50
  -6  -5   7    8.72    0.52
  -6  -5   7    8.62    0.53
   6   5  -7    8.98    0.57
   6   5  -7    8.37    0.62
   6   5  -7    9.10    0.81
  -5  -5   7    1.22    0.26
  -5  -5   7    0.93    0.25
   5   5  -7    0.89    0.28
   5   5  -7    1.05    0.28
   5   5  -7    0.60    0.27
  -4  -5   7    4.78    0.40
   4  -5  -7    4.96    0.25
  -4  -5   7    4.91    0.40
   4   5  -7    5.53    0.40
   4   5  -7    5.45    0.53
   4   5  -7    4.97    0.49
  -3  -5   7    1.43    0.26
  -3  -5   7    1.59    0.23
   3  -5  -7    1.49    0.17
  -3   5   7    1.60    0.13
   3   5  -7    1.94    0.36
  -3   5   7    1.73    0.16
   3   5  -7    1.19    0.31
  -2  -5   7    2.14    0.30
   2  -5  -7    2.61    0.24
   2  -5  -7    2.40    0.17
  -2  -5   7    2.39    0.29
  -2   5   7    2.36    0.15
   2   5  -7    1.91    0.33
  -2   5   7    2.80    0.22
  -2   5   7    2.52    0.18
   1  -5  -7   28.17    1.16
  -1  -5   7   29.60    1.13
  -1  -5   7   29.13    1.17
   1  -5  -7   29.55    1.03
   1   5  -7   28.18    1.30
  -1   5   7   29.30    1.07
  -1   5   7   29.18    1.03
  -1   5   7   28.97    1.10
   0  -5   7   36.76    1.45
   0  -5   7   35.76    1.36
   0  -5  -7   36.37    1.46
   0  -5  -7   36.79    1.30
   0   5   7   37.78    1.36
   0   5   7   37.35    1.30
   0   5   7   36.11    1.41
   0   5  -7   37.34    1.55
  -1  -5  -7    4.92    0.31
   1  -5   7    5.50    0.42
   1  -5   7    4.83    0.43
  -1  -5  -7    4.32    0.45
   1   5   7    5.39    0.34
   1   5   7    4.95    0.42
   1   5   7    4.91    0.44
  -1   5  -7    5.33    0.39
   2  -5   7   32.50    1.25
  -2  -5  -7   31.75    1.19
   2  -5   7   32.16    1.34
   2   5   7   33.09    1.30
   2   5   7   31.81    1.35
  -2   5  -7   32.28    1.29
  -2   5  -7   31.98    1.32
  -3  -5  -7    1.21    0.26
   3  -5   7    1.05    0.24
   3  -5   7    1.38    0.39
  -3   5  -7    0.90    0.31
   3   5   7    0.44    0.31
  -3   5  -7    0.75    0.15
   3   5   7    0.85    0.30
  -4  -5  -7    1.20    0.28
   4  -5   7    1.56    0.28
   4  -5   7    1.13    0.41
  -4   5  -7    1.11    0.16
   4   5   7    1.29    0.32
   4   5   7    0.66    0.42
  -4   5  -7    1.08    0.35
  -4   5  -7    1.73    0.18
   5  -5   7    0.46    0.24
  -5  -5  -7    0.58    0.23
   5  -5   7    0.39    0.31
   5   5   7    0.33    0.43
  -5   5  -7    0.17    0.24
   5   5   7    0.57    0.39
   6  -5   7   15.03    0.82
  -6  -5  -7   13.59    0.79
   6  -5   7   13.50    0.88
  -6   5  -7   13.80    0.84
   6   5   7   13.81    0.84
   6   5   7   14.71    1.07
   7  -5   7    0.45    0.36
  -7  -5  -7    0.60    0.27
   7  -5   7    0.60    0.28
   7   5   7    0.68    0.42
   7   5   7    0.95    0.35
  -7   5  -7    0.53    0.40
  -8  -5  -7    2.07    0.37
   8  -5   7    2.22    0.45
  -8   5  -7    2.21    0.48
   8   5   7    2.36    0.45
   9  -5   7    0.55    0.53
  -9  -5  -7    0.11    0.41
  -9   5  -7    0.42    0.32
   9   5   7    0.27    0.34
   9   5   7    0.46    0.45
  10  -5   7    1.58    0.61
 -10  -5  -7    1.59    0.50
 -10   5  -7    1.23    0.48
  10   5   7    1.69    0.45
  10   5   7    1.33    0.54
 -11  -5  -7   -0.56    0.43
  11   5   7    0.50    0.54
  11   5   7    0.57    0.50
 -12  -6   7    2.90    0.44
  12   6  -7    3.27    0.66
  12   6  -7    2.58    0.63
 -11  -6   7    0.04    0.31
  11   6  -7    0.05    0.44
  11   6  -7    0.50    0.55
  10  -6  -7    2.47    0.47
 -10  -6   7    2.23    0.39
  10   6  -7    3.40    0.63
  10   6  -7    2.90    0.60
  -9  -6   7    4.44    0.41
   9  -6  -7    3.92    0.51
   9   6  -7    4.96    0.67
   9   6  -7    4.01    0.69
  -8  -6   7    3.52    0.40
   8  -6  -7    3.75    0.48
  -8  -6   7    4.16    0.41
   8   6  -7    3.53    0.52
   8   6  -7    4.02    0.46
   8   6  -7    3.16    0.54
  -7  -6   7   -0.18    0.23
  -7  -6   7   -0.24    0.24
   7   6  -7   -0.18    0.36
   7   6  -7    0.15    0.27
   7   6  -7    0.29    0.30
  -6  -6   7   15.34    0.72
  -6  -6   7   13.79    0.72
   6   6  -7   12.54    0.90
   6   6  -7   13.78    0.77
   6   6  -7   15.16    1.04
  -5  -6   7   22.90    0.95
  -5  -6   7   22.56    1.00
   5   6  -7   22.38    1.24
   5   6  -7   23.66    1.06
   5   6  -7   23.72    1.14
  -4  -6   7   52.83    1.88
   4  -6  -7   50.15    1.82
  -4  -6   7   52.97    1.95
   4   6  -7   55.51    2.12
   4   6  -7   51.06    1.94
   4   6  -7   51.22    2.27
  -3  -6   7    0.37    0.23
   3  -6  -7    0.24    0.05
   3  -6  -7    0.40    0.15
  -3  -6   7   -0.01    0.23
   3   6  -7   -0.14    0.26
   3   6  -7    0.00    0.22
  -3   6   7    0.28    0.09
  -3   6   7    0.17    0.11
  -2  -6   7  101.64    3.49
   2  -6  -7   95.66    3.43
   2  -6  -7   96.98    3.17
  -2  -6   7   94.84    3.30
   2   6  -7   97.64    3.86
  -2   6   7   97.14    3.18
  -2   6   7   99.73    3.22
   2   6  -7  101.23    3.59
  -2   6   7   97.60    3.31
  -1  -6   7   43.35    1.62
   1  -6  -7   38.00    1.57
  -1  -6   7   39.83    1.50
   1  -6  -7   41.16    1.41
  -1   6   7   39.46    1.50
  -1   6   7   42.64    1.47
   1   6  -7   41.29    1.76
  -1   6   7   41.74    1.41
   0  -6   7   50.02    1.78
   0  -6  -7   46.84    1.88
   0  -6   7   48.72    1.88
   0  -6  -7   49.49    1.69
   0   6   7   49.02    1.69
   0   6   7   49.37    1.76
   0   6  -7   48.98    2.01
   0   6   7   49.01    1.83
   1  -6   7    4.02    0.35
   1  -6   7    4.25    0.44
  -1  -6  -7    3.62    0.31
   1   6   7    3.76    0.39
   1   6   7    3.78    0.31
  -1   6  -7    3.71    0.36
   1   6   7    3.92    0.41
   2  -6   7   -0.63    0.23
   2  -6   7   -0.01    0.31
  -2  -6  -7   -0.01    0.18
   2   6   7   -0.57    0.25
  -2   6  -7    0.04    0.14
   2   6   7   -0.12    0.26
  -2   6  -7   -0.13    0.19
  -3  -6  -7    1.16    0.22
   3  -6   7    1.16    0.31
   3  -6   7    0.88    0.30
   3   6   7    0.72    0.38
   3   6   7    0.58    0.34
  -3   6  -7    0.97    0.15
  -3   6  -7    0.64    0.26
   4  -6   7   -0.05    0.20
   4  -6   7    0.13    0.28
  -4  -6  -7    0.09    0.18
   4   6   7   -0.08    0.29
   4   6   7   -0.26    0.23
  -4   6  -7    0.26    0.05
  -4   6  -7    0.01    0.24
  -5  -6  -7    1.22    0.33
   5  -6   7    1.47    0.46
   5  -6   7    0.90    0.33
   5   6   7    0.93    0.33
  -5   6  -7    1.06    0.31
   5   6   7    1.39    0.41
  -6  -6  -7    0.22    0.23
   6  -6   7    0.00    0.33
   6  -6   7   -0.28    0.22
  -6   6  -7    0.07    0.36
   6   6   7   -0.02    0.41
   6   6   7    0.50    0.49
   7  -6   7   13.14    0.99
   7  -6   7   11.42    0.78
  -7  -6  -7   11.75    0.72
   7   6   7   13.87    0.98
   7   6   7   13.57    0.99
  -7   6  -7   11.08    0.75
   8  -6   7    1.25    0.56
  -8  -6  -7    1.52    0.44
   8  -6   7    0.68    0.28
   8   6   7    1.50    0.63
   8   6   7    1.47    0.52
  -8   6  -7    0.59    0.42
  -9  -6  -7    0.34    0.42
   9  -6   7    0.56    0.54
  -9   6  -7    0.70    0.43
   9   6   7    0.31    0.46
   9   6   7    1.91    0.56
  10  -6   7    1.18    0.62
 -10  -6  -7    1.38    0.51
  10   6   7    2.10    0.61
  10   6   7    1.45    0.47
 -10   6  -7    1.45    0.49
  11   6   7    1.16    0.43
 -12  -7   7   -0.57    0.32
 -11  -7   7   -0.42    0.31
  11   7  -7    0.34    0.52
  11   7  -7   -0.16    0.38
 -10  -7   7    1.39    0.38
  10   7  -7    1.71    0.49
  10   7  -7    0.42    0.54
  -9  -7   7    0.29    0.31
   9  -7  -7    0.62    0.32
   9   7  -7    0.38    0.39
   9   7  -7    0.65    0.38
  -8  -7   7    1.30    0.32
   8  -7  -7    1.42    0.36
  -8  -7   7    1.82    0.37
   8   7  -7    1.22    0.41
   8   7  -7    1.10    0.36
   8   7  -7    1.99    0.47
  -7  -7   7    2.83    0.40
  -7  -7   7    2.90    0.38
   7   7  -7    3.13    0.50
   7   7  -7    2.40    0.56
   7   7  -7    2.73    0.38
  -6  -7   7   13.86    0.67
  -6  -7   7   13.06    0.68
   6   7  -7   12.00    0.76
   6   7  -7   12.96    1.02
   6   7  -7   11.89    0.83
  -5  -7   7   42.53    1.55
  -5  -7   7   40.13    1.60
   5   7  -7   39.20    1.74
   5   7  -7   41.08    1.96
   5   7  -7   38.78    1.59
  -4  -7   7    2.48    0.35
   4  -7  -7    2.45    0.22
  -4  -7   7    2.89    0.37
   4   7  -7    2.68    0.40
   4   7  -7    2.88    0.42
  -4   7   7    2.52    0.12
   4   7  -7    3.02    0.50
  -4   7   7    2.16    0.11
   3  -7  -7   19.84    0.81
   3  -7  -7   19.31    0.66
  -3  -7   7   19.66    0.85
  -3  -7   7   20.90    0.93
  -3   7   7   18.73    0.69
   3   7  -7   19.63    1.00
  -3   7   7   19.90    0.73
   3   7  -7   18.08    1.09
   2  -7  -7    6.82    0.45
  -2  -7   7    8.28    0.55
  -2  -7   7    7.39    0.46
   2  -7  -7    6.96    0.33
  -2   7   7    7.83    0.41
  -2   7   7    7.54    0.33
   2   7  -7    8.04    0.59
  -2   7   7    7.35    0.35
   2   7  -7    7.26    0.63
  -1  -7   7    9.63    0.58
  -1  -7   7    9.52    0.56
   1  -7  -7    9.03    0.42
   1  -7  -7    8.56    0.55
   1   7  -7    8.72    0.63
   1   7  -7   10.78    0.67
  -1   7   7    8.83    0.47
  -1   7   7    8.84    0.49
  -1   7   7    8.71    0.42
   0  -7  -7    9.00    0.58
   0  -7   7    9.02    0.52
   0  -7  -7    8.85    0.46
   0  -7   7    9.57    0.63
   0   7   7    9.22    0.45
   0   7   7   10.67    0.56
   0   7  -7    9.23    0.60
   0   7   7    8.80    0.55
   1  -7   7    2.41    0.31
  -1  -7  -7    2.73    0.26
   1  -7   7    2.38    0.41
  -1   7  -7    2.98    0.32
   1   7   7    2.24    0.36
   1   7   7    2.93    0.38
   2  -7   7   19.40    0.99
   2  -7   7   19.37    0.86
  -2  -7  -7   18.96    0.82
   2   7   7   20.16    0.94
  -2   7  -7   18.78    0.87
   2   7   7   18.73    0.99
   3  -7   7   12.38    0.66
  -3  -7  -7   11.94    0.64
   3  -7   7   13.22    0.75
   3   7   7   11.72    0.76
  -3   7  -7   11.98    0.54
   3   7   7   11.61    0.70
   4  -7   7    2.60    0.49
   4  -7   7    2.25    0.39
  -4  -7  -7    2.04    0.29
   4   7   7    1.36    0.42
  -4   7  -7    1.04    0.39
   4   7   7    2.01    0.41
   5  -7   7    0.34    0.32
   5  -7   7    0.83    0.46
  -5  -7  -7    1.09    0.31
   5   7   7    0.79    0.41
  -5   7  -7    0.75    0.29
   5   7   7    0.95    0.38
   6  -7   7   16.24    1.07
  -6  -7  -7   16.26    0.83
   6  -7   7   16.24    0.89
   6   7   7   18.67    1.07
  -6   7  -7   15.51    0.88
   6   7   7   17.13    1.18
   7  -7   7    0.37    0.50
   7  -7   7    0.47    0.35
  -7  -7  -7    0.78    0.29
   7   7   7    0.75    0.48
  -7   7  -7    0.04    0.40
   7   7   7    1.12    0.47
  -8  -7  -7   17.58    0.99
   8  -7   7   16.96    1.15
  -8   7  -7   12.85    0.88
   8   7   7   18.03    1.33
   8   7   7   19.39    1.18
  -9  -7  -7   -0.52    0.42
   9  -7   7    0.42    0.53
   9   7   7    0.89    0.53
  -9   7  -7    1.27    0.47
   9   7   7    0.40    0.62
  10  -7   7   -0.10    0.55
 -10  -7  -7    0.27    0.48
 -10   7  -7    0.18    0.46
  10   7   7    0.76    0.68
  10   7   7    1.16    0.47
 -11  -8   7    2.13    0.39
  11   8  -7    1.90    0.66
  11   8  -7    1.37    0.55
 -10  -8   7   -0.30    0.33
  10   8  -7    0.41    0.54
  10   8  -7    0.13    0.39
   9  -8  -7    4.81    0.55
  -9  -8   7    5.95    0.57
   9   8  -7    5.71    0.84
   9   8  -7    4.66    0.67
   8  -8  -7    3.26    0.46
  -8  -8   7    3.63    0.44
  -8  -8   7    4.02    0.49
   8   8  -7    3.83    0.48
   8   8  -7    3.14    0.65
   8   8  -7    4.62    0.70
  -7  -8   7    3.91    0.44
  -7  -8   7    3.54    0.45
   7   8  -7    2.97    0.43
   7   8  -7    2.98    0.61
   7   8  -7    2.78    0.60
  -6  -8   7    6.42    0.55
  -6  -8   7    5.91    0.47
   6   8  -7    6.21    0.67
   6   8  -7    5.68    0.73
   6   8  -7    5.43    0.57
  -5  -8   7    7.14    0.56
  -5  -8   7    6.92    0.55
   5   8  -7    6.58    0.64
   5   8  -7    6.72    0.62
   5   8  -7    6.09    0.71
  -4  -8   7   16.31    0.80
  -4  -8   7   15.69    0.78
   4   8  -7   14.07    0.80
   4   8  -7   15.37    0.98
  -4   8   7   16.58    0.56
   4   8  -7   15.13    0.92
  -4   8   7   15.12    0.54
  -3  -8   7   10.36    0.64
  -3  -8   7   10.21    0.67
   3   8  -7    9.92    0.80
   3   8  -7    9.08    0.81
  -3   8   7   11.41    0.48
  -3   8   7   10.44    0.43
   3   8  -7   10.38    0.64
  -2  -8   7   13.70    0.70
  -2  -8   7   13.51    0.71
   2  -8  -7   11.92    0.50
   2   8  -7   14.26    0.89
   2   8  -7   12.36    0.87
  -2   8   7   12.29    0.52
  -2   8   7   12.35    0.59
  -1  -8   7    1.60    0.37
  -1  -8   7    1.15    0.32
   1  -8  -7    1.53    0.21
   1   8  -7    2.03    0.38
  -1   8   7    1.17    0.28
  -1   8   7    1.46    0.20
   1   8  -7    1.51    0.33
  -1   8   7    1.51    0.25
   0  -8  -7   20.60    0.80
   0  -8   7   20.76    0.96
   0  -8   7   19.91    0.89
   0   8   7   19.13    0.91
   0   8  -7   19.76    1.01
   0   8   7   19.50    0.90
   0   8  -7   21.72    1.07
   0   8   7   20.01    0.81
  -1  -8  -7   -0.06    0.18
   1  -8   7   -0.47    0.32
   1  -8   7   -0.49    0.26
  -1   8  -7    0.19    0.19
   1   8   7   -0.22    0.27
   1   8   7   -0.68    0.24
  -2  -8  -7   -0.17    0.20
   2  -8   7    0.13    0.29
   2  -8   7   -0.07    0.25
   2   8   7   -0.05    0.32
   2   8   7   -0.42    0.31
  -2   8  -7   -0.11    0.15
   3  -8   7    8.69    0.72
  -3  -8  -7    8.53    0.54
   3  -8   7    9.05    0.62
   3   8   7    7.55    0.59
   3   8   7    8.55    0.66
  -4  -8  -7    3.76    0.38
   4  -8   7    3.98    0.42
   4  -8   7    4.62    0.59
   4   8   7    4.40    0.55
   4   8   7    4.01    0.54
   5  -8   7    5.12    0.47
  -5  -8  -7    6.10    0.54
   5  -8   7    5.56    0.58
  -5   8  -7    4.35    0.57
   5   8   7    5.11    0.68
   5   8   7    6.03    0.65
  -6  -8  -7    3.52    0.41
   6  -8   7    3.40    0.60
   6  -8   7    2.69    0.39
   6   8   7    2.91    0.64
  -6   8  -7    2.64    0.51
   6   8   7    3.19    0.58
   7  -8   7   -0.07    0.48
   7  -8   7   -0.65    0.29
  -7  -8  -7   -0.09    0.25
   7   8   7    0.24    0.42
  -7   8  -7    0.11    0.40
   7   8   7    0.44    0.48
  -8  -8  -7    1.19    0.36
   8  -8   7    0.62    0.42
   8   8   7    0.93    0.48
  -8   8  -7    1.11    0.46
   8   8   7    2.04    0.59
  -9  -8  -7    0.81    0.37
   9  -8   7    0.06    0.52
   9   8   7    0.67    0.65
  -9   8  -7    0.77    0.45
   9   8   7    1.48    0.48
 -10  -8  -7   -0.20    0.35
  10   8   7    0.90    0.74
  10   8   7    0.37    0.42
 -11  -9   7   -0.31    0.38
 -10  -9   7    0.73    0.32
  10   9  -7    1.45    0.50
  10   9  -7    0.91    0.62
  -9  -9   7    3.64    0.50
   9   9  -7    3.19    0.70
   9   9  -7    2.80    0.62
   8  -9  -7   11.28    0.81
  -8  -9   7   11.10    0.76
  -8  -9   7   10.90    0.74
   8   9  -7   10.53    0.98
   8   9  -7    9.83    0.73
   8   9  -7   11.32    1.03
  -7  -9   7   10.92    0.67
  -7  -9   7   11.18    0.74
   7   9  -7   10.50    0.73
   7   9  -7   10.91    1.04
   7   9  -7   10.75    0.88
  -6  -9   7    0.12    0.23
  -6  -9   7    0.46    0.26
   6   9  -7    0.27    0.43
   6   9  -7    0.28    0.27
   6   9  -7    0.14    0.46
  -5  -9   7    8.21    0.64
  -5  -9   7    7.52    0.54
   5   9  -7    8.85    0.77
   5   9  -7    8.16    0.73
   5   9  -7    7.56    0.61
  -4  -9   7    9.75    0.67
  -4  -9   7    8.90    0.64
   4   9  -7    8.86    0.64
  -4   9   7    8.77    0.39
   4   9  -7    9.60    0.85
   4   9  -7   10.06    0.85
   3  -9  -7    5.79    0.34
  -3  -9   7    6.21    0.48
  -3  -9   7    5.10    0.49
   3   9  -7    4.84    0.50
  -3   9   7    5.60    0.36
   3   9  -7    5.26    0.59
   3   9  -7    5.07    0.62
  -2  -9   7   27.90    1.15
   2  -9  -7   27.62    1.08
  -2  -9   7   28.51    1.22
   2   9  -7   29.52    1.41
  -2   9   7   27.15    1.08
   2   9  -7   26.88    1.42
  -1  -9   7    4.66    0.45
  -1  -9   7    3.51    0.38
   1   9  -7    3.49    0.45
   1   9  -7    4.52    0.54
  -1   9   7    3.76    0.38
   0  -9  -7    0.07    0.16
   0  -9   7   -0.09    0.20
   0  -9   7   -0.07    0.24
   0   9  -7    0.15    0.24
   0   9   7    0.08    0.24
   0   9   7    0.15    0.25
   0   9  -7    0.00    0.28
  -1  -9  -7    1.88    0.26
   1  -9   7    1.86    0.36
   1  -9   7    1.82    0.34
  -1   9  -7    2.20    0.41
   1   9   7    1.72    0.36
  -1   9  -7    1.79    0.28
   1   9   7    1.78    0.36
   2  -9   7    3.27    0.44
  -2  -9  -7    3.37    0.36
   2  -9   7    4.26    0.47
   2   9   7    4.11    0.44
   2   9   7    3.56    0.50
  -2   9  -7    3.44    0.34
   3  -9   7   11.73    0.67
  -3  -9  -7   11.59    0.66
   3  -9   7   12.48    0.86
   3   9   7   13.45    0.88
   3   9   7   11.72    0.82
   4  -9   7    1.64    0.39
  -4  -9  -7    1.69    0.29
   4  -9   7    1.49    0.48
   4   9   7    1.59    0.49
   4   9   7    2.32    0.48
  -5  -9  -7    0.46    0.30
   5  -9   7   -0.66    0.30
   5  -9   7   -0.33    0.30
   5   9   7    0.36    0.41
   5   9   7   -0.28    0.40
  -6  -9  -7   -0.08    0.32
   6  -9   7    0.19    0.34
   6  -9   7    0.42    0.35
   6   9   7    0.22    0.39
   6   9   7    0.28    0.44
  -7  -9  -7    0.27    0.27
   7  -9   7   -0.60    0.32
  -7   9  -7    0.22    0.32
   7   9   7   -0.33    0.53
   7   9   7    0.62    0.50
  -8  -9  -7    1.45    0.39
   8  -9   7    1.95    0.57
   8   9   7    0.77    0.65
   8   9   7    2.41    0.53
  -8   9  -7    1.60    0.50
  -9  -9  -7   -0.19    0.32
   9  -9   7    0.69    0.55
  -9   9  -7    0.30    0.41
   9   9   7    0.57    0.44
   9   9   7    0.08    0.48
 -10 -10   7    0.83    0.34
  10  10  -7   -0.45    0.59
  10  10  -7    0.68    0.48
  -9 -10   7    6.64    0.65
   9  10  -7    6.29    0.92
   9  10  -7    6.34    0.90
  -8 -10   7    0.02    0.26
  -8 -10   7    0.04    0.34
   8  10  -7    0.36    0.52
   8  10  -7   -0.01    0.36
   8  10  -7    0.07    0.28
  -7 -10   7    2.79    0.47
  -7 -10   7    2.73    0.47
   7  10  -7    2.68    0.65
   7  10  -7    3.51    0.56
   7  10  -7    3.09    0.58
  -6 -10   7    0.02    0.25
  -6 -10   7    0.13    0.35
   6  10  -7   -0.38    0.35
   6  10  -7    0.16    0.45
   6  10  -7   -0.47    0.46
  -5 -10   7    3.81    0.42
   5 -10  -7    3.75    0.24
  -5 -10   7    3.65    0.43
   5  10  -7    3.20    0.55
   5  10  -7    3.25    0.52
   5  10  -7    3.21    0.54
   4 -10  -7    0.47    0.14
  -4 -10   7    0.32    0.26
  -4 -10   7    0.05    0.31
   4  10  -7    0.12    0.28
   4  10  -7    0.27    0.27
   4  10  -7    0.54    0.46
  -4  10   7    0.38    0.14
  -3 -10   7   14.71    0.80
  -3 -10   7   12.76    0.74
   3 -10  -7   14.46    0.64
   3  10  -7   14.71    0.96
   3  10  -7   14.48    0.84
   3  10  -7   14.68    0.95
  -3  10   7   15.60    0.66
  -2 -10   7   11.07    0.64
  -2 -10   7   10.99    0.68
   2 -10  -7   10.72    0.56
   2  10  -7   10.04    0.78
  -2  10   7   10.65    0.58
   2  10  -7   11.31    0.84
  -1 -10   7   -0.18    0.24
  -1 -10   7   -0.20    0.21
   1 -10  -7   -0.10    0.20
  -1  10   7   -0.36    0.23
   1  10  -7    0.00    0.28
   1  10  -7   -0.13    0.24
   0 -10   7    0.74    0.33
   0 -10   7    0.35    0.38
   0  10   7    0.37    0.26
   0  10  -7    1.03    0.37
   0  10  -7    0.85    0.29
   1 -10   7    0.25    0.28
  -1 -10  -7    0.17    0.19
   1 -10   7   -0.33    0.29
   1  10   7   -0.02    0.28
  -1  10  -7    0.31    0.32
  -1  10  -7    0.04    0.21
   1  10   7   -0.16    0.26
   2 -10   7    0.09    0.32
   2 -10   7   -0.40    0.38
  -2 -10  -7   -0.05    0.22
   2  10   7   -0.54    0.29
  -2  10  -7    0.48    0.42
   2  10   7   -0.15    0.28
   3 -10   7    0.28    0.42
  -3 -10  -7    0.23    0.25
   3 -10   7    0.05    0.22
   3  10   7    0.44    0.30
   3  10   7   -0.32    0.35
   4 -10   7    6.74    0.61
   4 -10   7    6.79    0.62
  -4 -10  -7    5.40    0.51
   4  10   7    6.05    0.71
   4  10   7    6.59    0.62
   5 -10   7    3.37    0.59
   5 -10   7    4.31    0.50
  -5 -10  -7    3.60    0.42
   5  10   7    3.94    0.54
   5  10   7    3.39    0.56
  -6 -10  -7   -0.59    0.31
   6 -10   7   -0.12    0.32
   6  10   7    0.45    0.52
   6  10   7    0.21    0.34
  -7 -10  -7   -0.04    0.38
   7 -10   7   -0.03    0.36
   7  10   7   -0.05    0.39
   7  10   7    0.25    0.38
  -8 -10  -7    0.09    0.41
   8 -10   7    0.30    0.50
   8  10   7    0.62    0.46
   8  10   7    0.10    0.39
  -9 -10  -7   -0.25    0.46
   9  10   7    0.28    0.67
   9  10   7    0.75    0.59
  -9 -11   7    1.54    0.48
   9  11  -7    1.94    0.60
   9  11  -7    1.72    0.72
  -8 -11   7    0.22    0.38
  -8 -11   7    0.36    0.30
   8  11  -7    0.20    0.32
   8  11  -7   -0.09    0.54
   8  11  -7    0.04    0.54
  -7 -11   7    2.56    0.49
  -7 -11   7    2.69    0.50
   7  11  -7    2.42    0.68
   7  11  -7    2.47    0.56
   7  11  -7    2.51    0.55
  -6 -11   7    3.80    0.46
  -6 -11   7    3.62    0.54
   6  11  -7    4.44    0.74
   6  11  -7    4.31    0.67
   6  11  -7    3.33    0.51
  -5 -11   7    2.01    0.45
  -5 -11   7    2.21    0.37
   5 -11  -7    2.29    0.21
   5  11  -7    2.43    0.57
   5  11  -7    1.57    0.46
   5  11  -7    2.21    0.51
  -4 -11   7    0.00    0.32
  -4 -11   7    0.03    0.33
   4 -11  -7    0.27    0.16
  -4  11   7    0.40    0.16
   4  11  -7    0.39    0.39
   4  11  -7    0.34    0.47
   4  11  -7    0.12    0.37
  -3 -11   7    1.06    0.31
   3 -11  -7    0.90    0.21
  -3 -11   7    1.12    0.30
  -3  11   7    0.94    0.23
   3  11  -7    0.99    0.34
   3  11  -7    1.27    0.44
   3  11  -7    0.83    0.49
  -2 -11   7    2.22    0.38
  -2 -11   7    2.28    0.41
   2 -11  -7    2.20    0.27
   2  11  -7    2.44    0.56
   2  11  -7    1.65    0.41
  -2  11   7    1.81    0.30
   2  11  -7    2.14    0.48
   1 -11  -7    8.37    0.51
  -1 -11   7    9.33    0.73
  -1 -11   7    7.91    0.64
  -1  11   7    8.98    0.56
   1  11  -7    8.10    0.81
   1  11  -7    7.94    0.69
   0 -11   7    1.69    0.39
   0 -11   7    1.87    0.37
   0 -11  -7    1.56    0.30
   0  11  -7    1.66    0.42
   0  11  -7    1.86    0.37
   0  11   7    2.13    0.37
   1 -11   7    2.17    0.41
   1 -11   7    2.14    0.47
  -1  11  -7    1.47    0.41
   1  11   7    1.34    0.35
   2 -11   7   -0.69    0.37
   2 -11   7   -0.04    0.30
   2  11   7   -0.29    0.33
  -2  11  -7    0.13    0.42
   3 -11   7    1.15    0.36
  -3 -11  -7    0.63    0.28
   3 -11   7    1.17    0.46
  -3  11  -7    1.19    0.48
   3  11   7    0.86    0.44
   3  11   7    1.10    0.43
   4 -11   7   -0.62    0.28
   4 -11   7    0.21    0.25
  -4 -11  -7    0.00    0.27
   4  11   7    0.20    0.43
   4  11   7    0.51    0.43
  -4  11  -7   -0.28    0.42
   5 -11   7    0.22    0.35
  -5 -11  -7    0.21    0.33
   5 -11   7    0.49    0.48
   5  11   7    1.10    0.52
   5  11   7    0.58    0.46
   6 -11   7    0.26    0.47
  -6 -11  -7   -0.08    0.35
   6  11   7    0.58    0.52
   6  11   7    0.47    0.48
   7 -11   7    1.97    0.55
  -7 -11  -7    1.32    0.38
   7  11   7    1.91    0.65
   7  11   7    1.45    0.58
  -8 -11  -7   -0.08    0.31
   8 -11   7    0.90    0.54
   8  11   7    1.09    0.64
   8  11   7    0.72    0.57
  -9 -12   7    0.58    0.36
   9  12  -7   -0.18    0.48
   9  12  -7    0.15    0.69
  -8 -12   7   -0.11    0.41
  -8 -12   7    0.61    0.44
   8  12  -7    1.04    0.51
   8  12  -7    1.73    0.68
   8  12  -7    0.27    0.48
  -7 -12   7   -0.50    0.38
  -7 -12   7   -0.51    0.40
   7  12  -7   -0.68    0.47
   7  12  -7   -0.37    0.37
   7  12  -7    0.54    0.37
  -6 -12   7    0.37    0.33
  -6 -12   7   -0.25    0.28
   6  12  -7   -0.03    0.50
   6  12  -7   -0.09    0.38
   6  12  -7   -0.01    0.43
  -5 -12   7    0.69    0.39
  -5 -12   7    0.33    0.30
   5 -12  -7    0.54    0.16
   5  12  -7    0.47    0.34
   5  12  -7    0.40    0.48
   5  12  -7    0.25    0.40
  -4 -12   7    4.53    0.56
   4 -12  -7    4.61    0.34
  -4 -12   7    4.09    0.53
   4  12  -7    4.50    0.63
   4  12  -7    3.77    0.67
   4  12  -7    4.56    0.65
  -4  12   7    4.19    0.33
   3 -12  -7   10.55    0.56
  -3 -12   7   10.25    0.67
  -3 -12   7   10.73    0.72
   3  12  -7   10.03    0.92
  -3  12   7   10.49    0.58
   3  12  -7   10.19    0.86
   3  12  -7    9.85    0.75
  -2 -12   7   18.29    1.01
  -2 -12   7   15.00    0.84
   2 -12  -7   16.42    0.78
  -2  12   7   16.73    0.81
   2  12  -7   16.04    1.07
   2  12  -7   15.13    0.94
   2  12  -7   16.64    1.06
  -1 -12   7    0.30    0.26
   1 -12  -7    0.35    0.25
  -1 -12   7    0.05    0.28
   1  12  -7   -0.84    0.39
  -1  12   7    0.37    0.29
   1  12  -7    0.03    0.33
   0 -12   7    0.50    0.27
   0 -12  -7    0.64    0.26
   0 -12   7    0.13    0.41
   0  12  -7    0.40    0.47
   0  12   7    0.87    0.35
   0  12  -7    0.38    0.31
  -1 -12  -7    0.46    0.23
   1 -12   7    0.41    0.42
   1 -12   7    0.24    0.34
  -1  12  -7   -0.26    0.29
   1  12   7    0.13    0.32
   2 -12   7    5.16    0.56
   2 -12   7    5.84    0.66
  -2  12  -7    6.19    0.74
   2  12   7    5.45    0.61
   3 -12   7    4.23    0.61
   3 -12   7    3.52    0.48
  -3  12  -7    3.21    0.60
   3  12   7    2.81    0.47
   4 -12   7    0.15    0.25
   4 -12   7    0.22    0.44
   4  12   7    0.33    0.44
   5 -12   7   -0.14    0.49
   5  12   7    0.27    0.45
   6 -12   7    1.59    0.56
  -6 -12  -7    2.22    0.40
   6  12   7    2.07    0.48
   7 -12   7    0.20    0.51
  -7 -12  -7   -0.43    0.27
   7  12   7    0.35    0.36
  -8 -12  -7   -1.14    0.40
  -8 -13   7    6.27    0.76
  -8 -13   7    7.23    0.67
   8  13  -7    6.16    0.88
   8  13  -7    5.77    0.77
   8  13  -7    4.59    0.82
  -7 -13   7    0.36    0.35
  -7 -13   7   -0.26    0.29
   7  13  -7   -0.15    0.40
   7  13  -7    0.70    0.51
   7  13  -7    0.34    0.58
  -6 -13   7    0.27    0.44
  -6 -13   7    0.64    0.43
   6  13  -7   -0.24    0.51
   6  13  -7    0.24    0.33
   6  13  -7    0.11    0.40
  -5 -13   7   -0.66    0.36
  -5 -13   7    0.43    0.32
   5  13  -7    0.31    0.45
   5  13  -7    0.95    0.46
   5  13  -7   -0.56    0.46
  -4 -13   7   -0.21    0.36
   4 -13  -7    0.04    0.18
  -4 -13   7    0.27    0.41
  -4  13   7    0.31    0.19
   4  13  -7   -0.67    0.31
   4  13  -7   -0.73    0.40
   4  13  -7   -0.66    0.41
  -3 -13   7   10.66    0.76
  -3 -13   7    9.25    0.70
   3 -13  -7    8.82    0.55
  -3  13   7    8.56    0.55
   3  13  -7   10.26    0.99
   3  13  -7    6.81    0.81
   3  13  -7    8.53    0.74
   2 -13  -7    0.02    0.25
  -2 -13   7   -0.47    0.40
  -2 -13   7   -0.04    0.35
   2  13  -7   -0.49    0.34
   2  13  -7   -0.01    0.31
  -2  13   7    0.25    0.26
   2  13  -7    0.70    0.53
  -1 -13   7    1.24    0.41
   1 -13  -7    1.18    0.30
  -1 -13   7    1.43    0.39
   1  13  -7    1.18    0.44
   1  13  -7    1.96    0.44
  -1  13   7    1.31    0.33
   1  13  -7    0.94    0.43
   0 -13  -7    1.93    0.35
   0 -13   7    2.08    0.42
   0 -13   7    2.72    0.46
   0  13  -7    1.89    0.58
   0  13   7    2.26    0.41
   1 -13   7    0.02    0.25
   1 -13   7    0.02    0.32
  -1 -13  -7   -0.31    0.27
   1  13   7    0.00    0.32
  -1  13  -7    0.01    0.32
   2 -13   7    2.60    0.46
   2 -13   7    2.94    0.48
   2  13   7    1.93    0.46
  -2  13  -7    1.61    0.53
   3 -13   7    4.50    0.64
   3 -13   7    4.44    0.54
   3  13   7    4.36    0.62
   4 -13   7    0.02    0.47
   4  13   7    1.56    0.53
   5 -13   7   -0.42    0.45
   5  13   7   -0.36    0.46
   6 -13   7   -0.06    0.50
   6  13   7    0.18    0.52
  -7 -14   7    1.23    0.51
  -7 -14   7    1.08    0.52
   7  14  -7    1.18    0.71
   7  14  -7   -0.30    0.62
   7  14  -7    1.16    0.44
  -6 -14   7    2.19    0.54
  -6 -14   7    2.22    0.47
   6  14  -7    2.98    0.66
   6  14  -7    1.75    0.67
   6  14  -7    2.05    0.61
  -5 -14   7    0.33    0.45
  -5 -14   7    0.68    0.44
   5  14  -7    1.19    0.54
   5  14  -7   -0.33    0.53
   5  14  -7    0.20    0.40
  -4 -14   7    4.65    0.57
   4 -14  -7    4.33    0.40
  -4 -14   7    4.50    0.58
   4  14  -7    4.92    0.81
   4  14  -7    3.06    0.70
   4  14  -7    5.12    0.70
  -3 -14   7    1.16    0.38
   3 -14  -7    0.73    0.27
  -3 -14   7    1.18    0.43
   3  14  -7    0.91    0.57
   3  14  -7    0.35    0.48
  -3  14   7    0.86    0.28
   3  14  -7    0.93    0.49
  -2 -14   7    3.84    0.55
  -2 -14   7    3.79    0.61
   2 -14  -7    3.58    0.42
   2  14  -7    4.52    0.68
   2  14  -7    3.39    0.59
  -2  14   7    4.00    0.43
   2  14  -7    3.19    0.58
   1 -14  -7    0.12    0.27
  -1 -14   7    0.49    0.30
  -1 -14   7    1.70    0.52
   1  14  -7    0.08    0.49
  -1  14   7    0.55    0.30
   1  14  -7    0.46    0.46
   0 -14   7    1.08    0.41
   0 -14   7    1.26    0.50
   0 -14  -7    0.70    0.31
   0  14  -7    0.84    0.42
   0  14   7    1.16    0.37
   0  14  -7    0.75    0.49
   1 -14   7    0.16    0.44
  -1 -14  -7   -0.21    0.30
   1 -14   7    0.62    0.38
  -1  14  -7    0.76    0.51
   1  14   7    0.13    0.34
   2 -14   7    0.01    0.47
   2 -14   7    0.14    0.37
   2  14   7    0.46    0.41
   3 -14   7   -0.01    0.34
   3  14   7    0.51    0.46
   4 -14   7    0.64    0.52
   4  14   7   -0.42    0.43
   5 -14   7   -0.19    0.50
   5  14   7    1.07    0.54
  -6 -15   7    2.27    0.61
  -6 -15   7    1.65    0.55
   6  15  -7    1.53    0.59
   6  15  -7    1.65    0.60
   6  15  -7    1.96    0.62
  -5 -15   7    0.90    0.48
  -5 -15   7    0.15    0.36
   5  15  -7    1.09    0.55
   5  15  -7    0.00    0.58
   5  15  -7    0.70    0.50
  -4 -15   7    2.15    0.51
  -4 -15   7    1.58    0.43
   4 -15  -7    2.19    0.31
   4  15  -7    1.87    0.64
   4  15  -7    3.50    0.65
   4  15  -7    2.59    0.70
  -3 -15   7    0.52    0.38
  -3 -15   7    0.23    0.42
   3 -15  -7    0.59    0.25
   3  15  -7    0.69    0.52
   3  15  -7    0.62    0.44
  -3  15   7    0.92    0.28
  -2 -15   7   -0.16    0.28
  -2 -15   7    0.72    0.50
   2 -15  -7   -0.01    0.28
   2  15  -7    0.85    0.57
   2  15  -7    0.00    0.50
  -2  15   7    0.66    0.32
  -1 -15   7    0.06    0.47
  -1 -15   7    0.79    0.43
   1 -15  -7    0.02    0.28
   1  15  -7   -0.54    0.30
  -1  15   7    0.04    0.29
   1  15  -7    0.27    0.50
   0 -15  -7    0.60    0.34
   0 -15   7    2.32    0.57
   0 -15   7    1.43    0.37
   0  15  -7    0.68    0.38
   0  15  -7    0.83    0.55
   0  15   7    1.73    0.41
   1 -15   7    0.98    0.42
  -1 -15  -7    0.51    0.36
  -1  15  -7    1.02    0.51
   1  15   7    1.06    0.39
   2 -15   7    0.21    0.48
   2  15   7    0.47    0.42
   3 -15   7    0.95    0.54
   3  15   7    1.15    0.51
  -4 -16   7    4.14    0.63
  -4 -16   7    4.22    0.61
   4  16  -7    5.48    0.91
  -3 -16   7    3.73    0.59
  -3 -16   7    4.43    0.54
   3 -16  -7    4.08    0.45
   3  16  -7    4.62    0.81
   3  16  -7    5.21    0.78
  -2 -16   7   -0.40    0.40
   2 -16  -7    0.00    0.27
  -2 -16   7    0.97    0.44
   2  16  -7    0.73    0.44
   2  16  -7    0.13    0.52
  -2  16   7    0.36    0.32
  -1 -16   7    2.73    0.55
   1 -16  -7    2.35    0.44
  -1 -16   7    2.47    0.52
  -1  16   7    2.99    0.47
   1  16  -7    2.67    0.55
   0 -16   7    0.35    0.40
   0 -16  -7   -0.20    0.35
   0  16   7    0.30    0.38
   0  16  -7    0.06    0.51
  -1 -16  -7   -0.01    0.36
   1  16   7   -0.27    0.34
  13   0  -8    0.79    0.47
 -12   0   8   10.06    0.57
  12   0  -8   11.07    0.76
  12   0  -8   10.69    1.03
 -11   0   8   -0.03    0.18
  11   0  -8    0.27    0.30
  11   0  -8   -0.04    0.27
 -10   0   8    9.80    0.50
  10   0  -8   10.53    0.68
  10   0  -8   10.16    0.91
  -9   0   8   -0.40    0.13
   9   0  -8   -0.19    0.22
   9   0  -8   -0.31    0.31
   8   0  -8    4.18    0.57
   8   0  -8    4.98    0.45
  -8   0   8    5.01    0.31
   7   0  -8   -0.29    0.19
   7   0  -8   -0.12    0.22
  -7   0   8   -0.21    0.13
  -6   0   8   65.07    2.17
   6   0  -8   66.54    2.38
  -6   0   8   63.94    2.22
   6   0  -8   62.94    2.18
  -6   0   8   66.95    2.19
   6   0  -8   64.02    2.74
   6   0  -8   66.34    2.30
  -5   0   8    0.00    0.08
  -5   0   8   -0.36    0.11
   5   0  -8   -0.43    0.15
   5   0  -8   -0.30    0.10
   5   0  -8   -0.37    0.21
  -5   0   8    0.10    0.11
   5   0  -8   -0.29    0.13
  -4   0   8    0.22    0.08
   4   0  -8    0.21    0.12
  -4   0   8    0.17    0.11
  -4   0   8    0.35    0.12
   3   0  -8    0.10    0.11
  -3   0   8   -0.03    0.10
  -3   0   8   -0.11    0.12
  -3   0   8   -0.05    0.09
   2   0  -8   14.74    0.65
  -2   0   8   14.64    0.62
  -2   0   8   14.59    0.61
  -2   0   8   15.19    0.60
  -1   0   8   -0.07    0.16
   1   0  -8    0.10    0.15
  -1   0   8    0.04    0.12
  -1   0   8   -0.04    0.16
   1   0  -8   -0.20    0.12
   0   0  -8   58.11    2.02
   0   0   8   58.96    2.14
   0   0   8   58.99    2.03
   0   0   8   57.80    2.00
   1   0   8   -0.26    0.22
  -1   0  -8    0.11    0.18
   1   0   8    0.05    0.15
   2   0   8   16.87    0.76
   2   0   8   17.52    0.86
  -2   0  -8   15.98    0.72
  -3   0  -8   -0.02    0.16
   3   0   8   -0.11    0.27
   3   0   8   -0.48    0.31
   4   0   8    4.10    0.42
   4   0   8    4.91    0.52
  -4   0  -8    4.48    0.39
  -5   0  -8    0.71    0.25
   5   0   8    1.04    0.35
   5   0   8    0.81    0.28
  -6   0  -8    5.14    0.48
   6   0   8    6.43    0.56
   6   0   8    6.12    0.73
  -7   0  -8    0.04    0.25
   7   0   8   -0.19    0.27
   7   0   8    0.15    0.36
   8   0   8    0.99    0.45
   8   0   8    1.63    0.49
  -8   0  -8    1.68    0.36
  -9   0  -8   -0.37    0.37
   9   0   8   -0.11    0.31
   9   0   8   -0.66    0.52
  10   0   8    0.93    0.64
  10   0   8    0.79    0.48
 -10   0  -8    0.10    0.31
 -11   0  -8   -0.67    0.43
  13  -1  -8    4.89    0.72
  13   1  -8    4.83    0.60
  13   1  -8    4.94    0.78
  12  -1  -8    0.42    0.30
  12  -1  -8    0.36    0.39
 -12  -1   8    0.12    0.21
  12   1  -8    0.43    0.47
  12   1  -8    0.66    0.35
  11  -1  -8    1.45    0.34
  11  -1  -8    1.07    0.39
 -11  -1   8    1.47    0.26
  11   1  -8    1.56    0.50
  11   1  -8    2.00    0.42
 -11   1   8    1.50    0.22
  10  -1  -8   13.79    1.03
 -10  -1   8   13.65    0.63
  10  -1  -8   12.74    0.75
  10   1  -8   12.91    0.99
  10   1  -8   13.58    0.84
 -10   1   8   14.12    0.57
   9  -1  -8    0.92    0.25
   9  -1  -8    1.21    0.33
  -9  -1   8    0.95    0.22
   9   1  -8    0.41    0.31
   9   1  -8    1.31    0.44
  -9   1   8    1.42    0.18
   8  -1  -8   13.82    0.70
   8  -1  -8   14.96    0.93
  -8  -1   8   14.34    0.62
  -8   1   8   14.68    0.56
   8   1  -8   14.14    0.79
   8   1  -8   13.24    0.99
   7  -1  -8    4.89    0.58
   7  -1  -8    5.29    0.40
  -7  -1   8    5.75    0.35
  -7   1   8    6.20    0.33
   7   1  -8    5.08    0.56
  -7   1   8    5.52    0.29
   7   1  -8    6.65    0.50
   6  -1  -8    0.32    0.18
  -6  -1   8    0.19    0.09
   6  -1  -8    0.23    0.13
   6  -1  -8    0.23    0.30
   6  -1  -8    0.24    0.10
  -6  -1   8    0.28    0.15
   6   1  -8   -0.03    0.30
  -6   1   8    0.21    0.06
   6   1  -8    0.31    0.15
   6   1  -8    0.40    0.24
  -6   1   8    0.29    0.12
   6   1  -8    0.24    0.15
   5  -1  -8   -0.26    0.10
  -5  -1   8   -0.15    0.14
   5  -1  -8   -0.26    0.14
   5  -1  -8   -0.07    0.23
  -5  -1   8    0.13    0.12
  -5  -1   8    0.18    0.14
   5  -1  -8    0.01    0.09
   5   1  -8   -0.14    0.14
   5   1  -8   -0.48    0.17
   5   1  -8    0.26    0.20
  -5   1   8   -0.08    0.10
  -5   1   8    0.01    0.06
   5   1  -8   -0.13    0.11
   4  -1  -8   14.29    0.61
  -4  -1   8   14.99    0.60
  -4  -1   8   14.94    0.61
  -4  -1   8   15.29    0.62
  -4   1   8   14.64    0.57
  -4   1   8   14.64    0.57
  -4   1   8   14.56    0.54
   4   1  -8   15.30    0.65
   4   1  -8   14.48    0.82
  -3  -1   8    0.67    0.15
   3  -1  -8    0.64    0.14
  -3  -1   8    0.53    0.14
  -3  -1   8    0.42    0.15
  -3   1   8    0.46    0.12
   3   1  -8    0.38    0.15
  -3   1   8    0.49    0.12
  -3   1   8    0.21    0.07
   2  -1  -8    6.64    0.37
  -2  -1   8    5.86    0.34
  -2  -1   8    6.18    0.36
  -2  -1   8    5.94    0.36
   2  -1  -8    5.79    0.32
  -2   1   8    6.42    0.31
   2   1  -8    6.21    0.36
  -2   1   8    6.23    0.33
  -2   1   8    6.42    0.33
  -1  -1   8   23.67    0.89
  -1  -1   8   23.76    0.91
   1  -1  -8   22.93    0.96
  -1  -1   8   23.08    0.94
   1  -1  -8   24.94    0.89
  -1   1   8   23.87    0.90
  -1   1   8   23.68    0.87
  -1   1   8   23.50    0.93
   1   1  -8   23.06    0.97
   1   1  -8   22.96    0.91
   0  -1   8   47.85    1.70
   0  -1  -8   47.13    1.69
   0  -1  -8   47.01    1.82
   0  -1   8   48.76    1.80
   0   1  -8   49.02    1.72
   0   1   8   49.40    1.71
   0   1   8   49.17    1.68
   0   1   8   48.55    1.79
  -1  -1  -8    9.61    0.49
   1  -1   8    9.24    0.54
   1  -1   8    9.32    0.50
   1   1   8    9.06    0.53
   1   1   8    9.85    0.50
  -1   1  -8    9.10    0.48
  -2  -1  -8   -0.05    0.14
   2  -1   8   -0.07    0.17
   2  -1   8   -0.27    0.20
   2   1   8   -0.10    0.27
  -2   1  -8   -0.13    0.21
   2   1   8   -0.21    0.17
   3  -1   8   -0.01    0.19
   3  -1   8    0.69    0.28
  -3  -1  -8    0.40    0.23
   3   1   8    0.57    0.23
   3   1   8    0.33    0.33
  -3   1  -8    0.30    0.24
   4  -1   8   17.70    0.85
  -4  -1  -8   16.74    0.79
   4  -1   8   17.10    0.93
  -4   1  -8   18.16    0.85
   4   1   8   17.67    0.95
   4   1   8   18.44    0.91
  -5  -1  -8   19.50    0.93
   5  -1   8   23.20    1.13
   5  -1   8   22.75    1.06
   5   1   8   22.06    1.13
   5   1   8   20.95    1.01
  -5   1  -8   20.27    0.99
   6  -1   8   20.43    1.05
  -6  -1  -8   19.15    0.93
   6  -1   8   20.06    1.19
   6   1   8   21.47    1.23
   6   1   8   20.44    1.01
  -6   1  -8   19.38    0.94
   7  -1   8    0.06    0.37
   7  -1   8    0.08    0.36
  -7  -1  -8    0.40    0.28
   7   1   8    0.22    0.31
  -7   1  -8    0.27    0.27
   7   1   8   -0.01    0.51
   8  -1   8    5.52    0.63
   8  -1   8    5.16    0.68
  -8  -1  -8    4.75    0.52
  -8   1  -8    4.59    0.51
   8   1   8    5.01    0.64
   8   1   8    5.04    0.79
   9  -1   8    0.61    0.34
  -9  -1  -8   -0.16    0.38
   9  -1   8    0.84    0.47
   9   1   8   -0.12    0.44
   9   1   8    1.45    0.62
  -9   1  -8    0.49    0.32
  10  -1   8   -0.04    0.44
 -10  -1  -8   -0.92    0.37
  10  -1   8    0.31    0.45
  10   1   8    0.02    0.35
  10   1   8   -0.16    0.56
 -10   1  -8   -0.03    0.43
 -11  -1  -8    0.35    0.35
 -11   1  -8    0.47    0.35
  11   1   8    0.07    0.50
 -13  -2   8    3.76    0.40
  13  -2  -8    3.93    0.68
  13   2  -8    3.63    0.71
  13   2  -8    3.39    0.59
 -12  -2   8   -0.10    0.23
  12  -2  -8   -0.02    0.37
  12   2  -8    0.02    0.46
  12   2  -8    0.51    0.38
  11  -2  -8   14.93    1.05
 -11  -2   8   15.47    0.72
  11  -2  -8   14.55    0.77
  11   2  -8   14.77    0.94
  11   2  -8   16.76    1.23
  10  -2  -8    0.63    0.39
 -10  -2   8    0.69    0.25
  10  -2  -8    0.45    0.22
  10   2  -8    0.16    0.31
 -10   2   8    0.59    0.14
  10   2  -8    0.91    0.45
   9  -2  -8    0.55    0.21
  -9  -2   8    0.02    0.18
   9  -2  -8    0.49    0.34
   9   2  -8    0.22    0.30
  -9   2   8    0.34    0.11
   9   2  -8    0.52    0.31
   8  -2  -8    9.79    0.53
   8  -2  -8    9.79    0.81
  -8  -2   8   10.22    0.51
  -8   2   8   10.84    0.40
   8   2  -8   10.13    0.80
   8   2  -8    9.33    0.66
  -7  -2   8   39.67    1.43
  -7  -2   8   40.48    1.47
   7  -2  -8   40.06    1.85
   7  -2  -8   39.32    1.49
  -7   2   8   40.74    1.33
  -7   2   8   41.03    1.33
   7   2  -8   38.82    1.87
   7   2  -8   40.39    1.64
   7   2  -8   39.16    1.47
   6  -2  -8   23.27    1.23
   6  -2  -8   23.67    0.93
   6  -2  -8   22.46    0.88
  -6  -2   8   23.19    0.91
  -6  -2   8   24.06    0.92
   6   2  -8   23.97    1.28
   6   2  -8   22.59    0.94
   6   2  -8   24.43    1.07
   6   2  -8   24.07    1.01
  -6   2   8   23.91    0.81
  -6   2   8   23.34    0.80
   5  -2  -8   12.27    0.45
  -5  -2   8   13.21    0.58
  -5  -2   8   13.14    0.57
   5  -2  -8   12.63    0.53
  -5  -2   8   14.28    0.61
  -5   2   8   12.95    0.48
  -5   2   8   13.46    0.49
   5   2  -8   13.01    0.61
   5   2  -8   13.07    0.80
   5   2  -8   13.52    0.71
   5   2  -8   12.58    0.61
   4  -2  -8    7.27    0.36
  -4  -2   8    7.72    0.41
  -4  -2   8    7.75    0.39
  -4  -2   8    6.87    0.39
   4   2  -8    7.82    0.43
  -4   2   8    7.03    0.32
   4   2  -8    7.65    0.56
   3  -2  -8    0.68    0.14
  -3  -2   8    0.48    0.17
  -3  -2   8    0.55    0.16
  -3  -2   8    0.70    0.17
   3   2  -8    0.53    0.18
  -3   2   8    0.74    0.10
   3   2  -8    0.68    0.21
  -3   2   8    0.70    0.13
  -3   2   8    0.67    0.11
  -2  -2   8   20.64    0.82
  -2  -2   8   21.33    0.84
   2  -2  -8   21.24    0.78
   2  -2  -8   21.30    0.86
  -2  -2   8   21.20    0.87
  -2   2   8   21.29    0.80
  -2   2   8   21.17    0.77
  -2   2   8   21.16    0.81
   2   2  -8   21.84    0.90
   1  -2  -8    1.60    0.23
  -1  -2   8    1.42    0.24
  -1  -2   8    1.29    0.21
   1  -2  -8    1.06    0.17
  -1   2   8    1.66    0.18
  -1   2   8    1.64    0.21
  -1   2   8    1.81    0.21
   0  -2  -8   12.25    0.54
   0  -2   8   12.39    0.65
   0  -2  -8   11.04    0.62
   0  -2   8   11.08    0.56
   0   2   8   12.99    0.61
   0   2   8   13.09    0.54
   0   2  -8   12.74    0.58
   0   2   8   12.32    0.58
   1  -2   8   17.89    0.85
   1  -2   8   17.14    0.75
  -1  -2  -8   16.57    0.72
   1   2   8   17.48    0.75
  -1   2  -8   16.21    0.74
   1   2   8   17.42    0.82
   2  -2   8    9.97    0.66
  -2  -2  -8    9.62    0.53
   2  -2   8    9.88    0.59
   2   2   8    9.34    0.59
  -2   2  -8    9.29    0.52
   2   2   8    9.21    0.59
  -3  -2  -8   21.41    0.92
   3  -2   8   23.06    1.05
   3  -2   8   21.68    0.95
   3   2   8   21.02    1.04
   3   2   8   22.10    1.00
  -3   2  -8   21.31    0.93
   4  -2   8    0.54    0.26
  -4  -2  -8    0.87    0.28
   4  -2   8    0.62    0.41
   4   2   8    0.96    0.33
  -4   2  -8    0.72    0.24
   4   2   8    0.81    0.28
   5  -2   8    0.20    0.25
   5  -2   8   -0.55    0.27
  -5  -2  -8    0.11    0.21
  -5   2  -8   -0.25    0.20
   5   2   8    0.18    0.26
   5   2   8   -0.02    0.30
  -6  -2  -8    1.94    0.32
   6  -2   8    2.52    0.57
   6  -2   8    2.19    0.45
   6   2   8    2.49    0.41
   6   2   8    2.20    0.49
  -6   2  -8    1.68    0.33
  -7  -2  -8    2.58    0.38
   7  -2   8    2.92    0.52
   7  -2   8    2.80    0.49
   7   2   8    2.65    0.55
  -7   2  -8    2.50    0.39
   7   2   8    2.44    0.53
   8  -2   8    0.14    0.53
   8  -2   8    0.02    0.39
  -8  -2  -8   -0.02    0.37
   8   2   8    0.03    0.41
  -8   2  -8   -0.28    0.35
   8   2   8   -0.65    0.26
   9  -2   8    0.70    0.59
   9  -2   8    0.57    0.33
  -9  -2  -8    0.03    0.28
   9   2   8    0.53    0.60
  -9   2  -8    0.25    0.30
   9   2   8    0.45    0.47
  10  -2   8    2.23    0.69
 -10  -2  -8    1.26    0.39
 -10   2  -8    0.93    0.47
  10   2   8    1.77    0.57
  10   2   8    1.45    0.54
  11   2   8    0.81    0.55
 -13  -3   8    0.14    0.29
  13   3  -8    0.84    0.57
  13   3  -8    0.90    0.42
 -12  -3   8   -0.37    0.26
  12  -3  -8   -0.17    0.32
  12   3  -8    0.92    0.40
  12   3  -8   -0.14    0.46
 -11  -3   8    6.59    0.49
  11  -3  -8    6.63    0.76
  11   3  -8    6.83    0.87
  11   3  -8    6.14    0.71
  10  -3  -8    1.31    0.42
 -10  -3   8    0.44    0.28
  10   3  -8    0.65    0.50
  10   3  -8    0.63    0.39
   9  -3  -8    6.59    0.38
  -9  -3   8    6.47    0.47
   9  -3  -8    6.34    0.68
   9   3  -8    6.57    0.63
   9   3  -8    6.52    0.77
   8  -3  -8    0.28    0.31
   8  -3  -8    0.51    0.14
  -8  -3   8   -0.20    0.22
   8   3  -8    0.25    0.38
   8   3  -8    0.53    0.32
   7  -3  -8    0.25    0.12
  -7  -3   8    0.15    0.17
  -7  -3   8    0.54    0.21
   7  -3  -8    0.01    0.20
   7   3  -8    0.51    0.36
   7   3  -8    0.04    0.20
   7   3  -8    0.26    0.29
   6  -3  -8    4.27    0.24
   6  -3  -8    4.91    0.48
  -6  -3   8    4.75    0.36
   6  -3  -8    3.93    0.26
  -6  -3   8    4.84    0.37
   6   3  -8    4.03    0.37
   6   3  -8    4.08    0.54
   6   3  -8    4.27    0.47
  -5  -3   8   -0.11    0.18
  -5  -3   8   -0.44    0.17
   5  -3  -8   -0.12    0.09
   5   3  -8    0.15    0.30
  -5   3   8   -0.17    0.05
   5   3  -8   -0.20    0.23
  -5   3   8   -0.07    0.05
   5   3  -8   -0.62    0.15
   4  -3  -8    0.05    0.04
  -4  -3   8   -0.02    0.15
   4  -3  -8    0.18    0.10
  -4  -3   8    0.09    0.17
  -4  -3   8   -0.16    0.16
   4  -3  -8    0.00    0.04
  -4   3   8    0.17    0.09
  -4   3   8    0.02    0.07
   4   3  -8   -0.16    0.21
   4   3  -8   -0.07    0.23
  -3  -3   8   20.93    0.83
  -3  -3   8   22.20    0.88
   3  -3  -8   20.58    0.83
   3   3  -8   22.14    1.07
  -3   3   8   20.73    0.76
  -3   3   8   21.53    0.72
  -3   3   8   20.38    0.72
  -2  -3   8    1.02    0.22
   2  -3  -8    1.18    0.15
  -2  -3   8    1.41    0.21
   2  -3  -8    1.33    0.19
   2   3  -8    1.00    0.23
  -2   3   8    1.57    0.18
  -2   3   8    1.30    0.14
   1  -3  -8  166.41    5.33
  -1  -3   8  165.86    5.66
  -1  -3   8  164.28    5.38
   1  -3  -8  156.20    5.66
  -1   3   8  163.86    5.60
   1   3  -8  166.04    6.21
  -1   3   8  167.48    5.35
  -1   3   8  166.79    5.32
   0  -3  -8    0.68    0.17
   0  -3  -8    1.02    0.23
   0  -3   8    0.91    0.28
   0  -3   8    0.82    0.25
   0   3   8    1.22    0.22
   0   3  -8    0.91    0.24
   0   3   8    1.02    0.22
   0   3   8    1.11    0.17
   1  -3   8   88.74    3.02
   1  -3   8   90.80    3.20
  -1  -3  -8   86.22    2.97
   1   3   8   90.56    3.19
  -1   3  -8   86.69    3.04
   1   3   8   90.22    3.03
   2  -3   8   18.27    0.88
   2  -3   8   17.73    0.84
  -2  -3  -8   17.77    0.78
   2   3   8   17.86    0.92
  -2   3  -8   17.12    0.80
   2   3   8   19.39    0.86
   3  -3   8    3.16    0.40
  -3  -3  -8    3.07    0.31
   3  -3   8    2.69    0.46
   3   3   8    3.47    0.43
  -3   3  -8    3.09    0.34
   3   3   8    3.32    0.37
   4  -3   8    3.22    0.44
  -4  -3  -8    3.18    0.37
   4  -3   8    2.78    0.50
  -4   3  -8    3.16    0.37
   4   3   8    2.62    0.38
   4   3   8    2.94    0.45
   5  -3   8    3.03    0.56
   5  -3   8    2.72    0.45
  -5  -3  -8    3.29    0.41
   5   3   8    3.96    0.60
  -5   3  -8    3.27    0.41
   5   3   8    4.24    0.48
  -6  -3  -8    3.10    0.44
   6  -3   8    3.26    0.43
   6  -3   8    2.69    0.57
   6   3   8    3.52    0.47
   6   3   8    3.97    0.67
  -6   3  -8    2.76    0.46
  -7  -3  -8    6.85    0.64
   7  -3   8    5.17    0.58
   7  -3   8    5.87    0.66
   7   3   8    6.08    0.66
  -7   3  -8    3.42    0.45
   7   3   8    5.01    0.74
   8  -3   8    1.66    0.60
   8  -3   8    1.00    0.43
  -8  -3  -8    0.49    0.30
   8   3   8    0.88    0.61
  -8   3  -8    0.49    0.40
   8   3   8    0.59    0.48
  -9  -3  -8    0.87    0.43
   9  -3   8    0.16    0.30
   9  -3   8    0.10    0.56
   9   3   8   -0.19    0.39
  -9   3  -8    0.46    0.33
   9   3   8    0.63    0.37
  10  -3   8    0.78    0.64
 -10  -3  -8    1.05    0.47
  10   3   8    2.05    0.71
 -10   3  -8    0.28    0.35
  10   3   8    0.21    0.37
  11   3   8   -0.18    0.36
 -13  -4   8    9.81    0.66
 -12  -4   8    0.00    0.26
  12  -4  -8    0.32    0.37
  12   4  -8    0.80    0.58
  12   4  -8    0.15    0.39
 -11  -4   8    0.84    0.32
  11  -4  -8    0.54    0.39
  11   4  -8    1.09    0.50
  11   4  -8    1.73    0.56
  10  -4  -8    0.20    0.33
 -10  -4   8   -0.36    0.24
  10   4  -8    0.09    0.39
  10   4  -8    0.20    0.35
   9  -4  -8    0.67    0.34
  -9  -4   8    0.12    0.22
   9   4  -8    0.84    0.37
   9   4  -8    0.55    0.34
  -8  -4   8    1.95    0.30
   8  -4  -8    1.60    0.34
   8  -4  -8    2.06    0.14
   8   4  -8    2.08    0.52
   8   4  -8    1.73    0.42
  -7  -4   8    2.31    0.27
   7  -4  -8    2.39    0.12
   7  -4  -8    2.36    0.11
  -7  -4   8    2.08    0.27
   7  -4  -8    2.16    0.40
   7   4  -8    2.35    0.43
   7   4  -8    1.89    0.48
   7   4  -8    2.82    0.34
   6  -4  -8   52.52    1.77
   6  -4  -8   47.99    1.75
  -6  -4   8   52.44    1.90
  -6  -4   8   54.10    1.85
   6   4  -8   52.84    2.32
   6   4  -8   51.69    2.08
   6   4  -8   51.34    1.90
  -5  -4   8  159.79    5.10
  -5  -4   8  157.38    5.33
   5  -4  -8  144.52    5.21
   5   4  -8  156.44    5.15
   5   4  -8  154.72    6.01
   5   4  -8  157.73    5.48
   4  -4  -8    1.87    0.19
  -4  -4   8    2.07    0.24
  -4  -4   8    2.16    0.27
  -4   4   8    2.03    0.13
   4   4  -8    2.21    0.35
  -4   4   8    2.13    0.12
   4   4  -8    1.96    0.32
  -3  -4   8   89.31    2.89
   3  -4  -8   81.20    2.96
  -3  -4   8   83.96    3.01
  -3   4   8   87.17    2.77
   3   4  -8   84.19    3.40
  -2  -4   8    0.84    0.20
   2  -4  -8    0.89    0.18
  -2  -4   8    0.66    0.23
   2  -4  -8    0.79    0.13
   2   4  -8    0.71    0.26
  -2   4   8    1.05    0.17
  -2   4   8    0.87    0.13
  -2   4   8    0.96    0.13
   1  -4  -8    0.22    0.12
  -1  -4   8    0.90    0.27
   1  -4  -8    0.25    0.15
  -1  -4   8    0.64    0.24
  -1   4   8    0.38    0.17
  -1   4   8    0.18    0.12
  -1   4   8    0.52    0.17
   1   4  -8    0.27    0.21
   0  -4  -8   14.33    0.72
   0  -4  -8   13.97    0.61
   0  -4   8   14.03    0.67
   0  -4   8   14.80    0.76
   0   4  -8   14.00    0.76
   0   4   8   14.62    0.61
   0   4   8   15.27    0.67
   0   4   8   14.59    0.68
   1  -4   8    4.21    0.41
  -1  -4  -8    4.06    0.33
   1  -4   8    4.07    0.41
   1   4   8    3.87    0.40
  -1   4  -8    4.50    0.37
  -1   4  -8    3.85    0.36
   1   4   8    4.72    0.40
   2  -4   8    1.55    0.32
   2  -4   8    1.31    0.26
  -2  -4  -8    1.77    0.23
   2   4   8    1.10    0.35
   2   4   8    1.34    0.33
  -2   4  -8    1.91    0.34
   3  -4   8   41.27    1.54
   3  -4   8   39.54    1.62
  -3  -4  -8   37.57    1.45
  -3   4  -8   36.63    1.50
   3   4   8   40.98    1.68
   3   4   8   38.85    1.53
   4  -4   8    2.29    0.42
   4  -4   8    2.50    0.35
  -4  -4  -8    2.56    0.35
  -4   4  -8    2.02    0.39
   4   4   8    2.80    0.39
   4   4   8    2.23    0.51
   5  -4   8   -0.31    0.41
  -5  -4  -8    0.20    0.28
   5  -4   8   -0.36    0.21
   5   4   8   -0.23    0.30
   5   4   8   -0.06    0.26
  -5   4  -8   -0.91    0.29
   6  -4   8    0.83    0.50
  -6  -4  -8    0.41    0.25
   6  -4   8    1.07    0.38
   6   4   8    0.16    0.36
   6   4   8    0.83    0.42
  -6   4  -8    0.73    0.37
  -7  -4  -8   17.67    0.94
   7  -4   8   20.57    1.15
   7  -4   8   19.98    0.99
   7   4   8   21.29    1.23
  -7   4  -8   18.66    0.98
   7   4   8   19.92    1.07
   8  -4   8    7.70    0.63
  -8  -4  -8    8.81    0.73
   8  -4   8    6.37    0.80
   8   4   8    7.53    0.71
  -8   4  -8    7.57    0.64
   8   4   8    7.75    0.92
   9  -4   8    1.66    0.61
   9  -4   8    1.49    0.38
  -9  -4  -8    1.27    0.47
  -9   4  -8    1.15    0.46
   9   4   8    1.89    0.55
   9   4   8    0.97    0.49
 -10  -4  -8    0.53    0.45
  10  -4   8    1.72    0.65
  10   4   8    1.36    0.57
  10   4   8    1.03    0.69
 -10   4  -8    0.71    0.38
  11   4   8    1.10    0.56
 -12  -5   8    0.24    0.32
  12   5  -8    0.17    0.51
  12   5  -8    0.07    0.44
  11  -5  -8    5.31    0.66
 -11  -5   8    5.31    0.50
  11   5  -8    4.23    0.69
  11   5  -8    4.89    0.74
  10  -5  -8    0.33    0.34
 -10  -5   8    0.21    0.28
  10   5  -8   -0.27    0.45
  10   5  -8   -0.01    0.31
   9  -5  -8    6.86    0.68
  -9  -5   8    6.91    0.52
   9   5  -8    5.87    0.79
   9   5  -8    8.22    0.77
   8  -5  -8    6.10    0.63
  -8  -5   8    5.91    0.48
   8   5  -8    6.67    0.68
   8   5  -8    5.63    0.69
  -7  -5   8   11.61    0.63
  -7  -5   8   11.77    0.61
   7  -5  -8   11.99    0.83
   7   5  -8   11.49    0.82
   7   5  -8   11.44    0.96
   7   5  -8   10.93    0.66
  -6  -5   8    1.69    0.25
  -6  -5   8    2.06    0.30
   6   5  -8    1.80    0.36
   6   5  -8    2.05    0.32
   6   5  -8    1.64    0.39
   5  -5  -8   25.29    0.96
  -5  -5   8   27.98    1.08
  -5  -5   8   27.95    1.11
   5   5  -8   27.26    1.14
   5   5  -8   27.99    1.45
   5   5  -8   29.61    1.31
   4  -5  -8    9.91    0.46
  -4  -5   8   10.11    0.58
  -4  -5   8   11.17    0.55
   4   5  -8   11.10    0.73
  -4   5   8   10.77    0.37
  -4   5   8    9.91    0.36
   4   5  -8   10.73    0.74
   3  -5  -8   77.71    2.50
  -3  -5   8   78.47    2.78
   3  -5  -8   71.38    2.70
  -3  -5   8   77.78    2.65
  -3   5   8   78.19    2.51
  -3   5   8   79.67    2.53
   3   5  -8   77.52    3.15
   3   5  -8   78.36    2.90
   2  -5  -8    2.67    0.21
  -2  -5   8    3.25    0.36
   2  -5  -8    3.08    0.30
  -2  -5   8    2.78    0.29
   2   5  -8    2.52    0.38
  -2   5   8    2.73    0.22
  -2   5   8    3.15    0.20
  -2   5   8    3.69    0.28
  -1  -5   8   75.13    2.57
   1  -5  -8   69.55    2.69
  -1  -5   8   77.60    2.72
   1  -5  -8   74.50    2.48
  -1   5   8   77.47    2.53
  -1   5   8   74.30    2.48
   1   5  -8   74.50    2.97
  -1   5   8   73.68    2.62
   0  -5   8    6.28    0.48
   0  -5   8    6.38    0.53
   0  -5  -8    6.11    0.46
   0  -5  -8    6.11    0.36
   0   5  -8    6.33    0.48
   0   5   8    6.47    0.43
   0   5   8    6.48    0.37
   0   5   8    6.23    0.46
  -1  -5  -8   25.24    0.98
   1  -5   8   25.34    1.04
   1  -5   8   25.61    1.11
  -1   5  -8   24.07    1.05
   1   5   8   25.51    1.10
  -1   5  -8   24.75    1.12
   1   5   8   26.14    1.06
   2  -5   8    1.25    0.39
  -2  -5  -8    1.31    0.21
   2  -5   8    1.39    0.27
  -2   5  -8    1.20    0.21
   2   5   8    1.17    0.27
  -2   5  -8    1.28    0.27
   2   5   8    0.84    0.33
  -3  -5  -8    2.75    0.34
   3  -5   8    2.38    0.34
   3  -5   8    3.15    0.43
  -3   5  -8    3.12    0.29
  -3   5  -8    2.20    0.40
   3   5   8    2.29    0.36
   3   5   8    2.13    0.45
  -4  -5  -8    5.14    0.40
   4  -5   8    5.70    0.53
   4  -5   8    5.78    0.57
  -4   5  -8    4.46    0.33
   4   5   8    5.04    0.57
   4   5   8    4.92    0.50
  -4   5  -8    4.57    0.47
   5  -5   8   12.15    0.90
   5  -5   8   13.69    0.79
  -5  -5  -8   11.72    0.66
  -5   5  -8   12.56    0.73
   5   5   8   13.31    0.97
   5   5   8   12.02    0.85
  -6  -5  -8    3.35    0.47
   6  -5   8    3.24    0.62
   6  -5   8    3.29    0.48
   6   5   8    2.47    0.60
  -6   5  -8    3.01    0.43
   6   5   8    3.28    0.48
  -7  -5  -8    8.77    0.64
   7  -5   8   10.49    0.77
   7  -5   8    9.71    0.82
   7   5   8   10.06    0.88
   7   5   8   12.19    0.91
  -7   5  -8    9.67    0.79
   8  -5   8    3.45    0.67
   8  -5   8    1.91    0.38
  -8  -5  -8    3.06    0.50
  -8   5  -8    2.33    0.43
   8   5   8    3.28    0.61
   8   5   8    2.82    0.71
   9  -5   8    0.84    0.46
  -9  -5  -8    1.38    0.47
   9   5   8    1.81    0.57
  -9   5  -8    0.40    0.44
   9   5   8    0.45    0.48
 -10  -5  -8    0.46    0.35
  10  -5   8    0.32    0.46
 -10   5  -8    0.32    0.35
  10   5   8    0.20    0.67
  10   5   8    0.13    0.52
 -12  -6   8    0.41    0.36
  12   6  -8    0.91    0.50
  12   6  -8    1.30    0.57
 -11  -6   8    0.51    0.31
  11   6  -8    0.46    0.56
  11   6  -8    0.66    0.51
  10  -6  -8    0.57    0.33
 -10  -6   8    0.20    0.29
  10   6  -8    0.64    0.47
  10   6  -8    0.11    0.38
  -9  -6   8    2.25    0.37
   9  -6  -8    1.93    0.41
   9   6  -8    1.70    0.52
   9   6  -8    0.82    0.52
  -8  -6   8    0.28    0.28
   8  -6  -8   -0.11    0.28
   8   6  -8    0.28    0.39
   8   6  -8    0.21    0.31
  -7  -6   8    4.87    0.46
  -7  -6   8    3.67    0.38
   7   6  -8    4.22    0.53
   7   6  -8    3.98    0.63
   7   6  -8    4.48    0.48
  -6  -6   8   71.19    2.43
  -6  -6   8   70.32    2.52
   6   6  -8   68.90    2.72
   6   6  -8   69.56    2.99
   6   6  -8   63.26    2.47
   5  -6  -8   38.63    1.40
  -5  -6   8   40.80    1.59
  -5  -6   8   44.47    1.57
   5   6  -8   43.25    1.80
   5   6  -8   41.85    1.97
   5   6  -8   40.26    1.62
   4  -6  -8   82.99    2.95
  -4  -6   8   86.89    2.93
  -4  -6   8   87.74    3.08
   4   6  -8   87.20    3.52
   4   6  -8   86.52    3.22
  -4   6   8   89.85    2.73
  -4   6   8   78.50    2.72
   4   6  -8   85.27    3.01
  -3  -6   8    5.21    0.46
  -3  -6   8    6.01    0.48
   3  -6  -8    5.42    0.36
   3  -6  -8    5.56    0.23
  -3   6   8    5.77    0.31
   3   6  -8    6.28    0.61
  -3   6   8    5.23    0.26
   3   6  -8    5.34    0.57
   2  -6  -8   23.86    1.02
  -2  -6   8   25.00    1.01
  -2  -6   8   26.10    1.09
   2  -6  -8   25.15    0.88
   2   6  -8   23.19    1.20
  -2   6   8   25.36    0.93
  -2   6   8   24.37    0.89
  -2   6   8   24.50    0.88
   1  -6  -8   10.72    0.61
   1  -6  -8   11.43    0.50
  -1  -6   8   11.28    0.59
  -1  -6   8   12.17    0.64
  -1   6   8   10.80    0.49
  -1   6   8   11.74    0.58
   1   6  -8   11.20    0.71
  -1   6   8   11.25    0.55
   0  -6  -8   12.90    0.55
   0  -6   8   11.84    0.62
   0  -6  -8   11.87    0.67
   0  -6   8   13.76    0.75
   0   6   8   11.60    0.54
   0   6   8   11.13    0.61
   0   6  -8   11.45    0.69
   0   6   8   12.90    0.63
   1  -6   8    9.69    0.60
  -1  -6  -8    9.22    0.48
   1  -6   8    9.44    0.60
  -1   6  -8    8.19    0.54
   1   6   8    9.06    0.58
   1   6   8    9.54    0.60
   2  -6   8   -0.29    0.34
   2  -6   8    0.06    0.22
  -2  -6  -8   -0.19    0.18
   2   6   8   -0.89    0.26
  -2   6  -8    0.07    0.16
  -2   6  -8   -0.50    0.19
   3  -6   8   49.36    1.82
  -3  -6  -8   48.02    1.76
   3  -6   8   50.67    1.98
  -3   6  -8   44.39    1.81
   3   6   8   49.25    1.87
  -3   6  -8   45.76    1.87
   3   6   8   47.75    1.99
   4  -6   8    3.80    0.41
  -4  -6  -8    3.58    0.41
   4  -6   8    3.74    0.55
  -4   6  -8    3.17    0.48
   4   6   8    3.56    0.57
   4   6   8    3.85    0.53
   5  -6   8   -0.07    0.24
   5  -6   8   -0.50    0.30
  -5  -6  -8    0.06    0.21
   5   6   8   -0.09    0.27
  -5   6  -8   -0.24    0.24
   5   6   8   -0.64    0.41
   6  -6   8    0.09    0.47
  -6  -6  -8    0.09    0.23
   6  -6   8   -0.02    0.25
  -6   6  -8    0.29    0.29
   6   6   8    0.32    0.43
   6   6   8    0.02    0.51
  -7  -6  -8    3.25    0.47
   7  -6   8    2.68    0.48
   7  -6   8    2.45    0.51
   7   6   8    3.34    0.58
   7   6   8    2.81    0.57
  -7   6  -8    2.08    0.51
   8  -6   8    0.86    0.56
   8  -6   8    0.61    0.38
  -8  -6  -8    0.77    0.42
  -8   6  -8    0.59    0.32
   8   6   8    1.00    0.61
   8   6   8    1.37    0.52
   9  -6   8    2.22    0.52
  -9  -6  -8    1.42    0.48
  -9   6  -8    0.85    0.36
   9   6   8    2.05    0.58
   9   6   8    0.98    0.50
  10  -6   8    0.61    0.49
 -10  -6  -8    1.19    0.41
 -10   6  -8    0.55    0.37
  10   6   8    1.37    0.74
  10   6   8    0.04    0.51
 -11  -7   8    4.93    0.54
  11   7  -8    5.02    0.79
  11   7  -8    4.68    0.87
  10  -7  -8   12.82    0.93
 -10  -7   8   13.79    0.81
  10   7  -8   11.99    1.09
  10   7  -8   12.62    1.08
  -9  -7   8   10.15    0.67
   9  -7  -8    9.61    0.78
   9   7  -8    8.39    0.89
   9   7  -8    7.82    0.87
  -8  -7   8    5.74    0.53
   8  -7  -8    6.62    0.65
   8   7  -8    7.45    0.79
   8   7  -8    5.80    0.79
  -7  -7   8   23.70    1.04
  -7  -7   8   22.96    0.99
   7   7  -8   20.30    1.07
   7   7  -8   22.66    1.42
   7   7  -8   22.24    1.27
  -6  -7   8    0.11    0.20
  -6  -7   8    0.23    0.29
   6   7  -8    0.35    0.32
   6   7  -8    0.10    0.28
   6   7  -8   -0.01    0.40
  -5  -7   8    2.42    0.32
  -5  -7   8    2.86    0.38
   5   7  -8    2.77    0.42
   5   7  -8    2.75    0.51
   5   7  -8    2.82    0.46
  -4  -7   8    0.50    0.22
  -4  -7   8    0.45    0.29
  -4   7   8    0.24    0.07
  -4   7   8    0.16    0.05
   4   7  -8    0.02    0.26
   4   7  -8   -0.25    0.35
   4   7  -8    0.19    0.22
  -3  -7   8    3.98    0.38
  -3  -7   8    3.86    0.44
   3   7  -8    3.46    0.46
   3   7  -8    3.52    0.53
  -3   7   8    4.15    0.27
  -3   7   8    3.80    0.22
   2  -7  -8   22.79    0.83
  -2  -7   8   22.20    1.02
  -2  -7   8   24.41    1.02
  -2   7   8   22.00    0.83
   2   7  -8   26.57    1.22
   2   7  -8   21.41    1.20
  -2   7   8   23.82    0.90
  -2   7   8   22.55    0.84
  -1  -7   8    7.61    0.49
  -1  -7   8    9.45    0.62
   1  -7  -8    6.64    0.38
  -1   7   8    6.51    0.39
   1   7  -8    7.48    0.60
  -1   7   8    6.81    0.45
  -1   7   8    6.89    0.42
   0  -7   8    6.86    0.47
   0  -7  -8    6.68    0.39
   0  -7   8    7.43    0.52
   0   7  -8    7.14    0.53
   0   7   8    5.81    0.49
   0   7   8    5.57    0.48
   0   7   8    6.41    0.39
   1  -7   8   11.14    0.66
  -1  -7  -8    9.37    0.53
   1  -7   8   10.96    0.66
   1   7   8    9.15    0.64
  -1   7  -8   10.57    0.63
   1   7   8   10.39    0.65
   2  -7   8    0.59    0.39
   2  -7   8    0.09    0.31
  -2  -7  -8    0.17    0.23
   2   7   8    0.15    0.33
   2   7   8    0.16    0.33
  -2   7  -8    0.41    0.17
   3  -7   8    5.49    0.59
   3  -7   8    3.86    0.42
  -3  -7  -8    5.57    0.45
   3   7   8    4.43    0.53
   3   7   8    4.14    0.50
   4  -7   8    8.11    0.77
   4  -7   8    8.15    0.64
  -4  -7  -8    8.53    0.58
  -4   7  -8    8.02    0.70
   4   7   8    7.67    0.62
   4   7   8    8.29    0.79
  -5  -7  -8    2.24    0.39
   5  -7   8    2.27    0.45
   5  -7   8    2.15    0.42
   5   7   8    2.21    0.50
   5   7   8    2.15    0.56
  -5   7  -8    2.14    0.47
   6  -7   8    3.58    0.55
  -6  -7  -8    3.72    0.43
   6  -7   8    2.79    0.49
  -6   7  -8    2.37    0.50
   6   7   8    3.54    0.60
   6   7   8    3.70    0.69
   7  -7   8    0.82    0.32
  -7  -7  -8    1.45    0.41
   7  -7   8    0.56    0.40
   7   7   8    1.33    0.52
   7   7   8    0.69    0.46
  -7   7  -8   -0.11    0.42
   8  -7   8    5.97    0.78
  -8  -7  -8    6.04    0.65
   8   7   8    7.33    0.94
  -8   7  -8    4.99    0.65
   8   7   8    6.70    0.79
   9  -7   8   13.27    1.00
  -9  -7  -8   13.77    0.97
  -9   7  -8   11.60    0.86
   9   7   8   15.25    1.28
   9   7   8   15.05    1.14
 -10  -7  -8   -0.03    0.46
  10   7   8    0.77    0.56
  10   7   8    0.33    0.53
 -11  -8   8    0.91    0.40
  11   8  -8    0.60    0.50
  11   8  -8    1.57    0.62
 -10  -8   8    5.02    0.51
  10   8  -8    5.34    0.80
  10   8  -8    4.64    0.84
  -9  -8   8    0.90    0.35
   9  -8  -8    0.88    0.34
   9   8  -8    0.65    0.51
   9   8  -8    0.66    0.54
  -8  -8   8    0.26    0.32
   8  -8  -8   -0.01    0.27
   8   8  -8    0.46    0.47
   8   8  -8   -0.13    0.24
   8   8  -8    0.35    0.36
  -7  -8   8    3.73    0.44
  -7  -8   8    4.16    0.47
   7   8  -8    3.48    0.56
   7   8  -8    3.49    0.50
   7   8  -8    3.71    0.60
  -6  -8   8   -0.19    0.21
  -6  -8   8   -0.17    0.20
   6   8  -8    0.20    0.32
   6   8  -8   -0.08    0.32
   6   8  -8   -0.34    0.41
  -5  -8   8    0.80    0.33
  -5  -8   8    1.01    0.27
   5   8  -8    0.12    0.41
   5   8  -8    1.07    0.37
   5   8  -8    0.83    0.42
  -4  -8   8    1.32    0.29
  -4  -8   8    0.66    0.25
   4   8  -8    0.92    0.29
   4   8  -8    1.41    0.43
  -4   8   8    0.77    0.10
  -4   8   8    0.70    0.09
   4   8  -8    0.54    0.42
  -3  -8   8    0.02    0.31
  -3  -8   8    0.08    0.22
  -3   8   8    0.41    0.16
   3   8  -8    0.10    0.30
   3   8  -8    0.33    0.28
  -2  -8   8    0.52    0.23
  -2  -8   8    0.07    0.23
   2   8  -8   -0.21    0.32
  -2   8   8   -0.44    0.19
   2   8  -8    0.59    0.41
  -1  -8   8    1.20    0.34
  -1  -8   8    1.16    0.29
  -1   8   8    0.47    0.24
   1   8  -8    1.41    0.37
   1   8  -8    0.81    0.32
   0  -8  -8   16.13    0.70
   0  -8   8   16.26    0.79
   0  -8   8   17.24    0.86
   0   8   8   16.52    0.80
   0   8   8   15.61    0.80
   0   8  -8   16.09    0.90
   1  -8   8    0.96    0.27
  -1  -8  -8    0.54    0.20
   1  -8   8    1.41    0.33
  -1   8  -8    0.76    0.24
   1   8   8    0.70    0.24
   1   8   8    0.18    0.31
   2  -8   8    4.07    0.43
   2  -8   8    4.77    0.57
  -2  -8  -8    4.43    0.41
  -2   8  -8    4.56    0.38
   2   8   8    4.77    0.54
   2   8   8    4.43    0.47
  -3  -8  -8    9.27    0.55
   3  -8   8   11.27    0.82
   3  -8   8   10.82    0.64
   3   8   8   10.27    0.76
   3   8   8    9.81    0.71
   4  -8   8    2.88    0.45
  -4  -8  -8    2.66    0.38
   4  -8   8    3.57    0.56
   4   8   8    2.22    0.52
   4   8   8    2.70    0.43
   5  -8   8    0.41    0.35
  -5  -8  -8    0.79    0.32
   5  -8   8    1.12    0.39
   5   8   8    0.84    0.44
  -5   8  -8    0.78    0.44
   5   8   8    1.05    0.49
   6  -8   8    0.63    0.30
  -6  -8  -8    0.41    0.26
   6  -8   8    0.39    0.36
   6   8   8    0.28    0.40
   6   8   8    0.51    0.47
  -6   8  -8   -0.22    0.41
  -7  -8  -8    2.43    0.40
   7  -8   8    2.68    0.48
   7  -8   8    2.59    0.51
   7   8   8    2.10    0.67
   7   8   8    3.75    0.64
  -7   8  -8    1.77    0.42
   8  -8   8    0.92    0.58
  -8  -8  -8    0.83    0.45
   8   8   8    0.87    0.51
  -8   8  -8    0.07    0.42
   8   8   8    1.09    0.55
   9  -8   8    0.81    0.45
  -9  -8  -8    0.50    0.47
   9   8   8    0.12    0.54
   9   8   8    1.91    0.70
  -9   8  -8    0.42    0.44
 -10  -9   8    6.63    0.58
  10   9  -8    4.98    0.80
  10   9  -8    6.63    0.91
  -9  -9   8   -0.10    0.33
   9   9  -8    0.19    0.39
   9   9  -8    0.49    0.40
  -8  -9   8    6.92    0.66
   8  -9  -8    7.19    0.67
   8   9  -8    8.26    0.87
   8   9  -8    7.09    0.63
   8   9  -8    6.46    0.84
  -7  -9   8    0.78    0.37
  -7  -9   8    1.89    0.39
   7   9  -8    0.79    0.39
   7   9  -8    1.08    0.52
   7   9  -8    1.72    0.37
  -6  -9   8    0.78    0.28
  -6  -9   8    0.29    0.33
   6   9  -8    0.53    0.29
   6   9  -8    0.78    0.40
   6   9  -8   -0.09    0.41
  -5  -9   8    2.56    0.36
  -5  -9   8    2.45    0.42
   5   9  -8    2.68    0.55
   5   9  -8    2.87    0.59
   5   9  -8    3.07    0.44
  -4  -9   8   -0.16    0.22
  -4  -9   8    0.58    0.34
   4   9  -8    0.31    0.28
   4   9  -8    0.02    0.32
   4   9  -8    0.12    0.26
  -4   9   8    0.20    0.11
  -3  -9   8    8.65    0.64
  -3  -9   8    9.49    0.68
  -3   9   8    8.95    0.45
   3   9  -8    7.79    0.61
   3   9  -8    9.29    0.80
   3   9  -8    8.80    0.82
  -2  -9   8   37.64    1.49
  -2  -9   8   38.24    1.57
   2   9  -8   36.70    1.79
  -2   9   8   38.70    1.41
   2   9  -8   38.67    1.72
  -1  -9   8    5.19    0.46
  -1  -9   8    5.73    0.51
   1   9  -8    5.41    0.56
  -1   9   8    5.80    0.44
   1   9  -8    6.04    0.63
   0  -9   8    7.77    0.68
   0  -9   8    7.98    0.55
   0   9   8    8.97    0.57
   0   9  -8    8.10    0.63
   0   9  -8    7.45    0.67
   1  -9   8    0.84    0.32
  -1  -9  -8    0.85    0.23
   1  -9   8    0.31    0.25
   1   9   8    0.29    0.29
  -1   9  -8    0.58    0.24
   1   9   8    0.67    0.32
  -2  -9  -8   -0.32    0.20
   2  -9   8   -0.15    0.39
   2  -9   8   -0.25    0.22
   2   9   8    0.22    0.25
   2   9   8   -0.63    0.27
   3  -9   8   10.76    0.71
   3  -9   8   10.79    0.82
  -3  -9  -8    9.02    0.59
   3   9   8   10.62    0.77
   3   9   8    9.06    0.77
   4  -9   8    0.71    0.45
   4  -9   8    1.03    0.30
  -4  -9  -8    0.77    0.32
   4   9   8    0.53    0.32
   4   9   8    0.66    0.34
   5  -9   8   -0.17    0.44
  -5  -9  -8    0.23    0.23
   5  -9   8   -0.06    0.26
   5   9   8   -0.20    0.31
   5   9   8   -0.12    0.40
   6  -9   8    1.63    0.36
  -6  -9  -8    2.13    0.44
   6  -9   8    1.52    0.44
   6   9   8    2.00    0.55
   6   9   8    1.66    0.57
  -7  -9  -8    3.65    0.48
   7  -9   8    4.42    0.62
   7   9   8    3.91    0.69
  -7   9  -8    2.77    0.49
   7   9   8    3.02    0.73
  -8  -9  -8    0.05    0.30
   8  -9   8    0.71    0.56
   8   9   8    0.74    0.62
   8   9   8    0.57    0.55
  -8   9  -8    0.53    0.46
  -9  -9  -8   -0.27    0.32
   9   9   8    1.19    0.59
   9   9   8    0.62    0.53
 -10 -10   8    1.37    0.37
  10  10  -8    0.70    0.62
  10  10  -8    1.70    0.74
  -9 -10   8    1.24    0.42
   9  10  -8    0.31    0.58
   9  10  -8    1.27    0.61
  -8 -10   8   -0.06    0.37
   8  10  -8    0.51    0.42
   8  10  -8    0.38    0.51
   8  10  -8    0.56    0.32
  -7 -10   8    4.28    0.47
  -7 -10   8    3.27    0.50
   7  10  -8    3.51    0.50
   7  10  -8    3.42    0.70
   7  10  -8    3.76    0.62
  -6 -10   8   -0.44    0.34
  -6 -10   8   -0.31    0.33
   6  10  -8   -0.30    0.35
   6  10  -8    0.21    0.39
   6  10  -8    0.54    0.47
  -5 -10   8    2.80    0.46
  -5 -10   8    2.93    0.41
   5  10  -8    2.50    0.55
   5  10  -8    2.78    0.51
   5  10  -8    2.28    0.60
  -4 -10   8    0.22    0.25
  -4 -10   8    0.24    0.26
   4  10  -8    0.23    0.39
  -4  10   8    0.48    0.13
   4  10  -8   -0.02    0.36
   4  10  -8    0.29    0.35
  -3 -10   8    0.02    0.24
  -3 -10   8    0.28    0.33
   3  10  -8    0.39    0.34
   3  10  -8    0.47    0.37
   3  10  -8    0.17    0.27
  -3  10   8    0.14    0.18
  -2 -10   8   18.72    0.93
  -2 -10   8   21.07    1.06
  -2  10   8   19.94    0.86
   2  10  -8   19.74    1.16
   2  10  -8   20.88    1.15
  -1 -10   8   -0.08    0.36
  -1 -10   8   -0.09    0.23
  -1  10   8    0.02    0.25
   1  10  -8   -0.89    0.38
   1  10  -8   -0.04    0.24
   0 -10   8    6.29    0.56
   0 -10   8    6.18    0.50
   0  10  -8    6.20    0.54
   0  10   8    5.88    0.51
   0  10  -8    5.01    0.61
   1 -10   8    3.49    0.53
   1 -10   8    3.55    0.41
  -1  10  -8    3.25    0.38
   1  10   8    3.59    0.46
  -1  10  -8    3.47    0.53
   2 -10   8    6.00    0.65
   2 -10   8    5.31    0.49
   2  10   8    5.47    0.52
  -3 -10  -8    3.69    0.42
   3 -10   8    4.20    0.60
   3 -10   8    4.09    0.51
   3  10   8    4.32    0.58
   3  10   8    4.64    0.60
   4 -10   8    4.71    0.53
  -4 -10  -8    4.83    0.49
   4 -10   8    3.98    0.61
   4  10   8    3.91    0.52
   4  10   8    3.74    0.61
   5 -10   8    0.66    0.30
  -5 -10  -8    0.41    0.26
   5 -10   8    0.44    0.48
   5  10   8    1.07    0.52
   5  10   8    0.60    0.36
  -6 -10  -8   -0.37    0.33
   6 -10   8    0.03    0.34
   6  10   8    0.49    0.52
   6  10   8    0.02    0.34
  -7 -10  -8   -0.06    0.40
   7 -10   8    0.12    0.49
   7  10   8    0.37    0.57
   7  10   8    0.05    0.37
  -8 -10  -8    0.19    0.45
   8 -10   8    1.03    0.57
   8  10   8    1.55    0.53
   8  10   8    1.06    0.46
  -9 -11   8    3.45    0.57
   9  11  -8    3.35    0.69
   9  11  -8    3.37    0.71
  -8 -11   8    2.12    0.41
   8  11  -8    1.22    0.63
   8  11  -8    1.92    0.66
  -7 -11   8    4.59    0.58
  -7 -11   8    4.68    0.58
   7  11  -8    3.02    0.67
   7  11  -8    3.77    0.74
   7  11  -8    4.83    0.66
  -6 -11   8   -0.60    0.37
  -6 -11   8   -0.19    0.27
   6  11  -8    0.39    0.46
   6  11  -8    0.11    0.30
   6  11  -8    0.32    0.39
  -5 -11   8    1.41    0.42
  -5 -11   8    1.33    0.44
   5  11  -8    1.38    0.45
   5  11  -8    1.94    0.62
   5  11  -8    1.26    0.39
  -4 -11   8    1.27    0.32
  -4 -11   8    1.54    0.35
   4  11  -8    1.67    0.57
  -4  11   8    1.42    0.19
   4  11  -8    1.48    0.48
   4  11  -8    1.43    0.47
  -3 -11   8    1.41    0.33
  -3 -11   8    1.67    0.37
   3  11  -8    1.03    0.53
   3  11  -8    1.74    0.38
  -3  11   8    1.73    0.25
   3  11  -8    1.83    0.42
  -2 -11   8   -0.22    0.35
  -2 -11   8   -0.20    0.33
   2  11  -8    0.38    0.35
   2  11  -8    0.28    0.45
  -2  11   8    0.04    0.23
  -1 -11   8    0.90    0.38
  -1 -11   8    0.22    0.30
   1  11  -8    0.19    0.47
   1  11  -8    0.66    0.31
  -1  11   8    0.55    0.29
   0 -11   8   -0.52    0.31
   0 -11   8   -0.19    0.39
   0  11  -8   -0.69    0.41
   0  11  -8   -0.63    0.23
   0  11   8    0.06    0.27
   1 -11   8   -0.42    0.32
   1 -11   8   -0.28    0.28
   1  11   8   -0.08    0.29
  -1  11  -8    0.01    0.32
   2 -11   8    0.31    0.26
   2 -11   8    0.08    0.31
   2  11   8    0.01    0.34
  -2  11  -8    0.05    0.44
   3 -11   8   -0.34    0.33
   3 -11   8   -0.66    0.40
   3  11   8   -0.02    0.38
  -3  11  -8   -0.30    0.43
   4 -11   8    0.08    0.46
   4 -11   8   -0.12    0.35
   4  11   8    0.00    0.41
  -5 -11  -8   -0.29    0.34
   5 -11   8   -0.29    0.46
   5 -11   8    0.50    0.40
   5  11   8    0.02    0.43
   6 -11   8    0.07    0.47
  -6 -11  -8   -0.82    0.33
   6  11   8   -0.46    0.45
   7 -11   8   -0.42    0.50
  -7 -11  -8   -0.04    0.30
   7  11   8    0.11    0.52
  -8 -11  -8   -0.29    0.31
  -8 -12   8    0.72    0.44
   8  12  -8   -0.38    0.40
   8  12  -8    0.11    0.43
  -7 -12   8    3.02    0.54
  -7 -12   8    3.21    0.47
   7  12  -8    2.84    0.51
   7  12  -8    2.65    0.72
   7  12  -8    2.74    0.62
  -6 -12   8    0.82    0.35
  -6 -12   8    0.91    0.36
   6  12  -8    0.82    0.49
   6  12  -8    1.56    0.52
   6  12  -8    0.74    0.52
  -5 -12   8    1.65    0.46
  -5 -12   8    0.89    0.44
   5  12  -8    1.21    0.43
   5  12  -8    1.58    0.41
   5  12  -8    0.75    0.56
  -4 -12   8   -0.49    0.37
  -4 -12   8   -0.38    0.34
  -4  12   8   -0.05    0.15
   4  12  -8   -0.18    0.49
   4  12  -8   -0.14    0.40
   4  12  -8   -0.20    0.39
  -3 -12   8    0.14    0.29
  -3 -12   8   -0.13    0.25
   3  12  -8   -0.57    0.37
  -3  12   8    0.15    0.21
   3  12  -8    0.23    0.32
   3  12  -8    0.44    0.50
  -2 -12   8    0.16    0.27
  -2 -12   8   -0.28    0.40
   2  12  -8    0.29    0.36
  -2  12   8    0.25    0.26
   2  12  -8    0.32    0.31
   2  12  -8   -0.17    0.34
  -1 -12   8    0.96    0.36
  -1 -12   8    0.89    0.31
  -1  12   8    1.20    0.31
   1  12  -8    1.44    0.45
   1  12  -8    0.47    0.34
   0 -12   8   -0.13    0.30
   0 -12   8   -0.03    0.26
   0  12   8   -0.43    0.26
   0  12  -8   -0.96    0.43
   1 -12   8    0.57    0.37
   1 -12   8    0.26    0.33
   1  12   8   -0.43    0.30
  -1  12  -8   -0.18    0.34
   2 -12   8   -0.26    0.30
   2 -12   8   -0.13    0.24
   2  12   8   -0.68    0.33
  -2  12  -8    0.45    0.47
   3 -12   8    3.20    0.49
   3 -12   8    2.17    0.47
   3  12   8    2.40    0.52
  -3  12  -8    2.21    0.58
   4 -12   8   -0.47    0.35
   4 -12   8   -0.12    0.47
   4  12   8    0.28    0.32
   5 -12   8   -0.20    0.50
   5  12   8    0.33    0.35
   6 -12   8   -0.31    0.49
   6  12   8    0.39    0.38
   8  13  -8    0.04    0.62
  -7 -13   8    2.96    0.51
  -7 -13   8    3.16    0.50
   7  13  -8    4.09    0.69
   7  13  -8    2.94    0.66
   7  13  -8    3.22    0.78
  -6 -13   8    0.08    0.43
  -6 -13   8    1.17    0.48
   6  13  -8    0.23    0.41
   6  13  -8    0.17    0.52
   6  13  -8    0.55    0.38
  -5 -13   8    0.33    0.42
  -5 -13   8    0.89    0.37
   5  13  -8    1.20    0.48
   5  13  -8    0.04    0.49
   5  13  -8    1.01    0.40
  -4 -13   8   -0.39    0.39
  -4 -13   8   -0.22    0.37
   4  13  -8   -0.78    0.41
   4  13  -8   -0.10    0.44
   4  13  -8    0.20    0.39
  -3 -13   8    4.36    0.54
  -3 -13   8    5.18    0.58
   3  13  -8    4.30    0.66
   3  13  -8    3.36    0.63
  -3  13   8    4.67    0.41
   3  13  -8    4.71    0.67
  -2 -13   8    0.23    0.37
  -2 -13   8    0.44    0.44
   2  13  -8    0.24    0.51
  -2  13   8   -0.14    0.23
   2  13  -8   -0.63    0.33
   2  13  -8   -0.22    0.28
  -1 -13   8   -0.01    0.43
  -1 -13   8    1.00    0.41
  -1  13   8    0.26    0.30
   1  13  -8    0.01    0.31
   1  13  -8    0.32    0.38
   0 -13   8   -0.67    0.41
   0 -13   8    0.01    0.27
   0  13  -8   -0.10    0.47
   0  13   8    0.16    0.30
   1 -13   8    0.10    0.45
   1 -13   8   -0.41    0.24
  -1  13  -8   -0.05    0.35
   1  13   8   -0.47    0.33
   2 -13   8   -0.41    0.45
   2 -13   8    0.21    0.38
   2  13   8    0.51    0.40
  -2  13  -8    0.13    0.47
   3 -13   8   -0.03    0.35
   3 -13   8    0.24    0.39
   3  13   8    0.44    0.33
   4 -13   8   -0.14    0.50
   4  13   8    0.63    0.47
   5 -13   8   -0.41    0.48
   5  13   8    0.54    0.51
  -7 -14   8   -0.52    0.46
   7  14  -8   -0.42    0.59
   7  14  -8    0.78    0.41
  -6 -14   8    0.37    0.37
  -6 -14   8    0.68    0.48
   6  14  -8    0.16    0.54
   6  14  -8    0.26    0.59
   6  14  -8    0.48    0.38
  -5 -14   8    5.14    0.64
  -5 -14   8    5.28    0.69
   5  14  -8    3.47    0.73
   5  14  -8    3.28    0.67
   5  14  -8    4.53    0.71
  -4 -14   8    0.39    0.43
  -4 -14   8    1.11    0.49
   4  14  -8    0.55    0.41
   4  14  -8    1.05    0.52
   4  14  -8   -0.71    0.44
  -3 -14   8    0.63    0.36
  -3 -14   8    0.78    0.45
   3  14  -8    0.06    0.47
   3  14  -8    0.15    0.46
   3  14  -8    1.52    0.61
  -3  14   8    0.30    0.24
  -2 -14   8   -0.07    0.32
  -2 -14   8    0.73    0.43
  -2  14   8    0.34    0.27
   2  14  -8    0.46    0.49
   2  14  -8    0.40    0.43
  -1 -14   8    0.76    0.34
  -1 -14   8    1.04    0.50
   1  14  -8    0.56    0.56
   1  14  -8    0.24    0.49
  -1  14   8    1.22    0.36
   0 -14   8    0.29    0.47
   0 -14   8   -0.15    0.38
   0  14  -8    0.12    0.37
   0  14   8    0.11    0.31
   1 -14   8    1.40    0.44
   1 -14   8    2.04    0.39
  -1  14  -8    0.58    0.53
   1  14   8    1.54    0.43
   2 -14   8    0.03    0.37
   2 -14   8   -0.60    0.36
   2  14   8   -0.06    0.40
   3 -14   8    2.09    0.61
   3  14   8    2.66    0.56
   4 -14   8    1.16    0.58
   4  14   8    0.91    0.52
  -5 -15   8    1.05    0.54
  -5 -15   8    0.76    0.48
   5  15  -8    0.89    0.51
   5  15  -8    1.27    0.57
   5  15  -8   -0.48    0.56
  -4 -15   8    0.99    0.55
  -4 -15   8    1.24    0.49
   4  15  -8    1.96    0.70
   4  15  -8    0.53    0.58
   4  15  -8    1.47    0.56
  -3 -15   8    0.89    0.41
  -3 -15   8    1.46    0.48
   3  15  -8    0.92    0.48
   3  15  -8    1.11    0.56
  -2 -15   8    2.83    0.47
  -2 -15   8    2.96    0.54
  -2  15   8    3.64    0.43
   2  15  -8    3.57    0.68
   2  15  -8    3.69    0.73
  -1 -15   8    0.54    0.45
  -1 -15   8    0.44    0.40
   1  15  -8   -0.15    0.37
  -1  15   8    0.42    0.32
   1  15  -8    0.84    0.42
   0 -15   8    0.38    0.32
   0 -15   8    0.13    0.37
   0  15  -8   -0.61    0.45
   0  15   8    0.48    0.35
   0  15  -8    0.57    0.40
   1 -15   8    0.29    0.52
   1 -15   8    0.02    0.42
   1  15   8    0.13    0.35
   2 -15   8    0.38    0.54
   2  15   8    0.12    0.39
  -3 -16   8   -0.29    0.31
   3  16  -8    0.87    0.63
  -2 -16   8    0.98    0.49
  -2  16   8    1.56    0.36
   2  16  -8    0.84    0.64
  -1 -16   8    0.74    0.36
  -1  16   8    0.73    0.37
   0  16   8    0.34    0.36
  13   0  -9    0.68    0.49
  12   0  -9    0.03    0.42
  12   0  -9    0.81    0.33
  11   0  -9    1.59    0.36
  11   0  -9    1.42    0.45
 -11   0   9    1.82    0.24
 -10   0   9   -0.30    0.15
  10   0  -9   -0.23    0.37
  10   0  -9   -0.25    0.26
   9   0  -9    2.70    0.38
  -9   0   9    2.48    0.25
   9   0  -9    2.84    0.48
   8   0  -9   -0.37    0.20
   8   0  -9   -0.02    0.33
  -8   0   9   -0.24    0.14
   7   0  -9   17.93    0.84
   7   0  -9   16.88    1.04
  -7   0   9   17.77    0.69
   6   0  -9   -0.03    0.19
  -6   0   9   -0.15    0.13
   6   0  -9   -0.83    0.24
   5   0  -9    0.53    0.24
  -5   0   9    0.54    0.16
  -5   0   9    0.88    0.12
   5   0  -9    0.58    0.16
  -5   0   9    0.84    0.15
   5   0  -9    0.99    0.23
   5   0  -9    0.73    0.19
  -4   0   9   -0.05    0.11
  -4   0   9   -0.43    0.11
   4   0  -9   -0.34    0.12
  -4   0   9    0.01    0.11
   3   0  -9    3.74    0.29
  -3   0   9    3.50    0.26
  -3   0   9    3.85    0.28
  -3   0   9    3.68    0.27
  -2   0   9   -0.29    0.12
  -2   0   9   -0.13    0.15
  -2   0   9   -0.17    0.11
   2   0  -9    0.05    0.14
   1   0  -9    9.08    0.52
  -1   0   9    9.01    0.49
  -1   0   9    9.59    0.44
  -1   0   9    8.96    0.48
   1   0  -9    8.34    0.47
   0   0   9   -0.08    0.22
   0   0  -9   -0.18    0.17
   0   0   9   -0.01    0.21
   1   0   9   21.04    0.89
  -1   0  -9   20.88    0.89
   1   0   9   20.78    0.94
  -2   0  -9   -0.28    0.21
   2   0   9   -0.18    0.21
   2   0   9   -0.45    0.26
  -3   0  -9    6.18    0.50
   3   0   9    7.06    0.56
   3   0   9    7.21    0.51
  -4   0  -9    0.37    0.28
   4   0   9    0.03    0.24
   4   0   9    0.15    0.40
  -5   0  -9    0.63    0.26
   5   0   9    0.41    0.38
   5   0   9    1.21    0.48
  -6   0  -9   -0.03    0.33
   6   0   9    0.00    0.34
   6   0   9    0.04    0.39
  -7   0  -9    0.49    0.30
   7   0   9    0.91    0.56
   7   0   9    0.30    0.42
   8   0   9    0.26    0.54
  -8   0  -9    0.43    0.40
   8   0   9    0.36    0.34
   9   0   9    0.08    0.45
   9   0   9   -0.26    0.53
  -9   0  -9   -0.12    0.40
  10   0   9    0.46    0.48
  10   0   9    0.46    0.38
 -10   0  -9    0.27    0.34
  13  -1  -9    4.82    0.76
  13   1  -9    5.26    0.63
  13   1  -9    5.19    0.80
 -12  -1   9    0.77    0.24
  12  -1  -9    0.60    0.47
  12   1  -9    1.48    0.39
  12   1  -9    0.78    0.48
  11  -1  -9    2.89    0.55
 -11  -1   9    3.99    0.35
  11  -1  -9    3.32    0.40
  11   1  -9    3.73    0.61
  11   1  -9    3.56    0.49
  10  -1  -9    0.75    0.43
 -10  -1   9    0.86    0.22
  10  -1  -9    1.09    0.29
  10   1  -9    0.94    0.38
 -10   1   9    0.87    0.17
  10   1  -9    0.82    0.35
   9  -1  -9    9.95    0.62
  -9  -1   9   11.05    0.54
   9  -1  -9   12.49    0.89
   9   1  -9   11.39    0.97
   9   1  -9   10.72    0.72
  -9   1   9   11.46    0.47
   8  -1  -9    0.60    0.29
   8  -1  -9    0.84    0.23
  -8  -1   9    0.45    0.19
   8   1  -9    0.18    0.26
   8   1  -9    0.61    0.38
  -8   1   9    0.43    0.13
   7  -1  -9    0.09    0.30
   7  -1  -9   -0.01    0.18
  -7  -1   9    0.28    0.17
  -7   1   9   -0.01    0.11
   7   1  -9    0.17    0.21
   7   1  -9    0.25    0.26
  -6  -1   9    1.14    0.18
   6  -1  -9    0.72    0.28
   6  -1  -9    1.06    0.23
  -6   1   9    0.89    0.15
   6   1  -9    0.95    0.19
   6   1  -9    0.91    0.36
   6   1  -9    0.97    0.25
   5  -1  -9    6.56    0.55
   5  -1  -9    5.68    0.31
  -5  -1   9    6.43    0.33
  -5  -1   9    6.78    0.38
  -5  -1   9    5.66    0.37
   5  -1  -9    5.20    0.35
   5   1  -9    6.08    0.37
   5   1  -9    5.75    0.39
   5   1  -9    6.32    0.49
  -5   1   9    6.06    0.31
  -5   1   9    5.73    0.31
   5   1  -9    6.00    0.54
  -5   1   9    6.28    0.23
  -4  -1   9    1.49    0.22
   4  -1  -9    1.62    0.22
  -4  -1   9    2.03    0.22
  -4  -1   9    1.84    0.20
  -4   1   9    1.91    0.19
   4   1  -9    1.85    0.24
  -4   1   9    1.72    0.19
   4   1  -9    1.13    0.33
  -4   1   9    1.53    0.15
  -3  -1   9    0.79    0.17
  -3  -1   9    0.61    0.17
   3  -1  -9    1.06    0.19
  -3  -1   9    0.59    0.16
  -3   1   9    1.09    0.15
  -3   1   9    0.63    0.16
  -3   1   9    0.89    0.14
   3   1  -9    1.14    0.21
   2  -1  -9   16.21    0.73
  -2  -1   9   16.26    0.70
   2  -1  -9   16.09    0.68
  -2  -1   9   16.61    0.69
  -2  -1   9   16.53    0.72
  -2   1   9   17.69    0.68
   2   1  -9   16.10    0.75
  -2   1   9   17.42    0.67
  -2   1   9   16.69    0.69
  -1  -1   9    7.98    0.47
   1  -1  -9    8.03    0.47
   1  -1  -9    7.46    0.42
  -1  -1   9    7.82    0.42
   1   1  -9    7.62    0.42
  -1   1   9    7.77    0.44
  -1   1   9    7.39    0.43
  -1   1   9    7.08    0.39
   0  -1  -9   16.09    0.70
   0  -1   9   17.37    0.77
   0  -1   9   16.53    0.80
   0   1  -9   16.16    0.73
   0   1   9   17.05    0.72
   0   1   9   17.16    0.78
   1  -1   9   17.68    0.84
  -1  -1  -9   16.91    0.75
   1  -1   9   18.40    0.80
   1   1   9   17.65    0.87
   1   1   9   17.82    0.82
  -1   1  -9   17.67    0.78
   2  -1   9    6.90    0.48
  -2  -1  -9    6.45    0.43
   2  -1   9    7.27    0.61
   2   1   9    7.75    0.54
  -2   1  -9    7.41    0.51
   2   1   9    7.32    0.54
   3  -1   9   22.39    1.07
  -3  -1  -9   21.96    0.96
   3  -1   9   22.41    1.03
  -3   1  -9   21.31    0.95
   3   1   9   21.39    1.06
   3   1   9   22.19    1.03
   4  -1   9    0.92    0.37
  -4  -1  -9    0.81    0.30
   4  -1   9    0.63    0.43
  -4   1  -9    1.40    0.34
   4   1   9    0.85    0.30
   4   1   9    1.20    0.37
   5  -1   9    0.33    0.46
  -5  -1  -9    0.78    0.26
   5  -1   9    0.39    0.28
   5   1   9    0.65    0.35
   5   1   9    0.57    0.38
  -5   1  -9    0.50    0.25
   6  -1   9    0.23    0.35
   6  -1   9   -0.16    0.36
  -6  -1  -9    0.38    0.34
  -6   1  -9   -0.02    0.33
   6   1   9    0.01    0.39
   6   1   9    0.52    0.50
   7  -1   9    0.40    0.41
   7  -1   9    0.13    0.51
  -7  -1  -9   -0.18    0.35
   7   1   9    0.25    0.45
  -7   1  -9    0.77    0.30
   7   1   9    0.65    0.43
   8  -1   9    1.22    0.50
  -8  -1  -9    1.05    0.43
   8  -1   9    0.95    0.46
   8   1   9    1.17    0.50
   8   1   9    1.57    0.42
  -8   1  -9    1.38    0.37
  -9  -1  -9   -0.11    0.30
   9  -1   9   -0.16    0.32
   9  -1   9   -0.04    0.54
   9   1   9   -0.94    0.42
   9   1   9    0.96    0.62
  -9   1  -9    0.44    0.43
 -10  -1  -9    0.14    0.46
  10  -1   9    0.81    0.68
  10  -1   9    0.04    0.47
 -10   1  -9    0.99    0.50
  10   1   9    0.00    0.49
  10   1   9    2.18    0.74
  13  -2  -9    0.44    0.42
  13   2  -9    1.05    0.43
  12  -2  -9    0.58    0.45
 -12  -2   9    0.07    0.24
  12   2  -9    0.10    0.47
  12   2  -9    0.65    0.35
  11  -2  -9   -0.29    0.37
 -11  -2   9   -0.26    0.22
  11   2  -9    0.33    0.36
  11   2  -9    0.66    0.47
  10  -2  -9    0.65    0.40
  10  -2  -9    0.82    0.23
 -10  -2   9    0.30    0.23
  10   2  -9   -0.13    0.34
  10   2  -9    0.82    0.39
   9  -2  -9    0.29    0.20
  -9  -2   9    0.18    0.22
   9  -2  -9    0.41    0.36
   9   2  -9    0.59    0.31
   9   2  -9    0.19    0.31
   8  -2  -9    4.63    0.37
  -8  -2   9    4.42    0.35
   8  -2  -9    4.30    0.57
  -8   2   9    5.12    0.23
   8   2  -9    4.62    0.58
   8   2  -9    4.78    0.52
   7  -2  -9    1.30    0.33
   7  -2  -9    1.00    0.20
  -7  -2   9    0.76    0.21
   7   2  -9    0.93    0.30
  -7   2   9    1.60    0.13
   7   2  -9    1.25    0.35
   6  -2  -9   -0.26    0.15
  -6  -2   9   -0.24    0.18
   6  -2  -9    0.02    0.21
  -6  -2   9   -0.23    0.14
   6   2  -9   -0.21    0.17
  -6   2   9    0.07    0.10
   6   2  -9    0.10    0.32
  -6   2   9    0.03    0.09
   6   2  -9   -0.04    0.23
   5  -2  -9    6.91    0.38
  -5  -2   9    7.53    0.40
   5  -2  -9    7.79    0.32
  -5  -2   9    8.01    0.44
  -5  -2   9    7.54    0.43
   5   2  -9    7.08    0.53
   5   2  -9    7.67    0.47
  -5   2   9    7.42    0.33
  -5   2   9    7.59    0.33
   5   2  -9    7.51    0.68
   5   2  -9    7.43    0.47
  -4  -2   9    6.45    0.38
  -4  -2   9    5.23    0.36
  -4  -2   9    5.50    0.36
   4  -2  -9    5.49    0.33
  -4   2   9    5.58    0.20
   4   2  -9    4.91    0.38
  -4   2   9    5.43    0.29
  -4   2   9    4.40    0.26
   4   2  -9    5.58    0.51
  -3  -2   9    1.43    0.22
   3  -2  -9    1.42    0.20
  -3  -2   9    0.92    0.18
  -3  -2   9    1.32    0.22
   3   2  -9    1.27    0.27
   3   2  -9    0.95    0.30
  -3   2   9    1.09    0.17
  -3   2   9    1.24    0.13
  -3   2   9    1.42    0.16
   2  -2  -9   23.04    0.87
  -2  -2   9   22.72    0.91
  -2  -2   9   22.62    0.93
   2  -2  -9   22.00    0.94
  -2   2   9   23.78    0.87
  -2   2   9   22.35    0.85
  -2   2   9   22.61    0.87
   1  -2  -9  101.32    3.57
  -1  -2   9  110.81    3.81
   1  -2  -9  100.74    3.81
  -1  -2   9  110.81    3.63
  -1   2   9  112.78    3.60
  -1   2   9  110.61    3.77
  -1   2   9  112.04    3.57
   0  -2  -9   12.42    0.59
   0  -2   9   12.96    0.70
   0  -2   9   12.67    0.62
   0   2   9   13.19    0.65
   0   2   9   12.94    0.60
   0   2  -9   12.54    0.65
   0   2   9   13.14    0.56
   1  -2   9   35.62    1.38
   1  -2   9   36.99    1.48
  -1  -2  -9   35.68    1.33
   1   2   9   35.21    1.45
   1   2   9   36.53    1.38
  -1   2  -9   33.54    1.36
   2  -2   9    7.07    0.56
   2  -2   9    7.51    0.62
  -2  -2  -9    7.27    0.48
   2   2   9    6.56    0.52
   2   2   9    6.35    0.54
  -2   2  -9    7.40    0.47
   3  -2   9   -0.20    0.35
   3  -2   9    0.05    0.23
  -3  -2  -9    0.27    0.24
  -3   2  -9    0.10    0.21
   3   2   9   -0.60    0.31
   3   2   9   -0.42    0.30
   4  -2   9    0.97    0.44
   4  -2   9    0.92    0.29
  -4  -2  -9    1.59    0.32
  -4   2  -9    0.89    0.27
   4   2   9    0.80    0.30
   4   2   9    1.01    0.35
   5  -2   9    2.89    0.40
  -5  -2  -9    2.24    0.34
   5  -2   9    2.94    0.57
   5   2   9    2.77    0.47
  -5   2  -9    2.09    0.35
   5   2   9    2.61    0.49
  -6  -2  -9    0.27    0.26
   6  -2   9    0.83    0.42
   6  -2   9    0.58    0.49
  -6   2  -9   -0.13    0.33
   6   2   9    0.53    0.43
   6   2   9    0.39    0.38
   7  -2   9    2.81    0.51
   7  -2   9    2.49    0.51
  -7  -2  -9    2.19    0.39
   7   2   9    2.43    0.46
   7   2   9    3.54    0.71
  -7   2  -9    2.52    0.40
  -8  -2  -9    1.79    0.39
   8  -2   9    2.44    0.55
   8  -2   9    2.03    0.51
   8   2   9    2.19    0.56
   8   2   9    2.37    0.68
  -8   2  -9    2.59    0.43
   9  -2   9    0.56    0.34
  -9  -2  -9    0.30    0.43
   9  -2   9    0.33    0.45
   9   2   9    0.33    0.37
  -9   2  -9   -0.04    0.31
   9   2   9    0.45    0.48
 -10  -2  -9   -0.16    0.32
  10  -2   9    0.30    0.49
  10   2   9    1.10    0.56
 -10   2  -9    0.94    0.48
  10   2   9    0.54    0.70
 -12  -3   9    7.75    0.56
  12  -3  -9    5.34    0.77
  12   3  -9    7.21    0.76
  12   3  -9    6.73    0.91
  11  -3  -9    0.20    0.29
 -11  -3   9    0.12    0.23
  11   3  -9    0.23    0.36
  11   3  -9    0.45    0.51
  10  -3  -9    3.37    0.56
 -10  -3   9    3.49    0.37
  10   3  -9    3.32    0.51
  10   3  -9    3.27    0.67
   9  -3  -9    0.60    0.36
  -9  -3   9    0.46    0.23
   9   3  -9    0.25    0.43
   9   3  -9    0.57    0.35
   8  -3  -9    0.34    0.13
  -8  -3   9   -0.16    0.19
   8  -3  -9    0.43    0.34
   8   3  -9    0.57    0.42
   8   3  -9   -0.28    0.27
   7  -3  -9    2.06    0.44
  -7  -3   9    1.73    0.27
   7  -3  -9    1.97    0.20
   7   3  -9    1.83    0.47
   7   3  -9    2.63    0.41
   6  -3  -9   24.92    0.93
  -6  -3   9   24.75    0.97
  -6  -3   9   23.84    0.96
   6   3  -9   23.94    1.35
  -6   3   9   25.22    0.79
   6   3  -9   25.01    1.14
  -6   3   9   22.87    0.79
   6   3  -9   22.89    0.99
  -5  -3   9    5.32    0.39
   5  -3  -9    6.65    0.33
  -5  -3   9    5.69    0.41
  -5  -3   9    7.33    0.44
   5   3  -9    6.44    0.55
  -5   3   9    6.49    0.27
  -5   3   9    6.73    0.27
   5   3  -9    4.76    0.59
   5   3  -9    6.06    0.44
   4  -3  -9   31.24    1.17
  -4  -3   9   31.48    1.19
  -4  -3   9   31.49    1.22
   4   3  -9   31.06    1.51
  -4   3   9   28.96    1.06
   4   3  -9   33.39    1.34
  -4   3   9   32.33    1.08
  -3  -3   9    4.44    0.36
   3  -3  -9    4.69    0.32
  -3  -3   9    4.02    0.36
  -3   3   9    4.55    0.21
  -3   3   9    4.63    0.26
  -3   3   9    4.79    0.28
   3   3  -9    4.31    0.48
   2  -3  -9    0.00    0.13
  -2  -3   9   -0.20    0.21
  -2  -3   9    0.28    0.22
   2  -3  -9    0.76    0.19
  -2   3   9    0.43    0.13
   2   3  -9    0.35    0.20
  -2   3   9    0.40    0.15
  -2   3   9    0.38    0.12
  -1  -3   9   40.88    1.50
  -1  -3   9   42.10    1.59
   1  -3  -9   41.32    1.44
   1  -3  -9   37.68    1.57
   1   3  -9   40.70    1.75
  -1   3   9   40.99    1.52
  -1   3   9   42.19    1.47
  -1   3   9   41.08    1.43
   0  -3  -9    2.36    0.33
   0  -3   9    1.85    0.32
   0  -3   9    1.48    0.33
   0  -3  -9    1.98    0.24
   0   3   9    1.87    0.22
   0   3  -9    1.84    0.27
   0   3   9    1.59    0.27
   0   3   9    2.15    0.31
   1  -3   9   22.42    0.96
   1  -3   9   23.28    1.07
  -1  -3  -9   21.88    0.91
   1   3   9   23.44    0.98
   1   3   9   22.45    1.03
  -1   3  -9   22.30    0.96
  -2  -3  -9    1.66    0.29
   2  -3   9    1.96    0.42
   2  -3   9    2.01    0.31
   2   3   9    2.03    0.34
   2   3   9    1.91    0.32
  -2   3  -9    1.67    0.35
  -3  -3  -9   11.42    0.65
   3  -3   9   12.98    0.83
   3  -3   9   12.30    0.74
   3   3   9   11.64    0.82
  -3   3  -9   12.69    0.73
   3   3   9   12.92    0.71
   4  -3   9   17.59    0.95
   4  -3   9   16.68    0.84
  -4  -3  -9   16.62    0.82
   4   3   9   16.93    1.02
   4   3   9   16.29    0.87
  -4   3  -9   15.23    0.82
   5  -3   9    3.61    0.60
   5  -3   9    2.60    0.46
  -5  -3  -9    2.33    0.34
   5   3   9    3.79    0.62
   5   3   9    3.60    0.53
  -5   3  -9    3.24    0.41
   6  -3   9    0.76    0.31
   6  -3   9    1.41    0.52
  -6  -3  -9    0.71    0.27
   6   3   9    0.66    0.34
  -6   3  -9    0.56    0.37
   6   3   9    0.63    0.52
   7  -3   9    1.48    0.44
   7  -3   9    1.50    0.45
  -7  -3  -9    0.38    0.39
   7   3   9    0.75    0.49
  -7   3  -9    1.28    0.35
   7   3   9    1.13    0.58
   8  -3   9    0.23    0.42
  -8  -3  -9    1.09    0.43
   8  -3   9    1.04    0.59
   8   3   9   -0.07    0.35
  -8   3  -9    0.87    0.44
   8   3   9    0.58    0.60
   9  -3   9    0.15    0.43
  -9  -3  -9    0.36    0.32
   9  -3   9   -0.12    0.54
  -9   3  -9    0.23    0.45
   9   3   9   -0.43    0.48
   9   3   9    0.23    0.59
  10  -3   9    1.14    0.69
 -10  -3  -9    0.46    0.35
 -10   3  -9    0.55    0.36
  10   3   9    0.72    0.66
  10   3   9    0.02    0.52
 -12  -4   9    1.81    0.34
  12  -4  -9    1.58    0.47
  12   4  -9    1.52    0.62
  12   4  -9    2.08    0.55
 -11  -4   9    0.26    0.29
  11  -4  -9    0.52    0.37
  11   4  -9    0.05    0.50
  11   4  -9    0.31    0.39
 -10  -4   9   12.00    0.68
  10  -4  -9   12.29    0.96
  10   4  -9   12.33    1.03
  10   4  -9   13.76    0.98
  -9  -4   9   -0.36    0.22
   9  -4  -9    0.29    0.31
   9   4  -9    0.60    0.37
   9   4  -9    0.26    0.35
   8  -4  -9   10.11    0.76
  -8  -4   9   10.58    0.59
   8   4  -9   10.66    0.78
   8   4  -9   11.30    0.97
   7  -4  -9    0.21    0.07
   7  -4  -9    0.18    0.24
  -7  -4   9    0.23    0.22
   7   4  -9    0.23    0.32
   7   4  -9   -0.15    0.38
   6  -4  -9   19.72    0.71
  -6  -4   9   19.37    0.83
  -6  -4   9   18.56    0.82
   6   4  -9   18.64    0.87
   6   4  -9   18.58    1.00
   6   4  -9   17.95    1.17
  -5  -4   9    1.82    0.30
   5  -4  -9    2.18    0.20
  -5  -4   9    2.55    0.30
   5   4  -9    1.88    0.40
   5   4  -9    2.23    0.33
   5   4  -9    2.58    0.41
  -5   4   9    2.58    0.10
  -5   4   9    2.10    0.10
   4  -4  -9    9.82    0.47
  -4  -4   9    9.83    0.56
  -4  -4   9    9.67    0.56
   4   4  -9   10.53    0.70
  -4   4   9   10.06    0.39
   4   4  -9    9.11    0.70
  -4   4   9   10.59    0.40
  -3  -4   9    6.88    0.46
   3  -4  -9    6.27    0.39
  -3  -4   9    6.26    0.46
  -3   4   9    6.66    0.33
   3   4  -9    5.91    0.54
  -2  -4   9   -0.16    0.23
   2  -4  -9    0.12    0.16
   2  -4  -9    0.02    0.12
  -2  -4   9   -0.49    0.23
  -2   4   9    0.08    0.07
  -2   4   9    0.39    0.15
   2   4  -9    0.39    0.27
  -2   4   9    0.48    0.13
   1  -4  -9   10.24    0.58
  -1  -4   9   10.56    0.56
   1  -4  -9   10.34    0.50
  -1  -4   9   11.14    0.64
   1   4  -9   10.23    0.69
  -1   4   9   10.40    0.48
  -1   4   9   11.36    0.54
  -1   4   9   11.36    0.55
   0  -4  -9   14.11    0.63
   0  -4  -9   13.52    0.74
   0  -4   9   13.96    0.68
   0  -4   9   14.93    0.78
   0   4   9   14.33    0.69
   0   4   9   14.13    0.60
   0   4   9   14.51    0.70
   0   4  -9   14.12    0.79
  -1  -4  -9    5.64    0.36
   1  -4   9    5.48    0.50
   1  -4   9    5.58    0.55
  -1   4  -9    5.18    0.43
   1   4   9    5.06    0.46
   1   4   9    6.54    0.51
  -2  -4  -9    9.14    0.55
   2  -4   9   10.26    0.65
   2  -4   9    9.99    0.65
   2   4   9   10.71    0.70
  -2   4  -9   10.63    0.61
   2   4   9    9.55    0.65
   3  -4   9    3.62    0.53
  -3  -4  -9    3.08    0.37
   3  -4   9    3.76    0.41
   3   4   9    3.82    0.54
  -3   4  -9    3.78    0.42
   3   4   9    4.27    0.45
   4  -4   9    0.89    0.35
  -4  -4  -9    1.05    0.25
   4  -4   9    0.75    0.36
  -4   4  -9    0.56    0.35
   4   4   9    0.68    0.43
   4   4   9    1.03    0.32
  -5  -4  -9    3.69    0.46
   5  -4   9    4.73    0.66
   5  -4   9    4.32    0.53
  -5   4  -9    4.08    0.46
   5   4   9    4.51    0.52
   5   4   9    4.04    0.64
  -6  -4  -9    3.63    0.49
   6  -4   9    3.05    0.43
   6  -4   9    4.31    0.67
  -6   4  -9    3.34    0.50
   6   4   9    4.28    0.61
   6   4   9    4.73    0.61
  -7  -4  -9   -0.28    0.24
   7  -4   9    0.87    0.41
   7  -4   9    0.25    0.38
  -7   4  -9    0.28    0.29
   7   4   9    0.14    0.34
   7   4   9    0.03    0.39
  -8  -4  -9   -0.08    0.38
   8  -4   9   -0.52    0.53
   8  -4   9    0.41    0.41
   8   4   9    0.18    0.49
  -8   4  -9    0.29    0.42
   8   4   9    0.24    0.58
   9  -4   9    2.93    0.58
   9  -4   9    4.12    0.77
  -9  -4  -9    2.82    0.47
  -9   4  -9    3.02    0.58
   9   4   9    4.55    0.84
   9   4   9    3.86    0.61
  10  -4   9    0.96    0.69
 -10  -4  -9    0.15    0.46
 -10   4  -9    0.72    0.49
  10   4   9    1.14    0.46
  10   4   9    2.50    0.77
 -12  -5   9    8.73    0.66
  12   5  -9    8.27    0.91
  12   5  -9    7.99    1.03
  11  -5  -9   12.35    0.96
 -11  -5   9   10.63    0.67
  11   5  -9   11.51    1.05
  11   5  -9    9.41    0.91
  10  -5  -9    7.03    0.76
 -10  -5   9    8.28    0.58
  10   5  -9    8.85    0.83
  10   5  -9    6.75    0.89
  -9  -5   9    7.70    0.55
   9  -5  -9    8.15    0.75
   9   5  -9    6.93    0.85
   9   5  -9    7.06    0.74
   8  -5  -9    0.08    0.23
  -8  -5   9   -0.07    0.23
   8   5  -9   -0.39    0.34
   8   5  -9    0.21    0.31
  -7  -5   9    2.10    0.33
   7   5  -9    2.06    0.52
   7   5  -9    2.40    0.37
   7   5  -9    2.35    0.41
  -6  -5   9    7.86    0.50
  -6  -5   9    8.18    0.53
   6   5  -9    7.67    0.72
   6   5  -9    7.75    0.69
   6   5  -9    7.65    0.56
  -5  -5   9    5.50    0.45
  -5  -5   9    6.75    0.48
   5  -5  -9    5.95    0.30
   5   5  -9    5.99    0.61
   5   5  -9    6.53    0.51
   5   5  -9    5.93    0.62
  -4  -5   9    5.49    0.46
  -4  -5   9    6.13    0.48
   4  -5  -9    5.58    0.34
  -4   5   9    5.41    0.24
  -4   5   9    6.19    0.26
   4   5  -9    5.41    0.57
   4   5  -9    4.78    0.58
  -3  -5   9   16.36    0.77
   3  -5  -9   18.52    0.64
  -3  -5   9   16.14    0.79
   3  -5  -9   16.48    0.75
   3   5  -9   18.71    0.94
   3   5  -9   17.40    0.98
  -3   5   9   18.40    0.67
  -2  -5   9    1.14    0.32
   2  -5  -9    1.52    0.24
   2  -5  -9    1.11    0.17
  -2  -5   9    0.98    0.30
  -2   5   9    1.46    0.18
  -2   5   9    1.50    0.22
   2   5  -9    0.99    0.34
  -2   5   9    1.95    0.19
  -1  -5   9   22.33    0.99
   1  -5  -9   21.78    0.84
  -1  -5   9   21.51    0.93
   1  -5  -9   20.84    0.97
  -1   5   9   22.43    0.90
   1   5  -9   22.42    1.11
  -1   5   9   22.18    0.84
  -1   5   9   22.57    0.90
   0  -5  -9    6.36    0.38
   0  -5   9    6.55    0.56
   0  -5  -9    5.21    0.47
   0  -5   9    6.58    0.52
   0   5   9    6.38    0.38
   0   5  -9    5.90    0.50
   0   5   9    6.26    0.46
   0   5   9    6.00    0.44
   1  -5   9    4.65    0.51
  -1  -5  -9    4.60    0.36
   1  -5   9    4.32    0.41
   1   5   9    4.20    0.44
  -1   5  -9    3.98    0.40
   1   5   9    4.62    0.46
   2  -5   9    6.23    0.48
  -2  -5  -9    5.72    0.45
   2  -5   9    7.04    0.55
  -2   5  -9    6.36    0.47
  -2   5  -9    6.45    0.51
   2   5   9    6.49    0.60
   2   5   9    6.09    0.56
   3  -5   9    1.58    0.32
  -3  -5  -9    1.41    0.31
   3  -5   9    1.87    0.47
   3   5   9    1.18    0.42
   3   5   9    0.90    0.39
  -3   5  -9    1.59    0.23
  -3   5  -9    1.36    0.31
   4  -5   9   15.70    0.90
  -4  -5  -9   15.08    0.77
   4  -5   9   14.19    0.78
  -4   5  -9   13.69    0.86
   4   5   9   15.59    0.90
  -4   5  -9   13.81    0.70
   4   5   9   15.45    0.98
   5  -5   9    0.44    0.47
   5  -5   9   -0.04    0.26
  -5  -5  -9    0.67    0.32
  -5   5  -9    0.15    0.36
   5   5   9    0.15    0.33
   5   5   9   -0.46    0.37
  -6  -5  -9   -0.02    0.32
   6  -5   9   -0.34    0.24
   6  -5   9   -0.06    0.49
   6   5   9    0.11    0.36
  -6   5  -9   -0.04    0.37
   6   5   9   -0.62    0.27
  -7  -5  -9    0.49    0.37
   7  -5   9    0.19    0.29
   7  -5   9    0.55    0.52
   7   5   9    1.07    0.49
  -7   5  -9   -0.20    0.28
   7   5   9    0.27    0.41
  -8  -5  -9    4.11    0.58
   8  -5   9    5.83    0.82
   8  -5   9    5.70    0.64
  -8   5  -9    4.10    0.60
   8   5   9    5.24    0.65
   8   5   9    4.33    0.81
  -9  -5  -9    0.31    0.34
   9  -5   9    0.56    0.49
   9   5   9    0.29    0.40
   9   5   9    1.32    0.67
  -9   5  -9    0.48    0.47
 -10  -5  -9    0.66    0.47
  10   5   9    1.19    0.72
  10   5   9    0.36    0.41
 -12  -6   9    1.02    0.39
  11  -6  -9    0.46    0.38
 -11  -6   9    0.99    0.34
  11   6  -9    0.15    0.55
  11   6  -9    1.05    0.53
  10  -6  -9   21.00    1.27
 -10  -6   9   21.24    1.00
  10   6  -9   19.56    1.47
  10   6  -9   20.47    1.28
  -9  -6   9    0.81    0.31
   9  -6  -9    0.41    0.34
   9   6  -9    0.49    0.43
   9   6  -9    1.08    0.43
   8  -6  -9    1.57    0.36
  -8  -6   9    1.63    0.33
   8   6  -9    0.93    0.43
   8   6  -9    1.63    0.52
  -7  -6   9    0.13    0.26
  -7  -6   9    0.22    0.24
   7   6  -9    0.15    0.38
   7   6  -9    0.23    0.26
   7   6  -9   -0.06    0.42
  -6  -6   9    5.32    0.44
  -6  -6   9    5.11    0.47
   6   6  -9    5.40    0.51
   6   6  -9    4.12    0.58
   6   6  -9    4.02    0.57
  -5  -6   9    4.89    0.39
  -5  -6   9    5.63    0.47
   5   6  -9    4.87    0.43
   5   6  -9    3.89    0.50
   5   6  -9    3.90    0.59
  -4  -6   9   14.53    0.74
  -4  -6   9   12.58    0.73
  -4   6   9   14.35    0.49
   4   6  -9   14.08    0.90
  -4   6   9   13.07    0.48
   4   6  -9   13.79    0.90
  -3  -6   9    1.37    0.33
  -3  -6   9    0.78    0.25
  -3   6   9    1.18    0.17
   3   6  -9    1.05    0.40
   3   6  -9    0.66    0.29
  -3   6   9    1.06    0.13
  -2  -6   9   59.07    2.13
   2  -6  -9   60.38    2.03
  -2  -6   9   59.48    2.24
  -2   6   9   60.24    2.05
  -2   6   9   60.49    2.07
  -2   6   9   59.00    2.00
   2   6  -9   58.69    2.52
  -1  -6   9   54.49    1.98
   1  -6  -9   53.90    1.87
  -1  -6   9   57.93    2.11
   1   6  -9   52.65    2.29
  -1   6   9   54.38    1.88
  -1   6   9   53.15    1.97
  -1   6   9   54.95    1.92
   0  -6   9   29.75    1.26
   0  -6   9   29.94    1.22
   0  -6  -9   27.50    1.09
   0   6   9   29.08    1.21
   0   6  -9   28.24    1.33
   0   6   9   29.37    1.17
  -1  -6  -9    3.37    0.30
   1  -6   9    4.17    0.50
   1  -6   9    3.84    0.40
   1   6   9    3.27    0.43
  -1   6  -9    3.30    0.37
   1   6   9    3.55    0.42
  -2  -6  -9    3.32    0.36
   2  -6   9    3.73    0.46
   2  -6   9    3.65    0.41
  -2   6  -9    3.76    0.37
   2   6   9    3.57    0.47
  -2   6  -9    3.48    0.43
   2   6   9    3.34    0.47
  -3  -6  -9    0.90    0.27
   3  -6   9    1.03    0.44
   3  -6   9    1.61    0.39
   3   6   9    1.07    0.39
   3   6   9    0.41    0.29
  -3   6  -9    1.07    0.38
  -3   6  -9    0.75    0.20
  -4  -6  -9   11.47    0.64
   4  -6   9   12.75    0.81
   4  -6   9   11.77    0.70
  -4   6  -9   10.71    0.72
   4   6   9   11.55    0.88
   4   6   9   12.51    0.84
   5  -6   9   -0.35    0.22
  -5  -6  -9   -0.27    0.19
   5  -6   9   -1.08    0.41
   5   6   9   -0.23    0.25
  -5   6  -9   -0.67    0.34
   5   6   9   -0.27    0.30
  -6  -6  -9    2.85    0.40
   6  -6   9    2.86    0.64
   6  -6   9    2.39    0.48
  -6   6  -9    1.93    0.48
   6   6   9    3.14    0.65
   6   6   9    2.76    0.56
   7  -6   9   -0.49    0.49
  -7  -6  -9   -0.02    0.36
   7  -6   9   -0.05    0.27
  -7   6  -9   -0.08    0.29
   7   6   9    0.13    0.36
   7   6   9    0.11    0.40
  -8  -6  -9    0.39    0.31
   8  -6   9    0.73    0.43
   8  -6   9    0.83    0.45
   8   6   9    1.18    0.64
   8   6   9    0.56    0.39
  -8   6  -9    1.36    0.48
   9  -6   9    1.74    0.54
  -9  -6  -9    1.42    0.39
   9   6   9    2.04    0.58
  -9   6  -9    1.67    0.53
   9   6   9    1.77    0.49
 -10  -6  -9    0.24    0.49
  10   6   9   -0.21    0.37
  10   6   9    1.97    0.80
 -11  -7   9   -0.09    0.33
  11   7  -9    0.15    0.49
  11   7  -9    0.28    0.60
  10  -7  -9    3.01    0.53
 -10  -7   9    3.09    0.46
  10   7  -9    3.06    0.64
  10   7  -9    2.40    0.62
  -9  -7   9    3.47    0.45
   9  -7  -9    3.77    0.55
   9   7  -9    3.64    0.65
   9   7  -9    3.43    0.62
   8  -7  -9   -0.33    0.18
  -8  -7   9    0.11    0.22
   8   7  -9    0.26    0.43
   8   7  -9   -0.32    0.43
  -7  -7   9    0.79    0.32
  -7  -7   9    0.50    0.28
   7   7  -9    1.01    0.40
   7   7  -9    0.69    0.44
   7   7  -9    1.23    0.34
  -6  -7   9   21.63    0.96
  -6  -7   9   20.52    0.93
   6   7  -9   18.65    0.96
   6   7  -9   20.23    1.24
   6   7  -9   19.20    1.10
  -5  -7   9   26.94    1.14
  -5  -7   9   28.25    1.18
   5   7  -9   27.15    1.24
   5   7  -9   28.00    1.36
   5   7  -9   27.69    1.48
  -4  -7   9   68.08    2.50
  -4  -7   9   66.59    2.37
  -4   7   9   67.46    2.15
   4   7  -9   65.71    2.64
   4   7  -9   63.34    2.44
   4   7  -9   68.67    2.90
  -3  -7   9    1.47    0.29
  -3  -7   9    2.15    0.38
  -3   7   9    1.99    0.22
   3   7  -9    2.41    0.49
   3   7  -9    1.91    0.43
  -2  -7   9  109.22    3.93
  -2  -7   9  107.28    3.74
   2   7  -9  118.92    4.12
   2   7  -9  103.95    4.33
  -2   7   9  111.58    3.65
  -1  -7   9    8.68    0.55
  -1  -7   9    8.42    0.58
  -1   7   9    8.34    0.53
   1   7  -9    7.56    0.65
   0  -7   9    7.30    0.55
   0  -7  -9    6.65    0.43
   0  -7   9    7.37    0.58
   0   7  -9    6.83    0.59
   0   7   9    6.30    0.50
   0   7   9    6.66    0.50
   1  -7   9    4.48    0.49
   1  -7   9    5.23    0.50
  -1  -7  -9    4.78    0.38
   1   7   9    4.88    0.48
  -1   7  -9    4.78    0.46
   1   7   9    5.05    0.49
   2  -7   9   -0.38    0.25
   2  -7   9   -0.08    0.32
  -2  -7  -9   -0.32    0.21
  -2   7  -9    0.10    0.18
   2   7   9   -0.16    0.30
   2   7   9   -0.50    0.29
  -3  -7  -9    7.66    0.51
   3  -7   9    9.92    0.80
   3  -7   9    9.79    0.62
   3   7   9   10.27    0.77
   3   7   9    9.82    0.73
  -4  -7  -9    1.93    0.35
   4  -7   9    2.16    0.44
   4  -7   9    2.54    0.45
   4   7   9    1.90    0.42
  -4   7  -9    1.85    0.38
   4   7   9    2.36    0.49
  -5  -7  -9   -0.25    0.19
   5  -7   9   -0.39    0.33
   5  -7   9   -1.03    0.42
   5   7   9    0.27    0.31
  -5   7  -9   -0.35    0.38
   5   7   9   -0.22    0.29
   6  -7   9    0.01    0.36
  -6  -7  -9    0.15    0.25
   6  -7   9    0.26    0.52
  -6   7  -9    0.56    0.34
   6   7   9    0.57    0.41
   6   7   9   -0.21    0.42
   7  -7   9    0.22    0.30
  -7  -7  -9   -0.02    0.36
   7  -7   9   -0.21    0.50
  -7   7  -9   -0.23    0.29
   7   7   9    0.40    0.43
   7   7   9   -0.01    0.36
  -8  -7  -9    9.88    0.82
   8  -7   9   10.34    0.90
   8   7   9    9.48    0.83
   8   7   9   10.05    1.09
  -8   7  -9    7.80    0.80
   9  -7   9    1.01    0.64
  -9  -7  -9    0.66    0.37
   9   7   9    0.81    0.51
   9   7   9    1.41    0.48
  -9   7  -9    0.85    0.51
 -11  -8   9    0.35    0.36
 -10  -8   9   -0.21    0.24
  10   8  -9   -0.33    0.54
  10   8  -9    0.06    0.49
   9  -8  -9    3.24    0.52
  -9  -8   9    3.62    0.44
   9   8  -9    3.94    0.70
   9   8  -9    3.66    0.74
   8  -8  -9    3.61    0.54
  -8  -8   9    4.76    0.47
   8   8  -9    4.88    0.73
   8   8  -9    4.66    0.70
  -7  -8   9    7.57    0.58
  -7  -8   9    6.66    0.52
   7   8  -9    6.01    0.75
   7   8  -9    7.07    0.71
   7   8  -9    7.08    0.64
  -6  -8   9    3.10    0.38
  -6  -8   9    3.82    0.41
   6   8  -9    3.41    0.56
   6   8  -9    3.38    0.54
   6   8  -9    3.40    0.49
  -5  -8   9    2.42    0.35
  -5  -8   9    3.18    0.43
   5   8  -9    2.61    0.40
   5   8  -9    2.38    0.47
   5   8  -9    2.83    0.56
  -4  -8   9    8.60    0.58
  -4  -8   9    8.58    0.57
   4   8  -9   10.50    0.85
   4   8  -9    8.70    0.62
  -4   8   9    9.04    0.35
   4   8  -9    9.39    0.84
  -3  -8   9    1.86    0.32
  -3  -8   9    1.90    0.40
   3   8  -9    1.61    0.43
  -3   8   9    1.65    0.21
   3   8  -9    1.90    0.43
  -2  -8   9    2.40    0.40
  -2  -8   9    2.44    0.43
   2   8  -9    1.96    0.42
   2   8  -9    3.09    0.55
  -2   8   9    2.42    0.28
  -1  -8   9    4.76    0.51
  -1  -8   9    3.48    0.40
  -1   8   9    3.78    0.39
   1   8  -9    4.30    0.54
   1   8  -9    3.19    0.45
   0  -8   9    0.79    0.39
   0  -8   9    0.23    0.33
   0   8  -9    0.78    0.29
   0   8   9    0.39    0.27
   1  -8   9    0.13    0.28
   1  -8   9    0.16    0.31
  -1  -8  -9    0.53    0.21
   1   8   9    0.32    0.27
   1   8   9    0.25    0.28
  -1   8  -9    0.32    0.23
   2  -8   9    2.69    0.51
   2  -8   9    2.95    0.45
  -2  -8  -9    3.15    0.37
  -2   8  -9    3.32    0.39
   2   8   9    3.27    0.47
   2   8   9    3.62    0.49
   3  -8   9    0.82    0.45
   3  -8   9    1.00    0.30
  -3  -8  -9    0.38    0.27
   3   8   9    0.50    0.39
   3   8   9    0.54    0.30
   4  -8   9    0.29    0.36
  -4  -8  -9    0.33    0.29
   4  -8   9    0.28    0.34
   4   8   9    0.27    0.41
   4   8   9    0.03    0.37
  -5  -8  -9   -0.15    0.21
   5  -8   9    0.17    0.37
   5  -8   9   -0.50    0.44
  -5   8  -9   -0.55    0.26
   5   8   9    0.10    0.41
   5   8   9   -0.09    0.29
   6  -8   9   -0.20    0.26
  -6  -8  -9   -0.10    0.33
   6  -8   9    0.10    0.50
  -6   8  -9    0.00    0.31
   6   8   9    0.17    0.45
   6   8   9    0.15    0.36
   7  -8   9    0.51    0.42
  -7  -8  -9    0.81    0.32
   7  -8   9    1.00    0.58
  -7   8  -9    1.44    0.49
   7   8   9    0.87    0.59
   7   8   9    0.83    0.43
  -8  -8  -9    0.82    0.46
   8  -8   9    0.18    0.42
  -8   8  -9    0.97    0.50
   8   8   9    0.75    0.42
   8   8   9    0.37    0.45
  -9  -8  -9    0.08    0.46
   9   8   9    0.69    0.42
   9   8   9    2.09    0.74
 -10  -9   9    0.11    0.28
  10   9  -9   -0.05    0.55
  10   9  -9   -0.01    0.43
   9  -9  -9    0.20    0.32
  -9  -9   9    0.76    0.30
   9   9  -9    0.58    0.52
   9   9  -9   -0.22    0.38
  -8  -9   9   -0.54    0.32
   8   9  -9    0.02    0.36
   8   9  -9   -0.55    0.42
  -7  -9   9    7.01    0.64
  -7  -9   9    6.86    0.61
   7   9  -9    7.07    0.82
   7   9  -9    5.79    0.60
   7   9  -9    5.45    0.74
  -6  -9   9    0.48    0.33
  -6  -9   9    0.64    0.36
   6   9  -9    0.52    0.30
   6   9  -9    0.55    0.37
   6   9  -9    0.42    0.34
  -5  -9   9    9.52    0.62
  -5  -9   9    9.35    0.61
   5   9  -9   10.18    0.94
   5   9  -9    8.42    0.66
   5   9  -9    9.10    0.90
  -4  -9   9    1.75    0.41
  -4  -9   9    1.48    0.31
   4   9  -9    1.38    0.42
  -4   9   9    1.45    0.14
   4   9  -9    1.26    0.43
   4   9  -9    1.23    0.33
  -3  -9   9   10.05    0.69
  -3  -9   9   10.93    0.74
  -3   9   9   10.08    0.49
   3   9  -9    9.59    0.85
   3   9  -9    9.57    0.87
  -2  -9   9    7.55    0.54
  -2  -9   9    6.44    0.63
   2   9  -9    7.89    0.69
   2   9  -9    6.21    0.68
  -2   9   9    6.63    0.45
  -1  -9   9    4.95    0.53
  -1  -9   9    4.86    0.56
   1   9  -9    5.40    0.63
  -1   9   9    4.80    0.42
   1   9  -9    4.26    0.52
   0  -9   9    0.51    0.30
   0  -9   9   -0.17    0.32
   0   9  -9    0.42    0.35
   0   9   9   -0.04    0.25
   0   9  -9    0.20    0.26
   1  -9   9    0.35    0.41
   1  -9   9    0.02    0.33
   1   9   9    0.40    0.31
  -1   9  -9    0.89    0.27
   2  -9   9    1.07    0.40
   2  -9   9    1.09    0.46
   2   9   9    1.34    0.40
   3  -9   9    1.58    0.51
   3  -9   9    2.48    0.38
  -3  -9  -9    2.16    0.35
   3   9   9    2.79    0.43
   3   9   9    2.61    0.48
  -4  -9  -9    1.31    0.34
   4  -9   9    1.80    0.36
   4  -9   9    0.84    0.39
   4   9   9    1.84    0.48
   4   9   9    1.79    0.50
   5  -9   9   -0.03    0.26
  -5  -9  -9   -0.41    0.21
   5  -9   9   -0.25    0.46
   5   9   9   -0.45    0.40
   5   9   9   -0.09    0.31
   6  -9   9   -0.64    0.47
   6  -9   9    0.04    0.29
  -6  -9  -9   -0.65    0.33
   6   9   9    0.30    0.51
   6   9   9   -0.20    0.46
   7  -9   9    0.70    0.57
  -7  -9  -9    0.80    0.34
   7   9   9    0.37    0.54
   7   9   9    1.72    0.62
   8  -9   9   -0.08    0.41
  -8  -9  -9   -0.56    0.40
  -8   9  -9    0.82    0.51
   8   9   9    1.19    0.58
   8   9   9    1.73    0.63
  -9 -10   9    4.15    0.56
   9  10  -9    2.90    0.72
   9  10  -9    3.20    0.78
  -8 -10   9   -0.25    0.35
   8  10  -9   -0.35    0.49
   8  10  -9   -0.46    0.47
  -7 -10   9   11.08    0.79
  -7 -10   9   11.35    0.72
   7  10  -9   10.52    1.03
   7  10  -9   11.82    0.87
   7  10  -9   11.81    1.02
  -6 -10   9    5.07    0.56
  -6 -10   9    5.08    0.57
   6  10  -9    4.47    0.66
   6  10  -9    4.76    0.68
   6  10  -9    5.36    0.64
  -5 -10   9    3.63    0.52
  -5 -10   9    3.54    0.50
   5  10  -9    3.88    0.65
   5  10  -9    3.20    0.55
   5  10  -9    4.36    0.71
  -4 -10   9    0.04    0.35
  -4 -10   9   -0.12    0.23
   4  10  -9    0.19    0.35
   4  10  -9    0.64    0.40
   4  10  -9   -0.35    0.22
  -4  10   9    0.03    0.11
  -3 -10   9    0.37    0.37
  -3 -10   9    0.33    0.33
  -3  10   9    0.48    0.18
   3  10  -9   -0.07    0.26
   3  10  -9    0.81    0.38
   3  10  -9   -0.05    0.31
  -2 -10   9    2.31    0.43
  -2 -10   9    1.98    0.44
   2  10  -9    1.64    0.44
   2  10  -9    2.03    0.44
  -2  10   9    2.40    0.32
  -1 -10   9    0.28    0.29
  -1 -10   9   -0.31    0.22
   1  10  -9    0.19    0.34
  -1  10   9    0.28    0.27
   1  10  -9    0.15    0.29
   0 -10   9   -0.16    0.23
   0 -10   9   -0.83    0.36
   0  10  -9    0.08    0.26
   0  10  -9   -0.27    0.30
   0  10   9   -0.03    0.29
   1 -10   9    6.15    0.54
   1 -10   9    6.62    0.68
  -1  10  -9    6.73    0.79
   1  10   9    6.38    0.59
   2 -10   9    0.60    0.35
   2 -10   9    0.24    0.37
   2  10   9    0.90    0.39
   3 -10   9   -0.49    0.41
   3 -10   9   -0.20    0.25
   3  10   9    0.07    0.27
   4 -10   9    1.48    0.44
   4 -10   9    1.15    0.33
   4  10   9    1.40    0.48
   5 -10   9    0.58    0.31
  -5 -10  -9   -0.57    0.32
   5 -10   9    0.27    0.49
   5  10   9   -0.03    0.32
  -6 -10  -9   -0.41    0.24
   6 -10   9   -0.91    0.47
   6  10   9   -0.25    0.33
   7 -10   9    2.15    0.67
  -7 -10  -9    0.92    0.47
   7  10   9    1.66    0.60
  -8 -10  -9    0.28    0.44
   9  11  -9   -0.04    0.46
  -8 -11   9   -0.20    0.28
   8  11  -9    0.10    0.59
   8  11  -9    0.01    0.55
  -7 -11   9   -0.06    0.39
  -7 -11   9    0.50    0.40
   7  11  -9    0.24    0.42
   7  11  -9    0.65    0.45
   7  11  -9    0.36    0.51
  -6 -11   9    0.03    0.28
  -6 -11   9    0.44    0.30
   6  11  -9    0.52    0.47
   6  11  -9    0.33    0.31
   6  11  -9   -0.28    0.36
  -5 -11   9    1.39    0.36
  -5 -11   9    0.67    0.41
   5  11  -9    1.12    0.48
   5  11  -9    1.30    0.51
   5  11  -9    0.57    0.55
  -4 -11   9    1.68    0.38
  -4 -11   9    1.70    0.44
   4  11  -9    2.25    0.44
   4  11  -9    2.18    0.55
   4  11  -9    2.29    0.63
  -3 -11   9    5.42    0.61
  -3 -11   9    4.97    0.51
   3  11  -9    4.14    0.62
   3  11  -9    5.20    0.64
  -3  11   9    4.89    0.38
   3  11  -9    4.60    0.71
  -2 -11   9    0.62    0.31
  -2 -11   9    0.60    0.29
   2  11  -9    0.98    0.52
  -2  11   9    0.24    0.24
   2  11  -9   -0.02    0.32
  -1 -11   9    1.84    0.47
  -1 -11   9    1.61    0.44
   1  11  -9    1.60    0.42
   1  11  -9    2.66    0.61
  -1  11   9    1.92    0.35
   0 -11   9   -0.53    0.27
   0 -11   9   -0.05    0.26
   0  11  -9    0.21    0.37
   0  11   9   -0.28    0.28
   1 -11   9    1.45    0.36
   1 -11   9    1.89    0.43
  -1  11  -9    1.90    0.59
   1  11   9    2.36    0.42
   2 -11   9    2.21    0.47
   2 -11   9    2.02    0.45
   2  11   9    1.91    0.37
  -2  11  -9    1.94    0.49
   3 -11   9    1.92    0.46
   3 -11   9    2.07    0.38
   3  11   9    1.90    0.48
  -3  11  -9    1.92    0.50
   4 -11   9    1.88    0.59
   4 -11   9    1.74    0.38
   4  11   9    1.70    0.50
   5 -11   9    1.26    0.36
   5 -11   9    0.18    0.51
   5  11   9    1.29    0.54
   6 -11   9    0.32    0.55
   6  11   9    0.59    0.51
  -8 -12   9    7.90    0.77
   8  12  -9    6.39    0.89
   8  12  -9    7.67    0.94
  -7 -12   9    1.26    0.46
   7  12  -9    1.62    0.42
   7  12  -9    1.08    0.51
   7  12  -9    0.82    0.57
  -6 -12   9    2.63    0.54
  -6 -12   9    3.03    0.46
   6  12  -9    2.52    0.64
   6  12  -9    2.79    0.59
   6  12  -9    2.83    0.70
  -5 -12   9   -0.58    0.40
  -5 -12   9   -0.71    0.37
   5  12  -9   -0.23    0.53
   5  12  -9   -0.20    0.31
   5  12  -9    0.40    0.36
  -4 -12   9    0.41    0.40
  -4 -12   9   -0.12    0.29
   4  12  -9    0.29    0.32
   4  12  -9    0.58    0.55
   4  12  -9    1.00    0.47
  -3 -12   9    0.48    0.43
  -3 -12   9    0.24    0.28
   3  12  -9    0.68    0.52
   3  12  -9   -0.27    0.36
  -3  12   9    0.30    0.21
   3  12  -9   -0.15    0.42
  -2 -12   9    2.99    0.43
  -2 -12   9    3.21    0.47
   2  12  -9    1.94    0.42
   2  12  -9    2.18    0.53
   2  12  -9    3.01    0.56
  -2  12   9    2.25    0.35
  -1 -12   9   -0.46    0.40
  -1 -12   9    0.25    0.28
  -1  12   9   -0.04    0.26
   1  12  -9   -0.56    0.31
   0 -12   9    0.07    0.47
   0 -12   9   -0.31    0.37
   0  12   9    0.51    0.31
   0  12  -9   -0.05    0.49
   1 -12   9    1.26    0.53
   1 -12   9    0.76    0.32
   1  12   9    0.65    0.35
  -1  12  -9    0.78    0.55
   2 -12   9    2.84    0.61
   2 -12   9    1.44    0.46
   2  12   9    1.98    0.46
  -2  12  -9    1.97    0.50
   3 -12   9   -0.05    0.35
   3 -12   9   -0.20    0.27
  -3  12  -9    0.24    0.35
   3  12   9    0.22    0.41
   4 -12   9    0.31    0.52
   4 -12   9    0.30    0.30
   4  12   9    0.50    0.46
   5 -12   9    1.90    0.62
   5  12   9    1.79    0.47
  -7 -13   9   -0.10    0.33
   7  13  -9   -0.79    0.52
   7  13  -9    0.07    0.61
   7  13  -9    0.50    0.49
  -6 -13   9    1.44    0.50
  -6 -13   9    1.06    0.39
   6  13  -9    2.40    0.59
   6  13  -9    2.33    0.74
   6  13  -9    2.20    0.65
  -5 -13   9   -0.14    0.41
  -5 -13   9   -0.65    0.42
   5  13  -9    0.30    0.43
   5  13  -9   -0.30    0.31
   5  13  -9   -0.89    0.40
  -4 -13   9    6.35    0.67
  -4 -13   9    5.15    0.60
   4  13  -9    5.80    0.78
   4  13  -9    5.90    0.80
   4  13  -9    5.70    0.74
  -3 -13   9    0.93    0.45
  -3 -13   9    0.48    0.46
  -3  13   9    1.24    0.27
   3  13  -9    0.89    0.47
   3  13  -9    1.71    0.51
   3  13  -9    1.24    0.52
  -2 -13   9    1.47    0.47
  -2 -13   9    1.15    0.39
   2  13  -9    2.64    0.63
   2  13  -9    0.93    0.51
  -2  13   9    1.47    0.33
  -1 -13   9    1.24    0.41
  -1 -13   9    2.01    0.48
   1  13  -9    1.58    0.48
  -1  13   9    1.65    0.34
   0 -13   9   -0.26    0.27
   0 -13   9   -0.65    0.30
   0  13  -9   -0.59    0.46
   0  13   9    0.00    0.33
   1 -13   9   -0.06    0.40
   1 -13   9    0.01    0.35
  -1  13  -9    0.36    0.40
   1  13   9    0.25    0.34
   2 -13   9    0.17    0.50
   2 -13   9    0.48    0.31
  -2  13  -9   -0.48    0.34
   2  13   9    1.20    0.40
   3 -13   9    0.46    0.56
   3 -13   9    0.72    0.33
   3  13   9    0.22    0.41
   4 -13   9    3.05    0.68
   4  13   9    2.31    0.49
  -6 -14   9    1.66    0.56
   6  14  -9    1.90    0.61
   6  14  -9    0.78    0.59
   6  14  -9    2.98    0.56
  -5 -14   9    0.10    0.45
  -5 -14   9   -0.30    0.33
   5  14  -9    0.20    0.46
   5  14  -9   -0.34    0.49
   5  14  -9    0.15    0.35
  -4 -14   9    0.41    0.45
  -4 -14   9    1.19    0.51
   4  14  -9    0.27    0.50
   4  14  -9    1.34    0.55
   4  14  -9    0.82    0.46
  -3 -14   9    0.15    0.44
  -3 -14   9   -0.17    0.46
   3  14  -9   -0.34    0.45
   3  14  -9    0.22    0.54
  -2 -14   9    1.39    0.53
  -2 -14   9    0.66    0.35
   2  14  -9    0.62    0.51
   2  14  -9    0.68    0.44
  -2  14   9    1.01    0.30
  -1 -14   9   -0.23    0.28
  -1 -14   9   -0.51    0.46
  -1  14   9    0.59    0.32
   1  14  -9   -0.40    0.50
   1  14  -9   -0.23    0.34
   0 -14   9    1.26    0.54
   0 -14   9    1.99    0.49
   0  14  -9    0.36    0.42
   0  14   9    1.17    0.36
   1 -14   9   -0.37    0.50
   1 -14   9    0.09    0.39
   1  14   9   -0.16    0.33
  -1  14  -9   -0.45    0.34
   2 -14   9    1.72    0.40
   2 -14   9    1.27    0.45
   2  14   9    1.12    0.44
   3 -14   9    1.13    0.60
   3  14   9    0.37    0.42
  -4 -15   9    5.92    0.78
  -4 -15   9    5.42    0.69
   4  15  -9    5.91    0.96
   4  15  -9    5.43    0.78
  -3 -15   9    0.51    0.54
  -3 -15   9    0.29    0.35
   3  15  -9    0.31    0.48
   3  15  -9    0.50    0.42
  -2 -15   9    6.60    0.79
  -2 -15   9    5.85    0.69
   2  15  -9    4.03    0.81
  -2  15   9    6.06    0.54
   2  15  -9    3.97    0.62
  -1 -15   9    6.70    0.82
  -1 -15   9    5.12    0.67
   1  15  -9    4.83    0.74
   1  15  -9    3.86    0.71
  -1  15   9    6.71    0.61
   0 -15   9    0.75    0.46
   0 -15   9    0.28    0.55
   0  15  -9   -0.32    0.50
   0  15   9    0.24    0.33
   0  15  -9    0.15    0.52
   1 -15   9   -0.02    0.41
   1 -15   9    0.24    0.32
   1  15   9    0.70    0.39
  12   0 -10    1.34    0.53
  11   0 -10    0.08    0.33
  11   0 -10   -0.32    0.24
 -10   0  10    0.37    0.18
  10   0 -10    0.51    0.30
  10   0 -10    0.30    0.42
   9   0 -10    0.20    0.39
   9   0 -10    0.07    0.24
  -9   0  10   -0.10    0.16
   8   0 -10    4.52    0.44
   8   0 -10    2.65    0.46
  -8   0  10    3.23    0.28
   7   0 -10   -0.25    0.19
   7   0 -10    0.14    0.35
  -7   0  10   -0.15    0.14
  -6   0  10   -0.02    0.15
   6   0 -10   -0.14    0.21
   6   0 -10   -0.10    0.21
  -5   0  10   -0.09    0.15
   5   0 -10    0.01    0.30
  -4   0  10   57.96    2.07
  -4   0  10   60.27    2.02
  -4   0  10   58.83    2.01
   3   0 -10    0.00    0.17
  -3   0  10   -0.13    0.16
  -3   0  10    0.07    0.14
  -3   0  10   -0.03    0.16
  -2   0  10    6.08    0.40
  -2   0  10    6.43    0.37
   2   0 -10    6.36    0.43
  -2   0  10    5.96    0.40
  -1   0  10    0.28    0.20
  -1   0  10    0.09    0.20
   1   0 -10   -0.01    0.18
   0   0 -10   75.03    2.63
   0   0  10   77.37    2.78
   0   0  10   76.59    2.65
   1   0  10   -0.07    0.30
   1   0  10    0.23    0.29
  -1   0 -10    0.39    0.19
   2   0  10    0.26    0.33
  -2   0 -10    1.18    0.31
   2   0  10    1.08    0.39
   3   0  10   -0.24    0.32
   3   0  10   -0.60    0.36
  -3   0 -10   -0.40    0.17
   4   0  10   18.97    1.07
  -4   0 -10   16.05    0.83
   4   0  10   17.70    0.96
  -5   0 -10   -0.04    0.23
   5   0  10    0.49    0.30
   5   0  10    0.22    0.46
   6   0  10    0.15    0.31
   6   0  10    0.07    0.49
  -6   0 -10    0.62    0.29
  -7   0 -10    0.30    0.38
   7   0  10    0.98    0.44
   7   0  10    0.30    0.33
   8   0  10    0.29    0.42
   8   0  10   -0.02    0.32
  -8   0 -10   -0.13    0.41
   9   0  10    0.55    0.48
   9   0  10    0.18    0.49
  -9   0 -10   -0.12    0.32
 -10   0 -10    0.26    0.48
  10   0  10   -0.11    0.38
  10   0  10    0.00    0.70
  12  -1 -10    0.52    0.48
  12   1 -10    0.96    0.53
  12   1 -10    1.22    0.37
 -11  -1  10    5.69    0.41
  11  -1 -10    5.99    0.75
  11   1 -10    6.67    0.63
  11   1 -10    4.86    0.72
  10  -1 -10    2.10    0.35
  10  -1 -10    1.84    0.53
 -10  -1  10    2.63    0.29
  10   1 -10    2.05    0.49
  10   1 -10    2.41    0.41
   9  -1 -10    2.45    0.34
   9  -1 -10    1.99    0.44
  -9  -1  10    2.01    0.26
  -9   1  10    2.57    0.23
   9   1 -10    2.37    0.40
   9   1 -10    2.70    0.57
   8  -1 -10    0.20    0.35
  -8  -1  10   -0.13    0.16
   8  -1 -10   -0.04    0.19
   8   1 -10   -0.33    0.22
   8   1 -10    0.19    0.37
  -8   1  10    0.13    0.13
   7  -1 -10   16.19    1.00
  -7  -1  10   15.35    0.66
   7  -1 -10   15.58    0.74
   7   1 -10   15.10    1.00
   7   1 -10   14.92    0.80
  -7   1  10   15.69    0.60
  -6  -1  10   15.69    0.68
   6  -1 -10   16.74    0.78
   6  -1 -10   15.80    1.03
   6   1 -10   17.33    1.02
  -6   1  10   16.26    0.63
   6   1 -10   16.10    0.83
  -5  -1  10   49.19    1.71
  -5  -1  10   47.59    1.75
   5   1 -10   51.94    1.91
   5   1 -10   48.11    1.74
   5   1 -10   48.15    2.19
  -5   1  10   49.05    1.67
  -4  -1  10   18.07    0.73
  -4  -1  10   16.83    0.72
  -4  -1  10   17.23    0.72
   4   1 -10   17.09    0.98
  -4   1  10   18.13    0.69
  -4   1  10   15.86    0.65
  -4   1  10   17.56    0.69
  -3  -1  10    1.59    0.25
  -3  -1  10    1.78    0.24
   3  -1 -10    2.36    0.27
  -3  -1  10    1.85    0.23
   3   1 -10    1.66    0.26
  -3   1  10    1.76    0.20
  -3   1  10    1.72    0.22
  -3   1  10    2.12    0.21
  -2  -1  10    0.30    0.21
   2  -1 -10    0.61    0.20
   2  -1 -10   -0.04    0.17
  -2  -1  10    0.34    0.21
  -2   1  10    0.31    0.18
  -2   1  10    0.47    0.16
  -2   1  10    0.36    0.19
  -1  -1  10    1.00    0.27
  -1  -1  10    0.87    0.26
   1  -1 -10    0.77    0.21
  -1   1  10    1.27    0.25
   1   1 -10    0.78    0.24
  -1   1  10    1.09    0.21
  -1   1  10    1.09    0.24
   0  -1 -10   23.56    0.97
   0  -1  10   23.73    1.06
   0  -1  10   23.49    1.01
   0   1  10   25.03    1.00
   0   1 -10   22.03    0.97
   0   1  10   24.48    1.04
   1  -1  10   -0.13    0.20
  -1  -1 -10    0.03    0.23
   1  -1  10   -0.56    0.28
   1   1  10   -0.46    0.28
  -1   1 -10    0.07    0.17
   1   1  10   -0.25    0.19
  -2  -1 -10   20.37    0.91
   2  -1  10   19.58    0.92
   2  -1  10   19.64    1.04
   2   1  10   20.12    0.97
  -2   1 -10   20.82    0.91
   2   1  10   19.78    0.98
   3  -1  10    0.06    0.34
  -3  -1 -10    0.36    0.21
   3  -1  10    0.10    0.39
   3   1  10    0.01    0.25
  -3   1 -10    0.06    0.20
   3   1  10   -0.11    0.27
   4  -1  10    0.80    0.34
  -4  -1 -10    0.78    0.25
   4  -1  10    0.73    0.38
   4   1  10    1.08    0.46
  -4   1 -10    0.58    0.25
   4   1  10    0.38    0.38
   5  -1  10    3.80    0.54
  -5  -1 -10    3.58    0.48
   5  -1  10    3.34    0.45
  -5   1 -10    2.83    0.39
   5   1  10    3.00    0.45
   5   1  10    3.50    0.61
  -6  -1 -10    1.78    0.37
   6  -1  10    2.21    0.59
   6  -1  10    2.02    0.49
   6   1  10    2.50    0.52
  -6   1 -10    2.00    0.44
   6   1  10    2.57    0.45
   7  -1  10    1.35    0.46
  -7  -1 -10    0.83    0.33
   7  -1  10    1.26    0.49
  -7   1 -10    0.66    0.41
   7   1  10    1.47    0.61
   7   1  10    1.40    0.41
  -8  -1 -10    1.17    0.37
   8  -1  10    1.58    0.52
   8  -1  10    2.24    0.67
  -8   1 -10    1.24    0.47
   8   1  10    1.58    0.55
   8   1  10    2.50    0.68
   9  -1  10    1.87    0.46
  -9  -1 -10    1.20    0.52
   9  -1  10    1.07    0.66
   9   1  10    1.83    0.48
  -9   1 -10    1.79    0.53
   9   1  10    1.58    0.55
  10  -1  10    0.75    0.53
 -10  -1 -10    0.49    0.38
  10   1  10    0.08    0.54
  10   1  10    1.21    0.56
  12  -2 -10    1.17    0.51
 -12  -2  10    1.34    0.28
  12   2 -10    1.24    0.43
  12   2 -10    1.02    0.57
  11  -2 -10    3.29    0.62
 -11  -2  10    3.01    0.34
  11   2 -10    3.28    0.52
  11   2 -10    2.75    0.66
  10  -2 -10    0.84    0.45
 -10  -2  10    0.98    0.26
  10   2 -10    0.85    0.40
  10   2 -10    0.83    0.38
   9  -2 -10   15.93    0.75
  -9  -2  10   16.31    0.72
   9  -2 -10   17.09    1.14
   9   2 -10   15.91    1.12
   9   2 -10   15.79    0.94
   8  -2 -10    1.37    0.23
  -8  -2  10    0.94    0.21
   8  -2 -10    0.81    0.31
   8   2 -10    1.41    0.39
  -8   2  10    1.24    0.12
   8   2 -10    0.96    0.35
  -7  -2  10    5.02    0.36
   7  -2 -10    5.59    0.39
   7  -2 -10    4.49    0.58
   7   2 -10    4.24    0.56
  -7   2  10    5.53    0.26
   7   2 -10    4.88    0.49
   6  -2 -10    2.13    0.26
   6  -2 -10    1.26    0.40
  -6  -2  10    1.74    0.25
   6   2 -10    1.70    0.34
   6   2 -10    1.38    0.35
  -6   2  10    2.05    0.18
  -5  -2  10    3.05    0.30
  -5  -2  10    3.39    0.32
   5   2 -10    2.55    0.47
   5   2 -10    3.13    0.32
  -5   2  10    3.27    0.24
   5   2 -10    3.51    0.41
  -4  -2  10   13.73    0.64
  -4  -2  10   13.36    0.65
  -4  -2  10   14.19    0.65
  -4   2  10   14.50    0.58
  -4   2  10   14.43    0.57
  -4   2  10   13.87    0.52
   4   2 -10   14.19    0.92
   3  -2 -10   -0.09    0.16
  -3  -2  10   -0.13    0.20
  -3   2  10   -0.09    0.13
  -3   2  10    0.02    0.04
   3   2 -10    0.04    0.20
  -3   2  10   -0.14    0.14
   2  -2 -10    4.34    0.37
  -2  -2  10    3.79    0.37
   2  -2 -10    3.54    0.32
  -2  -2  10    3.44    0.36
  -2   2  10    3.87    0.32
  -2   2  10    4.06    0.28
  -2   2  10    4.07    0.31
   1  -2 -10   21.76    1.00
  -1  -2  10   23.02    0.97
  -1  -2  10   22.98    1.01
   1  -2 -10   22.37    0.90
  -1   2  10   23.98    0.93
  -1   2  10   22.73    0.89
  -1   2  10   22.20    0.94
   0  -2  10   15.59    0.79
   0  -2 -10   16.55    0.73
   0  -2  10   15.73    0.84
   0   2 -10   15.20    0.75
   0   2  10   17.70    0.80
   0   2  10   16.70    0.77
  -1  -2 -10    4.14    0.38
   1  -2  10    4.01    0.43
   1  -2  10    4.23    0.41
  -1   2 -10    3.80    0.41
   1   2  10    4.04    0.46
   1   2  10    3.63    0.43
   2  -2  10   -0.38    0.34
   2  -2  10   -0.36    0.21
  -2  -2 -10   -0.15    0.24
   2   2  10   -0.13    0.22
   2   2  10    0.12    0.25
  -2   2 -10    0.12    0.20
  -3  -2 -10    0.92    0.25
   3  -2  10    1.24    0.32
   3  -2  10    1.17    0.44
  -3   2 -10    0.96    0.33
   3   2  10    0.71    0.32
   3   2  10    1.34    0.32
  -4  -2 -10   12.83    0.75
   4  -2  10   13.48    0.85
   4  -2  10   13.15    0.76
   4   2  10   14.00    0.87
   4   2  10   13.93    0.86
  -4   2 -10   12.67    0.73
   5  -2  10   13.73    0.93
   5  -2  10   15.89    0.86
  -5  -2 -10   15.23    0.86
  -5   2 -10   14.47    0.81
   5   2  10   16.25    0.89
   5   2  10   15.08    0.97
   6  -2  10    0.69    0.42
  -6  -2 -10   -0.31    0.33
   6  -2  10   -0.42    0.32
   6   2  10    0.73    0.53
  -6   2 -10    0.18    0.38
   6   2  10    0.17    0.32
   7  -2  10    2.19    0.63
  -7  -2 -10    0.76    0.43
   7  -2  10    1.29    0.48
  -7   2 -10    1.18    0.36
   7   2  10    1.34    0.60
   7   2  10    0.99    0.51
   8  -2  10    5.52    0.73
   8  -2  10    5.15    0.69
  -8  -2 -10    4.63    0.62
   8   2  10    5.32    0.83
   8   2  10    4.27    0.60
  -8   2 -10    4.53    0.57
   9  -2  10    4.59    0.72
   9  -2  10    4.94    0.69
  -9  -2 -10    4.29    0.57
   9   2  10    5.86    0.78
  -9   2 -10    4.24    0.57
   9   2  10    5.32    0.88
 -10  -2 -10   -0.38    0.47
  10   2  10    0.52    0.42
  10   2  10    0.39    0.52
  12  -3 -10    0.29    0.43
 -12  -3  10   -0.05    0.26
  12   3 -10    0.70    0.42
  12   3 -10    0.75    0.56
  11  -3 -10    4.39    0.64
 -11  -3  10    5.11    0.46
  11   3 -10    4.43    0.62
  11   3 -10    4.27    0.77
 -10  -3  10   21.61    0.93
  10  -3 -10   21.88    1.35
  10   3 -10   23.61    1.51
  10   3 -10   18.80    1.13
  -9  -3  10    4.80    0.43
   9  -3 -10    4.65    0.64
   9   3 -10    4.62    0.73
   9   3 -10    4.16    0.55
   8  -3 -10   -0.05    0.11
  -8  -3  10   -0.27    0.18
   8  -3 -10   -0.09    0.33
   8   3 -10   -0.19    0.32
   8   3 -10    0.42    0.41
   7  -3 -10   17.08    0.70
   7  -3 -10   16.62    1.02
  -7  -3  10   16.95    0.75
   7   3 -10   16.05    1.07
   7   3 -10   16.56    0.93
   6  -3 -10   13.09    0.58
  -6  -3  10   12.28    0.61
   6   3 -10   12.56    0.77
   6   3 -10   11.34    0.86
  -6   3  10   12.26    0.44
  -5  -3  10   36.81    1.43
  -5  -3  10   37.45    1.40
   5   3 -10   37.60    1.79
  -5   3  10   38.53    1.27
   5   3 -10   37.68    1.45
  -5   3  10   38.20    1.27
   5   3 -10   37.33    1.59
  -4  -3  10    5.77    0.43
  -4  -3  10    5.64    0.44
  -4   3  10    6.76    0.32
   4   3 -10    5.98    0.57
  -3  -3  10   16.11    0.72
  -3  -3  10   16.32    0.76
  -3   3  10   16.23    0.64
   3   3 -10   16.03    0.93
  -3   3  10   15.77    0.62
  -3   3  10   17.14    0.67
   2  -3 -10   12.64    0.65
  -2  -3  10   13.45    0.67
  -2  -3  10   13.63    0.66
   2  -3 -10   12.60    0.58
   2   3 -10   13.24    0.83
  -2   3  10   12.61    0.58
  -2   3  10   13.53    0.61
  -2   3  10   13.25    0.56
  -1  -3  10   13.39    0.71
  -1  -3  10   14.49    0.70
   1  -3 -10   15.20    0.65
   1  -3 -10   13.31    0.73
  -1   3  10   14.95    0.68
  -1   3  10   14.46    0.62
  -1   3  10   15.58    0.68
   0  -3 -10    0.71    0.20
   0  -3  10    0.54    0.24
   0  -3  10    0.46    0.24
   0   3 -10    0.67    0.22
   0   3  10    0.83    0.29
   0   3  10    0.64    0.26
  -1  -3 -10    0.62    0.23
   1  -3  10    0.40    0.28
   1  -3  10   -0.21    0.31
  -1   3 -10    0.74    0.30
   1   3  10    0.41    0.29
   1   3  10    0.68    0.32
   2  -3  10   -0.52    0.35
   2  -3  10   -0.30    0.31
  -2  -3 -10   -0.28    0.23
   2   3  10   -0.49    0.30
  -2   3 -10    0.34    0.22
   2   3  10   -0.02    0.24
  -3  -3 -10   -0.11    0.24
   3  -3  10    0.45    0.27
   3  -3  10   -0.57    0.37
   3   3  10    0.08    0.38
   3   3  10    0.25    0.27
  -3   3 -10    0.16    0.31
  -4  -3 -10    0.27    0.29
   4  -3  10   -0.26    0.30
   4  -3  10    0.34    0.28
  -4   3 -10    0.12    0.25
   4   3  10    0.31    0.38
   4   3  10   -0.05    0.40
  -5  -3 -10    5.72    0.49
   5  -3  10    5.61    0.56
   5  -3  10    5.58    0.72
   5   3  10    5.87    0.65
   5   3  10    6.72    0.76
  -5   3 -10    6.00    0.54
   6  -3  10   -0.30    0.33
   6  -3  10   -0.65    0.35
  -6  -3 -10   -0.12    0.24
   6   3  10   -0.82    0.39
  -6   3 -10   -0.17    0.36
   6   3  10   -0.42    0.32
   7  -3  10    0.52    0.41
   7  -3  10    0.24    0.42
  -7  -3 -10    0.12    0.28
   7   3  10    0.52    0.43
   7   3  10    0.28    0.35
  -7   3 -10   -0.31    0.27
   8  -3  10    1.18    0.49
  -8  -3 -10    0.25    0.42
   8  -3  10    0.75    0.46
  -8   3 -10    0.86    0.46
   8   3  10    0.66    0.52
   8   3  10    1.50    0.52
   9  -3  10    0.22    0.64
  -9  -3 -10   -0.48    0.41
   9  -3  10    0.00    0.46
   9   3  10    1.14    0.67
   9   3  10    0.21    0.40
  -9   3 -10    0.64    0.47
  10   3  10    1.29    0.60
  10   3  10    0.69    0.59
  12  -4 -10    2.39    0.57
 -12  -4  10    3.14    0.39
  12   4 -10    3.27    0.60
 -11  -4  10    5.21    0.48
  11  -4 -10    5.89    0.74
  11   4 -10    6.62    0.90
  11   4 -10    6.63    0.73
 -10  -4  10    1.32    0.33
  10  -4 -10    1.32    0.47
  10   4 -10    2.31    0.49
  10   4 -10    1.59    0.47
   9  -4 -10   23.67    1.36
  -9  -4  10   24.08    0.99
   9   4 -10   22.71    1.23
   9   4 -10   19.79    1.37
  -8  -4  10   -0.19    0.20
   8  -4 -10    0.02    0.33
   8   4 -10   -0.16    0.40
   8   4 -10    0.09    0.30
   7  -4 -10    3.02    0.50
   7  -4 -10    3.18    0.20
  -7  -4  10    3.21    0.35
   7   4 -10    2.96    0.47
   7   4 -10    2.88    0.57
  -6  -4  10    5.92    0.45
  -6  -4  10    6.03    0.45
   6  -4 -10    6.07    0.33
   6   4 -10    6.02    0.59
   6   4 -10    5.11    0.61
   6   4 -10    6.06    0.47
  -5  -4  10    0.47    0.24
  -5  -4  10    0.38    0.21
  -5   4  10    0.38    0.08
   5   4 -10    0.16    0.30
   5   4 -10    0.40    0.22
  -5   4  10    0.43    0.07
   5   4 -10   -0.11    0.25
  -4  -4  10    0.70    0.25
  -4  -4  10    0.95    0.28
   4   4 -10    0.79    0.36
  -4   4  10    0.77    0.15
   4   4 -10    0.38    0.33
  -4   4  10    0.73    0.13
  -3  -4  10   46.59    1.75
  -3  -4  10   45.92    1.69
   3   4 -10   44.40    2.04
  -3   4  10   45.73    1.57
  -3   4  10   45.53    1.55
  -2  -4  10   17.69    0.79
   2  -4 -10   17.05    0.69
  -2  -4  10   16.73    0.85
   2   4 -10   17.36    1.01
  -2   4  10   17.19    0.69
  -2   4  10   18.16    0.73
  -1  -4  10  127.25    4.37
   1  -4 -10  127.93    4.29
  -1  -4  10  136.00    4.61
  -1   4  10  131.12    4.32
  -1   4  10  131.87    4.28
   1   4 -10  128.04    5.03
  -1   4  10  131.21    4.51
   0  -4 -10   44.37    1.61
   0  -4  10   45.15    1.68
   0  -4  10   43.60    1.77
   0   4  10   46.14    1.67
   0   4 -10   44.23    1.92
   0   4  10   45.24    1.74
   1  -4  10   -0.45    0.21
   1  -4  10    0.15    0.27
  -1  -4 -10   -0.43    0.19
  -1   4 -10    0.04    0.28
   1   4  10   -0.45    0.26
   1   4  10   -0.29    0.19
   2  -4  10    7.68    0.70
  -2  -4 -10    8.04    0.54
   2  -4  10    8.39    0.57
   2   4  10    7.89    0.57
   2   4  10    8.25    0.67
  -2   4 -10    8.77    0.64
   3  -4  10    0.22    0.35
   3  -4  10   -0.06    0.41
  -3  -4 -10    0.24    0.26
  -3   4 -10   -0.18    0.32
   3   4  10    0.27    0.28
   3   4  10   -0.05    0.25
  -4  -4 -10    0.05    0.20
   4  -4  10   -0.33    0.24
   4  -4  10   -0.23    0.31
   4   4  10   -0.11    0.29
  -4   4 -10   -0.38    0.22
   4   4  10    0.17    0.29
   5  -4  10   -0.54    0.45
   5  -4  10   -0.41    0.34
  -5  -4 -10    0.13    0.30
   5   4  10   -0.14    0.28
   5   4  10    0.05    0.43
  -5   4 -10    0.06    0.27
  -6  -4 -10   -0.04    0.34
   6  -4  10   -0.59    0.36
   6  -4  10   -0.50    0.49
   6   4  10   -0.46    0.29
   6   4  10   -0.04    0.36
  -6   4 -10   -0.01    0.37
  -7  -4 -10    3.34    0.51
   7  -4  10    3.21    0.59
   7  -4  10    2.72    0.54
  -7   4 -10    2.40    0.45
   7   4  10    3.45    0.62
   7   4  10    2.75    0.61
   8  -4  10    0.23    0.44
  -8  -4 -10    0.22    0.32
   8  -4  10    0.34    0.59
   8   4  10   -0.25    0.34
  -8   4 -10    0.47    0.47
   8   4  10    0.26    0.44
   9  -4  10    0.32    0.48
  -9  -4 -10   -0.32    0.45
   9  -4  10    0.30    0.64
  -9   4 -10    0.60    0.50
   9   4  10   -0.61    0.53
   9   4  10    0.11    0.64
  10   4  10   -0.17    0.54
 -12  -5  10    0.00    0.31
 -11  -5  10    0.51    0.29
  11  -5 -10    0.41    0.39
  11   5 -10    0.74    0.45
  11   5 -10    0.30    0.44
  10  -5 -10    0.21    0.36
 -10  -5  10    0.36    0.27
  10   5 -10   -0.13    0.48
  10   5 -10   -0.06    0.39
   9  -5 -10    1.21    0.42
  -9  -5  10    1.14    0.32
   9   5 -10    1.10    0.52
   9   5 -10    0.81    0.42
   8  -5 -10    0.21    0.34
  -8  -5  10   -0.11    0.24
   8   5 -10    0.26    0.34
   8   5 -10   -0.10    0.36
  -7  -5  10    5.10    0.40
   7   5 -10    5.20    0.72
   7   5 -10    4.74    0.60
  -6  -5  10    4.37    0.40
  -6  -5  10    4.35    0.42
   6  -5 -10    4.57    0.23
   6   5 -10    3.85    0.53
   6   5 -10    4.36    0.58
   6   5 -10    4.48    0.46
  -5  -5  10   28.90    1.19
  -5  -5  10   29.86    1.19
   5   5 -10   30.27    1.40
   5   5 -10   28.50    1.24
   5   5 -10   28.22    1.54
  -4  -5  10    9.43    0.59
  -4  -5  10    9.33    0.59
  -4   5  10   10.16    0.40
   4   5 -10    8.79    0.80
   4   5 -10    9.51    0.67
  -3  -5  10   57.25    2.16
  -3  -5  10   56.41    2.05
   3   5 -10   57.17    2.48
  -3   5  10   58.12    1.94
  -2  -5  10   11.58    0.70
  -2  -5  10   10.75    0.61
   2   5 -10   11.44    0.81
  -2   5  10   10.92    0.53
   1  -5 -10   40.97    1.51
  -1  -5  10   43.43    1.62
  -1  -5  10   42.36    1.69
  -1   5  10   42.38    1.59
   1   5 -10   41.66    1.88
  -1   5  10   44.68    1.58
   0  -5  10    2.03    0.43
   0  -5 -10    2.01    0.28
   0  -5  10    1.84    0.31
   0   5 -10    1.90    0.35
   0   5  10    2.03    0.32
   0   5  10    2.67    0.36
  -1  -5 -10    7.34    0.48
   1  -5  10    7.87    0.55
   1  -5  10    7.37    0.58
   1   5  10    8.00    0.53
   1   5  10    6.84    0.57
  -1   5 -10    8.13    0.56
  -2  -5 -10    1.11    0.24
   2  -5  10    1.16    0.31
   2  -5  10    1.14    0.43
  -2   5 -10    1.35    0.38
   2   5  10    1.47    0.32
   2   5  10    1.28    0.31
  -2   5 -10    1.21    0.26
   3  -5  10    0.07    0.42
  -3  -5 -10    0.38    0.20
   3  -5  10   -0.08    0.34
   3   5  10    0.40    0.37
   3   5  10    0.28    0.36
  -3   5 -10    0.38    0.20
  -3   5 -10    0.22    0.35
  -4  -5 -10    0.00    0.27
   4  -5  10    0.20    0.36
   4  -5  10   -0.49    0.42
   4   5  10   -0.20    0.40
   4   5  10   -0.38    0.36
  -4   5 -10   -0.21    0.25
   5  -5  10   -0.23    0.36
  -5  -5 -10    0.18    0.30
   5   5  10   -0.25    0.31
  -5   5 -10    0.06    0.27
   5   5  10   -0.89    0.35
   6  -5  10    0.01    0.29
   6  -5  10   -0.47    0.49
  -6  -5 -10   -0.61    0.31
   6   5  10   -0.26    0.35
   6   5  10   -0.29    0.42
  -6   5 -10   -0.35    0.38
  -7  -5 -10    0.78    0.42
   7  -5  10    0.46    0.56
   7  -5  10    1.06    0.47
  -7   5 -10    0.81    0.45
   7   5  10    1.08    0.41
   7   5  10    1.00    0.46
   8  -5  10    0.80    0.61
  -8  -5 -10    0.21    0.32
   8  -5  10    0.52    0.45
  -8   5 -10    0.76    0.49
   8   5  10    1.33    0.52
   8   5  10    1.88    0.60
  -9  -5 -10   -0.37    0.43
   9  -5  10    0.09    0.47
   9   5  10    0.18    0.57
  -9   5 -10    0.93    0.52
   9   5  10    0.90    0.68
  11  -6 -10   -0.31    0.34
 -11  -6  10    0.16    0.30
  11   6 -10   -0.33    0.51
  11   6 -10    0.29    0.47
  10  -6 -10    0.09    0.35
 -10  -6  10   -0.15    0.29
  10   6 -10    0.28    0.49
  10   6 -10   -0.31    0.38
  -9  -6  10    9.21    0.63
   9  -6 -10    9.26    0.84
   9   6 -10    8.92    0.91
   9   6 -10    7.63    0.82
  -8  -6  10    0.28    0.28
   8  -6 -10   -0.19    0.31
   8   6 -10   -0.10    0.31
   8   6 -10    1.16    0.46
  -7  -6  10    0.99    0.31
   7   6 -10    0.84    0.43
   7   6 -10    0.31    0.44
  -6  -6  10    5.83    0.50
  -6  -6  10    5.38    0.46
   6   6 -10    5.51    0.66
   6   6 -10    5.67    0.53
   6   6 -10    5.23    0.59
  -5  -6  10    1.09    0.32
  -5  -6  10    1.90    0.33
   5   6 -10    1.87    0.49
   5   6 -10    1.76    0.31
   5   6 -10    1.39    0.44
  -4  -6  10    1.17    0.27
  -4  -6  10    1.68    0.29
  -4   6  10    1.64    0.15
   4   6 -10    1.31    0.43
   4   6 -10    1.33    0.42
  -3  -6  10    2.79    0.40
  -3  -6  10    3.15    0.42
   3   6 -10    3.29    0.52
   3   6 -10    3.20    0.45
  -3   6  10    3.51    0.28
  -2  -6  10   14.72    0.79
  -2  -6  10   15.53    0.82
   2   6 -10   13.72    0.91
  -2   6  10   14.01    0.66
  -1  -6  10   26.98    1.18
  -1  -6  10   24.98    1.07
  -1   6  10   25.42    1.02
   1   6 -10   22.58    1.24
   0  -6 -10   14.83    0.66
   0  -6  10   14.11    0.75
   0  -6  10   15.10    0.87
   0   6  10   14.81    0.74
   0   6 -10   14.82    0.85
   0   6  10   14.00    0.74
   1  -6  10   -0.03    0.36
  -1  -6 -10    0.65    0.22
   1  -6  10    0.44    0.25
  -1   6 -10    0.49    0.24
   1   6  10    0.51    0.29
   1   6  10    0.25    0.23
   2  -6  10    0.81    0.29
  -2  -6 -10    1.20    0.29
   2  -6  10    1.34    0.35
  -2   6 -10    1.16    0.25
   2   6  10    1.22    0.37
   2   6  10    1.09    0.37
  -3  -6 -10    5.04    0.48
   3  -6  10    6.41    0.61
   3  -6  10    5.81    0.58
   3   6  10    4.94    0.53
  -3   6 -10    5.65    0.61
  -3   6 -10    5.68    0.44
   3   6  10    5.64    0.63
   4  -6  10   -0.28    0.35
  -4  -6 -10   -0.07    0.19
   4  -6  10   -0.57    0.42
   4   6  10   -0.07    0.38
  -4   6 -10   -0.31    0.25
   4   6  10    0.02    0.28
   5  -6  10   -0.51    0.46
   5  -6  10   -0.01    0.38
  -5  -6 -10    0.13    0.23
   5   6  10   -0.19    0.32
  -5   6 -10    0.18    0.30
   5   6  10   -0.17    0.29
   6  -6  10    1.60    0.38
  -6  -6 -10    1.20    0.32
   6  -6  10    0.77    0.56
   6   6  10    1.34    0.47
   6   6  10    0.96    0.51
  -6   6 -10    1.05    0.46
   7  -6  10    1.08    0.61
   7  -6  10    1.07    0.45
  -7  -6 -10    0.96    0.43
  -7   6 -10    0.75    0.47
   7   6  10    1.28    0.44
   7   6  10    1.43    0.50
   8  -6  10    2.49    0.59
  -8  -6 -10    2.25    0.43
   8  -6  10    2.26    0.54
   8   6  10    3.92    0.68
  -8   6 -10    3.67    0.63
   8   6  10    3.46    0.68
  -9  -6 -10    1.68    0.53
   9   6  10    0.61    0.56
   9   6  10    1.53    0.72
 -11  -7  10    1.17    0.39
  11   7 -10    1.28    0.59
  10  -7 -10    2.31    0.49
 -10  -7  10    2.45    0.42
  10   7 -10    2.22    0.58
  10   7 -10    2.64    0.61
   9  -7 -10   -0.44    0.31
  -9  -7  10   -0.06    0.22
   9   7 -10   -0.13    0.35
   9   7 -10    0.11    0.35
  -8  -7  10   -0.37    0.27
   8  -7 -10   -0.26    0.32
   8   7 -10    0.02    0.31
   8   7 -10   -0.54    0.44
  -7  -7  10    8.59    0.62
   7   7 -10    8.71    0.74
   7   7 -10    7.70    0.81
  -6  -7  10    1.88    0.36
  -6  -7  10    1.80    0.34
   6   7 -10    1.87    0.43
   6   7 -10    1.08    0.30
   6   7 -10    1.60    0.41
  -5  -7  10   -0.21    0.20
  -5  -7  10    0.16    0.29
   5   7 -10    0.10    0.28
   5   7 -10   -0.03    0.30
   5   7 -10    0.15    0.30
  -4  -7  10    6.96    0.51
  -4  -7  10    6.96    0.58
   4   7 -10    7.35    0.77
   4   7 -10    6.30    0.63
  -4   7  10    7.26    0.30
  -3  -7  10   -0.07    0.23
  -3  -7  10    0.42    0.24
   3   7 -10   -0.15    0.39
  -3   7  10   -0.06    0.15
   3   7 -10   -0.19    0.30
  -2  -7  10    0.68    0.27
  -2  -7  10    0.62    0.27
   2   7 -10    0.27    0.31
  -2   7  10    0.58    0.21
   2   7 -10    0.48    0.32
  -1  -7  10    9.59    0.66
  -1  -7  10    8.50    0.68
   1   7 -10    7.88    0.67
  -1   7  10    8.34    0.52
   0  -7  10    0.54    0.29
   0  -7  10    0.16    0.24
   0   7 -10    0.71    0.27
   0   7  10    0.05    0.24
   1  -7  10   13.71    0.77
  -1  -7 -10   14.09    0.68
   1  -7  10   16.23    0.93
   1   7  10   14.24    0.79
  -1   7 -10   13.75    0.80
   1   7  10   16.09    0.82
  -2  -7 -10    2.20    0.29
   2  -7  10    2.39    0.44
   2  -7  10    1.58    0.39
  -2   7 -10    1.98    0.30
   2   7  10    1.64    0.40
   2   7  10    1.82    0.41
  -3  -7 -10    4.71    0.47
   3  -7  10    4.18    0.53
   3  -7  10    4.79    0.50
   3   7  10    5.03    0.59
   3   7  10    4.69    0.59
  -4  -7 -10    3.03    0.37
   4  -7  10    2.79    0.59
   4  -7  10    1.63    0.44
  -4   7 -10    2.81    0.44
   4   7  10    3.15    0.56
   4   7  10    2.88    0.53
  -5  -7 -10    0.77    0.28
   5  -7  10    0.70    0.42
   5  -7  10    0.48    0.39
   5   7  10    0.78    0.39
   5   7  10    0.99    0.38
  -5   7 -10    0.76    0.35
   6  -7  10   -0.70    0.35
  -6  -7 -10   -0.26    0.24
   6  -7  10    0.20    0.31
  -6   7 -10   -0.19    0.40
   6   7  10   -0.24    0.34
   6   7  10    0.07    0.45
   7  -7  10    0.47    0.45
  -7  -7 -10   -0.17    0.39
   7  -7  10   -0.28    0.52
  -7   7 -10   -0.06    0.46
   7   7  10   -0.12    0.36
   7   7  10    0.49    0.42
   8  -7  10    0.79    0.49
  -8  -7 -10    0.61    0.34
   8   7  10    2.01    0.70
  -8   7 -10    0.51    0.48
   8   7  10    0.90    0.58
  -9  -7 -10   -0.25    0.46
   9   7  10    0.69    0.52
  10  -8 -10    5.00    0.71
 -10  -8  10    5.29    0.53
  10   8 -10    4.92    0.79
  10   8 -10    5.36    0.91
   9  -8 -10    3.37    0.54
  -9  -8  10    3.63    0.44
   9   8 -10    4.20    0.71
   9   8 -10    4.44    0.80
  -8  -8  10    4.64    0.48
   8   8 -10    3.49    0.71
   8   8 -10    4.96    0.74
  -7  -8  10    0.64    0.27
   7   8 -10   -0.05    0.45
   7   8 -10    0.76    0.39
  -6  -8  10    0.41    0.31
  -6  -8  10   -0.03    0.23
   6   8 -10    0.43    0.34
   6   8 -10    0.48    0.35
   6   8 -10    0.41    0.34
  -5  -8  10    0.29    0.24
  -5  -8  10   -0.14    0.29
   5   8 -10    0.68    0.36
   5   8 -10    0.38    0.33
   5   8 -10    0.41    0.32
  -4  -8  10   -0.13    0.31
  -4  -8  10    0.13    0.23
   4   8 -10    0.14    0.43
   4   8 -10   -0.07    0.33
   4   8 -10   -0.05    0.31
  -4   8  10    0.03    0.09
  -3  -8  10    8.03    0.57
  -3  -8  10    7.76    0.63
  -3   8  10    7.70    0.41
   3   8 -10    8.19    0.71
   3   8 -10    7.34    0.75
  -2  -8  10    0.09    0.32
  -2  -8  10    0.22    0.26
  -2   8  10    0.22    0.21
   2   8 -10    0.00    0.23
   2   8 -10    0.11    0.43
  -1  -8  10    1.61    0.33
  -1  -8  10    1.29    0.33
   1   8 -10    1.02    0.33
  -1   8  10    1.18    0.27
   0  -8  10    3.52    0.42
   0  -8  10    4.47    0.56
   0   8  10    3.63    0.41
   0   8 -10    2.79    0.40
   1  -8  10   -0.01    0.29
   1  -8  10   -0.21    0.24
  -1   8 -10   -0.03    0.22
   1   8  10    0.00    0.28
   2  -8  10    0.98    0.37
   2  -8  10    0.87    0.39
   2   8  10    1.17    0.39
   3  -8  10   -0.13    0.32
  -3  -8 -10   -0.04    0.25
   3  -8  10    0.32    0.27
   3   8  10    0.27    0.37
   3   8  10   -0.14    0.36
  -4  -8 -10    3.02    0.38
   4  -8  10    3.89    0.65
   4  -8  10    3.53    0.53
   4   8  10    3.93    0.60
   4   8  10    3.86    0.59
  -5  -8 -10   -0.36    0.22
   5  -8  10   -0.08    0.35
   5  -8  10    0.01    0.38
   5   8  10   -0.31    0.30
  -5   8 -10   -0.08    0.30
   5   8  10   -0.50    0.39
   6  -8  10    0.44    0.33
   6  -8  10    0.34    0.41
  -6  -8 -10   -0.06    0.36
   6   8  10    0.22    0.48
  -6   8 -10   -0.12    0.41
   6   8  10   -0.28    0.48
   7  -8  10    0.40    0.60
  -7  -8 -10   -0.22    0.40
   7  -8  10    0.61    0.46
   7   8  10    0.76    0.43
  -7   8 -10    0.83    0.50
   7   8  10    0.43    0.54
   8  -8  10    1.68    0.71
  -8  -8 -10    0.62    0.46
   8   8  10    2.24    0.64
   9  -9 -10    0.27    0.35
  -9  -9  10    0.08    0.35
   9   9 -10    0.22    0.52
   9   9 -10   -0.10    0.40
  -8  -9  10    3.23    0.50
   8   9 -10    2.44    0.57
   8   9 -10    3.21    0.59
  -7  -9  10   -0.07    0.34
   7   9 -10    0.31    0.36
   7   9 -10   -0.05    0.47
  -6  -9  10    3.64    0.49
  -6  -9  10    3.24    0.48
   6   9 -10    3.87    0.49
   6   9 -10    2.80    0.55
   6   9 -10    3.29    0.58
  -5  -9  10    6.27    0.53
  -5  -9  10    7.38    0.63
   5   9 -10    5.34    0.57
   5   9 -10    6.07    0.75
   5   9 -10    6.05    0.77
  -4  -9  10    4.33    0.47
  -4  -9  10    4.90    0.48
   4   9 -10    3.99    0.61
   4   9 -10    3.76    0.57
   4   9 -10    3.51    0.48
  -3  -9  10    0.19    0.26
  -3  -9  10   -0.19    0.33
   3   9 -10   -0.27    0.44
  -3   9  10   -0.11    0.16
   3   9 -10   -0.11    0.34
  -2  -9  10    1.03    0.33
  -2  -9  10    1.16    0.32
   2   9 -10    1.69    0.53
  -2   9  10    0.99    0.25
   2   9 -10    1.32    0.42
  -1  -9  10    0.45    0.27
  -1  -9  10    0.83    0.40
   1   9 -10    0.51    0.46
   1   9 -10    0.35    0.32
  -1   9  10    0.43    0.26
   0  -9  10    6.13    0.58
   0  -9  10    7.16    0.56
   0   9 -10    6.40    0.57
   0   9  10    6.69    0.54
   1  -9  10    2.21    0.39
   1  -9  10    2.30    0.51
   1   9  10    2.81    0.43
   2  -9  10    7.66    0.77
   2  -9  10    7.92    0.70
   2   9  10    8.01    0.69
   3  -9  10    1.64    0.37
   3  -9  10    1.67    0.54
   3   9  10    2.78    0.50
   4  -9  10    2.80    0.51
   4  -9  10    2.54    0.50
   4   9  10    3.36    0.57
   5  -9  10    0.55    0.33
   5  -9  10    0.44    0.39
   5   9  10    0.13    0.34
   6  -9  10    0.26    0.42
  -6  -9 -10   -0.15    0.37
   6  -9  10    1.06    0.37
   6   9  10    0.21    0.50
  -7  -9 -10   -0.15    0.30
   7  -9  10    0.50    0.47
   7   9  10    0.03    0.37
  -8  -9 -10    0.67    0.48
  -9 -10  10    1.92    0.48
   9  10 -10    2.32    0.68
   9  10 -10    1.74    0.72
  -8 -10  10    2.65    0.49
   8  10 -10    1.50    0.61
   8  10 -10    2.75    0.68
  -7 -10  10    0.54    0.30
   7  10 -10    1.79    0.58
   7  10 -10    0.54    0.41
  -6 -10  10    1.50    0.43
  -6 -10  10    1.84    0.45
   6  10 -10    2.37    0.50
   6  10 -10    2.40    0.58
   6  10 -10    1.74    0.49
  -5 -10  10    5.30    0.59
  -5 -10  10    6.18    0.55
   5  10 -10    5.49    0.60
   5  10 -10    5.94    0.77
   5  10 -10    6.01    0.80
  -4 -10  10   25.18    1.17
  -4 -10  10   22.58    1.13
   4  10 -10   23.81    1.42
   4  10 -10   24.77    1.35
   4  10 -10   21.44    1.16
  -3 -10  10    0.06    0.26
  -3 -10  10    0.03    0.28
   3  10 -10   -0.21    0.33
   3  10 -10   -0.36    0.30
  -3  10  10   -0.07    0.18
  -2 -10  10    0.64    0.41
  -2 -10  10    0.77    0.39
   2  10 -10    0.61    0.39
  -2  10  10    0.47    0.25
   2  10 -10    0.33    0.37
  -1 -10  10    3.33    0.49
  -1 -10  10    2.43    0.50
  -1  10  10    2.80    0.36
   1  10 -10    2.00    0.41
   1  10 -10    2.39    0.52
   0 -10  10    0.27    0.41
   0 -10  10    0.01    0.36
   0  10 -10    0.47    0.31
   0  10  10    0.74    0.30
   0  10 -10    0.44    0.49
   1 -10  10    1.10    0.34
   1 -10  10    1.11    0.40
  -1  10 -10    1.08    0.44
   1  10  10    0.85    0.35
   2 -10  10    0.83    0.40
   2 -10  10    1.92    0.38
   2  10  10    2.15    0.46
   3 -10  10    1.26    0.36
   3 -10  10    0.77    0.52
   3  10  10    0.76    0.42
   4 -10  10    5.82    0.68
   4 -10  10    6.59    0.67
   4  10  10    6.07    0.71
   5 -10  10    1.15    0.36
   5 -10  10    0.12    0.52
   5  10  10    0.69    0.47
   6 -10  10    0.04    0.59
   6  10  10   -0.07    0.49
  -8 -11  10    2.68    0.52
   8  11 -10    3.51    0.80
   8  11 -10    2.87    0.74
  -7 -11  10    1.48    0.46
   7  11 -10    0.86    0.49
   7  11 -10    1.63    0.59
  -6 -11  10    1.18    0.44
  -6 -11  10    1.24    0.42
   6  11 -10    0.91    0.45
   6  11 -10    1.71    0.57
   6  11 -10    1.49    0.41
  -5 -11  10   -0.20    0.40
  -5 -11  10   -0.19    0.27
   5  11 -10    0.00    0.40
   5  11 -10   -0.37    0.40
   5  11 -10    0.16    0.53
  -4 -11  10    4.64    0.60
  -4 -11  10    3.69    0.55
   4  11 -10    3.02    0.50
   4  11 -10    3.67    0.72
   4  11 -10    3.31    0.62
  -3 -11  10    1.67    0.40
  -3 -11  10    1.76    0.37
   3  11 -10    1.56    0.47
   3  11 -10    2.34    0.63
   3  11 -10    1.70    0.50
  -3  11  10    1.79    0.26
  -2 -11  10    5.18    0.62
  -2 -11  10    4.16    0.49
   2  11 -10    4.52    0.75
  -2  11  10    3.56    0.38
   2  11 -10    3.43    0.54
  -1 -11  10    0.44    0.30
  -1 -11  10    0.57    0.33
  -1  11  10    0.32    0.28
   1  11 -10    0.46    0.41
   1  11 -10    0.11    0.29
   0 -11  10   -0.17    0.42
   0 -11  10   -0.22    0.26
   0  11  10    0.05    0.28
   0  11 -10   -0.34    0.35
   1 -11  10    1.99    0.56
   1 -11  10    1.32    0.46
   1  11  10    1.25    0.39
  -1  11 -10    1.67    0.60
   2 -11  10    1.97    0.47
   2 -11  10    2.17    0.42
   2  11  10    2.42    0.48
  -2  11 -10    1.50    0.62
   3 -11  10    0.44    0.33
   3 -11  10    0.09    0.37
   3  11  10    0.17    0.41
   4 -11  10    1.41    0.47
   4 -11  10    0.87    0.57
   4  11  10    0.52    0.36
   5 -11  10    2.02    0.44
   5 -11  10    3.12    0.73
   5  11  10    2.71    0.60
   6 -11  10   -0.92    0.55
  -7 -12  10   -0.48    0.41
   7  12 -10   -0.35    0.50
   7  12 -10    0.09    0.43
  -6 -12  10    1.43    0.49
  -6 -12  10    1.61    0.40
   6  12 -10    2.32    0.49
   6  12 -10    1.10    0.56
   6  12 -10    1.65    0.54
  -5 -12  10    5.76    0.63
  -5 -12  10    5.45    0.59
   5  12 -10    4.59    0.80
   5  12 -10    5.24    0.72
   5  12 -10    5.91    0.74
  -4 -12  10    2.16    0.50
  -4 -12  10    2.14    0.53
   4  12 -10    1.65    0.52
   4  12 -10    2.19    0.46
   4  12 -10    1.58    0.50
  -3 -12  10    3.76    0.56
  -3 -12  10    2.94    0.49
   3  12 -10    2.47    0.54
   3  12 -10    3.41    0.62
   3  12 -10    3.20    0.52
  -3  12  10    4.28    0.36
  -2 -12  10    1.25    0.49
  -2 -12  10    1.95    0.47
   2  12 -10    1.11    0.42
  -2  12  10    1.35    0.29
   2  12 -10    2.02    0.53
  -1 -12  10    3.97    0.57
  -1 -12  10    4.10    0.63
  -1  12  10    4.06    0.43
   1  12 -10    4.05    0.73
   0 -12  10    2.12    0.45
   0 -12  10    1.45    0.38
   0  12 -10    2.19    0.53
   0  12  10    1.14    0.35
   1 -12  10    1.49    0.53
   1 -12  10    1.98    0.49
   1  12  10    1.49    0.44
  -1  12 -10    1.97    0.64
   2 -12  10   -0.11    0.51
   2 -12  10    0.18    0.31
  -2  12 -10    0.52    0.55
   2  12  10    0.39    0.37
   3 -12  10   -0.50    0.40
   3 -12  10    0.20    0.39
   3  12  10    0.28    0.41
  -3  12 -10   -0.46    0.50
   4 -12  10    1.60    0.49
   4 -12  10    1.70    0.64
   4  12  10    1.94    0.55
   5 -12  10    0.87    0.64
   5  12  10    0.84    0.42
   7  13 -10    0.67    0.63
  -6 -13  10   -0.18    0.43
  -6 -13  10   -0.41    0.29
   6  13 -10    0.33    0.50
   6  13 -10   -0.12    0.51
   6  13 -10    0.09    0.47
  -5 -13  10    0.19    0.46
  -5 -13  10    0.09    0.42
   5  13 -10    0.15    0.47
   5  13 -10   -0.63    0.43
   5  13 -10   -0.33    0.44
  -4 -13  10    2.22    0.55
  -4 -13  10    2.60    0.53
   4  13 -10    1.46    0.51
   4  13 -10    1.83    0.46
   4  13 -10    1.02    0.53
  -3 -13  10    0.24    0.35
  -3 -13  10    1.22    0.47
   3  13 -10    0.26    0.43
   3  13 -10    0.42    0.38
   3  13 -10    0.13    0.54
  -2 -13  10    1.89    0.42
  -2 -13  10    1.43    0.50
  -2  13  10    2.16    0.33
   2  13 -10    2.62    0.68
   2  13 -10    2.20    0.48
  -1 -13  10    0.37    0.49
  -1 -13  10    0.59    0.34
   1  13 -10    0.52    0.43
  -1  13  10    0.31    0.30
   0 -13  10    1.78    0.55
   0 -13  10    1.45    0.49
   0  13 -10    1.98    0.65
   0  13  10    1.47    0.41
   1 -13  10    2.12    0.61
   1 -13  10    2.66    0.47
   1  13  10    2.17    0.45
  -1  13 -10    2.36    0.69
   2 -13  10    0.56    0.45
   2 -13  10   -0.16    0.39
  -2  13 -10    0.11    0.53
   2  13  10   -0.06    0.38
   3 -13  10    0.13    0.59
   3 -13  10    0.63    0.46
   3  13  10    1.14    0.47
  -5 -14  10   -0.09    0.50
   5  14 -10    0.17    0.36
   5  14 -10   -0.18    0.54
   5  14 -10    0.32    0.48
  -4 -14  10   -0.01    0.31
  -4 -14  10    0.45    0.49
   4  14 -10    0.01    0.36
   4  14 -10    0.39    0.64
  -3 -14  10    3.92    0.55
  -3 -14  10    3.62    0.57
   3  14 -10    4.23    0.83
   3  14 -10    4.57    0.63
  -2 -14  10   -0.03    0.43
  -2 -14  10    0.40    0.39
   2  14 -10    0.39    0.36
  -2  14  10    0.18    0.26
   2  14 -10    0.24    0.41
  -1 -14  10    3.51    0.60
  -1 -14  10    1.94    0.49
   1  14 -10    2.37    0.70
   1  14 -10    3.03    0.66
  -1  14  10    2.74    0.43
   0 -14  10   -0.08    0.38
   0 -14  10    0.20    0.32
   0  14 -10   -0.06    0.56
   0  14  10    0.43    0.32
   1 -14  10    2.61    0.55
   1 -14  10    0.93    0.59
   1  14  10    1.13    0.40
  -1  14 -10    0.27    0.55
   2 -14  10    0.39    0.60
   2 -14  10   -0.47    0.42
   2  14  10    0.45    0.39
  -3 -15  10    0.22    0.41
   3  15 -10    0.01    0.47
  -2 -15  10    1.32    0.48
  -2 -15  10    1.72    0.55
   2  15 -10    0.92    0.68
  -1 -15  10    0.16    0.41
  -1 -15  10    0.19    0.34
   1  15 -10   -0.46    0.58
  -1  15  10    0.15    0.32
   0 -15  10   -0.39    0.44
   0  15  10    0.11    0.31
   0  15 -10   -0.71    0.35
  12   0 -11   -0.64    0.42
  11   0 -11    8.36    0.88
  10   0 -11   -0.21    0.27
  10   0 -11    0.47    0.36
   9   0 -11   31.84    1.40
   9   0 -11   32.83    1.81
  -9   0  11   33.53    1.19
   8   0 -11    0.38    0.41
  -8   0  11   -0.07    0.16
   8   0 -11   -0.17    0.25
   7   0 -11   14.32    0.76
   7   0 -11   14.83    1.00
  -7   0  11   15.73    0.63
   6   0 -11   -0.10    0.20
   6   0 -11    0.15    0.34
  -6   0  11    0.31    0.17
  -5   0  11   82.64    2.77
   5   0 -11   82.51    3.45
  -4   0  11   -0.16    0.16
  -3   0  11    1.08    0.23
  -3   0  11    0.82    0.19
  -2   0  11   -0.45    0.23
  -2   0  11   -0.74    0.19
   1   0 -11   48.70    1.83
  -1   0  11   53.38    1.85
  -1   0  11   49.81    1.91
   0   0 -11    0.47    0.26
   0   0  11    0.93    0.34
   1   0  11    5.58    0.53
   1   0  11    5.61    0.57
  -1   0 -11    5.55    0.43
   2   0  11   -0.04    0.24
  -2   0 -11   -0.37    0.17
   2   0  11   -1.13    0.30
  -3   0 -11    1.14    0.35
   3   0  11    1.31    0.47
   3   0  11    1.33    0.42
   4   0  11    0.12    0.28
  -4   0 -11   -0.12    0.30
   4   0  11   -0.15    0.29
   5   0  11   11.08    0.84
  -5   0 -11   10.36    0.75
   5   0  11   10.52    0.82
  -6   0 -11    0.00    0.26
   6   0  11   -0.06    0.36
   6   0  11   -0.15    0.30
   7   0  11   -0.12    0.32
   7   0  11   -0.41    0.53
  -7   0 -11   -0.07    0.28
  -8   0 -11    0.15    0.32
   8   0  11    0.12    0.60
   8   0  11    0.16    0.38
   9   0  11    1.59    0.61
   9   0  11    1.16    0.75
  -9   0 -11    1.66    0.45
  12  -1 -11    0.94    0.52
  12   1 -11    0.93    0.55
  11  -1 -11    5.71    0.76
  11   1 -11    6.14    0.63
  11   1 -11    4.73    0.80
 -10  -1  11   -0.21    0.18
  10  -1 -11    0.11    0.41
  10   1 -11    0.70    0.33
  10   1 -11    0.17    0.34
   9  -1 -11   12.58    1.04
   9  -1 -11   12.40    0.69
  -9  -1  11   12.61    0.59
   9   1 -11   12.05    0.79
   9   1 -11   11.88    0.98
   8  -1 -11    5.77    0.67
   8  -1 -11    5.81    0.47
  -8  -1  11    5.68    0.38
   8   1 -11    5.32    0.65
  -8   1  11    5.40    0.31
   8   1 -11    5.57    0.55
   7  -1 -11    8.23    0.79
  -7  -1  11    6.81    0.42
   7  -1 -11    7.55    0.51
  -7   1  11    7.13    0.36
   7   1 -11    6.63    0.53
   7   1 -11    7.62    0.80
   6  -1 -11    0.81    0.32
   6  -1 -11    1.09    0.26
  -6  -1  11    1.20    0.23
   6   1 -11    1.40    0.30
  -6   1  11    1.24    0.19
   6   1 -11    1.58    0.44
  -5  -1  11    2.15    0.26
  -5   1  11    2.94    0.27
   5   1 -11    2.05    0.40
  -4  -1  11    2.83    0.31
  -4  -1  11    2.54    0.26
  -4   1  11    2.46    0.25
   4   1 -11    1.64    0.36
  -3  -1  11   28.35    1.10
  -3  -1  11   27.37    1.13
  -3   1  11   28.18    1.08
  -3   1  11   29.15    1.08
  -2  -1  11    1.43    0.29
  -2  -1  11    1.44    0.28
   2  -1 -11    0.91    0.25
  -2   1  11    1.51    0.26
  -2   1  11    1.76    0.26
  -1  -1  11   15.09    0.72
   1  -1 -11   11.96    0.65
  -1  -1  11   12.95    0.72
  -1   1  11   13.96    0.70
   1   1 -11   13.09    0.66
  -1   1  11   14.06    0.70
   0  -1  11  111.89    3.94
   0  -1 -11  109.45    3.72
   0  -1  11  111.12    3.74
   0   1  11  111.38    3.74
   0   1  11  109.76    3.92
   0   1 -11  107.22    3.74
  -1  -1 -11    0.08    0.19
   1  -1  11   -0.07    0.35
   1  -1  11   -0.07    0.32
   1   1  11    0.21    0.32
  -1   1 -11   -0.01    0.19
   1   1  11    0.10    0.25
   2  -1  11    0.59    0.28
   2  -1  11    0.61    0.31
  -2  -1 -11    1.17    0.26
  -2   1 -11    1.03    0.27
   2   1  11    0.66    0.40
   2   1  11    0.40    0.35
   3  -1  11   -0.36    0.28
   3  -1  11   -0.73    0.33
  -3  -1 -11   -0.30    0.25
  -3   1 -11   -0.52    0.27
   3   1  11   -0.40    0.33
   3   1  11   -0.42    0.36
  -4  -1 -11    0.06    0.31
   4  -1  11   -0.32    0.26
   4  -1  11   -0.26    0.42
   4   1  11   -0.48    0.39
   4   1  11   -0.17    0.26
  -4   1 -11   -0.19    0.22
  -5  -1 -11    5.33    0.52
   5  -1  11    7.21    0.78
   5  -1  11    5.46    0.58
   5   1  11    7.18    0.70
  -5   1 -11    5.20    0.59
   5   1  11    6.57    0.78
  -6  -1 -11    4.53    0.56
   6  -1  11    4.51    0.72
   6  -1  11    5.31    0.59
   6   1  11    4.59    0.63
   6   1  11    6.00    0.77
  -6   1 -11    3.83    0.50
   7  -1  11    0.74    0.45
   7  -1  11    0.59    0.49
  -7  -1 -11    0.80    0.44
   7   1  11    0.70    0.57
  -7   1 -11    0.30    0.42
   7   1  11    0.24    0.48
  -8  -1 -11   -0.07    0.44
   8  -1  11    0.02    0.36
   8  -1  11    0.15    0.45
   8   1  11    0.83    0.60
  -8   1 -11    0.06    0.45
   8   1  11    0.25    0.52
   9  -1  11    1.00    0.55
  -9  -1 -11    1.98    0.55
   9  -1  11    1.41    0.47
   9   1  11    2.53    0.77
   9   1  11    1.93    0.51
  -9   1 -11    1.25    0.52
  12  -2 -11    6.32    0.85
  12   2 -11    6.40    0.69
 -11  -2  11    9.03    0.53
  11  -2 -11    9.73    0.90
  11   2 -11    7.22    0.95
  11   2 -11    8.71    0.76
 -10  -2  11   12.65    0.63
  10  -2 -11   12.14    1.06
  10   2 -11   11.99    0.82
  10   2 -11   14.17    1.19
   9  -2 -11    0.01    0.26
  -9  -2  11    0.19    0.22
   9   2 -11    0.06    0.34
   9   2 -11    0.17    0.45
  -8  -2  11    0.69    0.23
   8  -2 -11    0.81    0.42
   8  -2 -11    0.87    0.22
   8   2 -11    1.37    0.35
   8   2 -11    0.82    0.46
   7  -2 -11    1.33    0.24
  -7  -2  11    1.10    0.25
   7  -2 -11    1.21    0.35
  -7   2  11    1.48    0.15
   7   2 -11    0.90    0.43
   7   2 -11    0.50    0.33
  -6  -2  11    1.86    0.29
   6  -2 -11    1.62    0.43
   6  -2 -11    2.18    0.28
   6   2 -11    1.64    0.40
   6   2 -11    1.80    0.36
  -6   2  11    1.94    0.19
  -5  -2  11   21.17    0.88
   5   2 -11   20.87    1.03
   5   2 -11   20.32    1.18
  -5   2  11   20.80    0.78
  -4  -2  11    1.35    0.27
  -4  -2  11    1.43    0.24
  -4   2  11    1.61    0.22
   4   2 -11    0.91    0.32
  -3  -2  11   14.54    0.70
  -3  -2  11   14.14    0.66
   3   2 -11   14.16    0.89
  -3   2  11   14.85    0.65
  -2  -2  11    8.67    0.55
  -2  -2  11    8.75    0.55
   2  -2 -11    8.33    0.48
  -2   2  11    9.26    0.50
  -2   2  11    8.88    0.47
   1  -2 -11   41.83    1.59
  -1  -2  11   44.90    1.73
  -1  -2  11   44.19    1.63
  -1   2  11   45.62    1.62
  -1   2  11   42.72    1.67
   0  -2 -11   41.39    1.59
   0  -2  11   42.79    1.63
   0  -2  11   41.55    1.71
   0   2  11   44.49    1.70
   0   2 -11   43.16    1.66
   0   2  11   45.36    1.64
   1  -2  11   16.93    0.87
  -1  -2 -11   15.63    0.79
   1  -2  11   16.29    0.81
  -1   2 -11   16.07    0.80
   1   2  11   17.23    0.87
   1   2  11   16.21    0.88
  -2  -2 -11    2.63    0.37
   2  -2  11    2.40    0.48
   2  -2  11    2.57    0.38
   2   2  11    2.74    0.44
   2   2  11    2.52    0.46
  -2   2 -11    2.44    0.35
   3  -2  11    2.53    0.52
  -3  -2 -11    2.65    0.35
   3  -2  11    2.72    0.41
  -3   2 -11    2.23    0.42
   3   2  11    3.30    0.47
   3   2  11    2.66    0.47
  -4  -2 -11    0.74    0.26
   4  -2  11    0.88    0.34
   4  -2  11    0.55    0.47
  -4   2 -11    0.33    0.27
   4   2  11    0.75    0.44
   4   2  11    0.52    0.31
  -5  -2 -11    1.96    0.41
   5  -2  11    1.07    0.35
   5  -2  11    1.36    0.43
   5   2  11    2.49    0.48
  -5   2 -11    0.85    0.31
   5   2  11    1.21    0.47
   6  -2  11    0.78    0.45
  -6  -2 -11    0.37    0.28
   6  -2  11    0.17    0.51
  -6   2 -11    1.25    0.43
   6   2  11    0.15    0.52
   6   2  11   -0.29    0.44
  -7  -2 -11    0.52    0.33
   7  -2  11    0.62    0.47
   7  -2  11    0.23    0.55
  -7   2 -11    1.05    0.37
   7   2  11    0.62    0.39
   7   2  11    1.31    0.49
   8  -2  11    1.62    0.65
  -8  -2 -11    0.27    0.33
   8  -2  11    0.52    0.51
  -8   2 -11    0.28    0.34
   8   2  11    1.09    0.49
   8   2  11    0.36    0.41
  -9  -2 -11    0.74    0.52
   9  -2  11   -0.06    0.64
   9  -2  11   -0.48    0.47
   9   2  11    0.44    0.51
  -9   2 -11   -0.05    0.33
   9   2  11    0.01    0.55
 -12  -3  11   -0.01    0.26
  12  -3 -11   -0.21    0.40
  12   3 -11    0.22    0.37
 -11  -3  11    0.83    0.28
  11  -3 -11    0.45    0.43
  11   3 -11    0.58    0.54
  11   3 -11    1.05    0.44
  10  -3 -11    0.35    0.45
 -10  -3  11    0.55    0.27
  10   3 -11    0.95    0.42
  10   3 -11    0.40    0.50
   9  -3 -11    2.49    0.48
  -9  -3  11    2.65    0.35
   9   3 -11    2.61    0.54
   9   3 -11    2.78    0.49
  -8  -3  11   23.91    0.97
   8  -3 -11   22.24    1.37
   8   3 -11   24.33    1.42
   8   3 -11   22.75    1.18
   7  -3 -11    0.00    0.34
   7  -3 -11    0.34    0.15
  -7  -3  11    0.15    0.21
   7   3 -11   -0.03    0.29
   7   3 -11   -0.29    0.25
   6  -3 -11    3.65    0.32
  -6  -3  11    2.71    0.33
  -6   3  11    3.03    0.19
   6   3 -11    2.71    0.43
   6   3 -11    2.68    0.47
  -5  -3  11    3.37    0.34
  -5  -3  11    3.40    0.35
   5   3 -11    2.50    0.50
  -5   3  11    3.38    0.23
   5   3 -11    3.15    0.43
  -4  -3  11    0.29    0.24
  -4  -3  11    0.26    0.21
  -4   3  11    0.59    0.17
   4   3 -11    0.20    0.34
  -3  -3  11   21.90    0.96
  -3  -3  11   21.93    0.98
  -3   3  11   23.12    0.88
   3   3 -11   23.28    1.25
  -2  -3  11   15.28    0.73
  -2  -3  11   13.92    0.73
   2  -3 -11   14.70    0.67
  -2   3  11   16.42    0.71
  -2   3  11   16.47    0.70
   2   3 -11   15.09    0.96
  -1  -3  11    8.96    0.59
   1  -3 -11    9.44    0.52
  -1  -3  11    9.57    0.58
  -1   3  11   10.41    0.57
  -1   3  11   10.04    0.57
   0  -3  11   66.73    2.35
   0  -3 -11   65.52    2.27
   0  -3  11   66.39    2.47
   0   3 -11   64.13    2.36
   0   3  11   63.83    2.29
   0   3  11   62.27    2.40
   1  -3  11    0.01    0.26
  -1  -3 -11   -0.17    0.23
   1  -3  11    0.35    0.25
   1   3  11   -0.13    0.31
   1   3  11   -0.05    0.23
  -1   3 -11    0.16    0.21
  -2  -3 -11    1.00    0.31
   2  -3  11    1.64    0.46
   2  -3  11    1.78    0.34
   2   3  11    1.74    0.41
  -2   3 -11    1.62    0.32
   2   3  11    1.74    0.41
   3  -3  11   -0.19    0.25
   3  -3  11    0.09    0.42
  -3  -3 -11    0.28    0.27
   3   3  11   -0.31    0.23
  -3   3 -11   -0.35    0.32
   3   3  11   -0.44    0.35
   4  -3  11    4.31    0.57
   4  -3  11    3.73    0.48
  -4  -3 -11    3.20    0.45
   4   3  11    4.13    0.57
   4   3  11    3.75    0.60
  -4   3 -11    3.46    0.45
   5  -3  11    0.02    0.29
  -5  -3 -11    0.23    0.25
   5  -3  11    0.27    0.37
  -5   3 -11   -0.28    0.25
   5   3  11    0.35    0.47
   5   3  11   -0.17    0.29
   6  -3  11   -0.31    0.41
   6  -3  11   -0.13    0.37
  -6  -3 -11   -0.75    0.32
   6   3  11   -0.27    0.33
  -6   3 -11   -0.02    0.38
   6   3  11   -0.33    0.35
   7  -3  11   -0.06    0.43
  -7  -3 -11    0.20    0.41
   7  -3  11    1.04    0.60
   7   3  11    0.70    0.52
  -7   3 -11    0.40    0.34
   7   3  11    0.48    0.46
  -8  -3 -11    0.26    0.33
   8  -3  11   -0.41    0.46
   8  -3  11   -0.25    0.41
   8   3  11    0.12    0.55
   8   3  11    0.27    0.46
  -8   3 -11   -0.14    0.42
  -9  -3 -11   -0.87    0.40
   9  -3  11   -0.41    0.48
   9  -3  11   -0.47    0.50
  -9   3 -11   -0.18    0.49
   9   3  11    0.18    0.56
   9   3  11    0.18    0.53
  12  -4 -11    3.99    0.63
  11  -4 -11    2.50    0.58
 -11  -4  11    2.46    0.38
  11   4 -11    3.51    0.66
  11   4 -11    2.89    0.58
  10  -4 -11    5.89    0.76
 -10  -4  11    7.08    0.54
  10   4 -11    5.02    0.76
  10   4 -11    6.62    0.72
  -9  -4  11    1.94    0.35
   9  -4 -11    1.88    0.45
   9   4 -11    1.58    0.57
   9   4 -11    2.05    0.46
  -8  -4  11    1.70    0.33
   8  -4 -11    1.63    0.39
   8   4 -11    1.89    0.55
   8   4 -11    1.69    0.43
  -7  -4  11   -0.41    0.20
   7  -4 -11   -0.34    0.31
   7   4 -11   -0.23    0.27
   7   4 -11   -0.28    0.29
  -6  -4  11   26.55    1.08
   6   4 -11   26.95    1.46
   6   4 -11   24.86    1.27
  -5  -4  11    0.74    0.23
  -5  -4  11    0.47    0.26
   5   4 -11    1.01    0.27
  -5   4  11    0.95    0.12
   5   4 -11    0.80    0.43
   5   4 -11    0.54    0.35
  -4  -4  11   29.10    1.21
  -4  -4  11   30.73    1.25
  -4   4  11   30.63    1.08
   4   4 -11   31.03    1.57
  -3  -4  11    0.92    0.24
  -3  -4  11    0.96    0.29
   3   4 -11    0.75    0.29
  -3   4  11    1.09    0.20
  -2  -4  11    1.20    0.26
  -2  -4  11    0.81    0.30
  -2   4  11    0.94    0.25
   2   4 -11    1.19    0.36
   1  -4 -11    3.59    0.32
  -1  -4  11    3.14    0.44
  -1  -4  11    2.81    0.36
   1   4 -11    3.09    0.44
  -1   4  11    3.71    0.36
  -1   4  11    4.21    0.40
   0  -4 -11    1.72    0.27
   0  -4  11    1.75    0.39
   0  -4  11    2.22    0.42
   0   4  11    1.69    0.32
   0   4  11    1.86    0.32
   0   4 -11    1.47    0.34
   1  -4  11    2.22    0.47
  -1  -4 -11    2.60    0.34
   1  -4  11    2.00    0.35
   1   4  11    2.48    0.35
  -1   4 -11    3.50    0.41
   1   4  11    3.17    0.41
  -2  -4 -11   14.61    0.77
   2  -4  11   16.10    0.88
   2  -4  11   15.94    0.89
   2   4  11   15.68    0.82
  -2   4 -11   14.75    0.81
   2   4  11   14.80    0.89
   3  -4  11    2.18    0.39
   3  -4  11    2.34    0.53
  -3  -4 -11    2.41    0.38
   3   4  11    2.76    0.43
   3   4  11    2.21    0.41
  -3   4 -11    2.18    0.39
   4  -4  11    5.39    0.56
   4  -4  11    5.25    0.68
  -4  -4 -11    5.81    0.48
   4   4  11    5.60    0.62
  -4   4 -11    4.72    0.53
   4   4  11    5.65    0.63
   5  -4  11    0.43    0.52
  -5  -4 -11    0.07    0.32
   5  -4  11    0.49    0.32
   5   4  11   -0.28    0.41
   5   4  11    0.12    0.46
  -5   4 -11    0.63    0.33
   6  -4  11    1.58    0.61
   6  -4  11    1.74    0.50
  -6  -4 -11    1.75    0.45
  -6   4 -11    1.87    0.42
   6   4  11    1.90    0.56
   6   4  11    2.02    0.51
   7  -4  11    0.33    0.35
  -7  -4 -11    0.06    0.39
   7  -4  11    0.05    0.40
   7   4  11    0.18    0.38
  -7   4 -11   -0.38    0.41
   7   4  11    0.09    0.55
  -8  -4 -11   -0.37    0.42
   8  -4  11   -0.41    0.60
   8  -4  11   -0.22    0.33
   8   4  11   -0.29    0.56
   8   4  11   -1.31    0.48
  -8   4 -11   -0.19    0.46
   9  -4  11    0.00    0.49
  -9  -4 -11    0.33    0.37
   9   4  11    0.21    0.42
   9   4  11    0.52    0.51
 -11  -5  11    0.68    0.31
  11  -5 -11    0.82    0.43
  11   5 -11    1.09    0.52
  11   5 -11    1.40    0.53
  10  -5 -11    0.98    0.45
 -10  -5  11    1.43    0.33
  10   5 -11    0.96    0.59
  10   5 -11    1.54    0.53
   9  -5 -11    0.55    0.32
  -9  -5  11    0.51    0.28
   9   5 -11    0.45    0.41
   9   5 -11    0.70    0.42
   8  -5 -11   19.42    1.17
  -8  -5  11   18.87    0.89
   8   5 -11   20.85    1.39
   8   5 -11   16.62    1.08
  -7  -5  11   -0.40    0.23
   7   5 -11   -0.04    0.41
   7   5 -11   -0.47    0.31
  -6  -5  11    5.80    0.48
   6   5 -11    4.62    0.62
   6   5 -11    5.68    0.59
  -5  -5  11    0.42    0.27
  -5  -5  11    0.34    0.24
   5   5 -11    0.36    0.39
   5   5 -11   -0.03    0.34
   5   5 -11    0.19    0.25
  -5   5  11    0.38    0.08
  -4  -5  11    0.59    0.22
  -4  -5  11    0.59    0.25
  -4   5  11    0.56    0.14
   4   5 -11   -0.21    0.35
   4   5 -11    0.27    0.29
  -3  -5  11    0.93    0.33
  -3  -5  11    1.48    0.28
   3   5 -11    1.85    0.43
  -3   5  11    1.86    0.23
  -2  -5  11    4.18    0.46
  -2  -5  11    3.32    0.44
  -2   5  11    4.69    0.39
   2   5 -11    3.90    0.51
  -1  -5  11    2.01    0.35
  -1  -5  11    2.00    0.40
   1   5 -11    2.17    0.39
  -1   5  11    2.67    0.33
   0  -5  11    2.38    0.43
   0  -5  11    2.10    0.37
   0  -5 -11    2.32    0.30
   0   5  11    2.62    0.33
   0   5  11    2.29    0.35
   0   5 -11    1.12    0.32
  -1  -5 -11    3.36    0.37
   1  -5  11    4.18    0.49
   1  -5  11    4.82    0.47
   1   5  11    4.48    0.48
  -1   5 -11    4.38    0.47
   1   5  11    4.59    0.49
   2  -5  11    3.48    0.50
   2  -5  11    3.86    0.49
  -2  -5 -11    3.16    0.38
  -2   5 -11    3.28    0.38
   2   5  11    3.97    0.45
  -2   5 -11    3.58    0.45
   2   5  11    2.88    0.47
   3  -5  11   -0.07    0.26
  -3  -5 -11   -0.12    0.17
   3  -5  11    0.14    0.32
   3   5  11   -0.27    0.35
   3   5  11   -0.02    0.35
  -3   5 -11   -0.01    0.19
  -3   5 -11    0.01    0.25
   4  -5  11   -0.32    0.26
  -4  -5 -11    0.32    0.30
   4  -5  11   -0.58    0.43
   4   5  11    0.00    0.38
  -4   5 -11   -0.01    0.28
   4   5  11   -0.68    0.36
   5  -5  11    0.74    0.55
   5  -5  11    0.51    0.33
  -5  -5 -11    0.48    0.26
  -5   5 -11    1.12    0.37
   5   5  11    0.47    0.36
   5   5  11    0.55    0.35
  -6  -5 -11    0.35    0.28
   6  -5  11    0.78    0.59
   6  -5  11    0.17    0.43
  -6   5 -11    0.11    0.32
   6   5  11    1.11    0.53
   6   5  11    0.96    0.55
   7  -5  11    0.22    0.60
  -7  -5 -11   -0.43    0.38
   7  -5  11    0.33    0.35
   7   5  11    1.64    0.64
  -7   5 -11   -0.34    0.42
   7   5  11   -0.47    0.49
   8  -5  11    0.50    0.37
   8  -5  11    0.80    0.65
  -8  -5 -11    0.37    0.46
   8   5  11   -0.21    0.53
   8   5  11    0.95    0.51
  -8   5 -11    0.43    0.47
  -9  -5 -11   -0.44    0.30
   9   5  11    0.93    0.55
  11  -6 -11    0.11    0.38
 -11  -6  11   -0.02    0.34
  11   6 -11    0.43    0.50
  10  -6 -11   -0.11    0.26
 -10  -6  11   -0.55    0.28
  10   6 -11   -0.82    0.28
  10   6 -11    0.10    0.43
   9  -6 -11    1.75    0.42
  -9  -6  11    2.38    0.40
   9   6 -11    2.51    0.56
   9   6 -11    1.24    0.60
   8  -6 -11    0.07    0.35
  -8  -6  11   -0.02    0.28
   8   6 -11    0.30    0.37
   8   6 -11    0.48    0.43
  -7  -6  11    0.28    0.29
   7   6 -11    0.63    0.41
   7   6 -11    0.26    0.45
  -6  -6  11    7.26    0.56
   6   6 -11    7.58    0.76
   6   6 -11    6.16    0.63
  -5  -6  11    5.72    0.52
  -5  -6  11    5.84    0.50
   5   6 -11    5.32    0.60
   5   6 -11    5.96    0.68
   5   6 -11    5.72    0.54
  -4  -6  11   15.19    0.78
  -4  -6  11   16.51    0.84
   4   6 -11   15.85    0.95
   4   6 -11   16.08    1.09
  -4   6  11   16.58    0.61
  -3  -6  11    0.42    0.24
  -3  -6  11    0.30    0.23
   3   6 -11    0.38    0.36
   3   6 -11    0.58    0.33
  -3   6  11    0.56    0.19
  -2  -6  11   12.84    0.77
  -2  -6  11   11.95    0.68
   2   6 -11   11.87    0.86
  -2   6  11   12.94    0.60
  -1  -6  11    2.11    0.42
  -1  -6  11    1.93    0.41
   1   6 -11    2.13    0.40
  -1   6  11    2.59    0.35
   0  -6  11   -0.52    0.34
   0  -6  11    0.12    0.25
   0   6 -11   -0.08    0.25
   0   6  11    0.13    0.26
   1  -6  11    0.23    0.29
   1  -6  11    0.49    0.28
   1   6  11   -0.23    0.30
  -1   6 -11    0.03    0.22
  -2  -6 -11    2.21    0.34
   2  -6  11    2.24    0.45
   2  -6  11    2.60    0.51
  -2   6 -11    1.80    0.31
   2   6  11    1.80    0.42
   2   6  11    1.81    0.43
   3  -6  11    6.14    0.64
   3  -6  11    7.59    0.60
  -3  -6 -11    5.85    0.52
  -3   6 -11    6.05    0.61
   3   6  11    6.49    0.58
   3   6  11    7.08    0.69
  -4  -6 -11   -0.37    0.26
   4  -6  11   -0.46    0.25
   4  -6  11    0.00    0.47
   4   6  11    0.40    0.44
   4   6  11   -0.17    0.28
  -4   6 -11   -0.05    0.29
  -5  -6 -11    0.66    0.28
   5  -6  11   -0.73    0.33
   5  -6  11    0.07    0.31
   5   6  11   -0.09    0.32
   5   6  11    0.43    0.37
  -5   6 -11    0.51    0.43
  -6  -6 -11   -0.16    0.25
   6  -6  11   -0.77    0.39
   6  -6  11   -0.64    0.34
  -6   6 -11   -0.21    0.32
   6   6  11   -0.08    0.33
   6   6  11    0.35    0.39
   7  -6  11   -0.02    0.32
   7  -6  11   -0.76    0.54
  -7  -6 -11   -0.50    0.37
   7   6  11    0.38    0.42
  -7   6 -11   -0.06    0.46
   7   6  11    0.39    0.54
   8  -6  11    0.13    0.50
   8  -6  11    1.15    0.41
  -8  -6 -11    0.45    0.45
   8   6  11   -0.24    0.52
   8   6  11    0.54    0.47
  -8   6 -11    0.31    0.37
  10  -7 -11    1.90    0.50
 -10  -7  11    2.01    0.42
  10   7 -11    1.01    0.66
  10   7 -11    1.72    0.55
   9  -7 -11    5.35    0.68
  -9  -7  11    5.00    0.52
   9   7 -11    3.84    0.69
   9   7 -11    5.34    0.69
   8  -7 -11    6.99    0.77
  -8  -7  11    7.86    0.62
   8   7 -11    6.10    0.87
   8   7 -11    6.95    0.75
  -7  -7  11    0.72    0.33
   7   7 -11   -0.12    0.45
   7   7 -11    0.15    0.32
  -6  -7  11    4.00    0.47
   6   7 -11    5.15    0.62
   6   7 -11    4.51    0.64
  -5  -7  11    0.27    0.31
  -5  -7  11    0.08    0.29
   5   7 -11    0.28    0.31
   5   7 -11    0.48    0.26
   5   7 -11   -0.14    0.28
  -4  -7  11    0.08    0.30
  -4  -7  11    0.00    0.29
   4   7 -11   -0.03    0.40
   4   7 -11    0.34    0.29
  -4   7  11    0.16    0.11
  -3  -7  11    7.84    0.63
  -3  -7  11    7.50    0.62
   3   7 -11    7.37    0.68
   3   7 -11    8.35    0.82
  -3   7  11    8.89    0.44
  -2  -7  11    7.33    0.64
  -2  -7  11    8.00    0.63
   2   7 -11    7.20    0.70
  -2   7  11    7.61    0.47
  -1  -7  11    5.14    0.56
  -1  -7  11    5.16    0.50
  -1   7  11    6.12    0.49
   1   7 -11    5.62    0.60
   0  -7  11   10.49    0.66
   0  -7  11    9.93    0.69
   0   7  11   10.90    0.65
   0   7 -11    9.59    0.74
   1  -7  11    4.03    0.56
   1  -7  11    3.14    0.43
  -1   7 -11    3.13    0.41
   1   7  11    4.21    0.47
   2  -7  11    2.31    0.51
   2  -7  11    1.23    0.42
   2   7  11    1.57    0.40
   3  -7  11    0.16    0.29
  -3  -7 -11    0.42    0.28
   3  -7  11    0.46    0.46
   3   7  11    0.63    0.40
  -4  -7 -11    0.07    0.28
   4  -7  11   -0.11    0.35
   4  -7  11    0.04    0.30
   4   7  11    0.05    0.40
   4   7  11   -0.42    0.38
  -4   7 -11    0.01    0.42
  -5  -7 -11    1.53    0.33
   5  -7  11    1.72    0.49
   5  -7  11    2.43    0.44
   5   7  11    1.71    0.54
   5   7  11    2.50    0.54
  -5   7 -11    2.15    0.54
  -6  -7 -11   -0.23    0.25
   6  -7  11    0.33    0.44
   6  -7  11    0.36    0.44
   6   7  11    0.73    0.41
  -6   7 -11    0.45    0.35
   6   7  11    0.30    0.37
   7  -7  11    0.92    0.39
  -7  -7 -11    0.64    0.43
   7  -7  11    0.84    0.49
   7   7  11    1.16    0.58
   7   7  11    0.96    0.47
  -7   7 -11    0.97    0.40
  -8  -7 -11    0.83    0.48
   8   7  11    1.50    0.65
  10  -8 -11   -0.20    0.35
 -10  -8  11    0.05    0.35
   9  -8 -11    3.21    0.57
  -9  -8  11    3.53    0.49
   9   8 -11    3.65    0.77
   9   8 -11    3.39    0.69
  -8  -8  11    0.17    0.31
   8   8 -11    0.31    0.52
   8   8 -11    0.38    0.49
  -7  -8  11    3.04    0.39
   7   8 -11    3.60    0.68
   7   8 -11    2.47    0.59
  -6  -8  11    2.75    0.39
   6   8 -11    2.64    0.51
   6   8 -11    2.96    0.62
  -5  -8  11    4.97    0.52
  -5  -8  11    4.28    0.50
   5   8 -11    5.13    0.71
   5   8 -11    4.49    0.68
   5   8 -11    4.93    0.58
  -4  -8  11    0.49    0.26
  -4  -8  11    0.71    0.36
   4   8 -11    0.63    0.42
  -4   8  11    0.75    0.13
   4   8 -11    0.50    0.48
  -3  -8  11    4.69    0.53
  -3  -8  11    4.99    0.55
   3   8 -11    4.76    0.69
  -3   8  11    5.17    0.35
   3   8 -11    4.84    0.63
  -2  -8  11   15.04    0.83
  -2  -8  11   17.39    0.95
  -2   8  11   17.00    0.75
   2   8 -11   15.43    1.02
   2   8 -11   16.56    1.03
  -1  -8  11    1.20    0.32
  -1  -8  11    1.01    0.34
   1   8 -11    1.42    0.37
  -1   8  11    1.75    0.30
   0  -8  11    5.38    0.61
   0  -8  11    5.13    0.51
   0   8 -11    3.90    0.49
   0   8  11    5.69    0.51
   1  -8  11    1.84    0.41
   1  -8  11    1.66    0.37
  -1   8 -11    1.82    0.36
   1   8  11    1.47    0.38
   2  -8  11   -0.02    0.31
   2  -8  11    0.18    0.38
   2   8  11   -0.16    0.33
   3  -8  11    2.10    0.41
   3  -8  11    3.08    0.60
   3   8  11    2.72    0.51
   4  -8  11    0.01    0.35
   4  -8  11    0.58    0.33
   4   8  11   -0.21    0.40
   5  -8  11    1.47    0.39
   5  -8  11    2.43    0.64
   5   8  11    1.82    0.53
   6  -8  11   -0.45    0.54
  -6  -8 -11   -0.56    0.37
   6  -8  11    0.15    0.45
   6   8  11   -0.21    0.35
  -6   8 -11   -0.44    0.44
   7  -8  11    0.41    0.35
   7  -8  11   -0.31    0.44
  -7  -8 -11   -1.24    0.36
  -7   8 -11    0.16    0.36
   7   8  11    0.31    0.52
  -8  -8 -11    0.07    0.35
   9  -9 -11    6.18    0.73
  -9  -9  11    8.55    0.72
   9   9 -11    5.73    0.93
   9   9 -11    5.64    0.85
  -8  -9  11    1.37    0.43
   8   9 -11    1.36    0.57
   8   9 -11    0.56    0.41
  -7  -9  11    2.27    0.44
   7   9 -11    1.39    0.47
   7   9 -11    2.10    0.62
  -6  -9  11    3.01    0.42
   6   9 -11    3.86    0.62
   6   9 -11    3.21    0.65
  -5  -9  11    9.69    0.71
  -5  -9  11    7.18    0.59
   5   9 -11    8.19    0.89
   5   9 -11    7.27    0.73
   5   9 -11    8.93    0.93
  -4  -9  11   -0.44    0.33
  -4  -9  11   -0.02    0.37
   4   9 -11    0.46    0.38
   4   9 -11    0.10    0.38
   4   9 -11    0.34    0.40
  -3  -9  11    0.26    0.29
  -3  -9  11    1.06    0.42
   3   9 -11    0.80    0.42
  -3   9  11    0.87    0.20
   3   9 -11    0.52    0.40
  -2  -9  11   13.90    0.83
  -2  -9  11   15.29    0.88
  -2   9  11   13.49    0.69
   2   9 -11   14.87    1.10
   2   9 -11   11.79    0.92
  -1  -9  11    6.73    0.61
  -1  -9  11    7.60    0.69
   1   9 -11    7.06    0.82
   1   9 -11    6.50    0.71
  -1   9  11    7.67    0.56
   0  -9  11   11.12    0.79
   0  -9  11   10.40    0.74
   0   9  11   10.27    0.66
   0   9 -11    8.89    0.71
   1  -9  11    2.94    0.57
   1  -9  11    2.60    0.42
   1   9  11    2.97    0.45
   2  -9  11    0.34    0.31
   2  -9  11    0.24    0.47
   2   9  11   -0.18    0.34
   3  -9  11   -0.07    0.35
   3  -9  11   -0.01    0.29
   3   9  11   -0.47    0.35
   4  -9  11   -0.02    0.51
   4  -9  11   -0.03    0.30
   4   9  11    0.25    0.43
   5  -9  11    0.35    0.35
   5  -9  11    0.90    0.58
   5   9  11    0.44    0.37
   6  -9  11   -0.10    0.59
   6  -9  11    0.18    0.47
   6   9  11   -0.44    0.49
  -8 -10  11    1.47    0.36
   8  10 -11    1.34    0.60
   8  10 -11    0.76    0.46
  -7 -10  11    0.24    0.37
   7  10 -11    0.99    0.56
   7  10 -11   -0.15    0.35
  -6 -10  11   -0.13    0.37
   6  10 -11   -0.06    0.36
   6  10 -11    0.45    0.47
  -5 -10  11   -0.03    0.38
  -5 -10  11    0.73    0.32
   5  10 -11    1.05    0.57
   5  10 -11    0.72    0.46
   5  10 -11    0.32    0.32
  -4 -10  11    2.04    0.47
  -4 -10  11    3.30    0.51
   4  10 -11    1.94    0.53
   4  10 -11    1.85    0.60
   4  10 -11    3.02    0.54
  -3 -10  11    2.33    0.49
  -3 -10  11    2.64    0.52
  -3  10  11    2.71    0.29
   3  10 -11    1.54    0.41
   3  10 -11    2.70    0.65
  -2 -10  11    2.80    0.43
  -2 -10  11    3.09    0.47
   2  10 -11    1.85    0.49
  -2  10  11    3.25    0.36
   2  10 -11    3.26    0.67
  -1 -10  11    1.83    0.38
  -1 -10  11    1.77    0.49
   1  10 -11    0.69    0.33
   1  10 -11    0.95    0.57
  -1  10  11    1.13    0.29
   0 -10  11    1.25    0.47
   0 -10  11    0.70    0.33
   0  10  11    1.07    0.36
   0  10 -11    0.75    0.43
   1 -10  11    2.50    0.51
   1 -10  11    2.00    0.45
   1  10  11    2.67    0.45
   2 -10  11   -0.23    0.28
   2 -10  11    0.26    0.48
   2  10  11   -0.32    0.33
   3 -10  11    0.31    0.53
   3 -10  11    1.29    0.39
   3  10  11    1.28    0.46
   4 -10  11    0.67    0.45
   4 -10  11    0.37    0.56
   4  10  11    0.30    0.34
   5 -10  11    0.69    0.45
   5 -10  11    0.65    0.35
   5  10  11    0.82    0.50
   6 -10  11    1.26    0.54
   8  11 -11    1.23    0.63
  -7 -11  11    1.08    0.36
   7  11 -11    2.00    0.67
   7  11 -11    1.22    0.48
  -6 -11  11    0.62    0.43
   6  11 -11    0.13    0.42
   6  11 -11    0.73    0.52
  -5 -11  11    0.93    0.35
  -5 -11  11   -0.12    0.28
   5  11 -11    0.58    0.39
   5  11 -11    0.93    0.37
   5  11 -11    0.85    0.44
  -4 -11  11    1.37    0.37
  -4 -11  11    1.16    0.45
   4  11 -11    1.38    0.50
   4  11 -11    1.13    0.59
   4  11 -11    0.72    0.47
  -3 -11  11    3.98    0.60
  -3 -11  11    3.52    0.55
   3  11 -11    3.08    0.51
   3  11 -11    3.04    0.68
   3  11 -11    3.05    0.56
  -2 -11  11    0.06    0.40
  -2 -11  11   -0.02    0.31
   2  11 -11    0.26    0.40
   2  11 -11   -0.39    0.35
  -2  11  11    0.53    0.24
  -1 -11  11    3.51    0.52
  -1 -11  11    3.63    0.56
   1  11 -11    4.31    0.67
  -1  11  11    3.36    0.40
   0 -11  11    2.62    0.57
   0 -11  11    3.59    0.49
   0  11 -11    3.14    0.70
   0  11  11    3.21    0.46
   1 -11  11    0.25    0.42
   1 -11  11   -0.10    0.47
  -1  11 -11    0.16    0.53
   1  11  11    0.41    0.35
   2 -11  11   -0.40    0.33
   2 -11  11   -0.22    0.30
  -2  11 -11    0.03    0.42
   2  11  11   -0.09    0.35
   3 -11  11   -0.20    0.52
   3 -11  11    0.32    0.44
   3  11  11    0.48    0.33
   4 -11  11    4.07    0.66
   4 -11  11    4.81    0.65
   4  11  11    5.13    0.67
   5 -11  11    0.45    0.46
   5 -11  11    0.25    0.47
   7  12 -11   -0.30    0.35
  -6 -12  11    1.84    0.50
   6  12 -11    1.98    0.58
   6  12 -11    1.83    0.64
  -5 -12  11    2.44    0.54
  -5 -12  11    2.83    0.47
   5  12 -11    2.48    0.51
   5  12 -11    2.84    0.62
   5  12 -11    2.58    0.62
  -4 -12  11   12.12    0.84
  -4 -12  11   12.43    0.82
   4  12 -11   14.50    1.04
   4  12 -11   11.46    1.01
   4  12 -11   10.76    1.03
  -3 -12  11    2.36    0.57
  -3 -12  11    1.99    0.42
   3  12 -11    2.31    0.57
   3  12 -11    1.66    0.50
   3  12 -11    2.34    0.58
  -2 -12  11    1.12    0.49
  -2 -12  11    0.31    0.32
   2  12 -11    0.98    0.57
  -2  12  11    0.74    0.28
  -1 -12  11    0.22    0.32
  -1 -12  11    0.36    0.36
  -1  12  11    0.61    0.30
   1  12 -11    0.30    0.42
   0 -12  11   -0.04    0.42
   0 -12  11   -0.31    0.33
   0  12 -11   -0.42    0.51
   0  12  11   -0.09    0.29
   1 -12  11    0.47    0.34
   1 -12  11    0.63    0.40
   1  12  11    0.21    0.35
  -1  12 -11    0.45    0.45
   2 -12  11   -0.37    0.53
   2 -12  11   -0.02    0.46
   2  12  11    0.00    0.38
  -2  12 -11    0.41    0.45
   3 -12  11    2.41    0.57
   3 -12  11    1.70    0.53
  -3  12 -11    2.32    0.58
   3  12  11    3.09    0.57
   4 -12  11    7.46    0.94
   4 -12  11   11.30    0.92
   6  13 -11    0.79    0.59
  -5 -13  11    4.81    0.66
  -5 -13  11    4.88    0.59
   5  13 -11    2.98    0.69
   5  13 -11    4.35    0.76
   5  13 -11    4.72    0.72
  -4 -13  11    0.60    0.38
  -4 -13  11    0.52    0.36
   4  13 -11    1.33    0.56
   4  13 -11    0.43    0.51
   4  13 -11    0.34    0.63
  -3 -13  11    1.85    0.43
  -3 -13  11    1.87    0.56
   3  13 -11    2.79    0.63
   3  13 -11    2.63    0.71
  -2 -13  11    0.56    0.47
  -2 -13  11   -0.05    0.47
  -2  13  11    1.40    0.30
   2  13 -11    0.99    0.53
   2  13 -11    0.50    0.46
  -1 -13  11    0.25    0.44
  -1 -13  11    0.44    0.50
   1  13 -11    0.22    0.56
  -1  13  11    0.70    0.32
   0 -13  11    0.51    0.54
   0 -13  11    0.80    0.38
   0  13 -11    1.29    0.51
   0  13  11    1.08    0.39
   1 -13  11   -0.06    0.44
   1 -13  11   -0.68    0.53
   1  13  11   -0.06    0.33
  -1  13 -11   -0.25    0.40
   2 -13  11    0.06    0.47
   2 -13  11    0.23    0.45
  -2  13 -11    0.65    0.48
   2  13  11    1.09    0.41
   3 -13  11    1.22    0.53
  -4 -14  11   -0.82    0.48
   4  14 -11   -0.27    0.48
  -3 -14  11    0.20    0.53
  -3 -14  11    0.47    0.49
   3  14 -11    0.99    0.54
   3  14 -11    0.79    0.52
  -2 -14  11   -0.39    0.45
  -2 -14  11   -0.56    0.53
   2  14 -11    1.00    0.55
   2  14 -11   -0.54    0.61
  -1 -14  11    0.26    0.35
  -1 -14  11    0.01    0.56
  -1  14  11    1.11    0.34
   1  14 -11    0.26    0.50
   1  14 -11   -0.30    0.35
   0 -14  11    2.00    0.66
   0 -14  11    1.28    0.52
   0  14 -11    0.66    0.63
   0  14  11    1.80    0.40
   1 -14  11    0.26    0.47
  -1  14 -11    0.12    0.61
   1  14  11    0.97    0.41
  11   0 -12   -1.13    0.40
  10   0 -12    0.07    0.44
  10   0 -12    0.57    0.30
   9   0 -12    0.08    0.27
  -9   0  12    0.28    0.18
   9   0 -12    0.55    0.37
   8   0 -12   43.45    2.21
  -8   0  12   47.25    1.60
   8   0 -12   45.44    1.84
   7   0 -12   -0.11    0.38
  -7   0  12    0.28    0.17
   7   0 -12    0.26    0.26
   6   0 -12    1.02    0.42
   6   0 -12    1.04    0.28
  -6   0  12    0.98    0.22
  -5   0  12    0.10    0.19
   5   0 -12    0.24    0.27
  -4   0  12   11.62    0.58
  -3   0  12   -0.07    0.20
  -2   0  12   21.73    0.95
  -2   0  12   21.57    0.93
  -1   0  12    0.58    0.27
   1   0 -12    0.60    0.25
  -1   0  12    1.00    0.31
   0   0  12   79.10    2.87
   0   0 -12   74.88    2.72
   0   0  12   77.96    2.74
  -1   0 -12    0.59    0.29
   1   0  12    0.08    0.25
   1   0  12    0.01    0.33
   2   0  12   11.52    0.70
   2   0  12   10.40    0.79
  -2   0 -12   10.67    0.69
  -3   0 -12   -0.11    0.22
   3   0  12   -0.57    0.24
   3   0  12   -0.84    0.38
   4   0  12    1.74    0.53
   4   0  12    0.80    0.34
  -4   0 -12    0.88    0.29
   5   0  12    0.23    0.44
  -5   0 -12    0.06    0.26
   5   0  12    0.10    0.48
  -6   0 -12    0.39    0.42
   6   0  12    1.19    0.51
   6   0  12    1.05    0.58
  -7   0 -12   -0.40    0.39
   7   0  12    0.50    0.39
   7   0  12   -0.06    0.53
   8   0  12    3.21    0.67
   8   0  12    2.70    0.66
  -8   0 -12    2.77    0.61
   9   0  12    0.37    0.57
  11  -1 -12    0.88    0.54
  11   1 -12    0.94    0.58
  11   1 -12    0.85    0.37
  10  -1 -12   11.22    0.97
 -10  -1  12   11.02    0.55
  10   1 -12   11.33    1.12
  10   1 -12   10.57    0.75
   9  -1 -12    0.73    0.27
   9  -1 -12    0.49    0.35
  -9  -1  12    0.82    0.23
   9   1 -12    0.68    0.50
   9   1 -12    0.72    0.35
  -8  -1  12    3.73    0.35
   8  -1 -12    3.61    0.41
   8  -1 -12    3.35    0.63
   8   1 -12    3.01    0.60
  -8   1  12    3.78    0.27
   8   1 -12    4.00    0.49
  -7  -1  12    1.11    0.23
   7  -1 -12    0.80    0.26
   7  -1 -12    1.03    0.36
   7   1 -12    0.12    0.29
   7   1 -12    0.59    0.33
  -7   1  12    0.67    0.17
   6  -1 -12    9.19    0.60
   6  -1 -12    9.03    0.77
  -6  -1  12    8.95    0.51
   6   1 -12    9.34    0.79
   6   1 -12    8.38    0.62
  -6   1  12    8.88    0.44
  -5  -1  12   13.37    0.64
   5   1 -12   14.20    0.95
  -5   1  12   13.82    0.61
  -4  -1  12   16.81    0.77
   4   1 -12   16.45    1.04
  -4   1  12   17.97    0.75
  -3  -1  12    8.51    0.52
  -3  -1  12    8.23    0.51
  -3   1  12    8.43    0.51
  -2  -1  12    5.06    0.46
  -2  -1  12    4.73    0.42
  -2   1  12    4.23    0.40
  -2   1  12    5.37    0.41
  -1  -1  12   17.49    0.87
   1  -1 -12   16.40    0.79
  -1  -1  12   18.36    0.86
   1   1 -12   16.53    0.84
  -1   1  12   18.30    0.84
  -1   1  12   17.16    0.83
   0  -1 -12   18.51    0.88
   0  -1  12   21.35    1.02
   0  -1  12   21.03    0.98
   0   1 -12   20.27    0.97
   0   1  12   20.76    0.99
   0   1  12   21.07    0.97
   1  -1  12    4.76    0.51
   1  -1  12    4.30    0.54
  -1  -1 -12    4.50    0.46
  -1   1 -12    4.70    0.43
   1   1  12    4.39    0.50
   1   1  12    4.61    0.53
   2  -1  12    0.99    0.32
   2  -1  12    0.89    0.34
  -2  -1 -12    0.71    0.32
   2   1  12    0.61    0.30
   2   1  12    1.25    0.34
  -2   1 -12    1.31    0.30
   3  -1  12    0.04    0.29
   3  -1  12   -0.24    0.41
  -3  -1 -12    0.62    0.26
   3   1  12    0.00    0.28
   3   1  12    0.37    0.42
  -3   1 -12   -0.01    0.31
   4  -1  12    0.71    0.38
  -4  -1 -12    1.47    0.33
   4  -1  12    1.83    0.40
  -4   1 -12    0.87    0.39
   4   1  12    1.41    0.41
   4   1  12    1.03    0.46
   5  -1  12    6.66    0.72
   5  -1  12    6.14    0.70
  -5  -1 -12    5.87    0.62
   5   1  12    5.77    0.62
  -5   1 -12    6.06    0.64
   5   1  12    5.85    0.69
  -6  -1 -12    2.59    0.44
   6  -1  12    3.20    0.51
   6  -1  12    2.53    0.55
   6   1  12    3.19    0.69
  -6   1 -12    3.21    0.48
   6   1  12    3.15    0.61
   7  -1  12    1.02    0.62
  -7  -1 -12    0.13    0.32
   7  -1  12    0.31    0.39
   7   1  12    0.67    0.52
   7   1  12    0.00    0.42
  -7   1 -12   -0.38    0.29
   8  -1  12   -0.02    0.38
  -8  -1 -12    0.14    0.35
   8  -1  12   -0.34    0.61
   8   1  12    0.14    0.40
   8   1  12    0.71    0.65
  -8   1 -12    0.20    0.48
   9  -1  12   -0.07    0.40
   9   1  12    0.83    0.59
   9   1  12    0.67    0.60
  11  -2 -12    2.07    0.59
  11   2 -12    1.34    0.62
  11   2 -12    2.43    0.47
  10  -2 -12    0.38    0.37
 -10  -2  12    1.04    0.25
  10   2 -12    0.67    0.53
  10   2 -12    1.44    0.40
  -9  -2  12    0.01    0.22
   9  -2 -12    0.17    0.42
   9   2 -12   -0.23    0.31
   9   2 -12    0.24    0.36
  -8  -2  12   16.32    0.74
   8  -2 -12   16.01    0.77
   8  -2 -12   15.07    1.16
   8   2 -12   15.83    0.92
   8   2 -12   16.20    1.14
   7  -2 -12    9.70    0.56
  -7  -2  12    9.81    0.55
   7  -2 -12    8.67    0.79
   7   2 -12    8.63    0.81
   7   2 -12    9.18    0.68
  -7   2  12    9.57    0.41
   6  -2 -12    7.98    0.81
  -6  -2  12    8.03    0.51
   6   2 -12    8.55    0.76
  -6   2  12    7.71    0.39
   6   2 -12    8.23    0.63
  -5  -2  12    4.22    0.39
   5   2 -12    3.59    0.52
  -5   2  12    4.48    0.31
  -4  -2  12   -0.01    0.22
   4   2 -12    0.20    0.27
  -4   2  12    0.18    0.19
  -3  -2  12    3.25    0.35
  -3  -2  12    3.37    0.37
  -3   2  12    3.21    0.31
   3   2 -12    2.14    0.40
  -2  -2  12    4.20    0.44
  -2  -2  12    4.86    0.45
  -2   2  12    4.71    0.40
   1  -2 -12    4.21    0.38
  -1  -2  12    3.93    0.44
  -1  -2  12    4.23    0.45
  -1   2  12    4.17    0.42
  -1   2  12    4.10    0.41
   0  -2 -12    5.96    0.48
   0  -2  12    6.78    0.59
   0  -2  12    7.92    0.62
   0   2  12    7.02    0.56
   0   2  12    6.65    0.59
   0   2 -12    6.43    0.55
   1  -2  12    5.21    0.51
  -1  -2 -12    4.25    0.45
   1  -2  12    5.43    0.55
   1   2  12    5.20    0.54
   1   2  12    5.25    0.53
  -1   2 -12    5.41    0.46
  -2  -2 -12   -0.28    0.19
   2  -2  12   -0.75    0.36
   2  -2  12    0.07    0.27
   2   2  12   -0.11    0.35
  -2   2 -12    0.24    0.24
   2   2  12    0.17    0.36
  -3  -2 -12    0.25    0.30
   3  -2  12    0.83    0.36
   3  -2  12    1.13    0.42
  -3   2 -12    0.28    0.34
   3   2  12    0.31    0.39
   3   2  12    0.02    0.38
   4  -2  12    0.90    0.50
  -4  -2 -12    0.97    0.36
   4  -2  12    0.36    0.32
  -4   2 -12    0.49    0.29
   4   2  12    0.79    0.48
   4   2  12    0.87    0.44
  -5  -2 -12    0.18    0.27
   5  -2  12    0.24    0.32
   5  -2  12    0.12    0.50
   5   2  12    0.12    0.50
   5   2  12    0.37    0.45
  -5   2 -12   -0.07    0.37
  -6  -2 -12   -0.05    0.38
   6  -2  12   -0.35    0.44
   6  -2  12   -0.17    0.54
   6   2  12    0.06    0.40
  -6   2 -12    0.67    0.42
   6   2  12   -0.51    0.32
   7  -2  12    0.90    0.54
  -7  -2 -12    0.68    0.45
   7  -2  12    1.11    0.51
   7   2  12   -0.06    0.37
  -7   2 -12    0.71    0.49
   7   2  12    0.92    0.61
   8  -2  12   -0.23    0.61
  -8  -2 -12   -0.09    0.45
   8  -2  12    0.06    0.53
  -8   2 -12   -0.11    0.45
   8   2  12   -0.26    0.61
   8   2  12   -0.02    0.56
 -11  -3  12    0.55    0.27
  11  -3 -12    0.38    0.44
  11   3 -12    0.01    0.34
  11   3 -12    0.38    0.43
  10  -3 -12    1.76    0.48
 -10  -3  12    2.22    0.33
  10   3 -12    1.93    0.53
  10   3 -12    2.03    0.45
  -9  -3  12    0.51    0.27
   9  -3 -12    0.27    0.41
   9   3 -12    1.54    0.49
   9   3 -12    0.21    0.34
  -8  -3  12   12.73    0.67
   8  -3 -12   11.83    0.93
   8   3 -12   11.97    0.84
   8   3 -12   12.44    1.10
   7  -3 -12    0.53    0.41
  -7  -3  12    0.31    0.22
   7  -3 -12    0.15    0.18
   7   3 -12    0.30    0.41
   7   3 -12    0.02    0.30
  -6  -3  12    7.68    0.51
  -6   3  12    8.13    0.36
   6   3 -12    8.15    0.87
   6   3 -12    7.73    0.66
  -5  -3  12   21.86    0.95
   5   3 -12   22.31    1.28
   5   3 -12   22.05    1.14
  -5   3  12   22.79    0.83
  -4  -3  12    9.32    0.57
  -4   3  12    9.20    0.47
   4   3 -12    8.84    0.74
  -3  -3  12    0.65    0.29
  -3  -3  12    0.79    0.27
  -3   3  12    0.65    0.20
   3   3 -12    0.46    0.36
  -2  -3  12    3.73    0.39
  -2  -3  12    4.30    0.43
  -2   3  12    4.22    0.38
   2   3 -12    3.48    0.51
  -1  -3  12   -0.65    0.28
  -1  -3  12    0.12    0.23
  -1   3  12    0.12    0.23
   1   3 -12   -0.29    0.17
   0  -3  12    0.47    0.36
   0  -3  12    1.25    0.37
   0  -3 -12    1.00    0.26
   0   3  12    0.80    0.28
   0   3  12    0.67    0.30
   0   3 -12    0.77    0.25
   1  -3  12   35.16    1.53
   1  -3  12   35.46    1.46
  -1  -3 -12   31.51    1.33
   1   3  12   34.27    1.42
  -1   3 -12   34.19    1.45
   1   3  12   34.90    1.47
   2  -3  12    0.26    0.28
  -2  -3 -12    0.22    0.28
   2  -3  12   -0.15    0.40
   2   3  12    0.38    0.37
   2   3  12    0.45    0.35
  -2   3 -12    0.27    0.25
   3  -3  12   -0.91    0.39
   3  -3  12    0.32    0.39
  -3  -3 -12   -0.24    0.19
   3   3  12    0.12    0.39
  -3   3 -12   -0.34    0.22
   3   3  12   -0.61    0.35
  -4  -3 -12    0.43    0.25
   4  -3  12   -0.30    0.40
   4  -3  12    0.16    0.37
   4   3  12    0.06    0.31
   4   3  12    0.64    0.46
  -4   3 -12   -0.05    0.28
  -5  -3 -12    0.59    0.38
   5  -3  12    1.74    0.48
   5  -3  12    1.19    0.39
   5   3  12    1.15    0.51
   5   3  12    1.27    0.54
  -5   3 -12    0.51    0.33
   6  -3  12    1.10    0.53
   6  -3  12    0.54    0.45
  -6  -3 -12    0.94    0.43
   6   3  12    1.82    0.50
   6   3  12    0.72    0.52
  -6   3 -12    1.42    0.48
   7  -3  12   -0.65    0.33
  -7  -3 -12   -0.13    0.40
   7  -3  12   -1.17    0.53
   7   3  12    0.24    0.56
   7   3  12   -0.05    0.36
  -7   3 -12    0.27    0.35
  -8  -3 -12   -0.16    0.44
   8  -3  12   -0.37    0.46
   8  -3  12    0.44    0.42
   8   3  12   -0.31    0.39
  -8   3 -12    0.32    0.38
   8   3  12   -0.93    0.56
 -11  -4  12    0.68    0.30
  11  -4 -12    0.56    0.45
  11   4 -12    0.53    0.47
  10  -4 -12    2.97    0.55
 -10  -4  12    3.12    0.40
  10   4 -12    2.78    0.72
  10   4 -12    2.81    0.54
  -9  -4  12    2.15    0.36
   9  -4 -12    1.82    0.52
   9   4 -12    1.54    0.46
   9   4 -12    0.73    0.55
  -8  -4  12    0.59    0.30
   8  -4 -12    1.06    0.37
   8   4 -12    0.73    0.40
   8   4 -12    0.85    0.42
  -7  -4  12    9.81    0.59
   7  -4 -12    9.19    0.89
   7   4 -12    8.78    0.75
   7   4 -12   10.52    0.98
  -6  -4  12   -0.03    0.24
   6   4 -12    0.07    0.40
   6   4 -12   -0.48    0.29
  -5  -4  12    6.57    0.51
   5   4 -12    6.48    0.69
   5   4 -12    6.44    0.66
  -5   4  12    6.84    0.33
  -4  -4  12    6.70    0.51
  -4  -4  12    6.41    0.48
  -4   4  12    6.42    0.37
   4   4 -12    4.94    0.65
  -3  -4  12   -0.12    0.26
  -3  -4  12   -0.12    0.22
  -3   4  12   -0.23    0.17
   3   4 -12   -0.39    0.29
  -2  -4  12    7.37    0.58
  -2  -4  12    7.33    0.57
   2   4 -12    7.84    0.72
  -2   4  12    6.91    0.48
  -1  -4  12    2.12    0.34
  -1  -4  12    1.86    0.40
  -1   4  12    2.31    0.33
   1   4 -12    2.10    0.41
   0  -4  12    0.61    0.37
   0  -4  12    0.35    0.28
   0   4 -12    0.18    0.28
   0   4  12    1.27    0.32
   1  -4  12   39.71    1.66
   1  -4  12   39.05    1.58
  -1  -4 -12   36.86    1.46
  -1   4 -12   36.50    1.57
   1   4  12   37.19    1.50
   1   4  12   38.12    1.58
  -1   4 -12   36.13    1.69
  -2  -4 -12    0.27    0.26
   2  -4  12   -0.22    0.28
   2  -4  12    0.10    0.27
   2   4  12   -0.04    0.33
  -2   4 -12   -0.07    0.33
   2   4  12    0.08    0.33
  -3  -4 -12    0.35    0.31
   3  -4  12    0.03    0.32
   3  -4  12    0.38    0.40
   3   4  12    0.24    0.37
  -3   4 -12    0.51    0.30
   3   4  12    0.73    0.32
   4  -4  12   -0.51    0.46
   4  -4  12    0.40    0.43
  -4  -4 -12    0.37    0.33
   4   4  12    1.10    0.37
   4   4  12    0.98    0.46
  -4   4 -12    0.35    0.31
   5  -4  12    1.02    0.39
  -5  -4 -12    1.61    0.41
   5  -4  12    0.84    0.56
   5   4  12    1.11    0.51
   5   4  12    1.68    0.54
  -5   4 -12    0.54    0.34
   6  -4  12    0.52    0.56
  -6  -4 -12    0.03    0.27
   6  -4  12   -0.37    0.42
  -6   4 -12    0.71    0.37
   6   4  12   -0.52    0.46
   6   4  12    0.29    0.51
   7  -4  12    0.05    0.36
  -7  -4 -12   -0.12    0.30
   7  -4  12    0.10    0.43
   7   4  12   -0.68    0.49
  -7   4 -12   -0.34    0.46
   7   4  12    0.09    0.56
   8  -4  12   -0.35    0.35
  -8  -4 -12   -1.44    0.39
   8  -4  12   -0.28    0.63
   8   4  12   -0.43    0.40
   8   4  12   -0.09    0.59
  -8   4 -12   -0.87    0.44
  11  -5 -12    6.00    0.76
 -11  -5  12    6.67    0.60
  11   5 -12    6.56    0.80
  10  -5 -12   -0.74    0.33
 -10  -5  12   -0.17    0.24
  10   5 -12   -0.43    0.35
  10   5 -12   -0.06    0.42
  -9  -5  12    2.63    0.39
   9  -5 -12    1.89    0.52
   9   5 -12    1.59    0.50
   9   5 -12    2.32    0.57
   8  -5 -12    0.82    0.37
  -8  -5  12    1.23    0.32
   8   5 -12    1.49    0.56
   8   5 -12    1.40    0.45
  -7  -5  12   -0.21    0.24
   7   5 -12   -0.59    0.27
   7   5 -12    0.05    0.38
  -6  -5  12   -0.14    0.25
   6   5 -12    0.15    0.35
   6   5 -12   -0.52    0.39
  -5  -5  12    4.07    0.44
   5   5 -12    3.69    0.51
   5   5 -12    3.45    0.54
  -5   5  12    4.12    0.22
  -4  -5  12   -0.11    0.27
  -4  -5  12   -0.31    0.23
  -4   5  12   -0.01    0.14
   4   5 -12   -0.10    0.36
   4   5 -12   -0.15    0.35
  -3  -5  12    7.26    0.59
  -3  -5  12    7.86    0.58
   3   5 -12    7.76    0.76
  -3   5  12    8.59    0.45
  -2  -5  12    1.29    0.36
  -2  -5  12    1.22    0.36
   2   5 -12    1.10    0.31
  -2   5  12    1.42    0.28
  -1  -5  12   14.89    0.85
  -1  -5  12   14.11    0.80
  -1   5  12   15.90    0.75
   1   5 -12   14.57    0.94
   0  -5  12    0.92    0.41
   0  -5  12    1.17    0.41
   0   5  12    1.17    0.31
   0   5 -12    0.80    0.32
   1  -5  12    3.62    0.53
   1  -5  12    3.52    0.50
   1   5  12    3.76    0.47
  -1   5 -12    3.04    0.41
  -2  -5 -12    0.48    0.28
   2  -5  12    0.61    0.45
   2  -5  12    0.55    0.30
   2   5  12    0.82    0.39
  -2   5 -12    0.76    0.29
   2   5  12    0.78    0.39
  -2   5 -12    0.64    0.39
  -3  -5 -12    0.94    0.32
   3  -5  12    1.28    0.40
   3  -5  12    1.39    0.45
   3   5  12    1.28    0.35
  -3   5 -12    0.67    0.32
   3   5  12    1.06    0.45
   4  -5  12   -0.31    0.40
   4  -5  12    0.19    0.49
  -4  -5 -12   -0.01    0.30
   4   5  12   -0.70    0.26
  -4   5 -12   -0.82    0.37
   4   5  12   -0.31    0.28
  -5  -5 -12   -0.01    0.25
   5  -5  12   -0.19    0.43
   5  -5  12   -0.03    0.37
  -5   5 -12   -0.49    0.40
   5   5  12   -0.15    0.33
   5   5  12    0.67    0.50
   6  -5  12   -0.25    0.32
  -6  -5 -12    0.19    0.29
   6  -5  12    0.05    0.59
  -6   5 -12    0.82    0.37
   6   5  12    0.13    0.37
   6   5  12   -0.02    0.52
   7  -5  12   -0.80    0.58
  -7  -5 -12   -0.27    0.29
   7  -5  12   -0.12    0.47
  -7   5 -12    0.66    0.51
   7   5  12   -0.46    0.50
   7   5  12    0.77    0.59
  -8  -5 -12   -0.86    0.41
   8  -5  12    0.18    0.51
   8   5  12    2.25    0.73
 -10  -6  12   -0.08    0.29
  10  -6 -12    0.24    0.41
  10   6 -12    0.80    0.53
  10   6 -12    0.13    0.56
  -9  -6  12    2.85    0.42
   9  -6 -12    2.16    0.53
   9   6 -12    3.21    0.71
   9   6 -12    3.32    0.63
  -8  -6  12    2.50    0.40
   8  -6 -12    2.19    0.47
   8   6 -12    2.61    0.56
   8   6 -12    1.60    0.63
  -7  -6  12    9.94    0.65
   7   6 -12    8.61    0.87
   7   6 -12    7.42    0.80
  -6  -6  12    3.24    0.38
   6   6 -12    2.26    0.58
   6   6 -12    3.45    0.57
  -5  -6  12    5.98    0.54
   5   6 -12    4.74    0.68
   5   6 -12    6.21    0.70
  -4  -6  12    2.42    0.40
  -4  -6  12    1.84    0.36
   4   6 -12    2.00    0.51
   4   6 -12    1.73    0.40
  -4   6  12    1.80    0.20
  -3  -6  12    0.55    0.34
  -3  -6  12    0.03    0.31
  -3   6  12    0.52    0.20
   3   6 -12    0.30    0.36
  -2  -6  12   -0.17    0.23
  -2  -6  12   -0.12    0.32
  -2   6  12   -0.39    0.20
   2   6 -12   -0.19    0.31
  -1  -6  12    0.86    0.39
  -1  -6  12    1.09    0.41
   1   6 -12    1.02    0.36
  -1   6  12    0.84    0.28
   0  -6  12    8.09    0.67
   0  -6  12    6.90    0.70
   0   6  12    6.57    0.55
   0   6 -12    6.03    0.61
   1  -6  12    1.18    0.42
   1  -6  12    0.73    0.43
  -1   6 -12    0.58    0.27
   1   6  12    0.50    0.35
   2  -6  12    0.32    0.30
   2  -6  12    0.31    0.43
   2   6  12    0.02    0.36
   3  -6  12    0.48    0.48
   3  -6  12   -0.22    0.39
  -3   6 -12    0.02    0.40
   3   6  12    0.95    0.35
  -4  -6 -12   -0.14    0.29
   4  -6  12   -0.95    0.38
   4  -6  12    0.11    0.38
  -4   6 -12    0.08    0.43
   4   6  12    0.44    0.43
   5  -6  12    0.47    0.41
   5  -6  12    0.41    0.45
  -5  -6 -12   -0.01    0.24
   5   6  12    0.13    0.46
  -5   6 -12   -0.64    0.42
   5   6  12    0.00    0.48
   6  -6  12    0.14    0.43
  -6  -6 -12    0.05    0.28
   6  -6  12   -0.14    0.34
   6   6  12    0.73    0.55
   6   6  12   -0.01    0.38
  -6   6 -12    0.14    0.46
   7  -6  12   -0.67    0.46
   7  -6  12   -0.46    0.62
  -7  -6 -12   -0.41    0.28
  -7   6 -12   -0.02    0.34
   7   6  12   -0.63    0.50
   7   6  12    0.30    0.55
   8  -6  12    0.84    0.55
  -8  -6 -12   -0.90    0.42
   8   6  12    0.77    0.63
 -10  -7  12    3.38    0.48
  10  -7 -12    3.61    0.64
   9  -7 -12    7.36    0.76
  -9  -7  12    7.59    0.65
   9   7 -12    7.21    0.98
   9   7 -12    6.99    0.83
   8  -7 -12   -0.01    0.39
  -8  -7  12    0.72    0.32
   8   7 -12   -0.55    0.27
   8   7 -12   -0.11    0.33
  -7  -7  12    8.51    0.64
   7   7 -12    7.93    0.75
   7   7 -12    6.69    0.88
  -6  -7  12   -0.24    0.30
   6   7 -12   -0.16    0.40
   6   7 -12   -0.07    0.45
  -5  -7  12    1.52    0.37
   5   7 -12    1.37    0.51
   5   7 -12    1.93    0.55
  -4  -7  12    2.38    0.42
  -4  -7  12    2.57    0.37
  -4   7  12    2.45    0.21
   4   7 -12    2.23    0.55
   4   7 -12    1.60    0.50
  -3  -7  12    2.23    0.36
  -3  -7  12    2.50    0.44
   3   7 -12    2.59    0.49
   3   7 -12    2.39    0.50
  -3   7  12    2.24    0.26
  -2  -7  12    0.49    0.36
  -2  -7  12    0.22    0.36
   2   7 -12    0.00    0.32
  -2   7  12    0.29    0.23
  -1  -7  12    5.56    0.53
  -1  -7  12    5.31    0.60
  -1   7  12    5.11    0.46
   1   7 -12    3.76    0.52
   0  -7  12    0.55    0.30
   0  -7  12    0.36    0.31
   0   7 -12    0.10    0.27
   0   7  12    0.18    0.29
   1  -7  12    1.26    0.38
   1  -7  12    1.00    0.33
   1   7  12    1.10    0.37
  -1   7 -12    1.02    0.32
   2  -7  12   -0.10    0.38
   2  -7  12   -0.37    0.30
   2   7  12   -0.08    0.34
   3  -7  12    4.21    0.60
   3  -7  12    5.04    0.62
   3   7  12    3.77    0.56
   4  -7  12   -0.73    0.46
   4  -7  12    0.06    0.41
  -4   7 -12   -0.42    0.30
   4   7  12    0.25    0.44
   5  -7  12    2.69    0.68
   5  -7  12    2.72    0.58
  -5   7 -12    1.85    0.45
   5   7  12    2.49    0.59
   6  -7  12   -0.68    0.57
   6  -7  12    0.35    0.37
   6   7  12    0.00    0.37
  -6   7 -12    0.85    0.52
   7  -7  12    0.33    0.50
   7  -7  12   -0.52    0.48
  -7   7 -12    0.88    0.42
  10  -8 -12    0.06    0.43
  -9  -8  12    0.86    0.39
   9  -8 -12    0.92    0.46
   9   8 -12    0.76    0.49
   9   8 -12    1.26    0.59
  -8  -8  12    2.28    0.45
   8   8 -12    3.60    0.74
   8   8 -12    2.12    0.58
  -7  -8  12    6.18    0.58
   7   8 -12    4.71    0.66
   7   8 -12    5.87    0.82
  -6  -8  12   -0.24    0.34
   6   8 -12    0.93    0.51
   6   8 -12    0.12    0.46
  -5  -8  12   -0.14    0.33
   5   8 -12    0.16    0.44
   5   8 -12    0.07    0.25
   5   8 -12    0.12    0.47
  -4  -8  12    0.31    0.35
  -4  -8  12   -0.11    0.26
   4   8 -12   -0.13    0.32
   4   8 -12   -0.28    0.39
  -3  -8  12    4.02    0.52
  -3  -8  12    4.51    0.55
   3   8 -12    3.25    0.52
  -3   8  12    4.15    0.35
   3   8 -12    4.67    0.71
  -2  -8  12    0.88    0.32
  -2  -8  12    0.23    0.40
  -2   8  12    0.64    0.25
   2   8 -12    0.87    0.39
   2   8 -12    0.38    0.52
  -1  -8  12   11.72    0.81
  -1  -8  12   10.53    0.75
  -1   8  12   10.92    0.66
   1   8 -12   10.24    0.86
   0  -8  12    2.73    0.50
   0  -8  12    2.52    0.53
   0   8 -12    2.00    0.42
   0   8  12    2.20    0.38
   1  -8  12    0.66    0.32
   1  -8  12    0.35    0.45
   1   8  12    0.51    0.34
   2  -8  12    1.51    0.47
   2  -8  12    1.82    0.55
   2   8  12    1.78    0.44
   3  -8  12    1.66    0.55
   3  -8  12    0.88    0.36
   3   8  12    1.37    0.47
   4  -8  12   -0.68    0.50
   4  -8  12   -0.37    0.29
   4   8  12    0.47    0.45
   5  -8  12    3.85    0.62
   5  -8  12    4.49    0.65
   5   8  12    3.79    0.66
   6  -8  12   -0.27    0.47
   6  -8  12    0.54    0.64
  -6   8 -12    0.05    0.34
   6   8  12    0.57    0.42
   9  -9 -12    3.51    0.58
  -8  -9  12    2.33    0.47
   8   9 -12    1.92    0.64
   8   9 -12    1.44    0.63
  -7  -9  12    0.49    0.29
   7   9 -12    0.58    0.53
   7   9 -12    0.98    0.52
  -6  -9  12    0.37    0.35
   6   9 -12    0.63    0.47
   6   9 -12    0.02    0.48
  -5  -9  12    1.04    0.41
   5   9 -12    0.92    0.47
   5   9 -12    0.42    0.49
   5   9 -12    0.40    0.32
  -4  -9  12   21.49    1.11
  -4  -9  12   20.08    1.01
   4   9 -12   22.25    1.36
   4   9 -12   19.07    1.31
   4   9 -12   19.75    1.08
  -3  -9  12    0.41    0.41
  -3  -9  12    0.61    0.41
  -3   9  12    0.66    0.21
   3   9 -12    0.34    0.50
   3   9 -12    1.10    0.44
  -2  -9  12    7.53    0.77
  -2  -9  12    8.32    0.74
   2   9 -12    9.33    0.82
  -2   9  12    7.97    0.54
   2   9 -12    8.43    0.82
  -1  -9  12    0.34    0.40
  -1  -9  12    0.69    0.34
   1   9 -12    0.19    0.51
   1   9 -12    0.68    0.34
  -1   9  12    0.55    0.29
   0  -9  12    0.97    0.39
   0  -9  12    0.83    0.43
   0   9  12    0.70    0.36
   1  -9  12    0.98    0.40
   1  -9  12    1.08    0.45
   1   9  12    1.27    0.39
   2  -9  12    1.96    0.47
   2  -9  12    1.21    0.47
   2   9  12    2.33    0.46
   3  -9  12    0.07    0.51
   3  -9  12   -0.42    0.29
   3   9  12    0.32    0.40
   4  -9  12    8.11    0.73
   4  -9  12    9.23    0.85
   4   9  12   10.11    0.89
   5  -9  12    4.14    0.58
   5  -9  12    4.76    0.71
   5   9  12    4.54    0.62
   6  -9  12   -0.18    0.44
   6  -9  12   -0.55    0.48
   8  10 -12    3.34    0.74
  -7 -10  12   -0.14    0.37
   7  10 -12   -0.18    0.52
   7  10 -12    0.72    0.52
  -6 -10  12    0.62    0.31
   6  10 -12    0.12    0.50
   6  10 -12    0.04    0.53
  -5 -10  12   -0.01    0.38
   5  10 -12    0.80    0.43
   5  10 -12    0.35    0.36
   5  10 -12    0.58    0.43
  -4 -10  12   -0.04    0.28
  -4 -10  12    1.11    0.33
   4  10 -12    0.41    0.43
   4  10 -12    0.14    0.30
   4  10 -12    0.21    0.39
  -3 -10  12    3.69    0.49
  -3 -10  12    3.46    0.57
   3  10 -12    3.38    0.70
   3  10 -12    2.81    0.55
  -3  10  12    4.21    0.37
  -2 -10  12    7.35    0.71
  -2 -10  12    7.87    0.69
   2  10 -12    8.46    0.85
  -2  10  12    8.50    0.53
   2  10 -12    8.28    0.80
  -1 -10  12    0.50    0.46
  -1 -10  12    0.24    0.31
   1  10 -12   -0.13    0.37
  -1  10  12    0.80    0.28
   0 -10  12    2.85    0.46
   0 -10  12    2.99    0.59
   0  10  12    3.32    0.47
   0  10 -12    2.62    0.68
   1 -10  12    0.26    0.49
   1 -10  12    0.80    0.47
   1  10  12    0.12    0.32
   2 -10  12    0.70    0.55
   2 -10  12    1.46    0.41
   2  10  12    1.25    0.44
   3 -10  12    0.51    0.43
   3 -10  12    0.31    0.36
   3  10  12    0.51    0.33
   4 -10  12    1.52    0.66
   4 -10  12    1.91    0.46
   4  10  12    1.82    0.43
   5 -10  12    1.03    0.68
   5 -10  12    0.67    0.41
   7  11 -12    0.58    0.54
  -6 -11  12    2.71    0.46
   6  11 -12    1.92    0.62
   6  11 -12    2.63    0.75
  -5 -11  12    0.79    0.45
   5  11 -12    0.37    0.44
   5  11 -12   -0.53    0.39
   5  11 -12    0.54    0.47
  -4 -11  12    2.02    0.50
  -4 -11  12    2.39    0.45
   4  11 -12    2.11    0.56
   4  11 -12    1.12    0.40
   4  11 -12    2.01    0.53
  -3 -11  12    0.95    0.35
  -3 -11  12    1.03    0.48
   3  11 -12    1.02    0.45
   3  11 -12    1.31    0.50
  -2 -11  12    1.36    0.40
  -2 -11  12    1.53    0.43
   2  11 -12    1.05    0.62
  -2  11  12    1.39    0.29
  -1 -11  12   -0.10    0.42
  -1 -11  12    0.61    0.50
   1  11 -12    0.20    0.55
  -1  11  12    0.57    0.27
   0 -11  12    0.37    0.50
   0 -11  12   -0.07    0.42
   0  11 -12    0.03    0.56
   0  11  12    0.08    0.33
   1 -11  12    0.70    0.36
   1 -11  12    0.66    0.53
  -1  11 -12    1.07    0.50
   1  11  12    0.95    0.42
   2 -11  12   -0.13    0.38
   2 -11  12    0.36    0.48
  -2  11 -12   -0.19    0.40
   2  11  12    0.16    0.39
   3 -11  12   -1.10    0.56
   3 -11  12   -0.52    0.46
   3  11  12    0.12    0.42
   4 -11  12    2.74    0.74
   4 -11  12    3.39    0.63
   6  12 -12    0.50    0.53
  -5 -12  12    3.40    0.59
   5  12 -12    3.51    0.80
   5  12 -12    2.98    0.65
  -4 -12  12    2.27    0.57
  -4 -12  12    1.58    0.51
   4  12 -12    1.98    0.71
   4  12 -12    1.26    0.50
   4  12 -12    0.88    0.40
  -3 -12  12    0.04    0.47
  -3 -12  12   -0.28    0.43
   3  12 -12    0.28    0.62
   3  12 -12    0.37    0.37
  -2 -12  12    1.57    0.52
  -2 -12  12    1.03    0.41
  -2  12  12    1.64    0.30
   2  12 -12    1.05    0.50
  -1 -12  12    4.04    0.56
  -1 -12  12    3.89    0.58
   1  12 -12    4.90    0.84
  -1  12  12    6.03    0.55
   0 -12  12    0.76    0.38
   0 -12  12    0.84    0.42
   0  12 -12    1.23    0.49
   0  12  12    0.84    0.32
   1 -12  12    4.56    0.66
   1 -12  12    4.86    0.65
   1  12  12    3.48    0.51
  -1  12 -12    4.50    0.83
   2 -12  12    2.00    0.57
   2 -12  12    1.26    0.65
  -2  12 -12    1.19    0.69
   2  12  12    1.94    0.47
   3 -12  12   -0.50    0.43
   3 -12  12   -0.10    0.50
  -3  12 -12    0.04    0.62
   5  13 -12    1.95    0.62
  -4 -13  12    1.02    0.53
   4  13 -12    0.98    0.44
  -3 -13  12    3.11    0.63
  -3 -13  12    2.96    0.59
   3  13 -12    3.00    0.66
   3  13 -12    2.52    0.53
  -2 -13  12    1.33    0.41
  -2 -13  12    1.31    0.56
   2  13 -12    1.05    0.44
   2  13 -12    1.90    0.74
  -1 -13  12    5.47    0.70
  -1 -13  12    5.20    0.76
  -1  13  12    6.07    0.56
   1  13 -12    4.54    0.78
   0 -13  12   -0.22    0.44
   0 -13  12    0.00    0.56
   0  13 -12    0.59    0.66
   0  13  12    1.15    0.38
   1 -13  12    1.64    0.55
   1 -13  12    1.14    0.64
   1  13  12    2.52    0.48
  -1  13 -12    1.59    0.74
   2 -13  12    2.20    0.48
  -2  13 -12    1.16    0.72
  10   0 -13   -0.02    0.35
   9   0 -13    2.26    0.40
   9   0 -13    1.54    0.58
   8   0 -13   -0.22    0.41
   8   0 -13    0.40    0.31
  -8   0  13    0.07    0.17
   7   0 -13    0.38    0.30
  -7   0  13    0.19    0.20
   7   0 -13    0.09    0.43
  -6   0  13    0.13    0.20
   6   0 -13   -0.13    0.24
   6   0 -13    0.11    0.40
  -5   0  13   40.80    1.51
   5   0 -13   41.80    2.05
  -4   0  13   -0.14    0.19
  -3   0  13    8.40    0.56
  -2   0  13    0.19    0.25
  -1   0  13    0.68    0.31
   1   0 -13    0.50    0.28
  -1   0  13    1.19    0.32
   0   0 -13    0.24    0.26
   0   0  13    0.86    0.26
   0   0  13    0.55    0.32
   1   0  13   52.82    1.98
  -1   0 -13   49.29    1.96
   1   0  13   52.82    2.09
  -2   0 -13    0.71    0.34
   2   0  13    0.46    0.31
   2   0  13    0.01    0.38
  -3   0 -13   -0.02    0.31
   3   0  13    0.02    0.30
   3   0  13    0.41    0.45
   4   0  13   -0.27    0.34
   4   0  13   -0.05    0.44
  -4   0 -13    0.16    0.28
   5   0  13    2.85    0.51
   5   0  13    1.48    0.49
  -5   0 -13    2.32    0.49
   6   0  13    0.29    0.43
   6   0  13    0.08    0.50
  -6   0 -13   -0.28    0.28
   7   0  13    1.02    0.57
  -7   0 -13    0.83    0.51
   7   0  13    0.84    0.62
   8   0  13    0.67    0.60
   8   0  13   -0.22    0.65
  -8   0 -13   -0.21    0.48
  10  -1 -13    5.81    0.84
  10   1 -13    6.40    0.62
  10   1 -13    5.02    0.76
  -9  -1  13   -0.09    0.20
   9  -1 -13   -0.14    0.45
   9   1 -13   -0.04    0.30
   9   1 -13    0.20    0.36
   8  -1 -13    1.90    0.34
   8  -1 -13    1.35    0.52
  -8  -1  13    1.87    0.26
   8   1 -13    1.41    0.46
   8   1 -13    2.15    0.41
   7  -1 -13   24.79    1.44
   7  -1 -13   24.47    1.11
  -7  -1  13   24.48    0.99
   7   1 -13   24.57    1.45
  -7   1  13   24.07    0.92
   7   1 -13   24.69    1.20
   6  -1 -13    0.72    0.29
   6  -1 -13    0.95    0.36
  -6  -1  13    0.86    0.26
   6   1 -13    0.95    0.37
   6   1 -13    0.48    0.30
  -6   1  13    0.92    0.20
  -5  -1  13   11.25    0.61
   5   1 -13   10.49    0.86
  -5   1  13   11.41    0.56
  -4  -1  13    2.69    0.34
   4   1 -13    1.97    0.42
  -4   1  13    2.41    0.31
  -3  -1  13    0.06    0.24
  -3   1  13    0.18    0.23
  -2  -1  13    2.37    0.32
  -2   1  13    2.14    0.34
  -1  -1  13    6.90    0.55
  -1  -1  13    7.52    0.52
  -1   1  13    7.38    0.56
   0  -1 -13    1.87    0.36
   0  -1  13    2.36    0.42
   0  -1  13    1.90    0.41
   0   1  13    2.02    0.39
   0   1  13    2.08    0.34
   0   1 -13    1.48    0.36
   1  -1  13   23.30    1.14
   1  -1  13   23.53    1.09
  -1  -1 -13   20.02    0.96
   1   1  13   21.77    1.01
   1   1  13   20.85    1.08
  -1   1 -13   18.50    0.97
   2  -1  13    4.71    0.62
   2  -1  13    5.40    0.54
  -2  -1 -13    4.67    0.47
   2   1  13    5.06    0.58
   2   1  13    4.85    0.60
  -2   1 -13    5.47    0.56
   3  -1  13    1.87    0.40
   3  -1  13    2.36    0.57
  -3  -1 -13    2.82    0.45
   3   1  13    2.29    0.45
   3   1  13    2.12    0.50
  -3   1 -13    2.52    0.40
   4  -1  13   -0.27    0.30
   4  -1  13    0.57    0.51
  -4  -1 -13   -0.37    0.34
   4   1  13   -0.13    0.42
  -4   1 -13    0.62    0.39
   4   1  13   -0.01    0.47
  -5  -1 -13    1.26    0.36
   5  -1  13    1.01    0.57
   5  -1  13    1.34    0.53
   5   1  13    0.78    0.50
   5   1  13    1.41    0.60
  -5   1 -13    1.10    0.37
  -6  -1 -13   -0.29    0.39
   6  -1  13    0.06    0.59
   6  -1  13   -0.23    0.35
   6   1  13    0.75    0.45
  -6   1 -13    0.16    0.42
   6   1  13   -0.04    0.36
  -7  -1 -13    0.18    0.44
   7  -1  13   -0.36    0.42
   7  -1  13    0.57    0.41
   7   1  13   -0.04    0.39
  -7   1 -13   -0.24    0.32
   7   1  13    0.27    0.59
   8  -1  13   -0.36    0.37
   8  -1  13   -0.17    0.68
  -8  -1 -13   -0.64    0.44
   8   1  13   -0.05    0.66
  -8   1 -13    0.53    0.40
   8   1  13   -0.43    0.38
  11  -2 -13    5.78    0.80
  11   2 -13    6.69    0.69
  10  -2 -13    4.03    0.74
 -10  -2  13    4.41    0.40
  10   2 -13    4.62    0.82
  10   2 -13    4.64    0.58
  -9  -2  13   10.46    0.57
   9  -2 -13   10.46    1.04
   9   2 -13    8.53    0.99
   9   2 -13   10.35    0.79
  -8  -2  13    8.51    0.52
   8  -2 -13    7.82    0.81
   8   2 -13    8.48    0.72
   8   2 -13    8.47    0.93
   7  -2 -13    2.54    0.51
   7  -2 -13    3.56    0.40
  -7  -2  13    3.29    0.37
   7   2 -13    3.84    0.68
  -7   2  13    3.55    0.26
   7   2 -13    3.21    0.49
   6  -2 -13    0.05    0.39
  -6  -2  13    0.15    0.21
  -6   2  13    0.42    0.17
   6   2 -13    0.16    0.31
   6   2 -13    0.23    0.40
  -5  -2  13    9.78    0.56
  -5   2  13    9.85    0.49
   5   2 -13    8.34    0.79
  -4  -2  13    4.19    0.41
   4   2 -13    2.96    0.49
  -4   2  13    3.57    0.34
  -3  -2  13   11.04    0.66
   3   2 -13   13.58    0.95
  -3   2  13   12.15    0.63
  -2  -2  13    0.58    0.30
  -2  -2  13    0.03    0.25
  -2   2  13    0.13    0.23
  -1  -2  13   23.87    1.06
  -1  -2  13   21.56    1.06
  -1   2  13   22.05    1.00
   0  -2  13   11.83    0.78
   0  -2  13   13.95    0.80
   0   2 -13   10.91    0.68
   0   2  13   12.03    0.73
   1  -2  13    0.32    0.29
   1  -2  13    0.91    0.39
  -1  -2 -13   -0.01    0.26
   1   2  13    0.93    0.37
   1   2  13    0.80    0.35
  -1   2 -13    0.67    0.26
  -2  -2 -13    0.58    0.32
   2  -2  13    0.41    0.30
   2  -2  13    1.02    0.36
   2   2  13    0.59    0.30
   2   2  13    0.39    0.38
  -2   2 -13    1.05    0.30
  -3  -2 -13    1.08    0.36
   3  -2  13    1.34    0.42
   3  -2  13    1.98    0.50
   3   2  13    2.19    0.42
  -3   2 -13    1.16    0.41
   3   2  13    2.25    0.52
  -4  -2 -13    0.20    0.34
   4  -2  13    0.18    0.50
   4  -2  13    0.37    0.35
  -4   2 -13    0.21    0.40
   4   2  13    0.66    0.48
   4   2  13    0.34    0.35
   5  -2  13    0.59    0.57
  -5  -2 -13    0.35    0.39
   5  -2  13    0.97    0.40
  -5   2 -13    0.39    0.44
   5   2  13    0.96    0.55
   5   2  13    0.51    0.49
  -6  -2 -13   -0.31    0.27
   6  -2  13   -0.26    0.48
   6  -2  13    0.67    0.46
   6   2  13    0.47    0.57
  -6   2 -13   -0.12    0.31
   6   2  13    0.89    0.56
   7  -2  13    0.59    0.57
   7  -2  13   -0.60    0.61
  -7  -2 -13    0.19    0.33
   7   2  13    0.42    0.55
   7   2  13    0.92    0.64
  -7   2 -13    0.33    0.50
   8  -2  13    0.25    0.57
  -8  -2 -13    0.06    0.34
   8  -2  13   -0.20    0.51
   8   2  13    0.81    0.55
  11   3 -13    0.37    0.40
  10  -3 -13    2.60    0.64
 -10  -3  13    3.26    0.38
  10   3 -13    3.03    0.52
  10   3 -13    2.78    0.74
  -9  -3  13    0.15    0.26
   9  -3 -13    0.21    0.43
   9   3 -13    0.82    0.39
   9   3 -13    0.49    0.52
  -8  -3  13   12.95    0.66
   8  -3 -13   11.80    0.97
   8   3 -13   12.37    0.87
   8   3 -13   12.20    1.03
  -7  -3  13    8.70    0.57
   7  -3 -13    6.57    0.80
   7  -3 -13    8.18    0.51
   7   3 -13    7.96    0.71
   7   3 -13    6.24    0.77
  -6  -3  13   10.47    0.60
   6   3 -13   11.33    0.80
   6   3 -13   10.07    0.97
  -6   3  13    9.91    0.44
  -5  -3  13    0.30    0.25
   5   3 -13    0.13    0.39
  -5   3  13    0.25    0.16
   5   3 -13    0.00    0.32
  -4  -3  13   21.70    0.97
   4   3 -13   21.09    1.24
  -4   3  13   20.93    0.85
  -3  -3  13    0.51    0.29
  -3   3  13    0.53    0.22
   3   3 -13    0.89    0.39
  -2  -3  13    1.94    0.36
  -2  -3  13    1.82    0.36
   2   3 -13    1.27    0.41
  -2   3  13    1.21    0.30
  -1  -3  13   -0.25    0.31
  -1  -3  13    0.12    0.23
  -1   3  13   -0.08    0.25
   1   3 -13    0.23    0.31
   0  -3  13   16.71    0.92
   0  -3  13   16.17    0.89
   0   3  13   18.44    0.90
   1  -3  13    6.93    0.69
   1  -3  13    5.19    0.57
  -1   3 -13    5.22    0.57
   1   3  13    6.58    0.62
   2  -3  13    0.26    0.43
   2  -3  13   -0.19    0.38
  -2  -3 -13    0.42    0.23
   2   3  13    0.19    0.36
   2   3  13    0.12    0.27
  -2   3 -13    0.18    0.34
  -3  -3 -13   -0.04    0.28
   3  -3  13   -0.75    0.43
   3  -3  13   -0.61    0.38
  -3   3 -13   -0.01    0.27
   3   3  13   -0.15    0.37
   3   3  13   -0.37    0.37
   4  -3  13   -0.04    0.44
  -4  -3 -13   -0.01    0.24
   4  -3  13   -0.89    0.46
  -4   3 -13    0.12    0.30
   4   3  13   -0.48    0.43
   4   3  13   -0.11    0.33
   5  -3  13    0.73    0.43
  -5  -3 -13    0.17    0.38
   5  -3  13    0.05    0.34
  -5   3 -13    0.31    0.32
   5   3  13    0.00    0.46
   5   3  13    0.37    0.39
   6  -3  13    2.10    0.58
  -6  -3 -13    1.08    0.36
   6  -3  13    1.56    0.64
  -6   3 -13    1.92    0.54
   6   3  13    1.85    0.49
   6   3  13    2.31    0.66
   7  -3  13   -0.52    0.63
  -7  -3 -13   -0.02    0.31
   7  -3  13   -0.11    0.38
   7   3  13    0.20    0.56
   7   3  13    0.65    0.57
  -7   3 -13   -0.20    0.36
   8  -3  13   -0.47    0.38
  -8  -3 -13    0.39    0.37
   8   3  13    0.23    0.46
 -10  -4  13   17.02    0.85
  10  -4 -13   17.73    1.31
  10   4 -13   17.38    1.10
  10   4 -13   16.75    1.33
   9  -4 -13    1.19    0.51
  -9  -4  13    0.64    0.30
   9   4 -13   -0.06    0.36
   9   4 -13   -0.18    0.35
  -8  -4  13    2.25    0.37
   8  -4 -13    2.01    0.48
   8   4 -13    2.56    0.64
   8   4 -13    2.14    0.50
   7  -4 -13   -0.11    0.39
  -7  -4  13    0.54    0.30
   7   4 -13    0.23    0.35
   7   4 -13    0.05    0.33
  -6  -4  13    7.87    0.55
   6   4 -13    6.37    0.80
   6   4 -13    8.28    0.74
  -5  -4  13   -0.32    0.25
  -5   4  13    0.00    0.14
   5   4 -13    0.29    0.40
   5   4 -13    0.36    0.35
  -4  -4  13    7.62    0.51
  -4   4  13    6.72    0.41
   4   4 -13    6.84    0.69
  -3  -4  13   -0.16    0.28
  -3   4  13   -0.15    0.20
   3   4 -13    0.08    0.35
  -2  -4  13    5.39    0.53
  -2  -4  13    5.17    0.52
  -2   4  13    5.11    0.42
   2   4 -13    4.47    0.58
  -1  -4  13   -0.14    0.32
  -1  -4  13   -0.41    0.32
  -1   4  13   -0.22    0.26
   1   4 -13    0.43    0.33
   0  -4  13   13.46    0.85
   0  -4  13   11.97    0.73
   0   4 -13   10.87    0.84
   0   4  13   12.96    0.75
   1  -4  13    8.00    0.63
   1  -4  13    8.77    0.67
  -1   4 -13    7.56    0.68
   1   4  13    9.75    0.69
  -1   4 -13    8.62    0.63
   2  -4  13    4.10    0.57
   2  -4  13    3.98    0.54
  -2   4 -13    3.66    0.53
   2   4  13    3.75    0.53
  -3  -4 -13   -0.27    0.29
   3  -4  13    0.12    0.36
   3  -4  13   -0.41    0.40
   3   4  13   -0.42    0.38
  -3   4 -13    0.06    0.28
  -4  -4 -13    0.64    0.38
   4  -4  13   -0.20    0.42
   4  -4  13    1.17    0.57
  -4   4 -13    0.87    0.43
   4   4  13    1.02    0.38
   4   4  13    1.04    0.49
  -5  -4 -13   -0.05    0.27
   5  -4  13   -0.51    0.45
   5  -4  13   -0.60    0.54
   5   4  13    0.18    0.36
   5   4  13   -0.13    0.33
  -5   4 -13    0.45    0.46
   6  -4  13    9.92    1.03
  -6  -4 -13    9.44    0.81
   6  -4  13   10.31    0.82
   6   4  13   11.01    1.03
  -6   4 -13    8.05    0.76
   6   4  13    8.37    0.81
   7  -4  13    0.25    0.40
   7  -4  13   -0.04    0.50
  -7  -4 -13    0.17    0.45
   7   4  13    0.54    0.45
   7   4  13    0.78    0.58
  -7   4 -13    0.89    0.53
 -10  -5  13    0.53    0.30
  10  -5 -13    0.21    0.32
  10   5 -13    0.29    0.43
  -9  -5  13    9.70    0.63
   9  -5 -13    9.47    0.99
   9   5 -13    8.94    0.85
   9   5 -13    7.00    0.98
   8  -5 -13    0.54    0.36
  -8  -5  13    0.26    0.31
   8   5 -13    0.75    0.43
   8   5 -13    0.80    0.43
  -7  -5  13    4.24    0.46
   7   5 -13    4.68    0.63
   7   5 -13    4.53    0.75
  -6  -5  13    9.07    0.62
   6   5 -13    8.29    0.80
   6   5 -13    8.75    0.84
  -5  -5  13   -0.26    0.27
   5   5 -13   -0.54    0.38
   5   5 -13   -0.08    0.37
  -4  -5  13    0.67    0.25
   4   5 -13    0.47    0.42
   4   5 -13    0.43    0.41
  -4   5  13    0.73    0.19
  -3  -5  13   -0.13    0.22
  -3  -5  13   -0.14    0.27
  -3   5  13    0.17    0.20
   3   5 -13    0.19    0.27
  -2  -5  13    0.14    0.32
  -2  -5  13   -0.20    0.31
  -2   5  13   -0.19    0.20
   2   5 -13    0.45    0.35
  -1  -5  13   -0.08    0.36
  -1  -5  13    0.38    0.28
   1   5 -13   -0.16    0.30
  -1   5  13    0.26    0.26
   0  -5  13    0.60    0.39
   0  -5  13    0.11    0.37
   0   5 -13    0.53    0.32
   0   5  13    1.38    0.37
   1  -5  13    5.39    0.54
   1  -5  13    5.47    0.65
  -1   5 -13    3.79    0.49
   1   5  13    5.63    0.56
   2  -5  13   -0.56    0.43
   2  -5  13    0.00    0.40
   2   5  13   -0.38    0.33
  -2   5 -13    0.17    0.28
  -2   5 -13   -0.09    0.27
   3  -5  13   -0.05    0.31
   3  -5  13   -0.20    0.48
  -3   5 -13    0.51    0.43
   3   5  13   -0.12    0.41
   4  -5  13    3.62    0.67
   4  -5  13    4.14    0.55
  -4   5 -13    4.14    0.62
   4   5  13    3.62    0.53
   5  -5  13    0.54    0.49
   5  -5  13    0.72    0.46
  -5  -5 -13    1.08    0.35
  -5   5 -13    1.77    0.54
   5   5  13    2.37    0.59
   6  -5  13    0.81    0.42
  -6  -5 -13    1.02    0.46
   6  -5  13    1.44    0.68
  -6   5 -13    0.90    0.54
   6   5  13    1.23    0.58
   7  -5  13   -0.48    0.50
  -7  -5 -13   -0.43    0.43
   7  -5  13   -1.46    0.59
  -7   5 -13    0.36    0.50
  10  -6 -13    2.59    0.59
 -10  -6  13    1.53    0.40
  -9  -6  13    2.69    0.42
   9  -6 -13    1.54    0.54
   9   6 -13    2.63    0.58
   9   6 -13    2.20    0.68
  -8  -6  13    1.53    0.36
   8  -6 -13    1.57    0.46
   8   6 -13    1.57    0.51
   8   6 -13    1.96    0.55
  -7  -6  13    6.98    0.59
   7   6 -13    5.92    0.84
   7   6 -13    6.29    0.75
  -6  -6  13    0.01    0.30
   6   6 -13    0.82    0.46
   6   6 -13    0.69    0.38
  -5  -6  13    0.88    0.34
   5   6 -13    0.50    0.46
   5   6 -13    0.37    0.42
  -4  -6  13    9.51    0.68
  -4   6  13    9.89    0.47
   4   6 -13   10.33    0.80
   4   6 -13   10.50    0.94
  -3  -6  13    4.52    0.51
  -3  -6  13    4.34    0.51
   3   6 -13    4.38    0.61
  -3   6  13    4.40    0.39
  -2  -6  13    6.71    0.63
  -2  -6  13    5.85    0.53
   2   6 -13    5.98    0.68
  -2   6  13    6.18    0.48
  -1  -6  13    7.84    0.69
  -1  -6  13    7.80    0.71
  -1   6  13    7.98    0.55
   1   6 -13    6.83    0.72
   0  -6  13    1.96    0.47
   0  -6  13    1.77    0.40
   0   6  13    2.36    0.39
   0   6 -13    1.39    0.37
   1  -6  13    5.10    0.59
   1  -6  13    4.56    0.59
   1   6  13    5.74    0.56
  -1   6 -13    4.26    0.52
   2  -6  13    1.46    0.39
   2  -6  13    1.77    0.45
   2   6  13    1.21    0.43
   3  -6  13   -0.70    0.28
   3  -6  13    0.10    0.37
  -3   6 -13   -0.18    0.30
   3   6  13   -0.24    0.28
   4  -6  13   -0.26    0.32
   4  -6  13    0.10    0.39
  -4   6 -13   -0.08    0.31
   4   6  13   -0.52    0.42
   5  -6  13    6.60    0.85
   5  -6  13    6.29    0.68
  -5   6 -13    4.69    0.62
   5   6  13    7.57    0.82
   6  -6  13    1.10    0.56
   6  -6  13    0.28    0.48
   6   6  13    0.87    0.58
  -6   6 -13    1.39    0.54
   7  -6  13   -1.11    0.45
  -9  -7  13    0.60    0.35
   9  -7 -13    0.47    0.36
   9   7 -13   -0.03    0.41
   9   7 -13    0.95    0.55
  -8  -7  13    0.40    0.34
   8  -7 -13    0.48    0.44
   8   7 -13    0.03    0.46
   8   7 -13   -0.09    0.51
  -7  -7  13    2.73    0.45
   7   7 -13    2.77    0.62
   7   7 -13    2.15    0.62
  -6  -7  13    0.90    0.35
   6   7 -13    0.35    0.36
   6   7 -13    0.72    0.49
  -5  -7  13    2.93    0.45
   5   7 -13    2.89    0.60
   5   7 -13    2.96    0.55
  -4  -7  13    0.43    0.36
   4   7 -13   -0.11    0.44
   4   7 -13    0.45    0.33
  -3  -7  13   12.46    0.82
  -3  -7  13   13.72    0.83
  -3   7  13   12.47    0.60
   3   7 -13   12.81    0.93
   3   7 -13   12.01    0.92
  -2  -7  13   -0.29    0.35
  -2  -7  13    0.29    0.37
  -2   7  13    0.26    0.25
   2   7 -13    0.17    0.35
  -1  -7  13    1.80    0.39
  -1  -7  13    1.83    0.39
   1   7 -13    1.59    0.42
  -1   7  13    2.13    0.37
   0  -7  13    0.08    0.31
   0  -7  13   -0.01    0.44
   0   7 -13    0.03    0.32
   0   7  13    1.13    0.37
   1  -7  13   15.86    0.99
   1  -7  13   14.99    1.04
   1   7  13   15.31    0.90
   2  -7  13    4.98    0.70
   2  -7  13    5.40    0.59
   2   7  13    5.22    0.61
   3  -7  13   -0.07    0.44
   3  -7  13    0.41    0.51
   3   7  13   -0.11    0.30
   4  -7  13   -0.08    0.53
   4  -7  13    0.43    0.49
   4   7  13    0.20    0.47
   5  -7  13    0.36    0.59
   5  -7  13    0.10    0.36
   5   7  13    0.93    0.53
  -5   7 -13    0.65    0.51
   6  -7  13    2.38    0.62
   6  -7  13    2.38    0.75
  -6   7 -13    1.94    0.49
   9  -8 -13    0.90    0.51
  -8  -8  13    0.46    0.37
   8   8 -13    0.62    0.41
   8   8 -13    0.84    0.57
  -7  -8  13    0.80    0.37
   7   8 -13    0.15    0.50
   7   8 -13    0.14    0.37
  -6  -8  13   -0.14    0.24
   6   8 -13   -0.07    0.46
   6   8 -13   -0.20    0.31
  -5  -8  13    0.30    0.27
   5   8 -13   -0.04    0.34
   5   8 -13    0.08    0.34
  -4  -8  13    0.67    0.40
   4   8 -13    1.56    0.56
   4   8 -13    0.87    0.46
  -3  -8  13    5.95    0.63
  -3  -8  13    6.44    0.56
   3   8 -13    5.79    0.79
   3   8 -13    5.13    0.69
  -3   8  13    5.68    0.41
  -2  -8  13   -0.03    0.40
  -2  -8  13    0.57    0.41
   2   8 -13    0.57    0.36
   2   8 -13    0.16    0.52
  -2   8  13    0.15    0.25
  -1  -8  13    4.50    0.56
  -1  -8  13    4.50    0.60
  -1   8  13    4.50    0.45
   1   8 -13    3.03    0.52
   0  -8  13    1.19    0.47
   0  -8  13    1.66    0.53
   0   8  13    2.14    0.38
   1  -8  13    0.31    0.32
   1  -8  13    0.57    0.50
   1   8  13    0.74    0.37
   2  -8  13    0.22    0.37
   2  -8  13    0.22    0.45
   2   8  13    0.61    0.40
   3  -8  13    0.12    0.52
   3  -8  13    0.05    0.46
   3   8  13    0.14    0.40
   4  -8  13    2.10    0.59
   4  -8  13    1.86    0.52
   4   8  13    3.31    0.62
   5  -8  13    1.65    0.56
   5  -8  13    1.33    0.56
   5   8  13    2.11    0.61
   6  -8  13    0.11    0.37
   8   9 -13    2.21    0.60
  -7  -9  13    6.70    0.65
   7   9 -13    6.04    0.80
   7   9 -13    5.97    0.81
  -6  -9  13    0.72    0.41
   6   9 -13    0.90    0.43
   6   9 -13    0.46    0.52
  -5  -9  13    0.41    0.29
   5   9 -13    0.15    0.44
   5   9 -13    0.80    0.55
  -4  -9  13    1.96    0.47
   4   9 -13    2.01    0.51
   4   9 -13    1.63    0.50
   4   9 -13    1.87    0.42
  -3  -9  13    1.23    0.44
  -3  -9  13    1.04    0.43
   3   9 -13    0.41    0.39
   3   9 -13    0.45    0.42
  -2  -9  13    0.17    0.44
  -2  -9  13   -0.06    0.30
   2   9 -13    0.17    0.37
  -2   9  13    0.81    0.28
   2   9 -13    0.84    0.46
  -1  -9  13    0.20    0.33
  -1  -9  13   -0.25    0.44
   1   9 -13    0.21    0.41
  -1   9  13    0.61    0.28
   0  -9  13    9.57    0.79
   0  -9  13   10.92    0.88
   0   9  13   11.94    0.74
   1  -9  13    0.52    0.39
   1  -9  13    1.16    0.48
   1   9  13    0.27    0.35
   2  -9  13    2.08    0.61
   2  -9  13    0.88    0.50
   2   9  13    1.53    0.46
   3  -9  13    0.80    0.40
   3  -9  13   -0.15    0.40
   3   9  13    0.60    0.35
   4  -9  13    1.98    0.68
   4  -9  13    1.42    0.55
   4   9  13    3.39    0.62
   5  -9  13    3.60    0.69
   5  -9  13    3.50    0.82
   7  10 -13    0.16    0.37
  -6 -10  13    0.00    0.40
   6  10 -13   -0.18    0.34
   6  10 -13   -0.27    0.53
  -5 -10  13    2.94    0.46
   5  10 -13    2.84    0.72
   5  10 -13    3.13    0.65
  -4 -10  13    6.08    0.65
   4  10 -13    5.30    0.70
   4  10 -13    6.55    0.88
   4  10 -13    6.37    0.74
  -3 -10  13    0.96    0.46
  -3 -10  13    1.12    0.47
   3  10 -13    0.80    0.59
   3  10 -13    1.39    0.47
  -2 -10  13   -0.09    0.43
  -2 -10  13    0.14    0.44
   2  10 -13   -0.37    0.53
  -2  10  13   -0.21    0.22
  -1 -10  13    0.47    0.50
  -1 -10  13    0.62    0.47
  -1  10  13    0.80    0.31
   1  10 -13    0.26    0.43
   0 -10  13    9.67    0.92
   0 -10  13    8.89    0.73
   0  10 -13    7.90    0.98
   0  10  13    8.48    0.67
   1 -10  13    0.06    0.47
   1 -10  13    0.27    0.52
   1  10  13    0.72    0.36
   2 -10  13    1.79    0.44
   2 -10  13    1.90    0.50
   2  10  13    1.69    0.47
   3 -10  13    1.22    0.43
   3 -10  13    0.83    0.63
   3  10  13    2.08    0.52
   4 -10  13    0.53    0.50
   4 -10  13    1.46    0.46
   6  11 -13    1.40    0.54
  -5 -11  13    0.73    0.37
   5  11 -13    1.32    0.53
   5  11 -13    0.10    0.61
  -4 -11  13    2.05    0.43
   4  11 -13    2.20    0.56
   4  11 -13    2.82    0.74
   4  11 -13    3.15    0.61
  -3 -11  13    0.09    0.33
  -3 -11  13   -0.40    0.42
   3  11 -13   -1.10    0.50
  -2 -11  13   -0.12    0.34
  -2 -11  13   -0.20    0.31
  -2  11  13    0.15    0.28
   2  11 -13   -0.32    0.38
  -1 -11  13    0.17    0.50
  -1 -11  13    0.61    0.36
   1  11 -13    1.16    0.66
  -1  11  13    0.63    0.28
   0 -11  13   -0.18    0.47
   0 -11  13    0.69    0.53
   0  11 -13    0.40    0.46
   0  11  13    0.53    0.32
   1 -11  13    0.67    0.43
   1 -11  13    0.38    0.37
   1  11  13    1.16    0.40
  -1  11 -13    0.09    0.60
   2 -11  13    3.27    0.63
   2 -11  13    3.38    0.73
   2  11  13    2.82    0.51
   3 -11  13    0.63    0.54
   3 -11  13    0.18    0.48
   5  12 -13    0.89    0.52
  -3 -12  13    1.47    0.43
  -3 -12  13    1.08    0.51
   3  12 -13    0.71    0.65
   3  12 -13    0.54    0.50
  -2 -12  13    1.23    0.43
  -2 -12  13    1.12    0.52
   2  12 -13    1.89    0.76
  -1 -12  13    1.10    0.54
  -1 -12  13    1.29    0.48
   1  12 -13    0.32    0.49
  -1  12  13    1.36    0.35
   0 -12  13    0.48    0.38
   0 -12  13    0.63    0.44
   0  12  13    0.82    0.37
   0  12 -13   -1.08    0.59
   1 -12  13    3.50    0.75
   1 -12  13    3.66    0.66
   1  12  13    4.88    0.58
  -1  12 -13    4.60    0.90
  10   0 -14    0.85    0.57
   9   0 -14   -0.51    0.49
   9   0 -14    0.25    0.31
  -8   0  14   10.80    0.54
   8   0 -14   10.67    0.73
   8   0 -14   12.26    1.12
   7   0 -14    0.07    0.43
  -7   0  14   -0.35    0.19
   7   0 -14    0.34    0.31
  -6   0  14   25.29    1.00
   6   0 -14   24.41    1.52
   6   0 -14   23.97    1.20
   5   0 -14   -0.28    0.37
  -5   0  14   -0.18    0.22
  -4   0  14   11.54    0.62
  -3   0  14   -0.26    0.24
  -2   0  14    0.11    0.26
  -1   0  14   -0.15    0.28
   0   0  14    0.77    0.35
   1   0  14    0.60    0.29
  -1   0 -14    0.55    0.32
   1   0  14    1.32    0.41
  -2   0 -14    1.29    0.33
   2   0  14    1.96    0.50
   2   0  14    2.14    0.49
   3   0  14   -0.16    0.43
  -3   0 -14    0.30    0.38
   3   0  14   -0.60    0.44
   4   0  14   -0.28    0.48
   4   0  14    0.86    0.49
  -4   0 -14   -0.15    0.37
  -5   0 -14    0.41    0.44
   5   0  14    0.20    0.55
   5   0  14    0.22    0.37
   6   0  14    0.29    0.60
   6   0  14    0.11    0.54
  -6   0 -14    0.57    0.46
  -7   0 -14   -0.11    0.34
   7   0  14    0.50    0.51
  10  -1 -14   12.11    1.21
   9  -1 -14    7.21    0.92
   9   1 -14    7.85    0.70
   9   1 -14    7.86    0.97
   8  -1 -14    7.23    0.59
   8  -1 -14    6.58    0.79
  -8  -1  14    7.01    0.46
   8   1 -14    7.40    0.66
   8   1 -14    6.33    0.80
   7  -1 -14    0.98    0.41
   7  -1 -14    0.84    0.31
  -7  -1  14    1.19    0.24
   7   1 -14    1.66    0.39
  -7   1  14    0.83    0.19
   7   1 -14    0.74    0.41
   6  -1 -14    3.83    0.60
  -6  -1  14    4.42    0.39
   6   1 -14    2.80    0.54
  -6   1  14    4.47    0.38
   6   1 -14    4.27    0.55
   5  -1 -14    2.03    0.45
  -5  -1  14    1.83    0.30
   5   1 -14    1.64    0.42
  -5   1  14    1.34    0.26
  -4  -1  14    4.69    0.45
   4   1 -14    4.00    0.63
  -4   1  14    4.96    0.40
  -3  -1  14    0.38    0.27
  -3   1  14    0.38    0.28
  -2  -1  14    0.63    0.31
  -2   1  14    0.45    0.28
  -1  -1  14    2.58    0.42
  -1   1  14    2.62    0.41
   0  -1  14    2.57    0.46
   0  -1  14    3.17    0.49
   0   1 -14    2.48    0.42
   0   1  14    2.50    0.42
   1  -1  14    4.57    0.56
   1  -1  14    4.18    0.55
  -1   1 -14    3.76    0.49
   1   1  14    4.11    0.53
   2  -1  14    0.21    0.30
   2  -1  14   -0.16    0.41
  -2  -1 -14    0.55    0.35
   2   1  14    0.47    0.40
   2   1  14    0.25    0.30
  -2   1 -14    0.24    0.35
  -3  -1 -14    4.09    0.48
   3  -1  14    3.88    0.58
   3  -1  14    3.68    0.53
   3   1  14    4.58    0.56
   3   1  14    4.22    0.64
  -3   1 -14    4.15    0.50
   4  -1  14    0.81    0.56
   4  -1  14    1.04    0.41
  -4  -1 -14    1.11    0.35
  -4   1 -14    1.74    0.40
   4   1  14    1.30    0.43
   4   1  14    1.40    0.45
   5  -1  14    0.25    0.55
   5  -1  14    0.09    0.51
  -5  -1 -14    0.46    0.44
   5   1  14    0.03    0.38
  -5   1 -14    0.36    0.32
   5   1  14   -0.14    0.51
  -6  -1 -14    2.18    0.46
   6  -1  14    3.17    0.63
   6  -1  14    2.89    0.66
  -6   1 -14    3.27    0.60
   6   1  14    2.94    0.66
   6   1  14    2.79    0.69
   7  -1  14    0.28    0.44
   7  -1  14    0.63    0.70
  -7  -1 -14    1.10    0.54
   7   1  14    1.17    0.54
  -7   1 -14    1.01    0.52
  10  -2 -14   -0.48    0.48
  10   2 -14    0.13    0.36
  -9  -2  14   -0.02    0.23
   9  -2 -14    0.15    0.37
   9   2 -14    0.06    0.35
   9   2 -14   -0.36    0.33
   8  -2 -14    7.87    0.85
  -8  -2  14    8.45    0.53
   8   2 -14    7.99    0.69
   8   2 -14    6.76    0.84
   7  -2 -14   -0.20    0.25
   7  -2 -14    0.47    0.36
  -7  -2  14    0.18    0.26
   7   2 -14    0.67    0.49
   7   2 -14    0.22    0.36
  -6  -2  14   19.29    0.88
   6  -2 -14   18.45    1.30
   6   2 -14   20.30    1.36
  -6   2  14   19.24    0.78
   6   2 -14   19.68    1.12
  -5  -2  14    5.16    0.45
   5   2 -14    3.36    0.55
  -5   2  14    3.69    0.36
  -4  -2  14    7.72    0.56
   4   2 -14    7.47    0.74
  -4   2  14    7.85    0.50
  -3  -2  14    0.53    0.29
  -3   2  14   -0.39    0.20
   3   2 -14    0.17    0.38
  -2  -2  14    0.40    0.24
   2   2 -14    0.00    0.25
  -2   2  14    0.20    0.29
  -1  -2  14    2.84    0.44
  -1   2  14    1.68    0.34
   0  -2  14    0.09    0.34
   0  -2  14   -0.13    0.34
   0   2 -14    0.09    0.22
   0   2  14    0.69    0.34
   1  -2  14    2.99    0.51
   1  -2  14    2.99    0.45
  -1   2 -14    3.04    0.47
   1   2  14    2.82    0.47
   2  -2  14    0.11    0.31
   2  -2  14   -0.19    0.30
  -2   2 -14    0.56    0.28
   2   2  14    0.34    0.40
  -3  -2 -14    0.60    0.36
   3  -2  14   -0.34    0.47
   3  -2  14    0.41    0.45
   3   2  14    0.38    0.43
  -3   2 -14    0.39    0.41
   4  -2  14    3.79    0.61
  -4  -2 -14    3.72    0.54
   4  -2  14    3.84    0.56
   4   2  14    3.64    0.57
   4   2  14    4.01    0.63
  -4   2 -14    3.78    0.60
   5  -2  14    0.92    0.42
   5  -2  14    0.92    0.48
  -5  -2 -14    0.71    0.35
  -5   2 -14    1.23    0.49
   5   2  14    0.84    0.43
   5   2  14    1.00    0.43
  -6  -2 -14    3.11    0.58
   6  -2  14    3.49    0.65
   6  -2  14    2.87    0.67
  -6   2 -14    2.55    0.51
   6   2  14    2.48    0.53
   6   2  14    5.22    0.80
   7  -2  14    0.91    0.62
  -7  -2 -14    1.45    0.56
   7  -2  14   -0.26    0.66
   7   2  14    0.66    0.48
  -7   2 -14    1.23    0.57
 -10  -3  14   -0.13    0.24
  10   3 -14   -0.33    0.37
  -9  -3  14    0.42    0.28
   9  -3 -14    0.55    0.40
   9   3 -14   -0.03    0.34
   9   3 -14    0.27    0.56
   8  -3 -14    4.10    0.65
  -8  -3  14    4.13    0.41
   8   3 -14    3.87    0.57
   8   3 -14    4.34    0.77
   7  -3 -14    5.53    0.77
  -7  -3  14    4.43    0.43
   7   3 -14    4.55    0.60
   7   3 -14    4.44    0.67
  -6  -3  14   -0.13    0.24
   6   3 -14    0.41    0.40
   6   3 -14    0.23    0.45
  -5  -3  14    0.22    0.26
   5   3 -14   -0.72    0.31
   5   3 -14    0.73    0.46
  -5   3  14   -0.21    0.18
  -4  -3  14   10.56    0.66
   4   3 -14    9.15    0.83
  -4   3  14   10.59    0.55
  -3  -3  14    1.40    0.35
  -3   3  14    1.43    0.29
   3   3 -14    1.22    0.46
  -2  -3  14    0.68    0.34
   2   3 -14    0.46    0.31
  -2   3  14    1.05    0.29
  -1  -3  14    0.58    0.28
  -1  -3  14    0.74    0.36
   1   3 -14    0.61    0.38
  -1   3  14    0.22    0.28
   0  -3  14    0.47    0.38
   0  -3  14    1.19    0.33
   0   3  14    1.26    0.36
   1  -3  14    6.43    0.68
   1  -3  14    6.20    0.58
   1   3  14    6.58    0.62
  -1   3 -14    5.72    0.61
   2  -3  14    9.58    0.87
   2  -3  14    8.74    0.82
   2   3  14   11.15    0.81
  -2   3 -14   10.46    0.80
   3  -3  14   -0.47    0.43
   3  -3  14   -0.26    0.48
   3   3  14   -0.06    0.29
  -3   3 -14    0.57    0.31
   4  -3  14   -0.33    0.46
   4  -3  14   -0.51    0.53
  -4   3 -14   -0.22    0.29
   4   3  14   -0.40    0.43
   5  -3  14    1.92    0.49
   5  -3  14    1.16    0.64
  -5  -3 -14    1.27    0.37
   5   3  14    1.50    0.48
  -5   3 -14    2.56    0.48
  -6  -3 -14    0.58    0.45
   6  -3  14    0.48    0.55
   6  -3  14    1.21    0.70
  -6   3 -14    1.05    0.54
   6   3  14    1.11    0.57
  -7  -3 -14    0.28    0.49
   7  -3  14    0.71    0.54
  -7   3 -14    0.42    0.41
 -10  -4  14    1.89    0.34
  10   4 -14    1.13    0.47
  -9  -4  14    5.39    0.48
   9  -4 -14    4.45    0.76
   9   4 -14    3.89    0.71
   9   4 -14    5.03    0.65
  -8  -4  14    2.44    0.35
   8  -4 -14    1.14    0.43
   8   4 -14    1.25    0.48
   8   4 -14    1.65    0.51
   7  -4 -14   10.02    1.01
  -7  -4  14    8.43    0.60
   7   4 -14    9.83    1.05
   7   4 -14    9.88    0.83
  -6  -4  14    1.10    0.32
   6   4 -14    1.02    0.40
   6   4 -14    0.92    0.42
  -5  -4  14    3.12    0.41
   5   4 -14    1.97    0.56
   5   4 -14    2.44    0.53
  -5   4  14    2.57    0.25
  -4  -4  14    0.89    0.33
   4   4 -14    0.58    0.34
  -4   4  14    0.46    0.23
  -3  -4  14    6.48    0.58
   3   4 -14    5.63    0.70
  -3   4  14    5.94    0.46
  -2  -4  14    0.23    0.25
  -2   4  14    0.18    0.26
   2   4 -14    0.55    0.38
  -1  -4  14    0.40    0.36
  -1  -4  14    0.65    0.38
  -1   4  14    0.86    0.31
   1   4 -14    0.83    0.39
   0  -4  14    0.07    0.40
   0  -4  14   -0.39    0.25
   0   4 -14    0.31    0.31
   0   4  14    0.78    0.34
   1  -4  14    6.68    0.72
   1  -4  14    8.04    0.75
  -1   4 -14    6.99    0.68
   1   4  14    7.91    0.69
   2  -4  14    3.36    0.62
   2  -4  14    3.63    0.58
  -2   4 -14    3.52    0.49
  -2   4 -14    2.79    0.45
   2   4  14    4.46    0.57
   3  -4  14    1.25    0.41
   3  -4  14    1.16    0.45
  -3   4 -14    1.45    0.47
   3   4  14    0.81    0.47
   4  -4  14   -0.39    0.52
   4  -4  14   -0.30    0.32
   4   4  14    0.27    0.36
  -4   4 -14    0.13    0.45
   5  -4  14    0.67    0.62
   5  -4  14    0.18    0.51
   5   4  14    0.45    0.53
  -5   4 -14    0.63    0.48
   6  -4  14    0.12    0.40
   6  -4  14    0.38    0.50
  -6   4 -14    0.64    0.40
   6   4  14    0.97    0.58
  -9  -5  14    1.45    0.38
   9  -5 -14    1.76    0.58
   9   5 -14    1.89    0.59
  -8  -5  14    1.47    0.35
   8  -5 -14    1.03    0.44
   8   5 -14    1.12    0.48
   8   5 -14    1.79    0.52
  -7  -5  14    5.64    0.53
   7   5 -14    4.13    0.75
   7   5 -14    5.47    0.69
  -6  -5  14    0.27    0.31
   6   5 -14    0.22    0.38
   6   5 -14    0.00    0.34
  -5  -5  14   -0.22    0.21
   5   5 -14   -0.24    0.28
   5   5 -14   -0.33    0.40
  -4  -5  14    2.03    0.34
  -4   5  14    1.72    0.25
   4   5 -14    1.24    0.49
   4   5 -14    1.47    0.52
  -3  -5  14    4.89    0.49
  -3   5  14    5.10    0.42
   3   5 -14    4.52    0.60
  -2  -5  14   -0.57    0.32
  -2   5  14   -0.36    0.21
   2   5 -14   -0.17    0.32
  -1  -5  14    2.78    0.43
  -1  -5  14    2.95    0.44
   1   5 -14    2.66    0.49
  -1   5  14    2.41    0.38
   0  -5  14    3.47    0.48
   0  -5  14    2.31    0.51
   0   5  14    2.75    0.43
   0   5 -14    2.71    0.46
   1  -5  14    2.62    0.48
   1  -5  14    2.66    0.54
  -1   5 -14    1.58    0.42
   1   5  14    3.36    0.49
   2  -5  14    0.20    0.37
   2  -5  14    0.07    0.32
   2   5  14    0.69    0.33
   3  -5  14   -0.86    0.45
   3  -5  14   -0.57    0.42
   3   5  14   -0.21    0.39
  -3   5 -14    0.18    0.44
   4  -5  14    0.05    0.36
   4  -5  14    0.15    0.53
  -4   5 -14   -0.02    0.33
   4   5  14   -0.27    0.46
   5  -5  14    2.65    0.59
   5  -5  14    2.83    0.54
  -5   5 -14    3.17    0.61
   5   5  14    3.92    0.71
   6  -5  14    0.90    0.59
   6  -5  14    0.55    0.70
  -6   5 -14    2.22    0.58
  -9  -6  14    1.82    0.42
   9  -6 -14    2.27    0.60
   9   6 -14    1.64    0.59
  -8  -6  14   17.36    0.89
   8  -6 -14   14.62    1.23
   8   6 -14   15.99    1.14
   8   6 -14   15.62    1.38
  -7  -6  14    1.61    0.38
   7   6 -14    1.04    0.48
   7   6 -14    0.76    0.44
  -6  -6  14    6.59    0.52
   6   6 -14    4.45    0.63
   6   6 -14    5.63    0.80
  -5  -6  14    0.03    0.24
   5   6 -14   -0.54    0.40
   5   6 -14    0.22    0.45
  -4  -6  14    0.35    0.26
  -4   6  14    0.18    0.17
   4   6 -14    0.08    0.46
   4   6 -14   -0.33    0.38
  -3  -6  14   13.94    0.84
   3   6 -14   12.88    1.04
  -3   6  14   12.91    0.64
  -2  -6  14    0.03    0.35
  -2  -6  14   -0.03    0.27
  -2   6  14   -0.24    0.25
   2   6 -14    0.06    0.36
  -1  -6  14   -0.50    0.37
  -1  -6  14   -0.61    0.26
   1   6 -14   -0.32    0.31
  -1   6  14    0.18    0.27
   0  -6  14    8.01    0.78
   0  -6  14    6.66    0.70
   0   6 -14    6.38    0.69
   0   6  14    8.39    0.64
   1  -6  14    0.00    0.32
   1  -6  14   -0.18    0.45
   1   6  14    0.86    0.38
   2  -6  14   -0.49    0.44
   2  -6  14    0.17    0.53
   2   6  14    0.25    0.41
   3  -6  14   -0.14    0.37
   3  -6  14   -0.12    0.47
   3   6  14    0.23    0.35
   4  -6  14   -0.53    0.48
   4  -6  14    0.02    0.55
  -4   6 -14    0.72    0.50
   4   6  14    0.45    0.51
   5  -6  14    5.32    0.66
   5  -6  14    5.20    0.85
   5   6  14    4.33    0.72
  -5   6 -14    4.21    0.62
   6  -6  14    2.73    0.80
   6  -6  14    2.94    0.66
   8  -7 -14    5.47    0.80
  -8  -7  14    5.74    0.58
   8   7 -14    5.48    0.78
   8   7 -14    4.63    0.75
  -7  -7  14    0.65    0.37
   7   7 -14   -0.16    0.36
   7   7 -14    0.49    0.51
  -6  -7  14    0.37    0.36
   6   7 -14   -0.02    0.32
   6   7 -14   -0.03    0.44
  -5  -7  14    1.41    0.40
   5   7 -14    0.68    0.48
   5   7 -14    0.56    0.52
  -4  -7  14    4.82    0.54
   4   7 -14    4.47    0.66
   4   7 -14    3.75    0.66
  -3  -7  14    0.12    0.37
  -3   7  14    0.03    0.20
   3   7 -14    0.09    0.39
   3   7 -14   -0.45    0.46
  -2  -7  14   -0.39    0.36
  -2  -7  14    0.17    0.39
  -2   7  14    0.03    0.21
   2   7 -14    0.13    0.34
  -1  -7  14    0.14    0.41
  -1  -7  14    1.03    0.36
  -1   7  14    0.90    0.31
   1   7 -14    0.76    0.38
   0  -7  14    0.13    0.34
   0  -7  14    0.28    0.44
   0   7  14    0.22    0.31
   1  -7  14    8.84    0.83
   1  -7  14    8.19    0.75
   1   7  14    8.95    0.73
   2  -7  14    3.47    0.61
   2  -7  14    3.73    0.59
   2   7  14    3.70    0.57
   3  -7  14    1.72    0.62
   3  -7  14    1.44    0.45
   3   7  14    1.77    0.51
   4  -7  14    1.31    0.45
   4  -7  14    1.06    0.48
   4   7  14    0.56    0.52
   5  -7  14    0.10    0.47
   5  -7  14    0.74    0.56
   8  -8 -14   -0.22    0.31
  -7  -8  14    0.24    0.37
   7   8 -14    0.12    0.49
   7   8 -14   -0.44    0.50
  -6  -8  14    0.99    0.42
   6   8 -14    1.20    0.55
   6   8 -14    1.07    0.56
  -5  -8  14    0.09    0.36
   5   8 -14    0.21    0.49
   5   8 -14    0.42    0.49
  -4  -8  14    0.28    0.38
   4   8 -14   -0.25    0.48
   4   8 -14    0.85    0.46
  -3  -8  14   -0.21    0.27
   3   8 -14    0.29    0.40
   3   8 -14   -0.07    0.36
  -3   8  14    0.09    0.21
  -2  -8  14   -0.65    0.36
  -2  -8  14   -0.56    0.38
   2   8 -14    0.29    0.39
  -2   8  14    0.36    0.25
   2   8 -14   -0.31    0.50
  -1  -8  14   -0.24    0.43
  -1  -8  14    0.37    0.46
  -1   8  14   -0.02    0.30
   1   8 -14    0.33    0.35
   0  -8  14   -0.08    0.34
   0  -8  14    0.17    0.34
   0   8  14    0.96    0.37
   1  -8  14    0.58    0.48
   1  -8  14    0.06    0.37
   1   8  14    1.29    0.42
   2  -8  14    4.12    0.56
   2  -8  14    3.46    0.68
   2   8  14    3.53    0.58
   3  -8  14   -0.61    0.33
   3  -8  14   -0.54    0.37
   3   8  14    0.07    0.43
   4  -8  14    0.43    0.42
   4  -8  14   -0.68    0.61
   7   9 -14    2.36    0.68
  -6  -9  14    2.06    0.47
   6   9 -14    1.59    0.62
   6   9 -14    1.42    0.60
  -5  -9  14    3.34    0.54
   5   9 -14    3.28    0.63
   5   9 -14    2.07    0.58
  -4  -9  14    5.91    0.64
   4   9 -14    4.73    0.71
   4   9 -14    4.25    0.79
  -3  -9  14    0.48    0.34
   3   9 -14    0.20    0.56
   3   9 -14   -0.28    0.39
  -2  -9  14    2.57    0.47
  -2  -9  14    2.64    0.47
   2   9 -14    3.81    0.75
  -2   9  14    3.35    0.38
   2   9 -14    2.86    0.55
  -1  -9  14    0.85    0.51
  -1  -9  14    0.77    0.38
   1   9 -14    1.41    0.52
  -1   9  14    1.38    0.35
   0  -9  14   10.95    0.93
   0  -9  14   10.96    0.97
   0   9  14   12.29    0.81
   1  -9  14    0.98    0.56
   1  -9  14    0.98    0.40
   1   9  14    0.16    0.35
   2  -9  14    0.82    0.53
   2  -9  14    0.33    0.41
   2   9  14    1.21    0.47
   3  -9  14    1.43    0.58
   3  -9  14    0.07    0.63
   3   9  14    0.86    0.47
   4  -9  14    1.08    0.57
   4  -9  14    1.38    0.56
   6  10 -14    3.00    0.67
   5  10 -14   -0.85    0.35
   5  10 -14    0.02    0.33
  -4 -10  14    4.65    0.63
   4  10 -14    4.34    0.71
   4  10 -14    5.12    0.76
  -3 -10  14    3.58    0.58
   3  10 -14    2.51    0.57
   3  10 -14    4.12    0.70
  -2 -10  14    1.09    0.50
  -2 -10  14    0.54    0.37
  -2  10  14    0.70    0.27
   2  10 -14   -0.79    0.57
  -1 -10  14    0.26    0.47
  -1 -10  14    0.05    0.50
   1  10 -14    0.62    0.65
  -1  10  14    0.58    0.32
   0 -10  14   -0.09    0.35
   0 -10  14   -0.17    0.51
   0  10 -14   -0.15    0.64
   0  10  14    0.39    0.35
   1 -10  14    3.01    0.63
   1 -10  14    3.09    0.58
   1  10  14    2.40    0.47
   2 -10  14   10.28    0.95
   2 -10  14    8.64    0.97
   2  10  14    9.80    0.84
   3 -10  14   -0.16    0.45
   3 -10  14    0.65    0.43
   5  11 -14    0.83    0.47
   4  11 -14    1.81    0.55
  -2 -11  14    3.16    0.62
  -2 -11  14    2.08    0.46
   2  11 -14    3.46    0.84
  -1 -11  14    1.47    0.47
  -1 -11  14    2.39    0.49
  -1  11  14    2.61    0.40
   1  11 -14    0.94    0.69
   0 -11  14    2.38    0.61
   0 -11  14    1.30    0.47
   0  11  14    2.84    0.45
   0  11 -14    0.99    0.55
   1 -11  14   -0.96    0.54
  -1  11 -14   -0.25    0.69
   1  11  14    0.21    0.40
   9   0 -15    0.01    0.54
   8   0 -15    0.39    0.32
   8   0 -15    0.05    0.49
  -7   0  15    8.57    0.51
   7   0 -15    8.04    0.69
   7   0 -15    8.07    0.93
   6   0 -15   -0.38    0.41
   6   0 -15   -0.58    0.31
  -6   0  15   -0.25    0.22
  -5   0  15    7.58    0.52
   5   0 -15    5.89    0.74
  -4   0  15   -0.59    0.22
   4   0 -15   -0.41    0.26
  -3   0  15    1.54    0.36
  -2   0  15   -0.54    0.26
  -1   0  15    2.72    0.44
   0   0  15    0.09    0.26
   1   0  15    0.52    0.40
   2   0  15    0.51    0.42
   3   0  15   15.91    1.04
  -3   0 -15   12.20    0.83
   4   0  15    0.69    0.60
  -4   0 -15    0.11    0.31
   4   0  15    0.36    0.39
   5   0  15    0.30    0.54
  -5   0 -15    1.26    0.40
   5   0  15    1.19    0.60
  -6   0 -15    1.44    0.53
   6   0  15    0.18    0.44
   9   1 -15    4.05    0.54
   8  -1 -15    0.95    0.45
  -8  -1  15    0.83    0.25
   8   1 -15    2.20    0.64
   8   1 -15    0.85    0.38
  -7  -1  15    1.32    0.29
   7  -1 -15    0.87    0.34
   7  -1 -15    1.26    0.44
   7   1 -15    0.93    0.39
   7   1 -15    0.44    0.40
  -6  -1  15    0.65    0.28
   6  -1 -15    0.75    0.48
   6   1 -15    1.38    0.44
  -6   1  15    1.12    0.25
   6   1 -15    1.72    0.47
   5  -1 -15   11.16    1.02
  -5  -1  15    8.90    0.58
   5   1 -15    9.14    0.97
  -5   1  15    9.40    0.53
  -4  -1  15    1.10    0.31
   4   1 -15    1.10    0.49
  -4   1  15    0.47    0.29
  -3  -1  15    4.97    0.48
   3   1 -15    4.19    0.60
  -3   1  15    4.16    0.44
  -2  -1  15    0.91    0.35
  -2   1  15    0.70    0.32
  -1  -1  15    0.09    0.33
  -1   1  15    0.07    0.31
   0  -1  15    1.42    0.42
   0   1  15    0.85    0.40
   1  -1  15    0.56    0.42
   1   1  15    0.95    0.42
   2  -1  15    3.68    0.59
  -2   1 -15    4.43    0.58
   2   1  15    4.64    0.61
   3  -1  15    0.08    0.34
   3  -1  15    0.16    0.49
   3   1  15   -0.30    0.42
  -3   1 -15    0.40    0.41
   4  -1  15    0.78    0.45
   4  -1  15    0.58    0.52
  -4   1 -15    1.41    0.48
   4   1  15    0.46    0.52
  -5  -1 -15    0.27    0.42
   5  -1  15    0.53    0.45
   5  -1  15    1.42    0.59
  -5   1 -15    1.60    0.53
   5   1  15    0.93    0.45
  -6  -1 -15    0.84    0.50
   6  -1  15    0.75    0.63
  -6   1 -15   -0.09    0.36
   9  -2 -15    4.07    0.71
   9   2 -15    4.87    0.62
   8  -2 -15    6.11    0.81
  -8  -2  15    7.09    0.51
   8   2 -15    5.48    0.79
   8   2 -15    8.15    0.76
  -7  -2  15   12.46    0.68
   7  -2 -15   11.44    0.72
   7  -2 -15   12.17    1.03
   7   2 -15   12.25    0.86
   7   2 -15   11.50    1.14
  -6  -2  15    0.93    0.28
   6  -2 -15    0.50    0.38
   6   2 -15    1.50    0.44
  -6   2  15    1.27    0.23
   6   2 -15    0.58    0.51
  -5  -2  15    2.79    0.38
   5   2 -15    2.21    0.50
  -5   2  15    2.32    0.30
  -4  -2  15   -0.39    0.26
  -4   2  15   -0.37    0.23
   4   2 -15   -0.04    0.41
  -3  -2  15    1.90    0.39
   3   2 -15    2.12    0.46
  -3   2  15    2.25    0.35
  -2  -2  15    2.19    0.42
  -2   2  15    2.49    0.40
   2   2 -15    1.86    0.50
  -1  -2  15    1.19    0.39
  -1   2  15    1.08    0.35
   0  -2  15    1.20    0.34
   0   2  15    1.32    0.39
   1  -2  15   11.21    0.84
  -1   2 -15   10.79    0.82
   1   2  15   11.61    0.82
   2  -2  15    4.86    0.68
   2  -2  15    6.06    0.62
  -2   2 -15    5.19    0.58
   2   2  15    6.31    0.68
   3  -2  15    0.15    0.50
   3  -2  15   -0.52    0.45
   3   2  15    0.38    0.45
  -3   2 -15   -0.19    0.39
   4  -2  15    0.39    0.38
   4  -2  15    0.05    0.54
  -4   2 -15    1.23    0.50
   4   2  15    0.77    0.42
   5  -2  15    0.84    0.62
   5  -2  15    0.87    0.56
  -5   2 -15    2.38    0.56
   5   2  15    2.04    0.64
   6  -2  15    2.92    0.81
  -6   2 -15    2.96    0.61
  -9  -3  15    0.18    0.24
   9   3 -15    0.66    0.44
   8  -3 -15    1.91    0.52
  -8  -3  15    2.73    0.39
   8   3 -15    3.26    0.59
   8   3 -15    2.59    0.68
  -7  -3  15    0.24    0.29
   7  -3 -15   -0.13    0.35
   7   3 -15   -0.11    0.34
   7   3 -15    0.42    0.39
  -6  -3  15    1.72    0.37
   6  -3 -15    0.79    0.40
   6   3 -15    1.60    0.56
   6   3 -15    1.93    0.50
  -5  -3  15    0.46    0.29
   5   3 -15   -0.04    0.42
  -5   3  15    0.45    0.21
   5   3 -15    0.17    0.41
  -4  -3  15    0.14    0.30
   4   3 -15   -0.18    0.38
  -4   3  15   -0.23    0.22
  -3  -3  15    9.64    0.69
   3   3 -15    9.77    0.84
  -3   3  15    9.58    0.60
  -2  -3  15    8.40    0.60
   2   3 -15    7.98    0.86
  -2   3  15    8.02    0.57
  -1  -3  15   -0.22    0.35
   1   3 -15    0.32    0.39
  -1   3  15    0.53    0.31
   0  -3  15   -0.01    0.37
   0   3 -15    0.54    0.36
   0   3  15   -0.32    0.32
   1  -3  15    1.53    0.52
   1  -3  15    1.51    0.39
   1   3  15    1.43    0.43
  -1   3 -15    1.12    0.34
   2  -3  15    0.55    0.49
   2  -3  15    1.10    0.50
   2   3  15    1.28    0.47
  -2   3 -15    0.93    0.43
   3  -3  15   -0.30    0.50
   3  -3  15    0.15    0.50
  -3   3 -15    0.28    0.33
   3   3  15    0.34    0.46
   4  -3  15   -0.98    0.46
   4  -3  15   -0.35    0.53
   4   3  15   -0.26    0.48
  -4   3 -15    0.39    0.34
   5  -3  15    1.07    0.68
   5  -3  15    0.45    0.57
  -5   3 -15    0.10    0.48
   5   3  15    0.70    0.58
  -9  -4  15    4.65    0.48
   9   4 -15    4.79    0.70
  -8  -4  15    9.19    0.65
   8  -4 -15    8.72    0.91
   8   4 -15    6.54    0.88
   8   4 -15    8.07    0.81
   7  -4 -15    0.50    0.39
  -7  -4  15    1.46    0.32
   7   4 -15    0.79    0.54
   7   4 -15    1.58    0.52
  -6  -4  15    0.39    0.30
   6   4 -15    0.21    0.36
   6   4 -15    0.10    0.42
  -5  -4  15    0.79    0.32
   5   4 -15    0.24    0.43
   5   4 -15    0.73    0.49
  -4  -4  15    0.90    0.35
  -4   4  15    0.57    0.23
   4   4 -15    0.25    0.41
  -3  -4  15    0.13    0.24
  -3   4  15   -0.09    0.24
   3   4 -15   -0.16    0.27
  -2  -4  15    2.98    0.48
  -2   4  15    2.49    0.36
   2   4 -15    2.58    0.55
  -1  -4  15    0.22    0.29
   1   4 -15    0.36    0.38
  -1   4  15   -0.01    0.30
   0  -4  15    1.57    0.38
   0   4  15    1.49    0.39
   0   4 -15    1.32    0.43
   1  -4  15    0.41    0.46
   1  -4  15    0.74    0.46
   1   4  15    0.14    0.37
  -1   4 -15    0.01    0.32
   2  -4  15    0.23    0.34
   2  -4  15   -0.37    0.46
   2   4  15    0.06    0.29
  -2   4 -15    0.17    0.30
   3  -4  15    0.37    0.39
   3  -4  15    0.01    0.35
  -3   4 -15    0.46    0.46
   3   4  15    0.65    0.46
   4  -4  15   -0.60    0.38
   4  -4  15   -0.47    0.35
  -4   4 -15    0.25    0.46
   4   4  15   -0.49    0.47
   5  -4  15    0.61    0.63
   5  -4  15    0.58    0.56
  -5   4 -15   -0.04    0.48
  -8  -5  15    2.59    0.43
   8  -5 -15    2.82    0.66
   8   5 -15    2.18    0.60
   8   5 -15    3.41    0.80
  -7  -5  15    0.94    0.35
   7  -5 -15    0.65    0.42
   7   5 -15    0.85    0.44
   7   5 -15    1.56    0.52
  -6  -5  15   -0.52    0.26
   6   5 -15   -0.01    0.44
   6   5 -15    0.31    0.45
  -5  -5  15   -0.05    0.31
   5   5 -15    0.06    0.47
   5   5 -15   -0.82    0.39
  -4  -5  15   -0.41    0.21
   4   5 -15    0.07    0.45
  -4   5  15   -0.36    0.19
   4   5 -15   -0.07    0.41
  -3  -5  15    2.38    0.44
  -3   5  15    1.51    0.30
   3   5 -15    1.57    0.43
  -2  -5  15    0.01    0.38
  -2   5  15    0.78    0.31
   2   5 -15    0.04    0.27
  -1  -5  15    0.01    0.39
  -1   5  15   -0.44    0.30
   1   5 -15   -0.47    0.28
   0  -5  15    0.27    0.34
   0  -5  15    0.36    0.43
   0   5 -15   -0.21    0.32
   0   5  15    0.03    0.33
   1  -5  15    0.24    0.34
   1  -5  15    0.24    0.35
   1   5  15    0.04    0.35
   2  -5  15   -0.91    0.30
   2  -5  15   -0.69    0.44
   2   5  15   -0.37    0.38
   3  -5  15   -0.61    0.46
   3  -5  15   -0.64    0.51
  -3   5 -15    0.46    0.35
   3   5  15   -0.03    0.32
   4  -5  15   -0.19    0.41
   4  -5  15   -1.24    0.48
  -4   5 -15    0.12    0.36
   4   5  15    0.20    0.49
   5  -5  15    1.67    0.58
  -5   5 -15    1.07    0.46
  -8  -6  15   10.94    0.73
  -7  -6  15    4.40    0.51
   7   6 -15    3.18    0.64
   7   6 -15    4.32    0.72
  -6  -6  15    0.38    0.35
   6   6 -15    0.49    0.50
   6   6 -15    0.46    0.51
  -5  -6  15    1.97    0.42
   5   6 -15    1.34    0.44
   5   6 -15    0.84    0.52
  -4  -6  15    5.74    0.53
   4   6 -15    6.61    0.83
   4   6 -15    5.07    0.74
  -3  -6  15    1.03    0.40
  -3   6  15    0.80    0.26
   3   6 -15    0.93    0.47
  -2  -6  15    0.34    0.30
   2   6 -15    0.84    0.44
  -2   6  15    0.39    0.28
  -1  -6  15   -0.26    0.28
   1   6 -15    0.10    0.36
  -1   6  15    0.26    0.29
   0  -6  15    2.74    0.55
   0  -6  15    2.85    0.47
   0   6  15    2.11    0.43
   1  -6  15    9.78    0.80
   1  -6  15   11.33    0.91
   1   6  15    9.87    0.79
   2  -6  15    1.54    0.45
   2  -6  15    2.56    0.62
   2   6  15    2.34    0.52
   3  -6  15    0.65    0.45
   3  -6  15    0.01    0.37
   3   6  15    0.51    0.47
   4  -6  15    0.22    0.40
   4  -6  15   -0.83    0.57
  -7  -7  15    0.16    0.36
   7   7 -15    0.58    0.56
  -6  -7  15    7.71    0.70
   6   7 -15    7.48    0.95
   6   7 -15    7.08    0.87
  -5  -7  15    1.05    0.41
   5   7 -15    0.66    0.52
   5   7 -15    0.28    0.52
  -4  -7  15    0.42    0.30
   4   7 -15   -0.17    0.43
   4   7 -15    1.09    0.54
  -3  -7  15   13.99    0.88
   3   7 -15    9.91    1.00
   3   7 -15   10.67    1.06
  -3   7  15   11.50    0.60
  -2  -7  15    0.30    0.42
  -2   7  15   -0.06    0.26
   2   7 -15   -0.46    0.31
  -1  -7  15   -0.24    0.43
   1   7 -15    0.24    0.35
  -1   7  15    0.23    0.29
   0  -7  15   -0.09    0.46
   0  -7  15   -0.13    0.45
   0   7  15    0.77    0.36
   1  -7  15    1.76    0.59
   1  -7  15    1.06    0.41
   1   7  15    1.18    0.42
   2  -7  15    5.56    0.80
   2  -7  15    7.11    0.78
   2   7  15    6.60    0.70
   3  -7  15   -0.19    0.52
   3  -7  15   -0.37    0.54
   3   7  15   -0.49    0.41
   4  -7  15    0.07    0.47
   6   8 -15    0.09    0.49
  -5  -8  15    0.53    0.40
   5   8 -15    0.42    0.49
   5   8 -15    1.20    0.60
  -4  -8  15    0.30    0.39
   4   8 -15   -0.87    0.47
   4   8 -15    0.69    0.48
  -3  -8  15    1.21    0.36
   3   8 -15    0.91    0.45
   3   8 -15    1.68    0.53
  -2  -8  15    0.42    0.43
   2   8 -15    0.04    0.38
   2   8 -15   -0.22    0.57
  -2   8  15    0.16    0.27
  -1  -8  15    0.83    0.39
  -1   8  15    1.91    0.35
   0  -8  15    0.09    0.34
   0  -8  15   -0.22    0.48
   0   8  15   -0.23    0.30
   1  -8  15    0.93    0.56
   1  -8  15    0.68    0.51
   1   8  15    0.55    0.40
   2  -8  15    0.45    0.44
   2  -8  15    0.36    0.51
   2   8  15    0.23    0.43
   3  -8  15    0.82    0.66
   6   9 -15   -0.21    0.46
   5   9 -15    3.34    0.70
   4   9 -15    0.08    0.61
   4   9 -15    0.25    0.35
  -3  -9  15    5.98    0.63
   3   9 -15    4.31    0.71
   3   9 -15    6.93    0.97
  -2  -9  15    0.00    0.34
   2   9 -15   -0.32    0.60
  -2   9  15    0.03    0.28
  -1  -9  15   -0.13    0.45
   1   9 -15   -0.15    0.48
  -1   9  15    0.30    0.27
   0  -9  15    0.69    0.53
   0  -9  15    0.04    0.50
   0   9  15    0.07    0.33
   1  -9  15    0.00    0.36
   1  -9  15    0.44    0.43
   1   9  15    0.56    0.38
   2  -9  15    2.62    0.71
   4  10 -15   -0.02    0.42
  -1  10  15    0.93    0.33
   0 -10  15   -0.14    0.38
   0  10  15    0.37    0.33
   8   0 -16    2.12    0.46
   7   0 -16    1.25    0.59
   7   0 -16    0.32    0.35
  -7   0  16    0.42    0.23
   6   0 -16    0.60    0.42
  -6   0  16    1.11    0.28
   6   0 -16    0.88    0.41
  -5   0  16    0.06    0.27
   5   0 -16   -0.24    0.41
  -4   0  16    0.98    0.33
   4   0 -16    1.12    0.51
  -3   0  16    0.07    0.28
  -2   0  16   20.28    1.02
  -1   0  16    0.31    0.34
   0   0  16    3.99    0.49
   1   0  16    0.50    0.43
   2   0  16    0.77    0.36
   3   0  16    0.12    0.35
   4   0  16    2.74    0.55
   8   1 -16    1.97    0.48
   7  -1 -16   26.42    1.30
   7  -1 -16   27.16    1.74
  -7  -1  16   27.75    1.12
   7   1 -16   27.16    1.39
   7   1 -16   26.19    1.65
  -6  -1  16    8.14    0.58
   6  -1 -16    8.25    0.98
  -6   1  16    8.58    0.52
   6   1 -16    8.01    0.81
   6   1 -16    9.80    1.05
  -5  -1  16    1.16    0.34
   5  -1 -16    0.84    0.42
   5   1 -16    1.02    0.52
  -5   1  16    1.09    0.29
  -4  -1  16    8.86    0.66
  -4   1  16    9.66    0.59
   4   1 -16    9.12    0.88
  -3  -1  16    0.64    0.32
  -3   1  16    0.11    0.28
   3   1 -16   -0.43    0.40
  -2  -1  16    0.08    0.31
  -2   1  16    0.80    0.33
  -1  -1  16    0.25    0.37
  -1   1  16    0.19    0.35
   0  -1  16    1.88    0.47
   0   1  16    1.72    0.44
   1  -1  16    1.67    0.49
   1   1  16    2.60    0.43
   2  -1  16    6.81    0.76
   2   1  16    9.47    0.85
   3  -1  16    1.21    0.55
   3   1  16    0.66    0.51
  -8  -2  16    1.04    0.30
   8   2 -16    0.29    0.39
   7  -2 -16    3.05    0.70
  -7  -2  16    2.85    0.38
   7   2 -16    3.50    0.74
   7   2 -16    2.59    0.52
  -6  -2  16    0.56    0.26
   6  -2 -16    0.06    0.51
   6   2 -16    0.85    0.42
   6   2 -16    0.08    0.37
  -5  -2  16   -0.28    0.25
   5   2 -16   -0.20    0.43
  -5   2  16   -0.16    0.21
  -4  -2  16    0.22    0.34
   4   2 -16    0.90    0.50
  -4   2  16    0.18    0.23
  -3  -2  16    3.38    0.46
  -3   2  16    3.22    0.40
   3   2 -16    3.26    0.62
  -2  -2  16    8.20    0.69
   2   2 -16    7.57    0.78
  -2   2  16    7.94    0.60
  -1  -2  16    0.31    0.36
  -1   2  16   -0.38    0.31
   0  -2  16   -0.32    0.27
   0   2  16   -0.15    0.36
   1  -2  16    0.84    0.45
   1   2  16    0.83    0.43
   2  -2  16    1.28    0.41
   2   2  16    1.58    0.49
   3  -2  16   -0.05    0.49
   3   2  16    1.11    0.51
  -4   2 -16   -0.64    0.41
  -8  -3  16    5.75    0.53
   8   3 -16    4.37    0.64
  -7  -3  16   14.14    0.76
   7  -3 -16   14.00    1.26
   7   3 -16   13.12    1.16
   7   3 -16   14.41    1.05
   6  -3 -16   -0.45    0.47
  -6  -3  16    0.09    0.31
   6   3 -16    0.26    0.51
   6   3 -16   -0.10    0.40
  -5  -3  16    4.50    0.48
   5   3 -16    4.22    0.66
   5   3 -16    3.37    0.62
  -5   3  16    4.19    0.38
  -4  -3  16   -0.29    0.29
   4   3 -16    0.12    0.45
  -4   3  16   -0.27    0.23
  -3  -3  16    1.44    0.39
  -3   3  16    1.11    0.30
   3   3 -16    1.27    0.50
  -2  -3  16    4.59    0.55
   2   3 -16    3.14    0.54
  -2   3  16    4.32    0.49
  -1  -3  16   -0.33    0.35
  -1   3  16    0.00    0.31
   1   3 -16   -0.32    0.36
   0  -3  16    2.74    0.54
   0   3 -16    2.70    0.53
   0   3  16    2.88    0.48
   1  -3  16    2.61    0.56
   1   3  16    1.88    0.48
   2  -3  16    0.65    0.50
   2   3  16    0.80    0.37
   3  -3  16    1.06    0.54
  -3   3 -16    0.61    0.37
   3   3  16    0.36    0.36
  -4   3 -16    1.17    0.42
  -8  -4  16    2.33    0.40
  -7  -4  16    2.96    0.45
   7   4 -16    3.67    0.76
   7   4 -16    2.85    0.60
  -6  -4  16    0.77    0.33
   6   4 -16    0.91    0.49
   6   4 -16    0.25    0.40
  -5  -4  16    6.54    0.59
   5   4 -16    6.20    0.77
   5   4 -16    4.82    0.78
  -4  -4  16    0.67    0.35
   4   4 -16    1.30    0.54
  -4   4  16    0.48    0.24
  -3  -4  16    6.50    0.63
  -3   4  16    6.47    0.52
   3   4 -16    5.73    0.75
  -2  -4  16    0.06    0.37
  -2   4  16    0.14    0.30
   2   4 -16    0.48    0.33
  -1  -4  16    0.36    0.41
   1   4 -16    0.08    0.36
  -1   4  16    0.25    0.36
   0  -4  16    0.31    0.43
   0   4  16   -0.08    0.36
   0   4 -16    1.03    0.41
   1  -4  16    0.49    0.36
   1   4  16    0.17    0.29
   2  -4  16    0.50    0.38
   2   4  16    0.16    0.44
   3  -4  16   -0.11    0.51
  -3   4 -16   -0.19    0.45
   3   4  16    0.00    0.46
   4  -4  16    0.50    0.45
  -4   4 -16    0.95    0.54
  -7  -5  16    1.92    0.41
   7   5 -16    2.16    0.64
  -6  -5  16    1.43    0.41
   6   5 -16    1.70    0.57
   6   5 -16    1.31    0.57
  -5  -5  16    2.82    0.46
   5   5 -16    2.04    0.62
   5   5 -16    2.52    0.62
  -4  -5  16    1.03    0.38
   4   5 -16    0.47    0.49
   4   5 -16    1.11    0.55
  -3  -5  16    0.59    0.40
  -3   5  16    0.35    0.26
   3   5 -16    0.22    0.42
  -2  -5  16    0.84    0.34
   2   5 -16    0.23    0.43
  -2   5  16    0.99    0.30
  -1  -5  16    0.56    0.34
  -1   5  16   -0.15    0.29
   1   5 -16    0.17    0.39
   0  -5  16    1.88    0.51
   0   5 -16    1.24    0.44
   0   5  16    2.10    0.44
   1  -5  16    4.92    0.69
   1   5  16    5.07    0.62
   2  -5  16    0.57    0.50
   2   5  16   -0.28    0.41
   3  -5  16    0.50    0.55
  -6  -6  16    0.29    0.35
   6   6 -16    0.95    0.60
   6   6 -16    0.08    0.50
  -5  -6  16   -0.05    0.36
   5   6 -16    0.14    0.48
   5   6 -16   -0.07    0.36
  -4  -6  16    4.25    0.54
   4   6 -16    4.87    0.78
   4   6 -16    3.74    0.70
  -3  -6  16    1.42    0.45
  -3   6  16    1.10    0.31
   3   6 -16    1.32    0.52
  -2  -6  16    0.26    0.43
   2   6 -16    0.94    0.48
  -2   6  16    1.17    0.30
  -1  -6  16   -0.83    0.41
   1   6 -16    0.05    0.37
  -1   6  16   -0.34    0.28
   0  -6  16   -0.40    0.44
   0   6  16    0.08    0.34
   1  -6  16    0.18    0.37
   1   6  16    0.01    0.39
   2  -6  16    0.40    0.40
   2   6  16    0.76    0.46
   3  -6  16   -0.28    0.56
   6   7 -16    2.26    0.69
   5   7 -16   -0.03    0.48
  -4  -7  16    0.91    0.42
   4   7 -16    0.23    0.55
   4   7 -16   -0.47    0.41
  -3  -7  16    0.19    0.40
   3   7 -16   -0.62    0.38
   3   7 -16    1.08    0.63
  -2  -7  16   -0.27    0.42
  -2   7  16   -0.26    0.25
   2   7 -16   -0.06    0.35
  -1  -7  16   -0.20    0.45
  -1   7  16    0.17    0.29
   0  -7  16    0.69    0.39
   0   7  16    1.07    0.38
   1   7  16    0.12    0.39
   2  -7  16   -0.10    0.56
   5   8 -16    0.70    0.54
   4   8 -16    0.93    0.51
   3   8 -16    0.55    0.41
  -2   8  16    1.91    0.35
  -1   8  16   -0.10    0.28
   0   8  16    0.22    0.34
   7   0 -17   15.93    1.03
   6   0 -17    0.94    0.59
   6   0 -17   -0.69    0.38
  -6   0  17    0.49    0.28
   5   0 -17   -0.40    0.46
  -5   0  17   -0.24    0.24
   4   0 -17   -0.21    0.34
  -4   0  17    0.17    0.28
  -3   0  17    0.42    0.32
  -2   0  17    0.77    0.36
  -1   0  17   10.08    0.77
   0   0  17   -0.77    0.35
   1   0  17    2.53    0.56
  -7  -1  17    1.04    0.32
   7   1 -17    1.57    0.50
   6  -1 -17    1.81    0.55
  -6  -1  17    2.36    0.38
   6   1 -17    2.54    0.70
   6   1 -17    1.09    0.50
   5  -1 -17   -0.11    0.52
  -5  -1  17    0.24    0.31
  -5   1  17   -0.06    0.27
   5   1 -17   -0.18    0.35
  -4  -1  17    0.52    0.31
  -4   1  17    0.00    0.30
   4   1 -17   -0.31    0.46
  -3  -1  17    0.36    0.34
   3   1 -17   -0.55    0.40
  -3   1  17    0.18    0.29
  -2  -1  17    9.69    0.76
   2   1 -17    9.24    0.89
  -2   1  17   11.97    0.75
  -1  -1  17    3.75    0.56
  -1   1  17    3.33    0.51
   0  -1  17    0.42    0.44
   0   1  17    0.64    0.41
   1  -1  17    1.23    0.49
   1   1  17    1.05    0.48
   2   1  17    1.09    0.41
  -7  -2  17    7.61    0.58
   7   2 -17    5.77    0.71
  -6  -2  17    0.47    0.28
   6   2 -17    0.05    0.47
   6   2 -17    0.24    0.39
   5  -2 -17    1.67    0.54
  -5  -2  17    2.70    0.43
   5   2 -17    2.61    0.66
  -5   2  17    2.95    0.36
  -4  -2  17    2.14    0.42
  -4   2  17    2.20    0.38
   4   2 -17    2.14    0.59
  -3  -2  17    0.12    0.36
  -3   2  17    0.21    0.28
   3   2 -17    0.89    0.41
  -2  -2  17    1.40    0.41
  -2   2  17    1.93    0.39
   2   2 -17    2.01    0.56
  -1  -2  17    1.33    0.45
   1   2 -17    1.26    0.49
  -1   2  17    0.89    0.38
   0  -2  17    1.01    0.46
   0   2  17   -0.14    0.38
   1  -2  17    0.67    0.45
   1   2  17    0.28    0.32
  -6  -3  17    3.63    0.47
   6   3 -17    2.18    0.72
   6   3 -17    3.42    0.65
  -5  -3  17    0.05    0.31
   5   3 -17   -0.33    0.44
   5   3 -17    0.84    0.54
  -4  -3  17   -0.27    0.33
   4   3 -17   -0.07    0.33
  -4   3  17    0.31    0.27
  -3  -3  17    0.38    0.38
   3   3 -17    0.32    0.48
  -3   3  17    0.42    0.28
  -2  -3  17    4.16    0.55
   2   3 -17    3.67    0.66
  -2   3  17    4.37    0.48
  -1  -3  17    0.68    0.33
  -1   3  17    0.49    0.36
   1   3 -17    0.45    0.45
   0  -3  17   -0.08    0.30
   0   3  17   -0.26    0.36
   0   3 -17    0.80    0.45
   1  -3  17    3.87    0.63
   1   3  17    1.85    0.51
  -6  -4  17    7.93    0.64
  -5  -4  17    0.29    0.34
   5   4 -17    0.18    0.38
   5   4 -17   -1.18    0.40
  -4  -4  17    0.31    0.37
  -4   4  17    1.00    0.29
   4   4 -17    0.10    0.47
  -3  -4  17    2.31    0.49
   3   4 -17    2.01    0.59
  -3   4  17    1.95    0.37
  -2  -4  17    0.04    0.39
  -2   4  17   -0.28    0.31
   2   4 -17    0.03    0.42
  -1  -4  17    0.66    0.44
   1   4 -17    0.44    0.42
  -1   4  17    0.15    0.33
   0  -4  17    0.19    0.46
   0   4 -17    0.44    0.39
   0   4  17    0.27    0.37
   1   4  17    0.51    0.44
   5   5 -17    0.29    0.50
  -4  -5  17   -0.13    0.37
   4   5 -17    0.02    0.57
   4   5 -17    0.26    0.50
  -3  -5  17    0.50    0.42
   3   5 -17   -0.49    0.42
  -3   5  17   -0.36    0.26
  -2  -5  17    1.19    0.47
   2   5 -17    0.15    0.43
  -2   5  17   -0.06    0.32
  -1  -5  17    0.02    0.46
  -1   5  17    0.11    0.32
   1   5 -17   -0.17    0.35
   0   5  17   -0.06    0.36
   5   6 -17    0.55    0.54
   4   6 -17    0.83    0.52
   3   6 -17    0.56    0.47
  -2   6  17   -0.10    0.30
   2   6 -17   -0.27    0.35
  -1   6  17    0.17    0.31
   0   6  17   -0.34    0.34
   3   7 -17    0.00    0.44
  -2   7  17    3.07    0.44
  -5   0  18    0.29    0.32
  -4   0  18    0.65    0.33
  -3   0  18   -0.28    0.30
   3   0 -18   -0.28    0.47
  -2   0  18    1.09    0.41
  -5  -1  18    2.00    0.37
  -5   1  18    1.23    0.33
  -4  -1  18    1.39    0.37
  -4   1  18    0.84    0.35
  -3  -1  18    1.30    0.40
  -3   1  18    0.16    0.33
   3   1 -18    0.17    0.38
  -2  -1  18    0.40    0.38
  -2   1  18   -0.23    0.34
   2   1 -18   -0.07    0.43
  -1   1  18   -0.05    0.37
   4   2 -18    0.61    0.55
  -4   2  18    0.19    0.33
   3   2 -18    1.17    0.53
  -3   2  18    0.14    0.30
  -2   2  18    0.27    0.34
   2   2 -18    0.66    0.50
  -1   2  18   -0.19    0.39
   1   2 -18    0.42    0.46
   0   2 -18    0.36    0.47
   3   3 -18    0.50    0.49
  -3   3  18    0.33    0.34
   2   3 -18    0.62    0.48
  -2   3  18   -0.23    0.31
   1   3 -18    2.49    0.59
   3   4 -18    0.41    0.46
   2   4 -18   -0.21    0.40
  -2   4  18   -0.20    0.30
   1   4 -18    6.64    0.84
   0   0   0    0.00    0.00
;
_shelx_hkl_checksum              72551
_shelx_res_file
;
TITL VSKPS in P2(1)/n
 shelx.res created by SHELXL-2016/4 at 17:04:40 on 12-Feb-2017
CELL  0.71073   9.5114  12.3080  12.5537   90.000   98.962   90.000
ZERR     4.00   0.0008   0.0011   0.0011    0.000    0.003    0.000
LATT   1
SYMM  1/2 - X, 1/2 + Y, 1/2 - Z
SFAC  C    H    N    O    S
UNIT  56 60 4 24 4
MERG   2
DFIX  0.82 0.01 O2 H2A
DFIX  0.82 0.01 O1 H1
FMAP   2
PLAN  20
SIZE  0.18 0.20 0.24
ACTA
BOND   $H
CONF
HTAB O1 O3
HTAB N1 O6_$1
HTAB N1 O4_$2
HTAB O2 O5_$2
HTAB N1 O3_$3
HTAB N1 O5_$4
EQIV $1 1/2-x,1/2+y,1/2-z
EQIV $2 1/2+x,3/2-y,-1/2+z
EQIV $3 3/2-x,1/2+y,1/2-z
EQIV $4 1-x,2-y,1-z
L.S.  7
TEMP    22.00
WGHT    0.051400    0.973000
EXTI    0.030006
FVAR       0.23127
C1    1    0.412993    1.081035    0.280781    11.00000    0.02707    0.03969 =
         0.02675   -0.00792    0.00661   -0.00578
C2    1    0.320027    1.163417    0.294135    11.00000    0.03983    0.03263 =
         0.03507   -0.00638    0.01151   -0.00337
AFIX  43
H2    2    0.311647    1.223576    0.248763    11.00000   -1.20000
AFIX   0
C3    1    0.238798    1.155374    0.376481    11.00000    0.03652    0.04131 =
         0.04033   -0.01401    0.01213   -0.00342
AFIX  43
H3    2    0.175095    1.210620    0.385736    11.00000   -1.20000
AFIX   0
C4    1    0.250719    1.066673    0.445181    11.00000    0.03458    0.05062 =
         0.03151   -0.01030    0.00902   -0.01477
C5    1    0.341000    0.982776    0.425735    11.00000    0.04906    0.04873 =
         0.03397    0.00545    0.00718   -0.00328
AFIX  43
H5    2    0.346720    0.920894    0.468705    11.00000   -1.20000
AFIX   0
C6    1    0.422711    0.989215    0.343768    11.00000    0.03755    0.04626 =
         0.03714   -0.00229    0.00593    0.00670
AFIX  43
H6    2    0.482924    0.932553    0.331607    11.00000   -1.20000
AFIX   0
C7    1    0.172131    1.063319    0.540557    11.00000    0.05650    0.08215 =
         0.04528   -0.00902    0.02664   -0.01833
AFIX 137
H7A   2    0.230980    1.093739    0.602444    11.00000   -1.50000
H7B   2    0.149500    0.989370    0.555340    11.00000   -1.50000
H7C   2    0.085869    1.104711    0.524619    11.00000   -1.50000
AFIX   0
C8    1    0.360923    0.650024    0.583336    11.00000    0.03022    0.03216 =
         0.02498   -0.00361    0.01209   -0.00261
C9    1    0.434433    0.595702    0.672045    11.00000    0.04236    0.04110 =
         0.02216    0.00098    0.01219   -0.00520
AFIX  43
H9    2    0.389513    0.581016    0.731168    11.00000   -1.20000
AFIX   0
C10   1    0.573446    0.563451    0.672981    11.00000    0.04053    0.04163 =
         0.02430    0.00758    0.00341   -0.00058
AFIX  43
H10   2    0.621603    0.526240    0.732126    11.00000   -1.20000
AFIX   0
C11   1    0.641652    0.586725    0.585123    11.00000    0.02853    0.03213 =
         0.02856    0.00299    0.00412   -0.00139
C12   1    0.567858    0.641181    0.495620    11.00000    0.02604    0.02835 =
         0.02180   -0.00057    0.00775   -0.00172
C13   1    0.426733    0.672441    0.495502    11.00000    0.02763    0.03119 =
         0.02164    0.00135    0.00814    0.00061
AFIX  43
H13   2    0.377117    0.708411    0.436115    11.00000   -1.20000
AFIX   0
C14   1    0.639141    0.664388    0.402021    11.00000    0.02710    0.03428 =
         0.02772    0.00176    0.01074   -0.00075
N1    3    0.503963    1.091395    0.196854    11.00000    0.03642    0.04904 =
         0.03802   -0.00660    0.01705   -0.00264
AFIX 137
H1A   2    0.457317    1.127520    0.140822    11.00000   -1.50000
H1B   2    0.526763    1.025568    0.175674    11.00000   -1.50000
H1C   2    0.582911    1.127370    0.223231    11.00000   -1.50000
AFIX   0
O1    4    0.778107    0.554987    0.589967    11.00000    0.03057    0.06025 =
         0.04371    0.01751    0.00666    0.00879
O2    4    0.559287    0.711409    0.321108    11.00000    0.03449    0.07129 =
         0.03011    0.01889    0.01565    0.01009
O3    4    0.763970    0.641170    0.400681    11.00000    0.02920    0.06242 =
         0.04347    0.01211    0.01702    0.00851
O4    4    0.110331    0.605508    0.626289    11.00000    0.04818    0.05388 =
         0.11959    0.01967    0.04846   -0.00015
O5    4    0.198399    0.787537    0.657028    11.00000    0.07158    0.05060 =
         0.04555   -0.00881    0.03575    0.00870
O6    4    0.128090    0.723867    0.475080    11.00000    0.03818    0.07440 =
         0.04405   -0.00481    0.01106    0.01653
S1    5    0.185232    0.693802    0.584722    11.00000    0.03623    0.03964 =
         0.04003   -0.00040    0.02343    0.00331
H1    2    0.803674    0.576039    0.533237    11.00000   -1.50000
H2A   2    0.601101    0.714517    0.268463    11.00000   -1.50000
HKLF 4
REM  VSKPS in P2(1)/n
REM R1 =  0.0512 for    3474 Fo > 4sig(Fo)  and  0.0777 for all    4730 data
REM    208 parameters refined using      2 restraints
END
WGHT      0.0515      0.9718
REM Highest difference peak  0.401,  deepest hole -0.757,  1-sigma level  0.059
Q1    1   0.3978  0.6618  0.5449  11.00000  0.05    0.40
Q2    1   0.6014  0.6481  0.4488  11.00000  0.05    0.38
Q3    1   0.1177  0.6604  0.4821  11.00000  0.05    0.38
Q4    1   0.1322  0.6708  0.5290  11.00000  0.05    0.37
Q5    1   0.5024  0.6607  0.4971  11.00000  0.05    0.30
Q6    1   0.1129  0.5637  0.5791  11.00000  0.05    0.29
Q7    1   0.2773  1.1171  0.4205  11.00000  0.05    0.28
Q8    1   0.1604  0.6492  0.6187  11.00000  0.05    0.28
Q9    1   0.1212  0.7708  0.6233  11.00000  0.05    0.27
Q10   1   0.6098  0.6049  0.5277  11.00000  0.05    0.27
Q11   1   0.2781  0.6707  0.5789  11.00000  0.05    0.26
Q12   1   0.1393  0.7250  0.4470  11.00000  0.05    0.25
Q13   1   0.5172  0.6015  0.6712  11.00000  0.05    0.24
Q14   1   0.3919  0.9969  0.3922  11.00000  0.05    0.24
Q15   1   0.2171  0.7290  0.6755  11.00000  0.05    0.23
Q16   1   0.5952  0.5597  0.6225  11.00000  0.05    0.23
Q17   1   0.3809  0.6136  0.6280  11.00000  0.05    0.23
Q18   1   0.3874  1.1330  0.2924  11.00000  0.05    0.22
Q19   1   0.7241  0.6792  0.4151  11.00000  0.05    0.21
Q20   1   0.1576  0.5888  0.6746  11.00000  0.05    0.21
;
_shelx_res_checksum              51538
loop_
_space_group_symop_operation_xyz
'x, y, z'
'-x+1/2, y+1/2, -z+1/2'
'-x, -y, -z'
'x-1/2, -y-1/2, z-1/2'
loop_
_atom_site_type_symbol
_atom_site_label
_atom_site_fract_x
_atom_site_fract_y
_atom_site_fract_z
_atom_site_U_iso_or_equiv
_atom_site_adp_type
_atom_site_calc_flag
_atom_site_occupancy
C C1 0.41299(18) 1.08104(15) 0.28078(14) 0.0309(4) Uani d 1
C C2 0.3200(2) 1.16342(16) 0.29414(16) 0.0352(4) Uani d 1
H H2 0.311647 1.223576 0.248763 0.042 Uiso calc 1
C C3 0.2388(2) 1.15537(17) 0.37648(16) 0.0387(4) Uani d 1
H H3 0.175095 1.210620 0.385736 0.046 Uiso calc 1
C C4 0.2507(2) 1.06667(18) 0.44518(15) 0.0385(4) Uani d 1
C C5 0.3410(2) 0.98278(19) 0.42574(17) 0.0438(5) Uani d 1
H H5 0.346720 0.920894 0.468705 0.053 Uiso calc 1
C C6 0.4227(2) 0.98922(18) 0.34377(17) 0.0403(4) Uani d 1
H H6 0.482924 0.932553 0.331607 0.048 Uiso calc 1
C C7 0.1721(3) 1.0633(2) 0.54056(19) 0.0593(7) Uani d 1
H H7A 0.230980 1.093739 0.602444 0.089 Uiso calc 1
H H7B 0.149500 0.989370 0.555340 0.089 Uiso calc 1
H H7C 0.085869 1.104711 0.524619 0.089 Uiso calc 1
C C8 0.36092(18) 0.65002(14) 0.58334(13) 0.0283(3) Uani d 1
C C9 0.4344(2) 0.59570(16) 0.67204(14) 0.0344(4) Uani d 1
H H9 0.389513 0.581016 0.731168 0.041 Uiso calc 1
C C10 0.5734(2) 0.56345(16) 0.67298(14) 0.0357(4) Uani d 1
H H10 0.621603 0.526240 0.732126 0.043 Uiso calc 1
C C11 0.64165(18) 0.58672(15) 0.58512(14) 0.0298(3) Uani d 1
C C12 0.56786(17) 0.64118(13) 0.49562(12) 0.0250(3) Uani d 1
C C13 0.42673(17) 0.67244(14) 0.49550(13) 0.0264(3) Uani d 1
H H13 0.377117 0.708411 0.436115 0.032 Uiso calc 1
C C14 0.63914(18) 0.66439(15) 0.40202(14) 0.0290(3) Uani d 1
N N1 0.50396(18) 1.09139(15) 0.19685(14) 0.0400(4) Uani d 1
H H1A 0.457317 1.127520 0.140822 0.060 Uiso calc 1
H H1B 0.526763 1.025568 0.175674 0.060 Uiso calc 1
H H1C 0.582911 1.127370 0.223231 0.060 Uiso calc 1
O O1 0.77811(15) 0.55499(14) 0.58997(12) 0.0447(4) Uani d 1
O O2 0.55929(15) 0.71141(14) 0.32111(11) 0.0442(4) Uani d 1
O O3 0.76397(14) 0.64117(14) 0.40068(12) 0.0438(4) Uani d 1
O O4 0.11033(19) 0.60551(15) 0.62629(18) 0.0701(6) Uani d 1
O O5 0.1984(2) 0.78754(13) 0.65703(13) 0.0531(4) Uani d 1
O O6 0.12809(16) 0.72387(15) 0.47508(13) 0.0517(4) Uani d 1
S S1 0.18523(5) 0.69380(4) 0.58472(4) 0.03677(15) Uani d 1
H H1 0.804(3) 0.576(2) 0.5332(13) 0.055 Uiso d 1
H H2A 0.601(3) 0.715(2) 0.2685(15) 0.055 Uiso d 1
loop_
_atom_site_aniso_label
_atom_site_aniso_U_11
_atom_site_aniso_U_22
_atom_site_aniso_U_33
_atom_site_aniso_U_12
_atom_site_aniso_U_13
_atom_site_aniso_U_23
C1 0.0271(8) 0.0397(9) 0.0268(8) -0.0058(7) 0.0066(6) -0.0079(7)
C2 0.0398(10) 0.0326(9) 0.0351(9) -0.0034(7) 0.0115(8) -0.0064(7)
C3 0.0365(9) 0.0413(10) 0.0403(10) -0.0034(8) 0.0121(8) -0.0140(8)
C4 0.0346(9) 0.0506(11) 0.0315(9) -0.0148(8) 0.0090(7) -0.0103(8)
C5 0.0491(12) 0.0487(12) 0.0340(10) -0.0033(9) 0.0072(9) 0.0055(9)
C6 0.0375(10) 0.0463(11) 0.0371(10) 0.0067(8) 0.0059(8) -0.0023(8)
C7 0.0565(14) 0.0821(18) 0.0453(13) -0.0183(13) 0.0266(11) -0.0090(12)
C8 0.0302(8) 0.0322(8) 0.0250(8) -0.0026(7) 0.0121(6) -0.0036(6)
C9 0.0424(10) 0.0411(10) 0.0222(8) -0.0052(8) 0.0122(7) 0.0010(7)
C10 0.0405(10) 0.0416(10) 0.0243(8) -0.0006(8) 0.0034(7) 0.0076(7)
C11 0.0285(8) 0.0321(8) 0.0286(8) -0.0014(7) 0.0041(6) 0.0030(7)
C12 0.0260(7) 0.0284(8) 0.0218(7) -0.0017(6) 0.0077(6) -0.0006(6)
C13 0.0276(7) 0.0312(8) 0.0216(7) 0.0006(6) 0.0081(6) 0.0013(6)
C14 0.0271(7) 0.0343(8) 0.0277(8) -0.0008(6) 0.0107(6) 0.0018(7)
N1 0.0364(8) 0.0490(10) 0.0380(9) -0.0026(7) 0.0170(7) -0.0066(7)
O1 0.0306(7) 0.0602(10) 0.0437(8) 0.0088(6) 0.0067(6) 0.0175(7)
O2 0.0345(7) 0.0713(10) 0.0301(7) 0.0101(7) 0.0157(5) 0.0189(7)
O3 0.0292(6) 0.0624(10) 0.0435(8) 0.0085(6) 0.0170(6) 0.0121(7)
O4 0.0482(9) 0.0539(10) 0.1196(17) -0.0002(8) 0.0485(10) 0.0197(11)
O5 0.0716(11) 0.0506(9) 0.0456(9) 0.0087(8) 0.0357(8) -0.0088(7)
O6 0.0382(8) 0.0744(11) 0.0441(9) 0.0165(8) 0.0111(6) -0.0048(8)
S1 0.0362(2) 0.0396(3) 0.0400(3) 0.00331(19) 0.02343(19) -0.00040(19)
loop_
_atom_type_symbol
_atom_type_description
_atom_type_scat_dispersion_real
_atom_type_scat_dispersion_imag
_atom_type_scat_source
C C 0.0033 0.0016 'International Tables Vol C Tables 4.2.6.8 and 6.1.1.4'
H H 0.0000 0.0000 'International Tables Vol C Tables 4.2.6.8 and 6.1.1.4'
N N 0.0061 0.0033 'International Tables Vol C Tables 4.2.6.8 and 6.1.1.4'
O O 0.0106 0.0060 'International Tables Vol C Tables 4.2.6.8 and 6.1.1.4'
S S 0.1246 0.1234 'International Tables Vol C Tables 4.2.6.8 and 6.1.1.4'
loop_
_geom_angle_atom_site_label_1
_geom_angle_atom_site_label_2
_geom_angle_atom_site_label_3
_geom_angle
C2 C1 C6 121.61(17)
C2 C1 N1 119.08(17)
C6 C1 N1 119.32(17)
C1 C2 C3 118.85(19)
C1 C2 H2 120.6
C3 C2 H2 120.6
C4 C3 C2 121.28(19)
C4 C3 H3 119.4
C2 C3 H3 119.4
C3 C4 C5 118.01(17)
C3 C4 C7 120.9(2)
C5 C4 C7 121.1(2)
C6 C5 C4 121.5(2)
C6 C5 H5 119.3
C4 C5 H5 119.3
C1 C6 C5 118.64(19)
C1 C6 H6 120.7
C5 C6 H6 120.7
C4 C7 H7A 109.5
C4 C7 H7B 109.5
H7A C7 H7B 109.5
C4 C7 H7C 109.5
H7A C7 H7C 109.5
H7B C7 H7C 109.5
C13 C8 C9 120.18(16)
C13 C8 S1 119.83(14)
C9 C8 S1 119.97(12)
C10 C9 C8 120.47(15)
C10 C9 H9 119.8
C8 C9 H9 119.8
C9 C10 C11 119.87(17)
C9 C10 H10 120.1
C11 C10 H10 120.1
O1 C11 C10 117.93(16)
O1 C11 C12 122.28(15)
C10 C11 C12 119.78(16)
C13 C12 C11 119.65(14)
C13 C12 C14 120.50(15)
C11 C12 C14 119.84(15)
C8 C13 C12 120.03(16)
C8 C13 H13 120.0
C12 C13 H13 120.0
O3 C14 O2 122.76(15)
O3 C14 C12 122.26(16)
O2 C14 C12 114.99(14)
C1 N1 H1A 109.5
C1 N1 H1B 109.5
H1A N1 H1B 109.5
C1 N1 H1C 109.5
H1A N1 H1C 109.5
H1B N1 H1C 109.5
C11 O1 H1 106.3(19)
C14 O2 H2A 110.5(19)
O4 S1 O6 113.81(13)
O4 S1 O5 111.70(11)
O6 S1 O5 111.85(10)
O4 S1 C8 107.26(10)
O6 S1 C8 106.60(8)
O5 S1 C8 104.98(10)
loop_
_geom_bond_atom_site_label_1
_geom_bond_atom_site_label_2
_geom_bond_distance
C1 C2 1.373(3)
C1 C6 1.374(3)
C1 N1 1.469(2)
C2 C3 1.387(3)
C2 H2 0.9300
C3 C4 1.385(3)
C3 H3 0.9300
C4 C5 1.389(3)
C4 C7 1.508(3)
C5 C6 1.385(3)
C5 H5 0.9300
C6 H6 0.9300
C7 H7A 0.9600
C7 H7B 0.9600
C7 H7C 0.9600
C8 C13 1.378(2)
C8 C9 1.390(3)
C8 S1 1.7585(17)
C9 C10 1.379(3)
C9 H9 0.9300
C10 C11 1.394(2)
C10 H10 0.9300
C11 O1 1.348(2)
C11 C12 1.400(2)
C12 C13 1.396(2)
C12 C14 1.473(2)
C13 H13 0.9300
C14 O3 1.224(2)
C14 O2 1.305(2)
N1 H1A 0.8900
N1 H1B 0.8900
N1 H1C 0.8900
O1 H1 0.829(10)
O2 H2A 0.824(10)
O4 S1 1.4411(17)
O5 S1 1.4612(16)
O6 S1 1.4470(17)
loop_
_geom_hbond_atom_site_label_D
_geom_hbond_atom_site_label_H
_geom_hbond_atom_site_label_A
_geom_hbond_site_symmetry_A
_geom_hbond_distance_DH
_geom_hbond_distance_HA
_geom_hbond_distance_DA
_geom_hbond_angle_DHA
_geom_hbond_publ_flag
O1 H1 O3 . 0.829(10) 1.833(16) 2.587(2) 150(3) y
N1 H1A O6 2 0.89 1.95 2.837(3) 172 y
N1 H1B O4 4_675 0.89 1.94 2.821(2) 169 y
O2 H2A O5 4_675 0.824(10) 1.794(10) 2.6159(19) 176(3) y
N1 H1C O3 2_655 0.89 2.30 2.7548(19) 112 y
N1 H1C O5 3_676 0.89 2.59 3.461(3) 166 y
C10 H10 Cg2 4_676 0.93 2.66 3.549(2) 160 y
loop_
_geom_torsion_atom_site_label_1
_geom_torsion_atom_site_label_2
_geom_torsion_atom_site_label_3
_geom_torsion_atom_site_label_4
_geom_torsion
C6 C1 C2 C3 2.9(3)
N1 C1 C2 C3 -177.26(17)
C1 C2 C3 C4 0.4(3)
C2 C3 C4 C5 -3.4(3)
C2 C3 C4 C7 174.4(2)
C3 C4 C5 C6 3.3(3)
C7 C4 C5 C6 -174.5(2)
C2 C1 C6 C5 -3.0(3)
N1 C1 C6 C5 177.11(18)
C4 C5 C6 C1 -0.1(3)
C13 C8 C9 C10 -0.2(3)
S1 C8 C9 C10 -178.34(15)
C8 C9 C10 C11 0.9(3)
C9 C10 C11 O1 179.15(18)
C9 C10 C11 C12 -1.0(3)
O1 C11 C12 C13 -179.73(17)
C10 C11 C12 C13 0.5(3)
O1 C11 C12 C14 0.7(3)
C10 C11 C12 C14 -179.09(17)
C9 C8 C13 C12 -0.4(3)
S1 C8 C13 C12 177.76(13)
C11 C12 C13 C8 0.2(3)
C14 C12 C13 C8 179.79(16)
C13 C12 C14 O3 177.70(18)
C11 C12 C14 O3 -2.7(3)
C13 C12 C14 O2 -2.3(3)
C11 C12 C14 O2 177.28(17)
C13 C8 S1 O4 136.91(17)
C9 C8 S1 O4 -44.95(19)
C13 C8 S1 O6 14.65(18)
C9 C8 S1 O6 -167.20(16)
C13 C8 S1 O5 -104.14(15)
C9 C8 S1 O5 74.00(17)

_cod_database_fobs_code 1545386
