#------------------------------------------------------------------------------
#$Date: 2017-06-05 03:44:44 +0300 (Mon, 05 Jun 2017) $
#$Revision: 197485 $
#$URL: file:///home/coder/svn-repositories/cod/cif/1/54/59/1545994.cif $
#------------------------------------------------------------------------------
#
# This file is available in the Crystallography Open Database (COD),
# http://www.crystallography.net/
#
# All data on this site have been placed in the public domain by the
# contributors.
#
data_1545994
loop_
_publ_author_name
'Laws, Stephen W.'
'Moore, Lucas C.'
'Di Maso, Michael J.'
'Nguyen, Q Nhu N'
'Tantillo, Dean J.'
'Shaw, Jared T.'
_publ_section_title
;
 Diastereoselective Base-Catalyzed Formal [4 + 2] Cycloadditions of
 N-Sulfonyl Imines and Cyclic Anhydrides.
;
_journal_issue                   10
_journal_name_full               'Organic letters'
_journal_page_first              2466
_journal_page_last               2469
_journal_paper_doi               10.1021/acs.orglett.7b00468
_journal_volume                  19
_journal_year                    2017
_chemical_formula_moiety         'C23 H17 Cl N2 O7 S'
_chemical_formula_sum            'C23 H17 Cl N2 O7 S'
_chemical_formula_weight         500.89
_space_group_crystal_system      triclinic
_space_group_IT_number           2
_space_group_name_Hall           '-P 1'
_space_group_name_H-M_alt        'P -1'
_symmetry_space_group_name_Hall  '-P 1'
_symmetry_space_group_name_H-M   'P -1'
_atom_sites_solution_hydrogens   geom
_atom_sites_solution_primary     direct
_audit_creation_date             2016-07-16
_audit_creation_method
;
Olex2 1.2
(compiled 2016.02.16 svn.r3265 for OlexSys, GUI svn.r5155)
;
_cell_angle_alpha                64.9500(10)
_cell_angle_beta                 76.9800(10)
_cell_angle_gamma                89.3270(10)
_cell_formula_units_Z            2
_cell_length_a                   9.1593(7)
_cell_length_b                   11.0566(8)
_cell_length_c                   12.4050(9)
_cell_measurement_reflns_used    9985
_cell_measurement_temperature    90(2)
_cell_measurement_theta_max      33.08
_cell_measurement_theta_min      2.29
_cell_volume                     1103.85(14)
_computing_cell_refinement       'SAINT v8.34A (Bruker, 2013)'
_computing_data_reduction        'SAINT v8.34A (Bruker, 2013)'
_computing_molecular_graphics    'Olex2 (Dolomanov et al., 2009)'
_computing_publication_material  'Olex2 (Dolomanov et al., 2009)'
_computing_structure_refinement  'XL (Sheldrick, 2008)'
_computing_structure_solution    'XT (Sheldrick, 2015)'
_diffrn_ambient_temperature      90.15
_diffrn_measured_fraction_theta_full 1.000
_diffrn_measured_fraction_theta_max 0.929
_diffrn_measurement_device_type  'Bruker APEX-II CCD'
_diffrn_measurement_method       '\f and \w scans'
_diffrn_radiation_type           MoK\a
_diffrn_radiation_wavelength     0.71073
_diffrn_reflns_av_R_equivalents  0.0233
_diffrn_reflns_av_unetI/netI     0.0275
_diffrn_reflns_Laue_measured_fraction_full 1.000
_diffrn_reflns_Laue_measured_fraction_max 0.929
_diffrn_reflns_limit_h_max       13
_diffrn_reflns_limit_h_min       -14
_diffrn_reflns_limit_k_max       16
_diffrn_reflns_limit_k_min       -16
_diffrn_reflns_limit_l_max       18
_diffrn_reflns_limit_l_min       -18
_diffrn_reflns_number            19981
_diffrn_reflns_point_group_measured_fraction_full 1.000
_diffrn_reflns_point_group_measured_fraction_max 0.929
_diffrn_reflns_theta_full        25.242
_diffrn_reflns_theta_max         33.194
_diffrn_reflns_theta_min         1.868
_diffrn_standards_number         0
_exptl_absorpt_coefficient_mu    0.317
_exptl_absorpt_correction_T_max  0.7466
_exptl_absorpt_correction_T_min  0.5930
_exptl_absorpt_correction_type   multi-scan
_exptl_absorpt_process_details
'SADABS-2014/4 (Bruker,2014) was used for absorption correction. wR2(int) was 0.0577 before and 0.0338 after correction. The Ratio of minimum to maximum transmission is 0.7943. The \l/2 correction factor is 0.00150.'
_exptl_crystal_colour            colourless
_exptl_crystal_colour_primary    colourless
_exptl_crystal_density_diffrn    1.507
_exptl_crystal_description       Block
_exptl_crystal_F_000             516
_exptl_crystal_size_max          0.385
_exptl_crystal_size_mid          0.28
_exptl_crystal_size_min          0.224
_refine_diff_density_max         0.731
_refine_diff_density_min         -0.417
_refine_diff_density_rms         0.064
_refine_ls_extinction_method     none
_refine_ls_goodness_of_fit_ref   1.021
_refine_ls_hydrogen_treatment    constr
_refine_ls_matrix_type           full
_refine_ls_number_parameters     308
_refine_ls_number_reflns         7848
_refine_ls_number_restraints     0
_refine_ls_restrained_S_all      1.021
_refine_ls_R_factor_all          0.0451
_refine_ls_R_factor_gt           0.0373
_refine_ls_shift/su_max          0.001
_refine_ls_shift/su_mean         0.000
_refine_ls_structure_factor_coef Fsqd
_refine_ls_weighting_details
'w=1/[\s^2^(Fo^2^)+(0.0570P)^2^+0.3810P] where P=(Fo^2^+2Fc^2^)/3'
_refine_ls_weighting_scheme      calc
_refine_ls_wR_factor_gt          0.0984
_refine_ls_wR_factor_ref         0.1034
_reflns_Friedel_coverage         0.000
_reflns_number_gt                6727
_reflns_number_total             7848
_reflns_threshold_expression     'I > 2\s(I)'
_iucr_refine_instructions_details
;
TITL mo_mjd011_0m_a.res in P-1
REM Old TITL mo_MJD011_0m in P-1 #2
REM SHELXT solution in P-1
REM R1 0.104, Rweak 0.007, Alpha 0.037, Orientation as input
REM Formula found by SHELXT: C24 N O7 S Cl
CELL 0.71073 9.1593 11.0566 12.405 64.95 76.98 89.327
ZERR 2 0.0007 0.0008 0.0009 0.001 0.001 0.001
LATT 1
SFAC C H N O S Cl
UNIT 46 34 4 14 2 2
 
L.S. 100
PLAN  20
SIZE 0.224 0.28 0.385
TEMP -183
BOND $H
LIST 6
fmap 2
ACTA
REM <olex2.extras>
REM <HklSrc "%./mo_MJD011_0m.hkl">
REM </olex2.extras>
 
WGHT    0.057000    0.381000
FVAR       0.56780
S1    5    0.525986    0.695351    0.165869    11.00000    0.01253    0.01492 =
         0.01453   -0.00506   -0.00268    0.00169
CL1   6    0.807945    0.016237    0.401745    11.00000    0.03659    0.02986 =
         0.04161   -0.01960   -0.02172    0.02243
O3    4   -0.014341    0.429757    0.234612    11.00000    0.01284    0.02283 =
         0.01524   -0.00783   -0.00543    0.00377
O1    4    0.361096    0.645895    0.405191    11.00000    0.02335    0.01828 =
         0.01618   -0.00997   -0.00704    0.00235
O4    4    0.642353    0.711820    0.219624    11.00000    0.01450    0.02168 =
         0.02802   -0.00970   -0.00844    0.00206
O5    4    0.566378    0.680074    0.053633    11.00000    0.01970    0.01952 =
         0.01452   -0.00624    0.00123    0.00216
O2    4    0.185122    0.562973    0.090096    11.00000    0.01787    0.02367 =
         0.01584   -0.00454   -0.00707    0.00089
O6    4    0.140352    1.213628    0.150686    11.00000    0.02809    0.02765 =
         0.03246   -0.02171   -0.00985    0.00874
O7    4    0.037125    1.153539    0.038094    11.00000    0.03003    0.02640 =
         0.03985   -0.01912   -0.02173    0.01285
N1    3    0.404091    0.560785    0.263879    11.00000    0.01410    0.01350 =
         0.01104   -0.00577   -0.00215    0.00113
N2    3    0.129198    1.142154    0.099367    11.00000    0.01781    0.01679 =
         0.02001   -0.00891   -0.00440    0.00264
C1    1    0.331020    0.557279    0.377469    11.00000    0.01486    0.01531 =
         0.01093   -0.00590   -0.00478    0.00357
C7    1    0.157169    0.363963    0.409976    11.00000    0.01329    0.01476 =
         0.01191   -0.00496   -0.00386    0.00363
C16   1    0.131307    0.472191    0.189708    11.00000    0.01429    0.01775 =
         0.01429   -0.00981   -0.00579    0.00365
C9    1    0.388955    0.446537    0.232563    11.00000    0.01351    0.01513 =
         0.01144   -0.00688   -0.00407    0.00305
AFIX  13
H9    2    0.414663    0.483679    0.141044    11.00000   -1.20000
AFIX   0
C10   1    0.496520    0.341250    0.278098    11.00000    0.01227    0.01649 =
         0.01407   -0.00782   -0.00432    0.00254
C2    1    0.213417    0.444298    0.456458    11.00000    0.01415    0.01488 =
         0.01127   -0.00522   -0.00331    0.00360
C8    1    0.223643    0.387084    0.278973    11.00000    0.01280    0.01514 =
         0.01268   -0.00691   -0.00440    0.00274
AFIX  13
H8    2    0.222630    0.297043    0.278165    11.00000   -1.20000
AFIX   0
C23   1    0.213375    0.949519    0.059624    11.00000    0.01821    0.01773 =
         0.01569   -0.00794   -0.00637    0.00297
AFIX  43
H23   2    0.139926    0.961879    0.013573    11.00000   -1.20000
AFIX   0
C24   1    0.305341    0.844919    0.076166    11.00000    0.01815    0.01632 =
         0.01558   -0.00771   -0.00504    0.00266
AFIX  43
H24   2    0.295520    0.784299    0.041647    11.00000   -1.20000
AFIX   0
C21   1    0.339188    1.023180    0.178548    11.00000    0.01831    0.01571 =
         0.01742   -0.00795   -0.00494    0.00036
AFIX  43
H21   2    0.349654    1.084736    0.211958    11.00000   -1.20000
AFIX   0
C19   1    0.411981    0.830606    0.144154    11.00000    0.01455    0.01393 =
         0.01362   -0.00447   -0.00308    0.00151
C20   1    0.431009    0.918643    0.194851    11.00000    0.01639    0.01751 =
         0.01684   -0.00675   -0.00555    0.00035
AFIX  43
H20   2    0.505461    0.907480    0.239816    11.00000   -1.20000
AFIX   0
C3    1    0.155829    0.423949    0.578125    11.00000    0.01963    0.01999 =
         0.01227   -0.00688   -0.00345    0.00503
AFIX  43
H3    2    0.195287    0.478534    0.608872    11.00000   -1.20000
AFIX   0
C22   1    0.231905    1.035135    0.112182    11.00000    0.01545    0.01345 =
         0.01500   -0.00552   -0.00318    0.00174
C15   1    0.560678    0.280071    0.202841    11.00000    0.01871    0.02287 =
         0.01728   -0.01246   -0.00723    0.00637
AFIX  43
H15   2    0.538292    0.306819    0.125245    11.00000   -1.20000
AFIX   0
C5    1   -0.018525    0.245674    0.606683    11.00000    0.01678    0.01893 =
         0.01672   -0.00294   -0.00080    0.00220
AFIX  43
H5    2   -0.099125    0.178463    0.657866    11.00000   -1.20000
AFIX   0
C6    1    0.038918    0.265213    0.485928    11.00000    0.01551    0.01575 =
         0.01658   -0.00469   -0.00464    0.00233
AFIX  43
H6    2   -0.002322    0.211406    0.455290    11.00000   -1.20000
AFIX   0
C12   1    0.629289    0.203530    0.429109    11.00000    0.02249    0.02384 =
         0.01912   -0.01001   -0.01043    0.00959
AFIX  43
H12   2    0.653753    0.177836    0.505838    11.00000   -1.20000
AFIX   0
C11   1    0.532827    0.303112    0.390832    11.00000    0.01896    0.02246 =
         0.01557   -0.01054   -0.00717    0.00813
AFIX  43
H11   2    0.491386    0.345443    0.441871    11.00000   -1.20000
AFIX   0
C4    1    0.040563    0.323283    0.653364    11.00000    0.02067    0.02255 =
         0.01253   -0.00515   -0.00016    0.00448
AFIX  43
H4    2    0.002139    0.307428    0.736477    11.00000   -1.20000
AFIX   0
C14   1    0.657117    0.180277    0.240322    11.00000    0.02321    0.02601 =
         0.02627   -0.01840   -0.01032    0.01065
AFIX  43
H14   2    0.700299    0.138795    0.188956    11.00000   -1.20000
AFIX   0
C13   1    0.689214    0.142316    0.353858    11.00000    0.02003    0.01927 =
         0.02582   -0.01130   -0.01060    0.00921
C18   1   -0.112363    0.494543    0.153603    11.00000    0.01529    0.02985 =
         0.01902   -0.00960   -0.00906    0.00524
AFIX 137
H18A  2   -0.102320    0.459070    0.092318    11.00000   -1.50000
H18B  2   -0.083909    0.591473    0.112131    11.00000   -1.50000
H18C  2   -0.216975    0.476787    0.201718    11.00000   -1.50000
AFIX   0
HKLF 4
 
REM  mo_mjd011_0m_a.res in P-1
REM R1 =  0.0373 for    6727 Fo > 4sig(Fo)  and  0.0451 for all    7848 data
REM    308 parameters refined using      0 restraints
 
END  
     
WGHT      0.0571      0.3829 

REM Highest difference peak  0.731,  deepest hole -0.417,  1-sigma level  0.064
Q1    1   0.4763  0.7623  0.1504  11.00000  0.05    0.73
Q2    1   0.6000  0.7262  0.1701  11.00000  0.05    0.57
Q3    1   0.2747  0.4951  0.4152  11.00000  0.05    0.57
Q4    1   0.7682 -0.0029  0.4595  11.00000  0.05    0.56
Q5    1   0.2586  0.8913  0.0756  11.00000  0.05    0.55
Q6    1   0.4450  0.3945  0.2537  11.00000  0.05    0.54
Q7    1   0.3629  0.8384  0.1127  11.00000  0.05    0.54
Q8    1   0.3035  0.4154  0.2612  11.00000  0.05    0.54
Q9    1   0.2915  1.0304  0.1373  11.00000  0.05    0.53
Q10   1   0.1011  0.3704  0.6147  11.00000  0.05    0.53
Q11   1   0.3802  0.9695  0.1904  11.00000  0.05    0.53
Q12   1   0.5843  0.2519  0.4070  11.00000  0.05    0.53
Q13   1   0.0970  0.3150  0.4451  11.00000  0.05    0.50
Q14   1   0.6069  0.2259  0.2238  11.00000  0.05    0.49
Q15   1   0.4524  0.6339  0.2067  11.00000  0.05    0.46
Q16   1   0.1836  1.0835  0.1057  11.00000  0.05    0.45
Q17   1   0.6864  0.1652  0.2933  11.00000  0.05    0.45
Q18   1   0.0118  0.2501  0.5453  11.00000  0.05    0.44
Q19   1   0.5574  0.6927  0.1016  11.00000  0.05    0.44
Q20   1   0.1867  0.4304  0.5219  11.00000  0.05    0.43

  REM The information below was added by Olex2.
  REM
  REM R1 = 0.0373 for 6727 Fo > 4sig(Fo) and 0.0451 for all 19981 data
  REM n/a parameters refined using n/a restraints
  REM Highest difference peak 0.73, deepest hole -0.42
  REM Mean Shift 0, Max Shift 0.001.
  
  REM +++ Tabular Listing of Refinement Information +++
  REM R1_all = 0.0451
  REM R1_gt = 0.0373
  REM wR_ref = 0.1034
  REM GOOF = 1.021
  REM Shift_max = 0.001
  REM Shift_mean = 0
  REM Reflections_all = 19981
  REM Reflections_gt = 6727
  REM Parameters = n/a
  REM Hole = -0.42
  REM Peak = 0.73
  REM Flack = n/a
  
  
;
_cod_data_source_file            ol7b00468_si_001.cif
_cod_data_source_block           mo_mjd011_0m
_cod_depositor_comments
'Adding full bibliography for 1545994--1545995.cif.'
_cod_database_code               1545994
_shelxl_version_number           2014/4
_shelx_space_group_comment
;
The symmetry employed for this shelxl refinement is uniquely defined
by the following loop, which should always be used as a source of
symmetry information in preference to the above space-group names.
They are only intended as comments.
;
_shelx_estimated_absorpt_t_max   0.932
_shelx_estimated_absorpt_t_min   0.888
_olex2_refinement_description
;
1. Fixed Uiso
 At 1.2 times of:
  All C(H) groups
 At 1.5 times of:
  All C(H,H,H) groups
2.a Ternary CH refined with riding coordinates:
 C9(H9), C8(H8)
2.b Aromatic/amide H refined with riding coordinates:
 C23(H23), C24(H24), C21(H21), C20(H20), C3(H3), C15(H15), C5(H5), C6(H6),
 C12(H12), C11(H11), C4(H4), C14(H14)
2.c Idealised Me refined as rotating group:
 C18(H18A,H18B,H18C)
;
_olex2_submission_special_instructions 'No special instructions were received'
loop_
_space_group_symop_operation_xyz
'x, y, z'
'-x, -y, -z'
loop_
_atom_site_label
_atom_site_type_symbol
_atom_site_fract_x
_atom_site_fract_y
_atom_site_fract_z
_atom_site_U_iso_or_equiv
_atom_site_adp_type
_atom_site_occupancy
_atom_site_site_symmetry_order
_atom_site_calc_flag
_atom_site_refinement_flags_posn
S1 S 0.52599(3) 0.69535(3) 0.16587(2) 0.01457(6) Uani 1 1 d .
Cl1 Cl 0.80794(4) 0.01624(3) 0.40174(3) 0.03256(8) Uani 1 1 d .
O3 O -0.01434(8) 0.42976(8) 0.23461(7) 0.01678(15) Uani 1 1 d .
O1 O 0.36110(9) 0.64590(8) 0.40519(7) 0.01798(15) Uani 1 1 d .
O4 O 0.64235(9) 0.71182(9) 0.21962(8) 0.02120(16) Uani 1 1 d .
O5 O 0.56638(9) 0.68007(8) 0.05363(7) 0.01926(16) Uani 1 1 d .
O2 O 0.18512(9) 0.56297(9) 0.09010(7) 0.02002(16) Uani 1 1 d .
O6 O 0.14035(11) 1.21363(10) 0.15069(9) 0.02590(18) Uani 1 1 d .
O7 O 0.03713(11) 1.15354(10) 0.03809(10) 0.0281(2) Uani 1 1 d .
N1 N 0.40409(10) 0.56078(8) 0.26388(8) 0.01287(15) Uani 1 1 d .
N2 N 0.12920(11) 1.14215(9) 0.09937(9) 0.01790(17) Uani 1 1 d .
C1 C 0.33102(11) 0.55728(10) 0.37747(9) 0.01334(17) Uani 1 1 d .
C7 C 0.15717(11) 0.36396(10) 0.40998(9) 0.01349(17) Uani 1 1 d .
C16 C 0.13131(11) 0.47219(10) 0.18971(9) 0.01403(17) Uani 1 1 d .
C9 C 0.38895(11) 0.44654(10) 0.23256(9) 0.01279(16) Uani 1 1 d .
H9 H 0.4147 0.4837 0.1410 0.015 Uiso 1 1 calc R
C10 C 0.49652(11) 0.34125(10) 0.27810(9) 0.01365(17) Uani 1 1 d .
C2 C 0.21342(11) 0.44430(10) 0.45646(9) 0.01357(17) Uani 1 1 d .
C8 C 0.22364(11) 0.38708(10) 0.27897(9) 0.01300(17) Uani 1 1 d .
H8 H 0.2226 0.2970 0.2782 0.016 Uiso 1 1 calc R
C23 C 0.21337(12) 0.94952(11) 0.05962(10) 0.01657(18) Uani 1 1 d .
H23 H 0.1399 0.9619 0.0136 0.020 Uiso 1 1 calc R
C24 C 0.30534(12) 0.84492(11) 0.07617(10) 0.01623(18) Uani 1 1 d .
H24 H 0.2955 0.7843 0.0416 0.019 Uiso 1 1 calc R
C21 C 0.33919(12) 1.02318(11) 0.17855(10) 0.01675(18) Uani 1 1 d .
H21 H 0.3497 1.0847 0.2120 0.020 Uiso 1 1 calc R
C19 C 0.41198(11) 0.83061(10) 0.14415(9) 0.01462(17) Uani 1 1 d .
C20 C 0.43101(12) 0.91864(11) 0.19485(10) 0.01687(18) Uani 1 1 d .
H20 H 0.5055 0.9075 0.2398 0.020 Uiso 1 1 calc R
C3 C 0.15583(12) 0.42395(11) 0.57813(9) 0.01743(19) Uani 1 1 d .
H3 H 0.1953 0.4785 0.6089 0.021 Uiso 1 1 calc R
C22 C 0.23191(12) 1.03514(10) 0.11218(9) 0.01495(18) Uani 1 1 d .
C15 C 0.56068(12) 0.28007(11) 0.20284(10) 0.01781(19) Uani 1 1 d .
H15 H 0.5383 0.3068 0.1252 0.021 Uiso 1 1 calc R
C5 C -0.01852(13) 0.24567(11) 0.60668(10) 0.0198(2) Uani 1 1 d .
H5 H -0.0991 0.1785 0.6579 0.024 Uiso 1 1 calc R
C6 C 0.03892(12) 0.26521(11) 0.48593(10) 0.01664(18) Uani 1 1 d .
H6 H -0.0023 0.2114 0.4553 0.020 Uiso 1 1 calc R
C12 C 0.62929(13) 0.20353(12) 0.42911(10) 0.0207(2) Uani 1 1 d .
H12 H 0.6538 0.1778 0.5058 0.025 Uiso 1 1 calc R
C11 C 0.53283(12) 0.30311(11) 0.39083(10) 0.01769(19) Uani 1 1 d .
H11 H 0.4914 0.3454 0.4419 0.021 Uiso 1 1 calc R
C4 C 0.04056(13) 0.32328(12) 0.65336(10) 0.0202(2) Uani 1 1 d .
H4 H 0.0021 0.3074 0.7365 0.024 Uiso 1 1 calc R
C14 C 0.65712(14) 0.18028(12) 0.24032(11) 0.0219(2) Uani 1 1 d .
H14 H 0.7003 0.1388 0.1890 0.026 Uiso 1 1 calc R
C13 C 0.68921(13) 0.14232(12) 0.35386(11) 0.0203(2) Uani 1 1 d .
C18 C -0.11236(12) 0.49454(13) 0.15360(10) 0.0209(2) Uani 1 1 d .
H18A H -0.1023 0.4591 0.0923 0.031 Uiso 1 1 calc GR
H18B H -0.0839 0.5915 0.1121 0.031 Uiso 1 1 calc GR
H18C H -0.2170 0.4768 0.2017 0.031 Uiso 1 1 calc GR
loop_
_atom_site_aniso_label
_atom_site_aniso_U_11
_atom_site_aniso_U_22
_atom_site_aniso_U_33
_atom_site_aniso_U_23
_atom_site_aniso_U_13
_atom_site_aniso_U_12
S1 0.01253(11) 0.01492(11) 0.01453(11) -0.00506(9) -0.00268(8) 0.00169(8)
Cl1 0.03659(17) 0.02986(16) 0.04161(18) -0.01960(14) -0.02172(14) 0.02243(13)
O3 0.0128(3) 0.0228(4) 0.0152(3) -0.0078(3) -0.0054(3) 0.0038(3)
O1 0.0233(4) 0.0183(4) 0.0162(3) -0.0100(3) -0.0070(3) 0.0023(3)
O4 0.0145(3) 0.0217(4) 0.0280(4) -0.0097(3) -0.0084(3) 0.0021(3)
O5 0.0197(4) 0.0195(4) 0.0145(3) -0.0062(3) 0.0012(3) 0.0022(3)
O2 0.0179(4) 0.0237(4) 0.0158(3) -0.0045(3) -0.0071(3) 0.0009(3)
O6 0.0281(4) 0.0276(4) 0.0325(5) -0.0217(4) -0.0099(4) 0.0087(4)
O7 0.0300(5) 0.0264(4) 0.0398(5) -0.0191(4) -0.0217(4) 0.0129(4)
N1 0.0141(4) 0.0135(4) 0.0110(3) -0.0058(3) -0.0022(3) 0.0011(3)
N2 0.0178(4) 0.0168(4) 0.0200(4) -0.0089(3) -0.0044(3) 0.0026(3)
C1 0.0149(4) 0.0153(4) 0.0109(4) -0.0059(3) -0.0048(3) 0.0036(3)
C7 0.0133(4) 0.0148(4) 0.0119(4) -0.0050(3) -0.0039(3) 0.0036(3)
C16 0.0143(4) 0.0177(4) 0.0143(4) -0.0098(3) -0.0058(3) 0.0037(3)
C9 0.0135(4) 0.0151(4) 0.0114(4) -0.0069(3) -0.0041(3) 0.0030(3)
C10 0.0123(4) 0.0165(4) 0.0141(4) -0.0078(3) -0.0043(3) 0.0025(3)
C2 0.0142(4) 0.0149(4) 0.0113(4) -0.0052(3) -0.0033(3) 0.0036(3)
C8 0.0128(4) 0.0151(4) 0.0127(4) -0.0069(3) -0.0044(3) 0.0027(3)
C23 0.0182(4) 0.0177(5) 0.0157(4) -0.0079(4) -0.0064(4) 0.0030(4)
C24 0.0181(4) 0.0163(4) 0.0156(4) -0.0077(4) -0.0050(4) 0.0027(3)
C21 0.0183(4) 0.0157(4) 0.0174(4) -0.0079(4) -0.0049(4) 0.0004(3)
C19 0.0146(4) 0.0139(4) 0.0136(4) -0.0045(3) -0.0031(3) 0.0015(3)
C20 0.0164(4) 0.0175(4) 0.0168(4) -0.0068(4) -0.0055(4) 0.0004(3)
C3 0.0196(5) 0.0200(5) 0.0123(4) -0.0069(4) -0.0035(3) 0.0050(4)
C22 0.0154(4) 0.0134(4) 0.0150(4) -0.0055(3) -0.0032(3) 0.0017(3)
C15 0.0187(5) 0.0229(5) 0.0173(4) -0.0125(4) -0.0072(4) 0.0064(4)
C5 0.0168(5) 0.0189(5) 0.0167(5) -0.0029(4) -0.0008(4) 0.0022(4)
C6 0.0155(4) 0.0157(4) 0.0166(4) -0.0047(4) -0.0046(3) 0.0023(3)
C12 0.0225(5) 0.0238(5) 0.0191(5) -0.0100(4) -0.0104(4) 0.0096(4)
C11 0.0190(5) 0.0225(5) 0.0156(4) -0.0105(4) -0.0072(4) 0.0081(4)
C4 0.0207(5) 0.0226(5) 0.0125(4) -0.0051(4) -0.0002(4) 0.0045(4)
C14 0.0232(5) 0.0260(5) 0.0263(5) -0.0184(5) -0.0103(4) 0.0107(4)
C13 0.0200(5) 0.0193(5) 0.0258(5) -0.0113(4) -0.0106(4) 0.0092(4)
C18 0.0153(4) 0.0298(6) 0.0190(5) -0.0096(4) -0.0091(4) 0.0052(4)
loop_
_atom_type_symbol
_atom_type_description
_atom_type_scat_dispersion_real
_atom_type_scat_dispersion_imag
_atom_type_scat_source
C C 0.0033 0.0016 'International Tables Vol C Tables 4.2.6.8 and 6.1.1.4'
H H 0.0000 0.0000 'International Tables Vol C Tables 4.2.6.8 and 6.1.1.4'
N N 0.0061 0.0033 'International Tables Vol C Tables 4.2.6.8 and 6.1.1.4'
O O 0.0106 0.0060 'International Tables Vol C Tables 4.2.6.8 and 6.1.1.4'
S S 0.1246 0.1234 'International Tables Vol C Tables 4.2.6.8 and 6.1.1.4'
Cl Cl 0.1484 0.1585 'International Tables Vol C Tables 4.2.6.8 and 6.1.1.4'
loop_
_geom_angle_atom_site_label_1
_geom_angle_atom_site_label_2
_geom_angle_atom_site_label_3
_geom_angle
O4 S1 O5 119.11(5)
O4 S1 N1 111.29(5)
O4 S1 C19 108.96(5)
O5 S1 N1 104.76(5)
O5 S1 C19 108.56(5)
N1 S1 C19 102.90(5)
C16 O3 C18 116.21(8)
C1 N1 S1 117.38(7)
C1 N1 C9 122.79(8)
C9 N1 S1 119.57(6)
O6 N2 O7 123.83(10)
O6 N2 C22 118.25(9)
O7 N2 C22 117.92(9)
O1 C1 N1 120.54(9)
O1 C1 C2 123.47(9)
N1 C1 C2 115.94(9)
C2 C7 C8 119.61(9)
C6 C7 C2 118.90(9)
C6 C7 C8 121.48(9)
O3 C16 C8 110.94(8)
O2 C16 O3 124.86(9)
O2 C16 C8 124.16(9)
N1 C9 H9 107.2
N1 C9 C10 113.11(8)
N1 C9 C8 109.28(8)
C10 C9 H9 107.2
C10 C9 C8 112.47(8)
C8 C9 H9 107.2
C15 C10 C9 117.75(9)
C11 C10 C9 123.16(9)
C11 C10 C15 119.10(10)
C7 C2 C1 121.32(9)
C3 C2 C1 117.64(9)
C3 C2 C7 120.98(10)
C7 C8 C16 113.41(8)
C7 C8 C9 112.43(8)
C7 C8 H8 106.7
C16 C8 C9 110.36(8)
C16 C8 H8 106.7
C9 C8 H8 106.7
C24 C23 H23 120.9
C22 C23 H23 120.9
C22 C23 C24 118.27(10)
C23 C24 H24 120.5
C23 C24 C19 119.00(10)
C19 C24 H24 120.5
C20 C21 H21 120.8
C22 C21 H21 120.8
C22 C21 C20 118.31(10)
C24 C19 S1 118.23(8)
C24 C19 C20 122.13(10)
C20 C19 S1 119.65(8)
C21 C20 C19 118.99(10)
C21 C20 H20 120.5
C19 C20 H20 120.5
C2 C3 H3 120.3
C4 C3 C2 119.41(10)
C4 C3 H3 120.3
C23 C22 N2 118.08(9)
C23 C22 C21 123.29(10)
C21 C22 N2 118.61(9)
C10 C15 H15 119.6
C14 C15 C10 120.75(10)
C14 C15 H15 119.6
C6 C5 H5 119.5
C4 C5 H5 119.5
C4 C5 C6 120.90(10)
C7 C6 H6 120.0
C5 C6 C7 119.93(10)
C5 C6 H6 120.0
C11 C12 H12 120.4
C13 C12 H12 120.4
C13 C12 C11 119.24(10)
C10 C11 H11 119.7
C12 C11 C10 120.60(10)
C12 C11 H11 119.7
C3 C4 C5 119.83(10)
C3 C4 H4 120.1
C5 C4 H4 120.1
C15 C14 H14 120.5
C13 C14 C15 119.06(10)
C13 C14 H14 120.5
C12 C13 Cl1 119.60(9)
C12 C13 C14 121.24(10)
C14 C13 Cl1 119.16(9)
O3 C18 H18A 109.5
O3 C18 H18B 109.5
O3 C18 H18C 109.5
H18A C18 H18B 109.5
H18A C18 H18C 109.5
H18B C18 H18C 109.5
loop_
_geom_bond_atom_site_label_1
_geom_bond_atom_site_label_2
_geom_bond_distance
S1 O4 1.4288(8)
S1 O5 1.4386(8)
S1 N1 1.6834(9)
S1 C19 1.7743(11)
Cl1 C13 1.7415(11)
O3 C16 1.3299(13)
O3 C18 1.4529(13)
O1 C1 1.2200(12)
O2 C16 1.2101(13)
O6 N2 1.2237(12)
O7 N2 1.2289(13)
N1 C1 1.4016(12)
N1 C9 1.4865(13)
N2 C22 1.4806(14)
C1 C2 1.4834(14)
C7 C2 1.4018(14)
C7 C8 1.5110(14)
C7 C6 1.3963(14)
C16 C8 1.5323(14)
C9 H9 1.0000
C9 C10 1.5205(14)
C9 C8 1.5383(14)
C10 C15 1.3974(14)
C10 C11 1.3968(14)
C2 C3 1.4012(14)
C8 H8 1.0000
C23 H23 0.9500
C23 C24 1.3940(15)
C23 C22 1.3879(15)
C24 H24 0.9500
C24 C19 1.3946(14)
C21 H21 0.9500
C21 C20 1.3928(15)
C21 C22 1.3893(15)
C19 C20 1.3947(15)
C20 H20 0.9500
C3 H3 0.9500
C3 C4 1.3887(16)
C15 H15 0.9500
C15 C14 1.3934(15)
C5 H5 0.9500
C5 C6 1.3932(15)
C5 C4 1.3919(17)
C6 H6 0.9500
C12 H12 0.9500
C12 C11 1.3935(15)
C12 C13 1.3879(16)
C11 H11 0.9500
C4 H4 0.9500
C14 H14 0.9500
C14 C13 1.3890(16)
C18 H18A 0.9800
C18 H18B 0.9800
C18 H18C 0.9800
loop_
_refln_index_h
_refln_index_k
_refln_index_l
_refln_F_squared_meas
_refln_F_squared_sigma
-1 0 0 370.16 9.7
1 0 0 346.97 9.6
-2 0 0 149.79 4
-2 0 0 135.39 4
2 0 0 148.19 3.9
2 0 0 139.89 4
-3 0 0 232.68 6.3
-3 0 0 219.68 6.3
3 0 0 228.18 6.1
3 0 0 220.08 6.3
-4 0 0 48.2 1.7
-4 0 0 49.2 1.7
4 0 0 51.59 1.7
-5 0 0 517.55 14.3
-5 0 0 518.05 14.3
5 0 0 528.65 14.3
-6 0 0 582.84 16.4
-6 0 0 604.14 16.4
6 0 0 604.14 16.4
-7 0 0 19.6 1.2
-7 0 0 21.7 1.3
7 0 0 23.3 1.2
-8 0 0 -0.1 0.7
-8 0 0 0.3 0.7
8 0 0 -0.4 0.7
-9 0 0 44.4 2.1
-9 0 0 43.6 2
9 0 0 41.9 2
-10 0 0 -0.2 0.8
-10 0 0 -0.9 0.8
10 0 0 0.7 0.9
-11 0 0 24.5 1.8
-11 0 0 25 2.8
11 0 0 24.9 1.8
-12 0 0 21 1.9
12 0 0 25.1 1.9
-13 0 0 2.9 1.2
13 0 0 3.3 1.4
13 -1 0 9 1.5
-13 1 0 7.8 1.4
12 -1 0 43.4 2.3
-12 1 0 40.7 2.3
-12 1 0 45.6 3
11 -1 0 7.1 1.2
-11 1 0 5.5 1.1
-11 1 0 5.3 1.1
10 -1 0 4.9 1
-10 1 0 5 1
-10 1 0 6.2 1.1
9 -1 0 250.77 7.6
-9 1 0 260.77 7.6
-9 1 0 259.37 7.6
8 -1 0 132.99 4.2
-8 1 0 135.99 4.3
-8 1 0 130.89 4.2
7 -1 0 2.2 0.6
-7 1 0 2.3 0.7
-7 1 0 1.8 0.6
6 -1 0 51.59 1.9
-6 1 0 51.79 1.9
-6 1 0 52.99 1.9
5 -1 0 36.6 1.5
5 -1 0 38.5 1.4
-5 1 0 36.8 1.5
4 -1 0 2.7 0.5
4 -1 0 2.3 0.5
-4 1 0 3.6 0.6
3 -1 0 305.37 8.4
3 -1 0 302.67 8.4
-3 1 0 312.37 8.5
2 -1 0 210.38 5.9
2 -1 0 210.38 5.9
-2 1 0 228.48 6
1 -1 0 7 0.4
1 -1 0 6.7 0.4
-1 1 0 9 0.5
-1 1 0 7.4 0.4
0 -1 0 710.73 19.6
0 1 0 751.92 19.6
-1 -1 0 6.1 0.5
1 1 0 6.1 0.5
1 1 0 5.9 0.5
-2 -1 0 4652.13 122.59
-2 -1 0 4373.96 122.79
2 1 0 4432.96 122.49
2 1 0 4793.62 122.79
-3 -1 0 9.8 0.6
-3 -1 0 8.1 0.6
3 1 0 9.2 0.6
3 1 0 9.6 0.5
-4 -1 0 180.28 4.9
-4 -1 0 167.98 5
4 1 0 170.08 4.9
4 1 0 175.08 4.8
-5 -1 0 73.49 2.3
-5 -1 0 72.29 2.4
5 1 0 76.09 2.2
5 1 0 72.19 2.4
-6 -1 0 2 0.6
-6 -1 0 1.3 0.6
6 1 0 1.9 0.6
6 1 0 2.6 0.4
-7 -1 0 49.3 2
-7 -1 0 48.6 1.9
7 1 0 49.9 1.9
-8 -1 0 56.89 2.3
-8 -1 0 53.39 2.1
8 1 0 53.39 2.2
-9 -1 0 99.59 3.4
-9 -1 0 101.49 3.6
9 1 0 102.99 3.5
-10 -1 0 9.2 1.3
10 1 0 10 1.3
-11 -1 0 4.5 1.2
11 1 0 6.6 1.2
-12 -1 0 36 2.3
12 1 0 35.6 2.2
-13 -1 0 1 1.3
13 1 0 3.7 1.7
13 -2 0 -0.4 1.1
-13 2 0 -0.7 1
12 -2 0 63.49 2.9
-12 2 0 71.09 3.1
-12 2 0 67.29 2.9
11 -2 0 8.2 1.2
-11 2 0 9.9 1.4
-11 2 0 5.7 1.1
10 -2 0 154.48 5
-10 2 0 163.18 5.2
-10 2 0 158.38 5.1
9 -2 0 49.9 2.1
-9 2 0 54.19 2.4
-9 2 0 50.69 2.2
8 -2 0 5.2 0.8
-8 2 0 6 0.9
-8 2 0 4.5 0.9
7 -2 0 89.69 2.9
-7 2 0 90.69 3.1
-7 2 0 86.89 3
6 -2 0 1.3 0.5
6 -2 0 1.6 0.6
-6 2 0 1.1 0.6
5 -2 0 206.38 5.9
5 -2 0 207.18 6
-5 2 0 210.78 6
4 -2 0 29.7 1.2
4 -2 0 29.7 1.1
-4 2 0 29.2 1.3
3 -2 0 352.36 9.8
3 -2 0 358.76 9.8
-3 2 0 365.36 9.9
2 -2 0 1769.92 49.4
2 -2 0 1853.81 49.4
-2 2 0 1883.21 49.6
-2 2 0 1852.71 49.3
1 -2 0 14.3 0.7
1 -2 0 13.6 0.7
-1 2 0 16.3 0.7
-1 2 0 14.3 0.7
0 -2 0 3.5 0.5
0 -2 0 4.7 0.4
0 2 0 5.2 0.5
0 2 0 5.6 0.4
-1 -2 0 2862.61 78.79
1 2 0 2943.21 78.49
1 2 0 2976.2 78.99
-2 -2 0 4245.88 115.99
2 2 0 4479.85 116.29
2 2 0 4211.18 115.69
-3 -2 0 405.66 11
-3 -2 0 395.36 11.1
3 2 0 400.26 11.1
3 2 0 421.76 11.1
-4 -2 0 366.26 10.3
-4 -2 0 366.36 10.2
4 2 0 385.46 10.2
4 2 0 371.66 10.3
-5 -2 0 590.64 16.3
-5 -2 0 590.84 16.5
5 2 0 622.24 16.3
5 2 0 593.44 16.4
-6 -2 0 75.29 2.6
-6 -2 0 75.39 2.4
6 2 0 75.59 2.6
6 2 0 81.09 2.4
-7 -2 0 2.9 0.8
-7 -2 0 3.7 0.6
7 2 0 3.7 0.8
-8 -2 0 61.79 2.2
-8 -2 0 62.09 2.5
8 2 0 61.19 2.4
-9 -2 0 2.7 1
9 2 0 3.3 1
-10 -2 0 51.49 2.4
10 2 0 48.7 2.3
-11 -2 0 -0.9 1.1
11 2 0 0.9 1.1
-12 -2 0 6.3 1.5
12 2 0 7.6 1.5
13 -3 0 14.7 1.7
-13 3 0 16 2.2
-13 3 0 10.4 1.5
12 -3 0 7.7 1.3
-12 3 0 6.5 1.2
-12 3 0 8.5 1.5
11 -3 0 19.5 1.6
-11 3 0 19.6 1.6
-11 3 0 20.8 1.9
10 -3 0 4.5 0.9
-10 3 0 4.4 1.2
-10 3 0 5.1 1
9 -3 0 2.8 0.8
-9 3 0 3.6 0.9
-9 3 0 3.1 1
8 -3 0 16.8 1.2
-8 3 0 16 1.4
7 -3 0 728.43 19.7
7 -3 0 719.23 19.7
-7 3 0 702.43 19.8
6 -3 0 31.8 1.4
6 -3 0 33.1 1.4
-6 3 0 32.9 1.6
5 -3 0 62.09 2.1
5 -3 0 61.99 2.1
-5 3 0 65.09 2.2
4 -3 0 722.63 20
4 -3 0 738.23 20
-4 3 0 736.33 20.1
-4 3 0 749.92 19.8
3 -3 0 1315.37 35.3
3 -3 0 1266.57 35.3
-3 3 0 1304.07 35.4
-3 3 0 1361.66 35.3
2 -3 0 356.26 9.6
2 -3 0 322.17 9.6
-2 3 0 359.86 9.6
-2 3 0 362.36 9.6
1 -3 0 1501.65 41
1 -3 0 1514.05 41
-1 3 0 1562.24 41
-1 3 0 1527.05 41
0 -3 0 217.88 6.1
0 -3 0 217.18 6.1
0 3 0 229.88 6.2
0 3 0 218.28 6
-1 -3 0 444.36 12.4
1 3 0 458.55 12.5
1 3 0 461.95 12.4
-2 -3 0 7.7 0.7
2 3 0 7.5 0.7
2 3 0 6.8 0.6
-3 -3 0 276.97 7.9
3 3 0 278.37 7.8
3 3 0 288.07 7.9
-4 -3 0 505.45 14
-4 -3 0 498.95 13.7
4 3 0 510.95 13.9
4 3 0 519.15 14
-5 -3 0 44 1.7
-5 -3 0 42.3 1.4
5 3 0 46.5 1.7
5 3 0 44.3 1.7
-6 -3 0 57.79 1.9
-6 -3 0 56.99 2.2
6 3 0 63.29 2.1
6 3 0 60.09 2.2
-7 -3 0 46.5 1.9
-7 -3 0 42.7 2
7 3 0 46.8 1.7
7 3 0 39.4 1.8
-8 -3 0 14.8 1.4
8 3 0 15 1.3
-9 -3 0 2.7 1
9 3 0 3.5 1
-10 -3 0 51.39 2.6
10 3 0 54.69 2.5
-11 -3 0 59.09 2.8
11 3 0 50.29 2.6
-12 -3 0 6.1 1.5
12 3 0 7.5 1.5
13 -4 0 27 2
-13 4 0 26.8 2.1
-13 4 0 28.9 2.5
12 -4 0 18.9 1.6
-12 4 0 18 1.7
-12 4 0 19.2 2.2
11 -4 0 41.5 2.1
-11 4 0 42.3 2.2
-11 4 0 44.8 2.5
10 -4 0 1.5 0.8
-10 4 0 0.4 0.9
-10 4 0 2.1 1.1
9 -4 0 72.69 2.7
-9 4 0 69.19 2.9
8 -4 0 31.5 1.5
8 -4 0 33.1 1.6
-8 4 0 28.5 1.8
7 -4 0 17.1 1.1
7 -4 0 17.8 1.2
-7 4 0 16.4 1.4
6 -4 0 2.7 0.6
6 -4 0 3.1 0.6
-6 4 0 1.3 0.7
5 -4 0 211.88 6.1
5 -4 0 212.98 6
-5 4 0 210.08 5.8
-5 4 0 209.88 6.2
4 -4 0 161.28 4.7
4 -4 0 161.78 4.7
-4 4 0 165.68 4.6
-4 4 0 163.68 4.8
3 -4 0 2 0.5
3 -4 0 1.7 0.4
-3 4 0 1.6 0.4
-3 4 0 2.1 0.6
2 -4 0 1433.16 39.3
2 -4 0 1463.15 39.3
-2 4 0 1455.55 39.3
-2 4 0 1488.05 39.3
1 -4 0 314.27 8.8
1 -4 0 318.97 8.8
-1 4 0 320.07 8.8
-1 4 0 325.97 8.9
0 -4 0 102.29 3.1
0 -4 0 106.49 3.1
0 4 0 109.09 3
0 4 0 106.99 3.2
-1 -4 0 1.7 0.4
-1 -4 0 2.1 0.5
1 4 0 1.4 0.5
-2 -4 0 718.43 19.9
2 4 0 741.53 19.9
2 4 0 736.93 20
-3 -4 0 284.37 8.1
3 4 0 288.07 8.1
3 4 0 288.57 8
-4 -4 0 74.69 2.5
4 4 0 75.79 2.5
4 4 0 75.19 2.5
-5 -4 0 6.1 0.8
5 4 0 5.3 0.8
5 4 0 7.1 0.8
-6 -4 0 2.4 0.8
6 4 0 2.4 0.7
6 4 0 2.4 0.7
-7 -4 0 176.78 5.6
7 4 0 184.18 5.4
7 4 0 179.18 5.5
-8 -4 0 17 1.5
8 4 0 18.9 1.4
-9 -4 0 0.3 1
9 4 0 0 0.9
-10 -4 0 6.8 1.4
10 4 0 7.7 1.3
-11 -4 0 0.3 1.2
11 4 0 1.6 1.2
-12 -4 0 4.2 1.5
12 4 0 2.7 1.1
13 -5 0 7.3 1.3
-13 5 0 7.6 1.5
-13 5 0 7.7 2.2
12 -5 0 2.9 1.1
-12 5 0 1.1 1
-12 5 0 1.7 1.5
11 -5 0 4.5 1
-11 5 0 6.8 1.5
-11 5 0 6.2 1.2
10 -5 0 10.9 1.3
-10 5 0 15.9 1.8
-10 5 0 15 1.4
9 -5 0 -0.1 0.8
9 -5 0 0.4 0.7
-9 5 0 1.2 1
8 -5 0 47.5 2
8 -5 0 46.8 1.9
-8 5 0 46.4 2.3
7 -5 0 154.08 4.8
7 -5 0 163.48 4.9
-7 5 0 158.28 5.1
6 -5 0 12.4 1
6 -5 0 11.6 0.9
-6 5 0 12.5 1.3
5 -5 0 68.49 2.3
5 -5 0 67.99 2.3
-5 5 0 72.39 2.2
-5 5 0 70.69 2.5
4 -5 0 29.3 1.2
4 -5 0 29.2 1.3
-4 5 0 31.1 1.2
-4 5 0 29.1 1.4
3 -5 0 0.8 0.4
3 -5 0 1.9 0.4
-3 5 0 0.7 0.6
-3 5 0 1.5 0.5
2 -5 0 2911.51 78.79
2 -5 0 2956.4 78.89
-2 5 0 2903.81 78.89
-2 5 0 2982.4 78.89
1 -5 0 629.94 17.2
1 -5 0 632.34 17.3
-1 5 0 626.14 17.2
-1 5 0 650.03 17.4
0 -5 0 3.2 0.4
0 -5 0 1.7 0.6
0 5 0 3.6 0.6
0 5 0 3 0.5
-1 -5 0 486.85 13.3
-1 -5 0 481.85 13.2
1 5 0 483.45 13.4
-2 -5 0 194.98 5.7
2 5 0 195.28 5.7
2 5 0 195.18 5.6
-3 -5 0 134.69 4.2
3 5 0 141.19 4.3
3 5 0 140.79 4.1
-4 -5 0 418.66 11.9
4 5 0 429.46 11.9
4 5 0 426.66 11.8
-5 -5 0 638.54 17.8
5 5 0 656.53 17.9
5 5 0 640.74 17.7
-6 -5 0 28.6 1.6
6 5 0 25.6 1.4
6 5 0 29.5 1.6
-7 -5 0 30.9 1.8
7 5 0 24.7 1.5
7 5 0 31.6 1.6
-8 -5 0 2.5 1
8 5 0 0.1 0.7
-9 -5 0 4.1 1.2
9 5 0 4.2 1
-10 -5 0 16.4 2
10 5 0 23.4 1.8
-11 -5 0 -1.6 1.3
11 5 0 1.1 1.1
12 -6 0 20.2 1.7
-12 6 0 25.1 2.5
-12 6 0 23.3 1.9
11 -6 0 73.59 3
-11 6 0 79.49 3.1
-11 6 0 79.49 3.6
10 -6 0 71.89 2.9
10 -6 0 76.49 3
-10 6 0 77.69 3.4
9 -6 0 53.99 2.3
9 -6 0 55.49 2.3
-9 6 0 53.39 2.7
8 -6 0 8.9 1
8 -6 0 10.2 1.2
-8 6 0 7.9 1.2
7 -6 0 92.69 3.1
7 -6 0 91.09 3
-7 6 0 93.59 3.4
6 -6 0 14.5 1
6 -6 0 11.7 1.1
-6 6 0 13.6 1.4
5 -6 0 113.09 3.6
5 -6 0 121.39 3.7
-5 6 0 120.19 3.5
-5 6 0 113.49 3.8
4 -6 0 2.7 0.6
4 -6 0 2.3 0.6
-4 6 0 3 0.8
-4 6 0 4 0.6
3 -6 0 308.57 8.6
3 -6 0 306.77 8.5
-3 6 0 292.67 8.6
-3 6 0 316.37 8.7
2 -6 0 8.8 0.7
2 -6 0 9.1 0.8
-2 6 0 9 0.9
-2 6 0 8.1 0.9
1 -6 0 261.47 7.5
1 -6 0 259.47 7.4
-1 6 0 271.77 7.5
-1 6 0 273.27 7.6
0 -6 0 367.36 10.5
0 -6 0 372.16 10.4
0 6 0 380.46 10.6
0 6 0 388.76 10.3
-1 -6 0 38.2 1.4
-1 -6 0 38.1 1.5
1 6 0 39.3 1.2
1 6 0 37.2 1.6
-2 -6 0 6.7 0.8
-2 -6 0 6 0.7
2 6 0 6.7 0.9
-3 -6 0 11.8 1.1
3 6 0 12.6 1.1
3 6 0 13.9 0.9
-4 -6 0 36.5 1.7
4 6 0 35.3 1.6
4 6 0 36 1.7
-5 -6 0 100.09 3.4
5 6 0 101.39 3.4
5 6 0 97.99 3.3
-6 -6 0 64.69 2.6
6 6 0 59.09 2.3
6 6 0 58.99 2.5
-7 -6 0 10.2 1.4
7 6 0 6.6 1
7 6 0 8.8 1.2
-8 -6 0 19.3 1.7
8 6 0 17.8 1.6
-9 -6 0 42.6 2.4
9 6 0 40.6 2.2
-10 -6 0 35.5 2.5
10 6 0 35.9 2.3
-11 -6 0 23.5 2.4
11 6 0 22.8 2.2
12 -7 0 19.1 1.7
-12 7 0 23.4 2.6
11 -7 0 7.6 1.2
-11 7 0 4.5 1.6
10 -7 0 27.9 1.8
10 -7 0 24.4 1.6
-10 7 0 24.8 2.3
9 -7 0 105.79 3.7
9 -7 0 109.69 3.6
-9 7 0 107.59 4.1
8 -7 0 111.39 3.6
8 -7 0 109.89 3.7
-8 7 0 105.19 4
7 -7 0 2.3 0.8
7 -7 0 4.4 0.8
-7 7 0 4.7 1.2
6 -7 0 1.2 0.7
6 -7 0 0.1 0.6
-6 7 0 0.5 1
5 -7 0 346.67 9.9
5 -7 0 344.07 9.8
-5 7 0 363.36 9.8
-5 7 0 337.57 10
4 -7 0 97.99 3.1
4 -7 0 101.29 3.2
-4 7 0 98.99 3.4
-4 7 0 100.99 3.2
3 -7 0 86.29 2.8
3 -7 0 91.79 3
-3 7 0 92.09 3
-3 7 0 90.69 3
2 -7 0 3 0.5
2 -7 0 1.8 0.6
-2 7 0 2 0.7
-2 7 0 3.6 0.7
1 -7 0 85.09 2.7
1 -7 0 84.09 2.8
-1 7 0 87.19 2.7
-1 7 0 87.79 3
0 -7 0 735.83 20.6
0 -7 0 750.12 20.5
0 7 0 743.63 20.7
0 7 0 778.72 20.4
-1 -7 0 10.1 1
-1 -7 0 9.7 0.8
1 7 0 9.7 1.1
-2 -7 0 34.7 1.6
-2 -7 0 34.1 1.4
2 7 0 34.9 1.7
-3 -7 0 32.2 1.7
3 7 0 33.8 1.7
-4 -7 0 40.8 1.9
4 7 0 39.2 1.9
4 7 0 40.8 1.7
-5 -7 0 19.1 1.6
5 7 0 15.6 1.3
5 7 0 16.1 1.4
-6 -7 0 153.48 5
6 7 0 159.08 4.9
6 7 0 151.18 5
-7 -7 0 7.3 1.3
7 7 0 9.1 1.4
7 7 0 5.3 1
-8 -7 0 10 1.5
8 7 0 11.5 1.5
-9 -7 0 42.2 2.6
9 7 0 45.6 2.4
-10 -7 0 4.5 1.6
10 7 0 5.4 1.5
11 7 0 1.8 1.6
12 -8 0 1 1
11 -8 0 5.5 1.2
-11 8 0 4.5 1.6
10 -8 0 0.4 1
10 -8 0 1.1 0.9
-10 8 0 1.1 1.4
9 -8 0 129.49 4.2
9 -8 0 118.19 4.1
-9 8 0 122.69 4.6
8 -8 0 46.8 2.1
8 -8 0 45.1 2
-8 8 0 44.3 2.5
7 -8 0 3.1 0.8
7 -8 0 4.8 0.9
-7 8 0 2.5 1
6 -8 0 14.1 1.1
6 -8 0 15.1 1.3
-6 8 0 13.7 1.6
5 -8 0 0.5 0.6
5 -8 0 1.6 0.8
-5 8 0 0.6 0.7
-5 8 0 1.4 1
4 -8 0 39.2 1.6
4 -8 0 40.4 1.7
-4 8 0 39.6 1.8
-4 8 0 40.1 1.9
3 -8 0 35.8 1.6
3 -8 0 33.8 1.5
-3 8 0 34.5 1.8
-3 8 0 34.6 1.7
2 -8 0 366.06 10.6
2 -8 0 376.36 10.5
-2 8 0 383.06 10.6
-2 8 0 375.76 10.7
1 -8 0 248.48 7.2
1 -8 0 249.48 7.3
-1 8 0 248.38 7.5
-1 8 0 270.37 7.3
0 -8 0 301.67 8.5
0 -8 0 302.47 8.4
0 8 0 293.67 8.8
-1 -8 0 373.96 10.6
-1 -8 0 383.56 10.4
1 8 0 365.26 10.8
-2 -8 0 24.3 1.4
-2 -8 0 25.4 1.2
2 8 0 25.7 1.6
-3 -8 0 0.2 0.5
-3 -8 0 -0.6 0.8
3 8 0 -0.2 0.8
-4 -8 0 84.69 3.1
4 8 0 78.79 3.1
-5 -8 0 16.1 1.5
5 8 0 15.3 1.3
5 8 0 13 1.4
-6 -8 0 24 1.8
6 8 0 23.6 1.7
6 8 0 20.8 1.5
-7 -8 0 10 1.5
7 8 0 7.7 1.2
7 8 0 8 1.3
-8 -8 0 41.3 2.5
8 8 0 44.4 2.2
8 8 0 39 2.5
-9 -8 0 39.8 2.7
9 8 0 40.7 2.5
-10 -8 0 0.4 1.6
10 8 0 0.4 1.5
11 -9 0 15.6 2.2
-11 9 0 12 2
10 -9 0 132.09 4.6
-10 9 0 149.49 5.4
9 -9 0 1.5 0.8
9 -9 0 3 1
-9 9 0 0.5 1.3
8 -9 0 20.1 1.4
8 -9 0 22.8 1.6
-8 9 0 19.2 2
7 -9 0 111.59 3.7
7 -9 0 100.99 3.5
-7 9 0 101.19 4
6 -9 0 64.89 2.4
6 -9 0 69.59 2.6
-6 9 0 60.99 2.8
5 -9 0 35.7 1.6
5 -9 0 36.2 1.8
-5 9 0 33.8 1.8
-5 9 0 34.6 2
4 -9 0 16.3 1.2
4 -9 0 13.5 1.1
-4 9 0 14.1 1.5
-4 9 0 15.5 1.4
3 -9 0 6 0.9
3 -9 0 7 0.9
-3 9 0 7 1.1
-3 9 0 7.4 1.1
2 -9 0 2.5 0.7
2 -9 0 2.3 0.8
-2 9 0 1.8 0.9
-2 9 0 3.3 0.9
1 -9 0 5.8 0.9
1 -9 0 6.9 0.8
-1 9 0 5.4 1
-1 9 0 4.2 0.8
0 -9 0 34.1 1.6
0 -9 0 34.7 1.5
0 9 0 32.3 1.9
-1 -9 0 1.8 0.7
-1 -9 0 3.6 0.7
1 9 0 3.3 1
-2 -9 0 2.8 0.9
-2 -9 0 5 0.7
2 9 0 4.7 1.1
-3 -9 0 20.1 1.5
-3 -9 0 20 1.2
3 9 0 20.2 1.6
-4 -9 0 20.5 1.6
-4 -9 0 18.1 1.2
4 9 0 18.2 1.6
-5 -9 0 44.6 1.9
-5 -9 0 48.3 2.3
5 9 0 44.3 2.4
-6 -9 0 3.5 1.2
6 9 0 4 1.2
6 9 0 2.9 1
-7 -9 0 26.3 2.1
7 9 0 28.3 2.1
7 9 0 29.6 1.9
-8 -9 0 14.9 2.1
8 9 0 12.6 1.8
8 9 0 16.4 1.8
-9 -9 0 6 1.7
9 9 0 5.7 1.4
-10 10 0 1.1 1.5
-9 10 0 25.9 2.5
8 -10 0 3.9 0.9
8 -10 0 5.5 1.1
-8 10 0 3.6 1.4
7 -10 0 48.6 2.1
7 -10 0 48.5 2.3
-7 10 0 46.1 2.6
6 -10 0 81.99 3
6 -10 0 78.39 2.8
-6 10 0 78.09 3.3
5 -10 0 0 0.6
5 -10 0 -0.5 0.8
-5 10 0 0.9 1.1
-5 10 0 -1.4 1.4
4 -10 0 7.7 1
4 -10 0 5.9 0.9
-4 10 0 4.5 1.1
-4 10 0 5.7 1.1
3 -10 0 26.6 1.4
3 -10 0 25.1 1.6
-3 10 0 24.4 1.7
-3 10 0 28.3 1.8
2 -10 0 7.2 1
2 -10 0 6.6 0.9
-2 10 0 5.4 1.1
1 -10 0 87.49 2.8
1 -10 0 86.69 3
-1 10 0 79.49 3.3
0 -10 0 15.6 1.1
0 -10 0 15.6 1.3
0 10 0 13 1.5
-1 -10 0 53.49 2
-1 -10 0 52.89 2.2
1 10 0 47.8 2.4
-2 -10 0 147.29 4.4
-2 -10 0 148.59 4.6
2 10 0 133.09 4.9
-3 -10 0 212.48 6.1
-3 -10 0 210.98 6.4
3 10 0 195.68 6.7
-4 -10 0 18 1.6
-4 -10 0 20.1 1.3
4 10 0 17.9 1.8
-5 -10 0 77.09 2.8
-5 -10 0 81.69 3.2
5 10 0 72.29 3.3
-6 -10 0 21.9 2
-6 -10 0 26.2 1.6
6 10 0 24.9 2.1
-7 -10 0 -1.3 1.2
-7 -10 0 0.4 0.8
7 10 0 -0.4 1.2
-8 -10 0 5.6 1.6
8 10 0 6.3 1.6
9 10 0 -0.1 1.4
-9 11 0 5.5 1.7
-8 11 0 34.7 2.7
-7 11 0 15.7 2.1
6 -11 0 32.9 1.9
-6 11 0 33.9 2.3
5 -11 0 83.59 3
5 -11 0 86.49 3.2
-5 11 0 86.99 3.5
4 -11 0 24.2 1.6
4 -11 0 21.8 1.4
-4 11 0 22.6 1.8
-4 11 0 25.9 1.9
3 -11 0 42.9 1.9
3 -11 0 44.7 2.1
-3 11 0 46.4 2.4
2 -11 0 171.58 5.2
2 -11 0 173.78 5.4
-2 11 0 175.18 5.8
1 -11 0 8.9 1.2
1 -11 0 10.4 1.1
-1 11 0 10.7 1.6
0 -11 0 1.3 0.9
0 -11 0 0 0.7
0 11 0 0 1
-1 -11 0 59.29 2.4
-1 -11 0 57.59 2.2
1 11 0 54.29 2.8
-2 -11 0 16.2 1.4
-2 -11 0 12.5 1.1
2 11 0 12.6 1.7
-3 -11 0 8.2 1.1
-3 -11 0 7.6 1.2
3 11 0 6.6 1.4
-4 -11 0 47.1 2.3
-4 -11 0 45.6 2
4 11 0 42.5 2.6
-5 -11 0 38 1.9
-5 -11 0 37.9 2.2
5 11 0 34.8 2.5
-6 -11 0 4.7 1.4
-6 -11 0 4.5 1
6 11 0 1.3 1.3
-7 -11 0 8.5 1.2
-7 -11 0 8.8 1.7
7 11 0 7.9 1.6
-8 -11 0 2.9 1.1
8 11 0 2.9 1.4
-9 12 0 9.1 1.9
-8 12 0 4.7 1.7
-7 12 0 1.6 1.4
-6 12 0 0.8 1.4
5 -12 0 1.3 1
-5 12 0 0.9 1.5
4 -12 0 93.29 3.5
-4 12 0 98.19 3.8
3 -12 0 3.1 1
-3 12 0 3.9 1.3
2 -12 0 15.4 1.4
-2 12 0 12.8 1.8
1 -12 0 -0.7 0.8
-1 12 0 0.6 1.1
0 -12 0 6.9 0.9
0 -12 0 5.2 1.1
0 12 0 5.6 1.4
-1 -12 0 79.09 2.8
-1 -12 0 79.39 3
1 12 0 65.99 3.3
-2 -12 0 17.5 1.3
-2 -12 0 15.6 1.5
2 12 0 16.4 2
-3 -12 0 84.39 3.2
-3 -12 0 82.59 3
3 12 0 80.89 3.8
-4 -12 0 18.6 1.4
-4 -12 0 22 1.9
4 12 0 19.2 2.1
-5 -12 0 6.2 1.4
-5 -12 0 5.8 1
5 12 0 7.6 1.7
-6 -12 0 4.3 1.3
-6 -12 0 4.5 1
6 12 0 4.1 1.6
-7 -12 0 40.9 2.2
7 12 0 42.7 2.9
-8 13 0 12.6 2
-7 13 0 2.8 1.6
-4 13 0 94.49 4
3 -13 0 13.2 1.6
-3 13 0 14.8 2
2 -13 0 2.1 1.1
-2 13 0 2.5 1.5
1 -13 0 40.9 2.1
-1 13 0 33.1 2.5
0 -13 0 17.8 1.6
0 13 0 16.7 2.1
-1 -13 0 11.9 1.5
1 13 0 14.4 2.1
-2 -13 0 55.19 2.5
2 13 0 47.9 3
-3 -13 0 15.6 1.7
3 13 0 11.6 1.9
-4 -13 0 2 1.1
4 13 0 -0.5 1.4
-5 -13 0 24.8 2.1
5 13 0 21.3 2.4
-3 14 0 -2 1.5
-2 14 0 9.9 1.9
1 -14 0 1.3 1
-1 14 0 1.3 1.7
0 -14 0 18.4 1.7
0 14 0 17.7 2.4
-1 -14 0 1.6 1.1
1 14 0 -0.8 1.6
-2 -14 0 2.1 1.2
2 14 0 1 1.7
-3 -14 0 0.9 1.1
3 14 0 -1.3 1.8
-4 -14 0 14 2
-3 15 0 4.9 2
-2 15 0 1.2 1.8
-1 15 0 3.2 2.4
-3 -14 1 8.2 1.4
-2 -14 1 18.8 2.6
1 14 -1 42.1 3.2
0 14 -1 35.5 3
-1 14 -1 121.79 5.1
-2 14 -1 5.4 1.9
-3 14 -1 2.3 1.5
-5 -13 1 39.2 2.6
4 13 -1 8.2 1.9
-4 -13 1 14.5 1.7
3 13 -1 16.3 2.3
-3 -13 1 18.1 1.7
2 13 -1 2.1 1.6
-2 -13 1 1.7 1.1
1 13 -1 25.9 2.5
-1 -13 1 31.6 2
0 13 -1 29.4 2.6
0 -13 1 32.5 1.9
-1 13 -1 5.1 1.6
-2 13 -1 13.6 2.1
-3 13 -1 29.2 2.4
-4 13 -1 121.89 4.8
-8 13 -1 29.6 3.8
6 12 -1 14.4 2.2
-6 -12 1 17.3 1.5
-6 -12 1 18.6 2
5 12 -1 26.9 2.5
-5 -12 1 24.5 1.7
-5 -12 1 31.8 2.2
4 12 -1 2.4 1.5
-4 -12 1 3.8 1.2
-4 -12 1 1.1 0.9
3 12 -1 52.39 3
-3 -12 1 53.69 2.5
-3 -12 1 55.09 2.3
2 12 -1 2.9 1.5
-2 -12 1 2.4 0.9
-2 -12 1 3.3 1
1 12 -1 69.19 3.4
-1 -12 1 74.69 2.9
-1 -12 1 72.99 2.7
0 12 -1 9.1 1.6
0 -12 1 6.7 1.1
0 -12 1 10.4 1.2
-1 12 -1 6.8 1.5
1 -12 1 5.8 1
1 -12 1 3.8 1
-2 12 -1 69.09 3.3
2 -12 1 72.59 2.7
2 -12 1 69.29 2.8
-3 12 -1 52.99 2.9
3 -12 1 56.69 2.3
-4 12 -1 35.1 2.4
-6 12 -1 121.89 4.9
-7 12 -1 43.1 2.8
-8 12 -1 23.5 2.5
7 11 -1 7.8 1.7
-7 -11 1 9 1.7
-7 -11 1 7 1.2
6 11 -1 27.8 2.4
-6 -11 1 28.5 2.3
-6 -11 1 28.6 1.8
5 11 -1 24.9 2.3
-5 -11 1 29.6 1.7
-5 -11 1 28.7 2
4 11 -1 4.6 1.5
-4 -11 1 5.9 1.2
-4 -11 1 5.1 0.9
3 11 -1 83.69 3.7
-3 -11 1 87.59 3.3
-3 -11 1 88.59 3.1
2 11 -1 89.59 3.9
-2 -11 1 100.99 3.5
-2 -11 1 99.09 3.3
1 11 -1 8.1 1.4
-1 -11 1 6.9 1
-1 -11 1 8.9 1.1
0 11 -1 13.2 1.7
0 -11 1 13.6 1.2
0 -11 1 13.1 1.4
-1 11 -1 58.49 2.9
1 -11 1 67.49 2.4
1 -11 1 65.99 2.6
-2 11 -1 -0.8 1.1
2 -11 1 1 0.9
2 -11 1 0.3 0.7
-3 11 -1 18.3 1.8
3 -11 1 17.1 1.4
3 -11 1 18.8 1.3
-4 11 -1 198.58 6.4
4 -11 1 195.98 6.1
4 -11 1 197.78 6
-5 11 -1 2.6 1.3
5 -11 1 2.6 0.9
-6 11 -1 -1.7 1.2
6 -11 1 -0.2 0.8
-7 11 -1 84.49 3.6
7 -11 1 81.59 3.1
-8 11 -1 105.69 4.4
-9 11 -1 2.2 1.5
-8 -10 1 23.9 2.5
-8 -10 1 26.8 1.9
7 10 -1 21.4 2.1
-7 -10 1 21.3 1.6
-7 -10 1 19.7 2.2
6 10 -1 20.2 2.1
-6 -10 1 22.1 1.6
-6 -10 1 25.5 2.1
5 10 -1 9.3 1.6
-5 -10 1 10.3 1.2
-5 -10 1 13.3 1.7
4 10 -1 45 2.6
-4 -10 1 49.1 2.3
-4 -10 1 48.6 2.1
3 10 -1 16.3 1.8
-3 -10 1 22.3 1.6
-3 -10 1 20.2 1.3
2 10 -1 86.89 3.6
-2 -10 1 90.89 3.1
-2 -10 1 94.79 3.3
1 10 -1 296.07 9.4
-1 -10 1 316.27 9
-1 -10 1 310.47 8.8
0 10 -1 3.8 1.1
0 -10 1 5.2 0.9
0 -10 1 5.6 0.9
-1 10 -1 106.19 4
1 -10 1 110.19 3.5
1 -10 1 111.89 3.7
-2 10 -1 8.9 1.3
2 -10 1 8.2 1.1
2 -10 1 8.3 1
-3 10 -1 162.98 5.2
-3 10 -1 164.88 5.4
3 -10 1 163.78 5.1
3 -10 1 172.88 5.2
-4 10 -1 99.99 3.6
-4 10 -1 102.49 3.7
4 -10 1 98.49 3.4
4 -10 1 100.09 3.4
-5 10 -1 -0.3 0.9
-5 10 -1 0.5 1.1
5 -10 1 1.3 0.8
5 -10 1 -0.1 0.8
-6 10 -1 25.2 2.1
6 -10 1 23 1.6
6 -10 1 21.6 1.4
-7 10 -1 51.39 2.7
7 -10 1 50.99 2.2
-8 10 -1 14.6 2
8 -10 1 12.4 1.3
-9 10 -1 6.9 1.6
9 -10 1 7.7 1.2
-10 10 -1 0.9 1.4
10 -10 1 3 1.5
9 9 -1 -1.8 1.3
-9 -9 1 1.7 1.6
8 9 -1 14.5 1.8
-8 -9 1 10.9 1.8
7 9 -1 5 1.2
7 9 -1 6.3 1.5
-7 -9 1 6 1.4
6 9 -1 17.5 1.8
-6 -9 1 20 1.4
-6 -9 1 20.4 1.9
5 9 -1 38.4 2.3
-5 -9 1 43.3 1.9
-5 -9 1 40.6 2.2
4 9 -1 0.8 1.1
-4 -9 1 1.6 0.7
-4 -9 1 0.5 1
3 9 -1 9.8 1.4
-3 -9 1 4.9 0.9
-3 -9 1 6.1 0.8
2 9 -1 28.6 1.9
-2 -9 1 28.6 1.4
-2 -9 1 30 1.7
1 9 -1 54.59 2.6
-1 -9 1 59.99 2.3
-1 -9 1 57.59 2.1
0 9 -1 28 1.8
0 -9 1 31.1 1.4
0 -9 1 29.8 1.5
-1 9 -1 10 1.4
1 -9 1 9.6 1
1 -9 1 8.7 1.1
-2 9 -1 306.27 8.7
-2 9 -1 296.97 9
2 -9 1 308.87 8.7
2 -9 1 299.67 8.6
-3 9 -1 481.25 13.5
-3 9 -1 480.95 13.7
3 -9 1 478.05 13.4
3 -9 1 487.05 13.5
-4 9 -1 1.6 0.9
-4 9 -1 5.2 1.1
4 -9 1 3.6 0.8
4 -9 1 2.5 0.7
-5 9 -1 16.8 1.4
-5 9 -1 16.8 1.6
5 -9 1 16.8 1.2
5 -9 1 17.7 1.3
-6 9 -1 142.29 4.9
6 -9 1 149.29 4.6
6 -9 1 144.49 4.6
-7 9 -1 36.3 2.3
7 -9 1 38 1.9
7 -9 1 36.9 1.8
-8 9 -1 14.3 1.9
8 -9 1 11.8 1.3
-9 9 -1 88.39 3.8
9 -9 1 83.19 3.2
-10 9 -1 7.2 1.7
10 -9 1 7.3 1.2
-11 9 -1 1.1 1.5
11 -9 1 0.1 1
10 8 -1 9.7 1.8
-9 -8 1 205.88 6.9
8 8 -1 12.8 1.6
-8 -8 1 14.1 2
7 8 -1 28.8 2.1
7 8 -1 35 2
-7 -8 1 33.2 2.2
6 8 -1 53.19 2.3
6 8 -1 50.49 2.5
-6 -8 1 52.19 2.5
5 8 -1 2.7 1.1
-5 -8 1 1.8 1
4 8 -1 4.3 1
-4 -8 1 5 0.8
-4 -8 1 5.1 1.1
3 8 -1 198.58 6.3
-3 -8 1 200.08 5.9
-3 -8 1 203.98 6.1
2 8 -1 97.09 3.6
-2 -8 1 100.59 3.4
-2 -8 1 100.59 3.2
1 8 -1 1.4 0.8
-1 -8 1 2.3 0.6
-1 -8 1 2.4 0.8
0 8 -1 75.19 2.9
0 -8 1 77.49 2.6
0 -8 1 76.59 2.5
-1 8 -1 64.99 2.7
-1 8 -1 70.49 2.4
1 -8 1 72.89 2.5
1 -8 1 66.99 2.3
-2 8 -1 7.4 1.1
-2 8 -1 4.7 0.8
2 -8 1 6.1 0.8
2 -8 1 5.2 0.8
-3 8 -1 18.7 1.4
-3 8 -1 18.7 1.4
3 -8 1 18.2 1.2
3 -8 1 18.1 1.1
-4 8 -1 48.7 2.1
-4 8 -1 47.9 2.2
4 -8 1 50.09 2
4 -8 1 47.6 1.9
-5 8 -1 7.4 1.1
-5 8 -1 9.9 1.1
5 -8 1 8.2 1
5 -8 1 8.3 1
-6 8 -1 3.9 1.1
6 -8 1 6.4 0.9
6 -8 1 5.1 0.8
-7 8 -1 4.2 1.1
7 -8 1 6.9 0.9
7 -8 1 5.1 0.9
-8 8 -1 1.4 1.2
8 -8 1 2.3 0.8
8 -8 1 1.1 0.8
-9 8 -1 59.29 2.9
9 -8 1 53.49 2.3
9 -8 1 57.49 2.5
-10 8 -1 5.1 1.5
10 -8 1 5.8 1.1
-11 8 -1 0.6 1.4
11 -8 1 0.8 1
12 -8 1 4.1 1.2
10 7 -1 7.4 1.6
-10 -7 1 3.2 1.7
9 7 -1 123.29 4.4
-9 -7 1 118.89 4.6
8 7 -1 130.19 4.4
-8 -7 1 122.39 4.6
7 7 -1 117.19 4.1
7 7 -1 120.69 4.2
-7 -7 1 117.49 4.2
6 7 -1 110.69 4
6 7 -1 109.19 3.8
-6 -7 1 111.69 3.9
5 7 -1 43.4 1.9
5 7 -1 42.4 2.1
-5 -7 1 43.6 2.1
4 7 -1 16.1 1.2
4 7 -1 15.2 1.4
-4 -7 1 17.9 1.4
3 7 -1 0.4 0.7
-3 -7 1 0.4 0.5
-3 -7 1 -0.6 0.8
2 7 -1 19.8 1.4
-2 -7 1 20 1.1
-2 -7 1 20.4 1.3
1 7 -1 95.79 3.4
-1 -7 1 103.49 3.2
-1 -7 1 103.49 3.3
0 7 -1 16.4 0.9
0 7 -1 15.3 1.2
0 -7 1 16.4 1
0 -7 1 16.4 1
-1 7 -1 149.59 4.6
-1 7 -1 141.69 4.2
1 -7 1 145.29 4.3
1 -7 1 141.09 4.3
-2 7 -1 1.7 0.7
-2 7 -1 0.5 0.6
2 -7 1 0.6 0.5
2 -7 1 1.8 0.6
-3 7 -1 248.68 7.1
-3 7 -1 243.88 7.1
3 -7 1 243.08 7
3 -7 1 239.78 7
-4 7 -1 399.96 11.7
-4 7 -1 424.16 11.6
4 -7 1 406.56 11.5
4 -7 1 417.76 11.5
-5 7 -1 11.1 1
-5 7 -1 6.6 1
5 -7 1 9.6 1
5 -7 1 9.3 1
-6 7 -1 -0.1 0.9
6 -7 1 0.6 0.6
6 -7 1 0.1 0.6
-7 7 -1 257.37 7.8
7 -7 1 260.37 7.5
7 -7 1 254.87 7.5
-8 7 -1 0.3 1
8 -7 1 -0.1 0.7
8 -7 1 0.7 0.8
-9 7 -1 39.2 2.4
9 -7 1 39.7 1.9
9 -7 1 42.2 2
-10 7 -1 71.99 3.4
10 -7 1 74.29 2.9
10 -7 1 72.99 2.9
-11 7 -1 15 2.2
11 -7 1 10.9 1.4
-12 7 -1 4.7 1.7
12 -7 1 5.8 1.2
11 6 -1 34.2 2.5
-11 -6 1 29 2.7
10 6 -1 8.7 1.5
-10 -6 1 5.1 1.6
9 6 -1 25.2 1.9
-9 -6 1 26.3 2.2
8 6 -1 8.2 1.2
-8 -6 1 6.5 1.4
7 6 -1 14.2 1.4
7 6 -1 18 1.5
-7 -6 1 12 1.6
6 6 -1 27.4 1.6
6 6 -1 23.9 1.7
-6 -6 1 28.7 1.8
5 6 -1 27.3 1.6
5 6 -1 26 1.5
-5 -6 1 26.1 1.6
4 6 -1 70.69 2.5
4 6 -1 70.99 2.7
-4 -6 1 68.59 2.6
3 6 -1 11.6 1
3 6 -1 9.9 1
-3 -6 1 9.7 1
2 6 -1 21.3 1.3
-2 -6 1 22.6 1.1
-2 -6 1 20.7 1.3
1 6 -1 357.36 10.3
-1 -6 1 354.26 10
-1 -6 1 368.76 10.1
0 6 -1 457.45 12.7
0 6 -1 466.15 12.3
0 -6 1 443.56 12.4
0 -6 1 439.96 12.5
-1 6 -1 48.8 1.7
-1 6 -1 51.49 2
1 -6 1 48.9 1.7
1 -6 1 48.9 1.8
-2 6 -1 99.69 3.2
-2 6 -1 94.19 3
2 -6 1 95.89 3
2 -6 1 95.49 3
-3 6 -1 23.8 1.3
-3 6 -1 28.7 1.3
3 -6 1 26.2 1.2
3 -6 1 27.8 1.2
-4 6 -1 34.8 1.5
-4 6 -1 32.9 1.6
4 -6 1 34 1.4
4 -6 1 33.3 1.4
-5 6 -1 31.9 1.7
-5 6 -1 34.8 1.4
5 -6 1 33.5 1.5
5 -6 1 33.4 1.5
-6 6 -1 324.57 9.5
6 -6 1 321.97 9.2
6 -6 1 327.87 9.2
-7 6 -1 4.7 1
7 -6 1 7.7 0.9
7 -6 1 7.7 1
-8 6 -1 1.8 1
8 -6 1 0.3 0.7
8 -6 1 1.3 0.8
-9 6 -1 29.4 2.1
9 -6 1 29.9 1.7
9 -6 1 31.9 1.7
-10 6 -1 48.7 2.7
10 -6 1 53.29 2.3
10 -6 1 53.49 2.3
-11 6 -1 6.7 1.6
-11 6 -1 5.8 1.2
11 -6 1 5.1 1.1
-12 6 -1 53.29 3.1
12 -6 1 51.79 2.5
11 5 -1 11.9 1.8
-11 -5 1 11.5 1.8
10 5 -1 8.6 1.5
-10 -5 1 12.7 1.7
9 5 -1 41.6 2.2
-9 -5 1 39.3 2.3
8 5 -1 56.19 2.5
-8 -5 1 59.49 2.7
7 5 -1 51.29 2.2
7 5 -1 49.4 2.2
-7 -5 1 51.89 2.3
6 5 -1 57.79 2.4
6 5 -1 64.49 2.5
-6 -5 1 62.39 2.5
5 5 -1 98.79 3.3
5 5 -1 99.79 3.4
-5 -5 1 99.29 3.4
4 5 -1 24.2 1.3
4 5 -1 19.6 1.2
-4 -5 1 22.5 1.3
3 5 -1 605.24 16.9
3 5 -1 622.44 17
-3 -5 1 617.44 16.9
2 5 -1 2.8 0.7
-2 -5 1 2.4 0.6
1 5 -1 566.54 15.4
-1 -5 1 552.74 15.2
-1 -5 1 554.74 15.3
0 5 -1 180.38 5
0 5 -1 179.18 5.3
0 -5 1 182.78 5.2
0 -5 1 177.58 5.1
-1 5 -1 9.5 0.8
-1 5 -1 9.4 0.8
1 -5 1 7.4 0.7
1 -5 1 8.3 0.7
-2 5 -1 63.19 2.1
-2 5 -1 61.99 2.1
2 -5 1 58.39 2
2 -5 1 61.39 2
-3 5 -1 4.3 0.7
-3 5 -1 4.1 0.6
3 -5 1 4.6 0.6
3 -5 1 3.8 0.6
-4 5 -1 74.49 2.4
-4 5 -1 73.99 2.6
4 -5 1 75.49 2.4
4 -5 1 73.99 2.4
-5 5 -1 133.79 4.2
-5 5 -1 134.99 3.9
5 -5 1 135.99 4
5 -5 1 131.09 4
-6 5 -1 2.5 0.8
6 -5 1 4 0.7
6 -5 1 4.8 0.7
-7 5 -1 2 0.9
7 -5 1 1.7 0.7
7 -5 1 1.1 0.6
-8 5 -1 139.69 4.7
8 -5 1 139.79 4.4
8 -5 1 143.99 4.4
-9 5 -1 104.29 3.9
9 -5 1 111.39 3.6
9 -5 1 102.49 3.6
-10 5 -1 1.6 0.9
-10 5 -1 1 1.1
10 -5 1 1.5 0.9
-11 5 -1 41.2 2.1
-11 5 -1 38.7 2.5
11 -5 1 35 2
-12 5 -1 4.5 1.6
-12 5 -1 3.8 1.1
12 -5 1 3.9 1.1
-13 5 -1 12.1 2.6
13 -5 1 10.8 1.6
-12 -4 1 49.4 4.6
11 4 -1 15.8 1.8
-11 -4 1 14.6 2
10 4 -1 47.9 2.5
-10 -4 1 51.29 2.7
9 4 -1 0.7 0.8
-9 -4 1 0.2 1
-8 -4 1 42.8 2.2
7 4 -1 31.2 1.6
7 4 -1 25.1 1.5
-7 -4 1 27.3 1.7
6 4 -1 4 0.8
6 4 -1 6.3 0.9
-6 -4 1 6.7 1
5 4 -1 93.59 3.1
5 4 -1 100.09 3.2
-5 -4 1 94.09 3.2
4 4 -1 280.27 7.8
4 4 -1 261.67 7.7
-4 -4 1 267.97 7.7
3 4 -1 76.99 2.6
3 4 -1 73.79 2.4
-3 -4 1 77.59 2.5
2 4 -1 197.18 5.7
2 4 -1 195.88 5.6
-2 -4 1 196.78 5.6
1 4 -1 1059.39 28
-1 -4 1 1029.8 27.8
-1 -4 1 1001.8 27.8
0 4 -1 605.74 17
0 4 -1 648.14 17.2
0 -4 1 637.04 17.1
0 -4 1 625.94 17.1
-1 4 -1 37.8 1.4
-1 4 -1 37.1 1.3
1 -4 1 36.8 1.3
1 -4 1 34.9 1.3
-2 4 -1 646.54 17.8
-2 4 -1 668.73 17.9
2 -4 1 651.13 17.8
2 -4 1 657.73 17.8
-3 4 -1 164.48 4.7
-3 4 -1 157.98 4.7
3 -4 1 160.98 4.6
3 -4 1 164.98 4.7
-4 4 -1 1831.62 48.6
-4 4 -1 1784.42 48.7
4 -4 1 1791.72 48.6
4 -4 1 1814.92 48.6
-5 4 -1 12.6 0.7
-5 4 -1 13.7 1.1
5 -4 1 12.7 0.9
5 -4 1 12.9 0.9
-6 4 -1 51.09 2.1
6 -4 1 49.99 1.9
6 -4 1 50.59 1.9
-7 4 -1 64.49 2.6
7 -4 1 66.59 2.3
7 -4 1 62.59 2.3
-8 4 -1 165.38 5.4
8 -4 1 174.58 5.2
8 -4 1 171.78 5.2
-9 4 -1 43.1 2.3
9 -4 1 40.5 1.9
-10 4 -1 80.69 3.3
-10 4 -1 78.99 3
10 -4 1 81.89 3
-11 4 -1 1.5 1.2
-11 4 -1 -1.4 0.9
11 -4 1 0.3 0.9
-12 4 -1 108.79 4.3
-12 4 -1 108.79 3.9
12 -4 1 102.79 3.9
-13 4 -1 6.9 1.3
-13 4 -1 10.5 1.9
13 -4 1 7 1.3
12 3 -1 2.6 1.1
-12 -3 1 -0.2 1.3
11 3 -1 3.8 1.2
-11 -3 1 2.7 1.3
10 3 -1 1.6 1
-10 -3 1 2 1.1
9 3 -1 19.6 1.5
-9 -3 1 17.8 1.6
8 3 -1 19.6 1.4
-8 -3 1 16.3 1.5
7 3 -1 106.99 3.6
7 3 -1 109.69 3.5
-7 -3 1 107.99 3.7
6 3 -1 29.3 1.5
6 3 -1 32.3 1.4
-6 -3 1 31 1.3
-6 -3 1 29 1.5
5 3 -1 96.39 3.1
5 3 -1 101.79 3.1
-5 -3 1 98.59 3.2
-5 -3 1 95.69 2.8
4 3 -1 380.46 10.4
-4 -3 1 361.06 10.4
3 3 -1 49.99 1.7
3 3 -1 49.4 1.8
-3 -3 1 46.9 1.7
2 3 -1 118.29 3.5
2 3 -1 115.49 3.4
-2 -3 1 117.99 3.5
1 3 -1 124.69 3.7
1 3 -1 124.99 3.6
-1 -3 1 121.49 3.6
0 3 -1 101.59 3
0 3 -1 99.49 2.8
0 -3 1 98.89 2.9
0 -3 1 98.39 2.9
-1 3 -1 282.77 7.8
-1 3 -1 282.87 7.7
1 -3 1 278.67 7.7
1 -3 1 276.97 7.7
-2 3 -1 0.3 0.5
-2 3 -1 0.4 0.4
2 -3 1 0.1 0.3
2 -3 1 0.3 0.3
-3 3 -1 1305.77 35.5
-3 3 -1 1355.26 35.4
3 -3 1 1314.57 35.4
3 -3 1 1277.37 35.3
-4 3 -1 319.97 8.9
-4 3 -1 313.87 8.6
4 -3 1 311.07 8.7
4 -3 1 318.27 8.8
-5 3 -1 39.9 1.3
-5 3 -1 41.8 1.7
5 -3 1 39.4 1.5
5 -3 1 40.7 1.5
-6 3 -1 7.7 1
6 -3 1 7.5 0.8
6 -3 1 8.1 0.8
-7 3 -1 4.1 0.9
7 -3 1 5.2 0.8
7 -3 1 4.6 0.7
-8 3 -1 179.78 5.5
8 -3 1 173.38 5.3
-9 3 -1 52.89 2.2
-9 3 -1 52.49 2.4
9 -3 1 51.59 2.2
-10 3 -1 2.6 0.9
-10 3 -1 2.1 1.1
10 -3 1 4 1
-11 3 -1 26 2
-11 3 -1 22.4 1.7
11 -3 1 24.9 1.7
-12 3 -1 0.1 0.9
-12 3 -1 1.6 1.3
12 -3 1 1 1
-13 3 -1 54.59 3
-13 3 -1 52.09 2.6
13 -3 1 50.79 2.6
12 2 -1 42.3 2.5
-12 -2 1 42.5 2.6
11 2 -1 2.7 1.2
-11 -2 1 1.6 1.2
10 2 -1 84.59 3.3
-10 -2 1 90.59 3.5
9 2 -1 10.6 1.3
-9 -2 1 9.7 1.4
8 2 -1 105.09 3.5
-8 -2 1 104.99 3.6
7 2 -1 24.4 1.4
-7 -2 1 23.5 1.4
-7 -2 1 22.9 1.2
6 2 -1 9 0.9
6 2 -1 10.2 0.8
-6 -2 1 8.4 0.8
-6 -2 1 9.3 1
5 2 -1 17.6 0.9
5 2 -1 14.9 1
-5 -2 1 16.1 1
-5 -2 1 16.9 0.8
4 2 -1 264.57 7.6
4 2 -1 287.57 7.6
-4 -2 1 263.27 7.4
-4 -2 1 268.57 7.7
3 2 -1 1830.12 46.7
3 2 -1 1676.63 46.6
-3 -2 1 1702.23 46.7
-3 -2 1 1724.93 46.5
2 2 -1 5174.18 141.69
2 2 -1 5509.45 142.39
-2 -2 1 5162.78 142.09
1 2 -1 225.88 6.2
1 2 -1 230.88 6.3
-1 -2 1 217.18 6.2
0 2 -1 163.68 4.4
0 2 -1 150.68 4.3
0 -2 1 154.68 4.3
0 -2 1 152.88 4.3
-1 2 -1 24.4 0.9
-1 2 -1 24.2 0.9
1 -2 1 22.7 0.9
1 -2 1 23.7 0.8
-2 2 -1 7054.69 185.48
-2 2 -1 7218.88 185.88
2 -2 1 6861.01 185.68
2 -2 1 6505.05 185.28
-3 2 -1 74.19 2.2
-3 2 -1 78.19 2.4
3 -2 1 72.39 2.3
3 -2 1 75.59 2.3
-4 2 -1 75.99 2.2
-4 2 -1 79.89 2.5
4 -2 1 76.09 2.4
4 -2 1 77.49 2.4
-5 2 -1 313.57 8.7
5 -2 1 301.47 8.6
5 -2 1 309.17 8.6
-6 2 -1 263.67 7.5
6 -2 1 263.27 7.4
6 -2 1 252.37 7.4
-7 2 -1 41.7 1.9
-7 2 -1 44.1 1.7
7 -2 1 40.8 1.7
-8 2 -1 547.65 15.3
-8 2 -1 555.04 15.4
8 -2 1 549.65 15.3
-9 2 -1 26.9 1.7
-9 2 -1 25 1.5
9 -2 1 22.9 1.5
-10 2 -1 7.8 1.3
-10 2 -1 6.5 1
10 -2 1 7.9 1.1
-11 2 -1 5.3 1.1
-11 2 -1 8.6 1.3
11 -2 1 5 1.1
-12 2 -1 4.2 1.4
-12 2 -1 3.4 1.1
12 -2 1 3.5 1.1
-13 2 -1 7.9 1.6
-13 2 -1 1.9 1.1
13 -2 1 4.6 1.2
12 1 -1 8.3 1.5
-12 -1 1 12.2 1.7
11 1 -1 149.49 5
-11 -1 1 145.19 5.1
10 1 -1 -0.4 0.9
-10 -1 1 -0.3 0.9
9 1 -1 8 1.1
-9 -1 1 6.6 1.1
-9 -1 1 6.9 1.1
8 1 -1 87.49 3.1
-8 -1 1 88.09 3.2
-8 -1 1 88.19 3
7 1 -1 10 1
-7 -1 1 10.9 1.1
-7 -1 1 11.1 1
6 1 -1 14.3 1
-6 -1 1 14.2 1
-6 -1 1 13.2 0.9
5 1 -1 55.29 1.9
5 1 -1 58.09 1.8
-5 -1 1 55.29 2
-5 -1 1 56.09 1.8
4 1 -1 56.19 1.7
4 1 -1 53.89 1.8
-4 -1 1 53.29 1.7
-4 -1 1 54.29 1.9
3 1 -1 18 0.8
3 1 -1 17.9 0.8
-3 -1 1 16.2 0.9
-3 -1 1 18.3 0.7
2 1 -1 0.3 0.3
2 1 -1 0.4 0.3
-2 -1 1 0 0.3
1 1 -1 34.2 1.1
1 1 -1 30.4 0.9
1 1 -1 31.7 1.1
-1 -1 1 29.8 1
0 1 -1 336.87 9.5
0 1 -1 373.16 9.6
0 -1 1 358.36 9.5
0 -1 1 348.07 9.6
-1 1 -1 1411.66 37.5
-1 1 -1 1472.55 37.7
1 -1 1 1391.46 37.5
1 -1 1 1320.47 37.5
-2 1 -1 1523.85 41.6
-2 1 -1 1620.14 41.9
2 -1 1 1533.65 41.6
2 -1 1 1522.35 41.7
-3 1 -1 121.69 3.4
3 -1 1 111.99 3.4
3 -1 1 119.19 3.2
3 -1 1 116.89 3.4
-4 1 -1 96.69 2.9
4 -1 1 93.09 2.8
4 -1 1 91.39 2.8
-5 1 -1 403.76 11.1
5 -1 1 392.06 11
-6 1 -1 38.2 1.5
-6 1 -1 40.6 1.6
6 -1 1 38 1.5
-7 1 -1 14.9 1
-7 1 -1 13.7 1.2
7 -1 1 17.6 1.1
-8 1 -1 3.4 0.9
-8 1 -1 2 0.7
8 -1 1 3.3 0.8
-9 1 -1 40.5 2
-9 1 -1 37.8 1.8
9 -1 1 39 1.8
-10 1 -1 132.39 4.4
-10 1 -1 131.49 4.3
10 -1 1 122.39 4.2
-11 1 -1 39.6 2.2
-11 1 -1 36.8 2.1
11 -1 1 40.2 2
-12 1 -1 2.1 1.2
-12 1 -1 1.4 1
12 -1 1 2.6 1.1
-13 1 -1 14.4 1.7
13 -1 1 11 1.5
-13 0 1 8.2 1.9
12 0 -1 22.3 1.9
-12 0 1 22.2 1.9
11 0 -1 40 2.2
-11 0 1 45.1 2.3
10 0 -1 106.29 3.7
-10 0 1 101.19 3.7
-10 0 1 99.39 3.6
9 0 -1 1.4 0.9
-9 0 1 2.1 0.9
-9 0 1 1.5 0.8
8 0 -1 127.99 4.1
-8 0 1 131.59 4.1
-8 0 1 126.09 4.2
7 0 -1 51.49 2
-7 0 1 51.79 2
-7 0 1 50.19 2
6 0 -1 28.6 1.3
-6 0 1 30.2 1.3
-6 0 1 26.5 1.3
5 0 -1 441.36 12.3
5 0 -1 456.65 12.1
-5 0 1 438.16 12.3
-5 0 1 448.36 12.3
4 0 -1 33.9 1.1
4 0 -1 33.9 1.3
-4 0 1 33.5 1.3
-4 0 1 38 1.3
3 0 -1 215.48 6
-3 0 1 224.28 6
-3 0 1 213.08 6.1
2 0 -1 254.27 7.1
2 0 -1 260.37 7.1
-2 0 1 265.77 7.1
1 0 -1 76.79 2.1
1 0 -1 74.99 2.1
1 0 -1 74.99 2.1
-1 0 1 73.29 2.1
0 0 -1 29.1 0.9
0 0 -1 35.5 0.9
-1 0 -1 970.3 27.9
-1 0 -1 1080.49 28.1
1 0 1 1048.9 28
1 0 1 1039.3 27.9
-2 0 -1 57.09 1.7
-2 0 -1 56.09 1.7
2 0 1 55.79 1.6
2 0 1 55.19 1.7
-3 0 -1 116.19 3.3
-3 0 -1 112.89 3.3
3 0 1 114.99 3.2
3 0 1 115.29 3.3
-4 0 -1 17.3 0.9
-4 0 -1 15.9 0.9
4 0 1 16.2 0.9
4 0 1 16.9 0.6
-5 0 -1 -0.4 0.4
-5 0 -1 0.1 0.4
5 0 1 -0.3 0.4
-6 0 -1 337.27 9.5
-6 0 -1 340.27 9.5
6 0 1 337.07 9.5
-7 0 -1 719.03 19.4
-7 0 -1 699.33 19.5
7 0 1 704.93 19.4
-8 0 -1 82.89 2.9
-8 0 -1 81.89 2.9
8 0 1 81.39 2.9
-9 0 -1 127.39 4.1
-9 0 -1 126.99 4.1
9 0 1 116.99 4
-10 0 -1 97.99 3.6
-10 0 -1 104.59 3.6
10 0 1 99.59 3.5
-11 0 -1 3.6 1.1
-11 0 -1 1.9 1
11 0 1 2.5 1
-12 0 -1 16.2 1.7
12 0 1 16 1.7
-13 0 -1 0.1 1.1
13 0 1 1.7 1.2
13 -1 -1 9.4 1.6
-13 1 1 7.1 1.5
12 -1 -1 5 1.3
-12 1 1 6.2 1.3
11 -1 -1 2.4 1.1
-11 1 1 2.8 1.1
-11 1 1 3.6 1.1
10 -1 -1 21.3 1.6
-10 1 1 21.8 1.7
-10 1 1 20.9 1.6
9 -1 -1 211.38 6.6
-9 1 1 222.58 6.6
-9 1 1 222.98 6.7
8 -1 -1 34.7 1.6
-8 1 1 33.8 1.7
-8 1 1 33.2 1.7
7 -1 -1 -0.1 0.6
-7 1 1 1.2 0.6
-7 1 1 -0.4 0.6
6 -1 -1 263.87 7.5
-6 1 1 259.07 7.5
-6 1 1 264.57 7.5
5 -1 -1 123.19 3.6
5 -1 -1 120.29 3.7
-5 1 1 118.69 3.6
4 -1 -1 104.79 3.2
4 -1 -1 104.59 3.1
-4 1 1 101.19 3.1
3 -1 -1 2588.04 69.39
3 -1 -1 2610.14 69.39
-3 1 1 2554.84 69.89
2 -1 -1 0.2 0.4
2 -1 -1 0.9 0.3
-2 1 1 1.9 0.4
1 -1 -1 393.36 11.2
1 -1 -1 409.16 11.2
-1 1 1 438.56 11.2
-1 -1 -1 84.59 2.5
-1 -1 -1 89.59 2.5
1 1 1 93.49 2.5
1 1 1 90.69 2.5
-2 -1 -1 452.05 12.1
-2 -1 -1 434.26 12.1
2 1 1 453.65 12.1
2 1 1 449.95 12.1
-3 -1 -1 50.79 1.6
-3 -1 -1 51.29 1.7
3 1 1 53.39 1.6
3 1 1 52.39 1.6
-4 -1 -1 40.1 1.4
-4 -1 -1 40.3 1.4
4 1 1 39.8 1.3
4 1 1 39.8 1.4
-5 -1 -1 109.99 3.3
-5 -1 -1 110.19 3.4
5 1 1 110.29 3.4
5 1 1 113.49 3.2
-6 -1 -1 147.79 4.5
-6 -1 -1 146.89 4.4
6 1 1 152.48 4.2
6 1 1 149.69 4.4
-7 -1 -1 65.79 2.4
-7 -1 -1 62.89 2.3
7 1 1 65.19 2.3
-8 -1 -1 122.69 3.9
-8 -1 -1 120.79 4
8 1 1 123.69 3.9
-9 -1 -1 227.18 6.9
-9 -1 -1 231.68 6.8
9 1 1 226.98 6.8
-10 -1 -1 39 2
-10 -1 -1 36.9 2
10 1 1 38.9 2
-11 -1 -1 30.6 2
11 1 1 31 1.9
-12 -1 -1 4.8 1.3
12 1 1 6.6 1.3
-13 -1 -1 -0.2 1.2
13 1 1 0.8 1.3
13 -2 -1 -0.7 1.1
-13 2 1 -1.2 1
12 -2 -1 13.4 1.7
-12 2 1 13.8 1.8
-12 2 1 12 1.6
11 -2 -1 15.5 1.5
-11 2 1 17 1.7
-11 2 1 15.2 1.6
10 -2 -1 6 1
-10 2 1 5.7 1.1
-10 2 1 5.1 1.1
9 -2 -1 74.79 2.7
-9 2 1 74.99 2.8
-9 2 1 74.79 2.9
8 -2 -1 27.6 1.5
-8 2 1 30.7 1.7
-8 2 1 30.2 1.6
7 -2 -1 80.09 2.7
-7 2 1 81.59 2.8
-7 2 1 79.59 2.8
6 -2 -1 33.4 1.4
6 -2 -1 34.3 1.5
-6 2 1 34.2 1.6
5 -2 -1 14 0.9
5 -2 -1 12.9 0.8
-5 2 1 13.6 1
4 -2 -1 138.49 4.1
4 -2 -1 141.29 4
-4 2 1 138.99 4.1
3 -2 -1 294.67 8
3 -2 -1 286.17 8
-3 2 1 289.97 8.1
2 -2 -1 160.38 4.8
2 -2 -1 171.28 4.7
-2 2 1 175.68 4.6
-2 2 1 172.48 4.8
1 -2 -1 2266.37 63.79
1 -2 -1 2426.96 63.79
-1 2 1 2497.25 63.99
-1 2 1 2313.27 63.99
0 -2 -1 299.27 8.1
0 -2 -1 285.27 8.1
0 2 1 291.37 8.1
0 2 1 318.57 8.1
-1 -2 -1 188.48 5.4
-1 -2 -1 203.68 5.5
1 2 1 209.08 5.6
1 2 1 202.18 5.5
-2 -2 -1 479.85 12.9
-2 -2 -1 463.05 12.8
2 2 1 469.85 12.9
2 2 1 485.75 12.9
-3 -2 -1 4 0.6
-3 -2 -1 5.3 0.5
3 2 1 5.7 0.6
3 2 1 4.9 0.5
-4 -2 -1 375.96 10.5
-4 -2 -1 383.26 10.6
4 2 1 384.96 10.5
4 2 1 387.96 10.5
-5 -2 -1 75.59 2.5
-5 -2 -1 72.89 2.3
5 2 1 74.29 2.4
5 2 1 76.79 2.3
-6 -2 -1 249.68 7.2
-6 -2 -1 251.47 7.1
6 2 1 257.97 7
6 2 1 243.68 7.1
-7 -2 -1 6.1 0.9
-7 -2 -1 6 0.9
7 2 1 5.3 0.7
7 2 1 5.9 0.8
-8 -2 -1 98.09 3.4
-8 -2 -1 98.19 3.2
8 2 1 100.29 3.3
-9 -2 -1 35.5 1.7
-9 -2 -1 32.3 1.8
9 2 1 32.3 1.7
-10 -2 -1 18.1 1.6
10 2 1 20.3 1.6
-11 -2 -1 1.1 1.1
11 2 1 3.9 1.2
-12 -2 -1 19 1.9
12 2 1 18.6 1.8
-13 -2 -1 1.2 1.3
13 2 1 -0.2 1.4
13 -3 -1 1.2 1.2
-13 3 1 0.3 1.1
-13 3 1 1.4 1.3
12 -3 -1 54.39 2.7
-12 3 1 60.59 2.9
-12 3 1 55.99 2.7
11 -3 -1 51.09 2.4
-11 3 1 51.99 2.5
-11 3 1 55.79 2.7
10 -3 -1 11.4 1.3
-10 3 1 11.8 1.4
-10 3 1 8.6 1.3
9 -3 -1 -0.3 0.7
-9 3 1 0 0.8
-9 3 1 1.2 0.9
8 -3 -1 51.39 2.1
8 -3 -1 50.99 2.2
-8 3 1 53.29 2.3
7 -3 -1 45.6 1.9
7 -3 -1 45.9 1.8
-7 3 1 43.9 2
6 -3 -1 41.5 1.6
6 -3 -1 36.1 1.6
-6 3 1 39 1.7
5 -3 -1 163.48 4.7
5 -3 -1 156.58 4.7
-5 3 1 162.18 4.8
4 -3 -1 1005.3 26.8
4 -3 -1 985.8 26.8
-4 3 1 981.6 26.9
3 -3 -1 515.05 14.1
3 -3 -1 505.55 14.2
-3 3 1 543.45 14.1
-3 3 1 517.85 14.3
2 -3 -1 179.78 5
2 -3 -1 170.28 5
-2 3 1 187.78 5
-2 3 1 178.58 5.1
1 -3 -1 4006.2 107.09
1 -3 -1 3962.9 107.29
-1 3 1 4120.59 107.39
-1 3 1 3871.51 107.29
0 -3 -1 1384.66 36.5
0 -3 -1 1331.47 36.6
0 3 1 1401.76 36.6
0 3 1 1324.47 36.5
-1 -3 -1 470.65 12.6
-1 -3 -1 461.15 12.7
1 3 1 473.75 12.7
1 3 1 469.45 12.8
-2 -3 -1 90.09 2.6
-2 -3 -1 81.59 2.4
2 3 1 88.79 2.6
2 3 1 86.19 2.5
-3 -3 -1 197.98 5.5
-3 -3 -1 189.38 5.3
3 3 1 192.98 5.5
3 3 1 198.18 5.5
-4 -3 -1 1471.85 40.1
-4 -3 -1 1496.85 40.3
4 3 1 1484.65 40.2
4 3 1 1519.85 40.3
-5 -3 -1 9.5 0.9
-5 -3 -1 10.2 0.7
5 3 1 10.5 0.8
5 3 1 10.9 0.7
-6 -3 -1 426.86 11.9
-6 -3 -1 425.66 12.2
6 3 1 432.16 12.1
6 3 1 450.45 12
-7 -3 -1 132.69 3.9
-7 -3 -1 128.89 4.2
7 3 1 138.19 4
7 3 1 127.09 4.1
-8 -3 -1 36.2 1.8
8 3 1 32.9 1.7
-9 -3 -1 41.6 2.1
9 3 1 44.1 2.1
-10 -3 -1 99.09 3.7
10 3 1 98.89 3.6
-11 -3 -1 55.79 2.8
11 3 1 58.19 2.7
-12 -3 -1 0.3 1.2
12 3 1 -1.5 1.2
13 -4 -1 72.39 3.2
-13 4 1 81.89 3.7
-13 4 1 74.99 3.3
12 -4 -1 34.6 2.1
-12 4 1 34.6 2.2
-12 4 1 37.5 2.5
11 -4 -1 1.7 1
-11 4 1 2.3 1
-11 4 1 3.3 1.3
10 -4 -1 89.89 3.3
-10 4 1 95.89 3.7
-10 4 1 95.29 3.4
9 -4 -1 12.9 1.2
-9 4 1 13.6 1.6
8 -4 -1 173.08 5.2
8 -4 -1 166.88 5.3
-8 4 1 172.98 5.4
7 -4 -1 13.1 1
7 -4 -1 12.7 1.1
-7 4 1 12.3 1.3
6 -4 -1 1.2 0.6
6 -4 -1 1.4 0.6
-6 4 1 1.7 0.8
5 -4 -1 76.09 2.4
5 -4 -1 75.49 2.5
-5 4 1 75.09 2.6
4 -4 -1 248.28 7.2
4 -4 -1 253.27 7.1
-4 4 1 254.67 7.3
-4 4 1 265.97 7
3 -4 -1 6.8 0.7
3 -4 -1 7.3 0.6
-3 4 1 8 0.8
-3 4 1 6.6 0.6
2 -4 -1 5.8 0.5
2 -4 -1 5.5 0.6
-2 4 1 6.7 0.7
-2 4 1 5.5 0.6
1 -4 -1 86.29 2.5
1 -4 -1 86.79 2.6
-1 4 1 87.49 2.6
-1 4 1 90.49 2.7
0 -4 -1 214.18 6.2
0 -4 -1 223.58 6.1
0 4 1 224.18 6.2
0 4 1 218.58 6.1
-1 -4 -1 92.79 2.9
1 4 1 100.59 2.8
1 4 1 95.49 2.7
1 4 1 99.99 3
-2 -4 -1 159.48 4.6
2 4 1 158.68 4.4
2 4 1 152.68 4.6
-3 -4 -1 161.18 4.7
3 4 1 159.88 4.7
-4 -4 -1 2.7 0.4
-4 -4 -1 2.9 0.6
4 4 1 3.8 0.6
4 4 1 2.2 0.5
-5 -4 -1 138.99 4
-5 -4 -1 141.89 4.3
5 4 1 144.49 4.3
5 4 1 142.39 4.2
-6 -4 -1 106.29 3.5
-6 -4 -1 105.39 3.2
6 4 1 110.49 3.4
6 4 1 108.29 3.4
-7 -4 -1 61.59 2.4
7 4 1 60.49 2.3
7 4 1 63.49 2.3
-8 -4 -1 182.78 5.7
8 4 1 180.18 5.6
-9 -4 -1 19 1.6
9 4 1 20.9 1.6
-10 -4 -1 16.9 1.8
10 4 1 18.5 1.6
-11 -4 -1 2.9 1.3
11 4 1 3.7 1.3
-12 -4 -1 1.9 1.4
12 4 1 2.3 1.4
13 -5 -1 24.4 2.1
-13 5 1 27.5 2.2
12 -5 -1 4.8 1.1
-12 5 1 6.5 1.7
-12 5 1 5.7 1.3
11 -5 -1 25.8 1.8
-11 5 1 26.8 1.9
-11 5 1 29.2 2.3
10 -5 -1 22 1.5
-10 5 1 19.6 1.9
9 -5 -1 10.7 1.2
9 -5 -1 13.1 1.3
-9 5 1 9.9 1.4
8 -5 -1 34.4 1.7
8 -5 -1 34.1 1.6
-8 5 1 32.6 2
7 -5 -1 7.4 0.9
7 -5 -1 7.4 0.9
-7 5 1 4.5 1.1
6 -5 -1 109.49 3.5
6 -5 -1 111.49 3.4
-6 5 1 108.39 3.7
5 -5 -1 71.69 2.3
5 -5 -1 70.99 2.4
-5 5 1 73.89 2.2
-5 5 1 71.49 2.6
4 -5 -1 4.4 0.6
4 -5 -1 3.5 0.5
-4 5 1 4.3 0.7
-4 5 1 4.3 0.6
3 -5 -1 183.48 5.2
3 -5 -1 179.68 5.3
-3 5 1 182.28 5.4
-3 5 1 189.18 5.2
2 -5 -1 252.37 7
2 -5 -1 248.68 7.1
-2 5 1 257.97 7.1
-2 5 1 252.27 7.1
1 -5 -1 83.89 2.7
1 -5 -1 85.79 2.5
-1 5 1 86.69 2.7
-1 5 1 89.59 2.6
0 -5 -1 378.46 10.7
0 -5 -1 387.36 10.5
0 5 1 387.16 10.6
0 5 1 395.16 10.8
-1 -5 -1 1.7 0.4
-1 -5 -1 0.2 0.5
1 5 1 1.7 0.5
-2 -5 -1 110.59 3.5
2 5 1 118.49 3.4
2 5 1 113.69 3.5
-3 -5 -1 8.1 0.9
3 5 1 9.1 0.7
3 5 1 9.8 0.9
-4 -5 -1 20.6 1.2
4 5 1 22.2 1.1
4 5 1 21.5 1.2
-5 -5 -1 90.39 3.1
5 5 1 90.19 3
-6 -5 -1 112.19 3.7
6 5 1 112.99 3.6
6 5 1 111.39 3.6
-7 -5 -1 6.3 1.1
7 5 1 4.3 0.9
7 5 1 5.8 0.9
-8 -5 -1 24.7 1.8
8 5 1 26.5 1.6
-9 -5 -1 55.09 2.6
9 5 1 56.59 2.4
-10 -5 -1 11 1.6
10 5 1 10 1.4
-11 -5 -1 27.1 2.3
11 5 1 25 2.1
-12 -5 -1 85.89 3.9
12 -6 -1 3 1
-12 6 1 1.4 1.6
-12 6 1 1.5 1.1
11 -6 -1 86.89 3.4
-11 6 1 96.19 3.6
-11 6 1 95.19 4
10 -6 -1 0.2 0.9
10 -6 -1 0.5 0.9
-10 6 1 0.3 1.1
9 -6 -1 9.3 1.1
9 -6 -1 7.9 1.1
-9 6 1 8.5 1.4
8 -6 -1 101.49 3.4
8 -6 -1 105.79 3.5
-8 6 1 101.69 3.8
7 -6 -1 70.99 2.6
7 -6 -1 71.89 2.5
-7 6 1 66.39 2.8
6 -6 -1 3.6 0.6
6 -6 -1 4.3 0.8
-6 6 1 5.3 1
5 -6 -1 261.37 7.5
5 -6 -1 251.57 7.3
-5 6 1 265.17 7.3
-5 6 1 258.17 7.6
4 -6 -1 51.99 2
4 -6 -1 53.09 1.8
-4 6 1 51.19 2.1
-4 6 1 55.79 1.9
3 -6 -1 46.4 1.7
3 -6 -1 44.6 1.6
-3 6 1 47.5 1.7
-3 6 1 46.4 1.8
2 -6 -1 540.25 14.9
2 -6 -1 540.75 15.1
-2 6 1 548.65 15.1
-2 6 1 564.24 15.1
1 -6 -1 71.29 2.4
1 -6 -1 70.49 2.2
-1 6 1 74.49 2.3
-1 6 1 73.59 2.5
0 -6 -1 89.99 2.9
0 -6 -1 95.29 2.8
0 6 1 99.99 2.8
0 6 1 93.39 3.1
-1 -6 -1 163.48 4.7
-1 -6 -1 157.88 4.8
1 6 1 160.78 5
1 6 1 173.78 4.6
-2 -6 -1 83.49 2.8
2 6 1 86.39 2.9
2 6 1 88.59 2.7
-3 -6 -1 355.96 10.1
3 6 1 360.76 10
3 6 1 358.46 10.2
-4 -6 -1 51.59 2.1
4 6 1 54.49 1.9
4 6 1 52.09 2.1
-5 -6 -1 27.6 1.6
5 6 1 24.9 1.5
5 6 1 27.4 1.4
-6 -6 -1 324.87 9.5
6 6 1 324.47 9.4
6 6 1 328.37 9.3
-7 -6 -1 359.46 10.6
7 6 1 361.96 10.4
7 6 1 372.86 10.5
-8 -6 -1 13 1.6
8 6 1 16 1.4
8 6 1 20 2.3
-9 -6 -1 18 1.8
9 6 1 17 1.5
-10 -6 -1 -1.2 1.2
10 6 1 0 1
-11 -6 -1 -1.3 1.4
11 6 1 -0.2 1.2
12 -7 -1 2.6 1.1
-12 7 1 0.8 1.1
-12 7 1 2.6 1.7
11 -7 -1 2 0.9
11 -7 -1 2.1 1.1
-11 7 1 2.3 1.5
10 -7 -1 12.4 1.3
10 -7 -1 12 1.5
-10 7 1 10.7 1.7
9 -7 -1 48.7 2.2
9 -7 -1 45.6 2
-9 7 1 42.1 2.5
8 -7 -1 16.2 1.4
8 -7 -1 17.8 1.2
-8 7 1 17.9 1.8
7 -7 -1 10.2 1
7 -7 -1 11.8 1.2
-7 7 1 12.4 1.5
6 -7 -1 0.5 0.7
6 -7 -1 1.9 0.6
-6 7 1 1.9 1
5 -7 -1 26.9 1.4
5 -7 -1 25.5 1.2
-5 7 1 24.4 1.6
-5 7 1 27.3 1.3
4 -7 -1 23.1 1.1
4 -7 -1 23 1.3
-4 7 1 22.9 1.2
-4 7 1 22 1.4
3 -7 -1 83.09 2.7
3 -7 -1 87.09 2.9
-3 7 1 85.39 2.9
-3 7 1 88.59 2.9
2 -7 -1 145.89 4.2
2 -7 -1 147.49 4.4
-2 7 1 148.19 4.4
-2 7 1 144.29 4.5
1 -7 -1 117.39 3.4
1 -7 -1 112.19 3.6
-1 7 1 114.29 3.7
-1 7 1 115.29 3.5
0 -7 -1 7.8 0.8
0 -7 -1 7.4 0.6
0 7 1 8.4 0.7
0 7 1 8.1 1
-1 -7 -1 109.89 3.2
-1 -7 -1 105.19 3.4
1 7 1 112.69 3.2
1 7 1 105.79 3.6
-2 -7 -1 222.78 6.1
-2 -7 -1 211.18 6.3
2 7 1 209.98 6.4
-3 -7 -1 1 0.7
3 7 1 1.7 0.6
3 7 1 0.9 0.7
-4 -7 -1 1.1 0.8
4 7 1 -0.1 0.6
4 7 1 1.3 0.7
-5 -7 -1 1.4 0.9
5 7 1 1 0.7
5 7 1 0.9 0.8
-6 -7 -1 4.6 1.1
6 7 1 2.2 0.9
6 7 1 3.1 0.9
-7 -7 -1 22.5 1.8
7 7 1 24.8 1.6
7 7 1 27.7 1.7
-8 -7 -1 -1.8 1
8 7 1 0 0.9
8 7 1 -1.1 1
-9 -7 -1 1.5 1.3
9 7 1 2.3 1.1
-10 -7 -1 4.1 1.5
10 7 1 5.6 1.4
-11 -7 -1 6.8 1.7
11 7 1 7 1.6
-12 8 1 3.3 1.2
11 -8 -1 -1.5 1.1
11 -8 -1 2.8 1
-11 8 1 1.3 1.5
10 -8 -1 27.7 1.9
10 -8 -1 23.5 1.6
-10 8 1 22.1 2.3
9 -8 -1 65.89 2.8
9 -8 -1 63.19 2.5
-9 8 1 65.29 3.1
8 -8 -1 30.9 1.8
8 -8 -1 31.4 1.6
-8 8 1 27 2.1
7 -8 -1 194.68 5.9
7 -8 -1 182.88 5.6
-7 8 1 190.98 6.1
6 -8 -1 13.3 1.3
6 -8 -1 14.6 1.1
-6 8 1 14.9 1.5
5 -8 -1 29.7 1.6
5 -8 -1 28.4 1.4
-5 8 1 29.9 1.8
-5 8 1 31.2 1.5
4 -8 -1 105.89 3.5
4 -8 -1 103.69 3.3
-4 8 1 105.59 3.6
-4 8 1 108.49 3.5
3 -8 -1 4.3 0.6
3 -8 -1 3.5 0.8
-3 8 1 3 0.9
-3 8 1 3.9 0.8
2 -8 -1 73.29 2.4
2 -8 -1 75.39 2.6
-2 8 1 77.39 2.7
-2 8 1 74.89 2.6
1 -8 -1 1.6 0.6
1 -8 -1 0.8 0.6
-1 8 1 1.9 0.7
-1 8 1 2.6 0.7
0 -8 -1 183.88 5.2
0 -8 -1 179.18 5.4
0 8 1 188.28 5.3
0 8 1 180.28 5.6
-1 -8 -1 0.7 0.7
-1 -8 -1 0.6 0.5
1 8 1 0.5 0.7
-2 -8 -1 10.4 0.8
-2 -8 -1 9.6 1.1
2 8 1 11.3 1.2
-3 -8 -1 -0.6 0.5
-3 -8 -1 0.9 0.8
3 8 1 -0.5 0.7
-4 -8 -1 82.69 3
4 8 1 76.69 3.1
4 8 1 82.19 2.8
-5 -8 -1 315.57 9.2
5 8 1 327.07 9.1
5 8 1 304.07 9.3
-6 -8 -1 16.1 1.6
6 8 1 16.4 1.3
6 8 1 16.9 1.6
-7 -8 -1 110.89 4
7 8 1 111.39 3.8
7 8 1 104.99 3.9
-8 -8 -1 236.58 7.4
8 8 1 233.08 7.4
8 8 1 236.88 7.2
-9 -8 -1 233.88 7.5
9 8 1 233.28 7.3
-10 -8 -1 13 1.9
10 8 1 16.3 1.9
11 -9 -1 2.7 1.3
-11 9 1 3.2 1.7
10 -9 -1 1.5 1.1
-10 9 1 0.8 1.3
9 -9 -1 10.2 1.3
9 -9 -1 7.6 1.1
-9 9 1 3.3 1.4
8 -9 -1 28.6 1.8
8 -9 -1 23.8 1.4
-8 9 1 21 2.1
7 -9 -1 25.2 1.4
7 -9 -1 26.8 1.7
-7 9 1 26.9 2.1
6 -9 -1 0.2 0.6
6 -9 -1 -0.4 0.8
-6 9 1 -0.2 1
5 -9 -1 174.08 5.4
5 -9 -1 173.98 5.2
-5 9 1 179.98 5.7
-5 9 1 171.98 5.6
4 -9 -1 1 0.7
4 -9 -1 0.8 0.6
-4 9 1 1.7 0.8
-4 9 1 2 1
3 -9 -1 204.88 6
3 -9 -1 209.98 6.2
-3 9 1 203.58 6.3
-3 9 1 211.38 6.2
2 -9 -1 4.8 0.7
2 -9 -1 4.4 0.8
-2 9 1 4.5 0.9
-2 9 1 4.5 0.9
1 -9 -1 201.98 5.9
1 -9 -1 197.18 6.1
-1 9 1 211.28 6
-1 9 1 205.38 6.3
0 -9 -1 690.43 18.3
0 -9 -1 653.53 18.5
0 9 1 665.73 18.8
-1 -9 -1 6.1 0.7
-1 -9 -1 6.4 0.9
1 9 1 6.1 1
-2 -9 -1 15.1 1
-2 -9 -1 13.6 1.3
2 9 1 11.6 1.4
-3 -9 -1 42.4 2
-3 -9 -1 44.8 1.7
3 9 1 40.8 2.2
-4 -9 -1 9.3 1
-4 -9 -1 9.6 1.4
4 9 1 9.5 1.4
-5 -9 -1 140.79 4.7
5 9 1 143.49 4.5
5 9 1 136.29 4.8
-6 -9 -1 35.8 2.2
6 9 1 37.9 2.2
6 9 1 39.6 1.9
-7 -9 -1 53.09 2.6
7 9 1 48.2 2.5
7 9 1 49.4 2.3
-8 -9 -1 0.1 1.3
8 9 1 1.9 1.2
8 9 1 -0.4 1
-9 -9 -1 1.7 1.5
9 9 1 5 1.4
-10 -9 -1 1.2 1.7
10 9 1 -0.1 1.4
10 -10 -1 -1.2 1.2
-10 10 1 -0.1 1.5
9 -10 -1 36.8 2.2
-9 10 1 35.2 2.6
8 -10 -1 39.8 2.2
-8 10 1 39.1 2.6
7 -10 -1 6.1 1.1
-7 10 1 4 1.3
6 -10 -1 2.3 0.9
6 -10 -1 3 0.7
-6 10 1 -0.3 1.2
5 -10 -1 47.6 2.2
5 -10 -1 46.5 1.9
-5 10 1 55.79 2.5
4 -10 -1 0.6 0.7
4 -10 -1 -1 0.6
-4 10 1 0.8 0.8
-4 10 1 -0.7 1
3 -10 -1 41.9 1.7
3 -10 -1 40.7 1.9
-3 10 1 44.8 2.1
-3 10 1 43.1 2.1
2 -10 -1 143.39 4.3
2 -10 -1 140.19 4.6
-2 10 1 144.39 4.8
-2 10 1 145.09 4.5
1 -10 -1 53.79 2.2
1 -10 -1 56.99 2
-1 10 1 52.49 2.4
0 -10 -1 0.4 0.6
0 -10 -1 0.8 0.8
0 10 1 -0.2 0.9
-1 -10 -1 1.6 0.6
-1 -10 -1 2.5 0.8
1 10 1 0.1 0.9
-2 -10 -1 14.7 1.3
-2 -10 -1 15.9 1.1
2 10 1 14.5 1.5
-3 -10 -1 10.7 1
-3 -10 -1 12.1 1.3
3 10 1 10.6 1.5
-4 -10 -1 2 0.9
-4 -10 -1 3 0.8
4 10 1 1.4 1.1
-5 -10 -1 39.1 1.8
-5 -10 -1 42.2 2.2
5 10 1 34.6 2.3
-6 -10 -1 9.1 1.4
-6 -10 -1 8.4 1.1
6 10 1 5.4 1.3
-7 -10 -1 3.3 1.3
7 10 1 4.3 1.3
7 10 1 4.4 1.1
-8 -10 -1 8.5 1.7
8 10 1 5.3 1.4
8 10 1 4.1 1.2
-9 -10 -1 18.3 2.4
9 10 1 21.2 2
-9 11 1 34.9 2.7
8 -11 -1 16.4 1.7
-8 11 1 16 2.1
7 -11 -1 52.09 2.5
-7 11 1 51.19 2.9
6 -11 -1 1.2 1
-6 11 1 0.4 1.1
5 -11 -1 63.49 2.7
-5 11 1 64.69 2.9
4 -11 -1 19.6 1.5
-4 11 1 24.4 1.9
-4 11 1 21.2 1.7
3 -11 -1 114.49 3.9
-3 11 1 115.29 4.2
-3 11 1 118.79 4
2 -11 -1 96.09 3.4
2 -11 -1 97.39 3.1
-2 11 1 92.59 3.6
1 -11 -1 29.2 1.4
1 -11 -1 25.3 1.7
-1 11 1 26.2 1.9
0 -11 -1 273.37 8
0 -11 -1 275.57 7.7
0 11 1 259.97 8.3
-1 -11 -1 178.18 5.2
-1 -11 -1 180.18 5.5
1 11 1 165.78 5.8
-2 -11 -1 130.29 4
-2 -11 -1 131.89 4.3
2 11 1 119.19 4.6
-3 -11 -1 1.4 0.9
-3 -11 -1 0.4 0.7
3 11 1 0.6 1.1
-4 -11 -1 184.38 5.4
-4 -11 -1 184.48 5.7
4 11 1 160.38 6
-5 -11 -1 73.79 2.7
-5 -11 -1 73.69 3.1
5 11 1 65.69 3.2
-6 -11 -1 17.7 1.8
-6 -11 -1 19 1.4
6 11 1 22.2 2.1
-7 -11 -1 33.5 1.9
-7 -11 -1 31.9 2.5
7 11 1 28.8 2.4
-8 -11 -1 9.8 1.8
-8 -11 -1 9.1 1.2
8 11 1 7.9 1.6
-9 -11 -1 29.6 2.4
-9 12 1 22.6 2.6
-8 12 1 9 1.7
7 -12 -1 41.6 2.3
-7 12 1 37.7 2.6
6 -12 -1 14.6 1.6
-6 12 1 9.8 1.6
5 -12 -1 10.7 1.4
-5 12 1 8.4 1.5
4 -12 -1 85.19 3.2
-4 12 1 84.69 3.5
3 -12 -1 18.8 1.6
-3 12 1 21.6 1.9
2 -12 -1 225.28 6.7
-2 12 1 210.28 7
1 -12 -1 3.5 1
-1 12 1 4.6 1.2
0 -12 -1 43.4 2.1
0 12 1 41.1 2.4
-1 -12 -1 10.3 1.4
1 12 1 5.2 1.3
-2 -12 -1 26.1 1.7
-3 -12 -1 36.9 2.4
-3 -12 -1 27.4 1.8
3 12 1 22.9 2.1
-4 -12 -1 114.79 4.2
-4 -12 -1 121.89 4
4 12 1 114.09 4.6
-5 -12 -1 0.3 0.8
-5 -12 -1 0.9 1.1
5 12 1 1.3 1.3
-6 -12 -1 30.8 1.8
-6 -12 -1 31.6 2.3
6 12 1 33.1 2.5
-7 -12 -1 14.3 1.6
-7 -12 -1 14.4 2
7 12 1 14.9 2.1
8 12 1 1.4 1.6
-8 13 1 34.2 2.8
-7 13 1 75.49 3.7
5 -13 -1 11.4 1.6
4 -13 -1 43.3 2.2
-4 13 1 40.3 2.6
3 -13 -1 2.5 1.1
-3 13 1 4 1.4
2 -13 -1 292.07 8.6
-2 13 1 277.87 9
1 -13 -1 18.1 1.6
-1 13 1 17 2
0 -13 -1 5.9 1.1
0 13 1 3.2 1.3
-1 -13 -1 6.2 1.2
1 13 1 3.6 1.5
-2 -13 -1 3.6 1.1
2 13 1 -0.2 1.3
-3 -13 -1 17.5 1.7
3 13 1 16.9 2.1
-4 -13 -1 13 1.7
4 13 1 9.9 1.8
-5 -13 -1 2.2 1.3
5 13 1 0.7 1.4
-6 -13 -1 18.1 2.1
6 13 1 13 2
4 -14 -1 0.9 1.1
3 -14 -1 5.9 1.2
-3 14 1 6.4 1.7
2 -14 -1 118.89 4.2
-2 14 1 109.99 4.6
1 -14 -1 2 1.1
-1 14 1 2.4 1.6
0 -14 -1 4.3 1.1
0 14 1 3.4 1.6
-1 -14 -1 2.8 1.1
1 14 1 4.6 1.7
-2 -14 -1 60.89 2.8
2 14 1 54.79 3.4
-3 -14 -1 25 2
3 14 1 18.6 2.5
-4 -14 -1 13 1.8
4 14 1 9.1 1.9
-3 15 1 1.4 1.6
2 -15 -1 2.9 1.4
-2 15 1 5.4 1.8
1 -15 -1 0.9 1.1
-1 15 1 3.2 1.8
0 -15 -1 42.6 2.4
0 15 1 38 3
-1 -15 -1 1.3 1.2
1 15 1 -0.3 2.2
-2 -15 -1 80.29 3.4
-1 14 -2 9.8 2
-2 14 -2 20.7 2.6
-3 14 -2 52.19 3.3
-4 -13 2 26 1.8
-4 -13 2 29.8 2.1
3 13 -2 7.4 2.1
-3 -13 2 8.2 1.2
-3 -13 2 11 2.1
2 13 -2 9 2
-2 -13 2 8.2 1.2
1 13 -2 9.8 2
-1 -13 2 10.8 1.3
0 13 -2 2.5 1.7
0 -13 2 1.4 1
-1 13 -2 2.7 1.8
-2 13 -2 3.3 1.5
-3 13 -2 15.8 2.2
-4 13 -2 -0.4 1.3
5 12 -2 33.9 2.7
-5 -12 2 37.6 2.4
-5 -12 2 34.4 2
4 12 -2 1.4 1.5
-4 -12 2 0.7 0.9
-4 -12 2 2 1.1
3 12 -2 22.4 2.4
-3 -12 2 26.6 1.9
-3 -12 2 25.1 1.6
2 12 -2 0.3 1.4
-2 -12 2 0.2 0.8
-2 -12 2 2.4 1
1 12 -2 112.99 4.8
-1 -12 2 125.79 4.2
-1 -12 2 121.09 4
0 12 -2 21.1 2.2
0 -12 2 22.7 2.6
0 -12 2 21.3 1.5
-1 12 -2 106.69 4.4
1 -12 2 111.89 3.7
-2 12 -2 44.3 2.7
2 -12 2 43.6 2.1
-3 12 -2 17.6 2
3 -12 2 17.5 1.4
-4 12 -2 13.9 1.9
4 -12 2 11.7 1.4
5 -12 2 21.9 1.6
-8 12 -2 1.7 1.5
7 11 -2 1.5 1.4
-7 -11 2 2.5 1.4
6 11 -2 4.6 1.7
-6 -11 2 1.9 0.9
-6 -11 2 5.3 1.5
5 11 -2 8.5 1.7
-5 -11 2 6 1.3
-5 -11 2 5.6 1.1
4 11 -2 18.4 2.1
-4 -11 2 22 1.6
-4 -11 2 21.6 1.8
3 11 -2 23.1 2.2
-3 -11 2 27.1 1.6
-3 -11 2 26.7 1.8
2 11 -2 41.7 2.6
-2 -11 2 46.1 2.1
-2 -11 2 41.8 2
1 11 -2 39 2.5
-1 -11 2 43.9 2
-1 -11 2 40.9 1.9
0 11 -2 44.5 2.7
0 -11 2 53.69 2.3
0 -11 2 51.39 2.1
-1 11 -2 15.6 1.8
1 -11 2 14 1.3
1 -11 2 14.3 1.3
-2 11 -2 11.7 1.8
2 -11 2 10 1.2
2 -11 2 9 1.6
-3 11 -2 24.1 2.1
3 -11 2 25.6 1.6
-4 11 -2 72.39 3.2
4 -11 2 72.09 2.8
-5 11 -2 102.19 5.2
5 -11 2 102.09 3.6
-6 11 -2 21.3 2.1
6 -11 2 20.2 1.5
-7 11 -2 0.4 1.4
7 -11 2 -1.3 0.8
-8 11 -2 4.4 1.6
8 -11 2 5.7 1.1
-9 11 -2 1.8 1.5
-7 -10 2 45.5 2.3
-7 -10 2 46.4 2.8
6 10 -2 6.6 1.6
-6 -10 2 8.5 1.2
-6 -10 2 7.4 1.5
5 10 -2 0.1 1.2
-5 -10 2 -1 1.1
-5 -10 2 0.1 0.8
4 10 -2 9.5 1.6
-4 -10 2 7.5 1.2
-4 -10 2 8.5 1.1
3 10 -2 49.99 2.7
-3 -10 2 47.8 2.3
-3 -10 2 52.19 2.2
2 10 -2 0.1 1.1
-2 -10 2 0.1 0.7
-2 -10 2 0.5 0.9
1 10 -2 0.9 1.1
-1 -10 2 2.2 0.8
-1 -10 2 0.2 0.7
0 10 -2 27.1 2
0 -10 2 28.3 1.6
0 -10 2 32.3 1.6
-1 10 -2 -0.5 1
1 -10 2 0.5 0.7
1 -10 2 0.2 0.7
-2 10 -2 2 1.2
2 -10 2 1.8 0.7
2 -10 2 2.7 0.9
-3 10 -2 57.49 2.7
3 -10 2 56.59 2.3
3 -10 2 58.79 2.3
-4 10 -2 42.1 2.3
-4 10 -2 45.7 2.2
4 -10 2 48.5 2
-5 10 -2 26.1 1.9
-5 10 -2 23.7 1.8
5 -10 2 24.3 1.6
-6 10 -2 153.78 5.3
-7 10 -2 3 1.4
7 -10 2 -0.5 0.8
-8 10 -2 20.3 2.2
8 -10 2 22.3 1.6
-9 10 -2 9.5 1.7
9 -10 2 5.8 1.1
-10 10 -2 3.8 1.7
10 -10 2 3.2 1.1
-8 -9 2 23.2 1.8
-8 -9 2 22.3 2.4
7 9 -2 19.2 2
-7 -9 2 22.2 1.7
-7 -9 2 21.9 2.2
6 9 -2 -1.6 1.1
-6 -9 2 -0.1 0.8
-6 -9 2 -0.5 1.2
5 9 -2 27.9 2.1
-5 -9 2 33 1.7
-5 -9 2 31.8 2
4 9 -2 6.8 1.4
-4 -9 2 7.6 1
-4 -9 2 7.8 1.2
3 9 -2 20.3 1.8
-3 -9 2 20.9 1.5
-3 -9 2 19.4 1.3
2 9 -2 69.79 3.1
-2 -9 2 79.19 2.7
-2 -9 2 79.09 2.8
1 9 -2 61.49 2.8
-1 -9 2 59.99 2.3
-1 -9 2 66.09 2.4
0 9 -2 78.39 3.2
0 -9 2 77.69 2.7
0 -9 2 82.89 2.8
-1 9 -2 253.57 8.1
1 -9 2 267.87 7.7
1 -9 2 276.47 7.7
-2 9 -2 6.6 1.2
2 -9 2 4.2 0.9
2 -9 2 5.7 0.9
-3 9 -2 13.6 1.4
-3 9 -2 12.7 1.5
3 -9 2 13.6 1.1
3 -9 2 13.8 1.2
-4 9 -2 43.2 2.2
-4 9 -2 43.1 2.2
4 -9 2 45.6 1.9
4 -9 2 42.8 1.9
-5 9 -2 10.3 1.5
-5 9 -2 10.8 1.3
5 -9 2 9.6 1.1
5 -9 2 9.5 1.1
-6 9 -2 33.2 2.1
6 -9 2 30.2 1.7
-7 9 -2 28 2.1
7 -9 2 29.4 1.7
-8 9 -2 19.1 2.1
8 -9 2 19.1 1.5
-9 9 -2 221.48 7.2
9 -9 2 214.88 6.7
-10 9 -2 55.79 3.1
10 -9 2 50.99 2.4
11 -9 2 39.8 2.2
-9 -8 2 17.4 2.4
8 8 -2 47.5 2.6
-8 -8 2 49.3 2.9
7 8 -2 44.1 2.5
7 8 -2 42 2.3
-7 -8 2 42.6 2.6
6 8 -2 34.7 2.2
-6 -8 2 35.1 2.1
5 8 -2 9.9 1.4
-5 -8 2 9.1 1.3
-5 -8 2 10 1.2
4 8 -2 9.4 1.4
-4 -8 2 9 1.1
-4 -8 2 9.7 1.3
3 8 -2 -0.3 0.9
-3 -8 2 0.4 0.7
-3 -8 2 1.3 0.9
2 8 -2 6.4 1.1
-2 -8 2 6.7 0.9
-2 -8 2 6.3 0.9
1 8 -2 1.8 0.9
-1 -8 2 1.2 0.6
-1 -8 2 1.1 0.7
0 8 -2 2.4 0.9
0 -8 2 1.2 0.6
0 -8 2 0.6 0.6
-1 8 -2 10.4 1.3
1 -8 2 11.2 1
1 -8 2 9.9 1
-2 8 -2 386.56 10.8
-2 8 -2 384.36 11.1
2 -8 2 369.16 10.8
2 -8 2 395.36 10.8
-3 8 -2 226.18 6.8
-3 8 -2 222.48 6.6
3 -8 2 214.78 6.5
3 -8 2 221.28 6.5
-4 8 -2 73.09 2.8
-4 8 -2 73.89 2.8
4 -8 2 71.59 2.6
4 -8 2 74.49 2.6
-5 8 -2 0.7 0.8
-5 8 -2 -0.2 0.9
5 -8 2 0.4 0.7
5 -8 2 2.6 0.8
-6 8 -2 13 1.5
6 -8 2 12.2 1.2
6 -8 2 11.6 1.2
-7 8 -2 12.3 1.7
7 -8 2 14.1 1.3
-8 8 -2 387.26 11.5
8 -8 2 392.16 11.2
-9 8 -2 15.8 2
9 -8 2 18.1 1.5
-10 8 -2 -0.8 1.3
10 -8 2 0.9 0.9
-11 8 -2 5.1 1.7
11 -8 2 10.7 1.4
12 -8 2 27.6 2.1
10 7 -2 39.9 2.6
-10 -7 2 36.2 2.9
9 7 -2 3 1.4
-9 -7 2 1.2 1.5
8 7 -2 3.5 1.2
-8 -7 2 5.7 1.5
7 7 -2 15.1 1.5
7 7 -2 19.7 1.7
-7 -7 2 15.4 1.8
6 7 -2 8.7 1.3
6 7 -2 6.4 1.1
-6 -7 2 7.2 1.3
5 7 -2 152.38 5.1
5 7 -2 154.48 4.9
-5 -7 2 157.68 5
4 7 -2 3.5 1
-4 -7 2 2.1 0.9
-4 -7 2 4.2 0.8
3 7 -2 0.1 0.8
-3 -7 2 0.5 0.8
-3 -7 2 -0.2 0.6
2 7 -2 0.6 0.8
-2 -7 2 0.3 0.6
-2 -7 2 0.9 0.8
1 7 -2 702.83 20.2
-1 -7 2 731.63 19.9
-1 -7 2 745.53 20
0 7 -2 117.79 4
0 -7 2 121.39 3.7
0 -7 2 113.99 3.6
-1 7 -2 37.2 1.5
-1 7 -2 39.1 1.9
1 -7 2 40.1 1.6
1 -7 2 37.3 1.6
-2 7 -2 403.76 11.5
-2 7 -2 409.66 11.3
2 -7 2 390.46 11.3
2 -7 2 418.36 11.3
-3 7 -2 11.3 1.2
-3 7 -2 9.3 1.1
3 -7 2 9.6 0.9
3 -7 2 9.7 0.9
-4 7 -2 0.6 0.8
-4 7 -2 0.2 0.7
4 -7 2 1.3 0.6
4 -7 2 1.8 0.7
-5 7 -2 10 1.3
-5 7 -2 11.4 1.1
5 -7 2 10.4 1
5 -7 2 8.8 1
-6 7 -2 51.19 2.4
6 -7 2 55.69 2.1
6 -7 2 54.99 2.1
-7 7 -2 41.1 2.2
7 -7 2 37.4 1.7
7 -7 2 37.7 1.8
-8 7 -2 21.8 1.9
8 -7 2 21 1.4
8 -7 2 21.8 1.4
-9 7 -2 24.9 2.1
9 -7 2 26.1 1.6
-10 7 -2 0.2 1.2
10 -7 2 1.3 0.9
-11 7 -2 203.68 7
11 -7 2 208.18 6.5
-12 7 -2 0.9 1.6
12 -7 2 2 1.1
10 6 -2 122.09 4.5
-10 -6 2 117.69 4.7
9 6 -2 6 1.4
-9 -6 2 5.3 1.5
8 6 -2 8.8 1.3
-8 -6 2 8.9 1.5
7 6 -2 2.6 1
7 6 -2 3.8 1.1
-7 -6 2 3.4 1.2
6 6 -2 64.79 2.6
6 6 -2 64.29 2.7
-6 -6 2 68.49 2.8
5 6 -2 27.7 1.7
5 6 -2 29 1.6
-5 -6 2 28.7 1.7
4 6 -2 81.29 3
4 6 -2 82.09 2.9
-4 -6 2 84.39 3
3 6 -2 2.4 0.8
-3 -6 2 2.4 0.8
-3 -6 2 2.3 0.6
2 6 -2 91.19 3.3
-2 -6 2 96.59 3.1
-2 -6 2 92.89 3
1 6 -2 8.9 1.1
-1 -6 2 10.4 1
-1 -6 2 10.2 0.8
0 6 -2 72.29 2.6
0 6 -2 67.59 2.2
0 -6 2 75.49 2.4
0 -6 2 74.89 2.4
-1 6 -2 714.53 19.1
-1 6 -2 687.23 19.4
1 -6 2 708.13 19.2
1 -6 2 705.53 19.2
-2 6 -2 6 0.8
-2 6 -2 4.9 0.7
2 -6 2 5 0.7
2 -6 2 5.9 0.7
-3 6 -2 104.89 3.5
-3 6 -2 114.39 3.6
3 -6 2 111.79 3.4
3 -6 2 110.39 3.4
-4 6 -2 10.8 1
-4 6 -2 10.5 1.2
4 -6 2 10.5 0.9
4 -6 2 11 0.9
-5 6 -2 34.1 1.8
-5 6 -2 34.1 1.5
5 -6 2 30.7 1.5
5 -6 2 32.6 1.4
-6 6 -2 351.36 10.2
6 -6 2 348.97 9.9
6 -6 2 354.16 10
-7 6 -2 6.5 1.1
7 -6 2 6.7 0.9
7 -6 2 7.5 0.9
-8 6 -2 30.3 2
8 -6 2 31.6 1.6
8 -6 2 32.8 1.6
-9 6 -2 140.29 4.9
9 -6 2 139.39 4.5
9 -6 2 141.09 4.5
-10 6 -2 168.98 5.7
10 -6 2 165.88 5.3
-11 6 -2 1.5 1.4
11 -6 2 0.7 0.9
-12 6 -2 23.4 2.5
12 -6 2 17.7 1.7
11 5 -2 -1.9 1.3
-11 -5 2 -1.9 1.5
10 5 -2 42.3 2.4
-10 -5 2 37 2.6
9 5 -2 -0.7 1
-9 -5 2 2.5 1.3
8 5 -2 18.7 1.6
-8 -5 2 14.9 1.7
7 5 -2 60.69 2.5
7 5 -2 57.99 2.5
-7 -5 2 58.79 2.6
6 5 -2 4.1 0.9
6 5 -2 3.8 0.9
-6 -5 2 3.3 1
5 5 -2 226.48 6.7
5 5 -2 232.58 6.9
-5 -5 2 226.08 6.8
4 5 -2 97.49 3.2
4 5 -2 100.19 3.4
-4 -5 2 99.49 3.3
3 5 -2 3.8 0.8
3 5 -2 2.2 0.6
-3 -5 2 4 0.8
2 5 -2 53.09 2.1
-2 -5 2 56.89 2
-2 -5 2 51.59 1.9
1 5 -2 19.3 1.2
-1 -5 2 18 1.1
-1 -5 2 17.3 0.9
0 5 -2 251.07 7.2
0 -5 2 238.78 7
0 -5 2 251.67 7
-1 5 -2 1211.18 33.4
-1 5 -2 1265.97 33.7
1 -5 2 1235.38 33.4
1 -5 2 1242.78 33.5
-2 5 -2 0.6 0.5
-2 5 -2 0.4 0.6
2 -5 2 0.1 0.4
2 -5 2 -0.2 0.4
-3 5 -2 60.09 2.1
-3 5 -2 58.49 2.1
3 -5 2 58.19 2
3 -5 2 58.49 1.9
-4 5 -2 192.68 5.5
-4 5 -2 182.88 5.5
4 -5 2 182.58 5.3
4 -5 2 186.58 5.4
-5 5 -2 1.9 0.7
-5 5 -2 3.8 0.6
5 -5 2 2.6 0.6
5 -5 2 3.2 0.6
-6 5 -2 32.5 1.8
-6 5 -2 36 1.5
6 -5 2 35.6 1.5
6 -5 2 33.6 1.4
-7 5 -2 -0.3 0.9
7 -5 2 1.4 0.6
7 -5 2 1.9 0.7
-8 5 -2 74.09 3
8 -5 2 71.29 2.7
8 -5 2 77.49 2.6
-9 5 -2 0.8 1.1
9 -5 2 -0.2 0.7
9 -5 2 0.8 0.8
-10 5 -2 34.7 2.2
-10 5 -2 38.1 1.9
10 -5 2 33.4 1.9
-11 5 -2 26.8 2.3
11 -5 2 28.7 1.8
-12 5 -2 3.9 1.6
12 -5 2 0.5 1
13 -5 2 13.3 1.9
11 4 -2 4 1.4
-11 -4 2 1.5 1.4
10 4 -2 1.3 1.2
-10 -4 2 0.2 1.2
9 4 -2 12.8 1.5
-9 -4 2 12.9 1.7
8 4 -2 128.89 4.4
-8 -4 2 137.59 4.6
7 4 -2 0.3 0.7
7 4 -2 -0.9 0.8
-7 -4 2 0.9 0.9
6 4 -2 19.6 1.4
6 4 -2 23.9 1.4
-6 -4 2 20.5 1.5
5 4 -2 29.5 1.5
5 4 -2 25.9 1.4
-5 -4 2 27.9 1.5
4 4 -2 4.3 0.8
4 4 -2 4.1 0.7
-4 -4 2 3.5 0.7
3 4 -2 47.4 1.9
3 4 -2 44.5 1.7
-3 -4 2 45.1 1.8
2 4 -2 132.69 4
2 4 -2 137.79 4.2
-2 -4 2 136.99 4
1 4 -2 668.43 18.3
-1 -4 2 654.43 18.1
-1 -4 2 672.33 18.1
0 4 -2 441.76 12
0 4 -2 425.96 11.7
0 -4 2 434.46 11.8
0 -4 2 427.96 11.9
-1 4 -2 89.89 2.7
-1 4 -2 95.79 2.9
1 -4 2 90.09 2.7
1 -4 2 89.29 2.8
-2 4 -2 503.35 13.6
-2 4 -2 477.05 13.5
2 -4 2 483.55 13.5
2 -4 2 508.05 13.4
-3 4 -2 854.21 22.5
-3 4 -2 820.22 22.5
3 -4 2 800.22 22.4
3 -4 2 833.22 22.5
-4 4 -2 479.15 13.1
-4 4 -2 468.75 13.2
4 -4 2 485.85 13.1
4 -4 2 468.95 13
-5 4 -2 478.55 13.1
-5 4 -2 475.85 13.3
5 -4 2 477.95 13.2
5 -4 2 471.55 13.1
-6 4 -2 753.52 20.8
-6 4 -2 761.92 20.4
6 -4 2 739.23 20.6
6 -4 2 755.82 20.5
-7 4 -2 243.88 7.3
7 -4 2 245.68 7
7 -4 2 245.38 7.1
-8 4 -2 22.2 1.7
8 -4 2 24.8 1.4
8 -4 2 24.3 1.4
-9 4 -2 29.2 1.5
-9 4 -2 25.4 1.9
9 -4 2 28.3 1.6
-10 4 -2 148.69 5.2
-10 4 -2 155.48 4.8
10 -4 2 150.78 4.9
-11 4 -2 13.6 1.5
-11 4 -2 16.5 1.9
11 -4 2 14.1 1.4
-12 4 -2 3.1 1.5
12 -4 2 2 1
-13 4 -2 16.2 2.1
13 -4 2 11.7 1.5
11 3 -2 3 1.2
-11 -3 2 7.1 1.5
10 3 -2 1 1
-10 -3 2 1.9 1.2
9 3 -2 45.6 2.2
-9 -3 2 46.6 2.4
8 3 -2 -0.2 0.6
-8 -3 2 -0.6 0.8
7 3 -2 0.5 0.6
-7 -3 2 0.6 0.8
6 3 -2 89.59 3.1
6 3 -2 99.29 3.1
-6 -3 2 88.89 3.2
5 3 -2 2.1 0.6
5 3 -2 3.2 0.7
-5 -3 2 2.8 0.5
-5 -3 2 2 0.7
4 3 -2 109.89 3.4
4 3 -2 104.49 3.3
-4 -3 2 102.99 3.3
3 3 -2 310.77 8.7
3 3 -2 303.67 8.6
-3 -3 2 304.27 8.6
2 3 -2 360.06 9.9
2 3 -2 353.06 9.8
-2 -3 2 349.47 9.8
1 3 -2 472.15 12.5
-1 -3 2 437.56 12.4
-1 -3 2 450.45 12.4
0 3 -2 -0.5 0.5
0 3 -2 -0.8 0.3
0 -3 2 -0.5 0.3
0 -3 2 -0.4 0.4
-1 3 -2 26.7 1.1
-1 3 -2 28.2 1
1 -3 2 26.9 1
1 -3 2 25.8 1
-2 3 -2 407.46 11.3
-2 3 -2 420.56 11.3
2 -3 2 407.36 11.2
2 -3 2 407.86 11.2
-3 3 -2 1184.48 32.5
-3 3 -2 1214.98 32.4
3 -3 2 1190.58 32.4
3 -3 2 1220.68 32.5
-4 3 -2 351.76 9.5
-4 3 -2 349.17 9.7
4 -3 2 342.77 9.5
4 -3 2 342.87 9.6
-5 3 -2 58.59 1.9
-5 3 -2 59.99 2.2
5 -3 2 60.99 2
5 -3 2 58.99 2
-6 3 -2 424.06 12
6 -3 2 444.16 11.5
6 -3 2 422.96 11.8
6 -3 2 408.86 11.8
-7 3 -2 11.9 1.3
7 -3 2 14.5 1
7 -3 2 12.9 1
-8 3 -2 147.69 4.8
-8 3 -2 152.48 4.6
8 -3 2 150.98 4.7
-9 3 -2 216.38 6.4
-9 3 -2 211.28 6.7
9 -3 2 217.08 6.5
-10 3 -2 39.9 2
-10 3 -2 41.7 2.3
10 -3 2 41.8 2
-11 3 -2 3.4 1.2
-11 3 -2 3 1
11 -3 2 2.6 1
-12 3 -2 28.7 2.3
-12 3 -2 27.1 1.8
12 -3 2 24.3 1.8
-13 3 -2 7.9 1.7
13 -3 2 7.6 1.4
12 2 -2 0.4 1
-12 -2 2 0.9 1.4
11 2 -2 12.5 1.7
-11 -2 2 10.6 1.6
10 2 -2 17.4 1.6
-10 -2 2 18.1 1.7
9 2 -2 2 1
-9 -2 2 1.6 0.9
8 2 -2 2.7 0.9
-8 -2 2 3.7 0.9
7 2 -2 3.2 0.8
-7 -2 2 2.5 0.8
6 2 -2 131.79 4.1
-6 -2 2 136.89 4.2
-6 -2 2 131.19 3.9
5 2 -2 16.6 1
5 2 -2 14.3 1
-5 -2 2 15.8 0.8
-5 -2 2 15.4 1
4 2 -2 109.99 3.2
4 2 -2 95.19 3.1
-4 -2 2 98.19 2.9
-4 -2 2 102.99 3.2
3 2 -2 2681.73 69.99
3 2 -2 2605.94 69.99
-3 -2 2 2562.14 69.79
-3 -2 2 2569.04 69.99
2 2 -2 5.2 0.7
2 2 -2 5.1 0.6
-2 -2 2 5.1 0.6
1 2 -2 173.18 5
1 2 -2 185.48 5.2
1 2 -2 185.78 5.1
-1 -2 2 182.88 5.1
0 2 -2 1.5 0.5
0 2 -2 0.9 0.3
0 -2 2 1.5 0.3
0 -2 2 1.3 0.3
-1 2 -2 283.07 7.6
-1 2 -2 260.87 7.5
1 -2 2 273.27 7.4
1 -2 2 270.37 7.5
-2 2 -2 212.18 5.9
-2 2 -2 212.58 5.9
2 -2 2 213.38 5.9
2 -2 2 207.08 5.8
-3 2 -2 1691.63 45.4
3 -2 2 1663.53 45.2
3 -2 2 1698.43 45.3
-4 2 -2 2060.09 55.49
-4 2 -2 2056.59 55.69
4 -2 2 2069.59 55.59
4 -2 2 2083.39 55.49
-5 2 -2 161.98 4.9
5 -2 2 160.28 4.8
5 -2 2 163.68 4.7
5 -2 2 168.98 4.5
-6 2 -2 11.9 1.1
6 -2 2 11.3 0.9
6 -2 2 12.7 0.9
-7 2 -2 505.05 13.8
-7 2 -2 494.55 14
7 -2 2 499.75 13.9
-8 2 -2 4.4 0.8
-8 2 -2 3.8 1
8 -2 2 3.4 0.8
-9 2 -2 48.5 2
-9 2 -2 46.4 2.2
9 -2 2 48.1 2.1
-10 2 -2 -0.3 0.9
-10 2 -2 0.7 0.8
10 -2 2 -0.2 0.8
-11 2 -2 12.9 1.8
-11 2 -2 11.8 1.4
11 -2 2 11.7 1.4
-12 2 -2 24.1 1.8
-12 2 -2 27.1 2.2
12 -2 2 21.1 1.7
-13 2 -2 -0.6 1
-13 2 -2 1.8 1.3
13 -2 2 -0.3 1
12 1 -2 37.4 2.3
-12 -1 2 36.6 2.4
11 1 -2 3.1 1.2
-11 -1 2 4.6 1.3
10 1 -2 0.8 1
-10 -1 2 -0.3 0.9
9 1 -2 10.4 1.3
-9 -1 2 13.4 1.4
8 1 -2 25.5 1.5
-8 -1 2 24.1 1.4
-8 -1 2 24.5 1.6
7 1 -2 34.9 1.6
-7 -1 2 33.1 1.5
-7 -1 2 33.7 1.7
6 1 -2 2.2 0.7
6 1 -2 3.1 0.5
-6 -1 2 4.5 0.6
-6 -1 2 2.7 0.7
5 1 -2 1.8 0.6
5 1 -2 2.2 0.5
-5 -1 2 1.5 0.5
-5 -1 2 2.3 0.5
4 1 -2 83.49 2.6
-4 -1 2 84.29 2.5
-4 -1 2 84.79 2.7
3 1 -2 56.49 1.8
-3 -1 2 56.89 1.9
-3 -1 2 55.29 1.7
2 1 -2 33.5 1.2
-2 -1 2 34.2 1.2
-2 -1 2 32.5 1
1 1 -2 9541.85 261.97
1 1 -2 9999 262.77
1 1 -2 9869.61 262.47
-1 -1 2 9692.43 262.37
0 1 -2 134.29 3.6
0 1 -2 121.69 3.5
0 -1 2 121.49 3.5
0 -1 2 128.69 3.5
-1 1 -2 2.5 0.4
-1 1 -2 1.8 0.4
1 -1 2 1.7 0.4
-2 1 -2 509.05 13.6
-2 1 -2 493.15 13.5
2 -1 2 492.25 13.5
2 -1 2 498.95 13.4
-3 1 -2 912.51 25
-3 1 -2 925.81 24.9
3 -1 2 926.71 25
3 -1 2 931.21 24.9
-4 1 -2 0.2 0.5
4 -1 2 -0.3 0.4
4 -1 2 0.3 0.2
4 -1 2 0.2 0.4
-5 1 -2 576.94 15.7
-5 1 -2 582.84 15.5
5 -1 2 587.04 15.6
5 -1 2 533.85 15.4
-6 1 -2 36.7 1.5
-6 1 -2 37.3 1.6
6 -1 2 38.7 1.5
-7 1 -2 5.3 0.7
-7 1 -2 6.4 0.9
7 -1 2 4.6 0.7
-8 1 -2 1039.2 28.1
-8 1 -2 1027.4 28.2
8 -1 2 1019.8 28.1
-9 1 -2 3 0.9
-9 1 -2 0.8 0.7
9 -1 2 1.6 0.8
-10 1 -2 31.1 1.7
-10 1 -2 30.4 1.9
10 -1 2 25 1.6
-11 1 -2 167.18 5.3
-11 1 -2 156.88 5.2
11 -1 2 152.88 5.2
-12 1 -2 -0.3 0.9
-12 1 -2 -0.2 1.1
12 -1 2 0.1 0.9
-13 1 -2 5.1 1.4
-13 1 -2 5 1.3
13 -1 2 5.5 1.3
12 0 -2 14.2 1.8
-12 0 2 14.5 1.8
11 0 -2 -0.8 1.1
-11 0 2 -1.3 0.9
10 0 -2 10.6 1.4
-10 0 2 7.7 1.3
9 0 -2 116.29 3.9
-9 0 2 119.49 4
-9 0 2 113.29 3.8
8 0 -2 -0.5 0.7
-8 0 2 1.7 0.8
-8 0 2 -0.1 0.7
7 0 -2 0.7 0.7
-7 0 2 0.5 0.6
-7 0 2 0.5 0.7
6 0 -2 27.5 1.3
6 0 -2 29.5 1.1
-6 0 2 28.8 1.4
-6 0 2 27.5 1.3
5 0 -2 12.6 0.9
5 0 -2 13.6 0.7
-5 0 2 13.2 0.8
-5 0 2 13.4 0.9
4 0 -2 23.9 1.1
4 0 -2 26 1
-4 0 2 23.6 1
-4 0 2 25.6 1.1
3 0 -2 373.16 10.1
3 0 -2 363.46 10.1
-3 0 2 372.96 10.2
-3 0 2 366.26 10.1
2 0 -2 37.4 1.3
2 0 -2 38.6 1.3
-2 0 2 38.8 1.2
1 0 -2 5548.84 150.08
1 0 -2 5544.75 149.99
1 0 -2 5704.93 150.28
1 0 -2 5549.94 150.08
0 0 -2 511.25 12.9
0 0 -2 430.96 12.8
0 0 -2 490.25 12.8
0 0 2 463.15 12.8
-1 0 -2 1.5 0.3
-1 0 -2 1.5 0.4
1 0 2 1.4 0.3
-2 0 -2 2524.05 69.19
-2 0 -2 2613.94 69.59
2 0 2 2551.84 69.39
2 0 2 2617.24 69.29
-3 0 -2 12.9 0.8
-3 0 -2 12.6 0.6
3 0 2 13.4 0.7
-4 0 -2 353.16 9.7
-4 0 -2 352.16 9.8
4 0 2 355.46 9.6
4 0 2 353.86 9.7
-5 0 -2 272.27 7.7
-5 0 -2 275.67 7.8
5 0 2 284.37 7.6
5 0 2 275.77 7.8
-6 0 -2 91.39 3
-6 0 -2 92.49 2.9
6 0 2 91.79 2.9
6 0 2 93.89 2.6
-7 0 -2 7.7 1
-7 0 -2 7.2 0.9
7 0 2 4.8 0.7
-8 0 -2 463.95 12.9
-8 0 -2 452.95 12.9
8 0 2 465.05 12.9
-9 0 -2 48.9 2.1
-9 0 -2 49.2 2.2
9 0 2 46.1 2.1
-10 0 -2 32.4 1.9
-10 0 -2 29.4 1.7
10 0 2 26.7 1.7
-11 0 -2 2.8 1
-11 0 -2 3.8 1.1
11 0 2 2.6 1
-12 0 -2 15.2 1.7
-12 0 -2 12 1.6
12 0 2 15.3 1.6
-13 0 -2 12 1.7
13 0 2 12.2 1.6
12 -1 -2 0.5 1.1
-12 1 2 -1.8 0.9
11 -1 -2 11.3 1.4
-11 1 2 9.7 1.4
10 -1 -2 419.36 12.1
-10 1 2 421.56 12.1
-10 1 2 419.46 12.2
9 -1 -2 96.09 3.3
-9 1 2 93.89 3.4
-9 1 2 90.09 3.3
8 -1 -2 4.8 0.9
-8 1 2 4.1 0.9
-8 1 2 4.7 0.9
7 -1 -2 0.6 0.7
-7 1 2 0.2 0.6
-7 1 2 -0.3 0.7
6 -1 -2 10.9 0.9
-6 1 2 10.4 1
-6 1 2 9.3 0.9
5 -1 -2 139.59 4.1
5 -1 -2 142.49 4.2
-5 1 2 134.29 4.1
4 -1 -2 143.29 4.3
4 -1 -2 143.69 4.2
4 -1 -2 140.09 4
-4 1 2 146.19 4.2
3 -1 -2 1.5 0.5
3 -1 -2 1.8 0.4
3 -1 -2 1.4 0.3
-3 1 2 2.2 0.4
2 -1 -2 120.79 3.4
2 -1 -2 120.69 3.4
2 -1 -2 122.49 3.5
-2 1 2 123.09 3.5
1 -1 -2 55.09 1.8
1 -1 -2 60.09 1.8
1 -1 -2 56.99 1.7
-1 1 2 56.19 1.7
0 -1 -2 2174.48 58.09
0 -1 -2 2172.78 57.79
0 1 2 2273.17 57.69
0 1 2 1976.5 57.99
-1 -1 -2 6912.61 188.58
1 1 2 7134.79 188.28
-2 -1 -2 199.78 5.4
-2 -1 -2 194.48 5.4
2 1 2 199.88 5.4
2 1 2 190.98 5.4
-3 -1 -2 705.93 19.3
-3 -1 -2 711.03 19.3
3 1 2 712.93 19.2
3 1 2 723.63 19.3
-4 -1 -2 665.93 18.3
-4 -1 -2 659.43 18.3
4 1 2 671.33 18.3
4 1 2 705.23 18.3
-5 -1 -2 42.5 1.6
-5 -1 -2 41 1.5
5 1 2 41.6 1.4
5 1 2 42.3 1.5
-6 -1 -2 10.8 0.9
-6 -1 -2 12.2 1
6 1 2 12.5 0.7
6 1 2 12.8 0.9
-7 -1 -2 165.28 5
-7 -1 -2 165.88 4.9
7 1 2 162.88 4.9
-8 -1 -2 2.1 0.8
-8 -1 -2 1.6 0.7
8 1 2 0.4 0.7
-9 -1 -2 11.6 1.2
-9 -1 -2 11.8 1.3
9 1 2 12.2 1.2
-10 -1 -2 7.6 1.1
-10 -1 -2 8.2 1.2
10 1 2 8.7 1.1
-11 -1 -2 5.4 1.1
-11 -1 -2 4 1.1
11 1 2 4 1.1
-12 -1 -2 43.3 2.4
12 1 2 46.3 2.4
-13 -1 -2 17.3 1.9
13 1 2 18.9 1.9
12 -2 -2 2 1.2
-12 2 2 1 1.1
11 -2 -2 18.7 1.7
-11 2 2 18.2 1.7
-11 2 2 22.3 1.9
10 -2 -2 17.5 1.5
-10 2 2 17.6 1.5
-10 2 2 17.7 1.6
9 -2 -2 41.2 1.9
-9 2 2 39 2
-9 2 2 39.6 2
8 -2 -2 345.07 9.7
-8 2 2 334.17 9.7
-8 2 2 333.37 9.7
7 -2 -2 17.7 1.1
-7 2 2 18.6 1.3
-7 2 2 16.5 1.2
6 -2 -2 146.59 4.3
6 -2 -2 143.89 4.4
-6 2 2 141.39 4.4
5 -2 -2 60.79 2.1
5 -2 -2 61.89 2
-5 2 2 60.39 2.1
4 -2 -2 495.85 13.4
4 -2 -2 483.15 13.5
-4 2 2 491.75 13.5
3 -2 -2 19.3 0.8
3 -2 -2 18.3 0.9
-3 2 2 18 0.6
-3 2 2 19.1 0.9
2 -2 -2 989.9 26.2
2 -2 -2 957.2 26.3
-2 2 2 924.51 26.2
-2 2 2 1027 26.3
1 -2 -2 101.79 2.7
1 -2 -2 93.09 2.8
-1 2 2 97.19 2.8
-1 2 2 103.29 2.9
0 -2 -2 17.8 0.8
0 -2 -2 16.8 0.7
0 2 2 20 0.8
-1 -2 -2 1815.92 49
-1 -2 -2 1720.33 48.8
1 2 2 1902.51 48.8
1 2 2 1827.52 48.7
-2 -2 -2 739.93 19.9
-2 -2 -2 716.43 19.8
2 2 2 736.43 19.8
2 2 2 752.72 19.9
-3 -2 -2 184.08 5.1
-3 -2 -2 180.58 5.1
3 2 2 179.78 5.1
3 2 2 180.98 5.1
-4 -2 -2 180.88 5.2
-4 -2 -2 183.28 5.1
4 2 2 183.48 5.2
4 2 2 180.58 5.1
-5 -2 -2 13.3 0.9
-5 -2 -2 11.9 0.8
5 2 2 13.8 0.8
5 2 2 13.3 0.8
-6 -2 -2 40.9 1.6
-6 -2 -2 42.4 1.7
6 2 2 40.9 1.5
6 2 2 41.9 1.6
-7 -2 -2 454.75 12.8
-7 -2 -2 457.55 12.7
7 2 2 468.75 12.5
7 2 2 444.26 12.7
-8 -2 -2 15.3 1.2
-8 -2 -2 13.2 1.2
8 2 2 16.2 1.2
-9 -2 -2 19.4 1.4
-9 -2 -2 19.1 1.5
9 2 2 16.4 1.4
-10 -2 -2 70.49 2.8
-10 -2 -2 71.39 2.9
10 2 2 75.99 2.9
-11 -2 -2 0.9 1
11 2 2 -0.7 0.9
-12 -2 -2 0.9 1.1
12 2 2 1.8 1.2
-13 -2 -2 5.9 1.5
13 2 2 8.1 1.5
13 -3 -2 1.1 1.5
12 -3 -2 43.7 2.3
-12 3 2 45.8 2.6
-12 3 2 39.4 2.4
11 -3 -2 2.5 1.1
-11 3 2 2 1
-11 3 2 1.4 1.1
10 -3 -2 41.3 2.1
-10 3 2 43.2 2.3
-10 3 2 43.9 2.2
9 -3 -2 4.2 0.9
-9 3 2 3.7 1.1
-9 3 2 4.7 1
8 -3 -2 133.99 4.2
-8 3 2 135.29 4.4
7 -3 -2 120.89 3.7
7 -3 -2 117.89 3.8
-7 3 2 118.49 3.9
6 -3 -2 40.1 1.7
6 -3 -2 39.9 1.6
-6 3 2 37.9 1.7
5 -3 -2 483.75 13
5 -3 -2 454.65 13.1
-5 3 2 479.95 13.2
4 -3 -2 37.6 1.5
4 -3 -2 37 1.3
-4 3 2 38.5 1.5
3 -3 -2 918.71 24.3
3 -3 -2 864.61 24.4
-3 3 2 892.51 24.4
-3 3 2 921.41 24.2
2 -3 -2 17.8 0.7
2 -3 -2 16.2 0.8
-2 3 2 17.5 0.8
-2 3 2 18.4 0.7
1 -3 -2 188.18 5.5
1 -3 -2 197.98 5.4
-1 3 2 194.58 5.5
-1 3 2 209.78 5.5
0 -3 -2 9.1 0.6
0 -3 -2 9.9 0.6
0 3 2 11.7 0.7
-1 -3 -2 931.71 25.2
-1 -3 -2 900.01 25.2
1 3 2 976.2 25.3
-2 -3 -2 1123.59 29.7
-2 -3 -2 1066.19 29.6
2 3 2 1090.79 29.6
2 3 2 1124.09 29.7
-3 -3 -2 -0.4 0.5
-3 -3 -2 0 0.3
3 3 2 0.6 0.4
3 3 2 0.6 0.4
-4 -3 -2 120.39 3.6
-4 -3 -2 117.39 3.4
4 3 2 118.29 3.5
4 3 2 118.89 3.5
-5 -3 -2 207.08 5.8
-5 -3 -2 207.08 6
5 3 2 206.08 5.9
5 3 2 203.58 5.9
-6 -3 -2 372.16 10.6
-6 -3 -2 369.56 10.4
6 3 2 382.66 10.4
6 3 2 378.86 10.5
-7 -3 -2 141.79 4.2
-7 -3 -2 140.79 4.4
7 3 2 138.19 4.1
7 3 2 134.59 4.3
-8 -3 -2 48 1.9
-8 -3 -2 47.6 2.1
8 3 2 45 2
-9 -3 -2 28.3 1.8
9 3 2 27.7 1.6
-10 -3 -2 6.4 1.2
10 3 2 8.5 1.2
-11 -3 -2 1.3 1.1
11 3 2 -0.4 1
-12 -3 -2 11.6 1.7
12 3 2 21.3 1.9
-13 -3 -2 16.9 2.1
13 3 2 17.8 2.1
13 -4 -2 20.7 2.5
-13 4 2 24 2.4
12 -4 -2 0.9 1.1
-12 4 2 2.9 1.2
-12 4 2 3 1.5
11 -4 -2 52.19 2.4
-11 4 2 53.99 2.8
-11 4 2 56.19 2.6
10 -4 -2 3.4 0.9
-10 4 2 1.6 1
-10 4 2 2.1 1
9 -4 -2 33.6 1.7
-9 4 2 28.2 1.9
8 -4 -2 5.4 0.9
8 -4 -2 5.4 1
-8 4 2 5.8 1.1
7 -4 -2 58.99 2.1
7 -4 -2 57.89 2.3
-7 4 2 55.49 2.4
6 -4 -2 110.99 3.4
6 -4 -2 109.99 3.5
-6 4 2 107.79 3.6
5 -4 -2 130.19 3.8
5 -4 -2 122.69 3.9
-5 4 2 130.79 4
4 -4 -2 23.7 1.1
4 -4 -2 23.9 1
-4 4 2 24.8 1.2
-4 4 2 24.4 0.9
3 -4 -2 1395.46 37.4
3 -4 -2 1364.96 37.5
-3 4 2 1424.86 37.3
-3 4 2 1370.96 37.5
2 -4 -2 415.36 11.2
2 -4 -2 402.66 11.4
-2 4 2 426.36 11.3
-2 4 2 406.66 11.3
1 -4 -2 2.1 0.3
1 -4 -2 1.8 0.5
-1 4 2 1.6 0.4
-1 4 2 2.4 0.4
0 -4 -2 410.56 11.1
0 -4 -2 402.66 11.2
0 4 2 422.46 11.3
0 4 2 406.46 11.2
-1 -4 -2 58.79 1.8
-1 -4 -2 56.69 1.9
1 4 2 61.29 1.7
1 4 2 59.39 1.9
-2 -4 -2 79.09 2.5
2 4 2 82.19 2.5
-3 -4 -2 251.37 7.1
-3 -4 -2 240.78 6.8
3 4 2 252.07 6.9
3 4 2 255.87 7.1
-4 -4 -2 1182.08 31.7
-4 -4 -2 1160.18 31.5
4 4 2 1175.38 31.7
4 4 2 1160.58 31.6
-5 -4 -2 26.1 1.3
-5 -4 -2 26.3 1
5 4 2 24.9 1.2
5 4 2 27.5 1.2
-6 -4 -2 17.2 0.9
-6 -4 -2 15.8 1.2
6 4 2 18.4 1.1
6 4 2 17.7 1.1
-7 -4 -2 24.6 1.2
-7 -4 -2 25.6 1.5
7 4 2 23.4 1.3
7 4 2 23.1 1.2
-8 -4 -2 0.7 0.9
8 4 2 1.6 0.8
-9 -4 -2 50.59 2.4
9 4 2 50.69 2.2
-10 -4 -2 13 1.6
10 4 2 14.5 1.5
-11 -4 -2 33.2 2.3
11 4 2 34.7 2.1
-12 -4 -2 1.7 1.4
12 4 2 2.7 1.4
12 -5 -2 58.69 2.7
-12 5 2 65.89 3.3
-12 5 2 61.39 2.9
11 -5 -2 158.68 5.3
-11 5 2 172.78 5.6
-11 5 2 167.68 5.8
10 -5 -2 15.1 1.3
-10 5 2 12.8 1.8
-10 5 2 15.6 1.5
9 -5 -2 21.1 1.4
9 -5 -2 20 1.6
-9 5 2 19.4 1.8
8 -5 -2 46.3 2.1
8 -5 -2 47.9 2
-8 5 2 49.3 2.3
7 -5 -2 50.79 2.1
7 -5 -2 49.9 1.9
-7 5 2 50.79 2.3
6 -5 -2 5.3 0.7
6 -5 -2 3.8 0.7
-6 5 2 4.7 0.9
5 -5 -2 174.28 5
5 -5 -2 168.88 5.2
-5 5 2 178.48 4.8
-5 5 2 170.38 5.2
4 -5 -2 342.27 9.4
4 -5 -2 335.27 9.6
-4 5 2 347.77 9.4
-4 5 2 339.27 9.7
3 -5 -2 180.78 5
3 -5 -2 174.68 5.2
-3 5 2 177.98 5.2
-3 5 2 187.18 5.1
2 -5 -2 27.3 1.2
2 -5 -2 26.9 1
-2 5 2 28.2 1.2
-2 5 2 27.5 1.1
1 -5 -2 322.77 9.1
1 -5 -2 330.77 8.9
-1 5 2 322.97 9.1
-1 5 2 336.37 9.1
0 -5 -2 17 0.7
0 -5 -2 15.7 0.9
0 5 2 16.4 0.8
0 5 2 17.8 1
-1 -5 -2 80.69 2.3
-1 -5 -2 79.79 2.5
1 5 2 78.49 2.4
1 5 2 81.79 2.6
-2 -5 -2 0.3 0.3
-2 -5 -2 0.1 0.5
2 5 2 -0.2 0.4
2 5 2 -0.3 0.5
-3 -5 -2 277.47 7.8
-3 -5 -2 291.27 8.1
3 5 2 287.27 8.1
3 5 2 283.57 7.9
-4 -5 -2 120.79 3.6
-4 -5 -2 127.59 3.9
4 5 2 131.19 3.9
4 5 2 129.29 3.8
-5 -5 -2 1.2 0.3
-5 -5 -2 1.9 0.7
5 5 2 2.1 0.6
5 5 2 1.3 0.6
-6 -5 -2 21.8 1.4
6 5 2 21.3 1.3
6 5 2 20.7 1.2
-7 -5 -2 269.27 8.1
7 5 2 282.77 8
7 5 2 275.57 8
-8 -5 -2 20.5 1.6
8 5 2 21.7 1.5
-9 -5 -2 31.7 2
9 5 2 33.2 1.9
-10 -5 -2 10.2 1.5
10 5 2 9 1.3
-11 -5 -2 8.2 1.6
11 5 2 8.3 1.4
-12 -5 -2 24 2.4
12 5 2 32.8 2.3
12 -6 -2 2.2 1.1
-12 6 2 1.1 1.1
-12 6 2 2.2 1.6
11 -6 -2 17.9 1.5
-11 6 2 16.3 1.7
-11 6 2 10.6 1.7
10 -6 -2 3.5 1.1
10 -6 -2 3.7 1
-10 6 2 4.9 1.5
9 -6 -2 0.5 0.7
9 -6 -2 -0.1 0.8
-9 6 2 0.2 1.1
8 -6 -2 15.7 1.2
8 -6 -2 14.9 1.4
-8 6 2 13.9 1.6
7 -6 -2 193.98 5.9
7 -6 -2 195.78 5.7
-7 6 2 193.28 6.1
6 -6 -2 25.2 1.2
6 -6 -2 24.3 1.4
-6 6 2 25.4 1.6
5 -6 -2 228.38 6.8
5 -6 -2 229.08 6.6
-5 6 2 242.28 6.5
-5 6 2 228.18 6.9
4 -6 -2 0.7 0.4
4 -6 -2 0.5 0.6
-4 6 2 0.9 0.4
-4 6 2 0.4 0.6
3 -6 -2 3.4 0.6
3 -6 -2 3.7 0.5
-3 6 2 3.6 0.6
-3 6 2 2.4 0.6
2 -6 -2 22.3 0.9
2 -6 -2 24 1.2
-2 6 2 22.1 1.1
-2 6 2 21.5 1.1
1 -6 -2 214.38 5.9
1 -6 -2 208.18 6.1
-1 6 2 207.98 6
-1 6 2 215.48 6.1
0 -6 -2 3.7 0.4
0 -6 -2 3.2 0.6
0 6 2 3 0.6
0 6 2 2.9 0.5
-1 -6 -2 141.29 4.4
-1 -6 -2 149.49 4.2
1 6 2 148.89 4.5
1 6 2 151.18 4.2
-2 -6 -2 2.7 0.6
2 6 2 2.5 0.5
2 6 2 1.7 0.6
2 6 2 1.9 0.3
-3 -6 -2 82.09 2.8
3 6 2 82.29 2.8
3 6 2 82.39 2.5
-4 -6 -2 323.67 9.3
4 6 2 331.07 9.1
4 6 2 325.27 9.3
-5 -6 -2 385.56 10.9
5 6 2 385.26 11
-6 -6 -2 99.49 3.5
6 6 2 101.69 3.4
-7 -6 -2 46.7 2.2
7 6 2 46.9 2
7 6 2 44.2 2
-8 -6 -2 24.5 1.8
8 6 2 22.6 1.5
8 6 2 21.4 1.5
-9 -6 -2 -1.5 1
9 6 2 0.2 1
-10 -6 -2 5.8 1.5
10 6 2 6.5 1.3
-11 -6 -2 6.4 1.6
11 6 2 4.1 1.1
-12 -6 -2 8.4 1.8
12 6 2 6 1.5
12 -7 -2 1.4 1
-12 7 2 0.9 1.2
-12 7 2 1.5 1.7
11 -7 -2 0.5 0.9
11 -7 -2 2.2 1.2
-11 7 2 0.4 1.4
10 -7 -2 102.09 3.7
10 -7 -2 96.59 3.5
-10 7 2 95.69 4
9 -7 -2 122.69 4.1
9 -7 -2 131.79 4.4
-9 7 2 125.49 4.6
8 -7 -2 21.7 1.6
8 -7 -2 22.4 1.3
-8 7 2 22.6 1.9
7 -7 -2 4 0.9
7 -7 -2 3.6 0.7
-7 7 2 5.5 1.2
6 -7 -2 124.99 3.8
6 -7 -2 125.79 4.1
-6 7 2 125.89 4.2
5 -7 -2 25.9 1.2
5 -7 -2 26.9 1.5
-5 7 2 28.3 1.3
-5 7 2 26.8 1.7
4 -7 -2 110.89 3.6
4 -7 -2 107.69 3.3
-4 7 2 109.99 3.6
-4 7 2 114.99 3.4
3 -7 -2 1032.9 27.5
3 -7 -2 992 27.8
-3 7 2 1055.29 27.7
-3 7 2 991.4 27.8
2 -7 -2 66.39 2.1
2 -7 -2 67.09 2.3
-2 7 2 66.89 2.3
-2 7 2 67.39 2.4
1 -7 -2 152.78 4.7
1 -7 -2 157.48 4.4
-1 7 2 158.48 4.6
-1 7 2 155.68 4.7
0 -7 -2 45 1.7
0 -7 -2 45.2 1.5
0 7 2 46.9 1.6
0 7 2 47.2 1.9
-1 -7 -2 38.1 1.6
-1 -7 -2 41.1 1.4
1 7 2 42.4 1.4
1 7 2 40.2 1.7
-2 -7 -2 21.2 1.2
-2 -7 -2 21.5 1
2 7 2 21.6 1.3
2 7 2 23.2 0.9
-3 -7 -2 214.08 6.4
3 7 2 226.38 6.3
3 7 2 219.78 6.6
-4 -7 -2 79.29 2.8
4 7 2 80.79 2.6
4 7 2 75.09 2.8
-5 -7 -2 28.6 1.6
5 7 2 26.9 1.4
5 7 2 26.4 1.6
-6 -7 -2 6.2 1.2
6 7 2 6.8 1
6 7 2 5.5 1
-7 -7 -2 12.8 1.5
7 7 2 16.3 1.4
7 7 2 15.3 1.3
-8 -7 -2 121.79 4.4
8 7 2 119.99 4.2
8 7 2 127.09 4.1
-9 -7 -2 27.9 2.1
9 7 2 28.6 1.8
-10 -7 -2 0.3 1.3
10 7 2 -0.1 1.1
-11 -7 -2 6.5 1.7
11 7 2 6.3 1.5
-12 8 2 12.9 1.8
11 -8 -2 14.9 1.9
-11 8 2 17.9 2.4
10 -8 -2 24.8 1.6
10 -8 -2 29.4 2
-10 8 2 27.1 2.3
9 -8 -2 9.3 1.1
9 -8 -2 9.8 1.3
-9 8 2 8.7 1.6
8 -8 -2 4.1 0.8
8 -8 -2 5 1
-8 8 2 2.5 1.2
7 -8 -2 17.9 1.4
7 -8 -2 16.4 1.1
-7 8 2 17.2 1.8
6 -8 -2 34.7 1.8
6 -8 -2 34.9 1.5
-6 8 2 33.5 2
5 -8 -2 28.9 1.3
5 -8 -2 33.8 1.7
-5 8 2 30.3 1.8
-5 8 2 34 2
4 -8 -2 0.8 0.5
4 -8 -2 0.6 0.7
-4 8 2 2 0.7
-4 8 2 2.9 0.9
3 -8 -2 70.89 2.6
3 -8 -2 73.09 2.3
-3 8 2 72.49 2.6
-3 8 2 75.49 2.6
2 -8 -2 39.9 1.7
2 -8 -2 39.2 1.4
-2 8 2 41.5 1.8
-2 8 2 41.9 1.8
1 -8 -2 17.9 0.9
1 -8 -2 16.7 1.1
-1 8 2 19.9 1.1
-1 8 2 18.5 1.3
0 -8 -2 432.36 12.5
0 -8 -2 461.75 12.3
-1 -8 -2 2.9 0.7
-1 -8 -2 5.2 0.6
1 8 2 2.8 0.7
1 8 2 4 0.6
-2 -8 -2 81.39 2.9
-2 -8 -2 84.59 2.6
2 8 2 81.99 3
-3 -8 -2 0.1 0.6
3 8 2 0.6 0.7
-4 -8 -2 25.8 1.6
4 8 2 26.5 1.3
4 8 2 25.8 1.6
-5 -8 -2 4.3 1.1
5 8 2 4.9 0.9
5 8 2 5.2 1
-6 -8 -2 161.88 5.1
6 8 2 158.78 4.9
6 8 2 153.98 5.1
-7 -8 -2 14 1.6
7 8 2 12.4 1.5
7 8 2 10.6 1.3
-8 -8 -2 13 1.8
8 8 2 13.9 1.6
8 8 2 13.7 1.4
-9 -8 -2 70.99 3.3
9 8 2 67.89 2.9
-10 -8 -2 9.1 1.8
10 8 2 10.2 1.6
-11 -8 -2 3.5 1.9
11 8 2 3.5 1.4
11 -9 -2 44.5 2.6
-11 9 2 47.9 3.1
10 -9 -2 52.99 2.6
-10 9 2 42.8 2.9
9 -9 -2 60.29 2.7
-9 9 2 57.19 3.1
8 -9 -2 209.68 6.9
8 -9 -2 204.28 6.4
-8 9 2 199.08 6.7
7 -9 -2 12.1 1.4
7 -9 -2 10.8 1
-7 9 2 12.4 1.8
6 -9 -2 8.8 1.2
6 -9 -2 7.6 0.9
-6 9 2 8.1 1.3
5 -9 -2 39.4 1.6
5 -9 -2 39.6 1.9
-5 9 2 39 2.1
4 -9 -2 60.49 2.1
4 -9 -2 64.29 2.5
-4 9 2 61.89 2.6
-4 9 2 64.89 2.4
3 -9 -2 21.4 1.1
3 -9 -2 19.8 1.4
-3 9 2 20.8 1.4
-3 9 2 23.1 1.5
2 -9 -2 85.99 3.1
2 -9 -2 90.49 2.8
-2 9 2 87.79 3.2
-2 9 2 93.69 3.1
1 -9 -2 58.29 1.9
1 -9 -2 55.89 2.2
-1 9 2 55.19 2.4
-1 9 2 60.19 2.2
0 -9 -2 92.39 3.2
0 -9 -2 99.79 3
0 9 2 93.79 3.4
0 9 2 99.99 3.1
-1 -9 -2 47.6 1.7
-1 -9 -2 44.4 1.9
1 9 2 48.9 2.2
-2 -9 -2 856.31 22.5
-2 -9 -2 837.72 22.7
2 9 2 780.52 22.9
-3 -9 -2 15.6 1
-3 -9 -2 14.5 1.3
3 9 2 16.2 1.4
-4 -9 -2 7.2 1.1
4 9 2 5.8 1.1
-5 -9 -2 22.9 1.7
5 9 2 22.9 1.4
5 9 2 23.9 1.7
-6 -9 -2 0.3 1
6 9 2 -0.8 0.9
6 9 2 -0.7 0.8
-7 -9 -2 7 1.3
7 9 2 4.7 1.1
7 9 2 6.1 1.3
-8 -9 -2 47.8 2.6
8 9 2 47.2 2.5
8 9 2 47.9 2.4
-9 -9 -2 22.1 2.2
9 9 2 23.2 2
-10 -9 -2 42.2 2.9
10 9 2 49.6 2.7
11 -10 -2 19.5 2.1
10 -10 -2 103.29 4
-10 10 2 95.99 4.4
9 -10 -2 21.3 1.9
-9 10 2 20.1 2.2
8 -10 -2 -0.6 1
-8 10 2 0.5 1.5
7 -10 -2 43 2.2
-7 10 2 39 2.5
6 -10 -2 53.49 2.4
-6 10 2 55.39 2.7
5 -10 -2 14.7 1.4
-5 10 2 14 1.7
4 -10 -2 1.3 0.8
-4 10 2 1.7 0.9
-4 10 2 1.7 1
3 -10 -2 73.69 2.8
3 -10 -2 71.89 2.4
-3 10 2 77.19 2.9
-3 10 2 75.29 2.9
2 -10 -2 -0.6 0.5
2 -10 -2 -0.3 0.7
-2 10 2 0.2 0.9
-2 10 2 0.3 0.8
1 -10 -2 40 1.9
1 -10 -2 44.5 1.6
-1 10 2 41.7 2.1
-1 10 2 43.7 1.9
0 -10 -2 69.29 2.2
0 -10 -2 63.89 2.5
0 10 2 64.99 2.8
-1 -10 -2 20.6 1.1
-1 -10 -2 20.3 1.4
1 10 2 15.7 1.6
-2 -10 -2 1.4 0.7
-2 -10 -2 1.6 0.6
2 10 2 1.4 0.9
-3 -10 -2 4.5 1
-3 -10 -2 4.4 0.7
3 10 2 3.4 1
-4 -10 -2 3.3 1
-4 -10 -2 5.3 0.8
4 10 2 5 1.1
-5 -10 -2 40.4 2.2
-5 -10 -2 42.7 1.8
5 10 2 40 2.3
-6 -10 -2 63.99 2.9
6 10 2 69.29 2.6
6 10 2 61.19 3
-7 -10 -2 24.2 2.1
7 10 2 23.1 1.7
7 10 2 23.9 2
-8 -10 -2 11.9 1.7
8 10 2 13.4 1.6
8 10 2 11.5 1.7
-9 -10 -2 11.3 1.8
9 10 2 14 1.7
10 10 2 6 1.5
10 -11 -2 19.4 2.1
9 -11 -2 123.59 4.4
-9 11 2 112.09 4.8
8 -11 -2 0.6 1.1
-8 11 2 0.8 1.4
7 -11 -2 147.09 4.9
-7 11 2 145.09 5.3
6 -11 -2 37.6 2.1
-6 11 2 37.2 2.4
5 -11 -2 24.3 1.7
-5 11 2 24 1.9
4 -11 -2 26.4 1.7
-4 11 2 29.1 2
-4 11 2 28.3 1.8
3 -11 -2 49.5 2.3
-3 11 2 50.19 2.4
-3 11 2 52.09 2.4
2 -11 -2 8.2 1.1
-2 11 2 9.4 1.4
-2 11 2 6.1 1.2
1 -11 -2 69.19 2.7
-1 11 2 72.29 3
0 -11 -2 13.7 1.3
0 11 2 12 1.6
-1 -11 -2 219.08 6.1
-1 -11 -2 200.88 6.3
1 11 2 197.78 6.6
-2 -11 -2 43 2
-2 -11 -2 41.4 1.7
2 11 2 41.9 2.4
-3 -11 -2 3.2 0.7
-3 -11 -2 2 0.9
3 11 2 1.3 1.1
-4 -11 -2 94.39 3.5
-4 -11 -2 92.89 3.1
4 11 2 87.99 3.7
-5 -11 -2 24.5 1.9
-5 -11 -2 24.5 1.5
5 11 2 23 2
-6 -11 -2 141.39 4.4
-6 -11 -2 134.59 4.8
6 11 2 132.29 5
-7 -11 -2 12.7 1.3
-7 -11 -2 8.6 1.5
7 11 2 8.1 1.5
-8 -11 -2 5.8 1.6
8 11 2 4.7 1.4
8 11 2 5.5 1.3
9 11 2 8.1 1.5
9 -12 -2 22.7 2.1
-9 12 2 25 2.5
8 -12 -2 6.4 1.4
-8 12 2 1.1 1.4
7 -12 -2 71.79 3
-7 12 2 59.89 3.2
6 -12 -2 0.4 1
-6 12 2 0.4 1.4
5 -12 -2 192.78 6.2
-5 12 2 199.38 6.4
4 -12 -2 90.59 3.5
-4 12 2 93.69 3.6
-4 12 2 91.99 3.6
3 -12 -2 22.9 1.7
-3 12 2 25.9 1.9
2 -12 -2 22.3 1.7
-2 12 2 28.3 2
1 -12 -2 232.68 7
-1 12 2 221.88 7.2
0 -12 -2 -0.1 0.8
0 12 2 -0.5 1
-1 -12 -2 80.19 3
1 12 2 76.39 3.4
-2 -12 -2 4.8 1
2 12 2 2.2 1.2
-3 -12 -2 29.7 1.9
3 12 2 29.3 2.2
-4 -12 -2 0.1 1
4 12 2 0.2 1.2
-5 -12 -2 1.1 1.1
5 12 2 2.2 1.4
-6 -12 -2 0.7 1.1
6 12 2 1.8 1.3
-7 -12 -2 4 1.4
7 12 2 7.3 1.6
8 12 2 -0.4 1.4
-8 13 2 4.8 1.6
7 -13 -2 0.1 1.2
-7 13 2 0.2 1.4
6 -13 -2 0.8 1.1
-6 13 2 -0.7 1.2
5 -13 -2 0.7 1.1
-5 13 2 1.8 1.2
4 -13 -2 4.6 1.1
-4 13 2 4.7 2.2
3 -13 -2 24.6 1.8
-3 13 2 22.2 2
2 -13 -2 18 1.7
-2 13 2 19.9 1.9
1 -13 -2 1.7 1
-1 13 2 0.6 1.1
0 -13 -2 2.6 1
0 13 2 3 1.3
-1 -13 -2 2.3 1
1 13 2 0.8 1.2
-2 -13 -2 17.4 1.6
2 13 2 13.4 1.9
-3 -13 -2 3.7 1.1
3 13 2 1.2 1.4
-4 -13 -2 51.19 2.5
4 13 2 44.4 2.8
-5 -13 -2 10.4 1.5
5 13 2 8.4 1.7
-6 -13 -2 4.3 1.4
6 13 2 2.3 1.4
7 13 2 26.6 3.1
6 -14 -2 10.5 1.5
5 -14 -2 0.9 1.2
4 -14 -2 -0.3 1
3 -14 -2 137.39 4.7
-3 14 2 131.69 5.1
2 -14 -2 -0.1 1
-2 14 2 0.4 1.3
1 -14 -2 1.9 1.1
-1 14 2 1.5 1.4
0 -14 -2 63.29 2.8
0 14 2 63.39 3.3
-1 -14 -2 -0.9 0.9
1 14 2 -1.8 1.2
-2 -14 -2 22 1.9
2 14 2 18 2.2
-3 -14 -2 74.79 3.2
3 14 2 61.69 3.5
-4 -14 -2 8 1.5
4 14 2 5.7 1.7
-5 -14 -2 3.9 1.4
5 14 2 3.5 2
4 -15 -2 0.3 1.2
3 -15 -2 93.19 3.7
-3 15 2 90.19 4.1
2 -15 -2 12.2 1.7
-2 15 2 9.1 1.9
1 -15 -2 0.7 1.1
-1 15 2 1.6 1.7
0 -15 -2 1.1 1.2
0 15 2 2.3 1.7
-1 -15 -2 -0.5 1.1
1 15 2 2.7 1.7
-2 -15 -2 1.2 1.2
2 15 2 2.1 1.7
-3 -15 -2 14.2 1.9
2 -16 -2 33.7 2.6
1 -16 -2 6.3 1.9
-3 -13 3 9.3 1.3
-2 -13 3 4.9 1.1
1 13 -3 3.7 1.7
-1 -13 3 2.5 1
0 13 -3 7.4 1.8
0 -13 3 6.3 1.1
-1 13 -3 110.49 4.9
1 -13 3 124.39 4.1
-2 13 -3 74.59 3.9
2 -13 3 79.59 3.1
-3 13 -3 23.3 2.5
3 -13 3 23.4 2.3
-4 13 -3 6 1.7
-5 -12 3 2.5 1.3
-4 -12 3 92.29 3.4
3 12 -3 9.2 1.8
-3 -12 3 13.1 1.4
2 12 -3 5.5 1.6
-2 -12 3 10.8 1.4
1 12 -3 -0.6 1.3
-1 -12 3 -0.1 0.9
0 12 -3 14.9 2.2
0 -12 3 14.9 1.4
-1 12 -3 -0.1 1.3
1 -12 3 1.1 0.9
-2 12 -3 1.9 1.4
2 -12 3 0.1 0.9
-3 12 -3 39.9 2.7
3 -12 3 43 2.1
-4 12 -3 9.2 1.7
4 -12 3 8.2 1.2
5 -12 3 12.9 1.5
6 -12 3 73.29 3
7 -12 3 1.3 1.1
6 11 -3 6.8 1.7
-6 -11 3 14 1.5
-6 -11 3 16.3 1.9
5 11 -3 5.2 1.5
-5 -11 3 7.7 1.2
-5 -11 3 5.8 1.4
4 11 -3 2.2 1.3
-4 -11 3 2.5 1.1
-4 -11 3 2.8 0.9
3 11 -3 5.6 1.7
-3 -11 3 6.1 1.2
-3 -11 3 5.6 1
2 11 -3 18.4 2.1
-2 -11 3 18 1.5
-2 -11 3 20.6 1.6
1 11 -3 2.4 1.5
-1 -11 3 1.6 0.9
0 11 -3 48.6 2.9
0 -11 3 51.49 2.2
-1 11 -3 14.5 1.8
1 -11 3 15.7 1.4
-2 11 -3 1.3 1.2
2 -11 3 1.1 0.8
-3 11 -3 124.09 4.7
3 -11 3 128.59 4.2
-4 11 -3 6 1.4
4 -11 3 6 1.1
-5 11 -3 0.8 1.2
5 -11 3 0 0.9
6 -11 3 292.07 8.7
-7 11 -3 179.88 6.1
-8 11 -3 42 2.7
8 -11 3 36.2 2.1
-9 11 -3 78.79 3.7
9 -11 3 65.69 3
7 10 -3 21.7 2.3
-7 -10 3 22.7 2.3
-7 -10 3 26.6 1.9
-6 -10 3 121.29 4.5
-6 -10 3 121.59 4.2
5 10 -3 16.1 2
-5 -10 3 21.4 2
-5 -10 3 20.3 1.6
4 10 -3 12.6 1.8
-4 -10 3 12.9 1.3
-4 -10 3 13.2 1.6
3 10 -3 7.3 1.5
-3 -10 3 5.9 1.1
-3 -10 3 5.3 1
2 10 -3 246.18 8.4
-2 -10 3 276.47 7.9
-2 -10 3 268.77 7.8
1 10 -3 1.8 1.3
-1 -10 3 -0.3 0.8
-1 -10 3 1.6 0.8
0 10 -3 43.6 2.5
0 -10 3 44.1 2
0 -10 3 45.3 2
-1 10 -3 80.79 3.4
1 -10 3 80.59 2.9
1 -10 3 82.19 3.6
-2 10 -3 16 1.7
2 -10 3 13.3 1.3
-3 10 -3 16.1 1.7
3 -10 3 17.6 1.4
-4 10 -3 0.9 1.1
4 -10 3 0.8 0.8
-5 10 -3 100.49 3.7
-5 10 -3 96.69 3.7
5 -10 3 97.79 3.5
-6 10 -3 3.2 1.3
6 -10 3 1.1 0.9
-7 10 -3 3 1.4
7 -10 3 0 0.9
-8 10 -3 11 1.8
8 -10 3 15.4 1.5
-9 10 -3 24.1 2.4
9 -10 3 26.5 1.8
-10 10 -3 30.9 2.9
10 -10 3 27.5 1.9
-8 -9 3 0.8 1.6
-8 -9 3 1.3 1.1
7 9 -3 6.9 1.4
-7 -9 3 10.8 1.4
-7 -9 3 10.8 1.7
-6 -9 3 12.3 1.5
-6 -9 3 17.5 1.9
5 9 -3 1.8 1.3
-5 -9 3 2.8 0.9
-5 -9 3 1.9 1.2
4 9 -3 22.3 2
-4 -9 3 25.4 1.8
-4 -9 3 23.3 1.5
3 9 -3 77.59 3.5
-3 -9 3 87.39 3.1
-3 -9 3 86.69 3
2 9 -3 35.7 2.2
-2 -9 3 36.5 1.8
-2 -9 3 34.6 1.7
1 9 -3 8.1 1.4
-1 -9 3 8.2 1.1
-1 -9 3 8.1 1.1
0 9 -3 60.49 2.9
0 -9 3 65.09 2.4
0 -9 3 64.59 2.4
-1 9 -3 24.5 1.9
1 -9 3 27.1 1.5
1 -9 3 25.7 1.5
-2 9 -3 23.6 1.9
2 -9 3 23.4 1.4
2 -9 3 23.3 1.4
-3 9 -3 -0.1 0.9
3 -9 3 0.4 0.7
-4 9 -3 66.49 2.9
-4 9 -3 72.19 2.8
4 -9 3 64.69 2.5
-5 9 -3 58.69 2.6
-5 9 -3 57.89 2.6
5 -9 3 56.99 2.4
-6 9 -3 2.4 1.2
6 -9 3 0.8 0.8
-7 9 -3 31.1 2.2
7 -9 3 33.1 1.8
-8 9 -3 99.19 4
8 -9 3 100.99 3.6
-9 9 -3 8.1 1.7
9 -9 3 9.4 1.3
-10 9 -3 74.89 3.6
10 -9 3 69.49 3
11 -9 3 17.2 1.7
-9 -8 3 7.2 2.4
-8 -8 3 44.5 2.9
7 8 -3 13.4 1.7
-7 -8 3 16.3 1.5
-7 -8 3 11.4 1.8
6 8 -3 -0.2 1.1
-6 -8 3 -0.3 1.1
-6 -8 3 -0.1 0.8
5 8 -3 7 1.4
-5 -8 3 3.2 1.2
-5 -8 3 6.7 1
4 8 -3 25 1.9
-4 -8 3 25.4 1.8
-4 -8 3 25.4 1.5
3 8 -3 10.9 1.4
-3 -8 3 11.6 1.1
-3 -8 3 12.9 1.4
2 8 -3 16.2 1.6
-2 -8 3 20.9 1.3
-2 -8 3 19.9 1.4
1 8 -3 55.29 2.6
-1 -8 3 59.59 2.2
-1 -8 3 62.49 2.3
0 8 -3 115.09 4.3
0 -8 3 124.19 3.9
0 -8 3 130.99 3.9
-1 8 -3 20.4 1.7
1 -8 3 22.6 1.3
1 -8 3 21 1.3
-2 8 -3 118.99 3.9
-2 8 -3 122.09 4.2
2 -8 3 129.69 3.9
2 -8 3 121.69 3.9
-3 8 -3 362.46 10.3
-3 8 -3 360.56 10.6
3 -8 3 367.06 10.2
3 -8 3 351.86 10.2
-4 8 -3 19.6 1.5
-4 8 -3 19.6 1.5
4 -8 3 18 1.2
4 -8 3 17.6 1.3
-5 8 -3 0 1
-5 8 -3 0.5 0.9
5 -8 3 -0.6 0.7
-6 8 -3 188.88 6
6 -8 3 190.58 5.8
-7 8 -3 68.19 3
7 -8 3 68.39 2.7
-8 8 -3 1.7 1.2
8 -8 3 1.7 0.8
-9 8 -3 85.29 3.7
9 -8 3 84.59 3.2
-10 8 -3 81.89 3.8
10 -8 3 82.79 3.2
-11 8 -3 11.2 1.9
11 -8 3 6.6 1.3
9 7 -3 24.2 2.2
-9 -7 3 24.6 2.5
8 7 -3 99.29 3.9
-8 -7 3 97.19 4
7 7 -3 29.1 1.9
7 7 -3 26.7 2
-7 -7 3 30.6 2.2
6 7 -3 77.79 3.1
-6 -7 3 81.19 3.2
5 7 -3 16.5 1.7
-5 -7 3 17 1.3
-5 -7 3 17.4 1.6
4 7 -3 0.7 1
-4 -7 3 0.7 0.9
-4 -7 3 1.6 0.7
3 7 -3 1.7 1
-3 -7 3 1.3 0.9
-3 -7 3 2 0.7
2 7 -3 87.49 3.4
-2 -7 3 94.79 3.1
-2 -7 3 94.59 3.1
1 7 -3 249.88 7.6
-1 -7 3 256.77 7.3
-1 -7 3 249.58 7.3
0 7 -3 13 1.3
0 -7 3 14.6 1.1
0 -7 3 12.7 1
-1 7 -3 70.59 2.8
-1 7 -3 76.39 2.4
1 -7 3 73.59 2.5
1 -7 3 71.39 2.5
-2 7 -3 29.2 1.4
-2 7 -3 28.4 1.7
2 -7 3 29.7 1.4
2 -7 3 28.5 1.4
-3 7 -3 -0.3 0.8
-3 7 -3 1 0.8
3 -7 3 0.3 0.5
3 -7 3 0.2 0.6
-4 7 -3 6.3 1
-4 7 -3 6.9 1.1
4 -7 3 4.5 0.7
4 -7 3 5.9 0.8
-5 7 -3 8.7 1.2
-5 7 -3 10.8 1.2
5 -7 3 10.1 1
5 -7 3 9 1.1
-6 7 -3 31.3 1.9
-6 7 -3 30.4 2.3
6 -7 3 28.2 1.6
-7 7 -3 1.3 1
7 -7 3 0.1 0.7
-8 7 -3 71.29 3.1
8 -7 3 68.29 2.7
-9 7 -3 23.3 2.1
9 -7 3 23.9 1.6
-10 7 -3 0.3 1.4
10 -7 3 0.6 0.9
-11 7 -3 5 1.6
11 -7 3 6 1.2
12 -7 3 0.5 1.1
10 6 -3 3.3 1.4
-10 -6 3 -0.8 1.6
9 6 -3 64.29 3.1
-9 -6 3 72.09 3.4
8 6 -3 -0.9 1
-8 -6 3 -1.2 1.2
7 6 -3 8.7 1.2
7 6 -3 10 1.4
-7 -6 3 10.9 1.5
6 6 -3 4.1 1.1
6 6 -3 6.3 1.1
-6 -6 3 7.5 1.3
5 6 -3 1 0.8
5 6 -3 -0.6 0.9
-5 -6 3 0.9 0.9
4 6 -3 57.89 2.6
-4 -6 3 63.89 2.5
-4 -6 3 63.79 2.3
3 6 -3 2.1 0.9
-3 -6 3 2.8 0.7
-3 -6 3 2.3 0.8
2 6 -3 1.6 0.8
-2 -6 3 0 0.7
-2 -6 3 1.9 0.6
1 6 -3 38.6 1.9
-1 -6 3 40.2 1.7
-1 -6 3 38.4 1.6
0 6 -3 32.7 1.7
0 6 -3 33.8 1.3
0 -6 3 35.4 1.4
0 -6 3 31.9 1.4
-1 6 -3 159.28 4.5
-1 6 -3 157.18 4.9
1 -6 3 154.98 4.5
1 -6 3 150.08 4.6
-2 6 -3 1 0.8
-2 6 -3 1.4 0.6
2 -6 3 0.1 0.5
2 -6 3 0.7 0.6
-3 6 -3 22.7 1.4
-3 6 -3 24.2 1.4
3 -6 3 22.8 1.1
3 -6 3 24.4 1.2
-4 6 -3 26.3 1.5
-4 6 -3 27 1.5
4 -6 3 26.1 1.3
4 -6 3 27.6 1.2
-5 6 -3 337.37 9.8
-5 6 -3 349.17 9.7
5 -6 3 333.77 9.5
5 -6 3 337.77 9.6
-6 6 -3 16.8 1.2
-6 6 -3 18.4 1.6
6 -6 3 16.1 1.2
6 -6 3 17.7 1.1
-7 6 -3 320.17 9.6
7 -6 3 326.37 9.3
7 -6 3 324.27 9.2
-8 6 -3 429.46 12.7
8 -6 3 443.16 12.4
-9 6 -3 32 2.2
9 -6 3 32.1 1.8
-10 6 -3 28.9 2.3
10 -6 3 26.7 1.7
-11 6 -3 184.68 6.3
11 -6 3 178.88 5.8
-12 6 -3 0.7 1.6
12 -6 3 0.3 1
10 5 -3 52.59 2.8
-10 -5 3 50.39 3
9 5 -3 10.2 1.5
-9 -5 3 11.1 1.7
8 5 -3 9.6 1.4
-8 -5 3 11.3 1.5
7 5 -3 31.1 1.8
7 5 -3 29.3 1.8
-7 -5 3 30.7 1.9
6 5 -3 6.3 1
6 5 -3 4.3 1
-6 -5 3 8.1 1.2
5 5 -3 0.8 0.7
5 5 -3 1.3 0.9
-5 -5 3 -0.4 0.8
4 5 -3 40.5 2
4 5 -3 42.5 1.8
-4 -5 3 42.7 1.9
3 5 -3 1.5 0.8
-3 -5 3 2.4 0.6
-3 -5 3 1 0.7
2 5 -3 13.8 1.2
-2 -5 3 14.9 1.1
-2 -5 3 15.9 1
1 5 -3 315.97 9.1
-1 -5 3 323.57 8.9
-1 -5 3 311.67 8.9
0 5 -3 75.99 2.7
0 5 -3 74.09 2.3
0 -5 3 77.79 2.4
0 -5 3 74.69 2.5
-1 5 -3 939.61 25.2
-1 5 -3 897.11 24.9
1 -5 3 917.01 25
1 -5 3 922.81 24.9
-2 5 -3 0.6 0.6
-2 5 -3 0.3 0.6
2 -5 3 0.3 0.4
2 -5 3 0.1 0.5
-3 5 -3 321.07 9
-3 5 -3 308.57 8.9
3 -5 3 319.57 8.7
3 -5 3 307.67 8.8
-4 5 -3 1.5 0.6
-4 5 -3 1.6 0.7
4 -5 3 1.7 0.6
4 -5 3 2 0.5
-5 5 -3 136.89 4.4
-5 5 -3 142.69 4.2
5 -5 3 136.69 4.1
5 -5 3 140.99 4.3
-6 5 -3 30.8 1.4
-6 5 -3 30.6 1.7
6 -5 3 30.5 1.3
6 -5 3 31.2 1.5
-7 5 -3 205.48 6.4
7 -5 3 205.88 6
7 -5 3 206.08 6.1
-8 5 -3 34.6 2.1
8 -5 3 36 1.6
8 -5 3 38.8 1.8
-9 5 -3 22.4 1.9
9 -5 3 20.4 1.4
-10 5 -3 32.6 2.3
10 -5 3 29.3 1.8
-11 5 -3 15.9 2
11 -5 3 13.7 1.5
-12 5 -3 -0.2 1.4
12 -5 3 0.5 1.1
11 4 -3 61.89 3.2
-11 -4 3 68.99 3.5
10 4 -3 4.9 1.2
-10 -4 3 3.7 1.4
9 4 -3 25.9 1.8
-9 -4 3 25 2
8 4 -3 136.59 4.7
-8 -4 3 146.69 4.9
7 4 -3 44.2 2.3
7 4 -3 45.6 2.1
-7 -4 3 43.7 2.2
6 4 -3 33.2 1.8
6 4 -3 37 1.8
-6 -4 3 36 1.9
5 4 -3 371.16 10.6
-5 -4 3 375.36 10.6
4 4 -3 1.5 0.8
4 4 -3 0.9 0.6
-4 -4 3 1.9 0.7
3 4 -3 11.5 1.1
3 4 -3 9.5 0.9
-3 -4 3 11.2 1
2 4 -3 332.17 9.5
-2 -4 3 337.27 9.3
-2 -4 3 333.07 9.3
1 4 -3 22.4 0.8
1 4 -3 22.8 1.2
-1 -4 3 21.7 1.1
-1 -4 3 18.1 1
0 4 -3 48 1.9
0 4 -3 49.3 1.6
0 -4 3 47.9 1.7
0 -4 3 49.1 1.7
-1 4 -3 251.17 7
-1 4 -3 246.88 7.2
1 -4 3 253.67 6.9
1 -4 3 247.18 7
-2 4 -3 1.3 0.6
-2 4 -3 0.5 0.5
2 -4 3 0.6 0.4
2 -4 3 0.5 0.4
-3 4 -3 3.8 0.7
-3 4 -3 2.5 0.6
3 -4 3 2.7 0.5
3 -4 3 2.7 0.4
-4 4 -3 1.6 0.6
-4 4 -3 1.9 0.7
4 -4 3 1.2 0.5
4 -4 3 1.1 0.4
-5 4 -3 55.29 2.1
-5 4 -3 52.39 1.9
5 -4 3 53.09 1.9
5 -4 3 51.99 1.8
-6 4 -3 101.89 3.1
-6 4 -3 103.09 3.5
6 -4 3 99.39 3.3
6 -4 3 101.39 3.1
-7 4 -3 -0.9 0.7
7 -4 3 0.9 0.6
7 -4 3 0.3 0.6
-8 4 -3 19.9 1.7
8 -4 3 21.7 1.3
8 -4 3 21.5 1.3
-9 4 -3 129.89 4.5
-9 4 -3 131.99 4.1
9 -4 3 131.09 4.3
-10 4 -3 53.89 2.4
-10 4 -3 53.49 2.7
10 -4 3 53.59 2.3
-11 4 -3 29.9 2.2
11 -4 3 25.9 1.8
-12 4 -3 103.39 4.2
12 -4 3 101.99 3.8
-13 4 -3 8.9 1.8
13 -4 3 9 1.3
11 3 -3 63.69 3.1
-11 -3 3 61.39 3.2
10 3 -3 4.1 1.3
-10 -3 3 5.8 1.4
9 3 -3 -1 1
-9 -3 3 -0.2 1
8 3 -3 -0.1 0.9
-8 -3 3 1.1 1
7 3 -3 13.6 1.3
-7 -3 3 11.5 1.4
6 3 -3 54.29 2.3
6 3 -3 61.59 2.3
-6 -3 3 58.59 2.4
5 3 -3 27.5 1.4
5 3 -3 24.5 1.4
-5 -3 3 26.9 1.5
4 3 -3 2 0.6
4 3 -3 1.6 0.6
-4 -3 3 1.3 0.6
3 3 -3 254.27 7.2
3 3 -3 244.88 7.1
-3 -3 3 245.18 7.1
2 3 -3 154.88 4.6
2 3 -3 156.98 4.7
-2 -3 3 157.18 4.5
1 3 -3 25.4 1.2
1 3 -3 23.6 0.9
-1 -3 3 23.2 1
-1 -3 3 23.4 1
0 3 -3 29.5 1.1
0 3 -3 32.4 1.4
0 -3 3 30.5 1.2
0 -3 3 34.3 1.2
-1 3 -3 259.17 7.2
-1 3 -3 252.87 7.1
1 -3 3 254.17 7.1
1 -3 3 253.37 7
-2 3 -3 238.48 6.6
-2 3 -3 227.08 6.6
2 -3 3 237.68 6.4
2 -3 3 229.88 6.5
-3 3 -3 219.78 6.3
-3 3 -3 223.68 6.3
3 -3 3 222.58 6.3
3 -3 3 222.48 6.1
-4 3 -3 300.47 8.3
-4 3 -3 289.37 8.4
4 -3 3 297.47 8.3
4 -3 3 293.07 8.1
-5 3 -3 510.35 14.2
-5 3 -3 507.25 14
5 -3 3 520.75 14.1
5 -3 3 511.05 14
-6 3 -3 364.96 10.3
-6 3 -3 349.77 9.9
6 -3 3 359.96 10.1
6 -3 3 368.56 10
-7 3 -3 873.71 24
7 -3 3 866.71 23.8
-8 3 -3 6.6 0.8
-8 3 -3 7 1.1
8 -3 3 5.2 0.9
-9 3 -3 2.8 0.8
-9 3 -3 1.7 1
9 -3 3 0.5 0.7
-10 3 -3 20.4 1.4
-10 3 -3 18.3 1.8
10 -3 3 19.4 1.4
-11 3 -3 4 1.3
-11 3 -3 1.1 0.8
11 -3 3 3.5 1
-12 3 -3 12.4 1.8
12 -3 3 11.6 1.5
-13 3 -3 5.3 1.5
13 -3 3 4 1.2
11 2 -3 0.4 1
-11 -2 3 -0.1 1.2
10 2 -3 2.7 1
-10 -2 3 4.5 1.3
9 2 -3 22.7 1.6
-9 -2 3 21 1.8
8 2 -3 0.1 0.6
-8 -2 3 0.3 0.8
7 2 -3 17.2 1.3
-7 -2 3 19.4 1.4
6 2 -3 39.4 1.8
6 2 -3 42.4 1.7
-6 -2 3 38 1.8
5 2 -3 85.99 2.7
5 2 -3 78.99 2.7
-5 -2 3 78.89 2.7
-5 -2 3 77.09 2.4
4 2 -3 43.3 1.7
4 2 -3 41.6 1.7
-4 -2 3 43.4 1.7
-4 -2 3 41.1 1.4
3 2 -3 894.61 23.6
3 2 -3 867.31 23.5
-3 -2 3 868.11 23.5
-3 -2 3 834.32 23.3
2 2 -3 475.75 13.2
2 2 -3 484.95 13.2
2 2 -3 481.35 13
-2 -2 3 477.75 13.1
1 2 -3 242.98 6.8
1 2 -3 236.68 6.6
-1 -2 3 239.98 6.7
-1 -2 3 241.38 6.7
0 2 -3 1049.59 27.9
0 2 -3 1006 27.7
0 -2 3 1016.6 27.8
0 -2 3 1042.7 27.7
-1 2 -3 56.29 1.8
-1 2 -3 55.49 1.9
1 -2 3 55.49 1.8
-2 2 -3 -0.1 0.5
-2 2 -3 0 0.4
2 -2 3 0 0.3
-3 2 -3 103.69 3.2
-3 2 -3 106.29 3.2
3 -2 3 108.19 3
3 -2 3 106.69 3.2
-4 2 -3 5.5 0.6
-4 2 -3 5.4 0.7
4 -2 3 5.3 0.5
4 -2 3 4.5 0.6
-5 2 -3 1.1 0.4
-5 2 -3 -0.1 0.6
5 -2 3 0.2 0.4
5 -2 3 -0.4 0.4
-6 2 -3 199.68 6
6 -2 3 204.38 5.6
6 -2 3 200.78 5.9
-7 2 -3 1.2 0.8
-7 2 -3 1.1 0.6
7 -2 3 1.6 0.7
-8 2 -3 12.5 1.1
-8 2 -3 9.7 1.3
8 -2 3 10.4 1
-9 2 -3 1.3 1
-9 2 -3 1.7 0.7
9 -2 3 0.6 0.7
-10 2 -3 57.89 2.6
-10 2 -3 56.89 2.3
10 -2 3 58.69 2.4
-11 2 -3 21.1 1.6
-11 2 -3 26.3 2
11 -2 3 23.2 1.7
-12 2 -3 0.3 0.9
-12 2 -3 1.2 1.2
12 -2 3 0.2 0.9
-13 2 -3 2.9 1.4
13 -2 3 2.3 1.2
12 1 -3 270.47 8.9
-12 -1 3 301.67 9.1
11 1 -3 82.29 3.4
-11 -1 3 80.89 3.5
10 1 -3 0.3 1
-10 -1 3 0.8 1.1
9 1 -3 52.99 2.4
-9 -1 3 54.99 2.5
8 1 -3 1.2 0.9
-8 -1 3 1.9 0.9
7 1 -3 30.4 1.6
-7 -1 3 29.5 1.3
-7 -1 3 29.7 1.6
6 1 -3 171.38 4.9
6 1 -3 166.38 5
-6 -1 3 167.28 5.1
-6 -1 3 157.68 4.8
5 1 -3 6.1 0.7
5 1 -3 6.9 0.8
-5 -1 3 5.3 0.6
-5 -1 3 5.6 0.8
4 1 -3 0.4 0.4
4 1 -3 0.9 0.5
-4 -1 3 0.3 0.5
-4 -1 3 0.6 0.3
3 1 -3 46.1 1.6
3 1 -3 47 1.6
-3 -1 3 42.2 1.6
-3 -1 3 42.5 1.4
2 1 -3 0.1 0.4
2 1 -3 0.1 0.4
2 1 -3 0.3 0.3
-2 -1 3 0.4 0.4
1 1 -3 906.01 23.9
1 1 -3 857.91 23.7
1 1 -3 897.01 23.8
-1 -1 3 864.01 23.7
0 1 -3 14 0.7
0 1 -3 13.8 0.8
0 -1 3 13.8 0.6
0 -1 3 13.3 0.7
-1 1 -3 323.67 9
1 -1 3 332.17 9
-2 1 -3 0.6 0.4
-2 1 -3 1.4 0.4
2 -1 3 0.7 0.3
-3 1 -3 929.81 25.4
-3 1 -3 950.1 25.4
3 -1 3 943.61 25.4
3 -1 3 932.01 25.2
-4 1 -3 146.49 4.2
-4 1 -3 146.89 4.4
4 -1 3 148.59 4.2
4 -1 3 150.68 4.3
-5 1 -3 36.1 1.4
-5 1 -3 37.4 1.6
5 -1 3 36.2 1.4
5 -1 3 42.3 1.3
-6 1 -3 521.05 14
-6 1 -3 509.55 14.2
6 -1 3 506.35 14.1
6 -1 3 506.75 13.9
-7 1 -3 36.3 1.5
-7 1 -3 35.4 1.7
7 -1 3 34.4 1.5
-8 1 -3 107.39 3.6
-8 1 -3 101.89 3.4
8 -1 3 107.29 3.5
-9 1 -3 364.76 10.4
-9 1 -3 360.26 10.2
9 -1 3 353.26 10.3
-10 1 -3 7 1
-10 1 -3 6.2 1.2
10 -1 3 6.3 1
-11 1 -3 23.6 1.8
-11 1 -3 22.9 1.6
11 -1 3 21.2 1.6
-12 1 -3 32.2 2
-12 1 -3 37.6 2.3
12 -1 3 32 2
-13 1 -3 0.8 1.2
-13 1 -3 -0.2 1
13 -1 3 0.4 1
12 0 -3 24.7 2
-12 0 3 25.1 2.1
11 0 -3 2.7 1.2
-11 0 3 2.5 1.1
10 0 -3 64.99 2.8
-10 0 3 64.09 2.9
9 0 -3 10 1.4
-9 0 3 11.2 1.4
8 0 -3 61.79 2.4
-8 0 3 62.19 2.5
-8 0 3 60.39 2.3
7 0 -3 12.3 1.1
-7 0 3 11.1 1.1
-7 0 3 11.6 1.2
6 0 -3 12.2 1
6 0 -3 13.2 0.8
-6 0 3 11.5 1.1
-6 0 3 14 1
5 0 -3 5.1 0.7
5 0 -3 4.5 0.6
-5 0 3 4.4 0.5
-5 0 3 4.8 0.7
4 0 -3 826.52 22.3
4 0 -3 832.22 22.2
-4 0 3 808.82 22.2
-4 0 3 811.72 22.3
3 0 -3 79.19 2.5
3 0 -3 82.29 2.5
-3 0 3 78.89 2.4
-3 0 3 81.39 2.5
2 0 -3 35 1.3
2 0 -3 37.5 1.3
-2 0 3 35.1 1.3
-2 0 3 36.5 1.2
1 0 -3 795.92 21.9
1 0 -3 840.12 22
1 0 -3 805.42 21.9
1 0 -3 802.42 21.9
0 0 -3 1207.78 30.3
0 0 -3 1043.4 30.2
0 0 -3 1166.28 30.1
0 0 3 1072.99 30.2
-1 0 -3 3.9 0.5
-1 0 -3 3.3 0.6
1 0 3 3.8 0.4
-2 0 -3 277.57 7.4
-2 0 -3 261.97 7.4
2 0 3 261.87 7.3
-3 0 -3 648.04 17.8
-3 0 -3 663.83 17.9
3 0 3 652.53 17.9
3 0 3 675.53 17.8
-4 0 -3 135.19 4.1
-4 0 -3 138.69 3.9
4 0 3 143.49 3.9
4 0 3 132.99 4
-5 0 -3 178.28 5.2
-5 0 -3 181.48 5.1
5 0 3 184.68 5.1
5 0 3 170.08 5
-6 0 -3 35.4 1.4
-6 0 -3 33.9 1.5
6 0 3 35.8 1.2
6 0 3 34.1 1.4
-7 0 -3 80.59 2.8
-7 0 -3 81.79 2.7
7 0 3 81.69 2.7
-8 0 -3 78.09 2.7
-8 0 -3 73.19 2.8
8 0 3 74.19 2.7
-9 0 -3 172.08 5.4
-9 0 -3 173.48 5.3
9 0 3 173.18 5.3
-10 0 -3 12.6 1.3
-10 0 -3 10.5 1.4
10 0 3 9.9 1.2
-11 0 -3 3.3 1.1
-11 0 -3 1.3 0.9
11 0 3 2.3 1
-12 0 -3 2.7 1.1
-12 0 -3 0.7 1
12 0 3 1.9 1
-13 0 -3 -0.9 1.1
13 0 3 0.4 1.2
12 -1 -3 14.7 1.8
-12 1 3 12.6 1.7
11 -1 -3 12.8 1.6
-11 1 3 19.7 1.8
10 -1 -3 239.78 7.1
-10 1 3 215.38 8
-10 1 3 238.38 7.3
9 -1 -3 15.4 1.4
-9 1 3 10 1.4
-9 1 3 10.9 1.4
8 -1 -3 77.69 2.9
-8 1 3 82.79 3
-8 1 3 76.69 2.8
7 -1 -3 310.87 8.9
-7 1 3 307.97 8.9
-7 1 3 308.57 8.8
6 -1 -3 14 1
-6 1 3 12.8 1
-6 1 3 14 1.1
5 -1 -3 205.58 5.8
5 -1 -3 207.78 6
-5 1 3 209.98 6
-5 1 3 207.88 6.1
4 -1 -3 146.89 4.3
4 -1 -3 146.79 4.4
4 -1 -3 151.98 4.2
-4 1 3 147.29 4.3
3 -1 -3 58.59 1.8
3 -1 -3 57.09 1.9
3 -1 -3 59.59 2
-3 1 3 57.99 1.9
2 -1 -3 60.59 1.9
2 -1 -3 62.09 2
2 -1 -3 62.09 1.9
-2 1 3 62.69 1.9
1 -1 -3 31.4 1.1
1 -1 -3 28.7 1.1
1 -1 -3 30.1 1.1
1 -1 -3 31.5 1
0 -1 -3 400.46 11.1
0 -1 -3 408.66 11
0 1 3 426.16 11
0 1 3 388.06 11.1
-1 -1 -3 774.02 20.2
-1 -1 -3 770.52 20.3
1 1 3 760.52 20.3
1 1 3 708.03 20.3
-2 -1 -3 94.39 2.8
-2 -1 -3 100.89 2.7
2 1 3 97.49 2.8
2 1 3 92.79 2.8
-3 -1 -3 379.26 10.1
-3 -1 -3 366.06 10.2
3 1 3 371.66 10.2
3 1 3 373.66 10.2
-4 -1 -3 107.59 3.1
-4 -1 -3 108.09 3.2
4 1 3 106.59 3.1
4 1 3 105.39 3.2
-5 -1 -3 279.27 7.8
-5 -1 -3 276.17 7.8
5 1 3 282.37 7.7
5 1 3 271.57 7.8
-6 -1 -3 31.8 1.4
-6 -1 -3 30.9 1.3
6 1 3 31.5 1.2
6 1 3 31.4 1.3
-7 -1 -3 486.75 13.6
-7 -1 -3 494.85 13.6
7 1 3 488.65 13.3
7 1 3 487.45 13.6
-8 -1 -3 188.68 5.7
-8 -1 -3 185.68 5.7
8 1 3 189.88 5.7
-9 -1 -3 64.39 2.5
-9 -1 -3 65.19 2.6
9 1 3 64.09 2.5
-10 -1 -3 9.6 1.3
-10 -1 -3 11.6 1.3
10 1 3 9.4 1.2
-11 -1 -3 62.99 2.6
-11 -1 -3 55.99 2.6
11 1 3 56.19 2.5
-12 -1 -3 -0.5 1
12 1 3 0.3 1.1
-13 -1 -3 10.1 1.6
13 1 3 14.3 1.8
12 -2 -3 10 1.5
-12 2 3 12.5 1.7
11 -2 -3 10.8 1.5
-11 2 3 8.1 1.7
-11 2 3 11.9 1.6
10 -2 -3 17.6 1.6
-10 2 3 18.3 1.6
-10 2 3 19.8 1.7
9 -2 -3 1.5 0.9
-9 2 3 0.8 0.8
-9 2 3 0.7 0.9
8 -2 -3 159.48 4.9
-8 2 3 157.48 5
-8 2 3 157.18 5
7 -2 -3 3.2 0.8
-7 2 3 3 0.8
-7 2 3 3.1 0.9
6 -2 -3 4.1 0.7
6 -2 -3 3.7 0.8
-6 2 3 5.5 0.8
5 -2 -3 55.69 1.9
5 -2 -3 55.19 2
-5 2 3 56.69 2
4 -2 -3 9.7 0.7
4 -2 -3 8.6 0.8
-4 2 3 9.1 0.8
-4 2 3 12.6 0.5
3 -2 -3 28.4 1.1
3 -2 -3 28.1 1.2
-3 2 3 31.2 1
-3 2 3 29.2 1.2
2 -2 -3 319.87 9.2
2 -2 -3 328.77 9.1
-2 2 3 344.67 9.1
-2 2 3 337.87 9.2
1 -2 -3 1934.01 54.79
1 -2 -3 2127.69 55.29
1 -2 -3 2119.99 54.79
-1 2 3 1969.5 54.99
0 -2 -3 1057.59 27.9
0 -2 -3 1060.29 28
0 2 3 990.3 28.1
-1 -2 -3 19.7 0.8
-1 -2 -3 17.2 0.8
1 2 3 19.6 0.8
1 2 3 20.9 0.7
-2 -2 -3 133.69 3.8
-2 -2 -3 132.39 3.8
2 2 3 135.99 3.7
2 2 3 132.69 3.8
-3 -2 -3 13.9 0.8
-3 -2 -3 14.5 0.8
3 2 3 14.4 0.7
3 2 3 13.9 0.7
-4 -2 -3 19.5 1
-4 -2 -3 19.3 1
4 2 3 19.7 0.9
4 2 3 20.6 0.9
-5 -2 -3 708.23 19.4
-5 -2 -3 711.93 19.4
5 2 3 708.23 19.3
5 2 3 718.73 19.4
-6 -2 -3 15.8 1
-6 -2 -3 15.1 1
6 2 3 15.3 0.8
6 2 3 13.6 1
-7 -2 -3 23.5 1.3
-7 -2 -3 23 1.3
7 2 3 22.3 1.1
7 2 3 23.5 1.2
-8 -2 -3 16 1.3
-8 -2 -3 17 1.2
8 2 3 15.2 1.2
-9 -2 -3 109.79 3.7
-9 -2 -3 106.29 3.6
9 2 3 106.89 3.6
-10 -2 -3 10.4 1.3
-10 -2 -3 9.1 1.2
10 2 3 7.8 1.1
-11 -2 -3 0 1
11 2 3 0.3 1
-12 -2 -3 8.3 1.4
12 2 3 10.9 1.4
-13 -2 -3 0.5 1.2
13 2 3 -0.4 1.2
12 -3 -3 14.3 1.7
-12 3 3 14.2 1.7
-12 3 3 14.3 2.5
11 -3 -3 0.4 1
-11 3 3 -0.4 0.9
-11 3 3 0.5 1.1
10 -3 -3 17.9 1.5
-10 3 3 19.8 1.6
-10 3 3 18.5 1.8
9 -3 -3 111.39 3.7
-9 3 3 113.59 3.9
-9 3 3 107.39 3.8
8 -3 -3 65.79 2.4
-8 3 3 59.19 2.6
7 -3 -3 54.89 2.1
7 -3 -3 54.79 2.2
-7 3 3 55.19 2.3
6 -3 -3 6.7 0.8
6 -3 -3 5.2 0.8
-6 3 3 6.2 0.8
5 -3 -3 83.49 2.8
5 -3 -3 85.69 2.6
-5 3 3 82.19 2.8
4 -3 -3 110.29 3.1
4 -3 -3 100.89 3.2
-4 3 3 106.59 3.2
-4 3 3 100.39 2.9
3 -3 -3 33.7 1.1
3 -3 -3 30.3 1.3
-3 3 3 33.5 1.3
-3 3 3 30.9 1.1
2 -3 -3 335.17 8.9
2 -3 -3 309.47 9
-2 3 3 320.67 8.9
-2 3 3 341.37 9.1
1 -3 -3 0.9 0.4
-1 3 3 1.5 0.4
-1 3 3 1.7 0.4
0 -3 -3 709.53 19.5
0 -3 -3 696.23 19.4
0 3 3 752.02 19.5
-1 -3 -3 1442.46 40.1
-1 -3 -3 1454.05 40.1
1 3 3 1576.04 40.1
-2 -3 -3 42.4 1.4
-2 -3 -3 43 1.5
2 3 3 44.9 1.5
2 3 3 44.8 1.3
-3 -3 -3 346.57 9.8
-3 -3 -3 360.56 9.8
3 3 3 360.66 9.8
3 3 3 357.76 9.7
-4 -3 -3 639.64 17.3
-4 -3 -3 633.94 17.4
4 3 3 640.94 17.4
4 3 3 635.24 17.3
-5 -3 -3 189.68 5.5
-5 -3 -3 189.68 5.4
5 3 3 187.18 5.4
5 3 3 192.48 5.4
-6 -3 -3 14.8 1.1
-6 -3 -3 16.9 1
6 3 3 16.1 1
6 3 3 16.7 1
-7 -3 -3 59.29 2.2
-7 -3 -3 59.99 2.3
7 3 3 62.89 2.1
7 3 3 57.59 2.2
-8 -3 -3 28.2 1.5
-8 -3 -3 27.6 1.6
8 3 3 28.1 1.5
-9 -3 -3 183.98 5.5
-9 -3 -3 176.88 5.7
9 3 3 183.78 5.6
-10 -3 -3 75.39 3
10 3 3 74.09 2.9
-11 -3 -3 -1.6 1
11 3 3 -0.4 1
-12 -3 -3 -0.6 1.1
12 3 3 -0.8 1.1
-13 -3 -3 2.9 1.5
13 3 3 6.8 1.6
12 -4 -3 2.1 1.1
-12 4 3 1 1.1
-12 4 3 2.7 1.4
11 -4 -3 44.2 2.3
-11 4 3 50.09 2.7
-11 4 3 48.9 2.5
10 -4 -3 234.58 7.2
-10 4 3 244.78 7.5
-10 4 3 242.68 7.4
9 -4 -3 48.4 2.1
-9 4 3 46.7 2.4
8 -4 -3 46.5 1.9
8 -4 -3 46.5 2.1
-8 4 3 47.2 2.3
7 -4 -3 70.49 2.7
7 -4 -3 75.59 2.5
-7 4 3 74.59 2.8
6 -4 -3 321.77 9.5
6 -4 -3 341.67 9.3
-6 4 3 331.77 9.5
5 -4 -3 81.39 2.8
5 -4 -3 85.99 2.6
-5 4 3 80.99 2.8
4 -4 -3 35 1.5
4 -4 -3 38.4 1.3
-4 4 3 36.3 1.5
-4 4 3 37.7 1.2
3 -4 -3 40.7 1.6
3 -4 -3 44.4 1.4
-3 4 3 43.1 1.6
-3 4 3 44.9 1.4
2 -4 -3 28.4 1.2
2 -4 -3 30.1 1
-2 4 3 31.5 1.1
-2 4 3 30.8 1.2
1 -4 -3 608.54 17
-1 4 3 621.64 17
-1 4 3 640.94 17
0 -4 -3 2076.09 58.09
0 -4 -3 2173.68 58.09
0 4 3 2238.58 58.09
-1 -4 -3 1.4 0.4
-1 -4 -3 1.6 0.4
1 4 3 1.1 0.5
-2 -4 -3 48 1.6
-2 -4 -3 49.3 1.7
2 4 3 50.49 1.7
2 4 3 47.6 1.5
-3 -4 -3 7.4 0.6
-3 -4 -3 7.6 0.8
3 4 3 7.1 0.8
3 4 3 7 0.6
-4 -4 -3 4.6 0.7
-4 -4 -3 4.6 0.6
4 4 3 4.2 0.5
4 4 3 5.1 0.7
-5 -4 -3 7.6 0.9
-5 -4 -3 6.1 0.7
5 4 3 5.7 0.7
5 4 3 5.8 0.8
-6 -4 -3 136.89 4
-6 -4 -3 134.59 4.2
6 4 3 134.39 4.1
6 4 3 134.89 4.1
-7 -4 -3 115.49 3.8
-7 -4 -3 115.89 3.6
7 4 3 117.29 3.6
7 4 3 117.49 3.7
-8 -4 -3 57.39 2.4
-8 -4 -3 57.19 2.1
8 4 3 53.49 2.2
-9 -4 -3 17.1 1.6
9 4 3 17.6 1.4
-10 -4 -3 66.49 2.9
10 4 3 65.29 2.7
-11 -4 -3 49.7 2.6
11 4 3 47.8 2.4
-12 -4 -3 1.5 1.3
12 4 3 3 1.3
-13 -4 -3 11.2 1.8
12 -5 -3 10.1 1.5
-12 5 3 8.8 1.6
-12 5 3 11.6 1.6
11 -5 -3 2.3 1.1
-11 5 3 3.7 1.4
-11 5 3 4.7 1.3
10 -5 -3 6 1.1
-10 5 3 8 1.4
-10 5 3 6.1 1.2
9 -5 -3 4.6 0.9
9 -5 -3 3.6 1
-9 5 3 3.8 1.2
8 -5 -3 3.9 1
8 -5 -3 5.1 0.8
-8 5 3 4.6 1.2
7 -5 -3 25.4 1.3
7 -5 -3 25.6 1.5
-7 5 3 22.6 1.6
6 -5 -3 116.99 3.9
6 -5 -3 125.19 3.7
-6 5 3 123.49 4
5 -5 -3 0.7 0.5
5 -5 -3 0.2 0.6
-5 5 3 -0.1 0.4
-5 5 3 0.4 0.6
4 -5 -3 94.49 2.9
4 -5 -3 94.69 3.1
-4 5 3 95.79 3.1
-4 5 3 100.49 2.9
3 -5 -3 132.49 3.7
3 -5 -3 124.79 3.9
-3 5 3 129.59 3.7
-3 5 3 126.09 3.9
2 -5 -3 37.4 1.5
2 -5 -3 39.3 1.2
-2 5 3 39.2 1.5
-2 5 3 41.2 1.4
1 -5 -3 28.5 1.2
-1 5 3 29.4 1.2
-1 5 3 29.2 1.2
0 -5 -3 131.89 3.9
0 5 3 138.09 4
0 5 3 131.09 3.9
-1 -5 -3 1370.46 39.2
-1 -5 -3 1518.55 39.1
1 5 3 1467.65 39.2
-2 -5 -3 426.46 11.6
-2 -5 -3 414.76 11.8
2 5 3 433.16 11.8
2 5 3 431.36 11.6
-3 -5 -3 194.08 5.6
3 5 3 193.68 5.6
3 5 3 190.78 5.4
-4 -5 -3 10.6 1
-4 -5 -3 9.7 0.6
4 5 3 10.1 0.7
4 5 3 10.4 0.9
-5 -5 -3 84.39 2.8
-5 -5 -3 78.29 2.5
5 5 3 82.79 2.8
5 5 3 82.79 2.6
-6 -5 -3 753.02 20.7
-6 -5 -3 764.42 21
6 5 3 768.72 20.9
6 5 3 765.42 20.9
-7 -5 -3 19 1.5
7 5 3 18.2 1.2
7 5 3 16.8 1.2
-8 -5 -3 11.5 1.4
8 5 3 11.4 1.2
8 5 3 11 1.1
-9 -5 -3 5.4 1.2
9 5 3 4.8 1.1
-10 -5 -3 0.8 1.1
10 5 3 0 1
-11 -5 -3 14.9 1.9
11 5 3 16.4 1.8
-12 -5 -3 13.7 1.9
12 5 3 14.6 2
12 -6 -3 189.08 6.3
-12 6 3 208.38 7
-12 6 3 204.78 6.6
11 -6 -3 2.5 1
-11 6 3 0.8 1
-11 6 3 0.9 1.3
10 -6 -3 35.9 1.9
10 -6 -3 42.5 2.3
-10 6 3 39.8 2.5
9 -6 -3 74.79 2.7
9 -6 -3 74.19 3
-9 6 3 71.89 3.2
8 -6 -3 22.8 1.3
8 -6 -3 23.3 1.6
-8 6 3 23.1 1.8
7 -6 -3 94.69 3
7 -6 -3 88.89 3.2
-7 6 3 91.99 3.4
6 -6 -3 166.78 4.8
6 -6 -3 162.78 5.1
-6 6 3 161.38 5.1
5 -6 -3 9.9 1
5 -6 -3 11 0.8
-5 6 3 9.7 1.1
4 -6 -3 188.88 5.7
4 -6 -3 195.78 5.4
-4 6 3 198.98 5.5
-4 6 3 186.68 5.7
3 -6 -3 461.85 13
3 -6 -3 468.65 12.7
-3 6 3 472.75 12.8
-3 6 3 464.85 13
2 -6 -3 123.39 3.5
2 -6 -3 119.39 3.7
-2 6 3 126.89 3.7
-2 6 3 120.89 3.7
1 -6 -3 2.6 0.5
1 -6 -3 3.5 0.4
-1 6 3 2.9 0.5
-1 6 3 3 0.6
0 -6 -3 6.2 0.7
0 -6 -3 7.2 0.5
0 6 3 6.4 0.7
0 6 3 6.9 0.8
-1 -6 -3 0.4 0.3
-1 -6 -3 -0.2 0.4
1 6 3 -0.2 0.5
1 6 3 0 0.4
-2 -6 -3 750.02 21.1
-2 -6 -3 793.42 20.9
2 6 3 765.82 21.1
2 6 3 777.22 20.9
-3 -6 -3 5.7 0.8
-3 -6 -3 5.5 0.5
3 6 3 5.9 0.9
3 6 3 5.3 0.6
-4 -6 -3 2.5 0.7
-4 -6 -3 2.5 0.4
4 6 3 3.8 0.7
4 6 3 1.4 0.4
-5 -6 -3 21.2 1.4
-5 -6 -3 20.5 0.9
5 6 3 22.2 1.4
5 6 3 22.4 1.1
-6 -6 -3 36.9 1.8
6 6 3 37.8 1.8
6 6 3 35.1 1.6
-7 -6 -3 0.5 1
7 6 3 2.5 0.9
7 6 3 1.2 0.8
-8 -6 -3 2.5 1.1
8 6 3 2.3 0.9
8 6 3 1.6 0.8
-9 -6 -3 37.3 2.2
9 6 3 36.7 2
-10 -6 -3 7.6 1.5
10 6 3 8.9 1.3
-11 -6 -3 20.2 2.2
11 6 3 21.9 1.9
-12 -6 -3 35 2.6
12 6 3 40.3 2.5
-12 7 3 93.49 3.9
-12 7 3 105.19 5.3
11 -7 -3 35 2.3
11 -7 -3 33.3 2
-11 7 3 32.8 2.6
10 -7 -3 62.79 2.8
10 -7 -3 56.89 2.5
-10 7 3 62.49 3.2
9 -7 -3 -0.1 0.9
9 -7 -3 0.5 0.8
-9 7 3 -0.3 1.2
8 -7 -3 38.9 1.8
8 -7 -3 38.9 2
-8 7 3 39.2 2.3
7 -7 -3 37.2 1.6
7 -7 -3 36.8 1.9
-7 7 3 34.8 2.1
6 -7 -3 10 0.9
6 -7 -3 10 1.2
-6 7 3 9.8 1.4
5 -7 -3 4.8 0.6
5 -7 -3 5.6 0.9
-5 7 3 4.6 0.9
4 -7 -3 22.3 1.3
4 -7 -3 22.7 1
-4 7 3 23.2 1.2
-4 7 3 22.5 1.4
3 -7 -3 182.68 5.5
3 -7 -3 181.98 5.2
-3 7 3 184.28 5.5
-3 7 3 190.98 5.4
2 -7 -3 12.1 0.9
2 -7 -3 10.6 0.6
-2 7 3 8.4 0.9
-2 7 3 9.2 0.9
1 -7 -3 103.79 3.4
1 -7 -3 110.59 3.1
-1 7 3 110.19 3.4
-1 7 3 109.29 3.3
0 -7 -3 8.8 0.5
0 -7 -3 6.8 0.8
0 7 3 6.2 0.9
0 7 3 7.2 0.7
-1 -7 -3 130.09 3.6
-1 -7 -3 122.59 3.9
1 7 3 129.69 3.7
1 7 3 125.09 4
-2 -7 -3 9 0.9
2 7 3 9.2 1
2 7 3 9.9 0.7
-3 -7 -3 0.3 0.3
-3 -7 -3 0.2 0.6
3 7 3 0.4 0.6
3 7 3 -0.1 0.5
-4 -7 -3 867.91 23.6
4 7 3 874.01 23.4
4 7 3 841.92 23.7
-5 -7 -3 123.69 4.1
5 7 3 125.69 4.1
5 7 3 125.49 3.8
-6 -7 -3 29.6 1.7
6 7 3 29.5 1.5
6 7 3 31.1 1.7
-7 -7 -3 90.69 3.4
7 7 3 90.99 3.3
-8 -7 -3 151.78 5
8 7 3 149.39 4.9
-9 -7 -3 3.1 1.2
9 7 3 2.1 0.8
-10 -7 -3 43.5 2.6
-11 -7 -3 2.3 1.5
11 7 3 2.6 1.2
11 -8 -3 4 1.4
-11 8 3 4 1.6
10 -8 -3 2.4 1.2
-10 8 3 -1.5 1.5
9 -8 -3 45.3 2.3
-9 8 3 44.5 2.6
8 -8 -3 179.78 5.5
8 -8 -3 182.38 5.8
-8 8 3 186.68 6.1
7 -8 -3 48.5 1.9
7 -8 -3 49 2.3
-7 8 3 54.79 2.6
6 -8 -3 51.99 2.2
6 -8 -3 49.99 1.9
-6 8 3 47.6 2.4
5 -8 -3 2.1 0.5
5 -8 -3 1.5 0.8
-5 8 3 0.9 0.9
4 -8 -3 34.5 1.3
4 -8 -3 34.5 1.7
-4 8 3 33.8 1.7
-4 8 3 34.9 1.5
3 -8 -3 147.89 4.7
3 -8 -3 147.99 4.3
-3 8 3 159.98 4.6
-3 8 3 146.69 4.7
2 -8 -3 6.1 0.6
2 -8 -3 5.3 0.8
-2 8 3 4.5 0.8
-2 8 3 4.6 0.8
1 -8 -3 285.77 8.4
1 -8 -3 297.97 8.1
-1 8 3 297.67 8.3
-1 8 3 296.47 8.5
0 -8 -3 0.6 0.4
0 -8 -3 0.1 0.6
0 8 3 1 0.7
0 8 3 -0.2 0.5
-1 -8 -3 0.1 0.4
-1 -8 -3 -0.6 0.5
1 8 3 0.3 0.7
1 8 3 -0.2 0.4
-2 -8 -3 17.3 1.2
-2 -8 -3 18.8 0.9
2 8 3 18.3 0.9
2 8 3 16.8 1.3
-3 -8 -3 456.15 13
3 8 3 451.55 13.1
3 8 3 475.95 12.7
-4 -8 -3 54.99 2.3
4 8 3 54.09 2.3
4 8 3 58.19 2
-5 -8 -3 2.8 1
5 8 3 1.4 0.9
5 8 3 2.5 0.7
-6 -8 -3 50.79 2.3
6 8 3 48.3 2.3
6 8 3 52.59 2
-7 -8 -3 158.18 5.3
7 8 3 159.48 5.2
7 8 3 165.48 5
-8 -8 -3 206.18 6.8
8 8 3 219.68 6.8
8 8 3 223.98 6.6
-9 -8 -3 8.8 1.6
9 8 3 5.6 1.2
-10 -8 -3 8.5 1.7
10 8 3 7.3 1.4
-11 -8 -3 8.2 1.8
11 8 3 9 1.6
11 -9 -3 18.1 2
-11 9 3 12 2.1
10 -9 -3 58.49 2.8
-10 9 3 53.89 3.2
9 -9 -3 75.69 3.1
-9 9 3 68.89 3.4
8 -9 -3 15.2 1.6
-8 9 3 17.4 2
7 -9 -3 -1.4 0.8
-7 9 3 -2.5 1.1
6 -9 -3 209.68 6.3
-6 9 3 197.98 6.4
5 -9 -3 2.4 0.7
5 -9 -3 1.8 0.9
-5 9 3 1.3 1
4 -9 -3 8 0.7
4 -9 -3 7.6 1
-4 9 3 8.4 1
-4 9 3 9.7 1.3
3 -9 -3 63.99 2.4
3 -9 -3 61.19 2
-3 9 3 65.79 2.4
-3 9 3 59.19 2.4
2 -9 -3 319.47 9.4
2 -9 -3 324.17 9
-2 9 3 334.77 9.4
1 -9 -3 869.61 24.8
1 -9 -3 910.61 24.5
-1 9 3 913.61 25
-1 9 3 930.61 24.7
0 -9 -3 2.9 0.5
0 -9 -3 2.6 0.7
0 9 3 1.4 0.7
0 9 3 3.1 0.9
-1 -9 -3 13.7 1.1
-1 -9 -3 15.7 0.8
1 9 3 15.3 1
1 9 3 14.3 1.3
-2 -9 -3 17.1 0.9
-2 -9 -3 17 1.3
2 9 3 17.6 1.4
-3 -9 -3 216.78 6.5
-3 -9 -3 222.78 6.2
3 9 3 212.08 6.7
-4 -9 -3 1.8 0.9
4 9 3 3.7 0.7
4 9 3 1.2 0.7
-5 -9 -3 50.39 2.4
5 9 3 58.19 2.5
5 9 3 54.19 2.1
-6 -9 -3 14.3 1.6
6 9 3 14.1 1.5
6 9 3 14.5 1.3
-7 -9 -3 34.1 2.2
7 9 3 40.7 2.2
7 9 3 37.1 1.9
-8 -9 -3 94.29 3.8
8 9 3 98.09 3.8
8 9 3 105.99 3.6
-9 -9 -3 30.4 2.3
9 9 3 30.5 2
-10 -9 -3 47.8 2.9
10 9 3 49.3 2.6
11 9 3 9.4 1.7
11 -10 -3 1.6 1.7
10 -10 -3 31.9 2.3
-10 10 3 22.7 2.7
9 -10 -3 0.9 1.2
-9 10 3 0.2 1.4
8 -10 -3 64.69 2.8
-8 10 3 57.59 3
7 -10 -3 7.8 1.3
-7 10 3 4.8 1.4
6 -10 -3 35.8 2
-6 10 3 35.2 2.2
5 -10 -3 21 1.6
-5 10 3 21.2 1.8
4 -10 -3 99.29 3.5
-4 10 3 99.29 3.4
-4 10 3 94.89 3.6
3 -10 -3 65.29 2.6
-3 10 3 67.99 2.7
-3 10 3 68.49 2.7
2 -10 -3 3.9 0.9
-2 10 3 3.6 0.9
-2 10 3 2.5 0.9
1 -10 -3 109.19 3.8
-1 10 3 125.89 3.8
-1 10 3 113.59 4
0 -10 -3 160.68 5.3
0 -10 -3 193.18 5.4
0 10 3 163.68 5.5
-1 -10 -3 662.43 18.8
-1 -10 -3 692.73 18.5
-2 -10 -3 8 0.8
-2 -10 -3 7 1
2 10 3 5.5 1.1
-3 -10 -3 4.2 0.7
-3 -10 -3 2.4 0.9
3 10 3 2.8 0.9
-4 -10 -3 69.99 2.4
-4 -10 -3 66.69 2.7
4 10 3 69.79 3
-5 -10 -3 47 2.3
5 10 3 44.3 2.4
-6 -10 -3 2.7 1.1
6 10 3 2 0.9
6 10 3 2.6 1.1
-7 -10 -3 92.89 3.7
7 10 3 93.69 3.8
-8 -10 -3 52.99 2.8
8 10 3 51.09 2.8
8 10 3 58.49 2.5
-9 -10 -3 6.8 1.7
9 10 3 6.4 1.3
-10 -10 -3 5.2 2.2
10 10 3 3.9 1.5
10 -11 -3 -0.1 1.3
9 -11 -3 0.6 1.2
-9 11 3 1.2 1.6
8 -11 -3 39 2.3
-8 11 3 36.1 2.7
7 -11 -3 0.1 1
-7 11 3 -0.1 1.4
6 -11 -3 35.2 2.1
-6 11 3 34.1 2.3
5 -11 -3 207.78 6.6
-5 11 3 210.78 6.6
4 -11 -3 40.3 2.1
-4 11 3 39.9 2.2
-4 11 3 39.4 2.1
3 -11 -3 56.49 2.4
-3 11 3 56.49 2.5
-3 11 3 57.59 2.5
2 -11 -3 8.8 1.2
-2 11 3 6.8 1.2
-2 11 3 9.6 1.4
1 -11 -3 6.8 1.1
-1 11 3 9.6 1.3
-1 11 3 8.8 1.3
0 -11 -3 239.58 7.1
0 11 3 227.78 7.3
-1 -11 -3 4.1 0.9
1 11 3 2.3 1
-2 -11 -3 24.9 1.6
2 11 3 20.7 1.8
-3 -11 -3 9.1 1.3
3 11 3 10 1.5
-4 -11 -3 27 1.8
4 11 3 23.2 1.9
-5 -11 -3 16.6 1.3
-5 -11 -3 14.8 1.5
5 11 3 13.7 1.7
-6 -11 -3 52.59 2.6
-6 -11 -3 55.49 2.2
6 11 3 49 2.7
-7 -11 -3 -0.3 1.2
7 11 3 -0.4 1
7 11 3 1.2 1.2
-8 -11 -3 4.3 1.5
8 11 3 4.6 1.4
8 11 3 3.3 1.1
-9 -11 -3 22 2.4
9 11 3 21 2
9 -12 -3 15.8 2
-9 12 3 10.9 1.8
8 -12 -3 53.09 2.8
-8 12 3 48.5 3.1
7 -12 -3 0.3 1.1
-7 12 3 0 1.4
6 -12 -3 5.4 1.3
-6 12 3 3.6 1.3
5 -12 -3 45 2.3
-5 12 3 42.5 2.6
4 -12 -3 1.6 1
-4 12 3 4.2 1.1
-4 12 3 3.1 1.3
3 -12 -3 54.49 2.5
-3 12 3 57.49 2.7
-3 12 3 61.29 2.7
2 -12 -3 14.8 1.5
-2 12 3 13.7 1.7
1 -12 -3 67.99 2.8
-1 12 3 68.89 3
0 -12 -3 17.7 1.5
0 12 3 17.7 1.7
-1 -12 -3 6.2 1.1
1 12 3 7.1 1.3
-2 -12 -3 129.79 4.3
2 12 3 115.99 4.5
-3 -12 -3 3.2 1
3 12 3 1.3 1.1
-4 -12 -3 2.9 1.1
4 12 3 2.3 1.2
-5 -12 -3 63.99 2.9
5 12 3 64.59 3.2
6 12 3 200.58 6.9
-7 -12 -3 7.5 1.5
7 12 3 10.3 1.7
-8 -12 -3 15.8 2.1
8 12 3 15.7 2
8 -13 -3 44.6 2.7
7 -13 -3 10.1 1.6
-7 13 3 8.5 1.8
6 -13 -3 50.59 2.6
-6 13 3 49.7 2.9
5 -13 -3 14.5 1.7
-5 13 3 9.3 1.6
4 -13 -3 0.9 1
-4 13 3 0.1 1.2
3 -13 -3 191.48 6.1
-3 13 3 183.48 6.2
2 -13 -3 1.8 1
-2 13 3 -0.7 1.1
1 -13 -3 24.4 1.7
-1 13 3 24.4 2
0 -13 -3 0 0.9
0 13 3 -0.4 1.2
-1 -13 -3 25 1.7
1 13 3 23.3 2.1
-2 -13 -3 0.4 1
2 13 3 0 1.3
-3 -13 -3 20.7 1.7
3 13 3 17.6 2
-4 -13 -3 25.1 1.9
4 13 3 25.8 2.3
-5 -13 -3 9.1 1.5
5 13 3 7.4 1.6
-6 -13 -3 0.6 1.3
6 13 3 3.8 1.5
-7 -13 -3 8.5 1.7
7 13 3 8.2 1.7
7 -14 -3 3.5 1.5
-7 14 3 3.2 1.6
6 -14 -3 1.9 1.3
-6 14 3 -0.7 1.2
5 -14 -3 48.7 2.6
4 -14 -3 -1.9 1.1
3 -14 -3 150.68 5.1
-3 14 3 139.69 5.3
2 -14 -3 9.4 1.4
-2 14 3 9.7 1.6
1 -14 -3 7.5 1.3
-1 14 3 5.6 1.5
0 -14 -3 26.2 1.9
0 14 3 24.3 2.3
-1 -14 -3 4.4 1.1
1 14 3 3.2 1.5
-2 -14 -3 34.4 2.2
2 14 3 32.4 2.6
-3 -14 -3 45.8 2.5
3 14 3 36.1 2.8
-4 -14 -3 8.7 1.4
4 14 3 6.1 1.7
-5 -14 -3 1.5 1.2
5 14 3 2.1 1.5
6 -15 -3 16.4 2.1
5 -15 -3 0.4 1.3
4 -15 -3 3.6 1.3
3 -15 -3 4.5 1.2
-3 15 3 4.8 1.6
2 -15 -3 10 1.5
-2 15 3 7.2 1.7
1 -15 -3 152.38 5.2
-1 15 3 140.29 5.6
0 -15 -3 1.8 1.2
0 15 3 3.3 1.5
-1 -15 -3 1.5 1.2
1 15 3 0.5 1.4
-2 -15 -3 13.3 1.8
2 15 3 11 1.9
-3 -15 -3 21.5 2.1
3 15 3 21.9 2.5
3 -16 -3 0.7 1.3
2 -16 -3 4.3 1.4
-2 16 3 3.6 1.8
1 -16 -3 14.5 2
-1 16 3 13.8 2.4
0 -16 -3 8.7 1.5
-1 -13 4 2 1
0 -13 4 7 1.2
-1 13 -4 2.1 2.3
1 -13 4 5.1 1.1
-2 13 -4 0.9 1.7
2 -13 4 0.6 1
-3 13 -4 2.6 1.7
3 -13 4 1.7 1
-4 13 -4 67.59 3.7
-3 -12 4 9.4 1.3
2 12 -4 8.7 1.8
-2 -12 4 9.8 1.3
1 12 -4 0.6 1.5
-1 -12 4 2.5 1
0 12 -4 19.5 2.3
0 -12 4 22.9 1.7
-1 12 -4 3.1 1.6
1 -12 4 2.5 1
-2 12 -4 4.2 1.6
2 -12 4 4 1.1
-3 12 -4 17.6 2.3
3 -12 4 19.7 1.6
-4 12 -4 25.7 2.5
4 -12 4 26.4 1.8
5 -12 4 12.2 1.5
6 -12 4 6.6 1.2
7 -12 4 26.2 1.8
5 11 -4 1.8 1.7
-5 -11 4 0.3 1
4 11 -4 69.99 3.7
-4 -11 4 76.19 3
3 11 -4 1.6 1.4
-3 -11 4 1 0.9
2 11 -4 0.8 1.3
-2 -11 4 2.2 1
1 11 -4 20.5 2.2
-1 -11 4 21.9 1.6
0 11 -4 17.4 2.2
0 -11 4 22.1 1.6
-1 11 -4 -0.6 1.3
1 -11 4 0.2 0.8
-2 11 -4 54.69 3
2 -11 4 54.69 2.4
-3 11 -4 -0.2 1.3
3 -11 4 0.4 0.9
-4 11 -4 5.7 1.5
4 -11 4 4.1 1
-5 11 -4 30 2.3
5 -11 4 27.8 1.8
6 -11 4 3.9 1.1
7 -11 4 14.3 1.5
-8 11 -4 1.9 1.4
8 -11 4 1.2 1
9 -11 4 10.4 1.7
6 10 -4 15.9 2.1
-6 -10 4 16.5 2.1
-6 -10 4 18.1 1.7
5 10 -4 -0.5 1.3
-5 -10 4 1.6 1.2
-5 -10 4 0 0.9
4 10 -4 8.2 1.6
-4 -10 4 6.6 1.2
-4 -10 4 8.1 1.2
3 10 -4 47.7 2.9
-3 -10 4 49.99 2.3
-3 -10 4 46 2.2
2 10 -4 51.69 2.9
-2 -10 4 59.49 2.4
1 10 -4 42.5 2.6
-1 -10 4 42.6 2
0 10 -4 21.7 2
0 -10 4 23.5 1.5
-1 10 -4 -0.5 1
1 -10 4 -0.7 0.8
-2 10 -4 4 1.3
2 -10 4 4.1 1
-3 10 -4 7.1 1.4
3 -10 4 8.1 1.1
-4 10 -4 8.9 1.5
4 -10 4 7.9 1.1
-5 10 -4 143.29 5.1
5 -10 4 145.99 4.8
-6 10 -4 2.8 1.2
6 -10 4 3 1
-7 10 -4 54.49 2.9
7 -10 4 51.99 2.5
-8 10 -4 49.6 2.8
8 -10 4 40.2 2.2
-9 10 -4 47.7 3
9 -10 4 49.8 2.5
10 -10 4 12.4 1.8
7 9 -4 1.1 1.4
-7 -9 4 3.1 1.1
-7 -9 4 2.5 1.5
6 9 -4 67.29 3.4
-6 -9 4 71.49 3
-6 -9 4 72.79 3.3
5 9 -4 0 1.2
-5 -9 4 -0.7 0.8
-5 -9 4 1.8 1.2
4 9 -4 8.2 1.5
-4 -9 4 9.9 1.2
-4 -9 4 11.3 1.6
3 9 -4 4.8 1.3
-3 -9 4 3.5 0.8
-3 -9 4 4.3 1
2 9 -4 24.9 2
-2 -9 4 27.1 1.6
-2 -9 4 28 1.6
1 9 -4 39.1 2.4
-1 -9 4 44.9 1.9
-1 -9 4 43.1 1.9
0 9 -4 49.9 2.6
0 -9 4 51.59 2.2
-1 9 -4 23.9 2
1 -9 4 30.4 1.6
-2 9 -4 2.3 1
2 -9 4 5.2 0.9
-3 9 -4 130.79 4.7
3 -9 4 131.49 4.3
-4 9 -4 1 1.1
-4 9 -4 3.1 1.1
4 -9 4 3.3 0.9
-5 9 -4 42.8 2.3
-5 9 -4 43.4 2.2
5 -9 4 38.2 2
-6 9 -4 63.69 2.9
6 -9 4 63.69 2.6
-7 9 -4 145.79 5
7 -9 4 135.69 4.7
-8 9 -4 30.7 2.4
8 -9 4 29 1.9
-9 9 -4 1 1.4
9 -9 4 -0.5 1
-10 9 -4 88.39 3.9
10 -9 4 77.79 3.3
-8 -8 4 -0.3 1
-8 -8 4 1.1 1.7
7 8 -4 72.89 3.5
-7 -8 4 76.99 3.4
-7 -8 4 76.89 3.1
6 8 -4 -1.2 1.1
-6 -8 4 -0.9 1.2
-6 -8 4 0.6 0.9
5 8 -4 11.2 1.7
-5 -8 4 8.5 1.4
-5 -8 4 11.5 1.3
4 8 -4 6 1.3
-4 -8 4 8.2 1.3
-4 -8 4 4.9 0.9
3 8 -4 58.49 2.9
-3 -8 4 62.89 2.5
-3 -8 4 61.39 2.4
2 8 -4 14.8 1.6
-2 -8 4 16 1.2
-2 -8 4 17.1 1.3
1 8 -4 11.4 1.5
-1 -8 4 11.5 1.1
-1 -8 4 15.5 1.2
0 8 -4 1.1 1
0 -8 4 0.9 0.7
0 -8 4 0.8 0.7
-1 8 -4 12.3 1.4
1 -8 4 9.9 1.1
1 -8 4 10.2 1
-2 8 -4 28.8 1.9
2 -8 4 33 1.6
-3 8 -4 21.2 1.7
-3 8 -4 23.6 1.5
3 -8 4 22.1 1.4
-4 8 -4 2.8 1
-4 8 -4 2.9 1
4 -8 4 3.8 0.8
-5 8 -4 111.89 3.9
-5 8 -4 113.49 4
5 -8 4 110.69 3.8
-6 8 -4 3.7 1.2
6 -8 4 2.7 0.9
-7 8 -4 114.49 4.2
7 -8 4 110.89 3.9
-8 8 -4 51.79 2.8
8 -8 4 50.99 2.4
-9 8 -4 -0.4 1.3
9 -8 4 0.8 1
-10 8 -4 246.28 7.9
10 -8 4 233.88 7.4
-11 8 -4 6.4 1.6
11 -8 4 6.3 1.3
-9 -7 4 10.2 2
8 7 -4 30.4 2.3
-8 -7 4 32.1 2.6
7 7 -4 58.89 2.9
-7 -7 4 58.29 2.9
6 7 -4 22.1 1.9
-6 -7 4 22.6 1.9
-6 -7 4 21.3 1.6
5 7 -4 20.4 1.8
-5 -7 4 23.6 1.5
-5 -7 4 23.5 1.8
4 7 -4 7 1.2
-4 -7 4 9.5 1.4
-4 -7 4 12.5 1.2
3 7 -4 103.89 4
-3 -7 4 115.69 3.7
-3 -7 4 112.89 3.7
-2 -7 4 140.79 4.4
-2 -7 4 136.09 4.4
1 7 -4 40.7 2.2
-1 -7 4 44.6 1.9
-1 -7 4 44 1.8
0 7 -4 71.79 3
0 -7 4 73.79 2.6
0 -7 4 75.19 2.5
-1 7 -4 31.6 1.8
1 -7 4 32.2 1.4
1 -7 4 31 1.5
-2 7 -4 99.59 3.7
-2 7 -4 101.59 3.3
2 -7 4 101.69 3.3
2 -7 4 105.49 3.2
-3 7 -4 16.5 1.4
-3 7 -4 15.4 1.3
3 -7 4 14 1.2
-4 7 -4 5 1
-4 7 -4 4.4 0.9
4 -7 4 5.2 0.8
-5 7 -4 54.09 2.4
-5 7 -4 56.09 2.3
5 -7 4 52.39 2.2
-6 7 -4 -0.6 1
-6 7 -4 0 0.8
6 -7 4 0.5 0.7
-7 7 -4 48.9 2.5
7 -7 4 45.8 2.1
-8 7 -4 125.49 4.6
8 -7 4 127.29 4.3
-9 7 -4 257.07 8
9 -7 4 250.17 7.7
-10 7 -4 33.4 2.5
10 -7 4 32.8 2
-11 7 -4 0.1 1.4
11 -7 4 1.3 1
9 6 -4 2.4 1.3
-9 -6 4 2.3 1.6
8 6 -4 19.6 1.9
-8 -6 4 21.3 2.2
7 6 -4 15.4 1.7
7 6 -4 14.2 1.6
-7 -6 4 12.2 1.8
6 6 -4 20.8 1.6
6 6 -4 20.5 1.8
-6 -6 4 20.1 1.8
5 6 -4 -0.5 0.9
-5 -6 4 -0.4 0.6
-5 -6 4 -1.1 0.9
4 6 -4 27.6 1.9
-4 -6 4 33.1 1.6
-4 -6 4 32.6 1.8
3 6 -4 1.4 0.9
-3 -6 4 1.4 0.9
-3 -6 4 1.1 0.7
2 6 -4 0.9 0.8
-2 -6 4 1.8 0.6
-2 -6 4 0.5 0.7
1 6 -4 47.6 2.2
-1 -6 4 50.59 1.9
-1 -6 4 49.9 1.9
0 6 -4 334.07 10
0 -6 4 352.86 9.6
0 -6 4 337.67 9.6
-1 6 -4 3.9 0.9
-1 6 -4 3.6 0.6
1 -6 4 3.9 0.6
1 -6 4 3.2 0.7
-2 6 -4 5.8 0.9
-2 6 -4 7.1 0.9
2 -6 4 7.1 0.8
2 -6 4 5.8 0.7
-3 6 -4 75.99 2.7
-3 6 -4 78.49 2.9
3 -6 4 76.19 2.7
3 -6 4 79.29 2.5
-4 6 -4 24.3 1.5
-4 6 -4 23.5 1.5
4 -6 4 23.3 1.3
4 -6 4 24.9 1.1
-5 6 -4 4.4 0.9
-5 6 -4 4.3 1
5 -6 4 4.2 0.8
-6 6 -4 47.9 2.3
-6 6 -4 50.39 2.1
6 -6 4 50.59 2.1
-7 6 -4 0.8 1
7 -6 4 1.8 0.8
-8 6 -4 18.3 1.8
8 -6 4 16 1.3
-9 6 -4 0 1.2
9 -6 4 1.4 0.9
-10 6 -4 13.5 2
10 -6 4 12.3 1.4
-11 6 -4 31.3 2.5
11 -6 4 28.1 1.9
-12 6 -4 33.2 2.7
12 -6 4 35.7 2.2
10 5 -4 11.7 1.7
-10 -5 4 10.8 2
9 5 -4 40.6 2.4
-9 -5 4 40.2 2.7
8 5 -4 47.1 2.5
-8 -5 4 47 2.6
7 5 -4 5.9 1.5
7 5 -4 4.7 1.1
-7 -5 4 5.4 1.3
6 5 -4 11.3 1.3
6 5 -4 9.8 1.4
-6 -5 4 9.6 1.3
5 5 -4 37.5 1.9
5 5 -4 36 2
-5 -5 4 36.6 1.9
4 5 -4 25.4 1.6
-4 -5 4 26.3 1.6
3 5 -4 0.5 0.8
-3 -5 4 2.2 0.8
-3 -5 4 1 0.6
2 5 -4 51.69 2.2
-2 -5 4 52.59 2
-2 -5 4 50.19 2
1 5 -4 6.9 1
-1 -5 4 8.9 0.9
-1 -5 4 9.1 0.8
0 5 -4 282.47 7.8
0 5 -4 271.57 8.2
0 -5 4 288.47 7.9
0 -5 4 277.77 7.9
-1 5 -4 61.69 2.3
-1 5 -4 58.29 2
1 -5 4 61.79 2
1 -5 4 57.99 2.1
-2 5 -4 266.57 7.9
-2 5 -4 272.47 7.6
2 -5 4 274.47 7.5
2 -5 4 265.17 7.7
-3 5 -4 115.69 3.7
-3 5 -4 109.39 3.6
3 -5 4 112.19 3.5
3 -5 4 114.09 3.3
-4 5 -4 83.09 2.9
-4 5 -4 82.49 2.9
4 -5 4 83.39 2.8
4 -5 4 81.09 2.5
-5 5 -4 388.26 10.8
-5 5 -4 381.76 10.9
5 -5 4 371.46 10.5
5 -5 4 389.16 10.8
-6 5 -4 146.39 4.5
-6 5 -4 142.59 4.7
6 -5 4 148.89 4.6
-7 5 -4 219.98 6.9
7 -5 4 229.78 6.7
-8 5 -4 25.5 1.9
8 -5 4 29.6 1.6
-9 5 -4 117.29 4.3
9 -5 4 116.89 4
-10 5 -4 129.59 4.7
10 -5 4 128.29 4.4
-11 5 -4 15 1.9
11 -5 4 14.9 1.5
-12 5 -4 2.1 1.4
12 -5 4 2.2 1.2
10 4 -4 13.7 1.8
-10 -4 4 7.8 1.7
9 4 -4 51.39 2.6
-9 -4 4 49.99 2.8
8 4 -4 -1.1 1
-8 -4 4 -0.3 1
7 4 -4 0 0.9
-7 -4 4 0.8 1
6 4 -4 18.5 1.5
6 4 -4 19.1 1.4
-6 -4 4 18.3 1.5
5 4 -4 0.4 0.8
5 4 -4 -0.4 0.7
-5 -4 4 -0.4 0.7
4 4 -4 248.08 7.2
4 4 -4 225.38 7
-4 -4 4 242.08 7
3 4 -4 11.9 1.1
-3 -4 4 11 1.1
2 4 -4 10 1.1
-2 -4 4 9.4 0.9
-2 -4 4 8.5 0.8
1 4 -4 63.49 1.9
1 4 -4 61.49 2.3
-1 -4 4 58.19 2.1
-1 -4 4 62.29 2.1
0 4 -4 25.9 1.1
0 4 -4 26.7 1.4
0 -4 4 25.7 1.1
0 -4 4 25.7 1.2
-1 4 -4 447.96 12.2
-1 4 -4 445.56 12.4
1 -4 4 439.86 12.2
1 -4 4 436.66 12.1
-2 4 -4 98.79 3.1
-2 4 -4 98.29 3.2
2 -4 4 100.59 2.9
2 -4 4 94.59 3.1
-3 4 -4 107.49 3.4
-3 4 -4 108.49 3.4
3 -4 4 106.89 3.3
-4 4 -4 1.1 0.7
-4 4 -4 1.1 0.7
4 -4 4 1.8 0.4
4 -4 4 0.7 0.6
-5 4 -4 272.57 8
-5 4 -4 277.07 7.9
5 -4 4 271.27 7.6
5 -4 4 281.67 7.9
-6 4 -4 2.2 0.9
-6 4 -4 2.9 0.7
6 -4 4 2.7 0.6
6 -4 4 4.1 0.7
-7 4 -4 19.7 1.6
7 -4 4 22 1.3
7 -4 4 18.9 1.1
-8 4 -4 259.37 7.9
8 -4 4 260.27 7.6
-9 4 -4 4.8 1.2
9 -4 4 2.3 0.9
-10 4 -4 11.6 1.7
10 -4 4 9.8 1.3
-11 4 -4 1.6 1.4
11 -4 4 2.5 1.1
-12 4 -4 3.3 1.4
12 -4 4 0.2 1
-13 4 -4 6.5 1.7
13 -4 4 8.1 1.6
11 3 -4 -2.5 1.3
-11 -3 4 -0.5 1.4
10 3 -4 5.8 1.3
-10 -3 4 4.2 1.5
9 3 -4 45.3 2.4
-9 -3 4 46.5 2.5
8 3 -4 3 1
-8 -3 4 2.9 1.1
7 3 -4 112.29 3.9
-7 -3 4 114.89 4
6 3 -4 71.29 2.8
6 3 -4 80.99 2.9
-6 -3 4 80.89 2.9
5 3 -4 2.5 0.8
5 3 -4 2.1 0.8
-5 -3 4 1.4 0.8
4 3 -4 391.66 10.9
4 3 -4 376.66 10.8
-4 -3 4 385.96 10.8
3 3 -4 9.9 1
3 3 -4 8.8 0.9
-3 -3 4 11 0.9
2 3 -4 28.7 1
2 3 -4 30.3 1.4
-2 -3 4 30.6 1.3
-2 -3 4 28.2 1.2
1 3 -4 33.8 1.2
1 3 -4 31.8 1.5
-1 -3 4 31.2 1.3
-1 -3 4 33.6 1.3
0 3 -4 178.48 5.4
0 3 -4 183.28 5.1
0 -3 4 178.18 5.2
0 -3 4 184.78 5.1
-1 3 -4 25.5 1.3
-1 3 -4 27 1.1
1 -3 4 24.6 1.1
1 -3 4 28.1 1
-2 3 -4 3.7 0.6
-2 3 -4 4 0.7
2 -3 4 4.9 0.6
-3 3 -4 37.4 1.5
-3 3 -4 35.7 1.5
3 -3 4 37 1.4
-4 3 -4 4 0.7
-4 3 -4 3.8 0.6
4 -3 4 4.2 0.6
-5 3 -4 653.83 17.6
-5 3 -4 631.24 17.7
5 -3 4 642.24 17.6
5 -3 4 640.04 17.4
-6 3 -4 146.49 4.3
-6 3 -4 142.39 4.6
6 -3 4 147.59 4.4
6 -3 4 142.79 4.2
-7 3 -4 247.38 7.5
-7 3 -4 253.67 7.1
7 -3 4 249.97 7.3
-8 3 -4 23.9 1.3
-8 3 -4 20.8 1.7
8 -3 4 23.4 1.4
-9 3 -4 1.7 0.8
-9 3 -4 3 1.1
9 -3 4 0.6 0.8
-10 3 -4 7.4 1.4
10 -3 4 5.4 1
-11 3 -4 156.08 5.4
11 -3 4 155.28 5.1
-12 3 -4 37.2 2.5
12 -3 4 29.6 2
-13 3 -4 8.7 1.7
13 -3 4 10.6 1.5
11 2 -4 26.2 2.2
-11 -2 4 22.9 2.3
10 2 -4 39.1 2.4
-10 -2 4 45.3 2.6
9 2 -4 27.7 1.9
-9 -2 4 28.5 2
8 2 -4 1.5 1
-8 -2 4 -1.1 0.9
7 2 -4 98.59 3.5
-7 -2 4 97.99 3.5
6 2 -4 0.4 0.8
6 2 -4 1.6 0.7
-6 -2 4 0.4 0.7
5 2 -4 1.6 0.7
5 2 -4 0.3 0.6
-5 -2 4 -0.2 0.5
-5 -2 4 1.1 0.7
4 2 -4 28 1.3
4 2 -4 28.1 1.4
-4 -2 4 25.1 1
-4 -2 4 27 1.3
3 2 -4 102.89 3.2
3 2 -4 104.79 3.3
-3 -2 4 105.39 3.2
-3 -2 4 97.79 2.9
2 2 -4 1703.63 46.4
2 2 -4 1697.63 46.5
2 2 -4 1764.82 46.3
-2 -2 4 1719.63 46.4
1 2 -4 251.77 7.1
1 2 -4 253.67 6.9
-1 -2 4 252.07 6.9
-1 -2 4 240.78 7
0 2 -4 0.3 0.3
0 2 -4 0.5 0.5
0 -2 4 0.6 0.4
0 -2 4 0.7 0.4
-1 2 -4 57.79 2
-1 2 -4 57.89 1.9
1 -2 4 54.09 1.8
-2 2 -4 114.19 3.5
-2 2 -4 116.59 3.5
2 -2 4 115.49 3.4
-3 2 -4 261.27 7.4
-3 2 -4 262.47 7.4
3 -2 4 264.67 7.4
-4 2 -4 155.28 4.5
-4 2 -4 152.28 4.6
4 -2 4 155.18 4.5
-5 2 -4 345.17 9.5
-5 2 -4 339.27 9.7
5 -2 4 342.57 9.6
-6 2 -4 555.24 15.2
-6 2 -4 539.35 15.5
6 -2 4 541.35 15.4
6 -2 4 589.34 15.2
-7 2 -4 789.22 20.9
-7 2 -4 761.22 21.2
7 -2 4 754.62 21.1
-8 2 -4 14.5 1.5
-8 2 -4 14.6 1.1
8 -2 4 13.9 1.1
-9 2 -4 24.3 1.4
-9 2 -4 25.4 1.8
9 -2 4 26.1 1.5
-10 2 -4 18.3 1.7
-10 2 -4 18.3 1.4
10 -2 4 19 1.4
-11 2 -4 3.4 1.2
11 -2 4 4.6 1.1
-12 2 -4 31.6 2.2
12 -2 4 29.8 2
-13 2 -4 53.99 2.9
13 -2 4 48.7 2.6
11 1 -4 16.5 1.8
-11 -1 4 17.4 2
10 1 -4 16.2 1.6
-10 -1 4 20.2 1.9
9 1 -4 -0.2 0.8
-9 -1 4 1.2 1
8 1 -4 19.5 1.5
-8 -1 4 17.7 1.5
7 1 -4 73.59 2.8
-7 -1 4 76.29 2.9
6 1 -4 30.9 1.5
6 1 -4 33.7 1.4
-6 -1 4 28.9 1.3
-6 -1 4 29.3 1.6
5 1 -4 398.76 11.5
5 1 -4 439.86 11.5
-5 -1 4 413.36 11.6
-5 -1 4 392.06 11.3
4 1 -4 14.4 1
4 1 -4 14.2 1
-4 -1 4 15.4 1
-4 -1 4 12.8 0.7
3 1 -4 24.6 1.2
3 1 -4 25 1.1
-3 -1 4 24.6 1.1
-3 -1 4 22.8 0.9
2 1 -4 1147.99 30
2 1 -4 1107.49 30.1
2 1 -4 1101.39 30.2
-2 -1 4 1094.59 30.1
1 1 -4 22.8 1
1 1 -4 25.7 1.1
-1 -1 4 23.5 1
-1 -1 4 25.4 0.9
0 1 -4 302.67 8.5
0 1 -4 297.87 8.3
0 -1 4 303.27 8.3
0 -1 4 306.27 8.2
-1 1 -4 96.79 3
-1 1 -4 102.89 3.1
1 -1 4 96.99 2.9
-2 1 -4 71.79 2.3
-2 1 -4 75.89 2.4
2 -1 4 71.09 2.2
-3 1 -4 56.89 1.9
-3 1 -4 58.49 2
3 -1 4 57.49 1.9
-4 1 -4 61.99 2.1
-4 1 -4 60.69 2
4 -1 4 60.69 2
-5 1 -4 415.46 11.4
-5 1 -4 410.76 11.7
5 -1 4 427.56 11.4
5 -1 4 415.66 11.6
-6 1 -4 166.48 4.8
-6 1 -4 162.88 5.1
6 -1 4 178.58 4.8
6 -1 4 165.88 5
-7 1 -4 32.7 1.4
-7 1 -4 33.6 1.7
7 -1 4 31 1.5
-8 1 -4 34.9 1.8
-8 1 -4 33 1.5
8 -1 4 29 1.5
-9 1 -4 7.7 0.9
-9 1 -4 8.8 1.2
9 -1 4 8.6 1.1
-10 1 -4 66.69 2.5
-10 1 -4 64.19 2.8
10 -1 4 60.99 2.6
-11 1 -4 0 0.8
-11 1 -4 0.1 1
11 -1 4 0.7 0.9
-12 1 -4 20.7 2
12 -1 4 17 1.6
-13 1 -4 10.2 1.7
13 -1 4 10.3 1.5
-14 1 -4 2.1 1.6
12 0 -4 5.3 1.3
11 0 -4 35.6 2.1
-11 0 4 35.2 2.3
10 0 -4 40.7 2.2
-10 0 4 40.4 2.3
9 0 -4 3.7 1.1
-9 0 4 4 1.1
8 0 -4 32.2 1.8
-8 0 4 32.9 1.9
7 0 -4 31.8 1.6
-7 0 4 31.5 1.5
-7 0 4 31.1 1.7
6 0 -4 59.59 2.2
6 0 -4 64.59 2.5
-6 0 4 59.79 2.3
-6 0 4 57.29 2.1
5 0 -4 144.89 4.4
5 0 -4 143.99 4.3
-5 0 4 144.49 4.4
-5 0 4 142.39 4.2
4 0 -4 13.2 0.9
4 0 -4 12.5 0.8
-4 0 4 12.3 0.9
-4 0 4 12.1 0.7
3 0 -4 206.38 5.9
3 0 -4 213.88 5.9
-3 0 4 205.38 5.9
-3 0 4 200.68 5.8
2 0 -4 539.35 14.8
2 0 -4 551.94 14.9
2 0 -4 534.85 14.8
-2 0 4 544.65 14.8
1 0 -4 95.99 2.9
1 0 -4 91.49 2.8
-1 0 4 96.29 2.8
0 0 -4 712.23 20.3
0 0 -4 795.62 20.4
0 0 4 742.73 20.3
-1 0 -4 647.74 17.1
-1 0 -4 614.54 17
1 0 4 613.24 16.9
-2 0 -4 68.59 2.1
-2 0 -4 63.49 2.1
2 0 4 63.89 2
-3 0 -4 1737.33 46.7
3 0 4 1743.13 46.7
3 0 4 1725.93 46.7
-4 0 -4 384.86 10.8
-4 0 -4 385.26 10.6
4 0 4 401.56 10.7
4 0 4 388.46 10.7
-5 0 -4 14 1
-5 0 -4 15.4 0.8
5 0 4 14.1 0.9
5 0 4 14.1 0.7
-6 0 -4 223.58 6.5
-6 0 -4 224.38 6.3
6 0 4 219.48 6.2
6 0 4 218.68 6.4
-7 0 -4 150.48 4.7
-7 0 -4 146.39 4.4
7 0 4 148.29 4.5
7 0 4 152.48 4.3
-8 0 -4 271.17 7.6
-8 0 -4 266.97 7.8
8 0 4 256.87 7.7
-9 0 -4 18.6 1.5
-9 0 -4 19.4 1.3
9 0 4 16.7 1.3
-10 0 -4 81.99 2.9
-10 0 -4 77.39 3.1
10 0 4 72.99 2.9
-11 0 -4 158.28 5.2
-11 0 -4 154.28 5
11 0 4 154.18 5.1
-12 0 -4 8.6 1.3
-12 0 -4 9.2 1.4
12 0 4 7.3 1.3
-13 0 -4 21.1 2.1
13 0 4 16 1.7
12 -1 -4 1.4 1.2
-12 1 4 2.9 1.3
11 -1 -4 35.1 2.1
-11 1 4 30.5 2.2
10 -1 -4 13.3 1.5
-10 1 4 11.1 1.5
9 -1 -4 12.4 1.4
-9 1 4 13.6 1.4
-9 1 4 10.8 1.3
8 -1 -4 40.2 1.9
-8 1 4 41.6 2
-8 1 4 37.9 1.9
7 -1 -4 23.4 1.4
-7 1 4 24.5 1.5
-7 1 4 25.2 1.4
6 -1 -4 231.18 6.7
-6 1 4 228.98 6.8
-6 1 4 236.18 6.7
5 -1 -4 27.8 1.3
5 -1 -4 29.9 1.2
-5 1 4 28.8 1.3
-5 1 4 28.3 1.4
4 -1 -4 51.89 1.8
4 -1 -4 51.59 1.9
4 -1 -4 51.69 1.8
-4 1 4 51.79 1.8
3 -1 -4 15 0.8
3 -1 -4 13.4 0.9
3 -1 -4 13.6 0.8
-3 1 4 13.6 0.8
2 -1 -4 47.8 1.6
2 -1 -4 47.6 1.6
2 -1 -4 45.3 1.6
2 -1 -4 46.8 1.5
1 -1 -4 595.94 16.6
1 -1 -4 613.74 16.6
1 -1 -4 617.44 16.5
1 -1 -4 613.44 16.5
0 -1 -4 208.68 6.2
0 -1 -4 222.58 6.1
0 -1 -4 234.28 6.3
0 1 4 223.08 6.1
-1 -1 -4 124.79 3.5
1 1 4 124.29 3.4
1 1 4 117.49 3.5
-2 -1 -4 9.2 0.7
2 1 4 9.1 0.6
2 1 4 8.4 0.6
-3 -1 -4 92.69 2.6
-3 -1 -4 90.19 2.8
3 1 4 88.79 2.7
3 1 4 91.29 2.7
-4 -1 -4 469.75 12.6
-4 -1 -4 456.75 12.8
4 1 4 477.35 12.7
4 1 4 449.95 12.7
-5 -1 -4 184.68 5.4
-5 -1 -4 183.68 5.2
5 1 4 183.38 5.3
5 1 4 183.28 5.2
-6 -1 -4 541.95 15.1
-6 -1 -4 549.45 15
6 1 4 536.25 15
6 1 4 552.64 14.9
-7 -1 -4 60.89 2.2
-7 -1 -4 61.69 2.3
7 1 4 58.99 2.2
7 1 4 61.69 2
-8 -1 -4 84.19 3
-8 -1 -4 83.79 2.9
8 1 4 84.29 2.9
-9 -1 -4 39.1 1.8
-9 -1 -4 37.6 1.9
9 1 4 38.3 1.8
-10 -1 -4 126.59 4.2
-10 -1 -4 126.09 4.1
10 1 4 119.29 4.1
-11 -1 -4 0.9 1
-11 -1 -4 -0.4 0.9
11 1 4 1.9 1
-12 -1 -4 7.6 1.3
-12 -1 -4 4.8 1.2
12 1 4 5 1.2
-13 -1 -4 19.7 1.9
13 1 4 18.5 1.9
12 -2 -4 1.2 1.2
-12 2 4 -1 1.1
11 -2 -4 3.4 1.2
-11 2 4 2.6 1.1
10 -2 -4 22 1.7
-10 2 4 22 1.8
-10 2 4 24.1 1.8
9 -2 -4 168.28 5.2
-9 2 4 162.38 5.3
-9 2 4 158.58 5.2
8 -2 -4 731.93 20.3
-8 2 4 726.53 20.4
-8 2 4 744.43 20.3
7 -2 -4 0.6 0.7
-7 2 4 1.1 0.7
-7 2 4 0.5 0.7
6 -2 -4 161.18 4.8
6 -2 -4 162.48 5
-6 2 4 156.98 4.8
5 -2 -4 6.6 0.8
5 -2 -4 6.5 0.9
-5 2 4 9.2 0.5
-5 2 4 7.8 0.8
4 -2 -4 2.3 0.5
4 -2 -4 1.3 0.6
-4 2 4 2.6 0.4
-4 2 4 1.7 0.5
3 -2 -4 5.3 0.6
3 -2 -4 4.2 0.6
-3 2 4 4 0.4
-3 2 4 5.2 0.6
2 -2 -4 1475.65 41.2
2 -2 -4 1557.04 41.1
-2 2 4 1540.25 41.2
-2 2 4 1544.65 41.2
1 -2 -4 853.71 21.8
1 -2 -4 779.62 21.8
1 -2 -4 797.92 21.9
-1 2 4 803.22 21.9
0 -2 -4 69.79 2
0 -2 -4 68.49 2.1
0 2 4 72.09 2
0 2 4 65.99 2.1
-1 -2 -4 283.17 7.6
-1 -2 -4 278.67 7.7
1 2 4 295.07 7.6
1 2 4 261.07 7.7
-2 -2 -4 555.44 14.5
-2 -2 -4 521.35 14.6
2 2 4 521.35 14.6
2 2 4 545.35 14.5
-3 -2 -4 88.79 2.7
-3 -2 -4 91.49 2.6
3 2 4 89.99 2.6
3 2 4 88.19 2.7
-4 -2 -4 122.59 3.5
-4 -2 -4 118.69 3.6
4 2 4 121.79 3.5
4 2 4 120.09 3.6
-5 -2 -4 610.94 16.9
-5 -2 -4 617.24 16.8
5 2 4 614.04 16.8
5 2 4 619.64 16.8
-6 -2 -4 2.3 0.6
-6 -2 -4 2.7 0.6
6 2 4 1.9 0.5
6 2 4 1.9 0.6
-7 -2 -4 72.09 2.5
-7 -2 -4 69.79 2.5
7 2 4 71.49 2.5
7 2 4 71.39 2.3
-8 -2 -4 9.7 1.2
-8 -2 -4 11.2 1.1
8 2 4 8.4 1
-9 -2 -4 62.39 2.5
-9 -2 -4 64.19 2.5
9 2 4 62.59 2.5
-10 -2 -4 1.3 0.9
-10 -2 -4 0.9 0.9
10 2 4 -1.6 0.8
-11 -2 -4 2.9 1.1
-11 -2 -4 3.8 1.1
11 2 4 1.7 1
-12 -2 -4 15.9 1.8
12 2 4 16.6 1.7
-13 -2 -4 13.5 1.9
13 2 4 16 1.9
-14 -2 -4 0.1 2.3
12 -3 -4 34.1 2.2
-12 3 4 36.1 2.4
11 -3 -4 12.2 1.5
-11 3 4 11.8 1.5
-11 3 4 9.3 1.4
10 -3 -4 1.3 1
-10 3 4 0.2 1
-10 3 4 0.3 0.9
9 -3 -4 2.3 0.9
-9 3 4 1.9 1
-9 3 4 1.2 1
8 -3 -4 129.99 4.2
-8 3 4 129.29 4.3
-8 3 4 131.99 4.3
7 -3 -4 34.9 1.6
7 -3 -4 34.5 1.8
-7 3 4 35 1.8
6 -3 -4 12.4 1
6 -3 -4 13.2 1.1
-6 3 4 14.1 1.1
5 -3 -4 43.6 1.8
5 -3 -4 45.9 1.6
-5 3 4 44.8 1.8
-5 3 4 39.2 1.3
4 -3 -4 630.04 16.7
4 -3 -4 609.54 16.8
-4 3 4 629.24 16.8
-4 3 4 578.14 16.5
3 -3 -4 393.26 10.7
3 -3 -4 374.66 10.8
-3 3 4 395.56 10.8
-3 3 4 396.46 10.6
2 -3 -4 7.6 0.5
2 -3 -4 6.1 0.7
-2 3 4 8.2 0.7
-2 3 4 9.1 0.5
1 -3 -4 183.68 5
1 -3 -4 168.08 5
0 -3 -4 19.8 0.9
0 -3 -4 20 0.9
0 3 4 20.9 0.9
-1 -3 -4 13.8 0.7
-1 -3 -4 12.8 0.7
1 3 4 15.3 0.8
-2 -3 -4 296.57 8.2
-2 -3 -4 291.17 8.3
2 3 4 302.67 8.3
2 3 4 307.87 8.1
-3 -3 -4 335.97 9.3
-3 -3 -4 340.87 9.4
3 3 4 342.37 9.3
3 3 4 334.97 9.4
-4 -3 -4 411.66 11.5
-4 -3 -4 426.96 11.5
4 3 4 417.56 11.6
4 3 4 419.56 11.5
-5 -3 -4 46.2 1.7
-5 -3 -4 44.9 1.7
5 3 4 44.8 1.6
5 3 4 44.4 1.6
-6 -3 -4 83.39 2.8
-6 -3 -4 84.49 2.7
6 3 4 86.49 2.7
6 3 4 83.99 2.7
-7 -3 -4 13.9 1.1
-7 -3 -4 14.6 1.2
7 3 4 14.5 1
7 3 4 13 1
-8 -3 -4 413.96 11.6
-8 -3 -4 412.66 11.6
8 3 4 406.06 11.6
-9 -3 -4 31.2 1.8
-9 -3 -4 31.5 1.7
9 3 4 31.6 1.7
-10 -3 -4 242.58 7.4
-10 -3 -4 241.98 7.3
10 3 4 242.18 7.3
-11 -3 -4 73.29 3.1
11 3 4 78.69 3.1
-12 -3 -4 70.19 3.2
12 3 4 71.09 3.1
-13 -3 -4 4.3 1.5
13 3 4 5.5 1.5
12 -4 -4 50.79 2.6
-12 4 4 58.59 3
-12 4 4 59.29 2.9
11 -4 -4 27.2 1.9
-11 4 4 31.5 2.3
-11 4 4 28.3 2.1
10 -4 -4 112.79 4
-10 4 4 123.79 4.3
-10 4 4 119.59 4.3
9 -4 -4 9 1.2
-9 4 4 8.1 1.2
-9 4 4 7 1.3
8 -4 -4 86.89 3.2
8 -4 -4 85.89 3
-8 4 4 87.69 3.3
7 -4 -4 100.09 3.2
7 -4 -4 95.89 3.4
-7 4 4 97.39 3.4
6 -4 -4 25.3 1.2
6 -4 -4 23.5 1.4
-6 4 4 24.3 1.4
5 -4 -4 61.19 2
5 -4 -4 56.99 2.2
-5 4 4 58.99 2.2
-5 4 4 57.69 1.8
4 -4 -4 521.95 14
4 -4 -4 498.35 14.1
-4 4 4 514.55 14.2
-4 4 4 510.65 13.9
3 -4 -4 461.05 12.4
3 -4 -4 441.06 12.6
-3 4 4 455.15 12.4
-3 4 4 461.25 12.6
2 -4 -4 85.69 2.4
2 -4 -4 81.79 2.7
-2 4 4 87.39 2.7
-2 4 4 85.99 2.6
1 -4 -4 149.88 4.4
-1 4 4 154.78 4.5
-1 4 4 157.18 4.4
0 -4 -4 577.14 16.3
0 -4 -4 588.04 16.2
0 4 4 625.34 16.3
-1 -4 -4 3.3 0.5
-1 -4 -4 1.9 0.4
1 4 4 1.7 0.5
-2 -4 -4 86.69 2.7
-2 -4 -4 82.19 2.6
2 4 4 89.29 2.5
2 4 4 91.29 2.7
-3 -4 -4 58.19 2
-3 -4 -4 62.59 2.1
3 4 4 61.39 1.9
3 4 4 63.09 2.1
-4 -4 -4 0.6 0.4
-4 -4 -4 0.1 0.6
4 4 4 -0.3 0.4
4 4 4 0.5 0.5
-5 -4 -4 68.79 2.3
-5 -4 -4 70.09 2.4
5 4 4 71.19 2.3
5 4 4 71.49 2.4
-6 -4 -4 160.98 4.9
-6 -4 -4 158.28 4.7
6 4 4 159.38 4.7
6 4 4 165.98 4.8
-7 -4 -4 124.59 4.1
-7 -4 -4 129.29 4
7 4 4 127.39 4
7 4 4 131.19 4
-8 -4 -4 50.39 2.2
-8 -4 -4 54.39 2.1
8 4 4 52.49 2.1
8 4 4 51.59 2.1
-9 -4 -4 0.2 0.7
-9 -4 -4 -0.2 0.9
9 4 4 -0.1 0.8
-10 -4 -4 6 1.3
10 4 4 5.5 1.1
-11 -4 -4 -0.2 1.1
11 4 4 0.2 1
-12 -4 -4 39.5 2.5
12 4 4 44.7 2.4
-13 -4 -4 1.6 1.5
13 4 4 0.6 1.4
12 -5 -4 -0.9 1.1
-12 5 4 -0.6 1.3
-12 5 4 2.9 1.3
11 -5 -4 13.3 1.6
-11 5 4 15.7 2.1
-11 5 4 14.3 1.7
10 -5 -4 43.7 2.1
-10 5 4 45 2.5
-10 5 4 46.9 2.4
9 -5 -4 4.5 1
9 -5 -4 3 1
-9 5 4 3.2 1.2
8 -5 -4 159.88 4.8
8 -5 -4 155.58 5
-8 5 4 153.78 5.1
7 -5 -4 15.3 1.3
7 -5 -4 17.4 1.1
-7 5 4 16.4 1.5
6 -5 -4 238.18 6.6
6 -5 -4 223.08 6.8
-6 5 4 233.78 7
5 -5 -4 89.49 2.7
5 -5 -4 82.79 2.9
-5 5 4 85.29 3
4 -5 -4 23.8 1
4 -5 -4 21.6 1.2
-4 5 4 23 1.3
-4 5 4 21.9 1
3 -5 -4 53.39 2
3 -5 -4 54.99 1.7
-3 5 4 56.19 1.8
-3 5 4 53.99 2
2 -5 -4 793.52 22.1
-2 5 4 800.52 22
-2 5 4 835.42 22
1 -5 -4 51.39 1.8
-1 5 4 50.49 1.8
-1 5 4 53.49 1.8
0 -5 -4 485.05 13.3
0 -5 -4 474.35 13.3
0 5 4 493.35 13.3
-1 -5 -4 101.69 3.2
-1 -5 -4 106.99 3.2
1 5 4 110.69 3.3
-2 -5 -4 46 1.6
-2 -5 -4 46.6 1.7
2 5 4 46.8 1.4
2 5 4 48.2 1.8
-3 -5 -4 31.7 1.4
-3 -5 -4 31.7 1.2
3 5 4 34.1 1.4
3 5 4 32.4 1.1
-4 -5 -4 165.78 4.8
-4 -5 -4 171.98 5
4 5 4 171.38 5
4 5 4 169.88 4.8
-5 -5 -4 29.5 1.4
-5 -5 -4 28.5 1.2
5 5 4 28.8 1.4
5 5 4 28.2 1.2
-6 -5 -4 113.39 3.5
-6 -5 -4 112.09 3.7
6 5 4 116.39 3.6
6 5 4 112.09 3.5
-7 -5 -4 104.39 3.4
-7 -5 -4 110.49 3.7
7 5 4 107.89 3.5
7 5 4 109.39 3.5
-8 -5 -4 -0.3 0.9
8 5 4 0.6 0.7
8 5 4 -0.3 0.7
-9 -5 -4 105.39 3.8
9 5 4 107.89 3.6
-10 -5 -4 2.5 1.2
10 5 4 3.6 1
-11 -5 -4 -1.1 1.2
11 5 4 1.5 1.1
-12 -5 -4 113.39 4.5
12 5 4 121.89 4.4
-13 -5 -4 10.6 1.9
-12 6 4 14.1 2.2
-12 6 4 11.4 1.9
11 -6 -4 129.09 4.6
-11 6 4 142.69 5
-11 6 4 149.39 5.3
10 -6 -4 88.09 3.3
10 -6 -4 90.39 3.6
-10 6 4 92.59 3.7
9 -6 -4 10.8 1.2
9 -6 -4 13.6 1.5
-9 6 4 12.8 1.8
8 -6 -4 1.8 0.7
8 -6 -4 -0.4 0.8
-8 6 4 0.5 1
7 -6 -4 3.8 0.7
7 -6 -4 2.4 0.9
-7 6 4 4 1
6 -6 -4 161.48 4.7
6 -6 -4 156.98 5
-6 6 4 157.58 5.1
5 -6 -4 3.4 0.6
5 -6 -4 2 0.7
-5 6 4 3.1 0.8
4 -6 -4 50.29 2
4 -6 -4 53.59 1.7
-4 6 4 52.79 1.8
-4 6 4 51.89 2.1
3 -6 -4 4.1 0.5
3 -6 -4 5.4 0.7
-3 6 4 4.6 0.7
-3 6 4 4.9 0.7
2 -6 -4 32.9 1.4
-2 6 4 34.1 1.4
-2 6 4 34 1.4
1 -6 -4 60.89 2.1
-1 6 4 62.79 2.1
-1 6 4 63.19 2.1
0 -6 -4 192.48 5.6
0 6 4 196.18 5.5
0 6 4 193.18 5.6
-1 -6 -4 99.89 3.2
-1 -6 -4 103.19 3.1
1 6 4 105.69 3.3
-2 -6 -4 42.3 1.7
-2 -6 -4 46.2 1.6
2 6 4 46.4 1.4
2 6 4 43.7 1.8
-3 -6 -4 3.4 0.5
-3 -6 -4 3.2 0.7
3 6 4 2.8 0.7
3 6 4 1.9 0.4
-4 -6 -4 22.8 1
-4 -6 -4 21.5 1.3
4 6 4 23.3 1
4 6 4 22.3 1.3
-5 -6 -4 564.24 15.7
-5 -6 -4 579.44 16
5 6 4 587.54 16
5 6 4 570.54 15.7
-6 -6 -4 237.38 7
-6 -6 -4 228.58 6.7
6 6 4 245.78 6.8
6 6 4 241.48 7
-7 -6 -4 61.89 2.5
7 6 4 61.39 2.3
7 6 4 61.19 2.4
-8 -6 -4 40.6 2.1
8 6 4 37.1 1.9
8 6 4 40.8 1.9
-9 -6 -4 8.4 1.3
9 6 4 11.2 1.3
-10 -6 -4 0.4 1.2
10 6 4 4 1.2
-11 -6 -4 29.2 2.3
11 6 4 33.8 2.2
-12 -6 -4 15.2 2.1
12 6 4 17.8 2
-11 7 4 -0.9 1.6
10 -7 -4 58.39 2.8
-10 7 4 57.09 3
9 -7 -4 2.5 1
9 -7 -4 0.1 0.7
-9 7 4 1.1 1.2
8 -7 -4 54.39 2.1
8 -7 -4 54.19 2.5
-8 7 4 53.79 2.7
7 -7 -4 185.28 5.5
7 -7 -4 190.28 5.8
-7 7 4 185.58 6
6 -7 -4 140.09 4.1
6 -7 -4 134.59 4.4
-6 7 4 138.49 4.6
5 -7 -4 93.59 2.8
5 -7 -4 89.99 3.1
-5 7 4 84.29 3.1
4 -7 -4 906.51 24.3
4 -7 -4 882.61 24.6
-4 7 4 921.61 24.4
-4 7 4 881.01 24.6
3 -7 -4 602.44 16.3
3 -7 -4 598.44 16.7
-3 7 4 592.24 16.7
-3 7 4 619.04 16.6
2 -7 -4 6.9 0.8
-2 7 4 7.5 0.9
-2 7 4 7.8 0.9
1 -7 -4 881.41 23.9
-1 7 4 889.31 23.9
-1 7 4 852.01 23.8
0 -7 -4 249.48 7.2
0 7 4 252.87 7.1
0 7 4 252.97 7.3
-1 -7 -4 10.9 0.9
1 7 4 10.5 1
1 7 4 10.2 0.8
-2 -7 -4 43.6 1.8
-2 -7 -4 47.8 1.6
2 7 4 47.1 1.5
2 7 4 45.5 1.9
-3 -7 -4 11.4 0.7
-3 -7 -4 12 1
3 7 4 12.2 0.7
3 7 4 11.2 1.1
-4 -7 -4 2.9 0.8
-4 -7 -4 2.5 0.5
4 7 4 3.4 0.6
4 7 4 3.7 0.9
-5 -7 -4 564.74 15.4
5 7 4 537.65 15.4
-6 -7 -4 0.7 0.9
6 7 4 0.2 0.7
6 7 4 0.1 0.8
-7 -7 -4 15 1.6
7 7 4 16.4 1.2
7 7 4 14.4 1.4
-8 -7 -4 3.9 1.1
8 7 4 3.1 0.9
8 7 4 1.2 0.7
-9 -7 -4 29.7 2.1
9 7 4 27 1.7
-10 -7 -4 14.4 1.8
10 7 4 14.7 1.6
-11 -7 -4 3.3 1.5
11 7 4 0.5 1.2
-12 -7 -4 17.2 2.3
11 -8 -4 0.1 1.3
-11 8 4 -0.8 1.6
10 -8 -4 23 2
-10 8 4 26 2.4
9 -8 -4 132.79 4.7
-9 8 4 135.99 5
8 -8 -4 3.1 1
-8 8 4 2.3 1.2
7 -8 -4 43.4 2.1
-7 8 4 38.5 2.3
6 -8 -4 39.6 1.6
6 -8 -4 37.9 1.9
-6 8 4 39.8 2.1
5 -8 -4 14.8 0.9
5 -8 -4 13.4 1.3
-5 8 4 13.5 1.3
4 -8 -4 76.49 2.4
4 -8 -4 76.99 2.8
-4 8 4 82.39 2.7
-4 8 4 78.39 2.9
3 -8 -4 34.1 1.2
3 -8 -4 33.2 1.6
-3 8 4 35 1.6
-3 8 4 33.3 1.7
2 -8 -4 101.59 3.4
-2 8 4 104.89 3.4
-2 8 4 101.09 3.3
1 -8 -4 48.2 2
-1 8 4 50.49 2
-1 8 4 50.69 1.9
0 -8 -4 165.18 5.1
0 8 4 172.28 5.2
0 8 4 170.48 5
-1 -8 -4 152.98 4.8
-1 -8 -4 164.18 4.5
1 8 4 160.58 5
1 8 4 165.98 4.7
-2 -8 -4 46.1 1.5
-2 -8 -4 45.1 1.9
2 8 4 45.7 2
2 8 4 49.8 1.7
-3 -8 -4 4 0.8
3 8 4 4.1 0.8
3 8 4 3.3 0.6
-4 -8 -4 148.49 4.9
4 8 4 162.78 5.1
4 8 4 162.28 4.6
-5 -8 -4 70.99 2.7
5 8 4 75.09 2.4
5 8 4 66.39 2.8
-6 -8 -4 20.7 1.7
6 8 4 20 1.6
6 8 4 19.4 1.3
-7 -8 -4 3 1
7 8 4 4 1.1
7 8 4 2.6 0.8
-8 -8 -4 264.47 8
8 8 4 260.77 8
-9 -8 -4 115.69 4.3
-10 -8 -4 62.09 3.1
10 8 4 68.49 2.9
-11 -8 -4 12.5 1.9
11 8 4 14.8 1.8
11 -9 -4 8 1.7
10 -9 -4 -0.1 1.2
-10 9 4 -0.4 1.5
9 -9 -4 32.2 2.1
-9 9 4 27.8 2.4
8 -9 -4 48.5 2.5
-8 9 4 53.69 2.8
7 -9 -4 170.28 5.5
-7 9 4 168.68 5.7
6 -9 -4 10.7 1.3
-6 9 4 7.5 1.3
5 -9 -4 43.9 2.1
-5 9 4 41.9 2.2
4 -9 -4 1.6 0.8
-4 9 4 0.1 0.8
-4 9 4 1.3 0.8
3 -9 -4 154.48 5
-3 9 4 158.18 4.9
-3 9 4 163.28 4.9
2 -9 -4 46.6 2
-2 9 4 48.6 2
-2 9 4 45.5 2
1 -9 -4 129.59 4.3
-1 9 4 136.79 4.2
-1 9 4 137.59 4.4
0 -9 -4 2.4 0.7
0 -9 -4 1.8 0.7
0 9 4 1.7 0.6
0 9 4 1.5 0.8
-1 -9 -4 90.49 2.7
-1 -9 -4 88.19 3.1
1 9 4 86.19 3.2
1 9 4 95.29 2.9
-2 -9 -4 7.6 1
-2 -9 -4 9 0.7
2 9 4 11.1 1.2
2 9 4 9.1 0.8
-3 -9 -4 151.38 4.3
-3 -9 -4 150.18 4.7
3 9 4 140.49 4.8
-4 -9 -4 3.7 1
4 9 4 2.2 0.9
4 9 4 2.6 0.6
-5 -9 -4 18.3 1.5
5 9 4 17.6 1.2
5 9 4 15.5 1.5
-6 -9 -4 20.1 1.6
6 9 4 18.6 1.3
6 9 4 20.3 1.7
-7 -9 -4 9.3 1.4
7 9 4 9.3 1.4
7 9 4 6.9 1.1
-8 -9 -4 7.1 1.4
8 9 4 10.4 1.4
8 9 4 8.2 1.3
-9 -9 -4 2.9 1.3
9 9 4 2.5 1.1
-10 -9 -4 82.79 3.8
10 9 4 91.89 3.5
-11 -9 -4 27.1 2.7
11 9 4 26.9 2.3
10 -10 -4 115.79 4.4
-10 10 4 103.89 4.7
9 -10 -4 22.1 2
-9 10 4 23.4 2.3
8 -10 -4 264.17 8
-8 10 4 249.58 8.2
7 -10 -4 46 2.3
-7 10 4 43.4 2.6
6 -10 -4 0.6 0.9
-6 10 4 -0.8 1.1
5 -10 -4 15 1.5
-5 10 4 15.3 1.6
4 -10 -4 192.48 6.1
-4 10 4 199.58 6
-4 10 4 195.28 6.1
3 -10 -4 94.39 3.4
-3 10 4 101.59 3.5
-3 10 4 97.59 3.4
2 -10 -4 264.47 8
-2 10 4 269.57 8
-2 10 4 277.17 7.9
1 -10 -4 28.5 1.6
-1 10 4 29.8 1.6
-1 10 4 29 1.7
0 -10 -4 4.1 0.8
0 10 4 5.1 1.1
0 10 4 5.4 0.9
-1 -10 -4 14 1.2
1 10 4 10.6 1.4
1 10 4 14.9 1.2
-2 -10 -4 32 1.7
2 10 4 31.4 1.9
-3 -10 -4 172.28 5.4
3 10 4 172.68 5.6
-4 -10 -4 3.1 0.6
-4 -10 -4 4.3 1
4 10 4 2.9 1
-5 -10 -4 125.69 4.2
5 10 4 125.39 3.8
5 10 4 114.29 4.3
-6 -10 -4 0.1 1
6 10 4 0.6 0.8
6 10 4 1.1 1
-7 -10 -4 46 2.5
7 10 4 48 2.5
7 10 4 46.8 2.1
-8 -10 -4 8 1.5
8 10 4 8.1 1.3
8 10 4 11.8 1.7
-9 -10 -4 20 2.2
9 10 4 22.8 1.8
-10 -10 -4 30.7 2.6
10 10 4 32 2.2
10 -11 -4 13.2 1.9
9 -11 -4 45 2.6
-9 11 4 39.3 2.9
8 -11 -4 22.8 2
-8 11 4 25.3 2.4
7 -11 -4 5.1 1.2
-7 11 4 6.7 1.6
6 -11 -4 52.39 2.5
-6 11 4 46.8 2.7
5 -11 -4 13.1 1.5
-5 11 4 14.5 1.7
4 -11 -4 96.79 3.5
-4 11 4 98.29 3.6
-4 11 4 93.49 3.4
3 -11 -4 8.1 1.1
-3 11 4 7.1 1.1
-3 11 4 6.6 1.1
2 -11 -4 17 1.4
-2 11 4 16.8 1.4
-2 11 4 17.1 1.5
1 -11 -4 0 0.8
-1 11 4 0.6 0.8
-1 11 4 -0.9 0.7
0 -11 -4 114.99 4
0 11 4 122.19 4.3
-1 -11 -4 39.6 1.9
1 11 4 38.5 2.2
-2 -11 -4 6.6 1
2 11 4 5.5 1
-3 -11 -4 11.7 1.3
3 11 4 5.8 1.1
-4 -11 -4 38.1 2
4 11 4 31.9 2.1
-5 -11 -4 1 0.9
5 11 4 0.1 1
-6 -11 -4 6.3 1.3
6 11 4 6.5 1.3
-7 -11 -4 34.1 2.2
7 11 4 33.7 2.3
-8 -11 -4 1.6 1.2
8 11 4 0.5 1.2
-9 -11 -4 22.8 2.3
9 -12 -4 2.1 1.5
-9 12 4 1.3 1.9
8 -12 -4 2.3 1.3
-8 12 4 -1.1 1.4
7 -12 -4 0.3 1.1
-7 12 4 0.9 1.5
6 -12 -4 105.59 4
-6 12 4 103.89 4.2
5 -12 -4 123.29 4.4
-5 12 4 126.59 4.5
4 -12 -4 38.9 2.1
-4 12 4 33.4 2.9
-4 12 4 36.3 2.3
3 -12 -4 95.89 3.6
-3 12 4 99.09 3.6
-3 12 4 92.09 3.6
2 -12 -4 185.28 6
-2 12 4 188.98 6.2
-2 12 4 201.98 6
1 -12 -4 0.4 0.9
-1 12 4 1.7 1
0 -12 -4 100.49 3.6
0 12 4 98.59 3.8
-1 -12 -4 29.7 1.8
1 12 4 30.7 2.1
-2 -12 -4 34 1.9
2 12 4 30.3 2.1
-3 -12 -4 12.2 1.4
3 12 4 11.2 1.6
-4 -12 -4 28.8 1.8
4 12 4 26.1 2.1
-5 -12 -4 33.6 2.1
5 12 4 31.4 2.3
-6 -12 -4 27.2 2.1
6 12 4 29 2.2
-7 -12 -4 17.4 1.9
7 12 4 19.2 2.1
-8 -12 -4 0.9 1.2
8 12 4 1.2 1.3
8 -13 -4 -0.6 1.3
-8 13 4 1.2 1.7
7 -13 -4 7.3 1.5
-7 13 4 4.7 1.6
6 -13 -4 13.9 1.8
-6 13 4 9.3 1.8
5 -13 -4 21.6 1.9
-5 13 4 24.1 2.2
4 -13 -4 118.09 4.3
-4 13 4 124.09 4.5
3 -13 -4 10.8 1.5
-3 13 4 11.3 1.8
-3 13 4 11.6 1.7
2 -13 -4 -0.2 0.9
-2 13 4 0.5 1.1
1 -13 -4 11.8 1.4
-1 13 4 9 1.4
0 -13 -4 12.2 1.4
0 13 4 7.6 1.4
-1 -13 -4 6.3 1.1
1 13 4 3.9 1.3
-2 -13 -4 113.29 4
2 13 4 104.79 4.3
-3 -13 -4 1.8 1
3 13 4 0.7 1.2
-4 -13 -4 1.3 1
4 13 4 1.5 1.2
-5 -13 -4 31.6 2.1
5 13 4 30 2.4
-6 -13 -4 5.3 1.4
6 13 4 4.6 1.5
-7 -13 -4 23.3 2.2
7 13 4 24.9 2.4
8 13 4 -0.4 1.4
7 -14 -4 4.8 1.5
-7 14 4 5.4 1.9
6 -14 -4 12 1.7
-6 14 4 7.6 1.8
5 -14 -4 23.2 2.1
-5 14 4 24.7 2.3
4 -14 -4 -0.8 1
3 -14 -4 26.9 1.9
-3 14 4 28.1 2.2
2 -14 -4 0.1 1
-2 14 4 -0.9 1.2
1 -14 -4 67.49 2.9
-1 14 4 61.49 3.2
0 -14 -4 7.6 1.3
0 14 4 7.9 1.6
-1 -14 -4 14 1.6
1 14 4 15.7 2
-2 -14 -4 5.5 1.3
2 14 4 8.2 1.7
-3 -14 -4 5.5 1.3
3 14 4 4.1 1.6
-4 -14 -4 4.1 1.3
4 14 4 4.8 1.6
-5 -14 -4 44.4 2.5
5 14 4 41.8 2.9
-6 -14 -4 5.6 1.4
6 14 4 6 1.7
6 -15 -4 103.09 4.4
5 -15 -4 54.29 2.9
4 -15 -4 32.4 2.3
3 -15 -4 88.89 3.6
-3 15 4 83.29 3.9
2 -15 -4 2 1.2
-2 15 4 2.4 1.6
1 -15 -4 1.8 1.3
-1 15 4 2.1 1.5
0 -15 -4 17.7 1.9
0 15 4 16.1 2.3
-1 -15 -4 1.7 1.2
1 15 4 4.6 1.7
-2 -15 -4 6.7 1.4
2 15 4 2.8 1.6
-3 -15 -4 4.2 1.4
3 15 4 5.5 1.7
-4 -15 -4 3.3 1.3
4 15 4 2.9 1.9
3 -16 -4 -0.2 1.2
2 -16 -4 0.9 1.3
-2 16 4 0.5 1.5
1 -16 -4 1.8 1.3
-1 16 4 2.8 1.7
0 -16 -4 16.3 2
0 16 4 16.9 2.4
-1 -16 -4 33.9 2.5
-1 -12 5 18.6 1.7
0 12 -5 1.9 1.7
0 -12 5 0.9 1
-1 12 -5 28.9 2.7
1 -12 5 29.7 1.9
-2 12 -5 37.3 3
2 -12 5 37.7 2.1
-3 12 -5 8.9 1.9
3 -12 5 8.6 1.3
-4 12 -5 35.5 2.9
4 -12 5 30.4 2
5 -12 5 36.2 2.1
6 -12 5 16.4 1.7
3 11 -5 49.99 3.2
-3 -11 5 53.69 2.5
2 11 -5 0.1 1.4
-2 -11 5 -1.4 0.9
1 11 -5 6.7 1.7
-1 -11 5 9.2 1.2
0 11 -5 11.3 1.9
0 -11 5 11.4 1.4
-1 11 -5 35.6 2.7
1 -11 5 40.8 2.1
-2 11 -5 70.39 3.5
2 -11 5 70.69 2.9
-3 11 -5 0.3 1.5
3 -11 5 -0.4 0.9
-4 11 -5 34.3 2.6
4 -11 5 32 1.9
-5 11 -5 -0.7 1.4
5 -11 5 1.7 1
6 -11 5 38.2 2.2
7 -11 5 2.2 1
5 10 -5 8 1.8
-5 -10 5 8.1 1.3
4 10 -5 27.9 2.5
-4 -10 5 24.6 1.8
3 10 -5 23.9 2.3
-3 -10 5 26.3 1.7
2 10 -5 52.79 3
-2 -10 5 52.09 2.4
1 10 -5 13.1 1.9
-1 -10 5 13.7 1.4
0 10 -5 14.5 2
0 -10 5 16.1 1.4
-1 10 -5 -1.8 1.1
1 -10 5 0.6 0.8
-2 10 -5 1.2 1.3
2 -10 5 2.3 0.9
-3 10 -5 22.7 2.1
3 -10 5 23.5 1.7
-4 10 -5 73.59 3.3
4 -10 5 67.49 2.8
-5 10 -5 14.3 1.9
5 -10 5 14.3 1.5
6 -10 5 74.49 3
-7 10 -5 62.19 3.1
7 -10 5 55.59 2.6
-8 10 -5 29.8 2.4
8 -10 5 27.3 1.9
-9 10 -5 14.6 2.2
9 -10 5 11.7 1.6
-7 -9 5 -0.7 1.5
6 9 -5 10 1.8
-6 -9 5 12.1 1.7
-6 -9 5 11.4 1.5
5 9 -5 33.3 2.5
-5 -9 5 34.2 2.2
-5 -9 5 28.6 1.9
4 9 -5 33.1 2.5
-4 -9 5 38 2.2
-4 -9 5 31.8 1.9
3 9 -5 5.9 1.5
-3 -9 5 6.4 1.1
2 9 -5 34.1 2.4
-2 -9 5 35.9 1.8
1 9 -5 72.19 3.4
-1 -9 5 78.99 2.9
0 9 -5 5.8 1.3
0 -9 5 5.7 1
-1 9 -5 23.4 1.9
1 -9 5 23.6 1.5
-2 9 -5 21.3 2
2 -9 5 24.8 1.5
-3 9 -5 0.8 1.2
3 -9 5 4.1 0.9
-4 9 -5 11.5 1.6
4 -9 5 6.9 1
-5 9 -5 55.49 2.8
-5 9 -5 53.99 2.7
5 -9 5 57.19 2.4
-6 9 -5 121.59 4.3
6 -9 5 114.79 4.1
-7 9 -5 2.6 1.3
7 -9 5 3.2 1.1
-8 9 -5 1.4 1.3
8 -9 5 2.7 1
-9 9 -5 0.4 1.3
9 -9 5 0.1 0.9
-10 9 -5 39.9 2.7
10 -9 5 39.3 2.3
-7 -8 5 -1.2 0.9
-7 -8 5 -0.4 1.3
6 8 -5 7.6 1.5
-6 -8 5 6.7 1.3
-6 -8 5 5.6 1.4
5 8 -5 4.8 1.4
-5 -8 5 4.5 1.3
-5 -8 5 5.4 1.1
4 8 -5 1.2 1.2
-4 -8 5 0.8 0.8
-4 -8 5 1.4 1.1
3 8 -5 22.9 2
-3 -8 5 22.8 1.5
-3 -8 5 25.2 1.7
2 8 -5 54.09 2.8
-2 -8 5 58.69 2.4
-2 -8 5 60.09 2.4
1 8 -5 61.29 3
-1 -8 5 67.29 2.5
0 8 -5 2.5 1.1
0 -8 5 1.4 0.8
-1 8 -5 12.5 1.6
1 -8 5 15.8 1.3
-2 8 -5 97.89 3.8
2 -8 5 98.59 3.4
-3 8 -5 12.5 1.6
3 -8 5 9.4 1.2
-4 8 -5 -0.4 0.9
-4 8 -5 -0.4 1
4 -8 5 -0.7 0.7
-5 8 -5 165.28 5.2
-5 8 -5 157.68 5.3
5 -8 5 150.88 5
-6 8 -5 1.3 1
-6 8 -5 0.4 1
6 -8 5 -0.4 0.8
-7 8 -5 23 2
7 -8 5 22.4 1.6
-8 8 -5 79.49 3.4
8 -8 5 70.09 3
-9 8 -5 6.5 1.5
9 -8 5 3.6 1.1
-10 8 -5 24.6 2.3
10 -8 5 20.6 1.8
11 -8 5 31.5 2.2
-8 -7 5 0.4 1
-8 -7 5 0 1.5
-7 -7 5 32 2.4
-7 -7 5 32.5 2
6 7 -5 20.8 2
-6 -7 5 17 1.9
-6 -7 5 18.4 1.6
5 7 -5 4.8 1.3
-5 -7 5 6.3 1.3
-5 -7 5 7.6 1.1
4 7 -5 11.7 1.6
-4 -7 5 12.7 1.5
-4 -7 5 13.7 1.3
3 7 -5 17.3 1.7
-3 -7 5 16.3 1.5
-3 -7 5 18.6 1.4
2 7 -5 41.3 2.3
-2 -7 5 42.4 1.9
-2 -7 5 42 1.9
1 7 -5 29.2 1.9
-1 -7 5 33.9 1.6
-1 -7 5 30.6 1.6
0 7 -5 30.5 2
0 -7 5 33.7 1.5
0 -7 5 31.7 1.6
-1 7 -5 97.59 3.7
1 -7 5 99.49 3.3
-2 7 -5 76.89 3.1
2 -7 5 79.29 2.8
-3 7 -5 1.2 0.8
-3 7 -5 1.8 1
3 -7 5 0.5 0.7
-4 7 -5 205.98 6.2
-4 7 -5 207.48 6.4
4 -7 5 200.48 6.2
-5 7 -5 4.7 1.1
-5 7 -5 4.6 1
5 -7 5 5.3 0.9
-6 7 -5 69.89 2.8
-6 7 -5 68.99 2.9
6 -7 5 68.29 2.7
-7 7 -5 182.58 5.9
7 -7 5 174.08 5.6
-8 7 -5 0.1 1.1
8 -7 5 -1.9 0.8
-9 7 -5 0.5 1.2
9 -7 5 0.9 0.9
-10 7 -5 68.69 3.3
10 -7 5 64.19 2.8
-11 7 -5 0.9 1.3
11 -7 5 1.8 1.1
9 6 -5 13.1 2.3
-9 -6 5 9.3 1.9
8 6 -5 31.6 2.3
-8 -6 5 29.7 2.5
-7 -6 5 2 1.4
6 6 -5 2.9 1.2
-6 -6 5 2.1 1.2
-6 -6 5 2.1 0.9
5 6 -5 11.6 1.6
-5 -6 5 11.4 1.2
-5 -6 5 9.4 1.3
4 6 -5 26.4 1.9
-4 -6 5 28.3 1.6
-4 -6 5 28 1.8
3 6 -5 0.9 0.9
-3 -6 5 0.6 0.6
-3 -6 5 0.3 0.8
2 6 -5 28.3 1.9
-2 -6 5 29.3 1.5
-2 -6 5 30.8 1.6
1 6 -5 33.6 2
-1 -6 5 38.2 1.6
-1 -6 5 34.3 1.6
0 6 -5 3.6 1
0 -6 5 2 0.7
0 -6 5 3.6 0.7
-1 6 -5 32.9 1.9
-1 6 -5 36.5 1.6
1 -6 5 32.9 1.6
1 -6 5 34.4 1.4
-2 6 -5 222.68 6.8
-2 6 -5 227.68 6.5
2 -6 5 222.38 6.6
-3 6 -5 0.7 0.8
-3 6 -5 1.4 0.9
3 -6 5 -0.9 0.6
-4 6 -5 111.39 3.8
-4 6 -5 110.89 3.7
4 -6 5 109.49 3.6
-5 6 -5 41.3 2
-5 6 -5 40.9 2
5 -6 5 40.8 1.9
-6 6 -5 3.4 0.9
-6 6 -5 4.4 1.1
6 -6 5 3 0.8
-7 6 -5 147.89 5
7 -6 5 149.99 4.8
-8 6 -5 10.9 1.5
8 -6 5 10.7 1.3
-9 6 -5 81.49 3.5
9 -6 5 86.29 3.2
-10 6 -5 62.59 3.1
10 -6 5 61.79 2.7
-11 6 -5 17.9 2.1
11 -6 5 16.6 1.7
-12 6 -5 1.9 2.3
12 -6 5 1.1 1
9 5 -5 38.5 2.5
-9 -5 5 41.6 2.8
8 5 -5 6.3 1.3
-8 -5 5 3 1.4
7 5 -5 3.4 1.1
-7 -5 5 2.7 1.2
6 5 -5 66.29 2.8
6 5 -5 72.59 3
-6 -5 5 67.49 2.9
5 5 -5 72.69 3
-5 -5 5 68.99 2.8
4 5 -5 1.9 1
-4 -5 5 1.8 0.9
-4 -5 5 2.1 0.7
3 5 -5 6 1.1
-3 -5 5 7.4 0.9
-3 -5 5 8.2 1
2 5 -5 41.5 2.1
-2 -5 5 41.2 1.7
-2 -5 5 42.1 1.8
1 5 -5 12.5 1.3
-1 -5 5 13.6 1
-1 -5 5 13.5 1
0 5 -5 42.5 2
0 5 -5 44.2 1.6
0 -5 5 43.6 1.7
0 -5 5 45.2 1.8
-1 5 -5 230.98 6.5
-1 5 -5 219.88 6.8
1 -5 5 227.38 6.6
1 -5 5 229.58 6.4
-2 5 -5 82.49 3
-2 5 -5 87.49 2.8
2 -5 5 86.89 2.6
2 -5 5 80.39 2.8
-3 5 -5 373.66 10.5
-3 5 -5 374.66 10.6
3 -5 5 365.36 10.5
-4 5 -5 2.4 0.8
-4 5 -5 3.4 0.9
4 -5 5 1.6 0.6
-5 5 -5 14.9 1.3
-5 5 -5 14.4 1.2
5 -5 5 15.6 1.2
-6 5 -5 0.8 0.9
-6 5 -5 -0.8 0.7
6 -5 5 -0.3 0.7
-7 5 -5 0.8 0.9
7 -5 5 0.8 0.7
-8 5 -5 157.78 5.4
8 -5 5 164.68 5.1
-9 5 -5 95.19 3.8
9 -5 5 103.99 3.6
-10 5 -5 0.2 1.1
10 -5 5 1.1 0.9
-11 5 -5 84.89 3.8
11 -5 5 85.19 3.3
-12 5 -5 15.4 2.2
12 -5 5 14.8 1.7
10 4 -5 1.6 1.3
-10 -4 5 2.2 1.6
9 4 -5 60.69 2.9
-9 -4 5 59.99 3.1
8 4 -5 40.4 2.3
-8 -4 5 41 2.4
7 4 -5 2.2 1
-7 -4 5 2.1 1.1
6 4 -5 41.1 2.1
6 4 -5 44.6 2.2
-6 -4 5 45.1 2.2
5 4 -5 38 2
5 4 -5 37 1.9
-5 -4 5 37.7 1.9
4 4 -5 49.5 2.2
4 4 -5 49.5 2.1
-4 -4 5 47.5 2.1
3 4 -5 150.58 4.9
-3 -4 5 158.28 4.7
-3 -4 5 148.79 4.7
2 4 -5 71.09 2.8
-2 -4 5 75.09 2.5
-2 -4 5 73.49 2.5
1 4 -5 1.5 0.7
1 4 -5 1 0.5
-1 -4 5 1.4 0.5
-1 -4 5 1.7 0.6
0 4 -5 65.89 2.1
0 4 -5 63.99 2.5
0 -4 5 60.19 2.2
0 -4 5 68.89 2.1
-1 4 -5 6.2 0.8
-1 4 -5 4.8 0.9
1 -4 5 7.5 0.6
1 -4 5 6.2 0.8
-2 4 -5 16.9 1.1
-2 4 -5 16.8 1.2
2 -4 5 17.2 1
-3 4 -5 777.92 21.6
-3 4 -5 796.62 21.7
3 -4 5 791.82 21.6
-4 4 -5 408.46 11.6
-4 4 -5 420.76 11.6
4 -4 5 401.76 11.5
-5 4 -5 326.87 9.3
-5 4 -5 317.97 9.4
5 -4 5 330.67 9.3
-6 4 -5 89.69 3.3
-6 4 -5 91.69 3
6 -4 5 92.09 3.1
-7 4 -5 18.5 1.6
7 -4 5 18.5 1.3
-8 4 -5 54.59 2.5
8 -4 5 50.69 2.2
-9 4 -5 13 1.6
9 -4 5 12.4 1.3
-10 4 -5 59.49 2.9
10 -4 5 61.09 2.6
-11 4 -5 -0.3 1.1
11 -4 5 0.7 1
-12 4 -5 43 2.7
12 -4 5 35.5 2.2
10 3 -5 10.6 1.6
-10 -3 5 9.7 1.8
9 3 -5 77.09 3.3
-9 -3 5 75.99 3.4
8 3 -5 122.29 4.5
-8 -3 5 138.19 4.6
7 3 -5 9.7 1.3
-7 -3 5 9.3 1.3
6 3 -5 9 1.2
6 3 -5 12.4 1.3
-6 -3 5 10.5 1.3
5 3 -5 48.9 2.1
5 3 -5 43.8 2
-5 -3 5 48.8 2.1
4 3 -5 80.99 2.9
4 3 -5 86.49 3
-4 -3 5 84.99 2.9
3 3 -5 8.3 1.1
-3 -3 5 9.2 1
2 3 -5 49 2
2 3 -5 47.9 1.6
-2 -3 5 47.7 1.8
-2 -3 5 49.2 1.8
1 3 -5 1.4 0.4
1 3 -5 0.8 0.7
-1 -3 5 1.6 0.5
-1 -3 5 1.9 0.5
0 3 -5 190.48 5.4
0 3 -5 182.48 5.7
0 -3 5 192.98 5.3
0 -3 5 191.28 5.5
-1 3 -5 -0.1 0.6
-1 3 -5 0.4 0.5
1 -3 5 0.5 0.5
-2 3 -5 5.3 0.7
-2 3 -5 5.8 0.8
2 -3 5 4.9 0.6
-3 3 -5 12.1 1
-3 3 -5 9.7 0.9
3 -3 5 11 0.9
-4 3 -5 6.4 0.9
-4 3 -5 5.1 0.7
4 -3 5 5.3 0.7
-5 3 -5 36.9 1.7
-5 3 -5 32.9 1.5
5 -3 5 34.9 1.5
-6 3 -5 135.99 4.4
-6 3 -5 138.59 4.2
6 -3 5 133.89 4.2
-7 3 -5 4.2 1
7 -3 5 5.1 0.9
-8 3 -5 50.89 2.4
8 -3 5 53.79 2.2
-9 3 -5 33.8 2
9 -3 5 33.1 1.8
-10 3 -5 27.7 2
10 -3 5 20.5 1.5
-11 3 -5 47.9 2.7
11 -3 5 47.3 2.3
-12 3 -5 8 1.6
12 -3 5 8.5 1.4
-13 3 -5 7.2 1.7
13 -3 5 7.5 1.4
11 2 -5 6.2 1.6
-11 -2 5 8.1 2.2
10 2 -5 1 1.2
-10 -2 5 1.4 1.3
9 2 -5 44.5 2.4
-9 -2 5 46.1 2.5
8 2 -5 0.7 1
-8 -2 5 -0.5 0.9
7 2 -5 12.4 1.4
-7 -2 5 12 1.4
6 2 -5 12.7 1.2
6 2 -5 11.3 1.3
-6 -2 5 11.9 1.2
5 2 -5 23.1 1.4
5 2 -5 19.5 1.3
-5 -2 5 20.6 1.4
4 2 -5 1002 27.2
4 2 -5 1032.1 27.3
-4 -2 5 931.71 26.9
-4 -2 5 1022 27.2
3 2 -5 87.99 3
3 2 -5 88.69 2.9
-3 -2 5 92.19 2.8
-3 -2 5 84.49 2.6
2 2 -5 14.2 0.8
2 2 -5 15.4 1.1
-2 -2 5 13.1 0.8
-2 -2 5 13.3 0.9
1 2 -5 484.25 12.9
1 2 -5 468.45 13.1
-1 -2 5 466.35 12.8
-1 -2 5 460.85 12.9
0 2 -5 55.09 1.8
0 2 -5 54.29 2
0 -2 5 53.79 1.9
0 -2 5 55.79 1.7
-1 2 -5 29.8 1.4
-1 2 -5 31.8 1.3
1 -2 5 30.3 1.2
-2 2 -5 201.48 5.7
-2 2 -5 194.68 5.7
2 -2 5 191.78 5.6
-3 2 -5 45.8 1.7
-3 2 -5 44.9 1.7
3 -2 5 46.4 1.7
-4 2 -5 4.9 0.8
-4 2 -5 4 0.7
4 -2 5 3.8 0.6
-5 2 -5 748.53 20.5
-5 2 -5 735.43 20.4
5 -2 5 756.32 20.4
-6 2 -5 18.6 1.3
-6 2 -5 20.1 0.9
6 -2 5 18.3 0.9
6 -2 5 19.7 1.2
-7 2 -5 431.56 12
-7 2 -5 423.16 12.4
7 -2 5 468.65 12.2
7 -2 5 422.06 12.2
-8 2 -5 196.58 6
8 -2 5 187.78 5.8
-9 2 -5 3.9 1.1
9 -2 5 5.9 0.9
-10 2 -5 0.6 0.9
10 -2 5 -0.1 0.8
-11 2 -5 6 1.3
11 -2 5 7.8 1.1
-12 2 -5 -0.6 1.2
12 -2 5 0.9 1.1
-13 2 -5 32.5 2.6
13 -2 5 31.2 2.1
11 1 -5 1 1.3
-11 -1 5 2.2 1.4
10 1 -5 120.49 4.4
-10 -1 5 122.79 4.6
9 1 -5 4.1 1.2
-9 -1 5 6.6 1.2
8 1 -5 -0.8 0.9
-8 -1 5 -0.2 0.8
7 1 -5 48.3 2.2
-7 -1 5 49.3 2.3
6 1 -5 13.8 1.1
6 1 -5 13.8 1.2
-6 -1 5 13.8 1.3
5 1 -5 157.08 4.5
5 1 -5 139.99 4.5
-5 -1 5 137.79 4.2
-5 -1 5 144.09 4.5
4 1 -5 549.85 14.7
4 1 -5 524.65 14.6
-4 -1 5 539.85 14.7
-4 -1 5 501.05 14.4
3 1 -5 36.5 1.5
3 1 -5 34.2 1.5
-3 -1 5 33.7 1.4
-3 -1 5 34.7 1.3
2 1 -5 168.38 5
2 1 -5 165.98 4.9
2 1 -5 170.58 4.8
-2 -1 5 167.18 4.8
1 1 -5 27.8 1.2
1 1 -5 25.9 1.1
-1 -1 5 24.6 1.1
-1 -1 5 24.7 1
0 1 -5 148.39 4.3
0 1 -5 149.49 4.5
0 -1 5 150.78 4.2
0 -1 5 152.78 4.3
-1 1 -5 24 1.2
-1 1 -5 25.8 1.1
1 -1 5 22 1
-2 1 -5 189.28 5.5
-2 1 -5 193.78 5.6
2 -1 5 195.18 5.5
-3 1 -5 28.2 1.3
-3 1 -5 29.1 1.3
3 -1 5 29.3 1.2
-4 1 -5 105.29 3.4
-4 1 -5 109.69 3.4
4 -1 5 110.39 3.3
-5 1 -5 59.99 2.3
5 -1 5 61.89 2.1
5 -1 5 62.89 2
-6 1 -5 7.6 1
-6 1 -5 7.4 0.7
6 -1 5 6.9 0.8
6 -1 5 6.8 0.6
-7 1 -5 485.75 13.2
-7 1 -5 462.35 13.5
7 -1 5 464.35 13.3
7 -1 5 500.85 13.1
-8 1 -5 175.78 5
-8 1 -5 167.88 5.4
8 -1 5 164.78 5.2
-9 1 -5 34.9 1.9
-9 1 -5 33.1 1.6
9 -1 5 32.2 1.7
-10 1 -5 8.2 1.2
10 -1 5 6.6 1.1
-11 1 -5 30.1 2.1
11 -1 5 32.2 1.9
-12 1 -5 36.4 2.4
12 -1 5 35.1 2.1
-13 1 -5 18.1 2.2
13 -1 5 10.5 1.5
11 0 -5 283.87 8.8
-11 0 5 289.07 9
10 0 -5 92.49 3.6
-10 0 5 93.09 3.7
9 0 -5 5.4 1.1
-9 0 5 5.6 1.2
8 0 -5 22.7 1.5
-8 0 5 23.6 1.7
7 0 -5 31.6 1.6
-7 0 5 29.3 1.5
-7 0 5 32.1 1.8
6 0 -5 139.79 4.4
-6 0 5 136.99 4.2
-6 0 5 142.19 4.5
5 0 -5 305.67 8.3
5 0 -5 291.47 8.4
-5 0 5 291.17 8.4
-5 0 5 285.37 8.2
4 0 -5 93.29 2.9
4 0 -5 89.29 2.9
-4 0 5 92.19 2.8
-4 0 5 91.89 3
3 0 -5 -0.4 0.5
3 0 -5 -0.1 0.5
-3 0 5 0.5 0.4
-3 0 5 0.4 0.4
2 0 -5 240.88 6.8
2 0 -5 232.98 6.7
2 0 -5 236.28 6.7
-2 0 5 234.28 6.6
1 0 -5 61.09 2.1
1 0 -5 68.39 2.2
-1 0 5 61.79 2
-1 0 5 66.69 2
0 0 -5 1380.76 35.6
0 0 -5 1266.27 35.5
0 0 5 1287.87 35.5
0 0 5 1332.67 35.4
-1 0 -5 370.66 10.4
-1 0 -5 389.36 10.5
1 0 5 371.16 10.3
-2 0 -5 0.8 0.5
-2 0 -5 0.6 0.5
2 0 5 0.1 0.4
-3 0 -5 125.69 3.8
3 0 5 125.79 3.7
-4 0 -5 147.59 4.4
4 0 5 149.69 4.3
4 0 5 147.29 4.3
-5 0 -5 113.09 3.3
-5 0 -5 115.79 3.6
5 0 5 114.09 3.5
5 0 5 119.99 3.4
-6 0 -5 254.07 7.1
-6 0 -5 249.28 7.4
6 0 5 269.17 7.1
6 0 5 243.98 7.2
-7 0 -5 56.99 2.3
-7 0 -5 59.09 2
7 0 5 59.49 2
7 0 5 59.69 2.2
-8 0 -5 11.9 1.3
-8 0 -5 12.1 1
8 0 5 9.9 1
-9 0 -5 6.1 0.9
-9 0 -5 5.4 1.1
9 0 5 5.7 1
-10 0 -5 -0.3 0.8
-10 0 -5 0.1 0.9
10 0 5 0.7 0.8
-11 0 -5 19.9 1.8
11 0 5 18 1.6
-12 0 -5 72.99 3.2
12 0 5 69.19 3
-13 0 -5 12.1 1.7
13 0 5 9.5 1.5
-14 0 -5 6.1 2.3
11 -1 -5 0.2 1
-11 1 5 -1 1.2
10 -1 -5 0.4 0.8
-10 1 5 0.1 1
9 -1 -5 0.8 0.9
-9 1 5 0.7 0.9
8 -1 -5 74.29 2.8
-8 1 5 72.59 2.7
-8 1 5 74.79 2.9
7 -1 -5 60.59 2.4
-7 1 5 58.79 2.4
-7 1 5 59.89 2.3
6 -1 -5 95.79 3.2
-6 1 5 100.49 3.2
-6 1 5 100.59 3.4
5 -1 -5 6.4 0.8
5 -1 -5 6 0.8
-5 1 5 7.3 0.9
-5 1 5 7 0.8
4 -1 -5 0.5 0.5
4 -1 -5 0.5 0.5
-4 1 5 0.5 0.5
3 -1 -5 353.86 9.9
3 -1 -5 360.26 9.9
3 -1 -5 348.97 9.8
-3 1 5 358.96 9.9
2 -1 -5 337.77 9.3
2 -1 -5 333.67 9.3
2 -1 -5 328.67 9.2
2 -1 -5 336.37 9.3
1 -1 -5 189.38 5.4
1 -1 -5 192.78 5.3
1 -1 -5 179.78 5.3
-1 1 5 187.68 5.2
0 -1 -5 189.08 5.2
0 -1 -5 198.68 5.5
0 -1 -5 178.78 5.4
0 1 5 187.28 5.2
-1 -1 -5 148.79 4.3
1 1 5 148.99 4.2
1 1 5 146.49 4.3
-2 -1 -5 1366.16 35.6
2 1 5 1300.27 35.4
2 1 5 1287.07 35.6
-3 -1 -5 0.5 0.5
3 1 5 0.9 0.3
3 1 5 1.2 0.4
-4 -1 -5 416.76 11.5
-4 -1 -5 411.86 11.3
4 1 5 421.46 11.4
4 1 5 405.16 11.4
-5 -1 -5 287.17 8.2
-5 -1 -5 288.07 8
5 1 5 299.57 8.1
5 1 5 284.37 8.1
-6 -1 -5 1.6 0.7
-6 -1 -5 1.8 0.6
6 1 5 2.3 0.5
6 1 5 2.8 0.6
-7 -1 -5 32.2 1.4
-7 -1 -5 33.1 1.6
7 1 5 31.1 1.5
7 1 5 32.4 1.3
-8 -1 -5 483.85 13.7
-8 -1 -5 503.35 13.6
8 1 5 475.35 13.6
-9 -1 -5 9.4 1.2
-9 -1 -5 8.2 1.2
9 1 5 9 1.1
-10 -1 -5 97.49 3.4
-10 -1 -5 102.99 3.6
10 1 5 93.79 3.4
-11 -1 -5 47.9 2.3
-11 -1 -5 55.19 2.6
11 1 5 47.2 2.3
-12 -1 -5 17.7 1.8
12 1 5 14.9 1.7
-13 -1 -5 34.6 2.4
13 1 5 33.9 2.2
12 -2 -5 2.3 1.1
11 -2 -5 36.7 2.2
-11 2 5 34.5 2.3
10 -2 -5 99.29 3.7
-10 2 5 108.29 4
9 -2 -5 56.99 2.5
-9 2 5 54.99 2.5
-9 2 5 56.19 2.6
8 -2 -5 11.8 1.2
-8 2 5 10.7 1.3
-8 2 5 9 1.3
7 -2 -5 167.58 5.2
-7 2 5 174.78 5.3
-7 2 5 171.58 5.4
6 -2 -5 415.76 11.6
-6 2 5 413.16 11.6
5 -2 -5 86.69 3
5 -2 -5 89.19 2.9
-5 2 5 93.09 2.7
-5 2 5 86.39 2.9
4 -2 -5 173.08 5
4 -2 -5 168.78 5.2
-4 2 5 169.78 5.1
-4 2 5 183.48 4.9
3 -2 -5 50.69 1.9
3 -2 -5 52.39 1.7
-3 2 5 50.39 1.8
-3 2 5 56.19 1.7
2 -2 -5 854.61 22.6
2 -2 -5 809.22 22.7
2 -2 -5 845.52 22.8
-2 2 5 839.52 22.7
1 -2 -5 578.54 15.6
1 -2 -5 575.64 15.5
-1 2 5 550.44 15.5
0 -2 -5 176.28 5
0 -2 -5 173.18 4.8
0 2 5 177.58 4.8
0 2 5 163.98 4.9
-1 -2 -5 252.37 7
-1 -2 -5 247.88 6.8
1 2 5 234.18 6.9
1 2 5 257.07 6.8
-2 -2 -5 3 0.5
-2 -2 -5 2.7 0.4
2 2 5 2.3 0.4
2 2 5 2.8 0.4
-3 -2 -5 162.78 4.8
-3 -2 -5 168.98 4.7
3 2 5 165.58 4.8
3 2 5 169.28 4.7
-4 -2 -5 56.69 1.8
-4 -2 -5 53.79 1.9
4 2 5 55.69 1.8
4 2 5 56.89 1.9
-5 -2 -5 41.6 1.7
-5 -2 -5 41.6 1.5
5 2 5 43 1.5
5 2 5 41.3 1.5
-6 -2 -5 6.1 0.8
-6 -2 -5 6.4 0.8
6 2 5 5.7 0.7
6 2 5 6 0.7
-7 -2 -5 164.78 4.8
-7 -2 -5 164.78 5
7 2 5 155.68 4.8
7 2 5 164.08 4.8
-8 -2 -5 2 0.8
-8 -2 -5 0.6 0.8
8 2 5 1.6 0.8
-9 -2 -5 55.69 2.3
-9 -2 -5 52.89 2.2
9 2 5 51.29 2.2
-10 -2 -5 1.7 0.9
-10 -2 -5 0.2 0.9
10 2 5 1.3 0.8
-11 -2 -5 37.7 2.1
-11 -2 -5 31.9 2
11 2 5 32.5 1.9
-12 -2 -5 36.8 2.2
-12 -2 -5 30.9 2.1
12 2 5 29 2
13 2 5 34.7 2.3
12 -3 -5 19.2 1.9
11 -3 -5 40.9 2.3
-11 3 5 47 2.5
10 -3 -5 31.7 1.9
-10 3 5 32.7 2.1
-10 3 5 31.1 2
9 -3 -5 25.4 1.7
-9 3 5 25.1 1.7
-9 3 5 27.3 1.9
8 -3 -5 7 1.1
-8 3 5 6.9 1.1
-8 3 5 4 1
7 -3 -5 16.9 1.4
7 -3 -5 19.6 1.3
-7 3 5 18.3 1.4
6 -3 -5 40.3 1.7
6 -3 -5 41.6 1.9
-6 3 5 44.2 1.9
5 -3 -5 1.3 0.7
5 -3 -5 1.8 0.6
-5 3 5 0.7 0.3
-5 3 5 1.6 0.7
4 -3 -5 178.28 5.1
4 -3 -5 173.18 5.3
-4 3 5 183.38 5.1
-4 3 5 182.58 5.3
3 -3 -5 14.9 0.8
3 -3 -5 15.4 1
-3 3 5 15.9 0.7
-3 3 5 17.4 1
2 -3 -5 31.4 1.3
2 -3 -5 35 1.2
-2 3 5 35.4 1.4
-2 3 5 32 1.2
1 -3 -5 421.36 11
1 -3 -5 396.76 11.1
1 -3 -5 412.66 11.2
-1 3 5 392.16 11.1
0 -3 -5 623.54 16.5
0 -3 -5 604.14 16.4
0 3 5 580.64 16.4
-1 -3 -5 318.77 8.9
-1 -3 -5 336.97 8.8
1 3 5 304.57 8.9
-2 -3 -5 291.17 8.4
-2 -3 -5 306.07 8.3
2 3 5 292.37 8.4
2 3 5 310.97 8.2
-3 -3 -5 755.02 20.6
-3 -3 -5 745.73 20.7
3 3 5 762.32 20.8
3 3 5 787.22 20.6
-4 -3 -5 2.1 0.6
-4 -3 -5 2.6 0.6
4 3 5 2.2 0.5
4 3 5 1.5 0.4
-5 -3 -5 0 0.5
-5 -3 -5 0.2 0.5
5 3 5 -0.4 0.4
5 3 5 0.7 0.5
-6 -3 -5 142.49 4.3
-6 -3 -5 143.79 4.3
6 3 5 143.39 4.3
6 3 5 139.79 4.2
-7 -3 -5 139.09 4.3
-7 -3 -5 140.69 4.3
7 3 5 138.19 4.3
7 3 5 141.19 4.2
-8 -3 -5 175.08 5.3
-8 -3 -5 176.08 5.3
8 3 5 171.48 5.6
8 3 5 165.58 5.2
-9 -3 -5 160.28 5.1
-9 -3 -5 166.78 5.1
9 3 5 163.78 5.1
-10 -3 -5 50.69 2.4
-10 -3 -5 52.49 2.3
10 3 5 47.6 2.2
-11 -3 -5 20.9 2.1
-11 -3 -5 23.2 1.8
11 3 5 18.1 1.6
-12 -3 -5 3.5 1.3
12 3 5 3.9 1.3
-13 -3 -5 16.9 2.1
13 3 5 19.2 2
12 -4 -5 0 1.2
11 -4 -5 17.9 1.7
-11 4 5 17.8 1.8
-11 4 5 18.1 2.1
10 -4 -5 6.5 1.2
-10 4 5 5.6 1.4
-10 4 5 7.2 1.3
9 -4 -5 225.98 6.9
-9 4 5 223.08 7.1
-9 4 5 238.48 7.1
8 -4 -5 70.79 2.6
8 -4 -5 67.69 2.8
-8 4 5 71.09 2.9
7 -4 -5 57.79 2.4
7 -4 -5 56.09 2.2
-7 4 5 60.29 2.4
6 -4 -5 10.9 1.1
6 -4 -5 11.7 1
-6 4 5 12 1.2
5 -4 -5 284.17 8.6
5 -4 -5 302.77 8.4
-5 4 5 313.47 8.3
-5 4 5 302.37 8.7
4 -4 -5 16.9 0.9
4 -4 -5 14.2 1
-4 4 5 12.8 0.7
-4 4 5 17.1 1.1
3 -4 -5 77.79 2.6
3 -4 -5 81.69 2.4
-3 4 5 76.99 2.4
-3 4 5 82.39 2.6
2 -4 -5 251.97 6.7
2 -4 -5 235.58 6.9
-2 4 5 244.68 6.8
-2 4 5 243.98 6.9
1 -4 -5 450.55 12.6
1 -4 -5 456.85 12.7
-1 4 5 471.95 12.6
0 -4 -5 882.71 24.5
0 -4 -5 906.81 24.5
0 4 5 920.51 24.5
-1 -4 -5 478.15 13.5
-1 -4 -5 501.65 13.5
1 4 5 503.15 13.6
-2 -4 -5 30.2 1.3
-2 -4 -5 31.8 1.2
2 4 5 34.4 1
2 4 5 32.9 1.3
-3 -4 -5 123.09 3.7
-3 -4 -5 123.59 3.7
3 4 5 128.99 3.6
3 4 5 129.49 3.8
-4 -4 -5 103.29 3.1
-4 -4 -5 100.19 3.1
4 4 5 101.59 3
4 4 5 101.59 3.2
-5 -4 -5 339.57 9.5
-5 -4 -5 334.57 9.5
5 4 5 345.87 9.6
5 4 5 343.27 9.5
-6 -4 -5 23.9 1.4
-6 -4 -5 25.9 1.3
6 4 5 25.2 1.2
6 4 5 24.4 1.3
-7 -4 -5 2.1 0.7
-7 -4 -5 2.9 0.8
7 4 5 1.8 0.7
7 4 5 1.7 0.7
-8 -4 -5 54.39 2.1
-8 -4 -5 52.79 2.3
8 4 5 52.69 2.1
8 4 5 52.99 2.1
-9 -4 -5 59.79 2.4
-9 -4 -5 57.09 2.5
9 4 5 53.99 2.3
-10 -4 -5 47.3 2.4
10 4 5 51.49 2.3
-11 -4 -5 0.8 1.1
11 4 5 -0.4 1
-12 -4 -5 0.8 1.3
12 4 5 2.4 1.2
-13 -4 -5 39.9 2.7
13 4 5 46.3 2.7
-12 5 5 22 2.3
11 -5 -5 37.1 2.1
-11 5 5 35.6 2.3
-11 5 5 39.7 2.6
10 -5 -5 -0.3 1
-10 5 5 0.1 1
-10 5 5 -1.2 1.2
9 -5 -5 164.28 5.5
9 -5 -5 165.08 5.2
-9 5 5 170.28 5.6
8 -5 -5 4.5 0.9
8 -5 -5 3.8 1
-8 5 5 4.9 1.2
7 -5 -5 324.17 9.1
7 -5 -5 310.47 9.3
-7 5 5 320.57 9.4
6 -5 -5 82.29 2.7
6 -5 -5 81.09 2.9
-6 5 5 81.39 3
5 -5 -5 12.2 0.9
5 -5 -5 9.6 1
-5 5 5 12 1.2
4 -5 -5 95.59 2.8
4 -5 -5 86.89 3
-4 5 5 90.19 2.8
-4 5 5 93.59 3.1
3 -5 -5 98.29 2.9
3 -5 -5 96.89 3.2
-3 5 5 100.79 3.2
-3 5 5 101.09 3
2 -5 -5 170.98 5.1
-2 5 5 175.98 5.1
-2 5 5 173.38 5
1 -5 -5 183.58 5.3
-1 5 5 179.38 5.3
-1 5 5 187.48 5.3
0 -5 -5 39.8 1.5
0 -5 -5 38.8 1.5
0 5 5 40.5 1.5
-1 -5 -5 637.94 17.3
-1 -5 -5 615.74 17.3
1 5 5 649.54 17.4
-2 -5 -5 6.9 0.6
-2 -5 -5 7.7 0.7
2 5 5 7.6 0.8
-3 -5 -5 11 0.8
-3 -5 -5 11.6 0.8
3 5 5 12.4 0.6
3 5 5 11.6 0.9
-4 -5 -5 14.2 0.9
-4 -5 -5 13.7 1
4 5 5 13.2 0.8
4 5 5 12.6 1
-5 -5 -5 453.25 12.3
-5 -5 -5 428.76 12.2
5 5 5 444.16 12.4
5 5 5 444.36 12.2
-6 -5 -5 0.2 0.5
-6 -5 -5 0.9 0.8
6 5 5 1.4 0.6
6 5 5 1.2 0.7
-7 -5 -5 119.69 4
-7 -5 -5 120.29 3.8
7 5 5 121.59 3.9
7 5 5 122.59 3.8
-8 -5 -5 -0.7 0.9
-8 -5 -5 -1 0.7
8 5 5 -0.1 0.8
8 5 5 -0.4 0.8
-9 -5 -5 0.1 1
9 5 5 1 0.8
-10 -5 -5 1.1 1.2
10 5 5 0.3 0.9
-11 -5 -5 5.3 1.4
11 5 5 4.8 1.2
-12 -5 -5 1.5 1.4
12 5 5 0.8 1.3
-13 -5 -5 3.2 1.5
13 5 5 3.9 1.6
-12 6 5 31.1 3.4
-11 6 5 3.2 1.2
-11 6 5 2.2 1.5
10 -6 -5 3.4 1.1
10 -6 -5 4.7 1.1
-10 6 5 4.5 1.5
9 -6 -5 19.5 1.7
9 -6 -5 20.7 1.4
-9 6 5 18.9 1.9
8 -6 -5 6.7 1
8 -6 -5 5.7 1.1
-8 6 5 5.4 1.3
7 -6 -5 10.3 1
7 -6 -5 11.2 1.3
-7 6 5 10.7 1.4
6 -6 -5 47.7 1.8
6 -6 -5 44.6 2
-6 6 5 46 2.2
5 -6 -5 80.99 2.5
5 -6 -5 78.89 2.9
-5 6 5 80.49 2.9
4 -6 -5 538.45 15.1
4 -6 -5 543.55 14.7
-4 6 5 551.94 14.8
-4 6 5 533.15 15.1
3 -6 -5 117.39 3.7
3 -6 -5 118.69 3.4
-3 6 5 118.69 3.6
-3 6 5 117.39 3.7
2 -6 -5 48.7 1.9
-2 6 5 49.6 1.9
-2 6 5 50.89 1.8
1 -6 -5 29.6 1.3
-1 6 5 29.9 1.3
-1 6 5 31.1 1.3
0 -6 -5 233.68 6.8
0 -6 -5 239.28 6.8
0 6 5 240.58 6.8
-1 -6 -5 636.94 17.5
-1 -6 -5 631.14 17.5
1 6 5 649.93 17.6
-2 -6 -5 332.77 9.6
-2 -6 -5 347.27 9.6
2 6 5 350.76 9.7
-3 -6 -5 301.77 8.6
-3 -6 -5 292.57 8.4
3 6 5 313.47 8.7
3 6 5 303.57 8.3
-4 -6 -5 69.19 2.3
-4 -6 -5 74.39 2.5
4 6 5 74.69 2.3
4 6 5 74.99 2.6
-5 -6 -5 1.7 0.8
-5 -6 -5 2.1 0.6
5 6 5 1.6 0.7
5 6 5 1.4 0.5
-6 -6 -5 476.05 13.4
-6 -6 -5 481.05 13.6
6 6 5 501.25 13.4
6 6 5 486.15 13.6
-7 -6 -5 494.15 14.1
-7 -6 -5 482.65 13.9
7 6 5 517.75 14.1
7 6 5 511.25 13.9
-8 -6 -5 29.8 1.8
8 6 5 31.1 1.7
8 6 5 28.5 1.6
-9 -6 -5 41.8 2.3
9 6 5 40.9 2
-10 -6 -5 15.8 1.8
10 6 5 16.8 1.6
-11 -6 -5 -0.6 1.2
11 6 5 2.4 1.2
-12 -6 -5 33.9 2.5
12 6 5 39 2.4
-11 7 5 81.19 3.9
-11 7 5 82.59 3.5
10 -7 -5 -0.4 1.2
-10 7 5 0.3 1.5
9 -7 -5 97.19 3.7
-9 7 5 97.79 3.9
8 -7 -5 4.8 1.1
-8 7 5 6.3 1.3
7 -7 -5 4.6 0.7
7 -7 -5 3.9 1
-7 7 5 3.2 1
6 -7 -5 35.6 1.9
6 -7 -5 37 1.5
-6 7 5 34.6 1.9
5 -7 -5 143.79 4.7
5 -7 -5 150.28 4.3
-5 7 5 152.88 4.8
4 -7 -5 69.39 2.1
4 -7 -5 61.99 2.5
-4 7 5 67.39 2.3
-4 7 5 66.69 2.5
3 -7 -5 45.1 1.9
-3 7 5 46.4 1.9
-3 7 5 44.1 1.7
2 -7 -5 98.59 3.2
-2 7 5 96.19 3.1
-2 7 5 92.69 3.1
1 -7 -5 7.1 0.8
-1 7 5 6.8 0.8
-1 7 5 7 0.8
0 -7 -5 1.6 0.5
0 7 5 1.2 0.5
0 7 5 2.4 0.7
-1 -7 -5 35.9 1.4
-1 -7 -5 34.3 1.5
1 7 5 34.9 1.6
-2 -7 -5 1.1 0.6
-2 -7 -5 0.4 0.4
2 7 5 0 0.6
-3 -7 -5 226.18 6.7
-3 -7 -5 233.58 6.5
3 7 5 231.18 6.8
3 7 5 230.18 6.4
-4 -7 -5 56.19 2.1
-4 -7 -5 55.29 1.9
4 7 5 56.19 2.2
-5 -7 -5 21.6 1.1
-5 -7 -5 19.4 1.4
5 7 5 23.3 1.1
5 7 5 21.3 1.5
-6 -7 -5 25 1.6
6 7 5 24.5 1.3
6 7 5 24.8 1.6
-7 -7 -5 30.8 1.9
7 7 5 31.7 1.6
7 7 5 32.6 1.8
-8 -7 -5 40.6 2.2
8 7 5 44.3 2.1
8 7 5 43.3 2
-9 -7 -5 6.5 1.4
9 7 5 8.8 1.2
-10 -7 -5 0.6 1.3
10 7 5 0.6 1.1
-11 -7 -5 31.2 2.4
11 7 5 34 2.2
-12 -7 -5 52.59 3.1
12 7 5 59.79 2.9
11 -8 -5 32.5 2.4
-11 8 5 33.2 2.9
10 -8 -5 85.49 3.5
-10 8 5 81.49 3.9
9 -8 -5 6.9 1.3
-9 8 5 4.4 1.6
8 -8 -5 10.9 1.4
-8 8 5 12.1 1.8
7 -8 -5 51.99 2.3
-7 8 5 43.6 2.4
6 -8 -5 3.8 1
-6 8 5 4.2 1
5 -8 -5 5.7 1
-5 8 5 6.6 1.1
4 -8 -5 240.08 7.2
-4 8 5 240.28 6.9
-4 8 5 237.78 7.1
3 -8 -5 41.6 1.9
-3 8 5 45.1 1.8
-3 8 5 43.5 1.9
2 -8 -5 1123.79 31
-2 8 5 1161.78 31
-2 8 5 1128.29 31
1 -8 -5 2.6 0.7
-1 8 5 3 0.7
-1 8 5 1.7 0.6
0 -8 -5 1.8 0.6
0 8 5 1.9 0.7
0 8 5 1.8 0.6
-1 -8 -5 11.6 1
1 8 5 12.1 0.9
1 8 5 15.1 1.2
-2 -8 -5 8.4 0.6
-2 -8 -5 6.6 0.9
-2 -8 -5 8.8 0.8
2 8 5 6.6 1
-3 -8 -5 10.4 1.1
-3 -8 -5 9.4 0.8
3 8 5 8.2 1.1
3 8 5 10.2 0.7
-4 -8 -5 347.27 10
-4 -8 -5 343.97 9.7
4 8 5 357.16 10.1
4 8 5 347.97 9.7
-5 -8 -5 285.77 8.5
5 8 5 286.27 8.5
5 8 5 295.27 8.1
-6 -8 -5 9.2 1.2
6 8 5 11.9 1.4
6 8 5 12.6 1
-7 -8 -5 16.6 1.6
7 8 5 17.3 1.5
-8 -8 -5 41.3 2.3
8 8 5 43.3 2
8 8 5 43.9 2.2
-9 -8 -5 2.7 1.3
9 8 5 2.7 1.1
-10 -8 -5 -0.7 1.2
10 8 5 2 1.2
-11 -8 -5 82.29 3.7
10 -9 -5 11.9 1.7
-10 9 5 8.8 2
9 -9 -5 3.6 1.3
-9 9 5 1.6 1.5
8 -9 -5 16.9 1.7
-8 9 5 17.4 2.1
7 -9 -5 174.78 5.6
-7 9 5 167.88 5.7
6 -9 -5 29.3 1.8
-6 9 5 24.1 1.9
5 -9 -5 2.7 0.9
-5 9 5 2.3 0.9
4 -9 -5 57.89 2.5
-4 9 5 62.99 2.3
-4 9 5 61.49 2.5
3 -9 -5 87.89 3.2
-3 9 5 95.59 3.1
-3 9 5 90.59 3.2
2 -9 -5 305.97 9
-2 9 5 310.67 8.9
-2 9 5 311.47 8.9
1 -9 -5 119.29 4
-1 9 5 124.79 3.9
-1 9 5 125.09 4
0 -9 -5 151.08 4.8
0 9 5 154.38 4.9
0 9 5 160.38 4.7
-1 -9 -5 46 2
1 9 5 47.7 2.2
1 9 5 49.99 1.8
-2 -9 -5 42.8 1.9
2 9 5 48.3 1.7
2 9 5 44.9 2.1
-3 -9 -5 4.1 0.9
-3 -9 -5 4.8 0.6
3 9 5 5.4 0.7
3 9 5 3.6 0.9
-4 -9 -5 13.4 1.3
4 9 5 13.9 1.4
4 9 5 15 1
-5 -9 -5 5.8 1
5 9 5 5.6 1.1
5 9 5 4.9 0.8
-6 -9 -5 27.3 1.8
6 9 5 28.6 1.4
6 9 5 25.5 1.8
-7 -9 -5 1 1.1
7 9 5 0.5 0.8
7 9 5 2.6 1
-8 -9 -5 6.9 1.4
8 9 5 9.4 1.4
8 9 5 7.7 1.1
-9 -9 -5 90.19 3.8
9 9 5 97.79 3.5
-10 -9 -5 3.5 1.5
10 9 5 3.8 1.3
-11 -9 -5 1.3 1.5
11 9 5 6.8 1.5
10 -10 -5 5.4 1.6
-10 10 5 5.9 1.8
9 -10 -5 29.1 2.3
-9 10 5 31 2.7
8 -10 -5 120.79 4.4
-8 10 5 116.19 4.6
7 -10 -5 4.4 1.2
-7 10 5 2.3 1.3
6 -10 -5 139.69 4.8
-6 10 5 142.19 4.9
5 -10 -5 109.59 3.9
-5 10 5 106.29 3.9
4 -10 -5 6.9 1.1
-4 10 5 8.1 1.3
-4 10 5 9.2 1.2
3 -10 -5 59.09 2.5
-3 10 5 62.19 2.5
-3 10 5 63.89 2.5
2 -10 -5 82.69 3.1
-2 10 5 85.29 3.1
-2 10 5 87.79 3.1
1 -10 -5 422.76 12.4
-1 10 5 456.25 12.4
-1 10 5 434.76 12.5
0 -10 -5 196.98 6.2
0 10 5 216.18 6.1
0 10 5 199.78 6.3
-1 -10 -5 8 1.1
1 10 5 9.8 1
1 10 5 7.4 1.1
-2 -10 -5 3.8 0.8
2 10 5 2 0.9
-3 -10 -5 215.98 6.5
3 10 5 210.18 6.7
-4 -10 -5 -0.5 0.8
4 10 5 0 0.9
-5 -10 -5 67.59 2.7
5 10 5 61.29 2.8
-6 -10 -5 39.4 2.2
6 10 5 45.1 2.3
-7 -10 -5 5.8 1.2
7 10 5 3.9 1.1
7 10 5 5.7 1.1
-8 -10 -5 0.7 1.2
8 10 5 0.2 1
8 10 5 3.4 1
-9 -10 -5 5.4 1.5
9 10 5 4.9 1.4
9 10 5 7.1 1.3
-10 -10 -5 8.1 1.7
10 10 5 6.9 2
9 -11 -5 115.89 4.4
-9 11 5 107.89 4.7
8 -11 -5 28.2 2.2
-8 11 5 30.8 2.6
7 -11 -5 24 1.9
-7 11 5 17.6 2.2
6 -11 -5 6.4 1.3
-6 11 5 4.1 1.4
5 -11 -5 10.3 1.5
-5 11 5 11.7 1.7
4 -11 -5 9.8 1.4
-4 11 5 9.3 1.3
-4 11 5 9.9 1.5
3 -11 -5 111.59 3.9
-3 11 5 102.59 3.8
-3 11 5 112.79 3.9
2 -11 -5 51.39 2.3
-2 11 5 55.69 2.3
-2 11 5 52.89 2.4
1 -11 -5 1 0.8
-1 11 5 1.6 1
-1 11 5 1.2 0.9
0 -11 -5 91.69 3.4
0 11 5 97.79 3.6
0 11 5 104.69 3.3
-1 -11 -5 146.19 4.7
1 11 5 145.19 4.9
-2 -11 -5 3 0.9
2 11 5 2.6 1
-3 -11 -5 0.2 0.8
3 11 5 1 1
-4 -11 -5 125.39 4.2
4 11 5 120.99 4.4
-5 -11 -5 55.49 2.4
5 11 5 44.3 2.5
-6 -11 -5 1.5 0.9
6 11 5 1.2 1
-7 -11 -5 20.2 1.8
7 11 5 17.1 1.8
-8 -11 -5 -0.3 1
8 11 5 -1.8 1.1
-9 -11 -5 0.9 1.3
9 11 5 1.6 1.3
9 -12 -5 6 1.6
8 -12 -5 22.1 2.2
-8 12 5 23.4 2.6
7 -12 -5 77.99 3.4
-7 12 5 78.19 3.6
6 -12 -5 42.7 2.4
-6 12 5 40.4 2.6
5 -12 -5 2.4 1.1
-5 12 5 1.6 1.3
4 -12 -5 204.98 6.6
-4 12 5 209.18 6.6
3 -12 -5 10.2 1.3
-3 12 5 8.8 1.3
-3 12 5 9.7 1.5
2 -12 -5 22.1 1.6
-2 12 5 23.4 1.7
-2 12 5 21.9 1.7
1 -12 -5 0.8 0.8
-1 12 5 -1.1 1
-1 12 5 0 1.1
0 -12 -5 11.2 1.3
0 12 5 13 1.6
-1 -12 -5 68.19 2.8
1 12 5 68.69 3
-2 -12 -5 9 1.3
2 12 5 6.8 1.4
-3 -12 -5 13.9 1.4
3 12 5 12.8 1.7
-4 -12 -5 0.3 0.8
4 12 5 1.3 1
-5 -12 -5 98.79 3.6
5 12 5 92.29 3.9
-6 -12 -5 3.8 1.2
6 12 5 3.5 1.3
-7 -12 -5 12.5 1.7
7 12 5 11.7 1.8
-8 -12 -5 6.8 1.5
8 12 5 12.5 1.9
9 12 5 -1.4 1.2
8 -13 -5 14.8 2.1
-8 13 5 6.2 1.7
7 -13 -5 0.5 1.3
-7 13 5 -0.6 1.5
6 -13 -5 56.39 2.9
-6 13 5 54.39 3.1
5 -13 -5 -0.9 1
-5 13 5 -0.7 1.3
4 -13 -5 227.78 7.3
-4 13 5 232.48 7.3
3 -13 -5 8.2 1.2
-3 13 5 7.9 1.3
-3 13 5 8.6 1.4
2 -13 -5 -1.3 0.8
-2 13 5 0.2 1.1
1 -13 -5 14.6 1.5
-1 13 5 14.8 1.7
0 -13 -5 5.5 1.1
0 13 5 4 1.2
-1 -13 -5 5.2 1
1 13 5 4.1 1.2
-2 -13 -5 121.39 4.2
2 13 5 113.19 4.5
-3 -13 -5 50.39 2.4
3 13 5 43.8 2.6
-4 -13 -5 0.2 1
4 13 5 1.5 1.2
-5 -13 -5 6.8 1.3
5 13 5 5.7 1.4
-6 -13 -5 34.5 2.3
6 13 5 33.5 2.5
-7 -13 -5 20.5 2
7 13 5 21.4 2.2
8 13 5 23.1 2.4
7 -14 -5 6.7 1.6
-7 14 5 2.3 1.5
6 -14 -5 26.6 2.3
-6 14 5 25 2.6
5 -14 -5 18 2
-5 14 5 16.3 2.3
4 -14 -5 8.5 1.4
-4 14 5 4.7 1.5
3 -14 -5 100.59 4
-3 14 5 110.39 4.2
2 -14 -5 123.19 4.4
-2 14 5 120.49 4.6
1 -14 -5 1.1 1
-1 14 5 1.1 1.2
0 -14 -5 2.1 1.1
0 14 5 0.5 1.2
-1 -14 -5 3.4 1.1
1 14 5 1.6 1.3
-2 -14 -5 21.8 1.8
2 14 5 19.5 2.1
-3 -14 -5 -0.4 1.1
3 14 5 -0.2 1.3
-4 -14 -5 19.7 1.9
4 14 5 20.6 2.2
-5 -14 -5 5.7 1.3
5 14 5 6.5 1.6
-6 -14 -5 1 1.1
6 14 5 0.6 1.4
-6 15 5 -1.9 1.5
5 -15 -5 5 1.6
4 -15 -5 54.89 2.9
3 -15 -5 3.8 1.3
2 -15 -5 50.89 2.7
-2 15 5 50.89 2.9
1 -15 -5 5.7 1.3
-1 15 5 3.6 1.6
0 -15 -5 0.9 1.1
0 15 5 2.6 1.5
-1 -15 -5 -0.6 1
1 15 5 -1.2 1.4
-2 -15 -5 42.3 2.4
2 15 5 33.7 2.7
-3 -15 -5 35 2.3
3 15 5 36 2.9
-4 -15 -5 132.69 4.8
4 15 5 119.49 5.2
3 -16 -5 0.6 1.3
2 -16 -5 -1.1 1.2
-2 16 5 -0.6 1.5
1 -16 -5 48.9 2.7
-1 16 5 45.5 3.1
0 -16 -5 0.8 1.2
0 16 5 0.6 1.6
-1 -16 -5 5.3 1.4
1 16 5 4 1.7
-2 -16 -5 62.19 4.4
1 -12 6 6.3 1.6
2 -12 6 5.4 1.2
-3 12 -6 -0.5 2.3
3 -12 6 0.6 1.1
-4 12 -6 6.6 2.1
-2 -11 6 -0.7 1
1 11 -6 2.6 1.6
-1 -11 6 2.1 1
0 11 -6 2 1.7
0 -11 6 4.4 1.1
-1 11 -6 6.4 1.8
1 -11 6 6.3 1.2
-2 11 -6 2.6 1.7
2 -11 6 3.6 1.1
-3 11 -6 1.8 1.7
3 -11 6 0.8 1
-4 11 -6 11 2
4 -11 6 9.7 1.3
-5 11 -6 1.9 1.4
5 -11 6 4.8 1.1
6 -11 6 2.4 1.1
4 10 -6 7.9 1.8
-4 -10 6 4.2 1.2
3 10 -6 10.6 1.9
-3 -10 6 13.5 1.5
2 10 -6 15.1 2.2
-2 -10 6 15.1 1.6
1 10 -6 33 2.6
-1 -10 6 41.4 2.1
0 10 -6 49.9 3
0 -10 6 51.09 2.4
-1 10 -6 2 1.5
1 -10 6 3.3 1
-2 10 -6 -0.1 1.3
2 -10 6 2.1 1
-3 10 -6 -1 1.4
3 -10 6 2.4 1
-4 10 -6 8.5 1.7
4 -10 6 8.4 1.2
-5 10 -6 -1 1.2
5 -10 6 -0.1 0.9
6 -10 6 94.29 3.6
7 -10 6 39.8 2.3
-8 10 -6 0.4 1.4
8 -10 6 1 1
6 9 -6 9 1.9
5 9 -6 5 1.6
-5 -9 6 4.5 1.1
4 9 -6 4.8 1.6
-4 -9 6 6.2 1.1
3 9 -6 12.4 1.9
-3 -9 6 16.4 1.5
2 9 -6 65.59 3.4
-2 -9 6 71.59 2.8
1 9 -6 0.1 1.2
-1 -9 6 0.2 0.9
0 9 -6 19.5 2.1
0 -9 6 22.2 1.6
-1 9 -6 0 1.2
1 -9 6 -0.5 0.8
-2 9 -6 2.4 1.3
2 -9 6 3.3 0.9
-3 9 -6 5.5 1.4
3 -9 6 5.2 1
-4 9 -6 10.9 1.7
4 -9 6 9.8 1.2
-5 9 -6 36.2 2.3
5 -9 6 39.2 2.1
-6 9 -6 64.79 3.1
6 -9 6 59.69 2.7
-7 9 -6 3.7 1.3
7 -9 6 0 1
-8 9 -6 1.3 1.4
8 -9 6 0.3 1
-9 9 -6 47.2 2.9
9 -9 6 47.6 2.5
-7 -8 6 -1.4 1.4
6 8 -6 1.6 1.5
-6 -8 6 0.5 1
-6 -8 6 0.8 1.3
5 8 -6 7.9 1.7
-5 -8 6 10.4 1.4
4 8 -6 17.7 2.1
-4 -8 6 20.3 1.6
3 8 -6 66.49 3.3
-3 -8 6 71.89 2.8
2 8 -6 1.3 1.2
-2 -8 6 2.3 0.9
1 8 -6 2.9 1.2
-1 -8 6 2.4 0.8
0 8 -6 17.2 1.9
0 -8 6 16.8 1.4
-1 8 -6 -1.5 1.1
1 -8 6 -0.2 0.7
-2 8 -6 3.4 1.2
2 -8 6 2.4 0.9
-3 8 -6 2.7 1.2
3 -8 6 1.2 0.8
-4 8 -6 35 2.3
4 -8 6 38.8 1.9
-5 8 -6 28.8 1.9
-5 8 -6 28.8 2
5 -8 6 29.3 1.8
-6 8 -6 2.8 1.2
-6 8 -6 2.6 1.2
6 -8 6 1.4 0.9
-7 8 -6 125.09 4.5
7 -8 6 115.19 4.2
-8 8 -6 70.99 3.3
8 -8 6 65.79 2.9
-9 8 -6 33.5 2.6
9 -8 6 40.1 2.2
-10 8 -6 3 1.5
10 -8 6 1.9 1.2
-8 -7 6 30.5 2.6
-7 -7 6 53.09 3
-7 -7 6 56.29 2.7
6 7 -6 10.4 1.7
-6 -7 6 8.5 1.6
-6 -7 6 12.7 1.5
5 7 -6 8.3 1.5
-5 -7 6 6.3 1.4
-5 -7 6 7.1 1.2
4 7 -6 81.99 3.6
-4 -7 6 82.49 3.1
-4 -7 6 84.79 3.2
3 7 -6 -0.2 1.1
-3 -7 6 -0.3 0.7
-3 -7 6 1.3 0.9
2 7 -6 44.6 2.5
-2 -7 6 46 2.1
1 7 -6 258.97 8.2
-1 -7 6 264.17 7.7
0 7 -6 1.2 1.1
0 -7 6 1.4 0.8
-1 7 -6 45.9 2.4
1 -7 6 50.99 2.1
-2 7 -6 37.8 2.2
2 -7 6 39.3 1.8
-3 7 -6 46.5 2.3
-3 7 -6 46.5 2.2
3 -7 6 47.1 2.1
-4 7 -6 54.69 2.3
-4 7 -6 54.19 2.5
4 -7 6 52.29 2.2
-5 7 -6 22.9 1.7
-5 7 -6 21 1.7
5 -7 6 21.2 1.5
-6 7 -6 4.8 1.2
-6 7 -6 3.8 1.1
6 -7 6 4 1
-7 7 -6 36.5 2.3
7 -7 6 34.5 2
-8 7 -6 34.3 2.3
8 -7 6 38 2
-9 7 -6 8.1 1.6
9 -7 6 10.1 1.4
-10 7 -6 51.69 3
10 -7 6 57.89 2.6
-11 7 -6 21.2 2.4
11 -7 6 22.4 1.9
-8 -6 6 3.3 1.6
-8 -6 6 2.4 1.2
-7 -6 6 15.3 1.7
-7 -6 6 16.2 2
6 6 -6 -0.1 1.2
-6 -6 6 -0.6 1.1
-6 -6 6 -0.4 0.9
5 6 -6 35.9 2.3
-5 -6 6 38.3 2
-5 -6 6 34.3 2.1
4 6 -6 2.4 1.2
-4 -6 6 1.3 1
-4 -6 6 6 1
3 6 -6 1.5 1
-3 -6 6 2.6 0.9
-3 -6 6 1.2 0.7
2 6 -6 63.19 2.9
-2 -6 6 65.59 2.4
-2 -6 6 64.49 2.5
1 6 -6 3.8 1.1
-1 -6 6 6.2 0.9
-1 -6 6 4.3 0.8
0 6 -6 0.2 0.9
0 -6 6 1.4 0.7
-1 6 -6 60.69 2.7
1 -6 6 59.19 2.3
-2 6 -6 2.9 0.8
-2 6 -6 1 0.9
2 -6 6 2 0.7
-3 6 -6 8.2 1.2
-3 6 -6 7.7 1.2
3 -6 6 7.9 1
-4 6 -6 10.2 1.3
-4 6 -6 10.4 1.3
4 -6 6 9 1.1
-5 6 -6 150.18 4.9
-5 6 -6 156.48 5
5 -6 6 153.78 4.9
-6 6 -6 74.69 3
-6 6 -6 72.19 2.8
6 -6 6 72.99 2.8
-7 6 -6 3.7 1.1
7 -6 6 3 1
-8 6 -6 1.7 1.1
8 -6 6 0.9 0.9
-9 6 -6 74.29 3.3
9 -6 6 72.89 2.9
-10 6 -6 5.7 1.5
10 -6 6 7.8 1.3
-11 6 -6 9.4 1.8
11 -6 6 8.1 1.3
9 5 -6 0.9 2.3
-9 -5 6 -0.7 1.5
8 5 -6 5.5 1.4
-8 -5 6 5.3 1.6
-7 -5 6 23.8 2.1
6 5 -6 37.2 2.3
-6 -5 6 39.2 2.2
-6 -5 6 37.4 2
5 5 -6 5 1.2
-5 -5 6 2.7 0.9
-5 -5 6 0.4 1
4 5 -6 1.1 1
-4 -5 6 0 0.7
-4 -5 6 -0.4 0.9
3 5 -6 27.8 1.9
-3 -5 6 29.8 1.6
-3 -5 6 29.7 1.6
2 5 -6 150.88 5.2
-2 -5 6 163.18 4.8
-2 -5 6 162.08 4.9
1 5 -6 85.59 3.3
-1 -5 6 84.29 2.9
-1 -5 6 86.99 2.8
0 5 -6 313.67 9.4
0 -5 6 322.47 8.9
0 -5 6 319.27 9.1
-1 5 -6 19.6 1.5
-1 5 -6 24 1.3
1 -5 6 19.4 1.3
-2 5 -6 280.47 7.8
-2 5 -6 264.67 8.1
2 -5 6 273.17 7.9
-3 5 -6 8.3 1.1
-3 5 -6 5.3 1.1
3 -5 6 5.8 0.8
-4 5 -6 421.66 11.9
-4 5 -6 417.56 12
4 -5 6 417.96 11.8
-5 5 -6 41.9 2.1
-5 5 -6 42.5 2
5 -5 6 40.4 1.9
-6 5 -6 6.9 1.2
-6 5 -6 6 1
6 -5 6 6.3 1
-7 5 -6 55.19 2.5
7 -5 6 54.49 2.3
-8 5 -6 77.59 3.3
8 -5 6 82.09 3.1
-9 5 -6 105.69 4
9 -5 6 104.49 3.8
-10 5 -6 33.2 2.4
10 -5 6 35.8 2
-11 5 -6 20.5 2.3
11 -5 6 18 1.7
-12 5 -6 24.8 2.5
12 -5 6 21.9 1.9
9 4 -6 6.5 1.5
-9 -4 6 5.5 1.7
8 4 -6 36.6 2.3
-8 -4 6 38.8 2.5
7 4 -6 47.3 2.4
-7 -4 6 48.8 2.5
6 4 -6 47 2.3
6 4 -6 55.79 2.6
-6 -4 6 51.39 2.4
5 4 -6 288.77 8.7
-5 -4 6 293.17 8.6
4 4 -6 1.5 1
-4 -4 6 2.6 0.9
-4 -4 6 2.9 0.8
3 4 -6 45.4 2.2
-3 -4 6 49.7 2
-3 -4 6 46.8 2
2 4 -6 9.6 1.3
-2 -4 6 9.1 1
-2 -4 6 10.3 1
1 4 -6 3.5 0.9
-1 -4 6 2.6 0.7
-1 -4 6 3.5 0.7
0 4 -6 8 0.9
0 4 -6 8 1.1
0 -4 6 7.2 0.8
0 -4 6 6.8 0.8
-1 4 -6 14 1
-1 4 -6 13.9 1.3
1 -4 6 12.8 1
-2 4 -6 7.8 1
-2 4 -6 7.7 1.1
2 -4 6 6.9 0.9
-3 4 -6 12.6 1.2
-3 4 -6 13.3 1.2
3 -4 6 12.9 1
-4 4 -6 212.18 6.3
-4 4 -6 209.08 6.3
4 -4 6 209.88 6.2
-5 4 -6 69.69 2.6
-5 4 -6 68.79 2.7
5 -4 6 71.29 2.6
-6 4 -6 68.79 2.8
-6 4 -6 71.59 2.6
6 -4 6 71.19 2.6
-7 4 -6 185.08 5.9
7 -4 6 189.88 5.8
-8 4 -6 1.4 1
8 -4 6 0.7 0.8
-9 4 -6 48.8 2.5
9 -4 6 50.89 2.3
-10 4 -6 242.88 7.8
10 -4 6 251.87 7.6
-11 4 -6 9.2 1.7
11 -4 6 13 1.5
-12 4 -6 15.1 2.3
12 -4 6 14.9 1.7
10 3 -6 2.6 1.4
-10 -3 6 2.5 1.6
9 3 -6 5.4 1.3
-9 -3 6 4.6 1.5
8 3 -6 16.1 1.7
-8 -3 6 19.4 1.9
7 3 -6 6.3 1.1
-7 -3 6 5.7 1.2
6 3 -6 4 1
6 3 -6 3.8 1
-6 -3 6 5.4 1.1
5 3 -6 27.1 1.6
5 3 -6 25.9 1.8
-5 -3 6 25 1.6
4 3 -6 1.7 0.9
-4 -3 6 2.7 0.8
3 3 -6 167.28 5.3
-3 -3 6 165.28 5.1
-3 -3 6 169.08 5
2 3 -6 253.47 6.9
2 3 -6 219.68 6.9
-2 -3 6 221.28 6.7
-2 -3 6 228.48 6.6
1 3 -6 6 0.9
1 3 -6 8.3 0.8
-1 -3 6 6.6 0.8
-1 -3 6 9.1 0.8
0 3 -6 1.6 0.6
0 3 -6 2.3 0.8
0 -3 6 2 0.5
0 -3 6 2.1 0.6
-1 3 -6 26.4 1.5
-1 3 -6 28.2 1.3
1 -3 6 25.4 1.2
-2 3 -6 240.98 6.9
-2 3 -6 237.08 7.1
2 -3 6 243.48 6.9
-3 3 -6 201.88 6.1
-3 3 -6 210.98 6.1
3 -3 6 205.98 6
-4 3 -6 3.1 0.8
-4 3 -6 1.5 0.7
4 -3 6 0.6 0.6
-5 3 -6 1.4 0.8
-5 3 -6 2.5 0.8
5 -3 6 2.9 0.7
-6 3 -6 359.76 10.5
-6 3 -6 363.46 10.3
6 -3 6 372.56 10.4
-7 3 -6 41.9 2.1
7 -3 6 42.9 1.6
7 -3 6 41 1.9
-8 3 -6 25 1.8
8 -3 6 25.3 1.5
-9 3 -6 217.98 7
9 -3 6 226.88 6.8
-10 3 -6 1.5 1.1
10 -3 6 0.8 0.9
-11 3 -6 12.8 1.8
11 -3 6 8.6 1.3
-12 3 -6 68.49 3.4
12 -3 6 63.39 2.9
-13 3 -6 1 1.7
10 2 -6 1.5 1.3
-10 -2 6 -0.3 1.3
9 2 -6 87.89 3.7
-9 -2 6 95.99 3.8
8 2 -6 2.9 1.1
-8 -2 6 4 1.2
7 2 -6 1.8 1
-7 -2 6 0.3 0.9
6 2 -6 68.69 2.9
6 2 -6 82.69 2.9
-6 -2 6 77.19 2.9
5 2 -6 7.7 1.1
5 2 -6 8.7 1.1
-5 -2 6 6.8 1
4 2 -6 40.2 1.9
4 2 -6 46.5 2
-4 -2 6 44 1.8
3 2 -6 1216.08 33.6
-3 -2 6 1229.48 33.4
-3 -2 6 1222.68 33.2
-3 -2 6 1253.97 33.4
2 2 -6 161.48 4.6
2 2 -6 152.58 4.8
-2 -2 6 155.98 4.6
-2 -2 6 154.48 4.7
1 2 -6 18.2 1.2
1 2 -6 18.7 1
-1 -2 6 18 1
-1 -2 6 16.9 0.9
0 2 -6 79.39 2.8
0 2 -6 82.29 2.6
0 -2 6 76.59 2.6
0 -2 6 79.49 2.4
-1 2 -6 107.39 3.2
-1 2 -6 97.99 3.3
1 -2 6 103.59 3.2
-2 2 -6 135.19 4.2
-2 2 -6 134.09 4.1
2 -2 6 135.49 4
-3 2 -6 4.5 0.7
-3 2 -6 3.3 0.7
3 -2 6 3.9 0.6
-4 2 -6 101.59 3.3
-4 2 -6 101.29 3.3
4 -2 6 104.19 3.2
-5 2 -6 259.07 7.4
-5 2 -6 251.57 7.5
5 -2 6 261.67 7.4
-6 2 -6 142.79 4.7
6 -2 6 148.39 4.4
6 -2 6 146.59 4.5
-7 2 -6 45.6 2.2
7 -2 6 52.09 1.7
7 -2 6 43.8 2
-8 2 -6 54.69 2.5
8 -2 6 55.69 2.2
-9 2 -6 1 1
9 -2 6 1.1 0.8
-10 2 -6 54.69 2.7
10 -2 6 53.59 2.4
-11 2 -6 15.1 1.9
11 -2 6 15.4 1.6
-12 2 -6 12.9 1.8
12 -2 6 13.6 1.6
-13 2 -6 38.7 2.7
13 -2 6 29.4 2.2
10 1 -6 32.3 2.3
-10 -1 6 33.5 2.4
9 1 -6 162.88 5.5
-9 -1 6 167.28 5.6
8 1 -6 2 1.1
-8 -1 6 -1.1 0.9
7 1 -6 -0.4 0.9
-7 -1 6 0.7 0.8
6 1 -6 5.7 1.1
6 1 -6 6.5 1
-6 -1 6 7.1 1.1
5 1 -6 83.89 2.9
5 1 -6 76.89 2.8
-5 -1 6 78.79 2.8
4 1 -6 101.09 3.3
4 1 -6 98.79 3.2
-4 -1 6 91.49 3
-4 -1 6 96.89 3.2
3 1 -6 12.3 1.1
3 1 -6 12.1 1
-3 -1 6 11.3 0.8
-3 -1 6 11.6 0.9
2 1 -6 24.2 1.3
2 1 -6 24.9 1.1
-2 -1 6 22.8 1.1
-2 -1 6 22.9 1.1
1 1 -6 164.78 5
1 1 -6 170.08 4.9
-1 -1 6 165.98 4.8
-1 -1 6 165.58 4.7
0 1 -6 15.5 0.9
0 1 -6 17.2 1.1
0 -1 6 15.7 0.7
0 -1 6 16 0.9
-1 1 -6 10.8 0.9
-1 1 -6 9.5 0.8
1 -1 6 9 0.7
-2 1 -6 74.09 2.5
-2 1 -6 76.29 2.6
2 -1 6 74.59 2.4
-3 1 -6 271.17 7.8
-3 1 -6 280.57 7.9
3 -1 6 269.67 7.7
-4 1 -6 4.4 0.7
-4 1 -6 3.4 0.7
4 -1 6 3.4 0.6
-5 1 -6 2.1 0.7
5 -1 6 1.2 0.6
5 -1 6 2.5 0.5
-6 1 -6 12.6 1.2
6 -1 6 17.9 0.9
6 -1 6 12.7 1
-7 1 -6 420.26 12.5
7 -1 6 469.05 12.2
7 -1 6 428.36 12.3
-8 1 -6 85.99 3.3
8 -1 6 88.19 3
-9 1 -6 14.7 1.6
9 -1 6 13.8 1.3
-10 1 -6 86.19 3.4
10 -1 6 86.49 3.2
-11 1 -6 70.89 3.1
11 -1 6 66.59 2.8
-12 1 -6 28.1 2.3
12 -1 6 25.2 1.9
-13 1 -6 85.49 3.9
13 -1 6 90.09 3.6
11 0 -6 7.7 1.6
-11 0 6 6.9 1.7
10 0 -6 25.2 2
-10 0 6 25.9 2.1
9 0 -6 7.3 1.3
-9 0 6 9 1.4
8 0 -6 3 1
-8 0 6 1 0.9
7 0 -6 0.3 0.8
-7 0 6 1.3 0.9
6 0 -6 42.7 1.9
-6 0 6 40.7 1.7
-6 0 6 41.3 2
5 0 -6 664.73 17.4
5 0 -6 612.14 17.3
-5 0 6 607.94 17.2
-5 0 6 622.14 17.4
4 0 -6 372.46 10.3
4 0 -6 361.96 10.3
-4 0 6 365.76 10.3
-4 0 6 358.36 10.1
3 0 -6 1.8 0.6
3 0 -6 1.7 0.6
-3 0 6 1.5 0.5
-3 0 6 1.3 0.5
2 0 -6 330.37 9.4
2 0 -6 334.37 9.3
-2 0 6 327.57 9.2
1 0 -6 268.97 7.6
1 0 -6 262.07 7.4
-1 0 6 264.07 7.3
-1 0 6 256.47 7.3
0 0 -6 693.53 18.5
0 0 -6 664.33 18.4
0 0 6 651.03 18.3
0 0 6 682.73 18.2
-1 0 -6 118.19 3.6
-1 0 -6 110.39 3.4
1 0 6 112.19 3.3
-2 0 -6 475.05 13.4
-2 0 -6 507.85 13.5
2 0 6 475.65 13.3
-3 0 -6 13.2 1
-3 0 -6 11.4 0.9
3 0 6 12.9 0.8
-4 0 -6 147.69 4.4
4 0 6 147.19 4.3
4 0 6 141.99 4.3
-5 0 -6 399.66 11.3
5 0 6 408.46 11.1
5 0 6 394.86 11.1
-6 0 -6 37 1.8
-6 0 -6 39.2 1.4
6 0 6 42.5 1.5
6 0 6 39.1 1.6
-7 0 -6 61.09 2.4
-7 0 -6 62.49 2
7 0 6 59.39 2.2
7 0 6 50.39 1.9
-8 0 -6 5.7 1.1
-8 0 -6 6.1 0.8
8 0 6 5.2 0.9
-9 0 -6 3 1
9 0 6 2.1 0.8
-10 0 -6 24.9 1.9
10 0 6 23.2 1.5
-11 0 -6 28.5 2.1
11 0 6 24.8 1.7
-12 0 -6 5.4 1.4
12 0 6 7 1.3
-13 0 -6 7.5 1.6
13 0 6 6.4 1.3
11 -1 -6 33.1 2.3
-11 1 6 36 2.4
10 -1 -6 16.7 1.7
-10 1 6 15.8 1.8
9 -1 -6 33.6 2
-9 1 6 32.2 2
8 -1 -6 4.6 1
-8 1 6 5.9 1.2
7 -1 -6 157.98 4.9
-7 1 6 158.38 5
-7 1 6 153.88 4.8
6 -1 -6 63.29 2.4
-6 1 6 63.79 2.5
-6 1 6 63.79 2.3
5 -1 -6 514.35 13.7
5 -1 -6 493.75 13.7
-5 1 6 477.85 13.7
-5 1 6 487.65 13.8
4 -1 -6 44.7 1.7
4 -1 -6 40.1 1.7
-4 1 6 42.6 1.7
-4 1 6 42.2 1.6
3 -1 -6 293.27 8.3
3 -1 -6 295.67 8.4
3 -1 -6 297.57 8.4
-3 1 6 292.97 8.3
2 -1 -6 50.59 1.8
2 -1 -6 52.79 1.9
2 -1 -6 49.5 1.7
2 -1 -6 50.69 1.8
1 -1 -6 7.9 0.8
1 -1 -6 7.6 0.7
1 -1 -6 7.9 0.8
-1 1 6 8.9 0.6
0 -1 -6 531.25 13.9
0 -1 -6 477.75 13.8
0 -1 -6 512.25 13.6
0 1 6 490.05 13.7
-1 -1 -6 145.39 4.4
-1 -1 -6 153.98 4.5
1 1 6 148.89 4.2
-2 -1 -6 177.18 5
2 1 6 167.98 4.9
2 1 6 166.88 4.8
-3 -1 -6 12.1 0.9
3 1 6 12.2 0.7
3 1 6 10.6 0.7
-4 -1 -6 123.69 3.8
4 1 6 124.89 3.7
4 1 6 121.49 3.7
-5 -1 -6 121.29 3.5
-5 -1 -6 119.59 3.8
5 1 6 118.99 3.7
5 1 6 125.79 3.7
-6 -1 -6 24.7 1.4
-6 -1 -6 25.4 1.1
6 1 6 23.6 1.2
6 1 6 20.9 1.1
-7 -1 -6 180.68 5.7
-7 -1 -6 194.88 5.4
7 1 6 183.48 5.5
7 1 6 186.48 5.4
-8 -1 -6 161.08 5.1
-8 -1 -6 163.88 4.8
8 1 6 156.68 4.9
-9 -1 -6 151.78 4.6
-9 -1 -6 151.18 4.9
9 1 6 146.39 4.7
-10 -1 -6 0.7 0.9
-10 -1 -6 0.5 1.4
10 1 6 0.8 0.8
-11 -1 -6 107.79 4
11 1 6 104.49 3.8
-12 -1 -6 30.7 2.2
12 1 6 31.5 2
-13 -1 -6 0.7 1.3
13 1 6 0 1.2
11 -2 -6 17.6 1.7
-11 2 6 18.8 2
10 -2 -6 0.5 0.9
-10 2 6 -0.3 1
9 -2 -6 5.9 1
-9 2 6 8.2 1.3
8 -2 -6 48.5 2.2
-8 2 6 47.7 2.2
-8 2 6 49.2 2.3
7 -2 -6 32.9 1.6
-7 2 6 32.9 1.7
-7 2 6 31.4 1.8
6 -2 -6 106.09 3.4
-6 2 6 100.49 3.5
-6 2 6 106.29 3.4
5 -2 -6 361.56 10.2
5 -2 -6 353.66 10.3
-5 2 6 358.36 10.2
-5 2 6 375.76 10
4 -2 -6 115.99 3.7
4 -2 -6 122.19 3.6
-4 2 6 122.49 3.7
-4 2 6 115.39 3.5
3 -2 -6 223.88 6.4
3 -2 -6 221.38 6.5
-3 2 6 222.38 6.4
-3 2 6 231.78 6.4
2 -2 -6 37.8 1.4
2 -2 -6 36.8 1.5
2 -2 -6 37.7 1.4
-2 2 6 37.4 1.4
1 -2 -6 41.5 1.6
1 -2 -6 43.1 1.5
-1 2 6 44 1.5
-1 2 6 45.1 1.4
0 -2 -6 983.4 26.3
0 -2 -6 976.4 26.5
0 2 6 941.91 26.5
0 2 6 1003.8 26.3
-1 -2 -6 66.19 2.2
-1 -2 -6 65.59 2
1 2 6 63.69 2.1
1 2 6 67.49 2
-2 -2 -6 56.19 1.9
2 2 6 56.29 1.7
2 2 6 52.39 1.9
-3 -2 -6 5.3 0.4
-3 -2 -6 5.6 0.8
3 2 6 6.5 0.6
3 2 6 5.2 0.6
-4 -2 -6 488.15 13.7
-4 -2 -6 493.15 13.9
4 2 6 512.95 13.8
4 2 6 518.15 13.8
-5 -2 -6 3 0.7
-5 -2 -6 2.5 0.5
5 2 6 2.2 0.5
5 2 6 2.9 0.6
-6 -2 -6 6.7 1
-6 -2 -6 7.4 0.8
6 2 6 5.5 0.8
6 2 6 5.8 0.7
-7 -2 -6 267.17 7.5
-7 -2 -6 257.57 7.6
7 2 6 262.67 7.5
7 2 6 260.77 7.5
-8 -2 -6 82.39 3.1
-8 -2 -6 87.19 2.9
8 2 6 86.49 2.9
-9 -2 -6 37.2 1.8
-9 -2 -6 37.4 2
9 2 6 35.9 1.8
-10 -2 -6 76.99 2.9
-10 -2 -6 76.99 3.1
10 2 6 76.59 2.9
-11 -2 -6 194.98 6
-11 -2 -6 179.58 5.9
11 2 6 177.48 5.8
-12 -2 -6 2.6 1.2
12 2 6 -0.2 1.1
13 2 6 48.8 2.6
11 -3 -6 9 1.3
-11 3 6 9.2 1.5
10 -3 -6 1.6 1.1
-10 3 6 0.7 1.1
9 -3 -6 19.1 1.6
-9 3 6 21 1.8
-9 3 6 19.7 1.7
8 -3 -6 0.4 0.8
-8 3 6 1.5 0.9
-8 3 6 0.1 0.9
7 -3 -6 117.29 3.8
-7 3 6 115.59 3.9
6 -3 -6 6.5 1
6 -3 -6 7.2 1
-6 3 6 7.3 1.1
5 -3 -6 383.56 10.6
5 -3 -6 368.16 10.8
-5 3 6 385.76 10.8
-5 3 6 382.86 10.5
4 -3 -6 199.78 6
4 -3 -6 205.28 5.8
-4 3 6 205.68 6
-4 3 6 203.38 5.8
3 -3 -6 107.19 3.4
3 -3 -6 112.49 3.3
-3 3 6 110.19 3.4
-3 3 6 109.19 3.3
2 -3 -6 0.9 0.5
2 -3 -6 0.4 0.5
2 -3 -6 0.5 0.4
-2 3 6 0.8 0.3
1 -3 -6 731.23 20
1 -3 -6 724.33 19.9
-1 3 6 765.02 19.7
-1 3 6 706.93 19.9
0 -3 -6 111.89 3.3
0 -3 -6 110.69 3.4
0 3 6 113.79 3.1
0 3 6 109.09 3.3
-1 -3 -6 154.58 4.5
-1 -3 -6 154.88 4.4
1 3 6 161.08 4.3
1 3 6 143.29 4.5
-2 -3 -6 146.79 4.1
-2 -3 -6 137.39 4.2
2 3 6 152.28 4
2 3 6 136.59 4.2
-3 -3 -6 201.08 5.9
-3 -3 -6 204.48 5.7
3 3 6 207.38 5.9
3 3 6 210.98 5.7
-4 -3 -6 139.99 4.1
-4 -3 -6 143.59 4.3
4 3 6 140.29 4.2
4 3 6 142.19 4.1
-5 -3 -6 0.3 0.5
-5 -3 -6 0.1 0.5
5 3 6 1 0.5
5 3 6 0.8 0.5
-6 -3 -6 91.49 3.1
-6 -3 -6 94.19 3
6 3 6 95.09 3
6 3 6 95.69 3
-7 -3 -6 1.2 0.7
-7 -3 -6 2.6 0.8
7 3 6 1.7 0.7
7 3 6 1.7 0.7
-8 -3 -6 14 1.3
-8 -3 -6 14.1 1.3
8 3 6 12.5 1.1
8 3 6 10.8 1.1
-9 -3 -6 296.67 8.7
-9 -3 -6 300.07 8.6
9 3 6 287.57 8.6
-10 -3 -6 19.8 1.6
-10 -3 -6 19.9 1.6
10 3 6 20.9 1.5
-11 -3 -6 0.2 1
-11 -3 -6 0.4 1.1
11 3 6 0.6 1
-12 -3 -6 20.7 2
12 3 6 26.2 1.9
13 3 6 5.4 1.5
12 -4 -6 35.4 2.9
11 -4 -6 10.5 1.5
-11 4 6 4.2 1.3
10 -4 -6 38.5 2.1
-10 4 6 35.5 2.4
-10 4 6 37.6 2.2
9 -4 -6 16.8 1.5
-9 4 6 14.2 1.6
-9 4 6 12.6 1.7
8 -4 -6 0.3 0.8
8 -4 -6 1.5 0.8
-8 4 6 0 0.9
7 -4 -6 53.59 2.3
7 -4 -6 50.69 2.1
-7 4 6 50.59 2.3
6 -4 -6 64.79 2.3
6 -4 -6 67.29 2.6
-6 4 6 66.99 2.6
5 -4 -6 5.4 0.9
5 -4 -6 4.8 0.7
-5 4 6 5.8 0.9
-5 4 6 5.5 0.9
4 -4 -6 52.19 1.7
4 -4 -6 48.5 1.9
-4 4 6 48.5 1.7
-4 4 6 51.19 2
3 -4 -6 13.5 0.7
3 -4 -6 13.1 1
-3 4 6 12.9 1
-3 4 6 13.5 0.8
2 -4 -6 284.17 7.7
2 -4 -6 271.07 8
-2 4 6 285.37 8
-2 4 6 289.37 7.9
1 -4 -6 76.59 2.5
0 -4 -6 888.41 24.2
0 -4 -6 881.31 24.3
0 4 6 910.71 24.3
-1 -4 -6 14 0.8
-1 -4 -6 12.5 0.8
1 4 6 13.4 0.9
-2 -4 -6 226.28 6.8
-2 -4 -6 237.48 6.7
2 4 6 246.58 6.5
2 4 6 244.18 6.8
-3 -4 -6 28.9 1.3
-3 -4 -6 28.6 1.2
3 4 6 31.3 1.1
3 4 6 29.7 1.3
-4 -4 -6 135.59 4.1
-4 -4 -6 133.99 4
4 4 6 138.59 3.9
4 4 6 135.89 4.1
-5 -4 -6 97.19 3
-5 -4 -6 95.79 3.1
5 4 6 97.49 3
5 4 6 96.29 3.1
-6 -4 -6 109.99 3.5
-6 -4 -6 108.89 3.5
6 4 6 113.09 3.4
6 4 6 109.89 3.5
-7 -4 -6 21.2 1.3
-7 -4 -6 20.5 1.4
7 4 6 20.8 1.3
7 4 6 19 1.2
-8 -4 -6 345.07 9.9
-8 -4 -6 343.47 9.9
8 4 6 347.57 9.9
8 4 6 350.76 9.9
-9 -4 -6 49.7 2.3
-9 -4 -6 55.09 2.3
9 4 6 51.79 2.2
-10 -4 -6 1.6 1.1
-10 -4 -6 3.3 1
10 4 6 2.1 0.9
-11 -4 -6 182.18 6
11 4 6 191.58 6
-12 -4 -6 92.69 3.7
12 4 6 93.59 3.6
13 4 6 32.3 2.3
-11 5 6 16.3 2.1
-11 5 6 16.2 1.9
10 -5 -6 0.6 1
-10 5 6 1.9 1.1
-10 5 6 -0.5 1.3
9 -5 -6 23.5 1.6
9 -5 -6 25.8 1.9
-9 5 6 28.1 2.1
8 -5 -6 5.5 1
8 -5 -6 3.9 1.1
-8 5 6 3.3 1.1
7 -5 -6 54.79 2.4
7 -5 -6 55.29 2.1
-7 5 6 55.99 2.4
6 -5 -6 54.29 2.1
6 -5 -6 56.79 2.3
-6 5 6 58.59 2.4
5 -5 -6 4.3 0.7
5 -5 -6 3.6 0.8
-5 5 6 3.6 0.9
4 -5 -6 13.4 1.1
4 -5 -6 13.1 0.8
-4 5 6 11.9 1.1
-4 5 6 13.3 0.8
3 -5 -6 611.24 16.9
-3 5 6 624.14 16.9
-3 5 6 600.44 16.7
2 -5 -6 57.09 2.1
-2 5 6 61.79 2.1
-2 5 6 60.29 2
1 -5 -6 180.78 5.3
1 -5 -6 181.48 5.3
-1 5 6 179.18 5.2
0 -5 -6 646.84 17.5
0 -5 -6 626.14 17.5
0 5 6 646.44 17.5
-1 -5 -6 1.3 0.5
-1 -5 -6 0.4 0.4
1 5 6 0.2 0.5
-2 -5 -6 100.19 3.1
-2 -5 -6 101.29 3.1
2 5 6 102.29 3.2
-3 -5 -6 94.49 3.1
-3 -5 -6 95.49 3
3 5 6 101.29 3.2
3 5 6 101.99 2.8
-4 -5 -6 6.7 0.8
-4 -5 -6 5 0.7
4 5 6 5.4 0.8
4 5 6 5.1 0.6
-5 -5 -6 10.5 0.9
-5 -5 -6 11.6 1.1
5 5 6 11.3 0.8
5 5 6 9.9 1
-6 -5 -6 55.39 2.2
-6 -5 -6 55.89 2.1
6 5 6 57.09 2
6 5 6 54.99 2.2
-7 -5 -6 29.5 1.5
-7 -5 -6 30.8 1.7
7 5 6 28.6 1.6
7 5 6 30.1 1.4
-8 -5 -6 45.9 2.1
-8 -5 -6 47.5 2
8 5 6 46.6 2
8 5 6 44.1 1.9
-9 -5 -6 19.7 1.7
-9 -5 -6 18.3 1.4
9 5 6 20.7 1.5
-10 -5 -6 32 2.1
10 5 6 32.2 1.9
-11 -5 -6 14.8 1.9
11 5 6 15.1 1.6
-12 -5 -6 -0.3 1.3
12 5 6 0.8 1.2
-13 -5 -6 1.1 1.5
13 5 6 3 1.5
-11 6 6 22.9 2.1
-11 6 6 22.1 2.3
-10 6 6 21.4 2.3
9 -6 -6 1.5 1.1
-9 6 6 0.3 1.2
8 -6 -6 67.89 2.6
8 -6 -6 67.49 2.8
-8 6 6 71.39 3
7 -6 -6 6.8 1.1
7 -6 -6 9.4 1
-7 6 6 8.7 1.3
6 -6 -6 25.4 1.2
6 -6 -6 24.9 1.6
-6 6 6 23.4 1.7
5 -6 -6 178.68 5
5 -6 -6 167.68 5.4
-5 6 6 176.38 5.4
4 -6 -6 305.07 8.4
4 -6 -6 294.57 8.7
-4 6 6 302.87 8.5
-4 6 6 307.27 8.8
3 -6 -6 17.1 1.2
-3 6 6 19.4 1.2
-3 6 6 18.4 1
2 -6 -6 228.18 6.6
-2 6 6 226.18 6.6
-2 6 6 223.88 6.5
1 -6 -6 57.19 2.1
-1 6 6 56.49 2
-1 6 6 57.49 2
0 -6 -6 188.78 5.5
0 -6 -6 187.18 5.5
0 6 6 189.88 5.5
-1 -6 -6 0 0.5
-1 -6 -6 1 0.5
1 6 6 0.1 0.5
-2 -6 -6 143.99 4.3
-2 -6 -6 141.89 4.3
2 6 6 149.29 4.4
-3 -6 -6 0.7 0.5
-3 -6 -6 0.5 0.5
3 6 6 0.2 0.3
3 6 6 0 0.6
-4 -6 -6 21.7 1.1
-4 -6 -6 20.9 1.2
4 6 6 21.4 0.9
4 6 6 21.8 1.3
-5 -6 -6 343.87 9.7
-5 -6 -6 343.17 9.7
5 6 6 347.37 9.5
5 6 6 342.47 9.8
-6 -6 -6 191.48 5.8
-6 -6 -6 198.78 6
6 6 6 203.18 5.7
6 6 6 200.18 6
-7 -6 -6 199.68 6.1
-7 -6 -6 201.68 5.9
7 6 6 201.38 6.1
7 6 6 200.38 5.9
-8 -6 -6 52.49 2.4
-8 -6 -6 51.09 2.2
8 6 6 52.39 2.1
8 6 6 51.89 2.2
-9 -6 -6 0.5 1.1
9 6 6 1.3 0.9
-10 -6 -6 -1 1.1
10 6 6 1 1
-11 -6 -6 1.9 1.3
11 6 6 1.8 1.2
-12 -6 -6 33.7 2.5
12 6 6 40.5 2.4
-11 7 6 0.2 1.4
-11 7 6 0 1.2
10 -7 -6 90.79 3.8
-10 7 6 91.39 4
9 -7 -6 24.3 1.9
-9 7 6 23.8 2.2
8 -7 -6 14.2 1.5
-8 7 6 12.2 1.7
7 -7 -6 0.5 0.9
-7 7 6 -0.5 0.8
6 -7 -6 19.3 1.5
-6 7 6 22 1.6
5 -7 -6 176.48 5.6
-5 7 6 188.18 5.7
4 -7 -6 141.99 4.5
-4 7 6 145.79 4.3
-4 7 6 141.39 4.6
3 -7 -6 4.1 0.8
-3 7 6 5.3 0.7
-3 7 6 5.6 0.9
2 -7 -6 88.39 3
-2 7 6 88.59 3
-2 7 6 93.79 2.9
1 -7 -6 331.37 9.3
-1 7 6 325.57 9.2
-1 7 6 320.57 9.2
0 -7 -6 146.19 4.5
0 -7 -6 153.08 4.5
0 7 6 148.89 4.5
-1 -7 -6 410.56 11.4
-1 -7 -6 405.26 11.3
1 7 6 402.26 11.4
-2 -7 -6 -0.7 0.5
-2 -7 -6 0.5 0.5
2 7 6 0.3 0.6
-3 -7 -6 85.59 2.8
-3 -7 -6 86.49 2.8
3 7 6 84.59 3
3 7 6 86.29 2.5
-4 -7 -6 38.9 1.6
-4 -7 -6 39.3 1.7
4 7 6 42.1 1.9
4 7 6 40.5 1.4
-5 -7 -6 75.19 2.5
-5 -7 -6 74.19 2.7
5 7 6 73.89 2.4
5 7 6 78.89 2.8
-6 -7 -6 10.9 1
-6 -7 -6 10.6 1.2
6 7 6 9.6 1.3
6 7 6 10.7 1
-7 -7 -6 392.36 11.3
7 7 6 394.96 11.3
7 7 6 397.46 11.1
-8 -7 -6 39.1 2.1
8 7 6 41.5 1.8
8 7 6 37.6 2
-9 -7 -6 14.7 1.7
9 7 6 15 1.4
-10 -7 -6 0.4 1.2
10 7 6 1 1
-11 -7 -6 -0.3 1.4
11 7 6 1.9 1.2
-12 -7 -6 38.3 2.7
12 7 6 48.8 2.6
10 -8 -6 4 1.4
-10 8 6 0.8 1.6
9 -8 -6 0.4 1.1
-9 8 6 1.5 1.4
8 -8 -6 17.1 1.7
-8 8 6 17.1 1.9
7 -8 -6 67.69 2.8
-7 8 6 66.89 3
6 -8 -6 35.3 2
-6 8 6 38.6 2.1
5 -8 -6 114.99 4
-5 8 6 121.09 4.1
4 -8 -6 169.88 5.3
-4 8 6 170.58 5.3
-4 8 6 169.38 5.1
3 -8 -6 207.88 6.3
-3 8 6 207.68 6.3
-3 8 6 211.08 6.1
2 -8 -6 193.38 5.9
-2 8 6 197.48 5.8
-2 8 6 191.68 5.8
1 -8 -6 15 1.1
-1 8 6 16.5 1.2
-1 8 6 14.3 1.1
0 -8 -6 121.39 3.9
0 8 6 128.39 4
0 8 6 125.39 3.9
-1 -8 -6 61.19 2.1
-1 -8 -6 57.59 2.2
1 8 6 59.39 2.3
-2 -8 -6 91.29 2.9
-2 -8 -6 88.69 3
2 8 6 89.09 3.1
-3 -8 -6 83.89 3
-3 -8 -6 91.09 2.9
3 8 6 90.49 3.2
3 8 6 91.59 2.7
-4 -8 -6 35 1.5
-4 -8 -6 34.7 1.7
4 8 6 39.4 1.9
4 8 6 36.1 1.4
-5 -8 -6 28 1.3
-5 -8 -6 30.5 1.7
5 8 6 32.5 1.8
-6 -8 -6 26.6 1.7
6 8 6 26.6 1.8
6 8 6 26.8 1.3
-7 -8 -6 91.89 3.3
7 8 6 87.79 3.3
7 8 6 86.19 3
-8 -8 -6 31.4 2.1
8 8 6 32.3 1.9
8 8 6 29.4 1.7
-9 -8 -6 6.8 1.4
9 8 6 10.5 1.3
9 8 6 7.4 1.6
-10 -8 -6 9.1 1.5
10 8 6 12.3 1.5
-11 -8 -6 14.4 2.1
11 8 6 17.1 1.8
-12 -8 -6 7.3 1.7
12 8 6 9.1 1.6
10 -9 -6 0.1 1.3
-10 9 6 -0.1 1.7
9 -9 -6 2.5 1.3
-9 9 6 3.3 1.6
8 -9 -6 59.49 2.8
-8 9 6 56.39 3
7 -9 -6 30.8 2
-7 9 6 30.7 2.1
6 -9 -6 56.69 2.5
-6 9 6 54.29 2.6
5 -9 -6 279.97 8.4
-5 9 6 276.77 8.4
4 -9 -6 138.89 4.5
-4 9 6 136.79 4.3
-4 9 6 134.49 4.5
3 -9 -6 0.9 0.7
-3 9 6 0.3 0.8
-3 9 6 -0.4 0.8
2 -9 -6 117.59 3.9
-2 9 6 121.39 3.9
-2 9 6 113.09 3.8
1 -9 -6 16.7 1.3
-1 9 6 16.8 1.3
-1 9 6 17.4 1.2
0 -9 -6 154.98 4.9
0 9 6 159.58 4.8
0 9 6 155.78 4.9
-1 -9 -6 0.1 0.6
1 9 6 0.5 0.8
1 9 6 -0.6 0.6
-2 -9 -6 50.49 2.1
2 9 6 52.29 2.3
-3 -9 -6 22.8 1.2
-3 -9 -6 21.9 1.4
3 9 6 23.1 1.6
-4 -9 -6 0 0.8
-4 -9 -6 0.1 0.5
4 9 6 0 0.9
-5 -9 -6 -0.4 0.8
5 9 6 0.2 0.9
5 9 6 0 0.9
-6 -9 -6 49.1 2.2
6 9 6 44.8 2.3
6 9 6 47.3 1.9
-7 -9 -6 2.7 1.1
7 9 6 3.8 1.1
7 9 6 1.3 0.7
-8 -9 -6 8.1 1.4
8 9 6 8.4 1.3
8 9 6 5.1 1
-9 -9 -6 52.59 2.8
9 9 6 52.49 2.6
-10 -9 -6 42.5 2.7
10 9 6 45 2.3
-11 -9 -6 30.2 2.5
10 -10 -6 9 1.7
-10 10 6 8.8 2.8
9 -10 -6 9 1.6
-9 10 6 8.9 1.9
8 -10 -6 57.79 2.8
-8 10 6 54.09 3
7 -10 -6 21.4 1.9
-7 10 6 23.1 2.1
6 -10 -6 2.9 1
-6 10 6 0.8 1
5 -10 -6 29.6 1.9
-5 10 6 31.7 2
4 -10 -6 64.69 2.7
-4 10 6 62.49 2.6
-4 10 6 60.39 2.4
3 -10 -6 63.09 2.6
-3 10 6 69.29 2.6
-3 10 6 64.89 2.6
2 -10 -6 166.88 5.3
-2 10 6 170.98 5.2
-2 10 6 164.78 5.2
1 -10 -6 19.2 1.4
-1 10 6 19.1 1.5
-1 10 6 21.7 1.4
0 -10 -6 181.18 5.6
0 10 6 184.78 5.5
0 10 6 178.28 5.7
-1 -10 -6 55.19 2.3
1 10 6 60.49 2.2
1 10 6 55.49 2.5
-2 -10 -6 33.9 1.7
2 10 6 32.8 2
2 10 6 38.8 1.6
-3 -10 -6 69.09 2.6
3 10 6 66.59 2.8
-4 -10 -6 43.3 2
4 10 6 43.6 2.2
-5 -10 -6 70.19 2.8
5 10 6 68.49 3
-6 -10 -6 2 1
6 10 6 1.9 1.1
-7 -10 -6 11.7 1.5
7 10 6 13.3 1.7
-8 -10 -6 20.7 2
8 10 6 20 1.9
-9 -10 -6 12 1.7
9 10 6 11.8 1.6
-10 -10 -6 0.9 1.4
9 -11 -6 28.3 2.4
-9 11 6 24.3 2.7
8 -11 -6 0.7 1.2
-8 11 6 -1.9 1.4
7 -11 -6 74.59 3.2
-7 11 6 69.99 3.4
6 -11 -6 425.06 12.2
-6 11 6 400.36 12.2
5 -11 -6 0.1 0.9
-5 11 6 0.3 1
4 -11 -6 54.09 2.5
-4 11 6 54.99 2.6
3 -11 -6 136.99 4.6
-3 11 6 140.99 4.5
-3 11 6 136.19 4.6
2 -11 -6 1.1 0.8
-2 11 6 0.8 0.9
-2 11 6 -0.8 0.8
1 -11 -6 110.29 3.9
-1 11 6 118.99 3.8
-1 11 6 113.99 4
0 -11 -6 96.49 3.5
0 11 6 95.89 3.6
0 11 6 102.59 3.3
-1 -11 -6 4.2 0.9
1 11 6 3.6 0.8
1 11 6 2 1
-2 -11 -6 1 0.8
2 11 6 -0.7 0.9
-3 -11 -6 0.5 0.8
3 11 6 1.1 1
-4 -11 -6 41.6 2
4 11 6 39.8 2.3
-5 -11 -6 58.79 2.6
5 11 6 60.79 2.9
-6 -11 -6 5.5 1.2
6 11 6 6.9 1.3
-7 -11 -6 3 1.1
7 11 6 3.8 1.3
-8 -11 -6 15.4 1.8
8 11 6 14 1.8
-9 -11 -6 9.1 1.5
9 11 6 13.2 1.8
-10 -11 -6 7.8 1.7
8 -12 -6 3.4 1.4
-8 12 6 3.2 1.7
7 -12 -6 19.2 2
-7 12 6 16.8 2.3
6 -12 -6 7.7 1.4
-6 12 6 5 1.5
5 -12 -6 33 2.1
-5 12 6 29.8 2.2
4 -12 -6 0.2 1
-4 12 6 -1.2 0.9
3 -12 -6 29.3 1.8
-3 12 6 31.4 2
-3 12 6 26.7 1.9
2 -12 -6 -0.9 0.8
-2 12 6 0 1
-2 12 6 0.5 1
1 -12 -6 59.59 2.7
-1 12 6 70.99 2.7
-1 12 6 64.29 2.8
0 -12 -6 29.9 1.8
0 12 6 34.1 1.8
0 12 6 26 1.9
-1 -12 -6 39 2
1 12 6 37.5 2.2
-2 -12 -6 1.8 0.9
2 12 6 0.6 1
-3 -12 -6 63.79 2.7
3 12 6 60.89 2.9
-4 -12 -6 14.5 1.4
4 12 6 11.2 1.6
-5 -12 -6 4 1
5 12 6 7.3 1.4
-6 -12 -6 98.39 3.7
6 12 6 95.99 4
-7 -12 -6 8.2 1.4
7 12 6 8 1.5
-8 -12 -6 3.2 1.2
8 12 6 6.8 1.4
-9 -12 -6 3.6 1.4
9 12 6 2.1 1.3
8 -13 -6 37.4 2.9
-8 13 6 46.5 3.8
7 -13 -6 73.59 3.4
-7 13 6 65.49 3.5
6 -13 -6 12.2 1.7
-6 13 6 7.9 1.7
5 -13 -6 10.5 1.5
-5 13 6 7.6 1.5
4 -13 -6 105.49 4
-4 13 6 106.39 4.1
3 -13 -6 5.2 1.1
-3 13 6 4.1 1.1
-3 13 6 3.3 1.1
2 -13 -6 222.38 6.8
-2 13 6 208.68 6.9
1 -13 -6 24.9 1.8
-1 13 6 20.2 1.9
0 -13 -6 11.8 1.5
0 13 6 13.2 1.8
-1 -13 -6 76.19 3
1 13 6 71.39 3.3
-2 -13 -6 62.69 2.7
2 13 6 58.99 3
-3 -13 -6 8.3 1.3
3 13 6 9 1.6
-4 -13 -6 1.5 1
4 13 6 0.3 1
-5 -13 -6 1.1 1
5 13 6 0.2 1.2
-6 -13 -6 3 1.3
6 13 6 -0.7 1.1
-7 -13 -6 2 1.2
7 13 6 1.4 1.3
-8 -13 -6 4.7 1.5
8 13 6 4 1.5
7 -14 -6 85.19 4.1
-7 14 6 85.29 4
6 -14 -6 31.5 2.5
-6 14 6 28.1 2.6
5 -14 -6 1.2 1.3
-5 14 6 -0.9 1.4
4 -14 -6 8.3 1.5
-4 14 6 5.2 1.6
3 -14 -6 -1 1
-3 14 6 -1.2 1.2
-3 14 6 0.4 1.2
2 -14 -6 20.1 1.8
-2 14 6 20.9 2
1 -14 -6 7.7 1.3
-1 14 6 6 1.4
0 -14 -6 71.79 3
0 14 6 67.39 3.2
-1 -14 -6 14.4 1.6
1 14 6 8 1.4
-2 -14 -6 3.5 1.1
2 14 6 2.6 1.3
-3 -14 -6 4.9 1.2
3 14 6 3.1 1.3
-4 -14 -6 37 2.3
4 14 6 34.8 2.6
-5 -14 -6 58.59 2.8
5 14 6 52.49 3.1
-6 -14 -6 2.2 1.1
6 14 6 2.1 1.4
7 14 6 14.2 2.2
-6 15 6 26.2 2.7
5 -15 -6 2.8 1.5
-5 15 6 0.3 1.6
4 -15 -6 122.49 4.7
3 -15 -6 3.4 1.2
2 -15 -6 1.9 1.2
-2 15 6 0.5 1.3
1 -15 -6 21.7 1.9
-1 15 6 18.4 2.2
0 -15 -6 4.9 1.2
0 15 6 2 1.4
-1 -15 -6 0.4 1.1
1 15 6 -0.4 1.2
-2 -15 -6 -0.6 1.1
2 15 6 -0.7 1.3
-3 -15 -6 32.8 2.2
3 15 6 32.3 2.7
-4 -15 -6 14.3 1.9
4 15 6 10.6 1.9
-5 -15 -6 5.7 1.8
5 15 6 8.1 1.9
3 -16 -6 22.3 2.3
2 -16 -6 59.89 3.1
-2 16 6 56.79 3.2
1 -16 -6 3.4 1.3
-1 16 6 3 1.7
0 -16 -6 2.6 1.3
0 16 6 2.8 1.6
-1 -16 -6 18.1 2.1
1 16 6 21.1 2.5
-2 -16 -6 2.3 1.3
2 16 6 2 1.7
-1 11 -7 0.2 2.2
1 -11 7 0.9 1
-2 11 -7 21.2 2.8
2 -11 7 22.6 1.8
-3 11 -7 30.7 3
3 -11 7 33.4 2.1
-4 11 -7 21.2 2.6
4 -11 7 18 1.7
-5 11 -7 -0.5 1.6
2 10 -7 34 2.9
-2 -10 7 37.4 2.1
1 10 -7 1.6 1.6
-1 -10 7 2.1 1
0 10 -7 5.1 1.8
0 -10 7 3.5 1.1
-1 10 -7 8.6 1.9
1 -10 7 7.5 1.2
-2 10 -7 1.2 1.6
2 -10 7 2.1 1
-3 10 -7 4.8 1.8
3 -10 7 7.7 1.2
-4 10 -7 0.1 1.4
4 -10 7 -1.1 0.9
-5 10 -7 0.2 1.5
5 -10 7 1.9 1.1
6 -10 7 1.3 1.1
7 -10 7 -1 1
4 9 -7 1.1 1.5
-4 -9 7 -1.3 0.9
3 9 -7 -0.1 1.4
-3 -9 7 1.2 0.9
2 9 -7 167.18 6.2
-2 -9 7 173.68 5.5
1 9 -7 35.6 2.6
-1 -9 7 38.3 2.1
0 9 -7 40.1 2.7
0 -9 7 43.8 2.2
-1 9 -7 41.6 2.8
1 -9 7 40.3 2.1
-2 9 -7 2.1 1.4
2 -9 7 1.5 1
-3 9 -7 26.6 2.4
3 -9 7 28 1.8
-4 9 -7 95.69 4.2
4 -9 7 112.39 3.8
-5 9 -7 52.79 2.9
5 -9 7 54.19 2.5
6 -9 7 77.89 3.2
-7 9 -7 17.9 2.5
7 -9 7 15 1.6
-8 9 -7 38.7 2.6
8 -9 7 32.8 2.1
-9 9 -7 0.5 1.4
6 8 -7 0.2 1.5
5 8 -7 15.5 2.1
-5 -8 7 14 1.6
4 8 -7 16.7 2.2
-4 -8 7 19.4 1.6
3 8 -7 62.69 3.3
-3 -8 7 66.89 2.8
2 8 -7 9.1 1.7
-2 -8 7 8.6 1.2
1 8 -7 0.3 1.3
-1 -8 7 2.4 0.9
0 8 -7 3.4 1.3
0 -8 7 2.6 0.9
-1 8 -7 8.8 1.6
1 -8 7 12.5 1.3
-2 8 -7 1.2 1.2
2 -8 7 1.2 0.9
-3 8 -7 18.6 2
3 -8 7 19.6 1.5
-4 8 -7 12.6 1.7
4 -8 7 12.3 1.4
-5 8 -7 6.6 1.4
5 -8 7 6.7 1.2
-6 8 -7 17.2 1.9
-6 8 -7 21 1.9
6 -8 7 20.8 1.6
-7 8 -7 6 1.4
7 -8 7 2.6 1.1
-8 8 -7 32.7 2.4
8 -8 7 27.9 1.9
-9 8 -7 23.6 2.3
9 -8 7 18.1 1.8
-10 8 -7 7.8 2
6 7 -7 3.4 1.5
-6 -7 7 3 1.1
5 7 -7 0.9 1.3
-5 -7 7 0.4 0.9
4 7 -7 5.6 1.5
-4 -7 7 6.5 1.1
3 7 -7 1.3 1.3
-3 -7 7 2.4 0.9
2 7 -7 1.1 1.2
-2 -7 7 2 0.8
1 7 -7 14.2 1.8
-1 -7 7 16.6 1.4
0 7 -7 163.18 5.8
0 -7 7 177.38 5.4
-1 7 -7 1.4 1.1
1 -7 7 0.1 0.8
-2 7 -7 53.99 2.7
2 -7 7 57.79 2.4
-3 7 -7 5.2 1.1
3 -7 7 9.3 1.2
-4 7 -7 4.7 1
-4 7 -7 1.5 1.1
4 -7 7 3.4 0.9
-5 7 -7 8.4 1.4
-5 7 -7 6.4 1.2
5 -7 7 8.3 1.1
-6 7 -7 328.67 9.9
-6 7 -7 331.77 9.8
6 -7 7 327.57 9.7
-7 7 -7 12.8 1.8
7 -7 7 11.1 1.4
-8 7 -7 47.4 2.7
8 -7 7 46.4 2.3
-9 7 -7 3.3 1.4
9 -7 7 2.7 1.1
-10 7 -7 3 1.5
10 -7 7 3 1.2
-8 -6 7 3.7 1.7
-7 -6 7 3.8 1.2
-7 -6 7 1.4 1.4
6 6 -7 4.6 1.3
-6 -6 7 8.4 1.3
-6 -6 7 7 1.5
5 6 -7 35.5 2.4
-5 -6 7 32.1 2.1
-5 -6 7 39.6 2.1
4 6 -7 14.7 1.8
-4 -6 7 15 1.4
-4 -6 7 13.7 1.8
3 6 -7 22.4 2
-3 -6 7 23.6 1.5
2 6 -7 98.99 4
-2 -6 7 107.09 3.6
1 6 -7 79.99 3.4
-1 -6 7 87.09 3
0 6 -7 11.9 1.6
0 -6 7 12.6 1.2
-1 6 -7 117.69 4.3
1 -6 7 119.89 3.9
-2 6 -7 336.57 10.3
2 -6 7 352.26 9.9
-3 6 -7 5.6 1
-3 6 -7 4.4 1.1
3 -6 7 3.4 0.8
-4 6 -7 10.9 1.4
-4 6 -7 8.9 1.4
4 -6 7 8.8 1.1
-5 6 -7 5.7 1.2
-5 6 -7 5.1 1.1
5 -6 7 3.9 1
-6 6 -7 -0.9 0.9
-6 6 -7 0.2 1
6 -6 7 0.6 0.8
-7 6 -7 143.09 4.9
7 -6 7 138.29 4.7
-8 6 -7 100.69 4
8 -6 7 99.49 3.7
-9 6 -7 30.8 2.4
9 -6 7 32.9 2
-10 6 -7 32.9 2.6
10 -6 7 34.5 2.1
-11 6 -7 9.3 1.8
11 -6 7 9.4 1.5
-8 -5 7 23 2
-8 -5 7 20.4 2.3
-7 -5 7 56.29 2.9
-7 -5 7 56.09 2.7
6 5 -7 7.6 1.4
-6 -5 7 10 1.3
-6 -5 7 9.2 1.5
5 5 -7 31.6 2.2
-5 -5 7 26.2 1.7
-5 -5 7 25.3 1.9
4 5 -7 26.4 2
-4 -5 7 26 1.6
-4 -5 7 23.4 1.7
3 5 -7 -0.6 1
-3 -5 7 -0.7 0.7
-3 -5 7 -0.6 0.8
2 5 -7 12.8 1.5
-2 -5 7 9.7 1.1
-2 -5 7 12.1 1.5
1 5 -7 10.9 1.4
-1 -5 7 8.3 1.1
0 5 -7 180.18 5.8
0 -5 7 177.58 5.4
-1 5 -7 4.7 1.1
1 -5 7 7.6 1
-2 5 -7 1.5 0.8
-2 5 -7 1 0.8
2 -5 7 0.5 0.7
-3 5 -7 9.6 1.3
-3 5 -7 11.3 1.2
3 -5 7 8.4 1
-4 5 -7 124.29 4.2
-4 5 -7 122.59 4.1
4 -5 7 123.89 4
-5 5 -7 34.7 1.9
-5 5 -7 32.4 1.9
5 -5 7 36.9 1.8
-6 5 -7 9.9 1.3
-6 5 -7 11.5 1.5
6 -5 7 9.3 1.2
-7 5 -7 10.1 1.4
7 -5 7 10.6 1.3
-8 5 -7 4.4 1.3
8 -5 7 4.9 1
-9 5 -7 4.6 1.3
9 -5 7 5 1.1
-10 5 -7 -0.7 1.2
10 -5 7 1 1
-11 5 -7 128.79 5
11 -5 7 134.69 4.7
-9 -4 7 -0.4 1.5
8 4 -7 8.3 1.5
-8 -4 7 7.9 1.7
-7 -4 7 75.99 3.3
6 4 -7 5.1 1.2
-6 -4 7 4.3 1
-6 -4 7 7.2 1.3
5 4 -7 178.38 5.9
-5 -4 7 178.38 5.7
-5 -4 7 184.78 5.7
4 4 -7 4.2 1.2
-4 -4 7 5 0.9
-4 -4 7 4 1
3 4 -7 70.59 3
-3 -4 7 74.19 2.7
-3 -4 7 74.29 2.7
2 4 -7 13.7 1.5
-2 -4 7 14.9 1.1
-2 -4 7 14 1.2
1 4 -7 344.27 10.3
-1 -4 7 349.96 9.8
-1 -4 7 359.16 10
0 4 -7 259.37 8.3
0 4 -7 306.07 8
0 -4 7 269.57 8
-1 4 -7 30.4 1.4
-1 4 -7 28.7 1.7
1 -4 7 30.7 1.5
-2 4 -7 188.88 6.1
-2 4 -7 211.68 5.9
2 -4 7 192.08 5.9
-3 4 -7 550.24 15
-3 4 -7 531.75 15.2
3 -4 7 527.55 14.9
-4 4 -7 132.89 4.4
-4 4 -7 134.79 4.3
4 -4 7 129.79 4.2
-5 4 -7 140.19 4.5
-5 4 -7 135.99 4.5
5 -4 7 138.79 4.4
-6 4 -7 40.6 2.1
-6 4 -7 41.2 1.9
6 -4 7 35.5 1.8
-7 4 -7 21.8 1.5
-7 4 -7 22.9 1.8
7 -4 7 22.5 1.5
-8 4 -7 4.8 1.2
8 -4 7 5.3 1
-9 4 -7 30.6 2.2
9 -4 7 31.7 1.9
-10 4 -7 2.6 1.3
10 -4 7 2.3 1
-11 4 -7 46.5 2.8
11 -4 7 43.1 2.3
-12 4 -7 15.6 2.3
12 -4 7 16.1 1.8
9 3 -7 41.6 2.5
-9 -3 7 41.2 2.7
8 3 -7 -0.7 1
-8 -3 7 0.2 1.2
7 3 -7 134.89 4.8
-7 -3 7 147.99 4.9
6 3 -7 48.3 2.4
6 3 -7 44.4 2.2
-6 -3 7 43.4 2.3
-5 -3 7 268.97 8
-5 -3 7 274.97 8.1
4 3 -7 13.3 1.4
-4 -3 7 13.5 1.3
-4 -3 7 13.6 1.2
3 3 -7 54.09 2.4
-3 -3 7 55.39 2.1
-3 -3 7 54.89 2.2
2 3 -7 12.3 1.3
-2 -3 7 12.1 1
-2 -3 7 14.5 1.1
1 3 -7 282.77 8.5
1 3 -7 299.37 8.1
-1 -3 7 285.57 8.3
-1 -3 7 282.67 8.1
0 3 -7 27.9 1.6
0 3 -7 32.8 1.4
0 -3 7 28.1 1.2
0 -3 7 29.9 1.4
-1 3 -7 43.5 1.7
-1 3 -7 40.7 1.9
1 -3 7 39.6 1.7
-2 3 -7 69.99 2.4
-2 3 -7 66.89 2.6
2 -3 7 65.89 2.4
-3 3 -7 39.8 1.8
-3 3 -7 40.8 1.9
3 -3 7 39.3 1.7
-4 3 -7 79.39 2.9
-4 3 -7 80.69 2.9
4 -3 7 76.59 2.7
-5 3 -7 45.2 2
-5 3 -7 41.8 2
5 -3 7 43.7 1.9
-6 3 -7 277.67 8.1
-6 3 -7 276.87 8.2
6 -3 7 274.97 8.1
-7 3 -7 16 1.6
7 -3 7 17 1
7 -3 7 16.1 1.3
-8 3 -7 13.7 1.6
8 -3 7 12.8 1.3
-9 3 -7 56.29 2.7
9 -3 7 56.89 2.4
-10 3 -7 53.79 2.8
10 -3 7 50.89 2.4
-11 3 -7 17.1 2.2
11 -3 7 22.1 1.7
-12 3 -7 4.5 1.7
12 -3 7 3 1.2
10 2 -7 12 2.8
-10 -2 7 14.2 2.5
9 2 -7 9.6 1.5
-9 -2 7 14 1.8
8 2 -7 35.1 2.2
-8 -2 7 37.9 2.3
7 2 -7 94.99 3.6
-7 -2 7 99.49 3.7
6 2 -7 11.5 1.5
6 2 -7 12.5 1.4
-6 -2 7 12.9 1.4
5 2 -7 -0.7 0.7
5 2 -7 -0.2 0.9
-5 -2 7 1 0.8
4 2 -7 30.8 1.8
-4 -2 7 30.7 1.6
-4 -2 7 32.7 1.6
3 2 -7 6.7 1
-3 -2 7 8 1
-3 -2 7 8 0.9
2 2 -7 364.56 10.9
2 2 -7 395.26 10.6
-2 -2 7 381.96 10.6
-2 -2 7 378.26 10.7
1 2 -7 36.7 1.5
1 2 -7 34.4 1.7
-1 -2 7 35 1.5
-1 -2 7 34.4 1.3
0 2 -7 -0.1 0.7
0 2 -7 0.4 0.6
0 -2 7 0.2 0.5
-1 2 -7 6.6 1
-1 2 -7 6.9 0.9
1 -2 7 6 0.8
-2 2 -7 1.5 0.7
-2 2 -7 1.6 0.7
2 -2 7 1.5 0.6
-3 2 -7 41.5 1.8
-3 2 -7 39.6 1.8
3 -2 7 41.9 1.7
-4 2 -7 938.01 25.2
-4 2 -7 902.71 25.1
4 -2 7 908.81 25
-5 2 -7 44.3 2
-5 2 -7 48.7 2
5 -2 7 48.2 1.9
-6 2 -7 0.1 0.8
6 -2 7 -0.6 0.4
6 -2 7 0.5 0.7
-7 2 -7 67.89 2.8
7 -2 7 70.49 2.6
7 -2 7 71.49 2.4
-8 2 -7 2.2 1
8 -2 7 1.6 0.7
-9 2 -7 17.5 1.8
9 -2 7 20.4 1.5
-10 2 -7 3.4 1.3
10 -2 7 2.4 1
-11 2 -7 15.1 2
11 -2 7 15.1 1.6
-12 2 -7 11.1 1.8
12 -2 7 12.8 1.6
-13 2 -7 3.7 1.6
10 1 -7 2.1 1.3
-10 -1 7 1.4 1.4
9 1 -7 13.1 1.8
-9 -1 7 15.6 1.9
8 1 -7 1.9 1.1
-8 -1 7 1.6 1.1
7 1 -7 0.9 0.9
-7 -1 7 0.1 0.9
6 1 -7 122.89 4.2
-6 -1 7 129.99 4.3
5 1 -7 48.8 2.2
5 1 -7 53.39 2.3
-5 -1 7 54.69 2.2
4 1 -7 39.7 1.8
4 1 -7 41.9 1.9
-4 -1 7 41.2 1.8
-4 -1 7 36.5 1.5
3 1 -7 808.62 22.5
-3 -1 7 818.62 22.3
-3 -1 7 818.22 22.3
-3 -1 7 817.22 22.2
2 1 -7 298.07 8.9
2 1 -7 317.67 8.7
-2 -1 7 308.77 8.7
-2 -1 7 304.87 8.6
1 1 -7 534.85 15.3
1 1 -7 570.84 15.1
-1 -1 7 546.45 15
-1 -1 7 544.55 15.1
0 1 -7 81.39 2.9
0 1 -7 86.89 2.7
0 -1 7 84.99 2.7
0 -1 7 82.29 2.5
-1 1 -7 64.29 2.2
-1 1 -7 64.39 2.4
1 -1 7 64.69 2.2
-2 1 -7 143.19 4.5
-2 1 -7 145.69 4.4
2 -1 7 140.69 4.2
-3 1 -7 33.1 1.5
-3 1 -7 31.5 1.5
3 -1 7 28.5 1.3
-4 1 -7 9.6 1
-4 1 -7 11.3 1.1
4 -1 7 9.4 0.9
-5 1 -7 423.46 12.3
5 -1 7 445.26 12.1
5 -1 7 437.06 12.2
-6 1 -7 430.46 12.4
6 -1 7 440.26 12.1
6 -1 7 432.76 12.2
-7 1 -7 0 0.8
7 -1 7 0.7 0.7
7 -1 7 3 0.5
-8 1 -7 31.1 1.9
8 -1 7 31.7 1.6
-9 1 -7 5.8 1.2
9 -1 7 6.2 1
-10 1 -7 21.1 1.9
10 -1 7 20.3 1.5
-11 1 -7 19.8 1.9
11 -1 7 16.3 1.6
-12 1 -7 84.39 3.7
12 -1 7 82.19 3.4
-13 1 -7 40.7 2.8
13 -1 7 36.3 2.4
10 0 -7 19.9 1.9
-10 0 7 22 2.1
9 0 -7 51.89 2.6
-9 0 7 53.49 2.7
8 0 -7 59.19 2.6
-8 0 7 63.89 2.8
7 0 -7 3.7 1
-7 0 7 5.6 1.1
6 0 -7 43 2
-6 0 7 45.5 2.1
5 0 -7 21.9 1.4
5 0 -7 25.2 1.5
-5 0 7 20.8 1.2
-5 0 7 25.4 1.5
4 0 -7 7.3 1
4 0 -7 7.1 1.1
-4 0 7 6.3 0.9
-4 0 7 5.9 0.8
3 0 -7 594.24 16.4
3 0 -7 582.34 16.3
-3 0 7 596.04 16.2
-3 0 7 588.84 16.2
2 0 -7 85.79 3
2 0 -7 89.89 2.9
-2 0 7 87.39 2.8
-2 0 7 87.69 2.7
1 0 -7 13.8 1
1 0 -7 14 1.1
-1 0 7 14.5 0.8
-1 0 7 15.4 0.9
0 0 -7 1.9 0.7
0 0 -7 1.9 0.6
0 0 7 1.3 0.3
0 0 7 1.5 0.4
-1 0 -7 11.5 0.9
-1 0 -7 10.6 1
1 0 7 10.9 0.8
-2 0 -7 164.78 5
-2 0 -7 162.88 4.9
2 0 7 164.58 4.8
-3 0 -7 269.67 7.7
-3 0 -7 263.67 7.6
3 0 7 265.37 7.5
-4 0 -7 36.3 1.6
4 0 7 36.5 1.5
4 0 7 35.6 1.5
-5 0 -7 1.1 0.7
5 0 7 0.8 0.6
5 0 7 1 0.4
-6 0 -7 100.89 3.5
6 0 7 101.29 3.3
6 0 7 104.59 3.2
-7 0 -7 100.99 3.8
7 0 7 122.49 3.5
7 0 7 111.39 3.6
-8 0 -7 76.39 3
8 0 7 79.39 2.8
-9 0 -7 1.3 0.9
9 0 7 0.8 0.8
-10 0 -7 2.9 1.1
10 0 7 3.2 0.9
-11 0 -7 -0.7 1
11 0 7 1.2 1
-12 0 -7 28.3 2.3
12 0 7 27 2
-13 0 -7 43.1 2.8
13 0 7 41.9 2.5
11 -1 -7 4.5 1.5
10 -1 -7 31 2.1
-10 1 7 32.1 2.3
9 -1 -7 10.6 1.4
-9 1 7 12.2 1.5
8 -1 -7 26.9 1.8
-8 1 7 28.6 1.9
7 -1 -7 125.69 4.3
-7 1 7 132.39 4.4
6 -1 -7 19.2 1.4
-6 1 7 16.6 1.4
-6 1 7 16.1 1.2
5 -1 -7 6.7 0.9
5 -1 -7 5.9 0.9
-5 1 7 4.1 0.8
-5 1 7 5.3 0.8
4 -1 -7 50.79 2
4 -1 -7 52.29 2
-4 1 7 47.6 1.9
-4 1 7 51.29 2
3 -1 -7 144.79 4.4
3 -1 -7 144.59 4.3
-3 1 7 140.29 4.3
-3 1 7 137.59 4.3
2 -1 -7 69.19 2.5
2 -1 -7 68.69 2.4
-2 1 7 69.39 2.2
1 -1 -7 92.89 3
1 -1 -7 95.79 2.9
1 -1 -7 100.29 3.2
-1 1 7 92.59 2.9
0 -1 -7 12.4 1
0 -1 -7 11 0.9
0 -1 -7 11.5 0.7
0 1 7 11 0.7
-1 -1 -7 1030.8 27.5
-1 -1 -7 1008.1 27.4
1 1 7 984.6 27.2
-2 -1 -7 79.29 2.6
2 1 7 76.19 2.4
2 1 7 75.59 2.5
-3 -1 -7 82.29 2.8
3 1 7 82.49 2.6
3 1 7 82.29 2.7
-4 -1 -7 403.06 11.4
4 1 7 412.86 11.4
4 1 7 405.76 11.3
-5 -1 -7 19.2 1.3
5 1 7 19.1 1.1
5 1 7 19.9 1
-6 -1 -7 69.29 2.6
-6 -1 -7 68.59 2.2
6 1 7 72.79 2.4
6 1 7 68.79 2.4
-7 -1 -7 295.97 8.7
7 1 7 304.77 8.5
7 1 7 294.87 8.5
-8 -1 -7 28.9 1.8
8 1 7 30.3 1.5
-9 -1 -7 47.2 2.2
9 1 7 42.7 2
-10 -1 -7 18 1.7
10 1 7 17.2 1.4
-11 -1 -7 11.7 1.7
11 1 7 12.8 1.5
-12 -1 -7 6.6 1.5
12 1 7 8.2 1.4
-13 -1 -7 26.7 2.3
13 1 7 21.2 2
11 -2 -7 1.3 1.2
10 -2 -7 0.5 1.2
-10 2 7 0.8 1.1
9 -2 -7 13.7 1.6
-9 2 7 12.4 1.6
8 -2 -7 36.8 2
-8 2 7 32.8 1.9
-8 2 7 36.4 2
7 -2 -7 26.9 1.7
-7 2 7 30.4 1.6
-7 2 7 28.1 1.7
6 -2 -7 60.09 2.3
-6 2 7 60.69 2.3
-6 2 7 60.09 2.4
5 -2 -7 59.89 2.2
-5 2 7 60.49 2.2
-5 2 7 54.59 2
-5 2 7 57.59 2.3
4 -2 -7 157.98 4.8
4 -2 -7 155.98 4.9
-4 2 7 163.78 4.9
-4 2 7 168.08 4.8
3 -2 -7 64.29 2.2
3 -2 -7 61.99 2.2
-3 2 7 64.89 2.1
-3 2 7 64.79 2.2
2 -2 -7 553.44 15.4
2 -2 -7 561.24 15.5
-2 2 7 565.04 15.4
1 -2 -7 137.49 4
1 -2 -7 135.79 4.2
-1 2 7 139.29 4.1
-1 2 7 138.79 4
0 -2 -7 2.1 0.4
0 -2 -7 1.7 0.5
0 2 7 1.8 0.4
0 2 7 1.3 0.4
-1 -2 -7 16.4 0.7
-1 -2 -7 15.7 1
1 2 7 14.6 0.9
1 2 7 16.3 0.8
-2 -2 -7 305.37 8.4
2 2 7 283.57 8.3
2 2 7 298.57 8.2
-3 -2 -7 10.5 0.9
3 2 7 9.6 0.7
3 2 7 10.1 0.7
-4 -2 -7 356.66 9.9
4 2 7 350.56 9.7
4 2 7 343.07 9.8
-5 -2 -7 32.6 1.6
-5 -2 -7 33 1.2
5 2 7 33.5 1.4
5 2 7 35.1 1.4
-6 -2 -7 40.6 1.8
-6 -2 -7 41.8 1.6
6 2 7 39.8 1.7
6 2 7 42.3 1.6
-7 -2 -7 93.19 3.3
-7 -2 -7 98.19 3.1
7 2 7 95.09 3.1
7 2 7 95.79 3.1
-8 -2 -7 26.3 1.7
-8 -2 -7 30.1 1.5
8 2 7 24.9 1.4
8 2 7 28.9 1.5
-9 -2 -7 97.79 3.5
9 2 7 91.19 3.3
-10 -2 -7 12.6 1.6
10 2 7 10.6 1.3
-11 -2 -7 9.1 1.4
11 2 7 9.4 1.3
-12 -2 -7 22.4 2
12 2 7 19.5 1.8
-13 -2 -7 6.5 1.5
13 2 7 8.5 1.5
11 -3 -7 0.1 1.2
10 -3 -7 34.9 2.1
-10 3 7 36.9 2.3
9 -3 -7 64.99 2.7
-9 3 7 66.99 2.9
-9 3 7 65.49 2.9
8 -3 -7 23.6 1.5
-8 3 7 21.3 1.6
-8 3 7 22.2 1.7
7 -3 -7 7.7 1
-7 3 7 8.6 1.2
-7 3 7 7.8 1.1
6 -3 -7 310.07 8.9
6 -3 -7 301.57 9.1
-6 3 7 316.77 9
5 -3 -7 65.89 2.5
5 -3 -7 68.99 2.4
-5 3 7 69.19 2.5
-5 3 7 68.19 2.2
4 -3 -7 134.99 4
4 -3 -7 125.19 4.1
-4 3 7 133.89 3.9
-4 3 7 132.79 4.1
3 -3 -7 148.89 4.3
3 -3 -7 140.49 4.5
-3 3 7 149.09 4.5
-3 3 7 155.68 4.4
2 -3 -7 3.4 0.5
2 -3 -7 3.6 0.6
2 -3 -7 4.1 0.7
-2 3 7 3.3 0.5
1 -3 -7 547.75 15.3
1 -3 -7 554.94 15.4
-1 3 7 571.04 15.4
-1 3 7 560.84 15.2
0 -3 -7 28.5 1.3
0 -3 -7 28.2 1.1
0 3 7 27.9 1.2
0 3 7 27.1 1
-1 -3 -7 -0.1 0.5
-1 -3 -7 0.1 0.3
1 3 7 0.6 0.3
1 3 7 -0.1 0.3
-2 -3 -7 157.98 4.4
-2 -3 -7 151.68 4.6
2 3 7 147.89 4.6
2 3 7 159.28 4.4
-3 -3 -7 219.68 6.2
-3 -3 -7 220.28 6.5
3 3 7 231.08 6.2
3 3 7 222.98 6.4
-4 -3 -7 194.18 5.6
-4 -3 -7 183.48 5.3
4 3 7 187.08 5.6
4 3 7 193.68 5.4
-5 -3 -7 101.19 3.1
-5 -3 -7 102.49 3.3
5 3 7 101.09 3.3
5 3 7 101.69 3.1
-6 -3 -7 4.5 0.8
-6 -3 -7 4.5 0.9
6 3 7 3.7 0.6
6 3 7 4.3 0.7
-7 -3 -7 6.1 0.9
-7 -3 -7 4.5 0.9
7 3 7 3.8 0.8
7 3 7 6.3 0.8
-8 -3 -7 1.4 0.9
-8 -3 -7 1.5 0.9
8 3 7 0.7 0.7
8 3 7 1.3 0.7
-9 -3 -7 125.99 4.2
-9 -3 -7 125.79 4.1
9 3 7 125.39 4.1
-10 -3 -7 0.6 1
-10 -3 -7 1 1
10 3 7 3 0.9
-11 -3 -7 -0.3 1
11 3 7 -0.1 0.9
-12 -3 -7 26.1 2.1
12 3 7 26.3 2
13 3 7 23.7 2.1
-11 4 7 2.4 1.7
10 -4 -7 -1.2 0.8
-10 4 7 0.4 1.3
-10 4 7 -0.2 1.1
9 -4 -7 0.9 0.8
-9 4 7 -0.8 1.1
-9 4 7 0.9 1.1
8 -4 -7 91.89 3.2
-8 4 7 90.29 3.5
-8 4 7 95.39 3.5
7 -4 -7 8.8 1.2
7 -4 -7 7.4 1
-7 4 7 9.6 1.2
6 -4 -7 0 0.8
6 -4 -7 -0.3 0.5
-6 4 7 -0.9 0.8
5 -4 -7 42.7 1.6
5 -4 -7 36.8 1.8
-5 4 7 42.4 1.9
4 -4 -7 21.8 1.1
4 -4 -7 20.1 1.3
-4 4 7 23.4 1
-4 4 7 21.1 1.3
3 -4 -7 335.37 9.1
3 -4 -7 317.17 9.3
-3 4 7 327.87 9.2
-3 4 7 338.17 9.4
2 -4 -7 5.8 0.7
2 -4 -7 5.6 0.6
2 -4 -7 5.5 0.8
-2 4 7 3.4 0.5
1 -4 -7 7.5 0.8
1 -4 -7 6.4 0.7
-1 4 7 7.4 0.5
-1 4 7 8.5 0.7
0 -4 -7 815.52 21.9
0 -4 -7 831.22 22
0 4 7 767.52 21.9
-1 -4 -7 77.19 2.6
-1 -4 -7 83.79 2.5
1 4 7 82.59 2.6
-2 -4 -7 8.8 0.7
-2 -4 -7 8.1 0.8
2 4 7 9.7 0.8
2 4 7 9.8 0.5
-3 -4 -7 770.32 21.2
-3 -4 -7 784.12 21.4
3 4 7 762.32 21.4
3 4 7 806.02 21.1
-4 -4 -7 695.13 19.4
-4 -4 -7 692.63 19.2
4 4 7 717.43 19.5
4 4 7 726.33 19.2
-5 -4 -7 0.8 0.6
-5 -4 -7 0.4 0.6
5 4 7 0.6 0.6
5 4 7 0.3 0.5
-6 -4 -7 15.4 1.2
-6 -4 -7 14.3 1.2
6 4 7 16.3 1
6 4 7 15.2 1.1
-7 -4 -7 67.09 2.5
-7 -4 -7 67.69 2.6
7 4 7 70.29 2.5
7 4 7 68.59 2.4
-8 -4 -7 25.3 1.6
-8 -4 -7 24.9 1.5
8 4 7 21.7 1.4
8 4 7 23.1 1.4
-9 -4 -7 9.2 1.3
-9 -4 -7 8.3 1.2
9 4 7 6.8 1
-10 -4 -7 111.39 3.9
-10 -4 -7 112.49 4
10 4 7 113.19 3.9
-11 -4 -7 21.1 1.9
-11 -4 -7 25.8 1.9
11 4 7 26.9 1.8
12 4 7 -0.5 1.2
13 4 7 9.2 1.6
-11 5 7 -0.3 1.5
-10 5 7 1.5 1.5
-10 5 7 1.4 1.2
-9 5 7 0 1.2
-9 5 7 0.9 1
8 -5 -7 54.09 2.5
8 -5 -7 50.49 2.2
-8 5 7 49.3 2.5
7 -5 -7 50.19 2.3
7 -5 -7 51.29 2
-7 5 7 51.29 2.4
6 -5 -7 33.4 1.5
6 -5 -7 32.2 1.8
-6 5 7 32.5 1.9
5 -5 -7 295.97 9
5 -5 -7 320.17 8.7
-5 5 7 312.87 9
4 -5 -7 182.68 5.6
4 -5 -7 198.58 5.4
-4 5 7 179.18 5.4
-4 5 7 188.28 5.7
3 -5 -7 113.59 3.1
3 -5 -7 103.39 3.4
-3 5 7 107.09 3.5
-3 5 7 102.09 3.3
2 -5 -7 5.1 0.7
-2 5 7 5.7 0.8
-2 5 7 4.9 0.7
1 -5 -7 106.59 3.3
1 -5 -7 106.39 3.4
-1 5 7 105.99 3.3
0 -5 -7 98.09 3.1
0 -5 -7 100.99 3.2
0 5 7 103.49 3.2
-1 -5 -7 66.29 2.2
-1 -5 -7 62.59 2.2
1 5 7 65.49 2.3
-2 -5 -7 186.18 5.6
-2 -5 -7 196.38 5.5
2 5 7 194.58 5.7
-3 -5 -7 7.7 0.8
-3 -5 -7 9 0.7
3 5 7 9.4 0.9
3 5 7 9.6 0.6
-4 -5 -7 67.09 2.3
-4 -5 -7 64.99 2.2
4 5 7 66.19 2.4
4 5 7 68.39 2.1
-5 -5 -7 165.88 5
-5 -5 -7 167.18 5.1
5 5 7 166.98 5.1
5 5 7 175.18 4.9
-6 -5 -7 55.29 2.2
-6 -5 -7 55.69 2.1
6 5 7 53.69 2
6 5 7 56.09 2.2
-7 -5 -7 120.39 3.9
-7 -5 -7 125.39 4
7 5 7 124.59 3.8
7 5 7 119.29 3.9
-8 -5 -7 13 1.3
-8 -5 -7 11.7 1.5
8 5 7 11.6 1.2
8 5 7 10.2 1.3
-9 -5 -7 10.4 1.3
-9 -5 -7 10.3 1.3
9 5 7 11.5 1.2
-10 -5 -7 11.5 1.4
-10 -5 -7 9.4 1.4
10 5 7 9.7 1.3
-11 -5 -7 -0.6 1.2
11 5 7 -0.4 1.1
12 5 7 51.19 2.6
13 5 7 -0.8 1.4
-11 6 7 4.9 1.7
-10 6 7 62.79 3.3
-10 6 7 60.79 3
9 -6 -7 2.6 1.2
-9 6 7 0.8 1.3
8 -6 -7 1.1 1
-8 6 7 0.3 1
7 -6 -7 85.19 3.3
-7 6 7 92.19 3.4
6 -6 -7 88.59 3.3
-6 6 7 91.29 3.4
5 -6 -7 31.3 1.5
5 -6 -7 25.7 1.6
-5 6 7 28.4 1.7
4 -6 -7 -0.2 0.7
4 -6 -7 0.8 0.5
-4 6 7 0.5 0.5
-4 6 7 1.1 0.8
3 -6 -7 52.69 2.1
-3 6 7 54.89 2.1
-3 6 7 52.59 1.9
2 -6 -7 6.2 0.8
-2 6 7 6.2 0.8
-2 6 7 5.9 0.8
1 -6 -7 202.28 6
1 -6 -7 198.18 5.9
-1 6 7 202.28 5.9
0 -6 -7 166.98 5.1
0 -6 -7 170.28 5
0 6 7 170.08 5
-1 -6 -7 0.5 0.5
-1 -6 -7 0.4 0.5
1 6 7 0.5 0.5
-2 -6 -7 396.46 11
-2 -6 -7 399.16 11.1
2 6 7 396.56 11.2
-3 -6 -7 20.4 1.1
-3 -6 -7 20.8 1.1
3 6 7 21.8 1.3
-4 -6 -7 5.8 0.7
-4 -6 -7 4.9 0.7
4 6 7 4.1 0.5
4 6 7 5.3 0.8
-5 -6 -7 548.75 15
-5 -6 -7 529.05 15
5 6 7 548.95 15.1
5 6 7 537.75 14.8
-6 -6 -7 162.78 5
-6 -6 -7 165.28 5
6 6 7 169.18 4.8
6 6 7 158.98 5.1
-7 -6 -7 1.7 0.7
-7 -6 -7 2 0.9
7 6 7 1.8 0.7
7 6 7 1.2 0.9
-8 -6 -7 78.59 2.9
-8 -6 -7 80.29 3
8 6 7 81.09 2.8
8 6 7 77.39 3
-9 -6 -7 6.9 1.2
9 6 7 7.9 1.1
-10 -6 -7 1.1 1.2
10 6 7 1.7 1
-11 -6 -7 0.1 1.3
11 6 7 1.4 1.1
-12 -6 -7 1 1.4
12 6 7 3 1.3
-11 7 7 15.5 2.5
10 -7 -7 1.9 1.2
-10 7 7 3.1 1.7
9 -7 -7 2.6 1.2
-9 7 7 1.3 1.4
8 -7 -7 63.09 2.8
-8 7 7 67.99 3.1
7 -7 -7 17.8 1.6
-7 7 7 19.6 1.8
6 -7 -7 21.5 1.5
-6 7 7 19.1 1.6
5 -7 -7 20.4 1.5
-5 7 7 22.2 1.6
4 -7 -7 535.05 14.9
-4 7 7 524.75 14.9
-4 7 7 528.75 14.6
3 -7 -7 628.54 17.4
-3 7 7 622.94 17.4
-3 7 7 629.64 17.3
2 -7 -7 189.28 5.7
-2 7 7 187.38 5.6
-2 7 7 188.18 5.6
1 -7 -7 72.19 2.5
-1 7 7 69.19 2.5
-1 7 7 76.09 2.5
0 -7 -7 11.9 1
0 -7 -7 13.5 1
0 7 7 12.8 1
-1 -7 -7 33.2 1.5
-1 -7 -7 31.9 1.4
1 7 7 33.5 1.6
-2 -7 -7 1.4 0.6
-2 -7 -7 1.8 0.6
2 7 7 2.2 0.7
-3 -7 -7 39.7 1.6
-3 -7 -7 39.5 1.6
3 7 7 36.8 1.7
-4 -7 -7 36.5 1.7
-4 -7 -7 43 1.7
4 7 7 40.6 1.9
4 7 7 40.5 1.4
-5 -7 -7 37.3 1.6
-5 -7 -7 36.8 1.8
5 7 7 38.5 1.8
5 7 7 36.7 1.4
-6 -7 -7 200.68 5.8
-6 -7 -7 192.28 5.9
6 7 7 197.78 5.7
6 7 7 192.38 6
-7 -7 -7 173.78 5.2
-7 -7 -7 170.28 5.3
7 7 7 168.98 5.4
7 7 7 169.68 5.1
-8 -7 -7 -0.2 1
8 7 7 1.4 0.8
8 7 7 0.9 0.9
-9 -7 -7 32.7 2.1
9 7 7 35.4 1.8
9 7 7 31 2.2
-10 -7 -7 18 2
10 7 7 17 1.6
-11 -7 -7 -1 1.3
11 7 7 0.4 1.1
-12 -7 -7 11.3 1.8
12 7 7 13.8 1.9
10 -8 -7 7.3 1.6
-10 8 7 8.8 2
9 -8 -7 20.6 1.9
-9 8 7 17.3 2.3
8 -8 -7 7.5 1.3
-8 8 7 3.8 1.3
7 -8 -7 -0.8 0.9
-7 8 7 0.5 0.9
6 -8 -7 1.9 0.9
-6 8 7 1 1
5 -8 -7 187.48 5.9
-5 8 7 192.88 6
4 -8 -7 21.8 1.5
-4 8 7 22.2 1.3
-4 8 7 24.2 1.6
3 -8 -7 49.99 2.2
-3 8 7 54.59 2.2
-3 8 7 53.89 2.1
2 -8 -7 396.26 11.2
-2 8 7 386.66 11.1
-2 8 7 392.06 11
1 -8 -7 130.29 4.1
-1 8 7 127.89 4.1
-1 8 7 131.09 4.1
0 -8 -7 213.98 6.2
0 8 7 205.98 6.2
0 8 7 210.08 6.2
-1 -8 -7 3.5 0.7
-1 -8 -7 2.5 0.6
1 8 7 1.5 0.7
-2 -8 -7 7.9 0.8
-2 -8 -7 6.5 0.9
2 8 7 9 1.1
-3 -8 -7 71.59 2.5
-3 -8 -7 69.99 2.5
3 8 7 72.79 2.7
-4 -8 -7 11.9 1.1
-4 -8 -7 12.5 1
4 8 7 11.7 1.3
-5 -8 -7 2 0.8
-5 -8 -7 1.4 0.6
5 8 7 2 0.9
5 8 7 2.3 0.6
-6 -8 -7 25 1.6
-6 -8 -7 24.3 1.3
6 8 7 23 1.7
6 8 7 27.1 1.3
-7 -8 -7 124.19 4.2
7 8 7 124.09 3.9
7 8 7 120.29 4.2
-8 -8 -7 44.5 2.3
8 8 7 46.2 2
8 8 7 44.8 2.3
-9 -8 -7 91.59 3.6
9 8 7 92.39 3.5
9 8 7 96.69 3.3
-10 -8 -7 53.99 2.8
10 8 7 58.69 2.6
-11 -8 -7 4.1 1.5
11 8 7 6.2 1.4
-12 -8 -7 5.3 1.6
12 8 7 5 1.5
10 -9 -7 16.8 2.1
-10 9 7 14.2 2.3
9 -9 -7 91.19 3.7
-9 9 7 84.79 4
8 -9 -7 11.9 1.7
-8 9 7 10.1 1.7
7 -9 -7 23.9 1.8
-7 9 7 23.4 1.9
6 -9 -7 2.2 1
-6 9 7 1.1 1
5 -9 -7 17.5 1.5
-5 9 7 17.6 1.6
4 -9 -7 36.6 1.9
-4 9 7 36.6 1.7
-4 9 7 33.5 1.9
3 -9 -7 404.46 11.5
-3 9 7 395.36 11.5
-3 9 7 400.56 11.3
2 -9 -7 271.57 7.9
-2 9 7 264.87 7.8
-2 9 7 261.57 7.8
1 -9 -7 34.5 1.7
-1 9 7 35.7 1.8
-1 9 7 36.6 1.7
0 -9 -7 23.4 1.4
0 9 7 23.1 1.5
0 9 7 23.7 1.4
-1 -9 -7 64.09 2.5
1 9 7 66.39 2.4
1 9 7 66.89 2.6
-2 -9 -7 342.07 9.5
-2 -9 -7 330.57 9.6
2 9 7 330.87 9.7
-3 -9 -7 1.3 0.7
-3 -9 -7 2.2 0.6
3 9 7 2.1 0.9
-4 -9 -7 56.69 2.3
-4 -9 -7 62.99 2.2
4 9 7 59.89 2.6
-5 -9 -7 18.5 1.4
5 9 7 16.5 1.5
-6 -9 -7 2.7 1
6 9 7 1.3 1
-7 -9 -7 3.7 1
7 9 7 4.3 1.1
-8 -9 -7 -0.3 1
8 9 7 -1 1
-9 -9 -7 -0.1 1.2
9 9 7 0.1 1
-10 -9 -7 0.6 1.3
-11 -9 -7 -1 1.4
9 -10 -7 7.6 1.5
-9 10 7 6.9 1.8
8 -10 -7 14.2 1.8
-8 10 7 11.7 1.8
7 -10 -7 10.6 1.5
-7 10 7 5.5 1.4
6 -10 -7 14.4 1.6
-6 10 7 15 1.7
5 -10 -7 162.78 5.4
-5 10 7 165.18 5.4
4 -10 -7 82.59 3.2
-4 10 7 85.19 3.2
3 -10 -7 48.9 2.2
-3 10 7 51.19 2.2
-3 10 7 51.59 2.3
2 -10 -7 0.2 0.7
-2 10 7 0.5 0.7
-2 10 7 -0.4 0.8
1 -10 -7 188.18 5.9
-1 10 7 194.58 5.9
-1 10 7 198.58 6
0 -10 -7 269.37 8.2
0 10 7 285.07 8.1
0 10 7 279.07 8.3
-1 -10 -7 3.3 0.8
1 10 7 2.8 0.8
1 10 7 2.9 1
-2 -10 -7 1.3 0.8
2 10 7 0.2 0.6
2 10 7 -1.7 0.8
-3 -10 -7 65.09 2.5
-3 -10 -7 63.19 2.3
3 10 7 62.99 2.7
-4 -10 -7 10.8 1.2
4 10 7 10.8 1.4
-5 -10 -7 157.58 5.1
5 10 7 159.78 5.3
-6 -10 -7 -0.5 0.8
6 10 7 -0.2 1
-7 -10 -7 5.3 1.2
7 10 7 2.8 1.2
-8 -10 -7 6.1 1.2
8 10 7 7.3 1.4
-9 -10 -7 2.2 1.2
9 10 7 -1.6 1
-10 -10 -7 7.5 1.6
-11 -10 -7 2.9 1.6
9 -11 -7 0.3 1.4
-9 11 7 -0.9 1.6
8 -11 -7 110.99 4.3
-8 11 7 104.99 4.5
7 -11 -7 31.9 2.2
-7 11 7 28.6 2.4
6 -11 -7 0.3 1
-6 11 7 0.7 1.1
5 -11 -7 318.97 9.6
-5 11 7 319.47 9.6
4 -11 -7 11.7 1.5
-4 11 7 12.3 1.6
3 -11 -7 2.7 1
-3 11 7 1.9 0.9
-3 11 7 1.9 1
2 -11 -7 7.1 1.1
-2 11 7 4.2 1
-2 11 7 6.2 1.1
1 -11 -7 1.9 0.8
-1 11 7 0.4 1
-1 11 7 0.7 0.8
0 -11 -7 87.89 3.3
0 11 7 89.79 3.4
0 11 7 92.39 3.1
-1 -11 -7 0.1 0.7
1 11 7 -0.4 0.8
1 11 7 1.2 1
-2 -11 -7 23 1.5
2 11 7 21 1.7
2 11 7 23.6 1.3
-3 -11 -7 56.49 2.4
3 11 7 52.99 2.6
-4 -11 -7 165.78 5.3
4 11 7 161.98 5.5
-5 -11 -7 21.6 1.7
5 11 7 18.9 1.8
-6 -11 -7 24.2 1.8
6 11 7 22.6 1.9
-7 -11 -7 15.4 1.7
7 11 7 12.7 1.8
-8 -11 -7 3.6 1.2
8 11 7 2.4 1.3
-9 -11 -7 29.5 2.2
-10 -11 -7 2.1 1.3
8 -12 -7 0.4 1.4
-8 12 7 1 1.6
7 -12 -7 5.8 1.4
-7 12 7 3.9 1.6
6 -12 -7 1.2 1.2
-6 12 7 1.5 1.3
5 -12 -7 26.1 2
-5 12 7 25 2
4 -12 -7 24.5 1.8
-4 12 7 23.7 2
3 -12 -7 5.7 1.1
-3 12 7 5 1.2
-3 12 7 4.5 1.1
2 -12 -7 12.9 1.4
-2 12 7 14.6 1.6
-2 12 7 13.4 1.5
1 -12 -7 56.19 2.6
-1 12 7 63.49 2.5
-1 12 7 61.89 2.7
0 -12 -7 30.2 1.8
0 12 7 30.1 2
0 12 7 30.7 1.7
-1 -12 -7 79.09 3
1 12 7 76.49 3.2
-2 -12 -7 69.99 2.8
2 12 7 71.29 3.1
-3 -12 -7 0.2 0.9
3 12 7 -0.6 1
-4 -12 -7 1.1 0.9
4 12 7 1.4 1.1
-5 -12 -7 7.2 1.2
5 12 7 6.2 1.3
-6 -12 -7 1.7 1.1
6 12 7 1.2 1.2
-7 -12 -7 2 1.1
7 12 7 -0.4 1.2
-8 -12 -7 0.5 1.1
8 12 7 0.2 1.2
-9 -12 -7 8.2 1.5
9 12 7 13.6 1.9
7 -13 -7 215.48 7.1
-7 13 7 202.38 7.1
6 -13 -7 20.7 2
-6 13 7 11.2 1.8
5 -13 -7 39.8 2.4
-5 13 7 38.9 2.5
4 -13 -7 56.09 2.8
-4 13 7 59.29 2.8
3 -13 -7 20.2 1.7
-3 13 7 22.6 2
-3 13 7 21.5 1.8
2 -13 -7 64.79 2.8
-2 13 7 64.19 2.8
-2 13 7 65.09 2.9
1 -13 -7 18.4 1.6
-1 13 7 21.4 1.9
-1 13 7 21 1.7
0 -13 -7 6.9 1.2
0 13 7 8.4 1.4
-1 -13 -7 1.6 1
1 13 7 2.7 1.2
-2 -13 -7 1.5 0.9
2 13 7 0.8 1.1
-3 -13 -7 3.1 1
3 13 7 2.6 1.3
-4 -13 -7 4.2 1.1
4 13 7 4.1 1.4
-5 -13 -7 97.69 3.7
5 13 7 92.59 4
-6 -13 -7 44.8 2.4
6 13 7 42.2 2.8
-7 -13 -7 7.2 1.4
7 13 7 5.7 1.5
-8 -13 -7 25.4 2.1
8 13 7 23.1 2.3
9 13 7 4.4 2.4
6 -14 -7 6.6 1.7
-6 14 7 3.6 1.6
5 -14 -7 65.69 3.2
-5 14 7 61.39 3.2
4 -14 -7 0.2 1.1
-4 14 7 -0.8 1.2
3 -14 -7 164.78 5.5
-3 14 7 148.49 6.2
2 -14 -7 26.5 2
-2 14 7 25.8 2
1 -14 -7 5.8 1.2
-1 14 7 6.1 1.5
0 -14 -7 29.5 2
0 14 7 29.9 2.2
-1 -14 -7 1.3 1
1 14 7 0.1 1.2
-2 -14 -7 12.2 1.6
2 14 7 12.8 2
-3 -14 -7 77.99 3.2
3 14 7 69.09 3.5
-4 -14 -7 8.8 1.4
4 14 7 7.7 1.7
-5 -14 -7 76.59 3.3
5 14 7 69.99 3.6
-6 -14 -7 3.4 1.2
6 14 7 0.5 1.2
-7 -14 -7 7 2.2
7 14 7 7.8 1.7
5 -15 -7 42.6 2.7
-5 15 7 39 2.8
4 -15 -7 -0.4 1.2
-4 15 7 -0.7 1.4
3 -15 -7 15 1.9
2 -15 -7 53.99 2.8
-2 15 7 48 2.8
1 -15 -7 27.9 2.1
-1 15 7 26.5 2.3
0 -15 -7 34.4 2.2
0 15 7 24.2 2.3
-1 -15 -7 9.5 1.5
1 15 7 4.3 1.5
-2 -15 -7 8.4 1.4
2 15 7 5.7 1.5
-3 -15 -7 21.2 1.9
3 15 7 17.4 2.2
-4 -15 -7 19.5 2
4 15 7 16.7 2.2
-5 -15 -7 1.6 1.2
5 15 7 0.7 1.4
3 -16 -7 64.89 4.6
2 -16 -7 22.4 2.1
-2 16 7 24.5 2.4
1 -16 -7 1.5 1.2
-1 16 7 1.5 1.4
0 -16 -7 1.1 1.3
0 16 7 0.3 1.5
-1 -16 -7 5.9 1.4
1 16 7 5.9 1.7
-2 -16 -7 -0.6 1.1
2 16 7 -1.2 1.4
0 10 -8 24.1 3.6
0 -10 8 23.2 1.9
-1 10 -8 3.3 1.5
1 -10 8 7.2 1.2
-2 10 -8 7.3 1.8
2 -10 8 10.1 1.3
-3 10 -8 -1.1 1.5
3 -10 8 0.1 1
-4 10 -8 1.6 1.7
4 -10 8 0.2 1
-5 10 -8 2.9 1.7
5 -10 8 2.2 1.1
3 9 -8 2.6 2.7
2 9 -8 9.6 1.9
-2 -9 8 9.5 1.4
1 9 -8 46 3.1
-1 -9 8 52.99 2.5
0 9 -8 11.5 2
0 -9 8 14.2 1.5
-1 9 -8 -1.7 1.5
1 -9 8 0.4 1
-2 9 -8 1.2 1.4
2 -9 8 -1.3 0.9
-3 9 -8 56.19 3.2
3 -9 8 56.19 2.6
-4 9 -8 18.6 2.2
4 -9 8 18.9 1.7
-5 9 -8 10.3 1.8
5 -9 8 9.6 1.4
6 -9 8 67.69 3
7 -9 8 6.9 1.3
5 8 -8 5.6 1.9
4 8 -8 12.6 2
-4 -8 8 14.8 1.6
3 8 -8 -1.3 1.5
-3 -8 8 -0.4 0.9
2 8 -8 48.4 3
-2 -8 8 50.79 2.4
1 8 -8 8.2 1.7
-1 -8 8 6.5 1.2
0 8 -8 -1.9 1.4
0 -8 8 -1.1 0.9
-1 8 -8 0.2 1.4
1 -8 8 2 0.9
-2 8 -8 1.8 1.3
2 -8 8 1.7 0.9
-3 8 -8 5.8 1.4
3 -8 8 8.1 1.2
-4 8 -8 51.49 2.9
4 -8 8 55.79 2.5
-5 8 -8 24.3 2.2
5 -8 8 23.4 1.8
-6 8 -8 6.4 1.6
6 -8 8 8 1.3
-7 8 -8 129.49 4.7
7 -8 8 122.79 4.5
-8 8 -8 0 1.3
8 -8 8 2.1 1.1
-9 8 -8 20.3 2.3
9 -8 8 19.4 2.3
6 7 -8 0 1.4
5 7 -8 15.1 2
-5 -7 8 14.1 1.6
4 7 -8 3 1.3
-4 -7 8 1 1
3 7 -8 143.49 5.5
-3 -7 8 145.09 4.9
2 7 -8 39.1 2.7
-2 -7 8 36.1 2
1 7 -8 12.4 1.8
-1 -7 8 11.9 1.4
0 7 -8 2.9 1.4
0 -7 8 1.1 0.9
-1 7 -8 98.39 4.1
1 -7 8 107.39 3.7
-2 7 -8 83.59 3.5
2 -7 8 82.39 3.1
-3 7 -8 0.9 1.2
3 -7 8 0.7 0.9
-4 7 -8 80.69 3.5
4 -7 8 82.89 3.1
-5 7 -8 2.7 1.2
-5 7 -8 4.4 1.2
5 -7 8 3.1 1
-6 7 -8 52.59 2.8
-6 7 -8 56.69 2.7
6 -7 8 52.99 2.5
-7 7 -8 5 1.4
7 -7 8 6.9 1.2
-8 7 -8 14.1 2
8 -7 8 10.3 1.4
-9 7 -8 5.5 1.5
9 -7 8 4 1.2
-10 7 -8 24.7 2.4
10 -7 8 25.7 2.4
6 6 -8 21.4 2.2
-6 -6 8 23.7 1.9
5 6 -8 15.4 1.9
-5 -6 8 13.5 1.6
4 6 -8 24.9 2.2
-4 -6 8 29.8 1.8
3 6 -8 105.49 4.3
-3 -6 8 112.59 3.9
2 6 -8 1.9 1.3
-2 -6 8 3.1 0.9
1 6 -8 46.3 2.7
-1 -6 8 44.2 2.1
0 6 -8 41.9 2.4
0 -6 8 51.99 2.2
-1 6 -8 1.3 1
1 -6 8 2.2 0.8
-2 6 -8 -0.9 1
2 -6 8 0.9 0.8
-3 6 -8 211.08 6.9
3 -6 8 221.58 6.6
-4 6 -8 72.79 2.8
-4 6 -8 63.29 3
4 -6 8 67.39 2.7
-5 6 -8 43 2.3
-5 6 -8 42.4 2.2
5 -6 8 37.8 2
-6 6 -8 21.3 1.9
-6 6 -8 21.8 1.9
6 -6 8 23.6 1.6
-7 6 -8 1.8 1.2
7 -6 8 1.5 0.9
-8 6 -8 143.99 5.1
8 -6 8 136.99 4.8
-9 6 -8 5.3 1.4
9 -6 8 4.6 1.2
-10 6 -8 8.4 1.7
10 -6 8 9.1 1.4
-8 -5 8 14.7 2
-7 -5 8 12.8 1.8
-7 -5 8 16.8 1.8
6 5 -8 71.19 3.4
-6 -5 8 78.49 3.5
-6 -5 8 74.99 3.2
5 5 -8 4.5 1.4
-5 -5 8 3.7 1
4 5 -8 7.8 1.4
-4 -5 8 10.7 1.3
3 5 -8 0.7 1
-3 -5 8 -0.1 0.7
2 5 -8 1 1
-2 -5 8 0.7 0.7
1 5 -8 49.5 2.6
-1 -5 8 53.89 2.2
0 5 -8 4 1
0 -5 8 5.5 0.9
-1 5 -8 61.89 2.8
1 -5 8 66.29 2.5
-2 5 -8 1.5 1
-2 5 -8 1.9 0.8
2 -5 8 2.9 0.8
-3 5 -8 145.39 5
-3 5 -8 151.48 4.8
3 -5 8 152.38 4.8
-4 5 -8 91.79 3.2
-4 5 -8 85.89 3.4
4 -5 8 85.79 3.1
-5 5 -8 0 1
-5 5 -8 1.1 1
5 -5 8 1.1 0.8
-6 5 -8 161.88 5.4
-6 5 -8 167.08 5.4
6 -5 8 168.68 5.3
-7 5 -8 -0.5 1
-7 5 -8 0 1
7 -5 8 2.3 0.9
-8 5 -8 6.6 1.4
8 -5 8 5.8 1.1
-9 5 -8 9.4 1.6
9 -5 8 10.6 1.4
-10 5 -8 3.7 1.4
10 -5 8 0.9 1.1
-11 5 -8 5.5 1.6
11 -5 8 2.3 1.2
-8 -4 8 3.2 1.3
-8 -4 8 1 1.5
-7 -4 8 9 1.4
-7 -4 8 7.4 1.6
6 4 -8 60.89 3
-6 -4 8 63.49 2.7
-6 -4 8 59.69 2.8
5 4 -8 30.9 2.2
-5 -4 8 29.8 1.9
-5 -4 8 30.5 1.9
4 4 -8 -0.1 1
-4 -4 8 2 0.9
-4 -4 8 0.2 0.9
3 4 -8 68.39 3
-3 -4 8 71.09 2.7
2 4 -8 30 1.9
-2 -4 8 32.1 1.7
1 4 -8 14.9 1.5
-1 -4 8 12.9 1.2
0 4 -8 5.6 1.1
0 -4 8 6.2 0.9
-1 4 -8 263.07 8.6
-1 4 -8 312.67 8.3
1 -4 8 284.27 8.3
-2 4 -8 22.5 1.7
-2 4 -8 22.3 1.4
2 -4 8 21.2 1.4
-3 4 -8 5.4 1.1
-3 4 -8 8.5 1.2
3 -4 8 7.5 1
-4 4 -8 19.3 1.5
-4 4 -8 21.7 1.6
4 -4 8 20.3 1.4
-5 4 -8 113.49 3.9
-5 4 -8 111.59 3.9
5 -4 8 114.89 3.8
-6 4 -8 154.78 5.1
-6 4 -8 157.68 5.1
6 -4 8 152.58 4.9
-7 4 -8 30.8 2
-7 4 -8 29.1 1.8
7 -4 8 28.6 1.8
-8 4 -8 3.4 1.2
8 -4 8 1.1 0.9
-9 4 -8 57.39 2.9
9 -4 8 56.79 2.5
-10 4 -8 130.99 4.9
10 -4 8 133.29 4.6
-11 4 -8 0.4 1.3
11 -4 8 -0.8 1
-9 -3 8 -1.8 1.4
-8 -3 8 4.8 1.5
-7 -3 8 19.8 1.9
-7 -3 8 21 1.8
-6 -3 8 39.3 2.1
-6 -3 8 40.2 2.2
5 3 -8 177.58 5.8
-5 -3 8 172.88 5.5
-5 -3 8 165.78 5.4
4 3 -8 301.57 9.1
-4 -3 8 300.87 8.8
-4 -3 8 295.47 8.7
3 3 -8 22.6 1.7
-3 -3 8 19.9 1.4
-3 -3 8 19.4 1.3
2 3 -8 4.6 1.1
-2 -3 8 5.2 0.8
-2 -3 8 6.2 0.8
1 3 -8 99.69 3.7
-1 -3 8 104.09 3.4
0 3 -8 13.3 1.4
0 3 -8 17.3 1.2
0 -3 8 12.9 1.1
-1 3 -8 16.4 1.5
-1 3 -8 21 1.3
1 -3 8 18.1 1.2
-2 3 -8 14.6 1.4
-2 3 -8 12.8 1.2
2 -3 8 12.2 1.1
-3 3 -8 104.29 3.5
-3 3 -8 100.89 3.6
3 -3 8 102.39 3.4
-4 3 -8 6.5 1
-4 3 -8 8.1 1.2
4 -3 8 4.8 0.8
-5 3 -8 265.97 7.9
-5 3 -8 263.37 7.9
5 -3 8 262.87 7.7
-6 3 -8 4.3 1
-6 3 -8 5.7 1.1
6 -3 8 4.8 0.9
-7 3 -8 44.3 2.3
7 -3 8 43.7 2.1
7 -3 8 45.5 1.8
-8 3 -8 105.59 4
8 -3 8 112.19 3.8
-9 3 -8 54.29 2.7
9 -3 8 54.29 2.4
-10 3 -8 13.8 1.9
10 -3 8 16.9 1.6
-11 3 -8 60.79 3.2
11 -3 8 61.69 2.8
-12 3 -8 40.6 2.9
12 -3 8 38.9 2.4
9 2 -8 2.9 1.3
-9 -2 8 0.9 1.4
8 2 -8 2.2 1.2
-8 -2 8 0.5 1.2
7 2 -8 0.4 1
-7 -2 8 0.5 1.1
6 2 -8 22.6 1.7
-6 -2 8 23.5 1.7
5 2 -8 25 1.7
-5 -2 8 21.7 1.5
-5 -2 8 20.3 1.5
4 2 -8 78.19 3
-4 -2 8 72.19 2.7
-4 -2 8 73.49 2.7
3 2 -8 5.6 1.1
-3 -2 8 5.9 0.9
-3 -2 8 6.9 0.9
2 2 -8 4.1 1
-2 -2 8 4.1 0.8
-2 -2 8 3.7 0.7
1 2 -8 756.22 22
1 2 -8 857.21 21.7
-1 -2 8 786.82 21.7
-1 -2 8 766.72 21.5
0 2 -8 27.2 1.6
0 2 -8 29.9 1.4
0 -2 8 26.4 1.4
-1 2 -8 49.3 1.9
-1 2 -8 43.7 2
1 -2 8 43.9 1.8
-2 2 -8 329.87 9.1
-2 2 -8 305.77 9.2
2 -2 8 313.67 9
-3 2 -8 19.5 1.3
-3 2 -8 18.7 1.4
3 -2 8 18.7 1.2
-4 2 -8 84.69 3
-4 2 -8 79.79 2.9
4 -2 8 81.69 2.8
-5 2 -8 5.4 1
-5 2 -8 6.8 1.1
5 -2 8 5.2 0.8
-6 2 -8 21.7 1.6
6 -2 8 19 1.1
6 -2 8 20.6 1.3
-7 2 -8 4.4 1
7 -2 8 4.4 0.9
7 -2 8 5.1 0.8
-8 2 -8 2 1
8 -2 8 2 0.8
-9 2 -8 35.3 2.3
9 -2 8 41.9 2
-10 2 -8 33.5 2.3
10 -2 8 34.6 2
-11 2 -8 59.39 3.1
11 -2 8 55.49 2.6
-12 2 -8 9.1 1.8
12 -2 8 10 1.5
9 1 -8 4.4 1.3
-9 -1 8 2.4 1.4
8 1 -8 9.8 1.4
-8 -1 8 12 1.6
7 1 -8 9.5 1.3
-7 -1 8 8.3 1.3
6 1 -8 39 2.1
-6 -1 8 42.7 2.1
5 1 -8 0.2 0.9
5 1 -8 -0.1 0.8
-5 -1 8 0 0.7
4 1 -8 23.1 1.6
-4 -1 8 20.9 1.3
-4 -1 8 22 1.3
3 1 -8 14.8 1.3
-3 -1 8 14.6 1.1
-3 -1 8 15 1.1
2 1 -8 189.88 5.9
2 1 -8 201.98 5.7
-2 -1 8 189.98 5.6
-2 -1 8 188.88 5.7
1 1 -8 86.99 3.1
1 1 -8 89.39 2.9
-1 -1 8 84.39 2.7
-1 -1 8 85.19 2.9
0 1 -8 54.49 2.3
0 1 -8 58.59 2.1
0 -1 8 52.69 2
-1 1 -8 241.48 6.8
-1 1 -8 225.48 7
1 -1 8 233.88 6.7
-2 1 -8 63.79 2.3
-2 1 -8 62.69 2.5
2 -1 8 64.69 2.2
-3 1 -8 470.45 13.5
-3 1 -8 483.25 13.4
3 -1 8 482.45 13.3
-4 1 -8 5.5 0.9
-4 1 -8 5.6 0.9
4 -1 8 7.1 0.8
-5 1 -8 24.9 1.5
5 -1 8 28.3 1.3
5 -1 8 22.9 1.3
-6 1 -8 166.28 5.5
6 -1 8 178.38 5.4
6 -1 8 183.08 5.3
-7 1 -8 52.39 2.4
7 -1 8 57.09 2
7 -1 8 52.29 2.2
-8 1 -8 11.6 1.5
8 -1 8 10.3 1.2
-9 1 -8 105.89 3.9
9 -1 8 99.89 3.6
-10 1 -8 4.5 1.2
10 -1 8 5.4 1.1
-11 1 -8 7.4 1.5
11 -1 8 10.5 1.4
-12 1 -8 6.3 1.6
12 -1 8 5 1.3
-13 1 -8 62.39 3.5
10 0 -8 59.29 2.9
-10 0 8 57.69 3.2
9 0 -8 -0.4 1
-9 0 8 0.8 1.2
8 0 -8 85.79 3.4
-8 0 8 83.69 3.4
7 0 -8 14.9 1.5
-7 0 8 16.1 1.5
6 0 -8 56.69 2.4
-6 0 8 58.29 2.5
5 0 -8 0.8 0.8
5 0 -8 0.6 0.9
-5 0 8 1.2 0.7
4 0 -8 183.58 5.6
4 0 -8 179.48 5.5
-4 0 8 185.58 5.5
-4 0 8 178.88 5.4
3 0 -8 163.98 5.2
-3 0 8 163.38 4.9
-3 0 8 164.98 4.9
2 0 -8 74.39 2.7
2 0 -8 73.69 2.6
-2 0 8 73.19 2.5
-2 0 8 69.49 2.4
1 0 -8 13.8 1.2
1 0 -8 14.1 1.1
-1 0 8 14.6 0.9
-1 0 8 13.7 0.8
0 0 -8 3.1 0.6
0 0 -8 3.3 0.8
0 0 8 3.4 0.4
0 0 8 3.1 0.6
-1 0 -8 119.69 3.7
-1 0 -8 113.19 3.8
1 0 8 117.49 3.6
-2 0 -8 165.98 5
-2 0 -8 170.28 5.2
2 0 8 166.38 4.9
-3 0 -8 29.3 1.5
-3 0 -8 31.7 1.6
3 0 8 29.8 1.3
-4 0 -8 378.86 11
4 0 8 396.46 10.8
4 0 8 385.36 10.9
-5 0 -8 54.09 2.2
5 0 8 53.69 2
5 0 8 55.19 2
-6 0 -8 31.1 1.8
6 0 8 34.4 1.6
6 0 8 36.8 1.5
-7 0 -8 15.7 1.5
7 0 8 17 1.2
7 0 8 18.8 1.1
-8 0 -8 43.4 2.2
8 0 8 41.7 1.9
-9 0 -8 41.4 2.3
9 0 8 44.9 2
-10 0 -8 40.8 2.4
10 0 8 42.1 2.1
-11 0 -8 62.59 3
11 0 8 58.69 2.7
-12 0 -8 5.9 1.6
12 0 8 3.5 1.2
-13 0 -8 3.5 1.6
13 0 8 0.9 1.3
10 -1 -8 4.6 1.4
-10 1 8 4.5 1.4
9 -1 -8 -1.9 1.1
-9 1 8 -0.4 1.1
8 -1 -8 5 1.2
-8 1 8 4 1.1
7 -1 -8 -0.1 0.9
-7 1 8 0.7 0.9
6 -1 -8 5.2 1
-6 1 8 6.1 1.1
-6 1 8 5.9 1
5 -1 -8 15.2 1.3
5 -1 -8 16.5 1.3
-5 1 8 15.5 1.1
-5 1 8 15 1.3
4 -1 -8 45 2
4 -1 -8 46.7 1.9
-4 1 8 46.1 1.9
-4 1 8 44 1.8
3 -1 -8 132.09 4.2
-3 1 8 131.99 4.1
-3 1 8 131.99 4
2 -1 -8 65.29 2.5
2 -1 -8 68.09 2.4
-2 1 8 68.59 2.3
-2 1 8 67.19 2.3
1 -1 -8 108.69 3.6
1 -1 -8 108.99 3.5
-1 1 8 105.89 3.2
-1 1 8 105.99 3.3
0 -1 -8 4.6 0.7
0 -1 -8 3.1 0.8
0 1 8 3.5 0.5
-1 -1 -8 -0.4 0.5
-1 -1 -8 -0.3 0.6
1 1 8 1 0.4
-2 -1 -8 1.8 0.7
2 1 8 0.3 0.4
2 1 8 0.7 0.4
-3 -1 -8 190.38 5.7
3 1 8 187.78 5.6
3 1 8 190.78 5.5
-4 -1 -8 9.6 1.1
4 1 8 9.1 0.8
4 1 8 10.8 0.9
-5 -1 -8 8.3 1.1
5 1 8 7.2 0.8
5 1 8 8.7 0.9
-6 -1 -8 8 1.1
6 1 8 8.9 1
6 1 8 8.4 0.8
-7 -1 -8 100.59 3.7
7 1 8 117.59 3.5
7 1 8 107.29 3.5
-8 -1 -8 4.5 1
8 1 8 2 0.7
8 1 8 2.5 0.8
-9 -1 -8 11.9 1.5
9 1 8 7.6 1
-10 -1 -8 0.6 1.1
10 1 8 -0.8 0.8
-11 -1 -8 -1.8 1
11 1 8 0.9 1
-12 -1 -8 0.1 1.2
12 1 8 1.5 1.1
-13 -1 -8 28.6 2.5
13 1 8 29.2 2.2
10 -2 -8 -0.1 1.1
-10 2 8 -0.3 1.2
9 -2 -8 12.4 1.6
-9 2 8 15.8 1.8
8 -2 -8 16.9 1.6
-8 2 8 16 1.6
7 -2 -8 9.8 1.3
-7 2 8 9.3 1.2
-7 2 8 8.1 1.2
6 -2 -8 203.08 6.2
-6 2 8 208.58 6.2
-6 2 8 207.58 6.3
5 -2 -8 79.79 2.8
-5 2 8 81.29 2.8
-5 2 8 81.29 2.6
-5 2 8 79.29 2.9
4 -2 -8 1.9 0.7
-4 2 8 1.3 0.6
-4 2 8 1.8 0.5
3 -2 -8 5.7 0.8
3 -2 -8 6.4 0.8
-3 2 8 5.7 0.8
-3 2 8 6.1 0.7
2 -2 -8 228.58 6.8
2 -2 -8 228.28 6.6
-2 2 8 238.48 6.7
-2 2 8 231.38 6.6
1 -2 -8 165.88 5
1 -2 -8 174.78 4.9
-1 2 8 163.88 5
-1 2 8 165.28 4.8
0 -2 -8 6.5 0.8
0 -2 -8 7.2 0.7
0 2 8 8.2 0.7
0 2 8 7.1 0.6
-1 -2 -8 27.1 1.3
1 2 8 26.9 1.2
1 2 8 25.8 1.1
-2 -2 -8 55.79 2.1
2 2 8 56.49 1.8
2 2 8 57.19 2
-3 -2 -8 137.09 4.2
3 2 8 138.09 4
3 2 8 136.39 4.2
-4 -2 -8 4.2 0.8
4 2 8 3.2 0.5
4 2 8 3.5 0.6
-5 -2 -8 216.68 6.7
5 2 8 231.68 6.6
5 2 8 228.28 6.5
-6 -2 -8 193.08 5.8
6 2 8 172.28 5.6
6 2 8 199.68 5.6
-7 -2 -8 6 1
7 2 8 5.2 0.8
7 2 8 6.8 0.9
-8 -2 -8 11.4 1.4
8 2 8 12.8 1.2
8 2 8 12.7 1.2
-9 -2 -8 84.49 3.3
9 2 8 90.19 3.1
-10 -2 -8 29.5 2
10 2 8 29.3 1.7
-11 -2 -8 14.7 1.8
11 2 8 16 1.5
-12 -2 -8 157.98 5.5
12 2 8 155.38 5.3
-13 -2 -8 3.7 1.5
13 2 8 3.8 1.4
10 -3 -8 1.1 1
-10 3 8 0.6 1.2
9 -3 -8 4.2 1.2
-9 3 8 5 1.3
8 -3 -8 24.5 1.7
-8 3 8 23.6 1.7
-8 3 8 27.2 1.8
7 -3 -8 62.89 2.5
-7 3 8 63.69 2.7
-7 3 8 66.09 2.6
6 -3 -8 0.3 0.8
-6 3 8 0.3 0.8
-6 3 8 1.4 0.8
5 -3 -8 8.5 1.1
5 -3 -8 9.1 1
-5 3 8 8.5 1.1
-5 3 8 9.1 0.8
4 -3 -8 7.9 1.1
4 -3 -8 7.8 0.9
-4 3 8 7.7 1
-4 3 8 5.5 0.7
3 -3 -8 18.9 1.2
3 -3 -8 18.1 1
-3 3 8 17 0.9
-3 3 8 20.5 1.2
2 -3 -8 97.09 3.3
2 -3 -8 101.29 3.2
-2 3 8 98.69 3.2
-2 3 8 103.49 3
1 -3 -8 117.99 3.5
1 -3 -8 113.69 3.7
-1 3 8 118.09 3.4
-1 3 8 115.29 3.6
0 -3 -8 39.5 1.4
0 -3 -8 40 1.6
0 3 8 36.8 1.5
0 3 8 37.9 1.3
-1 -3 -8 231.48 6.7
-1 -3 -8 242.08 6.5
1 3 8 230.38 6.4
1 3 8 219.98 6.7
-2 -3 -8 56.79 2.1
-2 -3 -8 59.59 1.8
2 3 8 56.69 2.1
2 3 8 60.09 1.9
-3 -3 -8 104.19 3
-3 -3 -8 103.09 3.4
3 3 8 107.09 3.4
3 3 8 105.39 3.1
-4 -3 -8 181.08 5.2
-4 -3 -8 183.58 5.6
4 3 8 190.08 5.5
4 3 8 192.18 5.3
-5 -3 -8 49.5 1.7
-5 -3 -8 50.09 2.1
5 3 8 51.89 2
5 3 8 53.09 1.8
-6 -3 -8 3.9 0.7
-6 -3 -8 3.3 0.9
6 3 8 3 0.8
6 3 8 2.8 0.7
-7 -3 -8 177.78 5.5
-7 -3 -8 175.98 5.2
7 3 8 179.78 5.4
7 3 8 177.18 5.3
-8 -3 -8 184.08 5.8
8 3 8 185.98 5.6
8 3 8 187.58 5.6
-9 -3 -8 20.7 1.7
9 3 8 20.1 1.4
-10 -3 -8 1.5 1
10 3 8 0.7 0.9
-11 -3 -8 -0.1 1.1
11 3 8 -0.1 0.9
-12 -3 -8 48.3 2.6
12 3 8 43.6 2.4
13 3 8 89.49 3.7
-10 4 8 43.6 2.6
9 -4 -8 0.5 1.1
-9 4 8 2 1.2
-9 4 8 3.2 1.2
8 -4 -8 4.5 1.1
-8 4 8 5.3 1.2
-8 4 8 5.2 1.1
7 -4 -8 19.5 1.6
7 -4 -8 18.8 1.4
-7 4 8 21 1.7
6 -4 -8 0.4 0.9
6 -4 -8 1.5 0.8
-6 4 8 2.8 0.9
5 -4 -8 52.39 2
5 -4 -8 50.59 2.2
-5 4 8 54.69 2.2
4 -4 -8 204.38 5.9
4 -4 -8 197.68 6.1
-4 4 8 207.58 5.9
-4 4 8 205.78 6.1
3 -4 -8 52.49 2.1
3 -4 -8 57.09 1.9
-3 4 8 56.79 2.2
-3 4 8 54.09 1.9
2 -4 -8 6.2 0.9
2 -4 -8 6.2 0.8
-2 4 8 5.8 0.6
-2 4 8 6.6 0.6
1 -4 -8 13.1 0.9
1 -4 -8 14.1 1
-1 4 8 12.5 0.7
-1 4 8 12.9 0.8
0 -4 -8 4 0.6
0 -4 -8 3.7 0.7
0 4 8 4.4 0.6
0 4 8 3.3 0.4
-1 -4 -8 51.89 1.7
-1 -4 -8 47.1 1.9
1 4 8 53.29 1.6
1 4 8 49 1.9
-2 -4 -8 22.6 1
-2 -4 -8 24.1 1.2
2 4 8 23.1 0.9
2 4 8 19.4 1.1
-3 -4 -8 91.19 3.1
-3 -4 -8 91.99 2.8
3 4 8 96.49 2.8
3 4 8 89.69 3.1
-4 -4 -8 4.5 0.8
-4 -4 -8 4.2 0.5
4 4 8 4.7 0.6
4 4 8 4.1 0.7
-5 -4 -8 0.2 0.6
-5 -4 -8 1.7 0.5
5 4 8 1.2 0.7
5 4 8 2 0.6
-6 -4 -8 8.4 1
-6 -4 -8 7.5 1.1
6 4 8 8.1 0.9
6 4 8 8 1
-7 -4 -8 50.59 2
-7 -4 -8 49.4 2.2
7 4 8 47.7 1.9
7 4 8 47.3 2
-8 -4 -8 93.49 3.3
-8 -4 -8 86.69 3.1
8 4 8 91.49 3.2
8 4 8 91.19 3.1
-9 -4 -8 0.6 0.9
-9 -4 -8 0 1
9 4 8 0.3 0.8
-10 -4 -8 232.18 7.2
10 4 8 236.58 7.1
-11 -4 -8 105.59 3.9
11 4 8 105.49 3.8
12 4 8 32.3 2.1
13 4 8 22.6 2.1
-10 5 8 -0.9 1.1
-10 5 8 -0.9 1.3
-9 5 8 39.2 2.4
-9 5 8 41.2 2.4
8 -5 -8 14.4 1.5
-8 5 8 12.2 1.5
7 -5 -8 8.6 1.2
-7 5 8 9.9 1.4
6 -5 -8 139.39 4.6
6 -5 -8 141.89 4.3
-6 5 8 143.09 4.7
5 -5 -8 272.17 7.6
5 -5 -8 260.77 7.9
-5 5 8 265.27 7.9
4 -5 -8 31.7 1.3
4 -5 -8 28.7 1.6
-4 5 8 26.9 1.3
-4 5 8 31.6 1.6
3 -5 -8 105.49 3.5
3 -5 -8 112.99 3.2
-3 5 8 108.49 3.6
-3 5 8 108.59 3.4
2 -5 -8 71.59 2.6
2 -5 -8 69.39 2.5
-2 5 8 71.59 2.1
-2 5 8 72.39 2.4
1 -5 -8 0.1 0.5
1 -5 -8 1.8 0.6
-1 5 8 0.2 0.5
0 -5 -8 193.28 5.8
0 -5 -8 195.88 5.7
0 5 8 197.78 5.8
-1 -5 -8 13 0.8
-1 -5 -8 12.3 1
1 5 8 13 1
-2 -5 -8 462.05 12.7
-2 -5 -8 445.36 12.8
2 5 8 472.25 12.9
-3 -5 -8 151.18 4.5
-3 -5 -8 151.58 4.7
3 5 8 152.98 4.7
3 5 8 159.68 4.3
-4 -5 -8 492.35 13.8
-4 -5 -8 485.75 13.6
4 5 8 510.75 13.5
4 5 8 483.85 13.8
-5 -5 -8 96.79 3.2
-5 -5 -8 91.49 3
5 5 8 91.69 3.2
5 5 8 98.39 2.9
-6 -5 -8 36.9 1.6
-6 -5 -8 38.3 1.7
6 5 8 36.3 1.7
6 5 8 36.1 1.5
-7 -5 -8 49.4 2.1
-7 -5 -8 46.6 2.1
7 5 8 51.49 1.9
7 5 8 48.9 2.1
-8 -5 -8 43.1 2
-8 -5 -8 41.7 2
8 5 8 39 1.8
8 5 8 40.2 2
-9 -5 -8 47.6 2.2
-9 -5 -8 47.7 2.2
9 5 8 48.8 2.1
-10 -5 -8 1.5 1
-10 -5 -8 -1.3 1
10 5 8 0.2 0.9
11 5 8 102.39 3.7
12 5 8 51.79 2.6
13 5 8 1.6 1.4
-11 6 8 3.8 2.3
-10 6 8 0.1 1.2
-10 6 8 1.1 1.5
9 -6 -8 7.7 1.4
-9 6 8 6.8 1.5
8 -6 -8 1.4 1
-8 6 8 0.9 1
7 -6 -8 17.4 1.6
-7 6 8 15.9 1.7
6 -6 -8 3.5 1
-6 6 8 2.7 1.1
5 -6 -8 6.6 1
-5 6 8 6 1.1
4 -6 -8 6.4 1
-4 6 8 6 0.8
-4 6 8 5.7 1
3 -6 -8 106.39 3.5
-3 6 8 101.19 3.3
-3 6 8 104.89 3.5
2 -6 -8 171.58 5.2
-2 6 8 174.28 5.2
-2 6 8 169.88 5.1
1 -6 -8 24.7 1.3
1 -6 -8 24.4 1.3
-1 6 8 24.9 1.3
0 -6 -8 466.55 13.4
0 -6 -8 487.15 13.3
0 6 8 483.65 13.4
-1 -6 -8 17.8 1
-1 -6 -8 16.4 1.1
1 6 8 18.4 1.2
-2 -6 -8 24.3 1.2
-2 -6 -8 23.3 1.3
2 6 8 23.4 1.3
-3 -6 -8 24.6 1.3
-3 -6 -8 25.5 1.2
3 6 8 25.4 1.4
-4 -6 -8 46 1.7
-4 -6 -8 45.5 1.9
4 6 8 42.6 1.9
4 6 8 46.3 1.5
-5 -6 -8 2.7 0.7
-5 -6 -8 1.2 0.7
5 6 8 1.4 0.5
5 6 8 1.6 0.8
-6 -6 -8 110.19 3.6
-6 -6 -8 103.69 3.5
6 6 8 107.79 3.7
6 6 8 109.79 3.3
-7 -6 -8 42.8 1.9
-7 -6 -8 41.7 1.9
7 6 8 42.3 1.8
7 6 8 42.2 2
-8 -6 -8 16.4 1.6
-8 -6 -8 18.9 1.4
8 6 8 19.2 1.3
8 6 8 18.4 1.5
-9 -6 -8 9.2 1.3
-9 -6 -8 7.4 1.1
9 6 8 10 1.2
9 6 8 9.2 1.5
-10 -6 -8 18.7 1.9
10 6 8 19.5 1.6
-11 -6 -8 48.9 2.7
11 6 8 51.19 2.4
12 6 8 40.5 2.4
13 6 8 14.2 2.2
-10 7 8 22.8 2.6
9 -7 -8 2.9 1.3
-9 7 8 1.1 1.4
8 -7 -8 71.19 3
-8 7 8 66.89 3.1
7 -7 -8 114.79 4.1
-7 7 8 115.49 4.2
6 -7 -8 0 0.8
-6 7 8 0.6 0.9
5 -7 -8 60.19 2.5
-5 7 8 56.79 2.5
4 -7 -8 146.09 4.6
-4 7 8 140.29 4.4
-4 7 8 146.59 4.7
3 -7 -8 16.9 1.3
-3 7 8 17.3 1.1
-3 7 8 16.9 1.3
2 -7 -8 23.1 1.4
-2 7 8 23.5 1.3
-2 7 8 23.2 1.4
1 -7 -8 824.42 22.2
1 -7 -8 804.02 22.3
-1 7 8 797.12 22.2
0 -7 -8 33.5 1.5
0 -7 -8 30.9 1.5
0 7 8 33.7 1.5
-1 -7 -8 28.9 1.4
-1 -7 -8 28.9 1.4
1 7 8 31.2 1.5
-2 -7 -8 60.39 2.2
-2 -7 -8 61.49 2.3
2 7 8 63.09 2.4
-3 -7 -8 52.09 2
-3 -7 -8 51.99 2
3 7 8 53.09 2.2
-4 -7 -8 378.96 11.1
-4 -7 -8 385.86 11.1
4 7 8 433.56 11
4 7 8 377.46 11.2
-5 -7 -8 1.7 0.7
-5 -7 -8 0.6 0.7
5 7 8 1.2 0.6
5 7 8 0.1 0.8
-6 -7 -8 238.28 6.8
-6 -7 -8 221.88 6.8
6 7 8 227.58 6.9
6 7 8 229.28 6.5
-7 -7 -8 154.98 4.9
-7 -7 -8 153.58 4.9
7 7 8 158.68 5.1
7 7 8 157.68 4.7
-8 -7 -8 0.7 1
-8 -7 -8 0.7 0.8
8 7 8 0.9 0.9
8 7 8 -0.4 0.7
-9 -7 -8 71.19 3
9 7 8 67.49 2.9
9 7 8 74.09 2.7
-10 -7 -8 8.5 1.5
10 7 8 12.1 1.4
-11 -7 -8 1.8 1.3
11 7 8 5.1 1.2
-12 -7 -8 9.4 1.8
12 7 8 13 1.6
10 -8 -8 8.3 1.8
-10 8 8 5 1.8
9 -8 -8 7 1.4
-9 8 8 3.8 1.6
8 -8 -8 13.2 1.7
-8 8 8 12.2 1.8
7 -8 -8 58.09 2.7
-7 8 8 56.29 2.8
6 -8 -8 45.3 2.2
-6 8 8 41.3 2.3
5 -8 -8 -0.3 0.8
-5 8 8 -1.5 0.8
4 -8 -8 -0.7 0.7
-4 8 8 -1.1 0.7
-4 8 8 -0.6 0.7
3 -8 -8 383.96 10.9
-3 8 8 378.66 10.7
-3 8 8 373.66 10.9
2 -8 -8 48.1 2.1
-2 8 8 50.29 2.1
-2 8 8 48.8 2
1 -8 -8 6.4 0.9
-1 8 8 4.4 0.8
-1 8 8 6.6 0.9
0 -8 -8 10.7 1
0 -8 -8 9.9 1
0 8 8 11.1 1.1
-1 -8 -8 8 0.9
-1 -8 -8 9.1 1
1 8 8 8.9 1.1
-2 -8 -8 115.99 3.7
-2 -8 -8 118.09 3.8
2 8 8 119.49 3.9
-3 -8 -8 203.68 5.9
-3 -8 -8 196.38 5.9
3 8 8 197.98 6.1
-4 -8 -8 139.79 4.5
-4 -8 -8 143.79 4.4
4 8 8 148.19 4.7
-5 -8 -8 156.58 4.9
-5 -8 -8 159.68 4.9
5 8 8 160.78 5.1
-6 -8 -8 10.4 1.2
-6 -8 -8 10.1 1.1
6 8 8 11 1.4
-7 -8 -8 13.3 1.4
-7 -8 -8 12.2 1.3
7 8 8 11.3 1.5
7 8 8 11.4 1.5
-8 -8 -8 44.4 2.3
8 8 8 41.3 2.2
8 8 8 44.9 2
-9 -8 -8 17.3 1.9
9 8 8 20.5 1.8
9 8 8 16.1 1.5
-10 -8 -8 3.9 1.3
10 8 8 4 1.2
-11 -8 -8 36.5 2.5
11 8 8 33 2.2
-12 -8 -8 16.4 2.2
12 8 8 23.7 3.1
9 -9 -8 73.39 3.3
-9 9 8 67.79 3.6
8 -9 -8 10.8 1.6
-8 9 8 8.9 1.6
7 -9 -8 11.7 1.6
-7 9 8 9.4 1.4
6 -9 -8 156.28 5.1
-6 9 8 146.99 5.2
5 -9 -8 32.5 1.9
-5 9 8 32.8 2
4 -9 -8 0.2 0.8
-4 9 8 1.9 0.9
3 -9 -8 228.68 6.9
-3 9 8 229.48 6.9
-3 9 8 225.68 6.7
2 -9 -8 10 1.2
-2 9 8 8.3 1.2
-2 9 8 9 1.2
1 -9 -8 10.7 1.1
-1 9 8 10.9 1.1
-1 9 8 11.6 1.2
0 -9 -8 7.9 1
0 9 8 7.1 1
0 9 8 6.8 1
-1 -9 -8 93.19 3.2
-1 -9 -8 99.99 3.3
1 9 8 94.89 3.4
-2 -9 -8 12 1.1
-2 -9 -8 12.1 1.1
2 9 8 12.1 1.3
-3 -9 -8 47.4 2
-3 -9 -8 49.1 1.9
3 9 8 46.5 2.2
-4 -9 -8 156.78 4.9
-4 -9 -8 160.68 4.8
4 9 8 152.68 5.1
-5 -9 -8 17.5 1.4
-5 -9 -8 17.8 1.2
5 9 8 16.8 1.5
-6 -9 -8 32.8 1.9
6 9 8 35.5 2
-7 -9 -8 2.1 1
7 9 8 2.2 1.1
-8 -9 -8 2.9 1
8 9 8 5.6 1.3
-9 -9 -8 13 1.7
9 9 8 11.8 1.6
-10 -9 -8 3 1.3
-11 -9 -8 23.3 2.2
9 -10 -8 6.6 1.6
-9 10 8 4.8 1.8
8 -10 -8 15.5 1.9
-8 10 8 11.9 1.9
7 -10 -8 107.99 4.1
-7 10 8 105.89 4.2
6 -10 -8 2.7 1.1
-6 10 8 2.5 1.2
5 -10 -8 127.29 4.4
-5 10 8 121.49 4.4
4 -10 -8 61.49 2.7
-4 10 8 63.59 2.7
3 -10 -8 85.79 3.2
-3 10 8 81.59 3.1
-3 10 8 82.09 3
2 -10 -8 8.7 1.2
-2 10 8 9.9 1.3
-2 10 8 9.2 1.2
1 -10 -8 1 0.8
-1 10 8 1.7 0.8
-1 10 8 0.3 0.7
0 -10 -8 33 1.7
0 10 8 33 1.8
0 10 8 33.7 1.7
-1 -10 -8 51.19 2.1
1 10 8 51.19 2.3
1 10 8 48.3 2
-2 -10 -8 125.19 3.9
-2 -10 -8 117.69 4
2 10 8 118.59 4.2
-3 -10 -8 70.39 2.7
-3 -10 -8 71.19 2.6
3 10 8 67.99 2.9
-4 -10 -8 3.3 0.9
-4 -10 -8 4.7 0.8
4 10 8 3.8 1
-5 -10 -8 35.5 1.9
5 10 8 37.3 2.1
-6 -10 -8 24.2 1.7
6 10 8 22.2 1.8
-7 -10 -8 176.58 5.7
7 10 8 173.38 5.9
-8 -10 -8 0.2 1.1
8 10 8 1.7 1.2
-9 -10 -8 24.3 2
9 10 8 24.6 2.1
-10 -10 -8 7.4 1.5
-11 -10 -8 2.1 1.4
8 -11 -8 2.8 1.3
-8 11 8 0.2 1.4
7 -11 -8 49.3 2.7
-7 11 8 45.3 2.8
6 -11 -8 2 1.2
-6 11 8 1.4 1
5 -11 -8 115.09 4.2
-5 11 8 110.59 4.2
4 -11 -8 26 1.9
-4 11 8 28.6 1.9
3 -11 -8 33.5 1.9
-3 11 8 32.5 1.9
-3 11 8 35.2 2
2 -11 -8 10.6 1.3
-2 11 8 9.5 1.4
-2 11 8 11.3 1.3
1 -11 -8 48.5 2.2
-1 11 8 47.1 2.1
-1 11 8 47.6 2.3
0 -11 -8 20.5 1.5
0 11 8 21.4 1.5
0 11 8 17.9 1.6
-1 -11 -8 79.29 3
1 11 8 80.69 2.8
1 11 8 74.89 3.1
-2 -11 -8 198.98 6.1
2 11 8 200.78 5.9
2 11 8 195.18 6.3
-3 -11 -8 41.3 2
3 11 8 39.3 2.2
3 11 8 48.3 2.1
-4 -11 -8 85.49 3.2
4 11 8 86.39 3.5
-5 -11 -8 37.3 2
5 11 8 33.6 2.2
-6 -11 -8 13.7 1.5
6 11 8 12.2 1.7
-7 -11 -8 0.4 1
7 11 8 0.8 1.2
-8 -11 -8 4.3 1.2
8 11 8 5.2 1.4
9 11 8 59.69 3
-10 -11 -8 -0.9 1.1
8 -12 -8 14.8 2.1
-8 12 8 12.4 2.1
7 -12 -8 1.5 1.3
-7 12 8 0.4 1.4
6 -12 -8 50.09 2.7
-6 12 8 45.5 2.7
5 -12 -8 278.77 8.5
-5 12 8 262.97 8.4
4 -12 -8 4.6 1.2
-4 12 8 4 1.2
3 -12 -8 298.07 9
-3 12 8 294.37 8.9
-3 12 8 296.67 8.8
2 -12 -8 1.8 0.8
-2 12 8 1.1 0.9
-2 12 8 2.6 1
1 -12 -8 18.3 1.5
-1 12 8 18.7 1.5
-1 12 8 16.3 1.7
0 -12 -8 0.5 0.9
0 12 8 -0.2 1
0 12 8 -0.3 0.9
-1 -12 -8 97.89 3.6
1 12 8 97.89 3.8
1 12 8 106.89 3.5
-2 -12 -8 34.1 1.8
2 12 8 29.1 2.1
-3 -12 -8 21.9 1.6
3 12 8 22.8 1.9
-4 -12 -8 1.4 0.9
4 12 8 0.7 1.2
-5 -12 -8 37.2 2
5 12 8 29.2 2.2
-6 -12 -8 2.8 1
6 12 8 2.9 1.3
-7 -12 -8 8 1.4
7 12 8 7 1.5
-8 -12 -8 10.5 1.5
8 12 8 13.2 1.9
9 12 8 16.2 2.1
7 -13 -8 0.3 1.3
-7 13 8 -0.5 1.5
6 -13 -8 14.4 1.9
-6 13 8 11.9 1.8
5 -13 -8 -0.3 1.1
-5 13 8 1.2 1.2
4 -13 -8 0.2 1.1
-4 13 8 -0.1 1.2
3 -13 -8 17.6 1.7
-3 13 8 19.5 1.8
-3 13 8 18.7 1.7
2 -13 -8 17.4 1.6
-2 13 8 17.8 1.7
-2 13 8 18.1 1.7
1 -13 -8 4.1 1
-1 13 8 4.1 1.2
-1 13 8 2 1
0 -13 -8 96.29 3.7
0 13 8 100.99 3.9
0 13 8 108.39 3.6
-1 -13 -8 28.8 1.9
1 13 8 29.3 2.1
-2 -13 -8 62.59 2.7
2 13 8 60.79 3
-3 -13 -8 45.5 2.2
3 13 8 37.4 2.5
-4 -13 -8 103.99 3.8
4 13 8 97.19 4.1
-5 -13 -8 1.2 1
5 13 8 2 1.3
-6 -13 -8 13.1 1.6
6 13 8 12.7 2
-7 -13 -8 12.2 1.6
7 13 8 12.9 2
-8 -13 -8 13.5 1.8
8 13 8 12.3 1.8
9 13 8 2.9 1.5
6 -14 -8 23 2.3
-6 14 8 17.1 2.4
5 -14 -8 81.19 3.6
-5 14 8 80.59 3.7
4 -14 -8 9.4 1.5
-4 14 8 6.9 1.4
3 -14 -8 -0.9 1
-3 14 8 -2 1.2
2 -14 -8 40.1 2.3
-2 14 8 39 2.3
-2 14 8 44.4 2.5
1 -14 -8 85.29 3.4
-1 14 8 83.89 3.6
0 -14 -8 2.3 1.1
0 14 8 2.8 1.3
-1 -14 -8 10 1.4
1 14 8 8.1 1.5
-2 -14 -8 82.39 3.3
2 14 8 71.79 3.5
-3 -14 -8 3.4 1.1
3 14 8 2.8 1.4
-4 -14 -8 4.4 1.2
4 14 8 2.8 1.4
-5 -14 -8 2.2 1.1
5 14 8 2.9 1.5
-6 -14 -8 2.4 1.2
6 14 8 3.1 1.5
-7 -14 -8 5.8 1.4
7 14 8 3.8 1.4
-5 15 8 -1.8 1.4
4 -15 -8 1.2 1.3
-4 15 8 2.1 1.5
3 -15 -8 4.1 1.3
-3 15 8 1.8 1.3
2 -15 -8 16.3 1.8
-2 15 8 14.7 1.9
1 -15 -8 13.5 1.8
-1 15 8 12.9 2
0 -15 -8 91.69 3.7
0 15 8 84.89 3.9
-1 -15 -8 -0.2 1
1 15 8 2.2 1.5
-2 -15 -8 5.7 1.3
2 15 8 7.5 1.7
-3 -15 -8 -1.2 0.9
3 15 8 -1.2 1.4
-4 -15 -8 24.4 2
4 15 8 26.4 2.5
-5 -15 -8 81.29 3.5
2 -16 -8 0.2 1.2
-2 16 8 2.8 1.4
1 -16 -8 0.8 1.2
-1 16 8 -0.7 1.3
0 -16 -8 3.8 1.3
0 16 8 4.7 1.5
-1 -16 -8 7.2 1.4
1 16 8 6.3 1.7
-2 -16 -8 2.1 1.2
2 16 8 1.1 1.4
0 9 -9 1.8 1.6
0 -9 9 0.7 1
-1 9 -9 2.7 1.7
1 -9 9 0.4 1
-2 9 -9 1.3 1.6
2 -9 9 0.5 0.9
-3 9 -9 60.59 3.5
3 -9 9 67.69 2.9
-4 9 -9 0.5 1.6
4 -9 9 -0.5 0.9
-5 9 -9 47.7 3.1
5 -9 9 47.4 2.5
3 8 -9 6.4 1.8
2 8 -9 7.7 1.8
-2 -8 9 12.4 1.6
1 8 -9 68.39 3.7
-1 -8 9 81.39 3.2
0 8 -9 0.6 1.3
0 -8 9 0.5 0.9
-1 8 -9 0.7 1.4
1 -8 9 0.9 1
-2 8 -9 17.5 2.3
2 -8 9 20.4 1.7
-3 8 -9 2.5 1.5
3 -8 9 4.1 1.1
-4 8 -9 1.2 1.6
4 -8 9 0.3 1
-5 8 -9 295.97 9.5
5 -8 9 300.97 9.1
-6 8 -9 -0.6 1.4
6 -8 9 0.1 1
7 -8 9 12.7 1.7
-8 8 -9 2.6 1.4
5 7 -9 3.6 1.6
4 7 -9 23.6 2.4
-4 -7 9 22.1 1.9
3 7 -9 34.7 2.7
-3 -7 9 37.3 2.1
2 7 -9 63.49 3.4
-2 -7 9 66.29 2.8
1 7 -9 9.3 1.6
-1 -7 9 9.6 1.3
0 7 -9 5 1.5
0 -7 9 6.1 1.1
-1 7 -9 30 2.3
1 -7 9 28.1 1.9
-2 7 -9 5.2 1.5
2 -7 9 6.9 1.2
-3 7 -9 52.79 3
3 -7 9 60.39 2.6
-4 7 -9 2.4 1.4
4 -7 9 1.9 1
-5 7 -9 1.6 1.4
5 -7 9 1.2 1
-6 7 -9 16.4 2
-6 7 -9 16.6 1.9
6 -7 9 16.1 1.6
-7 7 -9 4.9 1.4
7 -7 9 5.2 1.2
-8 7 -9 27.3 2.3
8 -7 9 26.6 2
-9 7 -9 6.5 1.6
9 -7 9 4.6 1.3
5 6 -9 9.1 1.8
-5 -6 9 7 1.3
4 6 -9 3.4 1.5
-4 -6 9 3.1 1.1
3 6 -9 14.5 2.1
-3 -6 9 18.7 1.6
2 6 -9 0.5 1.2
-2 -6 9 0.9 0.9
1 6 -9 2.7 1.3
-1 -6 9 4.5 1
0 6 -9 59.79 3
0 -6 9 59.19 2.5
-1 6 -9 24.9 2.1
1 -6 9 22.8 1.6
-2 6 -9 5.2 1.3
2 -6 9 5 1
-3 6 -9 42.2 2.6
3 -6 9 47.4 2.2
-4 6 -9 2.3 1.3
4 -6 9 3.1 0.9
-5 6 -9 0.2 1.2
-5 6 -9 -0.2 1.1
5 -6 9 0.6 0.9
-6 6 -9 173.18 5.7
-6 6 -9 170.48 5.8
6 -6 9 165.18 5.5
-7 6 -9 83.49 3.5
7 -6 9 84.59 3.3
-8 6 -9 3 1.4
8 -6 9 0.1 1
-9 6 -9 56.89 3.1
9 -6 9 53.49 2.7
-10 6 -9 44.4 2.9
10 -6 9 42.4 2.5
-6 -5 9 2.8 1.2
5 5 -9 0.9 1.3
-5 -5 9 2 1.1
4 5 -9 60.89 3.1
-4 -5 9 61.69 2.7
3 5 -9 31.6 2.3
-3 -5 9 34.2 1.9
2 5 -9 169.78 6
-2 -5 9 175.18 5.5
1 5 -9 8.1 1.4
-1 -5 9 9.7 1.3
0 5 -9 30.7 2.2
0 -5 9 34.7 1.8
-1 5 -9 -0.7 1
1 -5 9 -0.5 0.7
-2 5 -9 62.99 2.9
2 -5 9 59.69 2.5
-3 5 -9 248.88 7.9
-3 5 -9 259.27 7.6
3 -5 9 255.57 7.6
-4 5 -9 30.6 1.9
-4 5 -9 28.5 2.1
4 -5 9 30.3 1.8
-5 5 -9 5.3 1.3
-5 5 -9 5 1.2
5 -5 9 8 1.1
-6 5 -9 15.7 1.7
-6 5 -9 14.9 1.7
6 -5 9 15.2 1.4
-7 5 -9 30.7 2
-7 5 -9 31.2 2.1
7 -5 9 30.5 1.9
-8 5 -9 3.5 1.4
8 -5 9 3 1
-9 5 -9 9.1 1.6
9 -5 9 9.9 1.4
-10 5 -9 0.7 1.3
10 -5 9 2.3 1.1
-7 -4 9 4.6 1.4
-6 -4 9 148.89 5.1
5 4 -9 8.1 1.5
-5 -4 9 8.6 1.3
4 4 -9 61.69 3
-4 -4 9 61.39 2.6
3 4 -9 62.89 3
-3 -4 9 62.69 2.6
2 4 -9 51.99 2.6
-2 -4 9 46.3 2.1
1 4 -9 25.4 2
-1 -4 9 27.5 1.6
0 4 -9 63.29 2.9
0 -4 9 68.89 2.6
-1 4 -9 244.48 7.9
1 -4 9 269.97 7.6
-2 4 -9 59.79 2.3
-2 4 -9 55.59 2.6
2 -4 9 54.99 2.3
-3 4 -9 -1 0.8
-3 4 -9 -0.7 1
3 -4 9 0.9 0.7
-4 4 -9 9.5 1.4
-4 4 -9 9.2 1.4
4 -4 9 10.5 1.2
-5 4 -9 10.1 1.3
-5 4 -9 8.6 1.3
5 -4 9 12.1 1.3
-6 4 -9 19.8 1.8
-6 4 -9 18 1.6
6 -4 9 18.6 1.5
-7 4 -9 71.99 3.1
-7 4 -9 68.59 2.9
7 -4 9 69.69 2.8
-8 4 -9 52.69 2.7
8 -4 9 54.39 2.5
-9 4 -9 6.1 1.5
9 -4 9 7.5 1.3
-10 4 -9 -0.9 1.3
10 -4 9 1 1.1
-11 4 -9 25.4 2.5
11 -4 9 24.1 2
-8 -3 9 3.2 1.7
-8 -3 9 0.8 1.4
-7 -3 9 16 1.8
-7 -3 9 21.7 2.1
-6 -3 9 63.79 2.9
-6 -3 9 72.29 3
5 3 -9 5.4 1.3
-5 -3 9 4.1 1.1
-5 -3 9 4.9 1.2
4 3 -9 7.9 1.4
-4 -3 9 5.5 1
3 3 -9 2.5 1.2
-3 -3 9 1.3 0.8
2 3 -9 6.1 1.3
-2 -3 9 7.6 1
1 3 -9 9.4 1.4
-1 -3 9 8.7 1.1
0 3 -9 83.69 3.3
0 -3 9 81.09 2.9
-1 3 -9 135.09 4.1
-1 3 -9 123.59 4.4
1 -3 9 126.79 4.1
-2 3 -9 102.09 3.4
-2 3 -9 91.39 3.6
2 -3 9 96.89 3.3
-3 3 -9 331.67 9.5
-3 3 -9 322.17 9.7
3 -3 9 326.07 9.4
-4 3 -9 67.99 2.6
-4 3 -9 61.99 2.7
4 -3 9 61.99 2.5
-5 3 -9 32.9 1.9
-5 3 -9 31.6 1.9
5 -3 9 32.4 1.7
-6 3 -9 15.4 1.5
-6 3 -9 16.6 1.6
6 -3 9 15 1.4
-7 3 -9 18.1 1.7
7 -3 9 19.3 1.5
7 -3 9 17 1.2
-8 3 -9 -0.3 1
8 -3 9 0.1 0.8
-9 3 -9 21.5 2
9 -3 9 23.7 1.7
-10 3 -9 15.4 2.1
10 -3 9 14.1 1.6
-11 3 -9 4 1.5
11 -3 9 4.4 1.3
-8 -2 9 -0.2 1.1
-8 -2 9 -1.9 1.2
-7 -2 9 5.1 1.2
-7 -2 9 4.6 1.3
-6 -2 9 56.09 2.5
-6 -2 9 51.19 2.5
5 2 -9 138.09 4.6
-5 -2 9 122.79 4.3
-5 -2 9 126.09 4.3
4 2 -9 330.77 9.7
-4 -2 9 316.07 9.3
-4 -2 9 315.37 9.3
3 2 -9 32.6 1.9
-3 -2 9 32.3 1.6
-3 -2 9 31.4 1.7
2 2 -9 35.3 2
-2 -2 9 36.1 1.7
1 2 -9 26 1.4
1 2 -9 23.4 1.7
-1 -2 9 26.3 1.4
0 2 -9 31.5 1.9
0 2 -9 34.4 1.6
0 -2 9 31.4 1.5
-1 2 -9 13 1.4
-1 2 -9 14.4 1.2
1 -2 9 11.9 1.1
-2 2 -9 429.46 11.6
-2 2 -9 388.86 11.8
2 -2 9 407.86 11.5
-3 2 -9 2.6 1
-3 2 -9 3.6 0.9
3 -2 9 3.2 0.8
-4 2 -9 43 2
-4 2 -9 42.9 2.1
4 -2 9 44.3 1.9
-5 2 -9 0.2 0.9
-5 2 -9 -0.2 0.9
5 -2 9 0.5 0.7
-6 2 -9 108.59 3.9
6 -2 9 109.79 3.7
6 -2 9 107.89 3.6
-7 2 -9 60.79 2.7
7 -2 9 59.69 2.2
7 -2 9 57.69 2.4
-8 2 -9 0.9 1
8 -2 9 1.5 0.8
-9 2 -9 12.7 1.8
9 -2 9 12.9 1.4
-10 2 -9 -0.2 1.2
10 -2 9 0.8 1
-11 2 -9 24.8 2.4
11 -2 9 23.9 1.9
-12 2 -9 1.9 1.6
12 -2 9 -0.5 1.2
9 1 -9 25.9 2.1
-9 -1 9 29.3 2.4
8 1 -9 -0.3 1.1
-8 -1 9 -0.8 1.2
7 1 -9 12 1.6
-7 -1 9 15.5 1.7
-6 -1 9 6.8 1.1
-6 -1 9 8 1.2
5 1 -9 8.2 1.3
-5 -1 9 7.9 1.1
-5 -1 9 6.9 1.1
4 1 -9 35.7 2
-4 -1 9 34.5 1.7
-4 -1 9 33.5 1.7
3 1 -9 18 1.6
-3 -1 9 18.1 1.2
-3 -1 9 16.6 1.3
2 1 -9 97.89 3.2
2 1 -9 92.19 3.4
-2 -1 9 91.89 3
-2 -1 9 92.09 3.1
1 1 -9 15.9 1.2
1 1 -9 15.5 1.5
-1 -1 9 15 1.1
0 1 -9 17.2 1.2
0 1 -9 16.6 1.4
0 -1 9 14.5 1.1
-1 1 -9 26.2 1.6
-1 1 -9 25.4 1.5
1 -1 9 26.8 1.4
-2 1 -9 79.69 2.8
-2 1 -9 71.59 2.9
2 -1 9 74.79 2.6
-3 1 -9 1 0.7
-3 1 -9 0.4 0.8
3 -1 9 -0.8 0.6
-4 1 -9 100.59 3.5
-4 1 -9 100.69 3.5
4 -1 9 100.09 3.3
-5 1 -9 340.17 10.1
5 -1 9 355.66 9.9
5 -1 9 347.57 9.9
-6 1 -9 15.3 1.4
6 -1 9 12.3 1.1
6 -1 9 12.6 1
-7 1 -9 57.79 2.7
7 -1 9 63.79 2.3
7 -1 9 65.39 2.5
-8 1 -9 48.6 2.4
8 -1 9 45.9 2.1
-9 1 -9 4.9 1.2
9 -1 9 5.6 1.1
-10 1 -9 2.3 1.3
10 -1 9 2.1 1
-11 1 -9 94.19 4.1
11 -1 9 99.79 3.7
-12 1 -9 3.2 1.5
12 -1 9 1.6 1.2
9 0 -9 4.6 1.4
-9 0 9 7.7 1.6
8 0 -9 10.8 1.5
-8 0 9 8.3 1.5
7 0 -9 1 1
-7 0 9 1.9 1
6 0 -9 -0.5 0.9
-6 0 9 -1.1 0.8
5 0 -9 60.39 2.5
-5 0 9 59.39 2.4
-5 0 9 56.69 2.3
4 0 -9 166.58 5.2
-4 0 9 161.88 5
-4 0 9 153.48 4.9
3 0 -9 144.49 4.8
3 0 -9 148.89 4.6
-3 0 9 142.99 4.4
-3 0 9 144.39 4.5
2 0 -9 91.09 3.1
2 0 -9 86.99 3.2
-2 0 9 87.79 2.8
-2 0 9 87.09 2.9
1 0 -9 74.79 2.7
1 0 -9 76.39 2.9
-1 0 9 74.49 2.4
-1 0 9 74.39 2.6
0 0 -9 364.66 10
0 0 -9 340.77 10.1
0 0 9 341.87 9.8
-1 0 -9 123.49 4.2
-1 0 -9 132.49 4.1
1 0 9 127.69 3.9
-2 0 -9 49.6 2.1
-2 0 -9 49.7 2.2
2 0 9 49.8 1.9
-3 0 -9 139.19 4.4
-3 0 -9 136.29 4.5
3 0 9 139.69 4.2
-4 0 -9 -1 0.6
4 0 9 0.9 0.6
4 0 9 -0.6 0.4
-5 0 -9 2.4 0.8
5 0 9 1 0.7
5 0 9 1.1 0.5
-6 0 -9 206.08 6.4
6 0 9 211.08 6.2
6 0 9 211.78 6.3
-7 0 -9 24.2 1.7
7 0 9 22.6 1.4
7 0 9 22.7 1.3
-8 0 -9 2.8 1.1
8 0 9 2.1 0.6
8 0 9 1.3 0.8
-9 0 -9 5.9 1.2
9 0 9 7.9 1.1
-10 0 -9 0.2 1.1
10 0 9 0.3 0.9
-11 0 -9 3.9 1.4
11 0 9 0.9 1
-12 0 -9 4.9 1.6
12 0 9 6.4 1.4
-13 0 -9 3.9 1.9
10 -1 -9 1.2 1.3
9 -1 -9 0.1 1.1
-9 1 9 0.9 1.2
8 -1 -9 51.49 2.5
-8 1 9 55.29 2.7
7 -1 -9 5.1 1.1
-7 1 9 3.7 1.1
6 -1 -9 4.6 1
-6 1 9 3.1 1
5 -1 -9 174.38 5.4
-5 1 9 171.18 5.3
-5 1 9 177.88 5.5
-5 1 9 180.28 5.3
4 -1 -9 1 0.9
-4 1 9 1.8 0.7
-4 1 9 3.9 0.8
-4 1 9 1.9 0.7
3 -1 -9 105.29 3.7
3 -1 -9 108.59 3.6
-3 1 9 102.69 3.4
-3 1 9 105.89 3.4
2 -1 -9 315.27 9.3
2 -1 -9 323.57 9.2
-2 1 9 323.87 9
-2 1 9 315.37 9
1 -1 -9 112.79 3.9
1 -1 -9 118.69 3.8
-1 1 9 113.19 3.5
-1 1 9 116.39 3.5
0 -1 -9 15.3 1.3
0 -1 -9 15.8 1.2
0 1 9 14.9 0.8
0 1 9 14.4 0.9
-1 -1 -9 258.67 7.6
1 1 9 260.87 7.6
1 1 9 260.07 7.4
-2 -1 -9 19.6 1.3
2 1 9 17.6 1
2 1 9 16.6 1.1
-3 -1 -9 14.9 1.2
3 1 9 15.5 1
3 1 9 15.9 1
-4 -1 -9 40.8 1.9
4 1 9 44.1 1.8
4 1 9 41.8 1.7
-5 -1 -9 2.2 0.9
5 1 9 2.8 0.7
5 1 9 3.1 0.6
-6 -1 -9 467.25 13.5
6 1 9 488.95 13.4
6 1 9 473.55 13.3
-7 -1 -9 40.4 2.1
7 1 9 42.4 1.8
7 1 9 44.6 1.8
-8 -1 -9 12.5 1.5
8 1 9 11.2 1.2
8 1 9 10 1.1
-9 -1 -9 11.4 1.6
9 1 9 13.7 1.3
-10 -1 -9 9.3 1.5
10 1 9 9.8 1.3
-11 -1 -9 37.8 2.4
11 1 9 36.8 2.1
-12 -1 -9 28.6 2.4
12 1 9 22.8 2
-13 -1 -9 19.3 2.3
13 1 9 19.5 2.1
10 -2 -9 -0.6 1
9 -2 -9 7.5 1.3
-9 2 9 10.8 1.6
8 -2 -9 12 1.4
-8 2 9 11.3 1.6
7 -2 -9 8.5 1.2
-7 2 9 7.1 1.2
6 -2 -9 0.4 0.9
-6 2 9 0.2 0.7
-6 2 9 0.7 0.8
5 -2 -9 76.19 2.8
-5 2 9 74.79 2.8
-5 2 9 77.59 2.6
-5 2 9 77.99 2.8
4 -2 -9 1 0.7
-4 2 9 0.5 0.6
-4 2 9 0.2 0.6
-4 2 9 0.3 0.4
-3 2 9 246.98 7.2
-3 2 9 243.38 7.1
-3 2 9 243.38 7
2 -2 -9 244.38 7
2 -2 -9 242.68 7.2
-2 2 9 249.48 7.1
-2 2 9 241.88 7
1 -2 -9 0.4 0.5
1 -2 -9 0.4 0.7
-1 2 9 0.2 0.4
-1 2 9 1.1 0.5
0 -2 -9 18.3 1.2
0 -2 -9 17.8 0.9
0 2 9 15 0.9
0 2 9 16.4 1
-1 -2 -9 29.8 1.5
1 2 9 28.9 1.4
1 2 9 28.2 1.2
-2 -2 -9 80.39 2.8
2 2 9 76.89 2.7
2 2 9 78.69 2.5
-3 -2 -9 3.1 0.8
3 2 9 4.5 0.6
3 2 9 3.1 0.6
-4 -2 -9 602.14 16.8
4 2 9 609.54 16.6
4 2 9 600.74 16.8
-5 -2 -9 15.7 1.3
5 2 9 15.2 1
5 2 9 17.5 1.1
-6 -2 -9 11.8 1.3
6 2 9 11 0.9
6 2 9 12.3 1
-7 -2 -9 30.2 1.8
7 2 9 32.4 1.6
7 2 9 32.5 1.6
-8 -2 -9 222.28 6.9
8 2 9 222.58 6.7
8 2 9 222.98 6.6
-9 -2 -9 1 1
9 2 9 0.3 0.8
-10 -2 -9 21.5 1.9
10 2 9 21.6 1.6
-11 -2 -9 2.8 1.3
11 2 9 3.1 1.1
-12 -2 -9 14 2
12 2 9 17.2 1.8
-13 -2 -9 4.3 1.6
13 2 9 3.6 1.3
9 -3 -9 11.8 1.6
-9 3 9 9.7 1.5
8 -3 -9 7.9 1.3
-8 3 9 6.5 1.2
7 -3 -9 31.6 1.8
-7 3 9 30.6 1.8
-7 3 9 30.4 1.9
6 -3 -9 146.19 4.7
-6 3 9 147.59 4.8
-6 3 9 150.98 4.8
5 -3 -9 19.3 1.3
-5 3 9 20.9 1.4
4 -3 -9 196.48 6
4 -3 -9 198.88 5.9
-4 3 9 203.88 5.9
-4 3 9 199.78 6
3 -3 -9 87.79 3
-3 3 9 93.99 3
-3 3 9 90.59 2.9
-3 3 9 89.19 3.1
2 -3 -9 2.7 0.7
2 -3 -9 2.2 0.8
-2 3 9 1.1 0.5
-2 3 9 1.5 0.5
1 -3 -9 652.73 17.7
1 -3 -9 636.84 17.9
-1 3 9 651.63 17.6
-1 3 9 644.64 17.9
0 -3 -9 577.34 16
0 -3 -9 588.64 15.7
0 3 9 559.04 16
0 3 9 577.44 15.7
-1 -3 -9 44.6 1.8
-1 -3 -9 44.9 1.5
1 3 9 42.2 1.5
1 3 9 40.4 1.7
-2 -3 -9 106.99 3
-2 -3 -9 98.79 3.3
2 3 9 94.79 3.3
2 3 9 104.49 3
-3 -3 -9 333.87 9.6
3 3 9 333.97 9.6
3 3 9 343.77 9.4
-4 -3 -9 2.6 0.7
4 3 9 2.7 0.6
4 3 9 1 0.5
-5 -3 -9 35.9 1.8
5 3 9 39.6 1.6
5 3 9 39.9 1.7
-6 -3 -9 0.8 0.7
6 3 9 1 0.7
6 3 9 1.6 0.7
-7 -3 -9 22.5 1.6
7 3 9 23.1 1.4
7 3 9 25.1 1.5
-8 -3 -9 112.19 3.9
8 3 9 108.19 3.6
8 3 9 106.79 3.7
-9 -3 -9 34.2 2.1
9 3 9 32.8 1.8
-10 -3 -9 15.2 1.7
10 3 9 16.9 1.5
-11 -3 -9 153.48 5.2
11 3 9 147.19 5
-12 -3 -9 20.3 2.1
12 3 9 22 1.9
-13 -3 -9 2.9 1.5
13 3 9 1.4 1.3
-10 4 9 -1.5 1.3
-9 4 9 2.6 1.2
-8 4 9 1.2 1
-8 4 9 0.3 1
7 -4 -9 0.9 0.9
-7 4 9 2.8 1
-7 4 9 0.4 1
6 -4 -9 161.08 5.3
6 -4 -9 162.18 5
-6 4 9 166.68 5.3
5 -4 -9 14.7 1.4
5 -4 -9 16.3 1.1
-5 4 9 17.7 1.4
4 -4 -9 57.79 2.1
4 -4 -9 54.89 2.3
-4 4 9 60.39 2.1
-4 4 9 56.39 2.3
3 -4 -9 42.3 1.9
-3 4 9 44.8 1.6
-3 4 9 44 1.9
-3 4 9 42.3 1.7
2 -4 -9 11 1
2 -4 -9 11.1 1.1
-2 4 9 12.1 0.9
-2 4 9 12.1 0.8
1 -4 -9 183.88 5.3
1 -4 -9 183.48 5.5
-1 4 9 182.38 5.1
-1 4 9 179.98 5.4
0 -4 -9 14.8 1
0 -4 -9 13.1 1.1
0 4 9 12.9 0.9
0 4 9 13.6 0.7
-1 -4 -9 166.08 5.1
1 4 9 169.28 4.7
1 4 9 162.08 5
-2 -4 -9 167.28 4.7
-2 -4 -9 163.38 5
2 4 9 156.48 5
2 4 9 171.68 4.7
-3 -4 -9 128.99 3.8
-3 -4 -9 122.19 4.1
3 4 9 133.59 3.8
3 4 9 133.29 4.1
-4 -4 -9 29 1.2
-4 -4 -9 31.1 1.6
4 4 9 29.2 1.5
4 4 9 31.6 1.2
-5 -4 -9 157.88 4.6
-5 -4 -9 155.58 5
5 4 9 160.38 5
5 4 9 167.88 4.7
-6 -4 -9 97.99 3.2
-6 -4 -9 108.49 3.6
6 4 9 103.39 3.5
6 4 9 109.09 3.3
-7 -4 -9 54.79 2.4
7 4 9 55.39 2.3
7 4 9 55.19 2.1
-8 -4 -9 9.2 1.3
8 4 9 8.8 1.1
8 4 9 9.5 1.1
-9 -4 -9 0.4 1
9 4 9 1.4 0.9
-10 -4 -9 11 1.5
10 4 9 12.4 1.4
-11 -4 -9 10.1 1.5
11 4 9 7.6 1.2
-12 -4 -9 37.8 2.4
12 4 9 31.4 2.2
13 4 9 112.69 4.3
-10 5 9 4.2 1.8
-9 5 9 -1.1 1.2
-9 5 9 0.1 1.1
-8 5 9 -0.3 1
-8 5 9 -0.3 0.9
7 -5 -9 19.7 1.7
-7 5 9 17.4 1.7
6 -5 -9 32 1.9
-6 5 9 31.9 1.9
5 -5 -9 116.89 4
-5 5 9 122.59 4.1
4 -5 -9 30.2 1.6
-4 5 9 30.8 1.7
-4 5 9 30.4 1.4
3 -5 -9 8 1
-3 5 9 7.1 0.7
-3 5 9 8 1.1
2 -5 -9 190.48 6
2 -5 -9 190.38 5.9
-2 5 9 224.78 5.8
-2 5 9 193.28 5.9
1 -5 -9 7 0.9
1 -5 -9 7 0.9
-1 5 9 5.5 0.7
0 -5 -9 16.8 1.1
0 -5 -9 17.2 1.2
0 5 9 17.2 1
-1 -5 -9 1214.68 32.2
-1 -5 -9 1160.08 32.4
1 5 9 1194.88 32.5
-2 -5 -9 96.39 3
-2 -5 -9 93.49 3.2
2 5 9 99.19 3.3
-3 -5 -9 12.1 0.8
-3 -5 -9 14.5 1.1
3 5 9 12.1 1.1
3 5 9 13.7 0.8
-4 -5 -9 425.16 12.1
-4 -5 -9 420.56 11.9
4 5 9 446.46 11.8
4 5 9 426.26 12.2
-5 -5 -9 290.97 8.6
-5 -5 -9 318.17 9
5 5 9 305.07 8.9
5 5 9 320.87 8.6
-6 -5 -9 5 0.9
-6 -5 -9 5.7 0.8
6 5 9 5.1 0.9
6 5 9 5.3 0.8
-7 -5 -9 1.5 0.7
-7 -5 -9 1 0.8
7 5 9 1.8 0.7
7 5 9 0.4 0.8
-8 -5 -9 15.6 1.4
-8 -5 -9 14 1.4
8 5 9 16.2 1.3
8 5 9 14.8 1.4
-9 -5 -9 43.7 2.3
9 5 9 53.59 3.1
9 5 9 46.1 2
-10 -5 -9 3.9 1.1
10 5 9 4.7 1
-11 -5 -9 8.9 1.4
11 5 9 7.6 1.3
12 5 9 2.4 1.2
-10 6 9 7 1.8
-9 6 9 29.4 2.2
-9 6 9 22.4 2.3
8 -6 -9 11.5 1.6
-8 6 9 9.9 1.5
7 -6 -9 17 1.7
-7 6 9 21.5 1.8
6 -6 -9 1.6 1
-6 6 9 1.6 1
5 -6 -9 379.86 11
-5 6 9 382.86 11.1
4 -6 -9 122.89 4.1
-4 6 9 119.59 3.8
-4 6 9 127.39 4.1
3 -6 -9 21.1 1.4
-3 6 9 21.5 1.2
-3 6 9 21.1 1.4
2 -6 -9 8.3 1
-2 6 9 9.4 1
-2 6 9 8.4 1.1
1 -6 -9 9.5 1
1 -6 -9 8.4 1
-1 6 9 10.7 1
0 -6 -9 125.39 4.1
0 -6 -9 133.99 4
0 6 9 129.39 4.1
-1 -6 -9 332.67 9.8
-1 -6 -9 348.67 9.6
1 6 9 345.67 9.8
-2 -6 -9 249.48 7.6
-2 -6 -9 271.77 7.4
2 6 9 258.37 7.6
-3 -6 -9 261.87 7.4
-3 -6 -9 259.37 7.6
3 6 9 259.07 7.6
-4 -6 -9 311.07 8.8
-4 -6 -9 308.37 9
4 6 9 310.27 9.1
4 6 9 324.47 8.7
-5 -6 -9 242.48 7.1
-5 -6 -9 229.08 6.8
5 6 9 242.68 6.7
5 6 9 235.18 7.1
-6 -6 -9 35.4 1.7
-6 -6 -9 29.8 1.6
6 6 9 33.3 1.8
6 6 9 34.1 1.5
-7 -6 -9 116.49 3.9
-7 -6 -9 122.19 4
7 6 9 119.19 4.1
7 6 9 123.19 3.8
-8 -6 -9 10.5 1.3
-8 -6 -9 7.7 1.1
8 6 9 7 1
8 6 9 8 1.2
-9 -6 -9 4.1 1.1
-9 -6 -9 3.8 1.1
9 6 9 4 1.1
9 6 9 2.8 0.9
-10 -6 -9 24.9 1.8
10 6 9 26.2 1.7
11 6 9 43.4 2.3
12 6 9 16.5 1.8
13 6 9 2.2 2.1
-10 7 9 10 2
9 -7 -9 12.3 1.7
-9 7 9 8.3 1.7
8 -7 -9 39.1 2.3
-8 7 9 33 2.3
7 -7 -9 -0.7 0.9
-7 7 9 0.6 1.1
6 -7 -9 129.79 4.5
-6 7 9 135.49 4.6
5 -7 -9 30 1.8
-5 7 9 29 1.8
4 -7 -9 226.58 6.8
-4 7 9 232.58 6.9
-4 7 9 216.48 6.5
3 -7 -9 2.5 0.9
-3 7 9 3.8 0.9
-3 7 9 3.2 0.7
2 -7 -9 4.2 0.8
-2 7 9 4.8 0.8
-2 7 9 2.3 0.8
1 -7 -9 409.96 11.9
1 -7 -9 426.36 11.9
-1 7 9 423.56 11.8
0 -7 -9 55.19 2.1
0 -7 -9 50.69 2.1
0 7 9 53.59 2.2
-1 -7 -9 12.3 1
-1 -7 -9 10 1
1 7 9 11.8 1.1
-2 -7 -9 30.7 1.6
-2 -7 -9 33 1.4
2 7 9 30.6 1.6
-3 -7 -9 0.6 0.6
-3 -7 -9 1.4 0.6
3 7 9 1 0.7
-4 -7 -9 0.3 0.7
-4 -7 -9 0.1 0.6
4 7 9 0.6 0.7
-5 -7 -9 1.5 0.8
-5 -7 -9 0.9 0.6
5 7 9 2.4 0.9
-6 -7 -9 250.37 7.5
-6 -7 -9 239.38 7.3
6 7 9 278.67 7.6
6 7 9 240.18 7.5
-7 -7 -9 87.49 3.1
-7 -7 -9 84.89 3.1
7 7 9 81.39 3.2
7 7 9 83.49 2.8
-8 -7 -9 18.2 1.6
-8 -7 -9 16.9 1.4
8 7 9 17.5 1.6
8 7 9 16.4 1.3
-9 -7 -9 54.69 2.6
-9 -7 -9 57.59 2.7
9 7 9 60.19 2.4
9 7 9 57.19 2.6
-10 -7 -9 29.8 2.1
10 7 9 30.2 1.8
11 7 9 -0.7 1.1
12 7 9 1.2 1.3
9 -8 -9 -0.6 1.1
-9 8 9 0.6 1.5
8 -8 -9 9.4 1.4
-8 8 9 6.5 1.4
7 -8 -9 17.7 1.7
-7 8 9 19.7 1.9
6 -8 -9 4.8 1.1
-6 8 9 2.3 1.1
5 -8 -9 15.3 1.5
-5 8 9 16.6 1.5
4 -8 -9 39.3 2
-4 8 9 37.6 2
-4 8 9 38.8 2.3
3 -8 -9 381.06 10.7
-3 8 9 367.96 10.7
-3 8 9 358.26 10.5
2 -8 -9 245.28 7.1
-2 8 9 232.48 7.1
-2 8 9 238.38 7
1 -8 -9 354.46 10
-1 8 9 345.67 10
-1 8 9 347.87 10
0 -8 -9 2 0.7
0 -8 -9 3.2 0.8
0 8 9 1.8 0.7
-1 -8 -9 487.05 13.8
-1 -8 -9 496.65 13.7
1 8 9 484.95 13.8
-2 -8 -9 0.6 0.7
-2 -8 -9 1.2 0.7
2 8 9 0.5 0.8
-3 -8 -9 61.59 2.3
-3 -8 -9 64.29 2.4
3 8 9 62.89 2.5
-4 -8 -9 57.69 2.3
-4 -8 -9 59.39 2.3
4 8 9 61.39 2.5
-5 -8 -9 46.9 2
-5 -8 -9 45.9 2
5 8 9 45.3 2.2
-6 -8 -9 71.29 2.7
-6 -8 -9 74.29 2.7
6 8 9 67.59 2.8
-7 -8 -9 1.4 0.8
-7 -8 -9 1.3 0.8
7 8 9 0.9 1
-8 -8 -9 1.4 0.9
8 8 9 1.6 1.1
-9 -8 -9 37.5 2.2
9 8 9 36.3 2.2
-10 -8 -9 4.6 1.3
-11 -8 -9 4.4 1.4
9 -9 -9 3.1 1.4
-9 9 9 2.4 1.7
8 -9 -9 24.3 2
-8 9 9 22 2.2
7 -9 -9 9.6 1.5
-7 9 9 6.2 1.5
6 -9 -9 2 1.1
-6 9 9 1.6 1.1
5 -9 -9 3.8 1
-5 9 9 3.3 1.1
4 -9 -9 65.39 2.8
-4 9 9 68.79 2.8
3 -9 -9 126.19 4.2
-3 9 9 118.59 3.9
-3 9 9 120.79 4.1
2 -9 -9 4.8 1
-2 9 9 4.6 0.9
-2 9 9 3.5 0.9
1 -9 -9 571.94 15.5
-1 9 9 538.25 15.4
-1 9 9 544.35 15.4
0 -9 -9 16.7 1.2
0 9 9 17.1 1.4
0 9 9 16.5 1.3
-1 -9 -9 2.2 0.7
-1 -9 -9 1.1 0.7
1 9 9 1.2 0.8
-2 -9 -9 29.4 1.5
-2 -9 -9 25.3 1.5
2 9 9 26.2 1.6
-3 -9 -9 67.19 2.5
-3 -9 -9 60.99 2.4
3 9 9 67.39 2.7
-4 -9 -9 90.29 3.2
-4 -9 -9 95.69 3.2
4 9 9 94.09 3.5
-5 -9 -9 70.29 2.7
-5 -9 -9 73.99 2.7
5 9 9 71.69 3
-6 -9 -9 21 1.5
-6 -9 -9 18.6 1.3
6 9 9 15.5 1.6
-7 -9 -9 10.8 1.4
7 9 9 8.8 1.3
-8 -9 -9 46.6 2.4
8 9 9 53.69 2.6
-9 -9 -9 0 1
9 9 9 -0.1 1.2
-10 -9 -9 6.1 1.4
-11 -9 -9 51.69 2.8
8 -10 -9 3.9 1.4
-8 10 9 2.3 1.5
7 -10 -9 8.8 1.5
-7 10 9 6.8 1.7
6 -10 -9 15.7 1.7
-6 10 9 13.7 1.8
5 -10 -9 3.5 1.1
-5 10 9 0.7 1.1
4 -10 -9 44.4 2.3
-4 10 9 44.1 2.3
3 -10 -9 140.59 4.6
-3 10 9 133.49 4.4
-3 10 9 132.69 4.5
2 -10 -9 46.1 2.1
-2 10 9 42.2 2.1
-2 10 9 44.1 2.1
1 -10 -9 81.89 3.1
-1 10 9 80.09 3
-1 10 9 82.59 3
0 -10 -9 28.1 1.6
0 10 9 25.3 1.7
0 10 9 24.1 1.5
-1 -10 -9 83.49 3
1 10 9 82.59 3.2
-2 -10 -9 92.89 3.3
-2 -10 -9 93.99 3.2
2 10 9 93.09 3.5
-3 -10 -9 625.44 17
-3 -10 -9 600.04 17.1
3 10 9 607.04 17.3
-4 -10 -9 -0.2 0.7
-4 -10 -9 -0.4 0.7
4 10 9 0.6 1
-5 -10 -9 54.69 2.2
-5 -10 -9 52.09 2.3
5 10 9 50.39 2.5
-6 -10 -9 3 0.9
6 10 9 3.6 1.2
-7 -10 -9 62.79 2.7
7 10 9 59.69 2.9
-8 -10 -9 16.6 1.7
8 10 9 19 1.9
-9 -10 -9 0.2 1
9 10 9 0.5 1.1
-10 -10 -9 2.7 1.2
-11 -10 -9 0.3 1.2
8 -11 -9 -1.3 1.2
-8 11 9 -2.2 1.4
7 -11 -9 -1.1 1.1
-7 11 9 0 1.1
6 -11 -9 73.89 3.2
-6 11 9 68.19 3.2
5 -11 -9 45.3 2.4
-5 11 9 45.4 2.5
4 -11 -9 18.7 1.7
-4 11 9 15.9 1.6
3 -11 -9 51.49 2.4
-3 11 9 49 2.4
-3 11 9 46.8 2.2
2 -11 -9 30.9 1.8
-2 11 9 30.4 1.9
-2 11 9 31.4 1.9
1 -11 -9 32.9 1.8
-1 11 9 34.6 1.8
-1 11 9 31.4 1.9
0 -11 -9 224.18 6.8
0 11 9 221.38 6.7
0 11 9 219.88 6.9
-1 -11 -9 7.4 1.1
1 11 9 9.5 1.2
1 11 9 6.3 1.1
-2 -11 -9 1.6 0.8
2 11 9 1.1 0.7
2 11 9 2.9 1.1
-3 -11 -9 2.1 0.8
-3 -11 -9 1.7 0.7
3 11 9 1 1
-4 -11 -9 3.6 1
4 11 9 4.1 1.2
-5 -11 -9 2.1 0.9
5 11 9 2.9 1.2
-6 -11 -9 -0.7 0.8
6 11 9 0 1.1
-7 -11 -9 5.9 1.2
7 11 9 6 1.5
-8 -11 -9 23.8 1.9
8 11 9 16.3 2
-9 -11 -9 61.99 2.9
9 11 9 56.69 3
-10 -11 -9 2.5 1.2
7 -12 -9 8.9 1.6
-7 12 9 7.1 1.6
6 -12 -9 15.8 1.9
-6 12 9 14.6 1.8
5 -12 -9 3.8 1.3
-5 12 9 4.4 1.4
4 -12 -9 41 2.3
-4 12 9 39 2.3
3 -12 -9 28.7 1.9
-3 12 9 30.1 1.9
-3 12 9 33.4 2
2 -12 -9 -0.4 0.8
-2 12 9 -0.4 0.9
-2 12 9 -1.2 0.9
1 -12 -9 6 1.1
-1 12 9 4.2 1.2
-1 12 9 4.2 1.1
0 -12 -9 -0.5 0.8
0 12 9 -0.9 1
0 12 9 0.9 0.9
-1 -12 -9 50.69 2.4
1 12 9 54.29 2.3
1 12 9 50.49 2.6
-2 -12 -9 1.1 0.8
2 12 9 0.6 0.8
2 12 9 0.2 1
-3 -12 -9 5.1 1
3 12 9 4.1 1.3
-4 -12 -9 115.19 4
4 12 9 106.09 4.2
-5 -12 -9 22.5 1.7
5 12 9 20.1 2
-6 -12 -9 1 1
6 12 9 1.4 1.3
-7 -12 -9 3.4 1.1
7 12 9 0.8 1.3
-8 -12 -9 16.6 1.8
8 12 9 14.5 2
-9 -12 -9 -0.6 1.1
9 12 9 1.2 1.3
-7 13 9 3.8 2.1
6 -13 -9 20.8 2
-6 13 9 11 1.7
5 -13 -9 14.6 1.9
-5 13 9 12.9 1.8
4 -13 -9 41.5 2.5
-4 13 9 40.1 2.5
3 -13 -9 1.2 1.1
-3 13 9 -0.1 1.1
2 -13 -9 0.9 0.9
-2 13 9 0.9 1
-2 13 9 1.7 1
1 -13 -9 10.5 1.5
-1 13 9 11.6 1.6
-1 13 9 10.2 1.4
0 -13 -9 6.7 1.2
0 13 9 6.8 1.4
0 13 9 9.1 1.3
-1 -13 -9 74.19 3.1
1 13 9 73.79 3.3
1 13 9 76.89 3
-2 -13 -9 162.88 5.3
2 13 9 155.28 5.5
-3 -13 -9 17.6 1.6
3 13 9 17.6 1.9
-4 -13 -9 28.1 1.9
4 13 9 26.3 2.1
-5 -13 -9 0.8 1
5 13 9 2.2 1.3
-6 -13 -9 5 1.2
6 13 9 5 1.5
-7 -13 -9 16.3 1.8
7 13 9 14.2 2
-8 -13 -9 2.9 1.1
8 13 9 -0.2 1.3
9 13 9 10.2 2.2
-6 14 9 52.79 3.1
5 -14 -9 0.8 1.2
-5 14 9 0.9 1.2
4 -14 -9 -0.3 1.2
-4 14 9 2.9 1.5
3 -14 -9 -1.1 1
-3 14 9 0 1.1
2 -14 -9 -0.5 0.9
-2 14 9 -2 1
-2 14 9 0.9 1.2
1 -14 -9 5 1.2
-1 14 9 4.7 1.4
-1 14 9 2.8 1.1
0 -14 -9 15.3 1.6
0 14 9 15.3 1.9
-1 -14 -9 8.4 1.3
1 14 9 8.3 1.5
-2 -14 -9 0.7 1
2 14 9 -0.2 1.3
-3 -14 -9 2.7 1.1
3 14 9 2.4 1.4
-4 -14 -9 -0.1 1
4 14 9 -0.2 1.3
-5 -14 -9 26.1 2
5 14 9 18.3 2.2
-6 -14 -9 4.8 1.3
6 14 9 3.1 1.5
-7 -14 -9 4.9 1.3
7 14 9 3.9 1.6
-5 15 9 4.7 1.6
4 -15 -9 5.8 1.6
-4 15 9 5.8 1.5
3 -15 -9 43.2 2.6
2 -15 -9 7.1 1.3
-2 15 9 7.3 1.5
1 -15 -9 11.5 1.7
-1 15 9 8.7 1.6
0 -15 -9 7 1.3
0 15 9 7 1.7
-1 -15 -9 20.7 1.9
1 15 9 19.7 2.3
-2 -15 -9 -0.3 1
2 15 9 0.2 1.4
-3 -15 -9 8.8 1.4
3 15 9 6.9 1.7
-4 -15 -9 -0.5 1
4 15 9 -0.3 1.4
-5 -15 -9 0.6 1.1
5 15 9 2.1 1.5
-4 16 9 8.8 2.3
-2 16 9 21.8 3.3
1 -16 -9 28.4 2.2
-1 16 9 22.5 2.2
0 -16 -9 1.5 1.2
0 16 9 -0.1 1.6
-1 -16 -9 17.4 1.9
1 16 9 15.8 2.4
-2 -16 -9 5.8 1.3
2 16 9 5.1 1.8
0 8 -10 59.89 3.5
0 -8 10 62.99 2.9
-1 8 -10 0.2 1.6
1 -8 10 -1.4 1
-2 8 -10 1.2 1.7
2 -8 10 -0.8 1
-3 8 -10 4.8 1.8
3 -8 10 2.7 1.1
-4 8 -10 39.5 3
4 -8 10 42.1 2.4
-5 8 -10 65.99 3.6
5 -8 10 66.39 3
-6 8 -10 0.7 1.7
6 -8 10 1.3 1.5
3 7 -10 -0.6 1.5
2 7 -10 9.3 1.7
-2 -7 10 7.9 1.3
1 7 -10 -1 1.4
-1 -7 10 0.8 1.1
0 7 -10 11.1 1.8
0 -7 10 13.6 1.6
-1 7 -10 12.5 1.9
1 -7 10 14.4 1.6
-2 7 -10 9.9 1.8
2 -7 10 9 1.3
-3 7 -10 33.7 2.6
3 -7 10 35.1 2.1
-4 7 -10 28.3 2.5
4 -7 10 28.5 1.9
-5 7 -10 35 2.6
5 -7 10 35.5 2.1
-6 7 -10 2.5 1.5
6 -7 10 0.5 1
-7 7 -10 70.39 3.4
7 -7 10 67.59 3.1
-8 7 -10 3.9 1.5
5 6 -10 1.7 1.6
4 6 -10 5.8 1.7
-4 -6 10 4.8 1.3
3 6 -10 4.3 1.6
-3 -6 10 3 1.2
2 6 -10 28 2.5
-2 -6 10 29.1 1.9
1 6 -10 54.49 3.1
-1 -6 10 57.59 2.6
0 6 -10 41.4 2.7
0 -6 10 47.8 2.3
-1 6 -10 25.9 2.3
1 -6 10 27.4 1.9
-2 6 -10 169.28 6.1
2 -6 10 179.78 5.7
-3 6 -10 31 2.3
3 -6 10 34.3 2
-4 6 -10 29.7 2.3
4 -6 10 30.3 1.9
-5 6 -10 44 2.7
5 -6 10 45.4 2.3
-6 6 -10 0 1.3
-6 6 -10 2.5 1.3
6 -6 10 -0.5 0.9
-7 6 -10 12.2 1.7
7 -6 10 16.1 1.7
-8 6 -10 8.4 1.6
8 -6 10 4.5 1.2
-9 6 -10 2.8 1.5
9 -6 10 1.6 1.1
5 5 -10 -2 1.2
-5 -5 10 0.2 1.1
4 5 -10 13.1 2
-4 -5 10 13.2 1.6
3 5 -10 17.9 2.1
-3 -5 10 18.1 1.7
2 5 -10 10.8 1.7
-2 -5 10 14.3 1.5
1 5 -10 5.2 1.4
-1 -5 10 5.6 1.1
0 5 -10 30.3 2.3
0 -5 10 30.5 1.8
-1 5 -10 0.2 1.1
1 -5 10 0.8 0.8
-2 5 -10 19.9 2
2 -5 10 24.4 1.6
-3 5 -10 2.5 1.2
3 -5 10 2.8 0.9
-4 5 -10 43.2 2.2
-4 5 -10 40.9 2.5
4 -5 10 43.1 2.1
-5 5 -10 113.89 4
-5 5 -10 104.49 4.1
5 -5 10 108.09 3.9
-6 5 -10 1.9 1.2
-6 5 -10 0.6 1.2
6 -5 10 1.6 1
-7 5 -10 13.8 1.8
-7 5 -10 18.9 2
7 -5 10 17.3 1.7
-8 5 -10 48.4 2.7
8 -5 10 46.1 2.5
-9 5 -10 61.99 3.2
9 -5 10 63.39 2.9
-10 5 -10 39.5 2.8
10 -5 10 37.7 2.3
-6 -4 10 58.89 2.9
5 4 -10 37.8 2.6
-5 -4 10 35.7 2.2
4 4 -10 15.4 2
-4 -4 10 13.7 1.5
3 4 -10 0.2 1.2
-3 -4 10 1.9 0.9
2 4 -10 11.8 1.8
-2 -4 10 9.7 1.2
1 4 -10 1.9 1.2
-1 -4 10 3.3 0.9
0 4 -10 -0.5 1
0 -4 10 -0.7 0.8
-1 4 -10 0.2 1
1 -4 10 0.3 0.8
-2 4 -10 49.4 2.6
2 -4 10 47.9 2.2
-3 4 -10 290.67 8.4
-3 4 -10 269.27 8.6
3 -4 10 285.17 8.4
-4 4 -10 270.17 8.3
-4 4 -10 276.67 8.5
4 -4 10 278.07 8.2
-5 4 -10 30.8 1.9
-5 4 -10 27.3 2
5 -4 10 27.5 1.7
-6 4 -10 64.29 2.9
-6 4 -10 65.99 2.9
6 -4 10 60.89 2.7
-7 4 -10 1.8 1.2
7 -4 10 1.6 0.9
7 -4 10 1.4 0.7
-8 4 -10 32.8 2.3
8 -4 10 27.7 1.9
-9 4 -10 4.3 1.4
9 -4 10 5.4 1.3
-10 4 -10 3.2 1.4
10 -4 10 2 1.2
-7 -3 10 5.3 1.4
-6 -3 10 5 1.3
5 3 -10 32.5 2.4
-5 -3 10 29.8 2
4 3 -10 45.7 2.6
-4 -3 10 43.6 2.2
3 3 -10 36.9 2.3
-3 -3 10 38.1 2
2 3 -10 59.79 2.9
-2 -3 10 61.79 2.5
1 3 -10 9.7 1.4
-1 -3 10 9.5 1.2
0 3 -10 67.19 3
0 -3 10 75.39 2.8
-1 3 -10 0 0.8
-1 3 -10 0.2 1
1 -3 10 -0.3 0.7
-2 3 -10 10 1.5
-2 3 -10 11 1.4
2 -3 10 10.8 1.2
-3 3 -10 83.19 3
-3 3 -10 76.79 3.2
3 -3 10 78.99 2.9
-4 3 -10 8.9 1.3
-4 3 -10 8 1.3
4 -3 10 6.8 1
-5 3 -10 187.38 5.9
-5 3 -10 185.68 6
5 -3 10 187.08 5.8
-6 3 -10 2.6 1.1
-6 3 -10 1.9 1.1
6 -3 10 1.5 0.9
-7 3 -10 33.5 2.2
7 -3 10 32.4 1.6
7 -3 10 32.5 1.9
-8 3 -10 1.3 1.2
8 -3 10 2.5 1
-9 3 -10 1.5 1.3
9 -3 10 1.1 1
-10 3 -10 113.59 4.6
10 -3 10 121.09 4.3
-11 3 -10 0.1 1.4
11 -3 10 1 1.2
-8 -2 10 18.6 2.3
-7 -2 10 54.49 2.7
-7 -2 10 54.99 3.5
-6 -2 10 22.5 1.9
5 2 -10 16 1.9
-5 -2 10 16.1 1.6
4 2 -10 39.4 2.4
-4 -2 10 39.6 2
3 2 -10 59.69 2.8
-3 -2 10 56.29 2.4
2 2 -10 9.2 1.4
-2 -2 10 9 1.1
1 2 -10 42.5 2.3
-1 -2 10 42.6 1.9
0 2 -10 33.4 2
0 2 -10 33.1 1.7
0 -2 10 30.1 1.6
-1 2 -10 88.49 3
-1 2 -10 80.29 3.2
1 -2 10 77.49 2.9
-2 2 -10 163.08 5.6
-2 2 -10 183.08 5.4
2 -2 10 170.08 5.3
-3 2 -10 16.4 1.4
-3 2 -10 14 1.5
3 -2 10 13.7 1.2
-4 2 -10 54.09 2.5
-4 2 -10 59.29 2.5
4 -2 10 52.89 2.2
-5 2 -10 18.3 1.6
-5 2 -10 16.3 1.6
5 -2 10 15.9 1.3
-6 2 -10 9.9 1.4
6 -2 10 8.5 1
6 -2 10 10 1.2
-7 2 -10 6.6 1.3
7 -2 10 6 0.9
7 -2 10 6.8 1
-8 2 -10 201.08 6.6
8 -2 10 201.48 6.3
-9 2 -10 1.2 1.2
9 -2 10 1.4 1
-10 2 -10 5.6 1.5
10 -2 10 7.2 1.3
-11 2 -10 0.9 1.4
11 -2 10 2 1.1
-8 -1 10 2.1 1.2
-8 -1 10 -0.1 1.3
-7 -1 10 35.6 2.2
-7 -1 10 32.2 2.1
-6 -1 10 -0.4 0.9
-6 -1 10 0.7 1
5 1 -10 67.09 3
-5 -1 10 65.39 2.7
-5 -1 10 61.69 2.6
4 1 -10 -0.2 1.1
-4 -1 10 0.3 1
-4 -1 10 0.6 0.8
3 1 -10 -0.8 1
-3 -1 10 -0.8 0.7
2 1 -10 59.29 2.7
-2 -1 10 58.99 2.3
1 1 -10 2.5 1
1 1 -10 1.6 0.8
-1 -1 10 1.6 0.7
0 1 -10 135.79 4.2
0 1 -10 122.59 4.3
0 -1 10 120.89 4
-1 1 -10 54.29 2.2
-1 1 -10 47.1 2.3
1 -1 10 49.3 2
-2 1 -10 7.6 1.1
-2 1 -10 6.4 1.1
2 -1 10 7 0.9
-3 1 -10 68.49 2.6
-3 1 -10 66.39 2.8
3 -1 10 67.19 2.5
-4 1 -10 128.69 4.3
-4 1 -10 123.89 4.3
4 -1 10 126.89 4
-5 1 -10 17.9 1.6
5 -1 10 17.6 1.3
5 -1 10 15.5 1.1
-6 1 -10 2 1
6 -1 10 1.9 0.8
6 -1 10 2.2 0.6
-7 1 -10 32 2
7 -1 10 30.5 1.7
7 -1 10 31.9 1.6
-8 1 -10 9 1.4
8 -1 10 10 1.3
8 -1 10 11.2 1.1
-9 1 -10 1.5 1.1
9 -1 10 -0.8 0.9
-10 1 -10 19.5 2.1
10 -1 10 18.1 1.6
-11 1 -10 5.4 1.5
11 -1 10 6.2 1.3
-12 1 -10 10.2 1.9
12 -1 10 12.6 1.7
-8 0 10 4.8 1.4
-7 0 10 0.5 1
-7 0 10 -0.3 1
-6 0 10 8.1 1.2
-6 0 10 5.5 1.1
5 0 -10 61.19 2.7
-5 0 10 54.99 2.4
-5 0 10 59.49 2.4
4 0 -10 58.59 2.6
-4 0 10 58.39 2.3
-4 0 10 57.69 2.3
3 0 -10 2.6 1
-3 0 10 3.5 0.8
-3 0 10 2.6 0.7
2 0 -10 50.39 2.1
2 0 -10 49.5 2.3
-2 0 10 49.2 2
1 0 -10 23.3 1.5
1 0 -10 19.7 1.6
-1 0 10 22.9 1.3
0 0 -10 1.1 0.9
0 0 -10 -0.8 0.6
0 0 10 0.9 0.6
-1 0 -10 221.08 6.5
-1 0 -10 210.48 6.7
1 0 10 218.08 6.3
-2 0 -10 94.29 3.3
-2 0 -10 95.49 3.4
2 0 10 92.89 3.1
-3 0 -10 97.79 3.4
3 0 10 94.99 3.3
3 0 10 99.59 3.2
-4 0 -10 2.7 0.9
4 0 10 2.5 0.6
4 0 10 4.1 0.8
-5 0 -10 12.6 1.3
5 0 10 12.2 1.1
5 0 10 14.9 1.1
-6 0 -10 213.78 6.8
6 0 10 224.28 6.6
6 0 10 231.08 6.7
-7 0 -10 0.3 0.9
7 0 10 0.6 0.8
7 0 10 0.5 0.5
-8 0 -10 8.8 1.3
8 0 10 6.8 0.9
8 0 10 8.3 1.1
-9 0 -10 13.4 1.7
9 0 10 10.1 1.3
-10 0 -10 21.9 2.1
10 0 10 21.7 1.7
-11 0 -10 11 1.8
11 0 10 9 1.4
-12 0 -10 26.9 2.5
12 0 10 26.1 2.1
9 -1 -10 2 1.2
-9 1 10 2.4 1.4
8 -1 -10 19.6 1.8
-8 1 10 21.3 2
7 -1 -10 46.8 2.4
-7 1 10 50.39 2.5
-6 1 10 -0.3 0.8
-5 1 10 5.8 1
-5 1 10 7.2 0.8
-5 1 10 6 1
-4 1 10 18.7 1.3
-4 1 10 19.4 1.3
-4 1 10 21.5 1.2
-4 1 10 22 1.4
3 -1 -10 78.69 3.1
-3 1 10 76.69 2.7
-3 1 10 77.69 2.7
2 -1 -10 27 1.5
2 -1 -10 26.1 1.7
-2 1 10 24.2 1.3
-2 1 10 21.9 1.3
1 -1 -10 34.4 1.9
1 -1 -10 34.7 1.8
-1 1 10 30.3 1.5
-1 1 10 36.1 1.5
0 -1 -10 1.3 0.8
0 1 10 0.8 0.6
-1 -1 -10 10.1 1.2
1 1 10 11.2 0.9
1 1 10 9.6 0.9
-2 -1 -10 115.69 3.9
2 1 10 115.59 3.6
2 1 10 121.19 3.8
-3 -1 -10 21.1 1.5
3 1 10 20.9 1.2
3 1 10 20.5 1.2
-4 -1 -10 35.6 1.8
4 1 10 36 1.6
4 1 10 36.2 1.6
-5 -1 -10 194.08 6.2
5 1 10 200.68 5.9
5 1 10 202.48 6
-6 -1 -10 121.39 4.2
6 1 10 123.99 3.9
6 1 10 117.39 3.9
-7 -1 -10 21.8 1.7
7 1 10 22.2 1.3
7 1 10 19.9 1.4
-8 -1 -10 44.3 2.3
8 1 10 42.4 1.9
8 1 10 48.4 2.1
-9 -1 -10 43 2.4
9 1 10 37.1 2
-10 -1 -10 14.6 1.8
10 1 10 15.2 1.5
-11 -1 -10 7.9 1.6
11 1 10 8.8 1.4
-12 -1 -10 7.3 1.7
12 1 10 3.7 1.3
9 -2 -10 4.8 1.6
-9 2 10 3.5 1.4
8 -2 -10 19.5 1.8
-8 2 10 22.8 2
7 -2 -10 0.7 0.9
-7 2 10 -0.7 1
6 -2 -10 58.89 2.5
-6 2 10 64.09 2.6
-5 2 10 -0.1 0.6
-5 2 10 -0.3 0.7
-5 2 10 1.2 0.8
-4 2 10 9.1 1.1
-4 2 10 7 1
-4 2 10 7.7 1
-4 2 10 9.7 0.9
-3 2 10 50.79 1.9
-3 2 10 49.99 2
-3 2 10 49.9 2
2 -2 -10 33.7 1.7
-2 2 10 29.8 1.4
-2 2 10 34.4 1.4
-2 2 10 28.9 1.5
1 -2 -10 0.2 0.7
-1 2 10 1.2 0.5
-1 2 10 0 0.5
0 -2 -10 45 2
0 -2 -10 49.4 1.7
0 2 10 47.1 1.9
0 2 10 47 1.7
-1 -2 -10 46.6 2
1 2 10 49.4 1.7
1 2 10 48.8 2
-2 -2 -10 104.89 3.6
2 2 10 108.39 3.5
2 2 10 105.79 3.3
-3 -2 -10 185.48 5.7
3 2 10 181.18 5.6
3 2 10 184.28 5.4
-4 -2 -10 35.3 1.8
4 2 10 35.2 1.6
4 2 10 36.4 1.5
-5 -2 -10 9.4 1.2
5 2 10 11.5 1
5 2 10 9.6 1
-6 -2 -10 3.2 0.9
6 2 10 2.8 0.7
6 2 10 3.2 0.8
-7 -2 -10 80.89 3.2
7 2 10 81.39 2.9
7 2 10 82.79 2.9
-8 -2 -10 11.4 1.5
8 2 10 9.5 1.2
8 2 10 11.6 1.2
-9 -2 -10 14.8 1.7
9 2 10 12.7 1.3
-10 -2 -10 6.3 1.4
10 2 10 5.4 1.1
-11 -2 -10 3.6 1.4
11 2 10 4.7 1.2
-12 -2 -10 8.3 1.7
12 2 10 6.7 1.4
-13 -2 -10 14.5 2.1
-9 3 10 47.4 2.7
-8 3 10 -1.5 1
7 -3 -10 3.2 1
-7 3 10 3.3 1.1
6 -3 -10 79.79 3
-6 3 10 81.89 3.1
-6 3 10 77.79 3
5 -3 -10 10.1 1.2
-5 3 10 12.7 1.3
-5 3 10 14.8 1.3
4 -3 -10 51.39 2.2
-4 3 10 54.69 2
-4 3 10 52.59 2.2
-4 3 10 53.69 2
3 -3 -10 1.6 0.8
-3 3 10 2 0.6
-3 3 10 1.1 0.6
-3 3 10 1.1 0.7
2 -3 -10 39.4 1.9
2 -3 -10 38.2 1.7
-2 3 10 37.4 1.5
-2 3 10 38.2 1.6
1 -3 -10 2.8 0.8
1 -3 -10 3.9 0.7
-1 3 10 3.1 0.6
-1 3 10 3.6 0.7
0 -3 -10 69.49 2.6
0 -3 -10 73.99 2.3
0 3 10 69.29 2.2
0 3 10 65.69 2.5
-1 -3 -10 44.6 1.6
-1 -3 -10 42.6 1.9
1 3 10 45.3 1.9
1 3 10 44.6 1.6
-2 -3 -10 63.19 2.4
2 3 10 64.29 2
2 3 10 56.59 2.3
-3 -3 -10 134.89 4.4
3 3 10 137.79 4
3 3 10 134.29 4.3
-4 -3 -10 3.6 0.9
4 3 10 3 0.6
4 3 10 1.9 0.6
-5 -3 -10 2.3 0.8
5 3 10 0.8 0.6
5 3 10 1.5 0.6
-6 -3 -10 426.16 12.2
6 3 10 440.66 11.9
6 3 10 407.96 12.1
-7 -3 -10 76.69 3.1
7 3 10 83.19 2.8
7 3 10 81.39 3
-8 -3 -10 6 1.2
8 3 10 4.8 1
8 3 10 4.3 0.9
-9 -3 -10 75.59 3.1
9 3 10 74.09 2.8
-10 -3 -10 2.7 1.2
10 3 10 2.4 1
-11 -3 -10 6.2 1.4
11 3 10 4.2 1.2
-12 -3 -10 64.69 3.3
12 3 10 68.79 3
-13 -3 -10 9.4 1.8
13 3 10 10.4 2.4
-9 4 10 15.8 2
-8 4 10 41.6 2.4
-8 4 10 42.4 3.6
-7 4 10 39.5 2.2
-7 4 10 37.7 2.2
-6 4 10 50.39 2.4
5 -4 -10 38 2
-5 4 10 38.6 2
4 -4 -10 1.7 0.8
-4 4 10 4.3 0.7
-4 4 10 4.7 0.9
-4 4 10 3.3 0.7
3 -4 -10 6.3 0.9
-3 4 10 6.6 1
-3 4 10 4.7 0.7
-3 4 10 7.1 0.8
2 -4 -10 91.19 3.3
2 -4 -10 95.29 3.1
-2 4 10 91.79 3.1
-2 4 10 91.19 2.9
1 -4 -10 4.2 0.7
1 -4 -10 3.8 0.8
-1 4 10 2.7 0.5
-1 4 10 4.9 0.7
0 -4 -10 98.49 3.4
0 -4 -10 101.49 3.1
0 4 10 94.79 3.3
0 4 10 95.79 2.9
-1 -4 -10 50.29 2.1
-1 -4 -10 53.59 1.8
1 4 10 48 2
1 4 10 51.79 1.7
-2 -4 -10 151.18 4.8
-2 -4 -10 159.98 4.5
2 4 10 146.29 4.8
2 4 10 157.38 4.4
-3 -4 -10 1684.03 45.2
-3 -4 -10 1657.43 45.6
3 4 10 1712.73 45.2
3 4 10 1658.63 45.6
-4 -4 -10 0.4 0.8
4 4 10 -0.1 0.5
4 4 10 0.2 0.5
-5 -4 -10 181.18 5.7
5 4 10 190.68 5.4
5 4 10 180.28 5.7
-6 -4 -10 8.2 1.2
6 4 10 8.9 1
6 4 10 7.5 1.2
-7 -4 -10 8.2 1.2
7 4 10 8.5 1
7 4 10 7.6 1.2
-8 -4 -10 30.7 1.9
8 4 10 29.8 1.6
8 4 10 30.6 1.8
-9 -4 -10 4.5 1.1
9 4 10 5.9 1
-10 -4 -10 18.8 1.9
10 4 10 15.4 1.5
-11 -4 -10 -1 1.1
11 4 10 -0.1 1
-12 -4 -10 44.3 2.8
12 4 10 51.19 2.6
13 4 10 16.2 2.2
-9 5 10 1 1.3
-8 5 10 0.1 1.3
-8 5 10 0.1 1.1
7 -5 -10 58.79 2.7
-7 5 10 59.79 2.8
6 -5 -10 84.29 3.3
-6 5 10 87.49 3.3
5 -5 -10 10.9 1.3
-5 5 10 11 1.3
4 -5 -10 139.39 4.5
-4 5 10 136.49 4.2
-4 5 10 137.99 4.5
3 -5 -10 34.2 1.7
-3 5 10 32.4 1.5
-3 5 10 34.1 1.8
2 -5 -10 18.3 1.4
2 -5 -10 20.1 1.3
-2 5 10 19.6 1.1
1 -5 -10 18.3 1.1
1 -5 -10 17.1 1.3
-1 5 10 17 1.1
0 -5 -10 0.9 0.7
0 -5 -10 1.1 0.6
0 5 10 1.1 0.5
-1 -5 -10 328.07 8.8
-1 -5 -10 310.17 9
1 5 10 296.87 9
-2 -5 -10 3.5 0.8
-2 -5 -10 5.3 0.7
2 5 10 5.7 0.7
2 5 10 4 0.8
-3 -5 -10 87.59 2.8
-3 -5 -10 88.29 3.1
3 5 10 91.89 2.7
3 5 10 87.89 3.2
-4 -5 -10 83.99 2.7
-4 -5 -10 86.19 3.1
4 5 10 85.89 2.6
4 5 10 82.49 3
-5 -5 -10 81.09 2.7
-5 -5 -10 89.09 3.1
5 5 10 86.79 2.7
5 5 10 84.59 3.1
-6 -5 -10 2 0.9
6 5 10 2.8 0.7
6 5 10 3.4 0.9
-7 -5 -10 23.7 1.7
7 5 10 26.4 1.4
7 5 10 27.4 1.6
-8 -5 -10 131.39 4.5
8 5 10 129.99 4.4
8 5 10 136.79 4.2
-9 -5 -10 31.7 2
9 5 10 27.8 1.8
9 5 10 32.3 1.7
-10 -5 -10 37.1 2.2
10 5 10 34.2 1.9
-11 -5 -10 42 2.5
11 5 10 41.3 2.2
12 5 10 43.9 2.4
13 5 10 29.5 3.3
-9 6 10 2.1 1.4
-9 6 10 3.1 1.5
8 -6 -10 1.5 1.1
-8 6 10 2.1 1.5
7 -6 -10 5.6 1.2
-7 6 10 6.9 1.4
6 -6 -10 37.2 2.1
-6 6 10 36.3 2.2
5 -6 -10 160.48 5.2
-5 6 10 160.88 5.3
4 -6 -10 64.89 2.5
-4 6 10 58.19 2.2
-4 6 10 58.79 2.5
3 -6 -10 4.1 0.9
-3 6 10 4.1 0.8
-3 6 10 5.2 1
2 -6 -10 46.9 2
2 -6 -10 45.2 2.1
-2 6 10 47.2 2
1 -6 -10 1.9 0.8
1 -6 -10 -0.2 0.6
-1 6 10 0.8 0.7
0 -6 -10 6.2 0.9
0 -6 -10 7.1 0.9
0 6 10 6.3 0.9
-1 -6 -10 60.99 2.4
-1 -6 -10 64.09 2.2
1 6 10 64.69 2.5
-2 -6 -10 2.9 0.8
-2 -6 -10 2.5 0.6
2 6 10 2.4 0.8
-3 -6 -10 99.59 3.4
-3 -6 -10 102.39 3.2
3 6 10 101.69 3.5
-4 -6 -10 202.88 5.8
-4 -6 -10 198.58 6.1
4 6 10 194.78 6.1
-5 -6 -10 293.07 8.7
-5 -6 -10 278.37 8.4
5 6 10 279.37 8.7
5 6 10 339.17 8.8
-6 -6 -10 18.1 1.1
-6 -6 -10 19.9 1.5
6 6 10 17.9 1.4
6 6 10 18.5 1.2
-7 -6 -10 181.18 5.6
-7 -6 -10 170.58 5.6
7 6 10 185.08 5.3
7 6 10 173.78 5.6
-8 -6 -10 54.19 2.5
8 6 10 54.49 2.5
8 6 10 55.19 2.2
-9 -6 -10 35.2 2.1
9 6 10 38.5 1.9
9 6 10 34.5 2
-10 -6 -10 53.19 2.6
10 6 10 53.99 2.4
11 6 10 1.2 1.1
12 6 10 12.8 1.6
9 -7 -10 8.8 1.5
-9 7 10 5.6 1.7
8 -7 -10 12.1 1.7
-8 7 10 12.4 1.9
7 -7 -10 21.9 1.8
-7 7 10 22.5 2
6 -7 -10 5.1 1.2
-6 7 10 3 1.2
5 -7 -10 0.7 0.9
-5 7 10 1.1 0.9
4 -7 -10 34.1 1.9
-4 7 10 36.6 2
-4 7 10 34.9 1.8
3 -7 -10 40 1.9
-3 7 10 41.9 1.8
-3 7 10 41.8 2
2 -7 -10 87.89 3.1
-2 7 10 81.99 3.1
-2 7 10 84.59 3
1 -7 -10 7.6 1
1 -7 -10 6.2 0.9
-1 7 10 5.4 0.9
0 -7 -10 57.79 2.3
0 -7 -10 58.59 2.2
0 7 10 59.29 2.3
-1 -7 -10 402.16 11.8
-1 -7 -10 423.66 11.6
1 7 10 412.86 11.8
-2 -7 -10 6.2 1
-2 -7 -10 7.1 0.9
2 7 10 5 0.9
-3 -7 -10 122.79 3.8
-3 -7 -10 118.39 4
3 7 10 119.39 4
-4 -7 -10 82.79 2.8
-4 -7 -10 81.89 3
4 7 10 81.49 3
-5 -7 -10 49.6 1.9
-5 -7 -10 50.19 2.2
5 7 10 47.1 2.2
-6 -7 -10 35.7 1.6
-6 -7 -10 36.2 1.9
6 7 10 33.8 1.9
-7 -7 -10 172.58 5.4
-7 -7 -10 180.48 5.6
7 7 10 172.58 5.6
-8 -7 -10 1.2 0.8
-8 -7 -10 0.5 0.9
8 7 10 -0.5 0.9
-9 -7 -10 0.8 1
9 7 10 -1 1
9 -8 -10 3.5 1.4
-9 8 10 2.9 1.6
8 -8 -10 17.8 1.9
-8 8 10 14.1 2
7 -8 -10 23.8 2
-7 8 10 27.1 2.2
6 -8 -10 52.09 2.5
-6 8 10 47.3 2.6
5 -8 -10 10.7 1.3
-5 8 10 8.4 1.3
4 -8 -10 3.1 1
-4 8 10 1.3 0.9
3 -8 -10 7.7 1.1
-3 8 10 6.7 1.1
-3 8 10 6.5 0.9
2 -8 -10 10.4 1.2
-2 8 10 7.2 1.1
-2 8 10 8 1.2
1 -8 -10 34.9 1.8
1 -8 -10 34 1.8
-1 8 10 35.7 1.8
0 -8 -10 234.58 7.1
0 -8 -10 241.18 7
0 8 10 234.98 7.1
-1 -8 -10 71.59 2.7
-1 -8 -10 76.19 2.6
1 8 10 69.69 2.7
-2 -8 -10 6 1
-2 -8 -10 7.1 1
2 8 10 6.3 1
-3 -8 -10 5 0.8
-3 -8 -10 5.2 0.9
3 8 10 4.4 1
-4 -8 -10 190.88 5.8
-4 -8 -10 190.68 5.7
4 8 10 187.88 6
-5 -8 -10 504.75 14.6
-5 -8 -10 538.25 14.7
5 8 10 523.15 14.9
-6 -8 -10 26.2 1.5
-6 -8 -10 27.2 1.7
6 8 10 26.3 1.8
-7 -8 -10 13 1.3
-7 -8 -10 10.9 1.3
7 8 10 11.2 1.5
-8 -8 -10 15.6 1.5
-8 -8 -10 16.8 1.5
8 8 10 16.1 1.7
-9 -8 -10 5.9 1.3
9 8 10 5.8 1.3
8 -9 -10 1.3 1.2
-8 9 10 0.9 1.3
7 -9 -10 47 2.5
-7 9 10 45.9 2.7
6 -9 -10 14.2 1.6
-6 9 10 15.5 1.8
5 -9 -10 0.9 1
-5 9 10 -0.1 1
4 -9 -10 1.6 0.9
-4 9 10 2.2 1
3 -9 -10 2.3 0.9
-3 9 10 1.6 0.9
-3 9 10 1.7 0.8
2 -9 -10 3.9 1
-2 9 10 3.5 0.9
-2 9 10 4 0.9
1 -9 -10 16.2 1.3
-1 9 10 14.5 1.3
-1 9 10 13.9 1.3
0 -9 -10 29.7 1.6
0 -9 -10 27.5 1.6
0 9 10 27.6 1.7
-1 -9 -10 49.8 2.1
-1 -9 -10 49.6 2.2
1 9 10 49.1 2.2
-2 -9 -10 6.2 0.9
-2 -9 -10 5.9 0.9
2 9 10 5.2 1
-3 -9 -10 20 1.4
-3 -9 -10 19.9 1.3
3 9 10 19.9 1.6
-4 -9 -10 15.8 1.3
-4 -9 -10 16.4 1.4
4 9 10 16.2 1.5
-5 -9 -10 62.19 2.4
-5 -9 -10 60.79 2.5
5 9 10 58.49 2.6
-6 -9 -10 356.06 10.2
-6 -9 -10 361.46 10.2
6 9 10 342.37 10.4
-7 -9 -10 35.7 1.9
-7 -9 -10 34.7 1.9
7 9 10 30.5 2.1
-8 -9 -10 16.2 1.6
8 9 10 15.1 1.7
-9 -9 -10 4.5 1.1
9 9 10 5.7 1.3
-10 -9 -10 3 1.2
8 -10 -10 106.39 4.3
-8 10 10 106.69 4.5
7 -10 -10 3.6 1.3
-7 10 10 1.9 1.4
6 -10 -10 101.49 3.9
-6 10 10 96.09 3.9
5 -10 -10 84.19 3.4
-5 10 10 79.49 3.4
4 -10 -10 10.4 1.5
-4 10 10 10.8 1.5
3 -10 -10 1.3 0.9
-3 10 10 0.4 0.9
-3 10 10 0.2 0.8
2 -10 -10 132.69 4.4
-2 10 10 127.89 4.3
-2 10 10 121.69 4.2
1 -10 -10 68.79 2.7
-1 10 10 68.09 2.7
-1 10 10 66.99 2.7
0 -10 -10 47.2 2.1
0 10 10 48.3 2.1
0 10 10 45 2.2
-1 -10 -10 39.4 1.9
-1 -10 -10 37.4 1.9
1 10 10 36.9 2
-2 -10 -10 0.7 0.8
-2 -10 -10 1.3 0.7
2 10 10 0.2 0.9
-3 -10 -10 4 0.9
-3 -10 -10 4 0.8
3 10 10 3.7 1.1
-4 -10 -10 0.5 0.8
-4 -10 -10 0.5 0.7
4 10 10 0.2 0.9
-5 -10 -10 29.3 1.7
-5 -10 -10 35 1.8
5 10 10 32.6 2.1
-6 -10 -10 58.89 3
-6 -10 -10 65.49 2.6
6 10 10 56.89 2.7
-7 -10 -10 11.9 1.4
7 10 10 10.6 1.7
-8 -10 -10 23.5 1.8
8 10 10 25.2 2.1
-9 -10 -10 1.5 1.1
9 10 10 2.8 1.3
-10 -10 -10 4 1.2
7 -11 -10 9.9 1.6
-7 11 10 3.6 1.4
6 -11 -10 41.8 2.5
-6 11 10 39.8 2.6
5 -11 -10 -0.1 1
-5 11 10 -0.7 1
4 -11 -10 13 1.6
-4 11 10 12.7 1.6
3 -11 -10 7.9 1.3
-3 11 10 6 1.1
-3 11 10 6 1.1
2 -11 -10 -0.3 0.9
-2 11 10 0.1 0.9
-2 11 10 0.3 0.9
1 -11 -10 0.6 0.8
-1 11 10 -0.1 1
-1 11 10 -0.6 0.9
0 -11 -10 157.28 5
0 11 10 151.78 5.1
0 11 10 154.08 5
-1 -11 -10 50.39 2.3
1 11 10 50.99 2.5
1 11 10 50.49 2.2
-2 -11 -10 9.5 1.2
-2 -11 -10 8.9 1.2
2 11 10 9.8 1.5
-3 -11 -10 64.99 2.6
-3 -11 -10 64.29 2.5
3 11 10 61.39 2.8
-4 -11 -10 81.69 3
-4 -11 -10 81.79 3
4 11 10 76.09 3.3
-5 -11 -10 69.29 2.8
5 11 10 65.09 3
-6 -11 -10 10.5 1.4
6 11 10 8 1.4
-7 -11 -10 90.39 3.5
7 11 10 89.19 3.8
-8 -11 -10 88.29 3.5
8 11 10 83.99 3.7
-9 -11 -10 32.9 2.2
9 11 10 31.4 2.3
-10 -11 -10 14.9 1.9
7 -12 -10 30.4 2.3
-7 12 10 22.6 2.3
6 -12 -10 32 2.3
-6 12 10 27.1 2.4
5 -12 -10 -0.2 1.1
-5 12 10 1.1 1.2
4 -12 -10 113.29 4.2
-4 12 10 105.39 4.1
3 -12 -10 -0.1 0.9
-3 12 10 0.3 1
-3 12 10 -0.6 1.2
2 -12 -10 8.3 1.2
-2 12 10 6.2 1.1
-2 12 10 6.3 1.2
1 -12 -10 72.89 3
-1 12 10 69.19 3
-1 12 10 71.19 2.9
0 -12 -10 1.3 0.8
0 12 10 0.1 1
0 12 10 0 0.9
-1 -12 -10 5.3 1.1
1 12 10 5.8 1
1 12 10 4.4 1.2
-2 -12 -10 69.29 2.8
2 12 10 63.49 2.9
2 12 10 69.49 2.7
-3 -12 -10 74.49 2.9
3 12 10 71.39 2.7
3 12 10 70.59 3.1
-4 -12 -10 6.4 1.1
4 12 10 4 1.3
-5 -12 -10 52.79 2.5
5 12 10 53.79 2.8
-6 -12 -10 11.1 1.5
6 12 10 12 1.9
-7 -12 -10 4.8 1.2
7 12 10 7.1 1.6
-8 -12 -10 4.9 1.2
8 12 10 3.5 1.4
-9 -12 -10 25.5 2.1
9 12 10 21.6 2.2
6 -13 -10 8.7 1.5
-6 13 10 6.3 1.5
5 -13 -10 7.2 1.5
-5 13 10 2.5 1.4
4 -13 -10 23.6 2
-4 13 10 20 2
3 -13 -10 39.8 2.3
-3 13 10 41 2.3
2 -13 -10 24.8 1.9
-2 13 10 27.6 1.9
-2 13 10 25.6 2
1 -13 -10 -1.1 0.7
-1 13 10 -0.9 1.1
-1 13 10 -1.9 0.8
0 -13 -10 11.5 1.4
0 13 10 10.5 1.4
0 13 10 13.4 1.7
-1 -13 -10 5 1.1
1 13 10 5.6 1.3
1 13 10 6.7 1.1
-2 -13 -10 11.8 1.5
2 13 10 9.3 1.5
-3 -13 -10 63.59 2.8
3 13 10 63.49 3.1
-4 -13 -10 8.4 1.3
4 13 10 6.5 1.5
-5 -13 -10 0.3 1
5 13 10 1 1.4
-6 -13 -10 7.6 1.3
6 13 10 2.5 1.3
-7 -13 -10 2.4 1.1
7 13 10 -0.9 1.3
-8 -13 -10 16.8 1.8
8 13 10 14.3 2.1
5 -14 -10 6.5 1.5
-5 14 10 5 1.7
4 -14 -10 4.6 1.4
-4 14 10 3.2 1.4
3 -14 -10 -0.5 1.1
-3 14 10 -0.6 1.1
2 -14 -10 28.6 2
-2 14 10 25.3 2
-2 14 10 27.8 2.1
1 -14 -10 75.09 3.2
-1 14 10 68.39 3.2
-1 14 10 74.79 3.1
0 -14 -10 23.2 1.8
0 14 10 23.6 1.8
0 14 10 22.7 2.1
-1 -14 -10 19.6 1.7
1 14 10 17 1.9
-2 -14 -10 4.9 1.2
2 14 10 5 1.5
-3 -14 -10 3.4 1.1
3 14 10 2.1 1.3
-4 -14 -10 96.09 3.6
4 14 10 86.99 3.9
-5 -14 -10 54.09 2.7
5 14 10 51.49 3
-6 -14 -10 7.4 1.4
6 14 10 8.3 1.7
-7 -14 -10 7.7 1.4
7 14 10 6.5 1.6
-4 15 10 5.2 1.3
3 -15 -10 5.3 1.4
-3 15 10 2.5 1.4
2 -15 -10 14.4 1.7
-2 15 10 9.3 1.5
-2 15 10 13.8 1.9
1 -15 -10 68.09 3.1
-1 15 10 66.89 3.2
0 -15 -10 39.4 2.3
0 15 10 38.8 2.6
-1 -15 -10 4.8 1.3
1 15 10 4.3 1.5
-2 -15 -10 29.4 2.1
2 15 10 27.8 2.5
-3 -15 -10 1.1 1.1
3 15 10 0 1.4
-4 -15 -10 73.39 3.2
4 15 10 67.09 3.6
-5 -15 -10 2.4 1.2
5 15 10 4.2 1.6
1 -16 -10 -0.2 1.3
-1 16 10 0.3 1.4
0 -16 -10 9.2 1.6
0 16 10 9.9 1.8
-1 -16 -10 78.69 3.5
1 16 10 76.59 3.8
-2 -16 -10 10 1.6
2 16 10 12.9 2
0 7 -11 63.79 3.6
0 -7 11 71.39 3.1
-1 7 -11 0.1 1.6
1 -7 11 -0.3 1
-2 7 -11 2.8 1.7
2 -7 11 1.1 1.2
-3 7 -11 8.1 1.9
3 -7 11 7.4 1.3
-4 7 -11 -0.4 1.6
4 -7 11 -0.6 1.1
-5 7 -11 11.9 2
5 -7 11 9.8 1.4
-6 7 -11 9.4 1.9
6 -7 11 6.3 1.4
3 6 -11 30.9 2.6
2 6 -11 1.1 1.5
-2 -6 11 0.1 1.1
1 6 -11 3.4 1.6
-1 -6 11 3.9 1.2
0 6 -11 30.1 2.5
0 -6 11 33 2.1
-1 6 -11 87.89 4.1
1 -6 11 97.29 3.6
-2 6 -11 69.69 3.6
2 -6 11 82.69 3.2
-3 6 -11 4.2 1.6
3 -6 11 5.2 1.2
-4 6 -11 17.1 2.2
4 -6 11 17 1.7
-5 6 -11 28.4 2.4
5 -6 11 24.7 1.9
-6 6 -11 123.39 4.8
6 -6 11 118.39 4.4
-7 6 -11 3.5 1.4
7 -6 11 3.1 1.2
-8 6 -11 41.4 2.7
8 -6 11 39 3
5 5 -11 3 2.1
4 5 -11 -1.4 1.4
-4 -5 11 -1.4 1.1
3 5 -11 2.8 1.4
-3 -5 11 0.6 1
2 5 -11 108.29 4.6
-2 -5 11 115.69 4.1
1 5 -11 -2.1 1.2
-1 -5 11 0.4 1
0 5 -11 23.2 2.3
0 -5 11 23 1.8
-1 5 -11 -0.2 1.3
1 -5 11 1.4 1
-2 5 -11 2.3 1.4
2 -5 11 1.2 1
-3 5 -11 0.5 1.3
3 -5 11 0.7 0.9
-4 5 -11 5.8 1.5
4 -5 11 5.2 1.2
-5 5 -11 47.3 2.8
-5 5 -11 50.39 2.6
5 -5 11 50.29 2.4
-6 5 -11 102.19 4.2
-6 5 -11 115.99 4.2
6 -5 11 106.29 4
-7 5 -11 8 1.5
-7 5 -11 7 1.5
7 -5 11 6.5 1.3
-8 5 -11 3.4 1.4
8 -5 11 3.4 1.2
-9 5 -11 -0.2 1.4
9 -5 11 -1.3 1.1
5 4 -11 1.7 1.5
-5 -4 11 1.7 1.2
4 4 -11 28.3 2.4
-4 -4 11 27.4 2
3 4 -11 0.2 1.4
-3 -4 11 0.2 1
2 4 -11 46.1 2.8
-2 -4 11 51.29 2.4
1 4 -11 66.89 3.3
-1 -4 11 73.09 2.9
0 4 -11 39.9 2.6
0 -4 11 44.5 2.2
-1 4 -11 2.2 1.3
1 -4 11 1.1 0.9
-2 4 -11 29.3 2.3
2 -4 11 31.9 1.8
-3 4 -11 2.4 1.3
3 -4 11 1.8 0.9
-4 4 -11 2.9 1.3
-4 4 -11 3 1
4 -4 11 2.2 0.9
-5 4 -11 28.7 2
-5 4 -11 30.8 2.2
5 -4 11 30.5 1.9
-6 4 -11 44 2.5
-6 4 -11 39.6 2.4
6 -4 11 40.9 2.2
-7 4 -11 13.1 1.8
7 -4 11 13.3 1.2
7 -4 11 14 1.6
-8 4 -11 1.6 1.4
8 -4 11 2.1 1.1
-9 4 -11 0 1.4
9 -4 11 2.1 1.2
-10 4 -11 160.38 5.8
10 -4 11 154.78 5.5
-6 -3 11 8.7 1.5
5 3 -11 27.6 2.4
-5 -3 11 25.7 2
4 3 -11 3.4 1.5
-4 -3 11 3.8 1.1
3 3 -11 21.8 2.1
-3 -3 11 21.3 1.6
2 3 -11 25.4 2.2
-2 -3 11 24.2 1.7
1 3 -11 1.5 1.2
-1 -3 11 0.4 0.9
0 3 -11 9.7 1.5
0 -3 11 10.2 1.2
-1 3 -11 17.6 1.8
1 -3 11 18.3 1.4
-2 3 -11 35.3 2.3
-2 3 -11 44.9 2.1
2 -3 11 37.6 1.9
-3 3 -11 5.1 1.2
-3 3 -11 5.9 1.4
3 -3 11 6.1 1
-4 3 -11 22.7 1.9
-4 3 -11 25.1 1.8
4 -3 11 23.2 1.6
-5 3 -11 39.7 2.2
-5 3 -11 37.7 2.3
5 -3 11 39.2 2
-6 3 -11 11.7 1.7
6 -3 11 10.5 1.1
6 -3 11 14.4 1.4
-7 3 -11 27.6 2.1
7 -3 11 27.6 1.6
7 -3 11 26 1.8
-8 3 -11 9.6 1.6
8 -3 11 9.3 1.3
-9 3 -11 5.1 1.5
9 -3 11 3.5 1.2
-10 3 -11 36.4 2.7
10 -3 11 38.9 2.4
-6 -2 11 19.2 1.8
5 2 -11 19.3 2
-5 -2 11 20.4 1.8
4 2 -11 4.3 1.4
-4 -2 11 5.4 1.1
3 2 -11 8.6 1.5
-3 -2 11 11 1.3
2 2 -11 36.8 2.3
-2 -2 11 36.5 1.9
1 2 -11 4.3 1.3
-1 -2 11 6.2 1
0 2 -11 4.4 1.2
0 -2 11 3.5 0.9
-1 2 -11 42.9 2
-1 2 -11 37.1 2.2
1 -2 11 36.6 1.8
-2 2 -11 59.79 2.9
-2 2 -11 70.29 2.7
2 -2 11 64.19 2.5
-3 2 -11 211.78 6.2
-3 2 -11 190.08 6.4
3 -2 11 196.48 6.1
-4 2 -11 177.78 6
-4 2 -11 193.98 5.9
4 -2 11 181.88 5.7
-5 2 -11 0.5 0.9
5 -2 11 0.2 0.8
5 -2 11 0.7 0.6
-6 2 -11 21.3 1.9
6 -2 11 24.2 1.6
6 -2 11 21.1 1.4
-7 2 -11 19.3 1.9
7 -2 11 22 1.4
7 -2 11 19.2 1.6
-8 2 -11 20.1 2
8 -2 11 18.6 1.6
-9 2 -11 0.7 1.3
9 -2 11 1.8 1.1
-10 2 -11 99.49 4.2
10 -2 11 102.99 3.9
-11 2 -11 7.7 1.7
11 -2 11 9.6 1.5
-7 -1 11 -0.6 1.1
-6 -1 11 -1.4 1
5 1 -11 34.9 2.4
-5 -1 11 31.3 1.9
4 1 -11 6.4 1.4
-4 -1 11 9.2 1.2
3 1 -11 1.1 1.1
-3 -1 11 1 0.8
2 1 -11 46.1 2.5
-2 -1 11 46.7 2.1
1 1 -11 75.19 3.2
-1 -1 11 73.49 2.7
0 1 -11 25.7 1.8
0 1 -11 27.9 1.7
0 -1 11 22 1.4
-1 1 -11 8.4 1.3
-1 1 -11 8.8 1.3
1 -1 11 7.9 1
-2 1 -11 275.87 7.9
-2 1 -11 250.87 8.1
2 -1 11 263.57 7.7
-3 1 -11 2 1
-3 1 -11 2.9 1.1
3 -1 11 2.4 0.8
-4 1 -11 2.2 1
4 -1 11 1.9 0.7
4 -1 11 2.2 0.8
-5 1 -11 67.89 2.9
5 -1 11 66.19 2.6
5 -1 11 66.69 2.6
-6 1 -11 5.3 1.2
6 -1 11 7.3 0.9
6 -1 11 6.8 1
-7 1 -11 120.99 4.4
7 -1 11 121.79 4.2
7 -1 11 125.79 4.1
-8 1 -11 51.99 2.7
8 -1 11 53.89 2.4
8 -1 11 51.69 2.2
-9 1 -11 7.1 1.6
9 -1 11 5.6 1.1
-10 1 -11 39.2 2.6
10 -1 11 32.2 2.1
-11 1 -11 34.2 2.7
11 -1 11 32.6 2.2
-8 0 11 8.6 1.4
-8 0 11 6.7 1.6
-7 0 11 1 1
-7 0 11 1.2 1.2
-6 0 11 0.3 1.1
-6 0 11 2.3 1
-5 0 11 11.6 1.4
4 0 -11 58.39 2.7
-4 0 11 58.09 2.4
3 0 -11 -1.6 0.9
-3 0 11 -0.3 0.6
2 0 -11 -0.5 0.8
2 0 -11 -0.1 1
-2 0 11 0 0.7
1 0 -11 1.1 0.9
1 0 -11 0.8 1
-1 0 11 1.5 0.7
0 0 -11 4.9 1
0 0 -11 4.5 1.1
0 0 11 6.8 0.9
-1 0 -11 60.69 2.5
-1 0 -11 61.99 2.7
1 0 11 58.49 2.3
-2 0 -11 8.2 1.2
-2 0 -11 8.5 1.2
2 0 11 9.3 1
-3 0 -11 131.69 4.4
3 0 11 132.99 4.2
3 0 11 130.79 4.3
-4 0 -11 -0.2 0.8
4 0 11 -0.3 0.7
4 0 11 0.1 0.5
-5 0 -11 250.57 7.6
5 0 11 250.97 7.3
5 0 11 244.48 7.4
-6 0 -11 -0.5 0.8
6 0 11 -0.7 0.7
6 0 11 0.1 0.5
-7 0 -11 36.1 2.2
7 0 11 38.2 1.8
7 0 11 34.7 1.8
-8 0 -11 8 1.4
8 0 11 7.1 1.1
8 0 11 7.6 1
-9 0 -11 60.49 3
9 0 11 62.39 2.6
-10 0 -11 -1 1.2
10 0 11 0.5 1
-11 0 -11 85.59 3.8
11 0 11 80.69 3.4
-12 0 -11 8 2
12 0 11 3.4 1.4
-8 1 11 -0.7 1
-8 1 11 2.5 1.3
-7 1 11 0.2 1
-7 1 11 0.5 1
-6 1 11 10.4 1.3
-6 1 11 15 1.5
-5 1 11 14.7 1.4
-5 1 11 15.3 1.3
-4 1 11 140.99 4.6
-4 1 11 144.29 4.6
-4 1 11 150.28 4.6
-3 1 11 250.57 7.3
-3 1 11 239.28 7.2
2 -1 -11 84.19 3
-2 1 11 75.69 2.7
-2 1 11 73.49 2.8
1 -1 -11 0.6 0.8
-1 1 11 0.5 0.6
-1 1 11 0 0.5
0 -1 -11 165.78 5.2
0 1 11 164.18 4.9
0 1 11 163.78 5.2
-1 -1 -11 76.19 2.8
1 1 11 71.09 2.7
1 1 11 74.59 2.5
-2 -1 -11 7.5 1.1
2 1 11 6.7 0.9
2 1 11 7.4 0.9
-3 -1 -11 428.26 12.1
3 1 11 417.56 12
3 1 11 413.06 11.7
-4 -1 -11 217.38 6.6
4 1 11 211.38 6.5
4 1 11 219.18 6.4
-5 -1 -11 51.59 2.4
5 1 11 54.39 2.2
5 1 11 50.29 2.1
-6 -1 -11 0.4 0.9
6 1 11 0.4 0.6
6 1 11 -0.2 0.7
-7 -1 -11 184.98 6.1
7 1 11 186.28 5.8
7 1 11 187.88 5.7
-8 -1 -11 179.68 6.1
8 1 11 191.68 5.8
8 1 11 185.78 5.8
-9 -1 -11 3.8 1.2
9 1 11 3 1
-10 -1 -11 15.4 2
10 1 11 14.7 1.5
-11 -1 -11 15.8 2.2
11 1 11 17.6 1.8
-12 -1 -11 52.69 3.2
12 1 11 48.4 2.6
-8 2 11 2.6 1.3
-7 2 11 28 1.8
-7 2 11 31.4 2.1
-6 2 11 22.5 1.7
-6 2 11 23 1.5
-5 2 11 73.99 2.8
-5 2 11 75.99 2.9
-4 2 11 42 1.9
-4 2 11 41.3 1.8
-4 2 11 41.7 1.8
-4 2 11 42.2 2
-3 2 11 1.7 0.6
-3 2 11 1 0.6
-3 2 11 1 0.7
-3 2 11 1.1 0.8
2 -2 -11 66.19 2.7
-2 2 11 62.49 2.5
-2 2 11 69.09 2.4
-2 2 11 66.39 2.4
1 -2 -11 29.2 1.7
-1 2 11 29.9 1.5
-1 2 11 32 1.4
0 -2 -11 87.99 3.1
0 2 11 87.09 2.8
0 2 11 82.59 3
-1 -2 -11 132.99 4.3
1 2 11 121.29 4.1
1 2 11 131.29 3.9
-2 -2 -11 9.5 1.2
2 2 11 10.3 1
2 2 11 9.1 0.9
-3 -2 -11 3.9 1
3 2 11 4 0.7
3 2 11 3.9 0.7
-4 -2 -11 0 0.9
4 2 11 0.4 0.6
4 2 11 0 0.5
-5 -2 -11 106.89 3.8
5 2 11 111.19 3.7
5 2 11 111.49 3.5
-6 -2 -11 42.2 2.2
6 2 11 46 1.9
6 2 11 49 2
-7 -2 -11 111.39 4.1
7 2 11 121.99 3.9
7 2 11 113.29 3.8
-8 -2 -11 22.4 1.9
8 2 11 20.7 1.5
8 2 11 22.1 1.5
-9 -2 -11 58.59 2.8
9 2 11 55.89 2.4
-10 -2 -11 183.48 6.2
10 2 11 182.08 5.8
-11 -2 -11 62.19 3.2
11 2 11 65.19 2.9
-12 -2 -11 1.7 1.5
12 2 11 0.4 1.2
-8 3 11 4.5 1.3
-7 3 11 2.2 1.1
-6 3 11 0.7 1
-6 3 11 0.4 0.9
-5 3 11 2.1 0.9
-5 3 11 1.8 0.7
-5 3 11 2.1 0.8
-4 3 11 74.39 2.8
-4 3 11 75.19 2.7
-4 3 11 74.29 2.8
-4 3 11 72.19 2.6
-3 3 11 2.5 0.8
-3 3 11 3.9 0.7
-3 3 11 2.5 0.6
2 -3 -11 334.07 9.5
2 -3 -11 340.77 9.8
-2 3 11 344.47 9.7
-2 3 11 323.47 9.4
1 -3 -11 138.29 4.4
1 -3 -11 133.89 4.1
-1 3 11 128.39 4
-1 3 11 132.99 4.3
0 -3 -11 14.3 1.3
0 3 11 13.5 0.9
0 3 11 14.5 1.1
-1 -3 -11 75.99 2.8
1 3 11 67.99 2.7
1 3 11 75.69 2.4
-2 -3 -11 435.46 12.3
2 3 11 425.76 12.2
2 3 11 426.16 11.9
-3 -3 -11 82.39 3.1
3 3 11 84.19 3
3 3 11 83.99 2.7
-4 -3 -11 133.69 4.5
4 3 11 142.79 4.5
4 3 11 137.49 4.2
-5 -3 -11 352.66 10.5
5 3 11 364.86 10.5
5 3 11 368.06 10.2
-6 -3 -11 9.4 1.4
6 3 11 11.4 1.1
6 3 11 11.8 1.1
-7 -3 -11 1.7 1
7 3 11 1.5 0.8
7 3 11 2.2 0.9
-8 -3 -11 23.9 1.8
8 3 11 26.2 1.5
8 3 11 26.1 1.7
-9 -3 -11 20.8 1.9
9 3 11 26.3 1.6
-10 -3 -11 18.9 2
10 3 11 23.1 1.7
-11 -3 -11 18.2 2.2
11 3 11 16.2 1.7
-12 -3 -11 54.49 3.2
12 3 11 55.19 2.7
-8 4 11 -0.6 1.1
-7 4 11 73.19 3.1
-7 4 11 68.99 3
-6 4 11 15.1 1.6
-6 4 11 15.3 1.6
-5 4 11 2.9 1
4 -4 -11 64.79 2.6
-4 4 11 66.89 2.4
-4 4 11 66.59 2.7
3 -4 -11 38.7 1.9
-3 4 11 39.9 1.7
-3 4 11 39.9 2
2 -4 -11 9.3 1.2
2 -4 -11 9.9 1.1
-2 4 11 8.1 0.9
1 -4 -11 31 1.7
1 -4 -11 32.3 1.5
-1 4 11 31 1.5
-1 4 11 28.9 1.5
0 -4 -11 374.06 10.1
0 -4 -11 374.46 10.5
0 4 11 341.87 10.4
0 4 11 353.36 10
-1 -4 -11 8.8 1.1
1 4 11 6.7 0.7
1 4 11 8 0.9
-2 -4 -11 17.1 1.3
2 4 11 13 1.1
2 4 11 17.8 0.9
-3 -4 -11 104.49 3.6
3 4 11 95.59 3.5
3 4 11 104.59 3.1
-4 -4 -11 251.57 7.7
4 4 11 263.77 7.3
4 4 11 259.97 7.7
-5 -4 -11 0.7 0.9
5 4 11 0.9 0.6
5 4 11 0.2 0.6
-6 -4 -11 27.3 1.8
6 4 11 29.8 1.4
6 4 11 29.2 1.7
-7 -4 -11 29.5 1.8
7 4 11 28.5 1.5
7 4 11 29.6 1.8
-8 -4 -11 4.1 1.1
8 4 11 3.8 1
8 4 11 4.3 0.9
-9 -4 -11 24 1.9
9 4 11 25.2 1.8
9 4 11 28.5 1.7
-10 -4 -11 4.9 1.3
10 4 11 5.6 1.1
-11 -4 -11 55.99 2.9
11 4 11 59.19 2.7
-12 -4 -11 102.89 4.3
12 4 11 104.19 3.9
-8 5 11 -0.8 1.3
-8 5 11 1.5 1.2
-7 5 11 0.7 1.1
-7 5 11 0.9 1.2
6 -5 -11 3 1
-6 5 11 1.4 1
5 -5 -11 10 1.4
-5 5 11 11.2 1.5
4 -5 -11 20.7 1.5
-4 5 11 21.8 1.6
-4 5 11 20.1 1.2
3 -5 -11 -0.3 0.8
-3 5 11 1.3 0.6
-3 5 11 1 0.8
2 -5 -11 31.4 1.6
2 -5 -11 28.7 1.7
-2 5 11 28.7 1.5
1 -5 -11 30.7 1.5
1 -5 -11 29.2 1.7
-1 5 11 29.5 1.5
0 -5 -11 24.2 1.6
0 -5 -11 25.4 1.3
0 5 11 24.9 1.4
-1 -5 -11 0.6 0.7
-1 -5 -11 -1.2 0.5
1 5 11 0.7 0.6
-2 -5 -11 5.8 0.8
-2 -5 -11 6.2 1
2 5 11 4.5 0.8
-3 -5 -11 646.84 17.5
3 5 11 602.94 17.5
-4 -5 -11 49.8 2.2
4 5 11 55.79 2
4 5 11 45.7 2.2
-5 -5 -11 27.6 1.7
5 5 11 26 1.3
5 5 11 23.7 1.6
-6 -5 -11 70.69 2.9
6 5 11 67.69 2.8
6 5 11 70.69 2.4
-7 -5 -11 4.2 1.1
7 5 11 3.7 0.8
7 5 11 4.2 1
-8 -5 -11 3.8 1.1
8 5 11 2.5 1
8 5 11 3.5 0.9
-9 -5 -11 18.7 1.7
9 5 11 16.5 1.6
9 5 11 19.1 1.5
-10 -5 -11 29.1 2.1
10 5 11 35.1 1.9
-11 -5 -11 8.2 1.5
11 5 11 6.8 1.2
-12 -5 -11 4.1 1.5
12 5 11 5 1.4
-9 6 11 22.1 2.3
-8 6 11 4.5 1.4
-8 6 11 4.6 1.6
7 -6 -11 1.4 1.2
-7 6 11 3.1 1.3
6 -6 -11 155.08 5.2
-6 6 11 158.18 5.3
5 -6 -11 164.78 5.4
-5 6 11 163.38 5.4
4 -6 -11 21.4 1.6
-4 6 11 19.8 1.3
-4 6 11 17.9 1.6
3 -6 -11 0.1 0.8
-3 6 11 0.1 0.7
-3 6 11 1.3 0.9
2 -6 -11 39.5 1.8
2 -6 -11 37.5 2
-2 6 11 40 1.9
1 -6 -11 20.9 1.3
1 -6 -11 21.7 1.5
-1 6 11 24.2 1.5
0 -6 -11 36.7 1.6
0 -6 -11 30.9 1.7
0 6 11 35.1 1.8
-1 -6 -11 151.18 5
1 6 11 163.88 5.1
-2 -6 -11 960.6 25.6
-2 -6 -11 901.61 25.9
2 6 11 955.8 26
-3 -6 -11 33 1.4
-3 -6 -11 31.9 1.8
3 6 11 33.1 1.9
-4 -6 -11 0.8 0.6
-4 -6 -11 0.2 0.8
4 6 11 1.4 0.9
-5 -6 -11 191.38 6
5 6 11 191.68 6
-6 -6 -11 4.4 1
6 6 11 2.5 1
-7 -6 -11 68.99 2.9
7 6 11 67.99 2.8
-8 -6 -11 233.88 7.2
8 6 11 232.28 7.2
-9 -6 -11 7.6 1.3
9 6 11 7.2 1.2
9 6 11 6.3 1.2
-10 -6 -11 11.6 1.7
10 6 11 9.4 1.4
-11 -6 -11 1.8 1.2
11 6 11 4 1.8
-9 7 11 47.3 3
8 -7 -11 9.3 1.5
-8 7 11 10 1.9
7 -7 -11 42.8 2.4
-7 7 11 41.7 2.6
6 -7 -11 2.3 1.1
-6 7 11 2.2 1.1
5 -7 -11 35.6 2.1
-5 7 11 35.5 2.1
4 -7 -11 132.29 4.4
-4 7 11 124.59 4.4
3 -7 -11 16.2 1.4
-3 7 11 15.7 1.3
-3 7 11 15.3 1.5
2 -7 -11 3 0.8
-2 7 11 2.6 0.9
-2 7 11 3.2 0.8
1 -7 -11 4.2 0.9
1 -7 -11 4.7 0.9
-1 7 11 4.4 0.9
0 -7 -11 51.89 2.1
0 -7 -11 49.5 2.2
0 7 11 52.19 2.3
-1 -7 -11 12 1.3
-1 -7 -11 13.9 1.1
1 7 11 15 1.3
-2 -7 -11 497.85 13.3
-2 -7 -11 460.85 13.5
2 7 11 468.85 13.5
-3 -7 -11 77.49 2.6
-3 -7 -11 75.69 2.9
3 7 11 76.79 2.9
-4 -7 -11 179.58 5.7
-4 -7 -11 185.78 5.4
4 7 11 179.38 5.7
-5 -7 -11 27 1.4
-5 -7 -11 26.5 1.7
5 7 11 24.8 1.7
-6 -7 -11 26.9 1.7
6 7 11 24.5 1.7
-7 -7 -11 97.09 3.5
7 7 11 91.89 3.5
-8 -7 -11 10.7 1.5
8 7 11 11.9 1.5
-9 -7 -11 29.3 2
9 7 11 26.7 2
-10 -7 -11 5.1 1.3
8 -8 -11 28.6 2.2
-8 8 11 31.5 2.6
7 -8 -11 14 1.7
-7 8 11 11.5 1.7
6 -8 -11 0.2 1.1
-6 8 11 1.6 1.2
5 -8 -11 14.2 1.5
-5 8 11 11.8 1.6
4 -8 -11 76.19 3
-4 8 11 72.09 3
3 -8 -11 99.39 3.4
-3 8 11 91.89 3.4
-3 8 11 88.99 3.2
2 -8 -11 29.9 1.7
-2 8 11 27.9 1.6
-2 8 11 28.2 1.7
1 -8 -11 4.7 0.9
1 -8 -11 4.6 1
-1 8 11 4 0.9
0 -8 -11 272.87 7.7
0 -8 -11 251.67 7.8
0 8 11 259.87 7.8
-1 -8 -11 0.2 0.7
-1 -8 -11 0.5 0.6
1 8 11 0.5 0.8
-2 -8 -11 25.3 1.6
-2 -8 -11 24.6 1.4
2 8 11 25 1.6
-3 -8 -11 186.48 5.6
-3 -8 -11 182.78 5.8
3 8 11 182.38 5.8
-4 -8 -11 9.6 1.1
-4 -8 -11 8.3 1.1
4 8 11 9.1 1.3
-5 -8 -11 20.1 1.5
-5 -8 -11 18.1 1.3
5 8 11 20 1.7
-6 -8 -11 13.4 1.2
-6 -8 -11 14.1 1.4
6 8 11 12.6 1.5
-7 -8 -11 84.89 3.1
-7 -8 -11 93.09 3.3
7 8 11 81.69 3.3
-8 -8 -11 6.4 1.2
8 8 11 6.5 1.3
-9 -8 -11 60.89 2.8
9 8 11 60.59 2.9
8 -9 -11 1 1.2
-8 9 11 1.5 1.3
7 -9 -11 7.9 1.5
-7 9 11 6.6 1.6
6 -9 -11 19.7 1.8
-6 9 11 16 2
5 -9 -11 76.79 3.2
-5 9 11 74.89 3.2
4 -9 -11 2.4 1
-4 9 11 1.6 1
3 -9 -11 1.7 0.9
-3 9 11 0.3 0.9
-3 9 11 0.4 0.8
2 -9 -11 48.7 2.2
-2 9 11 44.5 2.2
-2 9 11 43.4 2.1
1 -9 -11 4.7 1
-1 9 11 5.2 0.9
-1 9 11 4.6 1
0 -9 -11 5.2 0.9
0 -9 -11 3.4 0.9
0 9 11 5.1 1
-1 -9 -11 206.38 6.4
-1 -9 -11 211.78 6.3
1 9 11 210.18 6.5
-2 -9 -11 170.28 5.6
-2 -9 -11 182.48 5.5
2 9 11 184.98 5.7
-3 -9 -11 11.8 1.1
-3 -9 -11 13.4 1.3
3 9 11 10.8 1.4
-4 -9 -11 81.19 3
-4 -9 -11 78.39 2.8
4 9 11 77.09 3.2
-5 -9 -11 -0.2 0.7
-5 -9 -11 0.4 0.8
5 9 11 -0.6 0.9
-6 -9 -11 2.7 0.9
-6 -9 -11 3.1 0.9
6 9 11 2.4 1.1
-7 -9 -11 14.2 1.3
-7 -9 -11 10.6 1.4
7 9 11 12.2 1.6
-8 -9 -11 1.7 1
8 9 11 1.1 1.2
9 9 11 -1.1 1.1
7 -10 -11 32.8 2.2
-7 10 11 27 2.4
6 -10 -11 0.9 1.1
-6 10 11 -1.1 1.2
5 -10 -11 21.5 1.8
-5 10 11 16.1 1.8
4 -10 -11 1.4 1
-4 10 11 1.9 1
3 -10 -11 47.3 2.3
-3 10 11 45.6 2.3
-3 10 11 42.3 2.1
2 -10 -11 25.1 1.7
-2 10 11 21.1 1.6
-2 10 11 20.3 1.6
1 -10 -11 5.2 1
-1 10 11 4.8 1
-1 10 11 4.3 1
0 -10 -11 26.3 1.6
0 10 11 25.5 1.7
0 10 11 22.1 1.6
-1 -10 -11 5.1 1
-1 -10 -11 7 1
1 10 11 6.4 1.1
-2 -10 -11 62.69 2.5
-2 -10 -11 64.99 2.6
2 10 11 61.89 2.7
-3 -10 -11 59.69 2.4
-3 -10 -11 54.49 2.4
3 10 11 58.99 2.6
-4 -10 -11 19.8 1.5
-4 -10 -11 17.1 1.3
4 10 11 16.6 1.6
-5 -10 -11 3.3 1
-5 -10 -11 4.9 1
5 10 11 3.6 1.1
-6 -10 -11 6.5 1.1
-6 -10 -11 6.7 1.1
6 10 11 5.3 1.3
-7 -10 -11 2.4 0.9
7 10 11 1.5 1.2
8 10 11 46.9 2.6
-9 -10 -11 3.2 1.1
9 10 11 5.5 1.5
7 -11 -11 38.9 2.5
-7 11 11 38 2.8
6 -11 -11 13.9 1.7
-6 11 11 8.7 1.6
5 -11 -11 5 1.3
-5 11 11 4.8 1.4
4 -11 -11 19.1 1.7
-4 11 11 16.5 1.8
3 -11 -11 1.3 1
-3 11 11 0.2 1
-3 11 11 1 1
2 -11 -11 2.7 1
-2 11 11 1.8 1
-2 11 11 3.4 1
1 -11 -11 96.39 3.5
-1 11 11 91.59 3.5
-1 11 11 97.59 3.6
0 -11 -11 48.6 2.2
0 11 11 49.8 2.4
0 11 11 49.8 2.3
-1 -11 -11 -0.6 0.7
1 11 11 -0.7 0.8
1 11 11 0.6 1
-2 -11 -11 11.5 1.3
-2 -11 -11 11.8 1.3
2 11 11 10 1.4
-3 -11 -11 35.3 1.8
-3 -11 -11 33 1.8
3 11 11 29.6 2
-4 -11 -11 10.9 1.3
-4 -11 -11 11.1 1.2
4 11 11 10.5 1.6
-5 -11 -11 19.7 1.6
-5 -11 -11 19.6 1.5
5 11 11 20.2 1.9
-6 -11 -11 47.2 2.3
6 11 11 44.2 2.6
-7 -11 -11 1 0.9
7 11 11 2.7 1.3
-8 -11 -11 3 1
8 11 11 0 1.2
-9 -11 -11 5.5 1.1
9 11 11 9.2 1.7
-10 -11 -11 2.7 2
6 -12 -11 48.7 2.8
-6 12 11 46.8 2.8
5 -12 -11 41.8 2.4
-5 12 11 39.7 2.5
4 -12 -11 3 1.2
-4 12 11 3.4 1.2
3 -12 -11 6.9 1.3
-3 12 11 2.8 1.1
2 -12 -11 8.5 1.3
-2 12 11 7.1 1.2
-2 12 11 6 1.2
1 -12 -11 21.8 1.6
-1 12 11 21.2 1.7
-1 12 11 19 1.7
0 -12 -11 1.9 0.9
0 12 11 0.1 1
0 12 11 1.7 0.9
-1 -12 -11 64.99 2.7
1 12 11 62.09 2.6
1 12 11 64.19 2.9
-2 -12 -11 12.3 1.4
2 12 11 10.9 1.6
2 12 11 11.8 1.4
-3 -12 -11 -0.1 0.8
-3 -12 -11 0 0.8
3 12 11 -0.6 1
-4 -12 -11 12.5 1.5
-4 -12 -11 16.2 1.5
4 12 11 15.4 1.8
-5 -12 -11 26.8 1.8
5 12 11 23.6 2
-6 -12 -11 -0.1 1
6 12 11 -0.9 1.2
-7 -12 -11 47.4 2.4
7 12 11 47.9 2.8
-8 -12 -11 4 1.2
8 12 11 2.8 1.5
-9 -12 -11 1.9 1.1
9 12 11 1.2 1.3
5 -13 -11 14.2 1.8
-5 13 11 15.1 2
4 -13 -11 9 1.5
-4 13 11 4.8 1.3
3 -13 -11 6.4 1.4
-3 13 11 5.2 1.3
2 -13 -11 -0.8 0.9
-2 13 11 1.7 1.2
-2 13 11 1.2 1
1 -13 -11 21 1.7
-1 13 11 20.2 1.7
-1 13 11 17.8 1.9
0 -13 -11 5.2 1.1
0 13 11 2.6 1.2
0 13 11 3.1 1.1
-1 -13 -11 46.5 2.3
1 13 11 45.2 2.2
1 13 11 45.5 2.6
-2 -13 -11 10.2 1.4
2 13 11 7.5 1.5
2 13 11 12.3 1.4
-3 -13 -11 28.5 1.9
3 13 11 29 2.2
-4 -13 -11 46.9 2.4
4 13 11 42.8 2.6
-5 -13 -11 0.7 0.9
5 13 11 -0.2 1.3
-6 -13 -11 0.1 0.9
6 13 11 -1.6 1.3
-7 -13 -11 12.2 1.6
7 13 11 7.7 1.6
-8 -13 -11 2.2 1.1
8 13 11 0.3 1.4
-5 14 11 -0.1 1.7
4 -14 -11 10.5 1.6
-4 14 11 9.5 1.6
3 -14 -11 -2 1
-3 14 11 -1.3 1.1
2 -14 -11 3.6 1.2
-2 14 11 2.1 1.3
-2 14 11 1.4 1.1
1 -14 -11 0.5 0.9
-1 14 11 -1 1.2
-1 14 11 -0.7 1
0 -14 -11 31.7 2.1
0 14 11 28.6 2.3
0 14 11 29 2
-1 -14 -11 1 1
1 14 11 2.2 1.4
1 14 11 0.7 1
-2 -14 -11 9 1.4
2 14 11 9.4 1.7
-3 -14 -11 35.3 2.1
3 14 11 29.4 2.5
-4 -14 -11 -0.1 1
4 14 11 0.1 1.4
-5 -14 -11 0.5 1
5 14 11 2.4 1.5
-6 -14 -11 14.8 1.7
6 14 11 10.3 1.7
-7 -14 -11 2.7 1.2
7 14 11 -1.2 1.4
-4 15 11 0.4 1.6
3 -15 -11 3.3 1.4
-3 15 11 -0.5 1.2
2 -15 -11 1.5 1.1
-2 15 11 -3 1
1 -15 -11 2.3 1.1
-1 15 11 3.3 1.4
-1 15 11 0 1.2
0 -15 -11 10.6 1.5
0 15 11 7.5 1.6
-1 -15 -11 -0.3 1
1 15 11 0.1 1.3
-2 -15 -11 16.3 1.8
2 15 11 19.2 2.2
-3 -15 -11 26.1 2
3 15 11 23.3 2.4
-4 -15 -11 4.1 1.2
4 15 11 3.2 1.6
-5 -15 -11 30.6 2.1
5 15 11 24.9 2.6
-1 16 11 1.9 1.4
0 16 11 4.5 1.6
-1 -16 -11 61.79 3.5
1 16 11 55.49 3.3
-2 -16 -11 21.5 3
2 16 11 19.7 3
0 6 -12 29.3 2.7
0 -6 12 27.3 2.1
-1 6 -12 17.2 2.4
1 -6 12 18.7 1.9
-2 6 -12 -1.6 1.5
2 -6 12 0 1.1
-3 6 -12 2.9 1.7
3 -6 12 0.9 1.1
-4 6 -12 17.8 2.5
4 -6 12 16.6 1.8
-5 6 -12 -1.8 1.6
5 -6 12 1.3 1.2
-6 6 -12 2.5 1.7
6 -6 12 1.6 1.3
3 5 -12 6.3 2.6
2 5 -12 0.1 1.5
-2 -5 12 0.8 1.2
1 5 -12 16 2.2
-1 -5 12 14.8 1.8
0 5 -12 19.5 2.4
0 -5 12 27.2 1.9
-1 5 -12 15 2.3
1 -5 12 15.8 1.7
-2 5 -12 121.99 5
2 -5 12 130.69 4.5
-3 5 -12 78.39 3.8
3 -5 12 83.59 3.3
-4 5 -12 -0.1 1.5
4 -5 12 -1 1
-5 5 -12 1.9 1.6
5 -5 12 -0.7 1
-6 5 -12 44.6 2.8
6 -5 12 40.8 2.4
-7 5 -12 1.1 1.2
7 -5 12 2.4 1.2
7 -5 12 2.3 0.8
-8 5 -12 2.2 1.5
4 4 -12 18.8 2.4
3 4 -12 6.9 1.7
-3 -4 12 8.4 1.4
2 4 -12 1.4 1.5
-2 -4 12 -1.1 1.1
1 4 -12 3 1.5
-1 -4 12 2.9 1.2
0 4 -12 2.5 1.4
0 -4 12 4.4 1.1
-1 4 -12 12.4 1.9
1 -4 12 11.2 1.5
-2 4 -12 2 1.4
2 -4 12 0.2 0.9
-3 4 -12 11.1 1.8
3 -4 12 7.9 1.2
-4 4 -12 1.2 1.3
4 -4 12 0.4 1
-5 4 -12 181.28 6.3
5 -4 12 188.88 6
-6 4 -12 1.6 1.2
6 -4 12 0.9 1.1
-7 4 -12 0.5 1.3
7 -4 12 0 0.6
7 -4 12 1.1 1.1
-8 4 -12 7.3 1.6
8 -4 12 2.6 1.2
-9 4 -12 41.2 2.8
9 -4 12 37.3 2.4
-5 -3 12 1.3 1.5
4 3 -12 1.6 1.5
-4 -3 12 1.6 1.1
3 3 -12 23.6 2.2
-3 -3 12 21.6 1.8
2 3 -12 24.6 2.3
-2 -3 12 25.3 1.8
1 3 -12 19.3 2
-1 -3 12 19.9 1.6
0 3 -12 -1.8 1.2
0 -3 12 -0.9 0.8
-1 3 -12 8.5 1.6
1 -3 12 7 1.1
-2 3 -12 9.4 1.6
2 -3 12 9.9 1.3
-3 3 -12 0.4 1.2
-3 3 -12 3.5 1.2
3 -3 12 3.2 1
-4 3 -12 172.08 6.1
-4 3 -12 190.68 6
4 -3 12 182.58 5.8
-5 3 -12 216.78 6.8
-5 3 -12 207.18 7
5 -3 12 215.38 6.7
-6 3 -12 2.3 1.2
6 -3 12 4.2 1.1
6 -3 12 2.7 0.8
-7 3 -12 149.69 5.3
7 -3 12 145.19 4.9
7 -3 12 139.09 4.8
-8 3 -12 13.8 2
8 -3 12 10.3 1.4
-9 3 -12 23.7 2.4
9 -3 12 27.5 2.1
-10 3 -12 -0.7 1.5
10 -3 12 3.1 1.5
-5 -2 12 25.3 2
4 2 -12 3.6 1.4
-4 -2 12 6 1.2
3 2 -12 35.1 2.4
-3 -2 12 36.3 2.1
2 2 -12 8.4 1.6
-2 -2 12 8.6 1.2
1 2 -12 115.69 4.6
-1 -2 12 123.39 4.1
0 2 -12 3.9 1.3
0 -2 12 2.1 0.9
-1 2 -12 -2.2 1
1 -2 12 0.7 0.8
-2 2 -12 24.7 2
-2 2 -12 25.6 1.7
2 -2 12 23.4 1.6
-3 2 -12 0.7 1
-3 2 -12 0.4 1.1
3 -2 12 0.8 0.8
-4 2 -12 35.5 2.1
-4 2 -12 28.1 2.1
4 -2 12 30.6 1.8
-5 2 -12 40.4 2.2
5 -2 12 38.5 2
5 -2 12 37.2 1.9
-6 2 -12 -1.1 1
6 -2 12 -1.1 0.8
6 -2 12 0.3 0.6
-7 2 -12 0.9 1.1
7 -2 12 3.8 1.1
7 -2 12 2.3 0.7
-8 2 -12 48.4 2.8
8 -2 12 49.8 2.4
-9 2 -12 41.8 2.7
9 -2 12 37.5 2.3
-10 2 -12 7 1.7
10 -2 12 11.5 1.6
-6 -1 12 33.3 2.2
-5 -1 12 46.6 2.4
4 1 -12 10.1 1.6
-4 -1 12 12.4 1.5
3 1 -12 -0.8 1.1
-3 -1 12 0.2 0.8
2 1 -12 53.59 2.8
-2 -1 12 52.29 2.3
1 1 -12 17.3 1.7
-1 -1 12 16.5 1.4
0 1 -12 2.2 1.1
0 1 -12 2.2 1
0 -1 12 3.1 0.9
-1 1 -12 76.89 2.9
-1 1 -12 66.59 3.1
1 -1 12 69.79 2.7
-2 1 -12 11.7 1.6
-2 1 -12 13.6 1.4
2 -1 12 12.5 1.3
-3 1 -12 88.99 3.6
-3 1 -12 96.89 3.5
3 -1 12 92.39 3.3
-4 1 -12 21.7 1.8
4 -1 12 20.3 1.4
4 -1 12 18.3 1.4
-5 1 -12 28.8 1.9
5 -1 12 25.2 1.6
5 -1 12 26.9 1.5
-6 1 -12 152.98 5.3
6 -1 12 153.68 5
6 -1 12 154.38 5
-7 1 -12 12.2 1.7
7 -1 12 11.4 1.4
7 -1 12 15.1 1.2
-8 1 -12 1.4 1.3
8 -1 12 1.6 0.7
8 -1 12 1.3 0.9
-9 1 -12 127.69 4.8
9 -1 12 125.29 4.4
-10 1 -12 15.6 2.1
10 -1 12 12.7 1.7
-11 1 -12 9.6 2
11 -1 12 6.2 1.5
-7 0 12 0.8 1.2
-6 0 12 8.7 1.3
-5 0 12 4.2 1.1
-4 0 12 57.99 2.5
-4 0 12 57.39 2.4
3 0 -12 15.3 1.8
-3 0 12 13.6 1.3
2 0 -12 27.6 2
-2 0 12 27.8 1.6
1 0 -12 10.2 1.5
1 0 -12 10.1 1.4
-1 0 12 10.9 1.2
0 0 -12 68.29 3.1
0 0 -12 72.39 2.9
0 0 12 70.29 2.6
-1 0 -12 21.8 1.6
1 0 12 18.6 1.4
-2 0 -12 3 1
2 0 12 2.6 0.8
2 0 12 4 0.8
-3 0 -12 13.7 1.5
3 0 12 14.8 1.3
3 0 12 15.6 1.2
-4 0 -12 22 1.8
4 0 12 23 1.4
4 0 12 24.5 1.5
-5 0 -12 13.3 1.6
5 0 12 11.6 1.1
5 0 12 12.7 1.2
-6 0 -12 131.09 4.7
6 0 12 134.49 4.4
6 0 12 134.49 4.4
-7 0 -12 1.7 1.1
7 0 12 2.3 0.7
7 0 12 1.8 0.9
-8 0 -12 82.69 3.6
8 0 12 87.09 3.3
8 0 12 88.49 3.2
-9 0 -12 35.8 2.5
9 0 12 37.6 2.1
-10 0 -12 1.4 1.4
10 0 12 0.1 1.1
-11 0 -12 12.1 1.9
11 0 12 12.6 1.6
-7 1 12 16.9 1.9
-6 1 12 8.2 1.2
-5 1 12 -0.1 0.8
-4 1 12 6 1
-4 1 12 8.4 1
-3 1 12 25 1.5
-3 1 12 28.6 1.6
2 -1 -12 1.1 0.9
-2 1 12 1.2 0.7
-2 1 12 1.5 0.6
1 -1 -12 9.6 1.3
-1 1 12 8.2 1
-1 1 12 8.8 1
0 -1 -12 50.99 2.3
0 1 12 44.7 1.9
0 1 12 47.5 2.1
-1 -1 -12 20.4 1.5
1 1 12 18.8 1.2
1 1 12 18.8 1.3
-2 -1 -12 27.6 1.7
2 1 12 24 1.4
2 1 12 25 1.4
-3 -1 -12 5.3 1.1
3 1 12 5.5 0.9
3 1 12 6.6 0.9
-4 -1 -12 55.49 2.6
4 1 12 56.49 2.2
4 1 12 59.79 2.4
-5 -1 -12 11.8 1.5
5 1 12 10.1 1.1
5 1 12 10.9 1.2
-6 -1 -12 32.8 2.1
6 1 12 37.8 1.8
6 1 12 37.8 1.8
-7 -1 -12 96.79 3.9
7 1 12 103.59 3.6
7 1 12 102.49 3.5
-8 -1 -12 11.6 1.7
8 1 12 11.4 1.3
8 1 12 11.6 1.2
-9 -1 -12 6.1 1.5
9 1 12 5.4 1.1
-10 -1 -12 33.2 2.5
10 1 12 33.6 2
-11 -1 -12 7.9 1.8
11 1 12 5.5 1.3
12 1 12 4.3 1.6
-8 2 12 3.8 1.4
-7 2 12 12.6 1.7
-6 2 12 23.1 1.8
-5 2 12 2.2 0.9
-4 2 12 24.8 1.5
-4 2 12 24.3 1.4
-4 2 12 25.1 1.9
-3 2 12 3 0.7
-3 2 12 3.1 0.9
-3 2 12 2 0.7
2 -2 -12 14.1 1.5
-2 2 12 12.8 1.1
-2 2 12 12 1.1
1 -2 -12 32.4 1.8
-1 2 12 27.3 1.4
-1 2 12 26.8 1.5
0 -2 -12 34.1 1.9
0 2 12 31.8 1.7
0 2 12 32.8 1.5
-1 -2 -12 65.89 2.7
1 2 12 67.09 2.6
1 2 12 66.39 2.3
-2 -2 -12 74.09 2.9
2 2 12 70.19 2.7
2 2 12 70.89 2.5
-3 -2 -12 10.8 1.4
3 2 12 9.2 1
3 2 12 10.2 1
-4 -2 -12 1.1 1
4 2 12 0.6 0.6
4 2 12 1 0.7
-5 -2 -12 34.1 2
5 2 12 34.1 1.6
5 2 12 33.8 1.7
-6 -2 -12 96.59 3.7
6 2 12 103.89 3.6
6 2 12 102.69 3.4
-7 -2 -12 17.8 1.7
7 2 12 17.5 1.3
7 2 12 17.7 1.4
-8 -2 -12 37.5 2.3
8 2 12 39 1.9
8 2 12 32.4 1.9
-9 -2 -12 53.49 2.8
9 2 12 53.59 2.4
-10 -2 -12 75.49 3.5
10 2 12 81.39 3.1
-11 -2 -12 18.7 2.3
11 2 12 20.1 1.8
-12 -2 -12 15.8 2.4
12 2 12 17 1.9
-8 3 12 0.2 1.3
-7 3 12 2.1 1.1
-6 3 12 9.8 1.3
-5 3 12 -0.8 0.8
-5 3 12 -0.8 0.8
-4 3 12 1.1 0.8
-4 3 12 0.3 0.7
-4 3 12 1.8 0.6
-3 3 12 4.4 0.9
-3 3 12 2.7 0.7
-3 3 12 4.9 1.4
2 -3 -12 0.4 0.9
-2 3 12 0.4 0.6
-2 3 12 1.6 0.6
1 -3 -12 0.4 0.8
-1 3 12 0.2 0.6
-1 3 12 0.1 0.5
0 -3 -12 21.5 1.6
0 3 12 21.8 1.1
0 3 12 19.1 1.3
-1 -3 -12 27.3 1.7
1 3 12 27.9 1.3
1 3 12 23.2 1.5
-2 -3 -12 338.27 10
2 3 12 342.57 9.9
2 3 12 339.27 9.5
-3 -3 -12 10.3 1.3
3 3 12 9.5 1.1
3 3 12 9.7 0.9
-4 -3 -12 16.9 1.5
4 3 12 15.5 1.1
4 3 12 14.1 1.2
-5 -3 -12 216.88 6.9
5 3 12 227.98 6.9
5 3 12 225.78 6.6
-6 -3 -12 30.5 2
6 3 12 31.9 1.6
6 3 12 30.7 1.7
-7 -3 -12 0.2 0.9
7 3 12 0.5 0.8
7 3 12 -0.8 0.7
-8 -3 -12 2.2 1.1
8 3 12 2.7 1
8 3 12 4.7 1
-9 -3 -12 1.2 1.1
9 3 12 -0.3 0.8
-10 -3 -12 13 2
10 3 12 15 1.6
-11 -3 -12 138.09 5.2
11 3 12 143.89 4.8
-12 -3 -12 6.4 1.7
12 3 12 7.7 1.5
-8 4 12 45.6 2.7
-7 4 12 19.3 1.9
-6 4 12 14 1.6
-6 4 12 12.9 1.5
-5 4 12 3.4 1
-5 4 12 3.2 1.1
-4 4 12 1.1 0.8
-4 4 12 0.8 0.6
3 -4 -12 0.7 0.8
-3 4 12 1.8 0.9
-3 4 12 1 0.6
2 -4 -12 1.4 0.8
2 -4 -12 1.5 0.8
-2 4 12 0.3 0.6
1 -4 -12 119.59 4.2
-1 4 12 124.09 4.1
0 -4 -12 15.6 1.4
0 4 12 15.6 1.2
-1 -4 -12 33 1.8
1 4 12 26.3 1.5
-2 -4 -12 26.9 1.6
2 4 12 26.9 1.5
-3 -4 -12 20.8 1.6
3 4 12 23.3 1.4
3 4 12 23.6 1.2
-4 -4 -12 94.09 3.6
4 4 12 97.89 3.5
4 4 12 99.39 3.1
-5 -4 -12 32.3 1.9
5 4 12 33.9 1.5
5 4 12 33.8 1.8
-6 -4 -12 1.7 1
6 4 12 1.7 0.9
6 4 12 0.4 0.7
-7 -4 -12 93.79 3.7
7 4 12 94.69 3.6
7 4 12 101.59 3.3
-8 -4 -12 2.6 1.1
8 4 12 2.7 0.9
8 4 12 3.9 1
-9 -4 -12 -0.6 1
9 4 12 -0.9 0.9
9 4 12 -0.6 0.9
-10 -4 -12 46.3 2.7
10 4 12 44 2.2
-11 -4 -12 72.79 3.5
11 4 12 75.79 3.1
-12 -4 -12 15.8 2.2
12 4 12 9.7 1.6
-8 5 12 11.9 1.7
-7 5 12 107.69 4.1
-7 5 12 106.79 4.1
-6 5 12 24.4 2
-6 5 12 25.5 1.9
5 -5 -12 62.89 2.7
-5 5 12 64.69 2.8
4 -5 -12 11.4 1.3
-4 5 12 11.1 1.4
-4 5 12 9.4 1
3 -5 -12 7 1
-3 5 12 5.9 0.8
-3 5 12 4.9 1
2 -5 -12 37.9 2
2 -5 -12 37.7 1.8
-2 5 12 35.4 1.7
1 -5 -12 5 0.9
1 -5 -12 3.5 1
-1 5 12 4.1 0.8
0 -5 -12 184.68 5.6
0 -5 -12 175.28 5.6
0 5 12 168.18 5.5
-1 -5 -12 18 1.5
1 5 12 14.2 1.2
-2 -5 -12 6.3 1.1
2 5 12 6.7 1
-3 -5 -12 76.39 2.9
3 5 12 69.89 2.8
-4 -5 -12 475.25 13.7
4 5 12 480.95 13.8
-5 -5 -12 62.99 2.7
5 5 12 59.49 2.6
-6 -5 -12 40.5 2.2
6 5 12 39.7 2.1
-7 -5 -12 1.4 1.1
7 5 12 0.9 0.9
7 5 12 -0.2 0.8
-8 -5 -12 14.7 1.7
8 5 12 16.5 1.6
8 5 12 18.7 1.4
-9 -5 -12 1.3 1.1
9 5 12 2.5 1
9 5 12 1.5 1
-10 -5 -12 0.5 1.1
10 5 12 0.2 1
-11 -5 -12 9.8 1.6
11 5 12 13.2 1.6
-12 -5 -12 1.3 1.4
12 5 12 0.8 1.5
-8 6 12 0.6 1.3
-8 6 12 0 1.4
-7 6 12 -0.7 1.2
6 -6 -12 36.1 2.2
-6 6 12 34.8 2.3
5 -6 -12 186.88 6
-5 6 12 188.18 6.1
4 -6 -12 20.2 1.6
-4 6 12 19.1 1.7
3 -6 -12 34.5 1.8
-3 6 12 32.3 1.9
-3 6 12 31.9 1.7
2 -6 -12 35.3 1.8
2 -6 -12 31.5 1.9
-2 6 12 35.9 1.8
1 -6 -12 4.7 0.9
1 -6 -12 3 1
-1 6 12 3 0.8
0 -6 -12 17.3 1.2
0 -6 -12 15.8 1.4
0 6 12 16.2 1.4
-1 -6 -12 11.9 1.3
-1 -6 -12 13 1.1
1 6 12 14 1.3
-2 -6 -12 354.06 10.7
2 6 12 380.16 10.8
-3 -6 -12 4.2 1
3 6 12 3.8 0.9
-4 -6 -12 43.4 2.1
4 6 12 42.8 2.2
-5 -6 -12 8.9 1.2
5 6 12 9.7 1.3
-6 -6 -12 13.9 1.5
6 6 12 14.9 1.5
-7 -6 -12 15.1 1.6
7 6 12 15.9 1.6
-8 -6 -12 62.79 2.8
8 6 12 61.29 2.7
-9 -6 -12 52.69 2.7
9 6 12 50.39 2.5
-10 -6 -12 37.6 2.4
-11 -6 -12 3.4 1.3
-8 7 12 18.6 2.2
7 -7 -12 9.9 1.6
-7 7 12 7.6 1.6
6 -7 -12 26.2 2
-6 7 12 24 2.1
5 -7 -12 -0.3 0.9
-5 7 12 1.1 1.1
4 -7 -12 11.8 1.4
-4 7 12 11 1.5
3 -7 -12 12.8 1.4
-3 7 12 10.3 1.4
-3 7 12 13.6 1.3
2 -7 -12 10.3 1.3
-2 7 12 9 1.2
-2 7 12 9.2 1.2
1 -7 -12 11.2 1.3
1 -7 -12 12.4 1.2
-1 7 12 14.4 1.4
0 -7 -12 5.7 0.9
0 -7 -12 5.9 1
0 7 12 5.5 1.1
-1 -7 -12 2.8 0.9
-1 -7 -12 1.6 0.8
1 7 12 3.4 1
-2 -7 -12 0.9 0.9
-2 -7 -12 1 0.6
2 7 12 2.7 0.9
-3 -7 -12 67.19 2.4
-3 -7 -12 62.69 2.7
3 7 12 65.89 2.7
-4 -7 -12 124.49 4.3
4 7 12 131.59 4.4
-5 -7 -12 22.8 1.7
5 7 12 25.2 1.7
-6 -7 -12 5.9 1.2
6 7 12 5.4 1.1
-7 -7 -12 25.1 1.8
7 7 12 22.9 1.8
-8 -7 -12 13.9 1.6
8 7 12 13.3 1.6
-9 -7 -12 166.78 5.6
9 7 12 161.38 5.5
-10 -7 -12 161.58 5.6
-8 8 12 18.1 2.3
7 -8 -12 21.7 2
-7 8 12 19.4 2.3
6 -8 -12 2 1.2
-6 8 12 1.8 1.3
5 -8 -12 2.2 1.1
-5 8 12 1.9 1.1
4 -8 -12 40.9 2.1
-4 8 12 37.5 2.2
3 -8 -12 0.8 0.9
-3 8 12 1.7 0.8
-3 8 12 0.3 0.9
2 -8 -12 1 0.8
-2 8 12 0.3 0.8
-2 8 12 -0.7 0.8
1 -8 -12 28.4 1.7
1 -8 -12 27.1 1.7
-1 8 12 31.2 1.8
0 -8 -12 21 1.5
0 -8 -12 20.3 1.4
0 8 12 20.5 1.6
-1 -8 -12 10.4 1.1
-1 -8 -12 10 1.2
1 8 12 8.8 1.3
-2 -8 -12 42.5 2.1
-2 -8 -12 46.3 1.9
2 8 12 43.7 2.2
-3 -8 -12 2.6 0.7
-3 -8 -12 0.7 0.9
3 8 12 0.7 0.9
-4 -8 -12 13.2 1.1
-4 -8 -12 12.1 1.4
4 8 12 11.6 1.4
-5 -8 -12 27.8 1.8
5 8 12 29.3 1.9
-6 -8 -12 15.7 1.5
6 8 12 13.4 1.5
-7 -8 -12 8.5 1.3
7 8 12 7.2 1.3
-8 -8 -12 16.8 1.7
8 8 12 13.4 1.7
-9 -8 -12 1.6 1.2
9 8 12 -0.6 1.1
7 -9 -12 7 1.5
-7 9 12 5.1 1.6
6 -9 -12 0.4 1.1
-6 9 12 0.3 1.2
5 -9 -12 54.59 2.7
-5 9 12 56.59 2.8
4 -9 -12 5.6 1.2
-4 9 12 4.7 1.2
3 -9 -12 35.7 2
-3 9 12 33 2
-3 9 12 31.7 1.8
2 -9 -12 5 1.1
-2 9 12 1.5 0.9
-2 9 12 3 1
1 -9 -12 -0.2 0.8
-1 9 12 -0.6 0.9
-1 9 12 0.5 0.8
0 -9 -12 19.9 1.6
0 -9 -12 25.1 1.5
0 9 12 21.3 1.6
-1 -9 -12 10.7 1.2
-1 -9 -12 8.5 1.3
1 9 12 10.3 1.4
-2 -9 -12 1.8 0.8
-2 -9 -12 1 0.7
2 9 12 0.6 0.9
-3 -9 -12 2.4 0.8
-3 -9 -12 4.1 1
3 9 12 2.2 1
-4 -9 -12 0.6 0.7
-4 -9 -12 0 0.9
4 9 12 -0.9 0.9
-5 -9 -12 157.48 5
-5 -9 -12 145.89 4.7
5 9 12 143.79 5.1
-6 -9 -12 78.49 3
-6 -9 -12 82.09 3.2
6 9 12 75.89 3.3
-7 -9 -12 4.3 1.1
7 9 12 5.5 1.3
-8 -9 -12 94.79 3.6
8 9 12 89.29 3.7
9 9 12 9.7 1.6
7 -10 -12 2.9 1.3
-7 10 12 0.2 1.5
6 -10 -12 17.9 1.8
-6 10 12 14.1 1.9
5 -10 -12 -0.2 1
-5 10 12 0 1.2
4 -10 -12 86.29 3.4
-4 10 12 79.79 3.4
3 -10 -12 56.29 2.6
-3 10 12 56.29 2.5
-3 10 12 52.49 2.6
2 -10 -12 5.3 1.1
-2 10 12 3.2 1
-2 10 12 4.4 1.1
1 -10 -12 59.69 2.5
-1 10 12 55.29 2.5
-1 10 12 50.89 2.4
0 -10 -12 95.69 3.6
0 -10 -12 100.49 3.5
0 10 12 99.39 3.7
-1 -10 -12 11.6 1.4
-1 -10 -12 12.1 1.2
1 10 12 12.6 1.5
-2 -10 -12 57.79 2.5
-2 -10 -12 56.09 2.4
2 10 12 56.69 2.6
-3 -10 -12 63.99 2.5
-3 -10 -12 62.09 2.7
3 10 12 61.89 2.8
-4 -10 -12 3.2 0.8
-4 -10 -12 1.6 1
4 10 12 3 1.1
-5 -10 -12 35.7 1.8
-5 -10 -12 33.8 2
5 10 12 36.1 2.2
-6 -10 -12 9.9 1.3
-6 -10 -12 9.3 1.3
6 10 12 8.6 1.4
-7 -10 -12 53.49 2.4
-7 -10 -12 54.89 2.5
7 10 12 52.59 2.8
8 10 12 69.49 3.3
9 10 12 10.1 1.6
6 -11 -12 -0.2 1.1
-6 11 12 -0.2 1.3
5 -11 -12 14.6 1.8
-5 11 12 9.3 1.6
4 -11 -12 -1 1
-4 11 12 -0.3 1.1
3 -11 -12 13.2 1.6
-3 11 12 10.7 1.6
2 -11 -12 20 1.7
-2 11 12 22.2 1.7
-2 11 12 19.3 1.7
1 -11 -12 13.3 1.5
-1 11 12 10.1 1.5
-1 11 12 13.1 1.5
0 -11 -12 2.8 0.9
0 11 12 2.6 1
0 11 12 4.4 1.1
-1 -11 -12 2.4 0.9
-1 -11 -12 2.7 0.9
1 11 12 2.9 1.1
-2 -11 -12 5 1
-2 -11 -12 6.4 1.1
2 11 12 5.8 1.2
-3 -11 -12 -0.9 0.7
-3 -11 -12 -0.1 0.8
3 11 12 0.4 1
-4 -11 -12 0.2 0.8
-4 -11 -12 0.4 0.9
4 11 12 -0.5 1
-5 -11 -12 0.7 0.9
-5 -11 -12 2.6 0.9
5 11 12 1.5 1.2
-6 -11 -12 18 1.6
-6 -11 -12 18.6 1.7
6 11 12 18.2 1.9
-7 -11 -12 72.99 2.9
7 11 12 65.49 3.2
-8 -11 -12 2.4 1
8 11 12 -0.9 1.2
9 11 12 5.7 1.5
6 -12 -12 2.7 1.3
-6 12 12 2.7 2.2
5 -12 -12 4.3 1.3
-5 12 12 4 1.4
4 -12 -12 1.8 1.2
-4 12 12 0.6 1.1
3 -12 -12 1 1.1
-3 12 12 1.4 1.1
2 -12 -12 66.09 3
-2 12 12 66.89 2.9
-2 12 12 62.69 2.8
1 -12 -12 48.6 2.4
-1 12 12 47 2.4
-1 12 12 48.2 2.5
0 -12 -12 71.69 3
0 12 12 72.09 3.1
0 12 12 73.39 3
-1 -12 -12 61.99 2.7
1 12 12 62.49 2.7
1 12 12 63.19 2.9
-2 -12 -12 72.59 2.9
2 12 12 72.09 3.2
-3 -12 -12 1.2 0.9
-3 -12 -12 0 0.8
3 12 12 1.3 1.2
-4 -12 -12 15.6 1.5
-4 -12 -12 16.6 1.6
4 12 12 13.9 1.9
-5 -12 -12 88.89 3.3
5 12 12 76.79 3.5
-6 -12 -12 3.7 1.1
6 12 12 2.9 1.3
-7 -12 -12 11.6 1.6
7 12 12 6.9 1.5
-8 -12 -12 54.59 2.7
8 12 12 52.59 3
9 12 12 35.8 2.7
5 -13 -12 9.8 1.6
-5 13 12 5.3 1.5
4 -13 -12 14.7 1.8
-4 13 12 14.3 1.9
3 -13 -12 7.4 1.4
-3 13 12 4.2 1.3
2 -13 -12 3.9 1.2
-2 13 12 3.6 1.2
-2 13 12 3.9 1.3
1 -13 -12 15.9 1.6
-1 13 12 14.1 1.7
-1 13 12 12.2 1.6
0 -13 -12 1 0.9
0 13 12 -0.6 1.1
0 13 12 -0.7 0.9
-1 -13 -12 12.6 1.5
1 13 12 12.4 1.5
1 13 12 8.8 1.5
-2 -13 -12 2.8 1.1
2 13 12 2.9 1
2 13 12 1.9 1.2
-3 -13 -12 29.3 1.9
3 13 12 27.5 1.8
3 13 12 29.6 2.3
-4 -13 -12 54.19 2.5
4 13 12 47.4 2.8
-5 -13 -12 50.09 2.4
5 13 12 45.8 2.8
-6 -13 -12 3.7 1.1
6 13 12 4.3 1.4
-7 -13 -12 26.8 1.9
7 13 12 18.3 2.3
-8 -13 -12 3.2 1.1
8 13 12 2 1.6
4 -14 -12 5.9 1.5
-4 14 12 3.5 1.4
3 -14 -12 8.1 1.4
-3 14 12 6.3 1.4
2 -14 -12 38.1 2.3
-2 14 12 35.1 2.4
-2 14 12 35.8 2.3
1 -14 -12 25.2 1.9
-1 14 12 19.7 1.8
-1 14 12 24.1 2.1
0 -14 -12 58.09 2.7
0 14 12 55.59 3
0 14 12 55.99 2.6
-1 -14 -12 19.5 1.8
1 14 12 19 2.2
1 14 12 19.5 1.7
-2 -14 -12 0.2 1
2 14 12 -1.8 1.3
3 14 12 187.78 6.5
-4 -14 -12 8 1.3
4 14 12 5.5 1.6
-5 -14 -12 4.4 1.2
5 14 12 5.3 1.6
-6 -14 -12 14.2 1.7
6 14 12 11 1.9
-7 -14 -12 3.5 1.2
-3 15 12 1.3 1.4
2 -15 -12 4.9 1.4
-2 15 12 4.3 1.3
1 -15 -12 38.1 2.4
-1 15 12 38.8 2.6
-1 15 12 38.7 2.3
0 -15 -12 15.1 1.7
0 15 12 15.8 2.2
0 15 12 16.9 1.7
-1 -15 -12 65.59 3.1
1 15 12 66.29 3.4
-2 -15 -12 48.8 2.6
2 15 12 45.8 3
-3 -15 -12 2.3 1.1
3 15 12 3.5 1.7
-4 -15 -12 67.29 3
4 15 12 57.79 3.4
-5 -15 -12 56.29 2.9
-1 16 12 3.7 1.5
0 16 12 26.4 2.5
1 16 12 -2.4 1.9
0 5 -13 2.4 2.4
0 -5 13 -0.2 1.2
-1 5 -13 9.5 2
1 -5 13 9.5 1.5
-2 5 -13 4.8 1.9
2 -5 13 5.3 1.3
-3 5 -13 41.9 3.1
3 -5 13 46.4 2.5
-4 5 -13 -0.3 1.6
4 -5 13 0.5 1.1
-5 5 -13 4.3 1.8
5 -5 13 4.7 1.3
6 -5 13 53.49 3.8
-7 5 -13 27.8 2.7
7 -5 13 27.5 1.8
2 4 -13 28.2 2.6
-2 -4 13 24 2.1
1 4 -13 5 1.7
-1 -4 13 6.1 1.3
0 4 -13 13 2
0 -4 13 15.2 1.7
-1 4 -13 41.8 2.8
1 -4 13 42.6 2.4
-2 4 -13 3.1 1.6
2 -4 13 1.9 1.1
-3 4 -13 4.6 1.6
3 -4 13 2.6 1.2
-4 4 -13 12.6 1.9
4 -4 13 13.4 1.7
-5 4 -13 5.2 1.6
5 -4 13 4.3 1.3
-6 4 -13 29.6 2.3
6 -4 13 35.6 2.2
6 -4 13 33.7 1.9
-7 4 -13 25.7 2.3
7 -4 13 28.8 1.8
7 -4 13 30.5 2.2
-8 4 -13 14.2 2
4 3 -13 6.5 1.7
3 3 -13 8.8 1.8
-3 -3 13 8.7 1.4
2 3 -13 9.3 1.8
-2 -3 13 10 1.5
1 3 -13 -0.9 1.3
-1 -3 13 -0.1 1.1
0 3 -13 1.8 1.4
0 -3 13 2.4 1.1
-1 3 -13 23.4 2.3
1 -3 13 26.3 1.8
-2 3 -13 23.9 2.2
2 -3 13 22 1.7
-3 3 -13 20.4 2.1
3 -3 13 20.2 1.7
-4 3 -13 7.9 1.6
-4 3 -13 6.4 1.3
4 -3 13 9.8 1.4
-5 3 -13 12.4 1.8
5 -3 13 15.1 1.6
5 -3 13 8.6 1.2
-6 3 -13 18.4 1.9
6 -3 13 16.5 1.7
6 -3 13 14.1 1.4
-7 3 -13 4.7 1.4
7 -3 13 4.1 0.9
7 -3 13 4.7 1.3
-8 3 -13 2.3 1.3
8 -3 13 1.1 1.1
-9 3 -13 25.8 2.6
9 -3 13 24.8 2.4
4 2 -13 2.2 1.5
-4 -2 13 0.4 1.1
3 2 -13 -2.1 1.3
-3 -2 13 0.3 1
2 2 -13 28.9 2.4
-2 -2 13 34.2 2
1 2 -13 4.2 1.4
-1 -2 13 5.2 1.2
0 2 -13 19 2.1
0 -2 13 17 1.6
-1 2 -13 8.5 1.6
1 -2 13 9.1 1.2
-2 2 -13 29 2.3
2 -2 13 25.6 1.7
-3 2 -13 6.7 1.5
-3 2 -13 5.8 1.3
3 -2 13 5.7 1.1
-4 2 -13 2.2 1.2
4 -2 13 2.1 0.8
4 -2 13 1.1 0.9
-5 2 -13 3.6 1.2
5 -2 13 5.7 1.2
5 -2 13 4 0.9
-6 2 -13 26.6 2.1
6 -2 13 27.2 1.9
6 -2 13 27.4 1.7
-7 2 -13 15 1.9
7 -2 13 14 1.6
7 -2 13 13.5 1.3
-8 2 -13 6.5 1.5
8 -2 13 7.4 1.3
-9 2 -13 2.2 1.3
9 -2 13 4.1 1.3
-5 -1 13 8.7 1.4
-4 -1 13 -0.6 1
3 1 -13 2.6 1.3
-3 -1 13 3.3 1
2 1 -13 -0.3 1.2
-2 -1 13 -0.9 0.8
1 1 -13 14.5 1.9
-1 -1 13 15.1 1.4
0 1 -13 18.5 1.9
0 -1 13 19.2 1.5
-1 1 -13 43.6 2.6
-1 1 -13 48.9 2.3
1 -1 13 47.9 2.2
-2 1 -13 27.5 1.9
2 -1 13 28.2 1.7
-3 1 -13 0.4 1
3 -1 13 1.4 0.7
3 -1 13 1 0.9
-4 1 -13 278.57 8.3
4 -1 13 263.77 8.2
4 -1 13 267.77 8
-5 1 -13 5.5 1.3
5 -1 13 4.3 1
5 -1 13 5.4 1
-6 1 -13 -0.1 1.1
6 -1 13 2.3 1
6 -1 13 0.3 0.6
-7 1 -13 14.1 1.9
7 -1 13 14.4 1.3
7 -1 13 15.1 1.6
-8 1 -13 13.2 1.9
8 -1 13 15 1.3
8 -1 13 14.6 1.6
-9 1 -13 73.89 3.6
9 -1 13 79.39 3.2
-10 1 -13 99.79 4.4
10 -1 13 97.99 3.9
-6 0 13 24.2 1.9
-5 0 13 27.7 1.9
-4 0 13 32.5 1.8
-4 0 13 30.9 1.9
-3 0 13 26.4 1.7
-3 0 13 29.1 1.7
-2 0 13 -0.2 0.6
-2 0 13 0.5 0.8
-1 0 13 0.8 0.7
-1 0 13 0.5 0.8
0 0 -13 2.7 1.1
0 0 13 1.4 0.7
0 0 13 3.6 0.9
-1 0 -13 9.7 1.4
1 0 13 6.9 1.1
1 0 13 5.7 1
-2 0 -13 8.6 1.3
2 0 13 9.5 1.2
2 0 13 7.2 1
-3 0 -13 22.6 1.8
3 0 13 20.9 1.4
3 0 13 20.1 1.5
-4 0 -13 20.4 1.8
4 0 13 17.2 1.4
4 0 13 20 1.4
-5 0 -13 22 1.9
5 0 13 18.6 1.5
5 0 13 21.1 1.5
-6 0 -13 17.4 1.8
6 0 13 17.2 1.4
6 0 13 17.9 1.5
-7 0 -13 2.9 1.1
7 0 13 5.9 1.1
7 0 13 4.7 0.9
-8 0 -13 49.7 2.8
8 0 13 48.4 2.2
8 0 13 47.9 2.3
-9 0 -13 0.2 1.2
9 0 13 -1.1 1
-10 0 -13 5.2 1.5
10 0 13 7 1.4
11 0 13 129.89 4.7
-5 1 13 6.1 1.2
-4 1 13 10.2 1.3
-4 1 13 10.7 1.2
-3 1 13 28.6 1.6
-3 1 13 27.5 1.6
-2 1 13 10.6 1.2
-2 1 13 9.3 1.2
1 -1 -13 60.29 2.7
-1 1 13 58.59 2.5
-1 1 13 58.09 2.3
0 -1 -13 2.7 1.1
0 1 13 1.6 0.8
0 1 13 2.8 0.8
-1 -1 -13 2.1 1
1 1 13 1.8 0.8
1 1 13 2.5 0.8
-2 -1 -13 66.99 2.8
2 1 13 65.59 2.7
2 1 13 66.29 2.5
-3 -1 -13 65.19 2.7
3 1 13 58.59 2.5
3 1 13 61.59 2.4
-4 -1 -13 2.6 1.1
4 1 13 0.9 0.8
4 1 13 0.8 0.6
-5 -1 -13 12.6 1.7
5 1 13 14.1 1.3
5 1 13 15.2 1.3
-6 -1 -13 115.49 4.3
6 1 13 113.19 4
6 1 13 119.59 3.9
-7 -1 -13 22.5 1.9
7 1 13 17.9 1.4
7 1 13 20.3 1.5
-8 -1 -13 77.69 3.4
8 1 13 76.09 3
8 1 13 77.09 3
-9 -1 -13 125.39 4.9
9 1 13 131.79 4.4
-10 -1 -13 9.2 1.7
10 1 13 12.1 1.5
-11 -1 -13 1 1.4
11 1 13 -1 1.1
-4 2 13 4.9 0.9
-3 2 13 69.89 2.8
-3 2 13 70.89 2.8
2 -2 -13 2.8 1
-2 2 13 1.2 0.7
-2 2 13 1.5 0.7
1 -2 -13 23.7 1.7
-1 2 13 19.4 1.4
-1 2 13 20.3 1.3
0 -2 -13 84.89 3.2
0 2 13 78.49 3
0 2 13 75.19 2.7
-1 -2 -13 111.19 3.9
1 2 13 113.79 3.9
1 2 13 101.89 3.5
-2 -2 -13 7.8 1.2
2 2 13 6.9 0.9
2 2 13 6.7 1
-3 -2 -13 55.49 2.6
3 2 13 57.39 2.2
3 2 13 56.59 2.4
-4 -2 -13 4.6 1.1
4 2 13 4.4 0.9
4 2 13 4.2 0.9
-5 -2 -13 12.8 1.6
5 2 13 14.3 1.2
5 2 13 15.1 1.3
-6 -2 -13 60.19 2.8
6 2 13 63.79 2.4
6 2 13 59.09 2.5
-7 -2 -13 4.9 1.2
7 2 13 6.7 1
7 2 13 3.9 0.9
-8 -2 -13 10 1.5
8 2 13 7 1.1
8 2 13 10.9 1.3
-9 -2 -13 44.5 2.7
9 2 13 41.6 2.1
-10 -2 -13 10.8 1.8
10 2 13 12.6 1.6
-11 -2 -13 26.8 2.5
11 2 13 29.6 2.1
-4 3 13 9.5 1.3
-4 3 13 10.7 1.1
-3 3 13 14.8 1.4
-3 3 13 11.1 1.1
2 -3 -13 88.29 3.4
-2 3 13 82.39 3.1
1 -3 -13 33.8 1.9
-1 3 13 34.4 1.8
0 -3 -13 52.59 2.4
0 3 13 46.1 2.2
-1 -3 -13 24.3 1.7
1 3 13 23 1.5
1 3 13 23.4 1.5
-2 -3 -13 174.88 5.6
2 3 13 169.48 5.4
2 3 13 163.48 5
-3 -3 -13 27.3 1.8
3 3 13 22.5 1.3
3 3 13 25.2 1.6
-4 -3 -13 54.29 2.6
4 3 13 54.49 2.1
4 3 13 58.79 2.4
-5 -3 -13 0.7 1
5 3 13 0.5 0.7
5 3 13 0.9 0.6
-6 -3 -13 23.1 1.9
6 3 13 23.6 1.4
6 3 13 24.6 1.6
-7 -3 -13 27.6 2
7 3 13 29.2 1.6
7 3 13 23.7 1.7
-8 -3 -13 36 2.3
8 3 13 36.7 1.9
8 3 13 33.1 2.1
-9 -3 -13 0.1 1.1
9 3 13 -1 1
9 3 13 0.3 0.9
-10 -3 -13 43.1 2.8
10 3 13 44.4 2.3
-11 -3 -13 107.09 4.6
11 3 13 115.69 4.1
12 3 13 53.19 3
-7 4 13 8.1 1.5
-6 4 13 1.3 1
-5 4 13 18.2 1.7
-5 4 13 21.1 2
-4 4 13 44.2 2.2
-3 4 13 0.7 0.6
-3 4 13 1.2 0.9
2 -4 -13 27.6 1.9
-2 4 13 28.7 1.6
1 -4 -13 35.9 2
-1 4 13 35.5 1.8
0 -4 -13 26.2 1.8
0 4 13 24.7 1.5
-1 -4 -13 0.4 0.9
1 4 13 0 0.6
-2 -4 -13 209.68 6.5
2 4 13 200.58 6.4
-3 -4 -13 33.8 2
3 4 13 35 1.8
-4 -4 -13 16.8 1.6
4 4 13 18.7 1.4
-5 -4 -13 152.38 5.2
5 4 13 159.88 5.1
-6 -4 -13 92.39 3.7
6 4 13 92.39 3.6
6 4 13 99.79 3.4
-7 -4 -13 16.5 1.8
7 4 13 18.8 1.6
7 4 13 18.6 1.4
-8 -4 -13 36.3 2.3
8 4 13 33.9 2.1
8 4 13 41.6 1.9
-9 -4 -13 24.4 2.1
9 4 13 23.6 1.9
9 4 13 25.2 1.7
-10 -4 -13 33.2 2.5
10 4 13 36.7 2.1
-11 -4 -13 5 1.5
11 4 13 2.9 1.2
12 4 13 7.6 1.6
-7 5 13 79.99 3.4
-6 5 13 28.4 2.2
-6 5 13 31.2 2.1
-5 5 13 55.49 2.5
-5 5 13 53.69 2.7
4 -5 -13 39.9 2
-4 5 13 39.9 2.2
3 -5 -13 33.5 2.1
-3 5 13 32.4 1.7
-3 5 13 30 1.9
2 -5 -13 27.7 1.9
-2 5 13 27 1.6
1 -5 -13 13 1.5
-1 5 13 12.7 1.2
0 -5 -13 10.6 1.4
0 5 13 10.1 1.1
-1 -5 -13 85.49 3.3
1 5 13 82.09 3.1
-2 -5 -13 101.19 3.7
2 5 13 100.79 3.6
-3 -5 -13 59.99 2.7
3 5 13 63.99 2.6
-4 -5 -13 7.4 1.3
4 5 13 5.7 1
-5 -5 -13 0.2 0.9
5 5 13 0.9 0.9
-6 -5 -13 1.3 1
6 5 13 2.1 1
-7 -5 -13 245.38 7.8
7 5 13 255.47 7.8
-8 -5 -13 28.1 2.1
8 5 13 29.8 2
-9 -5 -13 13.8 1.7
9 5 13 13.6 1.6
-10 -5 -13 36.3 2.6
-11 -5 -13 28.9 2.4
-7 6 13 0.7 1.4
-7 6 13 -0.1 1.2
-6 6 13 72.09 3.3
5 -6 -13 70.49 3
-5 6 13 67.19 3.1
4 -6 -13 0.2 1
-4 6 13 1 1
3 -6 -13 20.9 1.6
-3 6 13 18.2 1.7
-3 6 13 19.5 1.5
2 -6 -13 8.3 1.3
2 -6 -13 9.7 1.2
-2 6 13 8.9 1.2
1 -6 -13 38 2.1
-1 6 13 42.3 2
0 -6 -13 29.4 1.8
0 6 13 30.1 1.7
-1 -6 -13 1.9 1
1 6 13 0.7 0.8
-2 -6 -13 19.9 1.6
2 6 13 16.9 1.5
-3 -6 -13 1.6 0.9
3 6 13 1.1 0.9
-4 -6 -13 369.96 11.1
4 6 13 385.06 11.1
-5 -6 -13 17.8 1.6
5 6 13 14.9 1.6
-6 -6 -13 2.3 1
6 6 13 3.4 1.1
-7 -6 -13 50.09 2.5
7 6 13 45.9 2.5
-8 -6 -13 2.1 1.2
8 6 13 2.1 1.1
-9 -6 -13 7.4 1.5
9 6 13 6.8 1.3
-10 -6 -13 69.89 3.3
-11 -6 -13 15 2.2
-12 -6 -13 11.7 2.6
7 -7 -13 73.49 3.3
-7 7 13 68.09 3.4
6 -7 -13 41.9 2.4
-6 7 13 40.6 2.6
5 -7 -13 8.9 1.4
-5 7 13 9.1 1.5
4 -7 -13 36.5 2.1
-4 7 13 38.6 2.2
3 -7 -13 6.4 1.1
-3 7 13 5.1 1
-3 7 13 5.3 1.2
2 -7 -13 46.6 2.2
-2 7 13 49.7 2.3
-2 7 13 43.4 2.3
1 -7 -13 122.39 4
1 -7 -13 111.39 4.2
-1 7 13 123.69 4.2
0 -7 -13 3.1 1
0 -7 -13 2.5 0.8
0 7 13 2.3 1
-1 -7 -13 16 1.5
1 7 13 19 1.6
-2 -7 -13 57.19 2.6
2 7 13 59.99 2.7
-3 -7 -13 1.7 1
3 7 13 1.5 1
-4 -7 -13 42.2 2.2
4 7 13 45.8 2.3
-5 -7 -13 23.8 1.7
5 7 13 24.7 1.8
-6 -7 -13 13.1 1.6
6 7 13 14.2 1.6
-7 -7 -13 -0.7 1
7 7 13 -0.1 1
-8 -7 -13 4.4 1.3
8 7 13 4.8 1.3
-9 -7 -13 15.2 1.9
9 7 13 13 1.8
-10 -7 -13 2.5 1.4
-11 -7 -13 6.6 1.6
7 -8 -13 128.89 4.8
-7 8 13 124.79 4.9
6 -8 -13 160.68 5.5
-6 8 13 159.48 5.7
5 -8 -13 -0.8 1.1
-5 8 13 -0.4 1.1
4 -8 -13 13.2 1.5
-4 8 13 11.3 1.6
3 -8 -13 9.2 1.3
-3 8 13 7.2 1.3
-3 8 13 8.5 1.2
2 -8 -13 6.1 1.1
-2 8 13 6.7 1.2
-2 8 13 6.4 1.1
1 -8 -13 1.5 0.8
1 -8 -13 2.8 1
-1 8 13 2.8 1
0 -8 -13 176.88 5.4
0 -8 -13 158.28 5.5
0 8 13 177.98 5.6
-1 -8 -13 39.9 1.9
-1 -8 -13 36 2
1 8 13 37.5 2.1
-2 -8 -13 35 2
-2 -8 -13 40.2 2
2 8 13 36 2.1
-3 -8 -13 33.7 2
3 8 13 37.9 2.1
-4 -8 -13 23.7 1.7
4 8 13 28.2 1.9
-5 -8 -13 10.6 1.4
5 8 13 9.9 1.5
-6 -8 -13 -1.1 0.9
6 8 13 0.1 1
-7 -8 -13 23.2 1.9
7 8 13 19.3 1.8
-8 -8 -13 11.6 1.6
8 8 13 8.6 1.5
-9 -8 -13 97.59 3.8
9 8 13 86.99 3.7
-10 -8 -13 0.3 1.3
7 -9 -13 3.4 1.5
6 -9 -13 1.1 1.2
-6 9 13 -0.6 1.3
5 -9 -13 19.2 1.8
-5 9 13 16.7 1.9
4 -9 -13 2 1.1
-4 9 13 4.3 1.3
3 -9 -13 36.1 2
-3 9 13 31.6 2.1
-3 9 13 29.9 1.9
2 -9 -13 33.5 1.9
-2 9 13 30.6 2
-2 9 13 31.6 1.9
1 -9 -13 0.8 0.9
-1 9 13 0.7 0.9
-1 9 13 0 0.9
0 -9 -13 23.1 1.6
0 -9 -13 19.7 1.6
0 9 13 19.7 1.7
-1 -9 -13 37.5 1.9
-1 -9 -13 36.2 2.1
1 9 13 37 2.1
-2 -9 -13 6.1 1
-2 -9 -13 5.1 1.1
2 9 13 5.4 1.2
-3 -9 -13 118.19 3.9
-3 -9 -13 116.29 4.2
3 9 13 117.69 4.2
-4 -9 -13 1.1 1
4 9 13 1.6 1
-5 -9 -13 26.4 1.8
5 9 13 26.8 2
-6 -9 -13 32.3 2
6 9 13 31.7 2.2
-7 -9 -13 10.1 1.4
7 9 13 12.7 1.7
-8 -9 -13 0.6 1.1
8 9 13 0.1 1.2
-9 -9 -13 81.29 3.5
9 9 13 82.59 3.6
6 -10 -13 14.4 1.8
-6 10 13 10.3 1.8
5 -10 -13 114.19 4.2
-5 10 13 103.89 4.3
4 -10 -13 17 1.8
-4 10 13 16.3 1.9
3 -10 -13 56.39 2.6
-3 10 13 46.1 2.5
2 -10 -13 34.9 2
-2 10 13 32.9 2
-2 10 13 31.4 2
1 -10 -13 25.1 1.7
-1 10 13 20.9 1.8
-1 10 13 19.5 1.7
0 -10 -13 5.1 1.1
0 -10 -13 6.3 1.1
0 10 13 5 1.1
-1 -10 -13 1.9 0.9
-1 -10 -13 5.5 1
1 10 13 3.4 1.1
-2 -10 -13 86.49 3.4
-2 -10 -13 88.79 3.2
2 10 13 88.69 3.5
-3 -10 -13 7.2 1
-3 -10 -13 8.9 1.3
3 10 13 7.8 1.3
-4 -10 -13 12 1.5
-4 -10 -13 12.2 1.3
4 10 13 11.4 1.6
-5 -10 -13 20.7 1.8
5 10 13 19.2 1.8
-6 -10 -13 8.6 1.3
6 10 13 5.2 1.3
-7 -10 -13 70.49 3
7 10 13 62.79 3.1
8 10 13 16.3 2
9 10 13 1 1.4
6 -11 -13 9.5 1.6
5 -11 -13 0.3 1.1
-5 11 13 2.3 1.3
4 -11 -13 14.3 1.7
-4 11 13 12 1.8
3 -11 -13 59.29 2.8
-3 11 13 58.69 2.8
2 -11 -13 -0.2 1
-2 11 13 0.5 1
-2 11 13 0.3 1
1 -11 -13 0.6 1
-1 11 13 0.6 1
-1 11 13 1.1 1.1
0 -11 -13 0.4 0.8
0 11 13 -0.1 0.9
0 11 13 0.3 1
-1 -11 -13 2.8 0.9
-1 -11 -13 2.6 1
1 11 13 1.4 1.1
-2 -11 -13 0.5 0.9
-2 -11 -13 0 0.8
2 11 13 0 1.1
-3 -11 -13 -0.7 0.8
-3 -11 -13 -0.5 0.8
3 11 13 0 1
-4 -11 -13 -0.4 0.8
-4 -11 -13 0.5 0.9
4 11 13 -0.3 1.1
-5 -11 -13 0.8 0.8
-5 -11 -13 1.1 1
5 11 13 2.2 1.2
-6 -11 -13 11 1.8
-6 -11 -13 10.8 1.6
6 11 13 10.2 1.6
7 11 13 80.39 3.7
8 11 13 0.8 1.3
9 11 13 35.4 2.6
5 -12 -13 58.89 3
-5 12 13 56.39 3.1
4 -12 -13 26.3 2.1
-4 12 13 23 2.1
3 -12 -13 21.6 1.9
-3 12 13 20.4 1.9
2 -12 -13 4.4 1.2
-2 12 13 3.5 1.2
-2 12 13 2.4 1.2
1 -12 -13 0.5 1
-1 12 13 -0.8 1.1
-1 12 13 -0.6 0.9
0 -12 -13 28.2 1.8
0 12 13 26.3 2
0 12 13 24.7 1.8
-1 -12 -13 7.8 1.2
1 12 13 5.3 1.3
1 12 13 5.4 1.1
-2 -12 -13 13.4 1.4
-2 -12 -13 11.4 1.5
2 12 13 12.6 1.8
-3 -12 -13 5.9 1.1
-3 -12 -13 5.2 1.1
3 12 13 2.4 1.3
-4 -12 -13 6.5 1.2
-4 -12 -13 6.9 1.2
4 12 13 4.7 1.4
-5 -12 -13 15.3 1.5
-5 -12 -13 16.9 1.6
5 12 13 13 2
6 12 13 57.79 3.1
7 12 13 38.3 2.6
8 12 13 7.2 1.7
9 12 13 6.9 2
4 -13 -13 38.3 2.4
-4 13 13 40.1 2.6
3 -13 -13 60.79 3
-3 13 13 56.69 2.9
2 -13 -13 31.3 2.2
-2 13 13 30 2.1
-2 13 13 29.1 2.1
1 -13 -13 104.89 4
-1 13 13 102.79 4
-1 13 13 104.29 3.9
0 -13 -13 6.2 1.2
0 13 13 2.6 1.3
0 13 13 3.5 1.1
-1 -13 -13 31.8 2
1 13 13 36.7 2.4
1 13 13 37.9 2.1
-2 -13 -13 9.8 1.4
2 13 13 11.7 1.5
2 13 13 9 1.6
-3 -13 -13 13.6 1.6
3 13 13 11.6 1.7
-4 -13 -13 1.6 1.2
-4 -13 -13 0.5 0.9
4 13 13 1.2 1.3
-5 -13 -13 7.1 1.2
5 13 13 3 1.4
-6 -13 -13 17.3 1.7
6 13 13 16.7 2.2
-7 -13 -13 0.8 1
7 13 13 -0.4 1.4
3 -14 -13 1.9 1.2
-3 14 13 1.6 1.2
2 -14 -13 -0.4 1.1
-2 14 13 0.1 1.1
1 -14 -13 60.29 2.9
-1 14 13 58.59 2.8
-1 14 13 53.29 2.9
0 -14 -13 -0.8 0.9
0 14 13 0.1 1.3
0 14 13 -0.7 1.1
-1 -14 -13 0.9 1
1 14 13 0.2 1
1 14 13 -0.1 1.3
-2 -14 -13 3 1.1
2 14 13 1.5 1.4
2 14 13 3 1.1
-3 -14 -13 33.6 2.1
3 14 13 31.5 2.5
4 14 13 79.29 3.8
-5 -14 -13 -0.1 1
5 14 13 0.4 1.4
-6 -14 -13 3.7 1.2
6 14 13 1.6 2.1
-7 -14 -13 0.5 1
-2 15 13 22.8 2.1
1 -15 -13 -0.6 1.1
-1 15 13 -2.2 1
-1 15 13 0.5 1.4
0 -15 -13 60.69 2.9
0 15 13 56.29 3.1
0 15 13 59.19 2.9
-1 -15 -13 -0.1 1.1
1 15 13 3 1.5
-2 -15 -13 -0.7 1
2 15 13 -0.3 1.5
-3 -15 -13 0.3 1.1
3 15 13 -0.1 1.5
-4 -15 -13 3.1 1.2
-5 -15 -13 5.5 1.5
1 -4 14 5.5 1.3
-2 4 -14 5.3 1.8
2 -4 14 4.3 1.3
-3 4 -14 29.4 2.8
3 -4 14 31.5 2.2
-4 4 -14 2.3 1.7
4 -4 14 0.4 1.1
5 -4 14 0.2 1.2
5 -4 14 0.2 0.7
6 -4 14 22.6 1.7
-7 4 -14 0.1 1.3
7 -4 14 1.5 0.8
1 3 -14 2.3 1.4
-1 -3 14 0.7 1.1
0 3 -14 0.5 1.5
0 -3 14 0.9 1.1
-1 3 -14 8.4 1.8
1 -3 14 6.8 1.3
-2 3 -14 15.5 2.3
2 -3 14 13.4 1.7
-3 3 -14 1.8 1.5
3 -3 14 0.1 1
4 -3 14 1.4 0.8
4 -3 14 3.6 1.2
-5 3 -14 5.5 1.5
5 -3 14 5.7 1.1
5 -3 14 6.1 1.4
-6 3 -14 23.3 2.2
6 -3 14 25.5 1.7
6 -3 14 24.4 2
-7 3 -14 5.9 1.5
7 -3 14 6 1.4
7 -3 14 5.3 1.1
-8 3 -14 0.3 1.4
3 2 -14 52.19 3.1
-3 -2 14 46.4 2.6
2 2 -14 0.2 1.4
-2 -2 14 0.2 1.1
1 2 -14 21.1 2.3
-1 -2 14 20.9 1.9
0 2 -14 0.7 1.4
0 -2 14 1.8 1.1
-1 2 -14 45.2 2.8
1 -2 14 44.4 2.3
-2 2 -14 44.5 2.8
2 -2 14 42.5 2.2
3 -2 14 49.8 2.5
3 -2 14 57.09 2.6
-4 2 -14 6.9 1.3
4 -2 14 9 1.3
4 -2 14 8.4 1.2
-5 2 -14 29.9 2.2
5 -2 14 26.2 1.7
5 -2 14 29.4 2
-6 2 -14 0.8 1.2
6 -2 14 2.8 0.8
6 -2 14 2.8 1.2
-7 2 -14 41.4 2.6
7 -2 14 42 2.4
7 -2 14 39.9 2.1
-8 2 -14 7.5 1.5
8 -2 14 12.2 1.5
-4 -1 14 18.7 1.6
-4 -1 14 14.5 1.8
-3 -1 14 46 2.4
-3 -1 14 47.5 2.4
-2 -1 14 1 0.8
-2 -1 14 0.5 1
-1 -1 14 0 1
-1 -1 14 0.4 0.8
0 -1 14 13.2 1.4
0 -1 14 13.9 1.5
1 -1 14 -0.1 0.9
1 -1 14 0.2 0.7
-2 1 -14 0.4 1
2 -1 14 0.8 0.7
2 -1 14 1.6 0.9
-3 1 -14 18.6 1.8
3 -1 14 17.8 1.6
3 -1 14 17.2 1.5
-4 1 -14 23.7 2
4 -1 14 23.6 1.7
4 -1 14 22 1.6
-5 1 -14 9.5 1.5
5 -1 14 8.6 1.2
5 -1 14 9.4 1.3
-6 1 -14 1.6 1.3
6 -1 14 0.8 0.7
6 -1 14 1.5 1
-7 1 -14 35.5 2.4
7 -1 14 32.8 2.1
7 -1 14 31 1.9
-8 1 -14 0.5 1.2
8 -1 14 1.4 1.1
8 -1 14 0.5 0.7
-9 1 -14 0.4 1.3
9 -1 14 1.2 1.2
-4 0 14 2.2 0.9
-4 0 14 2 1.1
-3 0 14 0.3 0.8
-3 0 14 0.9 1
-2 0 14 0.6 0.8
-2 0 14 -0.5 0.9
-1 0 14 0.3 0.9
-1 0 14 0.7 0.7
0 0 14 5.5 1
0 0 14 4.9 1
-1 0 -14 1.4 1.1
1 0 14 0.1 0.8
1 0 14 0.2 0.7
-2 0 -14 10.4 1.6
2 0 14 9.2 1.2
2 0 14 10.2 1.2
-3 0 -14 39.3 2.3
3 0 14 37.8 1.9
3 0 14 36.7 2
-4 0 -14 8.1 1.4
4 0 14 10.9 1.3
4 0 14 8.1 1.2
-5 0 -14 2.1 1.2
5 0 14 3.6 1
5 0 14 2.6 0.8
-6 0 -14 28.9 2.2
6 0 14 28.1 1.8
6 0 14 29.7 1.8
-7 0 -14 1.9 1.2
7 0 14 3.3 0.9
7 0 14 3.7 1.1
-8 0 -14 13.8 1.9
8 0 14 13.3 1.3
8 0 14 12.3 1.6
-9 0 -14 43.1 2.8
9 0 14 42.8 2.3
10 0 14 0.5 1.2
-4 1 14 39 2
-3 1 14 -0.3 0.6
-2 1 14 57.79 2.6
-2 1 14 55.89 2.4
-1 1 14 39.6 2
-1 1 14 47.8 2.2
0 -1 -14 1.1 1.1
0 1 14 2.1 0.8
0 1 14 1.1 0.8
-1 -1 -14 26 1.9
1 1 14 25.8 1.7
1 1 14 27.9 1.6
-2 -1 -14 0.9 1.1
2 1 14 1 0.7
2 1 14 1.5 0.8
-3 -1 -14 20.2 1.8
3 1 14 22 1.5
3 1 14 20.1 1.5
-4 -1 -14 17 1.8
4 1 14 19 1.4
4 1 14 19.4 1.5
-5 -1 -14 7.1 1.4
5 1 14 7.9 1.2
5 1 14 9 1.1
-6 -1 -14 8.4 1.5
6 1 14 5.7 1
6 1 14 7.3 1.1
-7 -1 -14 -0.2 1.2
7 1 14 -1.5 0.8
7 1 14 0.8 0.7
-8 -1 -14 0.2 1.2
8 1 14 2.4 0.8
8 1 14 1.4 1
-9 -1 -14 66.79 3.4
9 1 14 72.89 3
-10 -1 -14 12.5 2
10 1 14 11.3 1.5
-3 2 14 7.4 1.1
2 -2 -14 27.6 1.9
-2 2 14 25 1.7
1 -2 -14 2.5 1
-1 2 14 0.9 0.7
0 -2 -14 55.49 2.6
0 2 14 48.7 2.3
-1 -2 -14 37.9 2.2
1 2 14 40 2
1 2 14 35 1.7
-2 -2 -14 27.5 1.9
2 2 14 25.9 1.5
2 2 14 22.7 1.6
-3 -2 -14 103.19 3.9
3 2 14 101.09 3.7
3 2 14 99.79 3.4
-4 -2 -14 32.3 2.1
4 2 14 32.6 1.7
4 2 14 35.3 1.9
-5 -2 -14 6.6 1.4
5 2 14 5.7 1
5 2 14 4.6 0.9
-6 -2 -14 33.5 2.2
6 2 14 31.7 1.8
6 2 14 34.2 1.8
-7 -2 -14 10.5 1.6
7 2 14 10 1.2
7 2 14 11 1.3
-8 -2 -14 73.69 3.4
8 2 14 77.09 3.1
8 2 14 77.29 3
-9 -2 -14 4.9 1.5
9 2 14 4.2 1.1
-10 -2 -14 152.28 5.7
10 2 14 158.88 5.2
11 2 14 -0.2 1.1
-3 3 14 7.8 1.1
-3 3 14 7.2 1.2
2 -3 -14 23.9 1.9
-2 3 14 21.5 1.5
1 -3 -14 22.8 1.8
-1 3 14 21.8 1.5
0 -3 -14 116.09 4.2
0 3 14 111.59 4
-1 -3 -14 166.48 5.6
1 3 14 169.98 5.5
-2 -3 -14 34.2 2
2 3 14 36 1.9
-3 -3 -14 6.5 1.3
3 3 14 8.5 1.1
-4 -3 -14 5.1 1.2
4 3 14 2.7 0.8
-5 -3 -14 10.6 1.6
5 3 14 13.4 1.3
5 3 14 12.9 1.4
-6 -3 -14 0.8 1.1
6 3 14 -0.5 0.6
6 3 14 0.6 0.8
-7 -3 -14 1.7 1.2
7 3 14 2.2 0.9
7 3 14 1.6 0.8
-8 -3 -14 14.1 1.8
8 3 14 15.2 1.7
8 3 14 14.4 1.4
-9 -3 -14 36.9 2.6
9 3 14 42.1 2.4
9 3 14 37 2.1
-10 -3 -14 17.6 2.3
10 3 14 20.9 1.7
11 3 14 0.4 1.3
-4 4 14 10.5 1.5
-3 4 14 7.6 1.3
-3 4 14 6.8 1
2 -4 -14 22.5 1.8
-2 4 14 23.5 1.6
1 -4 -14 -1.8 0.8
-1 4 14 -0.1 0.6
0 -4 -14 1.2 1
0 4 14 1.3 0.7
-1 -4 -14 32.7 2
1 4 14 30.1 1.8
-2 -4 -14 153.58 5
2 4 14 138.29 4.9
-3 -4 -14 2.8 1
3 4 14 3.9 0.9
-4 -4 -14 0.1 1
4 4 14 -0.5 0.6
-5 -4 -14 -1.2 0.9
5 4 14 0.1 0.7
-6 -4 -14 38.1 2.3
6 4 14 38.8 2.1
-7 -4 -14 4.5 1.3
7 4 14 3.3 1.1
-8 -4 -14 65.49 3.2
8 4 14 58.59 2.9
-9 -4 -14 1.5 1.4
9 4 14 0.1 1.1
-10 -4 -14 -0.8 1.3
-11 -4 -14 7.7 2.2
-5 5 14 27.9 2.1
-4 5 14 8.3 1.4
-3 5 14 4.1 0.8
-3 5 14 3.6 1.1
2 -5 -14 19.8 1.7
-2 5 14 17.1 1.4
1 -5 -14 2.7 1.1
-1 5 14 3.9 0.9
0 -5 -14 0.8 0.9
0 5 14 0.3 0.7
-1 -5 -14 34.3 2.1
1 5 14 33.7 1.9
-2 -5 -14 2.9 1.1
2 5 14 3.9 0.9
-3 -5 -14 67.29 2.9
3 5 14 64.79 2.7
-4 -5 -14 1.2 0.9
4 5 14 -0.5 0.6
-5 -5 -14 10.7 1.5
5 5 14 7.7 1.3
-6 -5 -14 54.39 2.8
6 5 14 59.99 2.8
-7 -5 -14 52.29 2.8
7 5 14 56.69 2.7
-8 -5 -14 12.8 1.9
8 5 14 10.8 1.6
-9 -5 -14 0.6 1.3
9 5 14 -0.7 1.1
-10 -5 -14 4 1.6
-11 -5 -14 23.5 2.5
-6 6 14 37.3 2.4
-6 6 14 38.3 2.6
-5 6 14 104.89 4.1
-4 6 14 1.5 1.1
-3 6 14 20 1.8
-3 6 14 21.4 1.6
2 -6 -14 15.7 1.7
-2 6 14 14.7 1.4
1 -6 -14 20.3 1.7
-1 6 14 21.4 1.5
0 -6 -14 28.4 1.9
0 6 14 27.5 1.7
-1 -6 -14 8.1 1.3
1 6 14 4.8 1
-2 -6 -14 22.4 1.8
2 6 14 25.3 1.8
-3 -6 -14 27.7 1.9
3 6 14 29.7 2
-4 -6 -14 12.1 1.6
4 6 14 11.6 1.5
-5 -6 -14 3.7 1.2
5 6 14 1.3 1.1
-6 -6 -14 59.49 2.8
6 6 14 60.79 2.8
-7 -6 -14 9.8 1.5
7 6 14 9.1 1.4
-8 -6 -14 21 2
8 6 14 19.9 1.9
-9 -6 -14 6.4 1.6
9 6 14 7.6 1.4
-10 -6 -14 7.6 1.7
-11 -6 -14 44.7 3
6 -7 -14 7.4 1.4
-6 7 14 10.6 1.7
5 -7 -14 147.39 5.1
-5 7 14 148.99 5.3
4 -7 -14 6 1.2
-4 7 14 4.9 1.4
3 -7 -14 0.1 1
-3 7 14 -1.3 0.9
-3 7 14 0.8 1.1
-2 7 14 1.6 1
-2 7 14 0.8 0.9
1 -7 -14 5.4 1.2
-1 7 14 4.5 1.1
0 -7 -14 32.6 2
0 7 14 39.5 2.2
-1 -7 -14 65.69 2.9
1 7 14 66.79 2.9
-2 -7 -14 16.8 1.6
2 7 14 18.1 1.7
-3 -7 -14 5 1.2
3 7 14 4.2 1.2
-4 -7 -14 11.7 1.5
4 7 14 14.7 1.6
-5 -7 -14 6.5 1.3
5 7 14 7.2 1.3
-6 -7 -14 11.3 1.6
6 7 14 9 1.4
-7 -7 -14 7 1.4
7 7 14 5.8 1.3
-8 -7 -14 6.3 1.4
8 7 14 7 1.4
-9 -7 -14 36 2.5
9 7 14 36.8 2.4
-10 -7 -14 2.4 1.5
-11 -7 -14 43.2 2.9
6 -8 -14 16 1.9
-6 8 14 16.4 2.2
5 -8 -14 2.6 1.2
-5 8 14 2 1.3
4 -8 -14 0.9 1.1
-4 8 14 0.8 1.2
3 -8 -14 6.3 1.2
-3 8 14 3.6 1.2
-3 8 14 4.3 1.2
2 -8 -14 6.3 1.1
-2 8 14 6.8 1.2
-2 8 14 5.6 1.2
1 -8 -14 179.38 5.7
1 -8 -14 149.99 5.4
-1 8 14 159.28 5.4
0 -8 -14 57.49 2.7
0 8 14 62.19 2.8
-1 -8 -14 17.5 1.6
1 8 14 23.6 1.8
-2 -8 -14 9.9 1.4
2 8 14 10 1.4
-3 -8 -14 0.4 1
3 8 14 0 1
-4 -8 -14 132.59 4.7
4 8 14 130.79 4.7
-5 -8 -14 5.4 1.2
5 8 14 2.9 1.1
-6 -8 -14 13.2 1.7
6 8 14 14.1 1.8
-7 -8 -14 11 1.6
7 8 14 16.3 1.8
-8 -8 -14 1.2 1.2
8 8 14 2.4 1.3
-9 -8 -14 4.2 1.5
9 8 14 3.2 1.4
-10 -8 -14 28.5 2.3
6 -9 -14 61.39 3
-6 9 14 58.39 3.7
5 -9 -14 3.7 1.3
-5 9 14 2 1.3
4 -9 -14 32.9 2.1
-4 9 14 28.1 2.3
3 -9 -14 1 1
-3 9 14 1.3 1.1
2 -9 -14 12.6 1.5
-2 9 14 13.3 1.7
-2 9 14 11.2 1.5
1 -9 -14 114.79 3.9
-1 9 14 110.59 4.1
-1 9 14 109.89 4.1
0 -9 -14 -0.1 0.9
0 -9 -14 0.5 0.9
0 9 14 0.6 1
-1 -9 -14 15.6 1.6
1 9 14 13.5 1.7
-2 -9 -14 2.6 1
2 9 14 1.9 1.1
-3 -9 -14 2.6 1.1
3 9 14 3.2 1.2
-4 -9 -14 17.7 1.8
4 9 14 16.5 1.7
-5 -9 -14 1.3 1
5 9 14 0.2 1.1
-6 -9 -14 36.4 2.2
6 9 14 36.1 2.4
-7 -9 -14 15.2 1.7
7 9 14 14.1 1.8
-8 -9 -14 12.9 1.8
8 9 14 13.1 1.9
-9 -9 -14 5.4 1.4
9 9 14 2.9 1.4
6 -10 -14 2.4 2.1
5 -10 -14 3 1.3
-5 10 14 2.1 1.4
4 -10 -14 32.8 2.2
-4 10 14 31.3 2.3
3 -10 -14 20.8 1.8
-3 10 14 16.8 1.9
2 -10 -14 0.9 1
-2 10 14 1.5 1
-2 10 14 2.2 1.1
1 -10 -14 2 1.1
-1 10 14 1.1 1.1
-1 10 14 0.6 1
0 -10 -14 7.1 1.3
0 -10 -14 6.8 1.2
0 10 14 5.7 1.2
-1 -10 -14 4.7 1.1
-1 -10 -14 5.5 1.2
1 10 14 2.6 1.1
-2 -10 -14 150.98 5.3
-2 -10 -14 169.08 5.3
2 10 14 154.28 5.4
-3 -10 -14 0.3 0.9
3 10 14 -0.8 1
-4 -10 -14 1.8 1.1
4 10 14 1.8 1.2
-5 -10 -14 12.4 1.7
5 10 14 13.3 1.8
-6 -10 -14 14.6 1.7
6 10 14 12.3 1.7
-7 -10 -14 23.2 2
7 10 14 22.7 2.2
-8 -10 -14 77.59 3.4
8 10 14 74.19 3.5
9 10 14 30.7 2.5
5 -11 -14 54.19 2.8
4 -11 -14 1.7 1.2
-4 11 14 1 1.2
3 -11 -14 109.09 4.1
-3 11 14 103.59 4.1
2 -11 -14 63.79 2.8
-2 11 14 56.89 2.8
-2 11 14 60.69 2.9
1 -11 -14 11.6 1.4
-1 11 14 8 1.3
-1 11 14 9.7 1.5
0 -11 -14 53.49 2.5
0 11 14 52.29 2.6
0 11 14 53.99 2.7
-1 -11 -14 43.8 2.2
-1 -11 -14 41.5 2.3
1 11 14 41.4 2.4
-2 -11 -14 21 1.8
-2 -11 -14 20.8 1.6
2 11 14 20.9 2
-3 -11 -14 4.8 1.2
-3 -11 -14 5.1 1.1
3 11 14 3.2 1.4
-4 -11 -14 58.79 2.8
4 11 14 57.79 3
-5 -11 -14 0.4 1
5 11 14 -0.7 1.2
-6 -11 -14 20.6 1.9
6 11 14 17.7 2.1
-7 -11 -14 0.9 1.2
7 11 14 0 1.2
8 11 14 66.69 3.4
9 11 14 39.5 2.8
4 -12 -14 0.4 1.1
-4 12 14 0.8 1.3
3 -12 -14 44.8 2.5
-3 12 14 39.1 2.5
2 -12 -14 1.9 1.2
-2 12 14 1.5 1.2
-2 12 14 1.1 1.1
1 -12 -14 39.7 2.3
-1 12 14 37.1 2.3
-1 12 14 38.5 2.3
0 -12 -14 2.2 1
0 12 14 0.6 1.2
0 12 14 -0.8 1
-1 -12 -14 4.5 1.1
1 12 14 2.4 1.3
1 12 14 2.7 1.1
-2 -12 -14 16.1 1.7
-2 -12 -14 15.1 1.5
2 12 14 15.4 2
-3 -12 -14 35.7 2.1
-3 -12 -14 30.9 1.9
3 12 14 34.8 2.4
-4 -12 -14 9.6 1.4
-4 -12 -14 6.9 1.2
4 12 14 6.4 1.5
-5 -12 -14 0.8 1
5 12 14 0.1 1.2
-6 -12 -14 0.6 1.4
6 12 14 -1.1 1.3
7 12 14 3.4 1.5
8 12 14 25.8 2.4
3 -13 -14 0.5 1.2
-3 13 14 -0.6 1.1
2 -13 -14 34.4 2.2
-2 13 14 28.7 2.2
1 -13 -14 34.7 2.3
-1 13 14 30.1 2.4
-1 13 14 36.2 2.3
0 -13 -14 1.8 1.1
0 13 14 1.8 1.4
0 13 14 1 1.1
-1 -13 -14 -0.4 0.9
1 13 14 1.8 1.1
1 13 14 0.4 1.4
-2 -13 -14 103.29 3.9
2 13 14 103.09 4.3
2 13 14 103.79 3.9
-3 -13 -14 45.7 2.3
-3 -13 -14 45.9 2.5
3 13 14 45.6 2.9
-4 -13 -14 23.2 1.9
-4 -13 -14 23.9 1.8
4 13 14 17.7 2.2
5 13 14 29.5 2.5
6 13 14 97.69 4.3
2 -14 -14 1 1.1
-2 14 14 -1.2 1.1
1 -14 -14 1.9 1.2
-1 14 14 2.5 1.4
-1 14 14 2.2 1.2
0 -14 -14 38.5 2.3
0 14 14 36.8 2.6
0 14 14 37.7 2.3
-1 -14 -14 8.3 1.4
1 14 14 6.7 1.6
1 14 14 11 1.6
-2 -14 -14 74.59 3.2
2 14 14 76.59 3.2
2 14 14 72.49 3.6
-3 -14 -14 2.1 1.1
3 14 14 2.9 1.5
3 14 14 2 1.1
-4 -14 -14 14.5 1.7
4 14 14 9.2 1.8
-5 -14 -14 4.4 1.3
5 14 14 6.9 2.6
-1 15 14 2.6 1.5
0 -15 -14 47.8 2.6
0 15 14 47.4 2.6
0 15 14 41.8 2.9
-1 -15 -14 12.4 1.7
1 15 14 15.8 1.8
1 15 14 14.5 2.3
-2 -15 -14 0.6 1.1
2 15 14 -0.4 2.4
-3 -15 -14 3.4 1.2
1 -3 15 7.4 2.4
2 -3 15 2 1.2
3 -3 15 1 1.2
4 -3 15 2.1 1.2
5 -3 15 36 2.9
-6 3 -15 -0.2 1.7
-1 -2 15 2.2 1.2
0 -2 15 0.6 0.9
0 -2 15 0.5 1.1
1 -2 15 9.1 1.4
1 -2 15 9.2 1.4
2 -2 15 28.6 1.9
2 -2 15 24.8 2
3 -2 15 2.9 0.9
3 -2 15 1 1.1
4 -2 15 3.5 1.2
4 -2 15 3 0.9
-5 2 -15 0.3 1.2
5 -2 15 0.4 0.8
5 -2 15 1.1 1.1
-6 2 -15 -1.1 1.3
6 -2 15 1.7 1.2
6 -2 15 1.3 0.8
-7 2 -15 27.2 2.4
7 -2 15 27.3 1.8
7 -2 15 26.3 2.1
-2 -1 15 -0.7 1.1
-2 -1 15 1 0.9
-1 -1 15 3.4 1.1
-1 -1 15 3.1 1
0 -1 15 4.6 1.2
0 -1 15 7.1 1.2
1 -1 15 -0.1 0.8
1 -1 15 0.8 1
2 -1 15 6.7 1.2
2 -1 15 6.5 1.1
-3 1 -15 95.69 3.8
3 -1 15 93.19 3.6
3 -1 15 95.69 3.7
-4 1 -15 20.4 2
4 -1 15 20.2 1.7
4 -1 15 19.5 1.6
-5 1 -15 0.8 1.2
5 -1 15 -0.1 1
5 -1 15 0.1 0.7
-6 1 -15 79.29 3.6
6 -1 15 79.09 3.3
6 -1 15 83.79 3.3
-7 1 -15 -0.3 1.3
7 -1 15 1.1 1.2
7 -1 15 0.3 0.7
-8 1 -15 5.4 1.6
8 -1 15 11.6 1.4
8 -1 15 9.8 1.5
-3 0 15 -0.1 0.8
-2 0 15 13.3 1.5
-2 0 15 11.7 1.8
-1 0 15 0.2 1
-1 0 15 2.4 0.9
0 0 15 -1 0.9
0 0 15 -0.2 0.7
1 0 15 9.9 1.3
1 0 15 9.4 1.2
-2 0 -15 9.2 1.4
2 0 15 11.3 1.3
2 0 15 8.6 1.3
-3 0 -15 8.8 1.4
3 0 15 9.6 1.3
3 0 15 9.2 1.3
-4 0 -15 8.8 1.5
4 0 15 8 1.2
4 0 15 9.3 1.3
-5 0 -15 18.4 1.9
5 0 15 19 1.6
5 0 15 17.8 1.5
-6 0 -15 9.1 1.6
6 0 15 10.1 1.3
6 0 15 11.7 1.4
-7 0 -15 2.6 1.5
7 0 15 0.2 1
7 0 15 1.6 0.8
-8 0 -15 81.49 3.8
8 0 15 85.39 3.4
8 0 15 84.39 3.4
9 0 15 4.3 1.3
-3 1 15 3.7 1
-2 1 15 14.2 1.5
-1 1 15 7.4 1.2
0 1 15 2.1 0.9
-1 -1 -15 3.4 1.2
1 1 15 2.7 0.9
1 1 15 3.4 1
-2 -1 -15 19.5 1.8
2 1 15 22.3 1.5
2 1 15 18.1 1.6
-3 -1 -15 2.9 1.2
3 1 15 3.1 0.9
3 1 15 4.2 1
-4 -1 -15 25.5 2
4 1 15 25.9 1.7
4 1 15 24.5 1.7
-5 -1 -15 111.89 4.4
5 1 15 116.99 4.2
5 1 15 115.59 4
-6 -1 -15 3.8 1.3
6 1 15 6.4 1.1
6 1 15 6.6 1.1
-7 -1 -15 12.2 1.8
7 1 15 11.1 1.3
7 1 15 12.2 1.5
-8 -1 -15 50.69 3
8 1 15 58.19 2.6
8 1 15 50.99 2.5
-9 -1 -15 7.1 1.7
9 1 15 2.6 1.2
10 1 15 1.1 1.4
-3 2 15 10.3 1.3
-2 2 15 43.9 2.3
1 -2 -15 146.89 5.1
-1 2 15 144.39 5
0 -2 -15 9.9 1.4
0 2 15 8.6 1.2
-1 -2 -15 6.3 1.4
1 2 15 7.1 1.1
-2 -2 -15 40.2 2.4
2 2 15 44.9 2.2
-3 -2 -15 46 2.5
3 2 15 46.9 2.3
-4 -2 -15 -1.8 1
4 2 15 0.1 0.7
-5 -2 -15 0.5 1.1
5 2 15 -0.2 0.7
5 2 15 1.1 0.9
-6 -2 -15 0.8 1.2
6 2 15 2.5 0.9
6 2 15 1.6 0.9
-7 -2 -15 15.1 2
7 2 15 14.8 1.5
7 2 15 16.5 1.5
-8 -2 -15 -0.6 1.3
8 2 15 1 0.8
8 2 15 2.2 1
-9 -2 -15 16.2 2.2
9 2 15 12.3 1.6
10 2 15 174.78 5.8
-3 3 15 1.9 0.8
2 -3 -15 1.2 1.1
-2 3 15 0.7 0.8
1 -3 -15 43.7 2.5
-1 3 15 47 2.3
0 -3 -15 42.2 2.4
0 3 15 41.6 2.2
-1 -3 -15 81.49 3.4
1 3 15 76.99 3.2
-2 -3 -15 48 2.6
2 3 15 55.99 2.5
-3 -3 -15 3.9 1.2
3 3 15 3.6 0.9
-4 -3 -15 12.8 1.7
4 3 15 11.7 1.3
-5 -3 -15 15.2 1.8
5 3 15 16.9 1.5
-6 -3 -15 101.29 4.2
6 3 15 112.79 4
-7 -3 -15 28.3 2.3
7 3 15 29.6 1.9
-8 -3 -15 5.7 1.5
8 3 15 4.6 1.2
-9 -3 -15 41 2.8
9 3 15 44.1 2.6
-3 4 15 14.3 1.7
-3 4 15 18.8 1.5
2 -4 -15 4 1.2
-2 4 15 3.7 0.9
1 -4 -15 24.3 2
-1 4 15 21 1.6
0 -4 -15 3.4 1.2
0 4 15 1.7 0.8
-1 -4 -15 213.18 6.7
1 4 15 198.38 6.6
-2 -4 -15 5.4 1.3
2 4 15 5.5 1
-3 -4 -15 2.2 1
3 4 15 5 1
-4 -4 -15 30.6 2.1
4 4 15 33 1.9
-5 -4 -15 -0.5 1
5 4 15 0.3 0.7
-6 -4 -15 2.1 1.3
6 4 15 1.7 0.9
-7 -4 -15 27.7 2.3
7 4 15 28 2.1
-8 -4 -15 202.98 6.9
8 4 15 199.68 6.6
-9 -4 -15 58.89 3.3
9 4 15 60.49 3
-10 -4 -15 2.3 1.7
-4 5 15 48.8 2.7
-3 5 15 141.69 4.9
-3 5 15 136.49 4.7
2 -5 -15 -0.1 1
-2 5 15 1.5 0.8
1 -5 -15 -0.7 1
-1 5 15 1 0.8
0 -5 -15 8 1.4
0 5 15 7.5 1.1
-1 -5 -15 6.5 1.3
1 5 15 6.1 1.1
-2 -5 -15 65.79 3
2 5 15 66.39 2.9
-3 -5 -15 230.08 7.3
3 5 15 225.48 7.2
-4 -5 -15 0.4 1
4 5 15 1 0.8
-5 -5 -15 1.5 1.2
5 5 15 0.3 0.9
-6 -5 -15 47 2.7
6 5 15 49.9 2.6
-7 -5 -15 15.9 2
7 5 15 13.6 1.8
-8 -5 -15 4.3 1.5
8 5 15 5.7 1.4
-9 -5 -15 39 2.8
9 5 15 41.7 2.5
-10 -5 -15 0.7 1.5
-5 6 15 2.9 1.5
-4 6 15 61.89 3
-3 6 15 180.48 6
-3 6 15 183.18 6.1
-2 6 15 120.79 4.4
-2 6 15 118.59 4.3
1 -6 -15 1 1
-1 6 15 0.9 0.8
0 -6 -15 11 1.5
0 6 15 10.6 1.3
-1 -6 -15 1.1 1.1
1 6 15 1.3 0.8
-2 -6 -15 76.79 3.3
2 6 15 78.29 3.3
-3 -6 -15 4.6 1.2
3 6 15 4.2 1.2
-4 -6 -15 21.2 1.8
4 6 15 23 1.9
-5 -6 -15 3.1 1.2
5 6 15 4.6 1.2
-6 -6 -15 83.49 3.6
6 6 15 81.39 3.5
-7 -6 -15 -0.8 1.1
7 6 15 -1.4 1
-8 -6 -15 14.8 2
8 6 15 12.8 1.8
-9 -6 -15 27.2 2.4
9 6 15 24.6 2.1
-10 -6 -15 54.09 3.2
-5 7 15 24.1 2.3
-4 7 15 20.7 2.1
-3 7 15 7.5 1.5
-2 7 15 5.9 1.3
-2 7 15 7.5 1.4
1 -7 -15 12.2 1.6
-1 7 15 14.3 1.7
0 -7 -15 1.3 1
0 7 15 -1.7 0.9
-1 -7 -15 82.29 3.5
1 7 15 94.39 3.7
-2 -7 -15 57.09 2.8
2 7 15 61.89 2.9
-3 -7 -15 -0.3 1
3 7 15 -0.4 1
-4 -7 -15 23.8 1.9
4 7 15 25.3 2
-5 -7 -15 5.3 1.2
5 7 15 5.1 1.3
-6 -7 -15 19.9 1.9
6 7 15 17.2 1.8
-7 -7 -15 12.9 1.9
7 7 15 9.7 1.5
-8 -7 -15 59.99 3.1
8 7 15 55.79 2.9
-9 -7 -15 21.2 2.2
9 7 15 17.2 2
-10 -7 -15 12.1 2
-5 8 15 3.8 1.6
-4 8 15 12.9 1.9
-3 8 15 24 2.1
-2 8 15 0.9 1.2
-2 8 15 1.2 1.1
1 -8 -15 64.69 3
-1 8 15 66.19 3
0 -8 -15 153.98 5.5
0 8 15 167.78 5.5
-1 -8 -15 4.4 1.1
1 8 15 3.9 1.2
-2 -8 -15 15.7 1.7
2 8 15 14.8 1.8
-3 -8 -15 6 1.3
3 8 15 5.6 1.4
-4 -8 -15 16.7 1.8
4 8 15 16.5 1.8
-5 -8 -15 -0.4 1
5 8 15 2.3 1.2
-6 -8 -15 22.3 1.9
6 8 15 23.4 2.1
-7 -8 -15 1.8 1.3
7 8 15 0.3 1.2
-8 -8 -15 5.6 1.6
8 8 15 5.9 1.5
-9 -8 -15 8 1.7
9 8 15 7.6 1.6
-10 -8 -15 2.7 1.5
5 -9 -15 5 1.4
4 -9 -15 56.79 2.8
-4 9 15 60.39 3.1
-3 9 15 13.8 1.9
-2 9 15 1.9 1.1
-2 9 15 2.2 1.2
-1 9 15 26.1 2
-1 9 15 25.6 2
0 -9 -15 5.8 1.3
0 9 15 4.6 1.3
-1 -9 -15 19.9 1.9
1 9 15 20.5 2
-2 -9 -15 4.4 1.2
2 9 15 3.8 1.3
-3 -9 -15 15.5 1.7
3 9 15 13.5 1.8
-4 -9 -15 25.2 2
4 9 15 27.6 2.1
-5 -9 -15 16.5 1.8
5 9 15 15.7 1.9
-6 -9 -15 97.09 3.9
6 9 15 92.99 3.9
-7 -9 -15 2.1 1.2
7 9 15 2.2 1.4
-8 -9 -15 17.2 2.1
8 9 15 15.8 2
-9 -9 -15 2 1.3
9 9 15 0.2 1.4
-10 -9 -15 18.6 2.2
5 -10 -15 84.59 3.6
4 -10 -15 5.8 1.3
-4 10 15 1.4 1.4
3 -10 -15 -0.1 1
-3 10 15 1.8 1.3
2 -10 -15 41.8 2.3
-2 10 15 39.6 2.3
-2 10 15 38.1 2.4
-1 10 15 54.99 2.7
-1 10 15 51.89 2.7
0 -10 -15 10.4 1.6
0 10 15 7.5 1.4
-1 -10 -15 112.69 4.3
1 10 15 120.89 4.4
-2 -10 -15 0.3 1
2 10 15 1.2 1.2
-3 -10 -15 1.6 1
3 10 15 -0.5 1.2
-4 -10 -15 2.2 1.1
4 10 15 -0.8 1.1
-5 -10 -15 3.3 1.3
5 10 15 4 1.4
-6 -10 -15 13.9 1.8
6 10 15 9.5 1.7
-7 -10 -15 -0.7 1.2
7 10 15 0.3 1.3
-8 -10 -15 19.3 2.1
8 10 15 20 2.2
-9 -10 -15 5 1.7
9 10 15 3.2 1.5
4 -11 -15 33.9 2.3
3 -11 -15 2.6 1.2
-3 11 15 1.3 1.3
2 -11 -15 27.8 2
-2 11 15 25.1 2.1
-2 11 15 25.8 2.1
1 -11 -15 11.4 1.5
-1 11 15 9.2 1.4
-1 11 15 8 1.5
0 -11 -15 29.1 1.9
0 11 15 31.3 2.1
0 11 15 27.9 2.2
-1 -11 -15 41.9 2.4
1 11 15 41.3 2.6
-2 -11 -15 24.2 2
2 11 15 22.7 2.2
-3 -11 -15 31.2 2.1
3 11 15 34.1 2.5
-4 -11 -15 22 2
4 11 15 27.4 2.4
-5 -11 -15 2.8 1.3
5 11 15 1.8 1.3
-6 -11 -15 10.8 1.6
6 11 15 7 1.6
-7 -11 -15 51.59 2.8
7 11 15 47.7 2.9
8 11 15 25.4 2.4
3 -12 -15 0.5 1.2
-3 12 15 0.7 1.7
2 -12 -15 31.9 2.1
-2 12 15 28.2 2.2
1 -12 -15 24.2 1.9
-1 12 15 25 2
-1 12 15 21.3 2.1
0 -12 -15 24.7 1.9
0 12 15 18.6 2.1
0 12 15 22.7 1.9
-1 -12 -15 26.1 1.9
1 12 15 25.3 2.3
1 12 15 27.6 2
-2 -12 -15 0.3 1.1
2 12 15 -0.2 1.3
-3 -12 -15 3.3 1.2
3 12 15 2.2 1.4
-4 -12 -15 14.3 1.8
4 12 15 11.2 1.8
-5 -12 -15 2.4 1.1
5 12 15 -0.1 1.3
-6 -12 -15 1.6 1.2
6 12 15 1.1 1.4
7 12 15 52.09 3.2
3 -13 -15 43.7 3.7
2 -13 -15 60.99 3
-2 13 15 65.99 3.9
1 -13 -15 36.8 2.3
-1 13 15 32.6 2.4
-1 13 15 33.7 2.3
0 -13 -15 4 1.2
0 13 15 2.9 1.5
0 13 15 4 1.2
-1 -13 -15 7.4 1.3
1 13 15 6.9 1.7
1 13 15 6 1.3
-2 -13 -15 5.1 1.1
2 13 15 7.4 1.3
2 13 15 4.7 1.6
-3 -13 -15 4.5 1.3
-3 -13 -15 4.4 1.7
3 13 15 2 1.4
-4 -13 -15 3.3 1.2
4 13 15 3.9 1.6
-5 -13 -15 1.3 1.2
5 13 15 0.1 1.5
1 -14 -15 86.59 3.6
-1 14 15 81.29 3.7
0 -14 -15 5.5 1.3
0 14 15 6.2 1.6
0 14 15 5.3 1.3
-1 -14 -15 9.5 1.4
1 14 15 12 1.7
1 14 15 8.1 1.8
-2 -14 -15 37.9 2.2
2 14 15 39.4 2.3
2 14 15 34.5 2.8
-3 -14 -15 29.4 2
3 14 15 33.1 2.1
3 14 15 26.4 2.7
-2 -15 -15 -0.8 1.6
2 15 15 1.4 1.2
3 -2 16 6.4 2.1
0 -1 16 7.4 1.4
1 -1 16 16.9 1.7
2 -1 16 27.8 2.5
2 -1 16 18.6 1.9
3 -1 16 138.79 4.9
3 -1 16 142.29 5.1
-4 1 -16 4.7 1.7
4 -1 16 4.1 1.3
4 -1 16 6.4 1.2
-5 1 -16 2 1.3
5 -1 16 3.6 1.2
5 -1 16 5.2 1.1
-6 1 -16 5.7 1.6
6 -1 16 8 1.4
6 -1 16 10.5 1.7
0 0 16 37.9 2.3
1 0 16 21.1 1.7
2 0 16 3.8 1
2 0 16 2.9 1.2
-3 0 -16 7.4 1.4
3 0 16 11.2 1.5
3 0 16 11 1.4
-4 0 -16 0.4 1.2
4 0 16 0.3 1
4 0 16 1.4 0.8
-5 0 -16 0.6 1.2
5 0 16 1.1 1.1
5 0 16 2 0.9
-6 0 -16 2.7 1.4
6 0 16 3.6 1
6 0 16 3 1.1
-7 0 -16 0.5 1.4
7 0 16 0.5 1.1
7 0 16 0.3 0.8
8 0 16 4.8 1.4
8 0 16 5 1.1
-2 1 16 37.5 2.2
-1 1 16 5.5 1.2
0 1 16 14.8 1.6
1 1 16 91.19 3.7
-2 -1 -16 1.3 1.2
2 1 16 1.1 0.9
-3 -1 -16 53.49 2.8
3 1 16 56.79 2.7
-4 -1 -16 34.4 2.3
4 1 16 30.2 2
-5 -1 -16 37.8 2.5
5 1 16 38.8 2.8
5 1 16 36.4 2.1
-6 -1 -16 1.8 1.3
6 1 16 5.1 1.2
6 1 16 3.6 1
-7 -1 -16 5.5 1.5
7 1 16 6.3 1.1
7 1 16 6.3 1.2
8 1 16 1.7 0.9
8 1 16 1.8 1.2
9 1 16 30.6 2.6
-3 2 16 11.9 1.5
-2 2 16 29.4 2
-1 2 16 53.49 2.6
0 -2 -16 106.89 4.3
0 2 16 114.19 4.2
-1 -2 -16 27.6 2.2
1 2 16 27.7 1.9
-2 -2 -16 1.4 1.3
2 2 16 1.5 0.9
-3 -2 -16 0.4 1
3 2 16 0.1 0.8
-4 -2 -16 6.8 1.4
4 2 16 6.5 1.1
-5 -2 -16 113.49 4.4
5 2 16 111.79 4.2
-6 -2 -16 9 1.6
6 2 16 10.3 1.4
-7 -2 -16 5.8 1.6
7 2 16 6 1.1
-8 -2 -16 0.6 1.4
8 2 16 0.2 0.8
-3 3 16 11.5 1.4
-2 3 16 9.6 1.3
1 -3 -16 71.29 3.3
-1 3 16 67.69 3
0 -3 -16 1.8 1.2
0 3 16 1.1 0.9
-1 -3 -16 5.7 1.4
1 3 16 3.9 1
-2 -3 -16 3.7 1.2
2 3 16 1.2 0.9
-3 -3 -16 4.4 1.3
3 3 16 8.6 1.3
-4 -3 -16 0.3 1.1
4 3 16 1.8 0.8
-5 -3 -16 0.6 1.2
5 3 16 0.8 0.8
-6 -3 -16 14.4 1.9
6 3 16 15.3 1.5
-7 -3 -16 50.19 2.9
7 3 16 55.89 2.6
-8 -3 -16 0.8 1.4
8 3 16 -0.5 1
9 3 16 4.1 1.3
-3 4 16 4.3 1
-2 4 16 76.99 3.2
1 -4 -16 31.8 2.3
-1 4 16 31.5 2
0 -4 -16 42.4 2.5
0 4 16 41.2 2.3
-1 -4 -16 123.39 4.6
1 4 16 118.69 4.4
-2 -4 -16 72.79 3.3
2 4 16 73.69 3.1
-3 -4 -16 0.4 1.1
3 4 16 1.1 0.8
-4 -4 -16 31 2.3
4 4 16 33.8 2
-5 -4 -16 12.4 1.9
5 4 16 15.9 1.5
-6 -4 -16 4.2 1.4
6 4 16 6.2 1.2
-7 -4 -16 3.8 1.5
7 4 16 5 1.3
-8 -4 -16 3.6 1.5
8 4 16 5.7 1.4
9 4 16 1.2 1.2
-3 5 16 45.9 2.7
-3 5 16 47.1 2.9
-2 5 16 246.28 7.8
-2 5 16 253.97 7.9
1 -5 -16 5.7 1.3
-1 5 16 7.1 1.2
0 -5 -16 4 1.2
0 5 16 4.5 1.1
-1 -5 -16 42.8 2.5
1 5 16 40.5 2.3
-2 -5 -16 7.1 1.4
2 5 16 4.1 1
-3 -5 -16 43.6 2.5
3 5 16 42.3 2.3
-4 -5 -16 7.1 1.4
4 5 16 5.2 1.1
-5 -5 -16 1.1 1.2
5 5 16 0.4 1
-6 -5 -16 0.4 1.2
6 5 16 0.8 1.1
-7 -5 -16 25 2.3
7 5 16 26.6 2.2
-8 -5 -16 1.6 1.6
8 5 16 1.1 1.2
-9 -5 -16 6.3 1.8
9 5 16 8.5 1.5
-4 6 16 32.8 2.5
-3 6 16 0.7 1.3
-2 6 16 89.49 3.7
-2 6 16 96.39 3.8
1 -6 -16 32.4 2.3
-1 6 16 38.7 2.2
0 -6 -16 5.8 1.3
0 6 16 7.1 1.2
-1 -6 -16 11.6 1.7
1 6 16 13.4 1.6
-2 -6 -16 111.29 4.3
2 6 16 112.89 4.3
-3 -6 -16 41.9 2.5
3 6 16 48.8 2.7
-4 -6 -16 3.1 1.2
4 6 16 3.2 1.2
-5 -6 -16 14 1.9
5 6 16 18 1.9
-6 -6 -16 -0.3 1.1
6 6 16 1.1 1.2
-7 -6 -16 20.4 2.2
7 6 16 20.5 2
-8 -6 -16 29.3 2.5
8 6 16 24.6 2.1
-9 -6 -16 13.5 2.1
9 6 16 12.5 1.9
-4 7 16 88.79 3.8
-3 7 16 18.2 2.1
-2 7 16 6.8 1.4
-2 7 16 7.2 1.5
1 -7 -16 8.4 1.5
-1 7 16 9.4 1.5
0 -7 -16 14.3 1.8
0 7 16 14 1.8
-1 -7 -16 15.5 1.8
1 7 16 18.2 1.9
-2 -7 -16 77.99 3.5
2 7 16 81.89 3.5
-3 -7 -16 166.98 5.9
3 7 16 172.68 5.9
-4 -7 -16 22.4 2.1
4 7 16 24.3 2.1
-5 -7 -16 0.3 1.1
5 7 16 -0.3 1.1
-6 -7 -16 1.1 1.3
6 7 16 -0.6 1.2
-7 -7 -16 4.8 1.4
7 7 16 4.8 1.4
-8 -7 -16 7.7 1.7
8 7 16 5.9 1.4
-9 -7 -16 15.8 2.3
9 7 16 15.1 2
-4 8 16 44.1 3
-3 8 16 1.8 1.3
-2 8 16 7.2 1.4
-2 8 16 8.3 1.5
1 -8 -16 6.9 1.4
-1 8 16 7.8 1.5
0 -8 -16 8.3 1.5
0 8 16 9.3 1.6
-1 -8 -16 54.79 2.9
1 8 16 61.69 3
-2 -8 -16 4.4 1.3
2 8 16 2.6 1.3
-3 -8 -16 89.39 3.8
3 8 16 95.79 4
-4 -8 -16 4 1.4
4 8 16 4.7 1.4
-5 -8 -16 13 1.8
5 8 16 12.6 1.9
-6 -8 -16 -1.1 1.1
6 8 16 0.3 1.2
-7 -8 -16 1.7 1.4
7 8 16 4.2 1.4
-8 -8 -16 3 1.4
8 8 16 3.4 1.4
-9 -8 -16 7.2 1.8
9 8 16 4.2 1.5
-3 9 16 12.2 1.8
-2 9 16 5.8 1.4
-2 9 16 4.2 1.4
-1 9 16 3 1.2
-1 9 16 4 1.3
0 -9 -16 34 2.3
0 9 16 34.3 2.4
-1 -9 -16 93.99 3.9
1 9 16 95.49 3.9
-2 -9 -16 15 1.7
2 9 16 13.4 1.9
-3 -9 -16 11.3 1.7
3 9 16 11.7 1.8
-4 -9 -16 13.1 1.9
4 9 16 15.1 2
-5 -9 -16 69.89 3.3
5 9 16 73.89 3.4
-6 -9 -16 1.2 1.3
6 9 16 1.1 1.3
-7 -9 -16 3.1 1.3
7 9 16 4.3 1.5
-8 -9 -16 21.1 2.2
8 9 16 21.6 2.2
-9 -9 -16 2.5 2
9 9 16 4.7 1.8
-3 10 16 22.1 2.6
-2 10 16 0 1.3
-2 10 16 -1.9 1.1
-1 10 16 5.9 1.4
-1 10 16 5.9 1.5
0 -10 -16 10.5 1.6
0 10 16 11.1 1.7
-1 -10 -16 3.1 1.2
1 10 16 3.1 1.4
-2 -10 -16 3.4 1.3
2 10 16 4 1.5
-3 -10 -16 49.8 2.7
3 10 16 49 2.8
-4 -10 -16 9.7 1.6
4 10 16 6.2 1.5
-5 -10 -16 1.2 1.3
5 10 16 0.8 1.3
-6 -10 -16 15.3 2.1
6 10 16 17.9 2.1
-7 -10 -16 0.3 1.4
7 10 16 -0.6 1.4
-8 -10 -16 37.2 2.6
8 10 16 32.7 2.6
-1 11 16 16.4 2
-1 11 16 16 1.9
0 11 16 54.69 2.9
0 11 16 51.29 2.7
-1 -11 -16 2.9 1.3
1 11 16 3.3 1.5
-2 -11 -16 24.6 2.2
2 11 16 25.4 2.3
-3 -11 -16 15.2 1.9
3 11 16 18.5 2.2
-4 -11 -16 13.9 1.9
4 11 16 16.1 2.1
-5 -11 -16 22.1 2.2
5 11 16 23.9 2.4
-6 -11 -16 8.6 1.6
6 11 16 5.8 1.6
-7 -11 -16 1.9 1.4
7 11 16 4 1.6
-8 -11 -16 6.5 1.7
3 -12 -16 1.7 1.3
2 -12 -16 20.4 2.8
-1 12 16 0.6 1.2
-1 12 16 0.6 1.4
0 12 16 25.8 2.1
0 12 16 21.4 2.3
1 12 16 108.89 4.4
1 12 16 105.89 4.1
-2 -12 -16 17.9 2
2 12 16 18.3 2.3
-3 -12 -16 -0.6 1.2
3 12 16 -1.1 1.4
-4 -12 -16 9.8 1.6
4 12 16 8.3 1.8
-5 -12 -16 6 1.4
5 12 16 5.1 1.6
-6 -12 -16 7.3 1.5
-7 -12 -16 3.8 1.6
2 -13 -16 3.8 1.5
1 -13 -16 31.6 2.2
-1 13 16 31.2 2.5
0 13 16 4.8 1.6
0 13 16 2.4 1.5
1 13 16 64.99 3.4
1 13 16 68.89 3.1
2 13 16 -1.7 1.4
2 13 16 1.3 1.1
-3 -13 -16 0.1 1.2
3 13 16 1.5 1.6
-4 -13 -16 10.1 1.6
-5 -13 -16 10 1.7
0 -14 -16 20.3 1.9
2 14 16 2.8 1.8
3 14 16 97.49 4.1
-4 -14 -16 -0.2 1.3
-4 0 -17 6.5 1.5
-5 0 -17 4.4 1.6
-3 -1 -17 15.9 2
3 1 17 17.9 2
-4 -1 -17 62.89 3.2
4 1 17 66.39 3.4
-5 -1 -17 20.1 2.2
5 1 17 18.4 2.2
-6 -1 -17 7.3 2.6
0 2 17 11.2 1.7
-1 -2 -17 14.9 2
1 2 17 10.9 1.6
-2 -2 -17 3.2 1.4
2 2 17 3.4 1.1
-3 -2 -17 2.9 1.3
3 2 17 5.6 1.2
-4 -2 -17 7.2 1.4
4 2 17 10.9 1.5
-5 -2 -17 32.2 2.5
5 2 17 40.7 2.3
-6 -2 -17 8 1.6
6 2 17 8.1 1.3
7 2 17 72.99 3.4
-1 3 17 9.3 1.4
0 -3 -17 231.78 7.7
0 3 17 237.48 7.6
-1 -3 -17 20.4 2.1
1 3 17 20.6 1.8
-2 -3 -17 0.2 1.2
2 3 17 0.7 0.9
-3 -3 -17 38.5 2.5
3 3 17 35.4 2.2
-4 -3 -17 22.4 2.1
4 3 17 23.6 1.8
-5 -3 -17 52.29 2.9
5 3 17 53.19 2.7
-6 -3 -17 1.7 1.3
6 3 17 0 0.8
-7 -3 -17 39.8 3
7 3 17 38.4 2.3
8 3 17 0.7 1.3
-2 4 17 1 0.9
1 -4 -17 3.3 1.3
-1 4 17 5 1.2
0 -4 -17 49.5 2.8
0 4 17 47.9 2.6
-1 -4 -17 1.7 1.2
1 4 17 2.7 1
-2 -4 -17 50.59 2.8
2 4 17 50.89 2.6
-3 -4 -17 8.3 1.6
3 4 17 6.9 1.2
-4 -4 -17 -0.1 1.1
4 4 17 2.1 0.9
-5 -4 -17 1.2 1.2
5 4 17 0.8 0.9
-6 -4 -17 1.9 1.4
6 4 17 0.9 0.9
-7 -4 -17 53.59 3.2
7 4 17 65.09 3.1
8 4 17 15.9 1.9
-2 5 17 50.89 2.8
-2 5 17 49.2 2.6
1 -5 -17 1 1.2
-1 5 17 0 0.9
0 -5 -17 1.1 1.3
0 5 17 0.7 0.9
-1 -5 -17 0.7 1.2
1 5 17 0.9 0.9
-2 -5 -17 3.1 1.4
2 5 17 0.9 1
-3 -5 -17 7.5 1.5
3 5 17 9.7 1.4
-4 -5 -17 30.9 2.3
4 5 17 35.9 2.2
-5 -5 -17 86.49 3.9
5 5 17 102.39 4.1
-6 -5 -17 14.7 2
6 5 17 13.6 1.9
-7 -5 -17 0.7 1.4
7 5 17 0.3 1.2
8 5 17 20 2.1
-3 6 17 54.29 3.4
-2 6 17 40.7 2.7
-2 6 17 43.9 2.6
1 -6 -17 8.5 1.6
-1 6 17 12.8 1.7
0 -6 -17 49.6 2.8
0 6 17 50.49 2.7
-1 -6 -17 18.9 2
1 6 17 16.6 1.9
-2 -6 -17 24.6 2.1
2 6 17 21.3 2.1
-3 -6 -17 0.4 1.2
3 6 17 0.4 1.2
-4 -6 -17 3.9 1.4
4 6 17 5.1 1.4
-5 -6 -17 -0.5 1.1
5 6 17 -0.9 1.1
-6 -6 -17 27 2.4
6 6 17 24.2 2.2
-7 -6 -17 11.1 1.8
7 6 17 17.6 2
8 6 17 20.3 2.2
-2 7 17 60.59 3
-2 7 17 60.49 3.1
1 -7 -17 65.99 3.2
-1 7 17 64.19 3.2
0 -7 -17 2.2 1.3
0 7 17 2 1.4
-1 -7 -17 0.8 1.1
1 7 17 -0.6 1.3
-2 -7 -17 74.29 3.5
2 7 17 80.89 3.6
-3 -7 -17 3.7 1.3
3 7 17 3 1.4
-4 -7 -17 15.2 1.9
4 7 17 14.6 2
-5 -7 -17 1.6 1.3
5 7 17 1 1.3
-6 -7 -17 1.3 1.2
6 7 17 3 1.4
-7 -7 -17 10.6 1.8
7 7 17 11.4 1.7
8 7 17 24.9 2.3
-2 8 17 34.4 2.5
-2 8 17 32.1 2.4
-1 8 17 8.4 1.6
0 -8 -17 3.4 1.2
0 8 17 1.3 1.4
-1 -8 -17 1.1 1.2
1 8 17 -0.3 1.3
-2 -8 -17 98.59 4.1
2 8 17 105.49 4.3
-3 -8 -17 5.9 1.4
3 8 17 6.4 1.5
-4 -8 -17 29.1 2.4
4 8 17 30.7 2.4
-5 -8 -17 51.19 3
5 8 17 56.49 3
-6 -8 -17 2.2 1.4
6 8 17 2 1.4
-7 -8 -17 25 2.4
7 8 17 29.7 2.4
8 8 17 17.7 2.4
-2 9 17 61.19 3.8
-1 9 17 30.6 2.4
-1 9 17 25.5 2.3
0 -9 -17 26.7 2.2
0 9 17 23.4 2.3
-1 -9 -17 3.6 1.4
1 9 17 4.5 1.5
-2 -9 -17 1 1.2
2 9 17 3.8 1.5
-3 -9 -17 7.3 1.5
3 9 17 4.1 1.6
-4 -9 -17 0.2 1.3
4 9 17 0.6 1.4
-5 -9 -17 1 1.4
5 9 17 -1.9 1.2
-6 -9 -17 4.6 1.6
6 9 17 3 1.4
-7 -9 -17 0.4 1.4
7 9 17 0.3 1.3
-1 10 17 16 2
-1 10 17 17.7 2.2
0 -10 -17 3.7 1.4
0 10 17 2 1.4
-1 -10 -17 3.1 1.3
1 10 17 3 1.5
-2 -10 -17 4.9 1.4
2 10 17 2.6 1.5
-3 -10 -17 19 2
3 10 17 20.3 2.3
-4 -10 -17 3.1 1.4
4 10 17 2.5 1.4
-5 -10 -17 7.6 1.7
5 10 17 8.5 1.7
-6 -10 -17 8.2 1.7
6 10 17 7.7 1.7
-7 -10 -17 15.7 2.6
-1 11 17 32.8 2.5
0 11 17 43.4 2.7
0 11 17 39.3 2.7
-1 -11 -17 66.49 3.3
1 11 17 63.39 3.4
-2 -11 -17 37 2.5
2 11 17 37.3 2.7
-3 -11 -17 5.6 1.5
3 11 17 3 1.6
-4 -11 -17 39.1 2.7
4 11 17 40.9 2.9
-5 -11 -17 7.2 1.6
5 11 17 9.4 2.2
-6 -11 -17 2.1 1.5
-1 12 17 20.4 2.5
0 12 17 0.7 1.5
1 12 17 36.5 2.8
-2 -12 -17 5.6 1.5
2 12 17 3.8 1.7
-3 -12 -17 16 2.1
3 12 17 14.8 2.8
-4 -12 -17 11.8 1.8
-5 -12 -17 1 2
-2 -2 -18 78.39 4.1
-3 -2 -18 1.5 1.6
-1 -3 -18 50.49 2.9
-2 -3 -18 31.7 2.5
-3 -3 -18 18.7 2.2
-4 -3 -18 11.9 2
0 -4 -18 66.69 3.4
-1 -4 -18 -0.4 1.2
-2 -4 -18 3.5 1.4
-3 -4 -18 0.5 1.2
-4 -4 -18 0.3 1.2
-5 -4 -18 7 2.4
0 -5 -18 104.19 4.3
-1 -5 -18 59.39 3.1
1 5 18 59.69 3.3
-2 -5 -18 7.1 1.6
2 5 18 4.2 1.2
-3 -5 -18 6.6 1.6
3 5 18 6.1 1.3
-4 -5 -18 0.3 1.3
4 5 18 0 1
-5 -5 -18 0.9 1.4
5 5 18 1.2 1.4
0 -6 -18 26.3 2.3
0 6 18 26.4 2.4
-1 -6 -18 24.9 2.2
1 6 18 30.8 2.4
-2 -6 -18 14 1.9
2 6 18 14.3 2
-3 -6 -18 15.3 2.1
3 6 18 16.4 2.1
-4 -6 -18 28.9 2.3
4 6 18 25.7 2.3
-5 -6 -18 5.7 1.6
5 6 18 8.8 1.7
-1 7 18 7.4 2.3
0 -7 -18 6.9 1.6
0 7 18 8 1.7
-1 -7 -18 4.1 1.3
1 7 18 6.6 1.7
-2 -7 -18 56.49 3.1
2 7 18 58.99 3.2
-3 -7 -18 -0.9 1.2
3 7 18 1.2 1.4
-4 -7 -18 4.5 1.5
4 7 18 5.2 1.6
-5 -7 -18 39.9 2.8
5 7 18 43.1 2.8
-1 8 18 92.99 5.1
0 8 18 30.4 2.5
-1 -8 -18 5.8 1.6
1 8 18 5.3 1.7
-2 -8 -18 0.6 1.1
2 8 18 -0.2 1.4
-3 -8 -18 0.5 1.3
3 8 18 1.3 1.5
-4 -8 -18 19.3 2.2
4 8 18 23.7 2.4
-5 -8 -18 20.5 2.7
5 8 18 19.8 2.9
0 9 18 8.7 1.9
1 9 18 0.4 1.5
-2 -9 -18 75.79 3.7
2 9 18 72.49 3.7
-3 -9 -18 61.09 3.3
3 9 18 64.19 3.4
-4 -9 -18 19.5 2.5
4 9 18 20.9 3.1
