#------------------------------------------------------------------------------
#$Date: 2017-06-05 03:47:15 +0300 (Mon, 05 Jun 2017) $
#$Revision: 197490 $
#$URL: file:///home/coder/svn-repositories/cod/cif/1/54/57/1545780.cif $
#------------------------------------------------------------------------------
#
# This file is available in the Crystallography Open Database (COD),
# http://www.crystallography.net/
#
# All data on this site have been placed in the public domain by the
# contributors.
#
data_1545780
loop_
_publ_author_name
'Yi, Liang'
'Zhang, Yuyang'
'Zhang, Zhao-Fei'
'Sun, Dequn'
'Ye, Song'
_publ_section_title
;
 Synthesis of Dihydropyridinone-Fused Indoles and \a-Carbolines via
 N-Heterocyclic Carbene-Catalyzed [3 + 3] Annulation of Indolin-2-imines
 and Bromoenals.
;
_journal_issue                   9
_journal_name_full               'Organic letters'
_journal_page_first              2286
_journal_page_last               2289
_journal_paper_doi               10.1021/acs.orglett.7b00820
_journal_volume                  19
_journal_year                    2017
_chemical_formula_moiety         'C25 H21 Br N2 O3 S'
_chemical_formula_sum            'C25 H21 Br N2 O3 S'
_chemical_formula_weight         509.41
_space_group_crystal_system      monoclinic
_space_group_IT_number           14
_space_group_name_Hall           '-P 2ybc'
_space_group_name_H-M_alt        'P 1 21/c 1'
_symmetry_space_group_name_Hall  '-P 2ybc'
_symmetry_space_group_name_H-M   'P 1 21/c 1'
_atom_sites_solution_hydrogens   geom
_atom_sites_solution_primary     dual
_audit_creation_date             2016-09-12
_audit_creation_method
;
Olex2 1.2
(compiled 2016.02.19 svn.r3266 for OlexSys, GUI svn.r5221)
;
_cell_angle_alpha                90
_cell_angle_beta                 98.720(7)
_cell_angle_gamma                90
_cell_formula_units_Z            4
_cell_length_a                   8.729(4)
_cell_length_b                   9.996(4)
_cell_length_c                   25.710(11)
_cell_measurement_reflns_used    5612
_cell_measurement_temperature    173
_cell_measurement_theta_max      27.5
_cell_measurement_theta_min      1.6
_cell_volume                     2217.4(16)
_computing_cell_refinement
;
CrystalClear-SM Expert 2.0 r4 (Rigaku, 2009)
;
_computing_data_collection
;
CrystalClear-SM Expert 2.0 r4 (Rigaku, 2009)
;
_computing_data_reduction
;
CrystalClear-SM Expert 2.0 r4 (Rigaku, 2009)
;
_computing_molecular_graphics    'Olex2 (Dolomanov et al., 2009)'
_computing_publication_material  'CIFTAB (Sheldrick, 2013)'
_computing_structure_refinement  'ShelXL (Sheldrick, 2014)'
_computing_structure_solution    'ShelXT (Sheldrick, 2014)'
_diffrn_ambient_temperature      173
_diffrn_detector                 CCD
_diffrn_detector_area_resol_mean 28.5714
_diffrn_measured_fraction_theta_full 0.994
_diffrn_measured_fraction_theta_max 0.994
_diffrn_measurement_details
;
scan:
    Number of images: 348
               Slice: -110.0000 - 64.0000
         Image width: 0.5000
            Exp time: 8.0000
       Rotation axis: Omega
               Omega: 0.0000
                 Chi: 45.0000
                 Phi: 0.0000
                 XTD: 45.1443
              2theta: -19.9339
scan:
    Number of images: 278
               Slice: -80.0000 - 59.0000
         Image width: 0.5000
            Exp time: 8.0000
       Rotation axis: Omega
               Omega: 0.0000
                 Chi: 45.0000
                 Phi: 90.0000
                 XTD: 45.1443
              2theta: -19.9339
scan:
    Number of images: 360
               Slice: -110.0000 - 70.0000
         Image width: 0.5000
            Exp time: 8.0000
       Rotation axis: Omega
               Omega: 0.0000
                 Chi: 45.0000
                 Phi: 180.0000
                 XTD: 45.1443
              2theta: -19.9339
scan:
    Number of images: 252
               Slice: -80.0000 - 46.0000
         Image width: 0.5000
            Exp time: 8.0000
       Rotation axis: Omega
               Omega: 0.0000
                 Chi: 45.0000
                 Phi: 270.0000
                 XTD: 45.1443
              2theta: -19.9339
;
_diffrn_measurement_device
;
AFC10: Fixed Chi 2 circle
;
_diffrn_measurement_device_type
;
Rigaku Saturn724+ (2x2 bin mode)
;
_diffrn_measurement_method       'profile data from \w-scans'
_diffrn_measurement_specimen_support Fiber
_diffrn_orient_matrix_type       d*Trek
_diffrn_orient_matrix_UB_11      -0.101857
_diffrn_orient_matrix_UB_12      0.037800
_diffrn_orient_matrix_UB_13      -0.040353
_diffrn_orient_matrix_UB_21      0.000709
_diffrn_orient_matrix_UB_22      -0.072108
_diffrn_orient_matrix_UB_23      -0.069334
_diffrn_orient_matrix_UB_31      -0.023797
_diffrn_orient_matrix_UB_32      -0.021842
_diffrn_orient_matrix_UB_33      0.022473
_diffrn_radiation_monochromator  'Graphite Monochromator'
_diffrn_radiation_type           MoK\a
_diffrn_radiation_wavelength     0.71073
_diffrn_reflns_av_R_equivalents  0.0913
_diffrn_reflns_av_unetI/netI     0.0574
_diffrn_reflns_Laue_measured_fraction_full 0.994
_diffrn_reflns_Laue_measured_fraction_max 0.994
_diffrn_reflns_limit_h_max       10
_diffrn_reflns_limit_h_min       -10
_diffrn_reflns_limit_k_max       11
_diffrn_reflns_limit_k_min       -11
_diffrn_reflns_limit_l_max       30
_diffrn_reflns_limit_l_min       -30
_diffrn_reflns_number            24835
_diffrn_reflns_point_group_measured_fraction_full 0.994
_diffrn_reflns_point_group_measured_fraction_max 0.994
_diffrn_reflns_theta_full        25.198
_diffrn_reflns_theta_max         25.198
_diffrn_reflns_theta_min         2.645
_diffrn_source                   'Sealed Tube'
_diffrn_source_current           30.0
_diffrn_source_power             1.5
_diffrn_source_voltage           50.0
_exptl_absorpt_coefficient_mu    1.979
_exptl_absorpt_correction_T_max  1.000
_exptl_absorpt_correction_T_min  0.731
_exptl_absorpt_correction_type   multi-scan
_exptl_absorpt_process_details
'CrystalClear-SM Expert 2.0 r4 (Rigaku, 2009)'
_exptl_crystal_colour            Colorless
_exptl_crystal_density_diffrn    1.526
_exptl_crystal_description       Plate
_exptl_crystal_F_000             1040
_exptl_crystal_size_max          0.324
_exptl_crystal_size_mid          0.182
_exptl_crystal_size_min          0.069
_refine_diff_density_max         0.493
_refine_diff_density_min         -0.547
_refine_diff_density_rms         0.087
_refine_ls_extinction_method     none
_refine_ls_goodness_of_fit_ref   1.327
_refine_ls_hydrogen_treatment    constr
_refine_ls_matrix_type           full
_refine_ls_number_parameters     393
_refine_ls_number_reflns         3965
_refine_ls_number_restraints     423
_refine_ls_restrained_S_all      1.286
_refine_ls_R_factor_all          0.1414
_refine_ls_R_factor_gt           0.1280
_refine_ls_shift/su_max          0.000
_refine_ls_shift/su_mean         0.000
_refine_ls_structure_factor_coef Fsqd
_refine_ls_weighting_details
'w=1/[\s^2^(Fo^2^)+14.1723P] where P=(Fo^2^+2Fc^2^)/3'
_refine_ls_weighting_scheme      calc
_refine_ls_wR_factor_gt          0.1920
_refine_ls_wR_factor_ref         0.1975
_reflns_Friedel_coverage         0.000
_reflns_number_gt                3603
_reflns_number_total             3965
_reflns_threshold_expression     'I > 2\s(I)'
_cod_data_source_file            ol7b00820_si_002.cif
_cod_data_source_block           sa5034
_cod_depositor_comments
;
The following automatic conversions were performed:

'_exptl_absorpt_correction_type' value 'Multi-scan' changed to
'multi-scan' according to
/home/data/users/saulius/crontab/automatic-downloads/rss-feeds/ACS/lib/dictionaries/cif_core.dic
dictionary named 'cif_core.dic' version 2.4.2 from 2011-04-26.

Automatic conversion script
Id: cif_fix_values 4973 2017-02-22 13:04:09Z antanas 

 Adding full bibliography for 1545780.cif.
;
_cod_database_code               1545780
_shelx_space_group_comment
;
The symmetry employed for this shelxl refinement is uniquely defined
by the following loop, which should always be used as a source of
symmetry information in preference to the above space-group names.
They are only intended as comments.
;
_olex2_refinement_description
;
1. Fixed Uiso
 At 1.2 times of:
  All C(H) groups, All C(H,H) groups
 At 1.5 times of:
  All C(H,H,H) groups
2. Restrained distances
 C25A-C20 = C25-C20 = C23-C22 = C21-C20 = C24-C23 = C22-C21 = C25-C24
 1.39 with sigma of 0.01
 S1-C13A = S1-C13
 1.76 with sigma of 0.01
3. Uiso/Uaniso restraints and constraints
C21 \\sim C22 \\sim C23 \\sim C24 \\sim C25 \\sim C21A \\sim C24A \\sim C22A
\\sim C25A: within 1.7A with sigma of 0.02 and sigma for terminal atoms of 0.04
C13 \\sim C14 \\sim C15 \\sim C16 \\sim C17 \\sim C18 \\sim C19 \\sim C18A
\\sim C13A \\sim C14A \\sim C19A \\sim C15A \\sim C16A \\sim C17A: within 1.7A
with sigma of 0.02 and sigma for terminal atoms of 0.04
Uanis(C20) \\sim Ueq, Uanis(C21) \\sim Ueq, Uanis(C22) \\sim Ueq, Uanis(C23)
\\sim Ueq, Uanis(C24A) \\sim Ueq, Uanis(C25A) \\sim Ueq, Uanis(C25) \\sim Ueq,
Uanis(C24) \\sim Ueq, Uanis(C21A) \\sim Ueq, Uanis(C22A) \\sim Ueq: with sigma
of 0.01 and sigma for terminal atoms of 0.02
Uanis(C13) \\sim Ueq, Uanis(C14) \\sim Ueq, Uanis(C15) \\sim Ueq, Uanis(C16)
\\sim Ueq, Uanis(C17) \\sim Ueq, Uanis(C18) \\sim Ueq, Uanis(C19) \\sim Ueq,
Uanis(C13A) \\sim Ueq, Uanis(C14A) \\sim Ueq, Uanis(C15A) \\sim Ueq,
Uanis(C16A) \\sim Ueq, Uanis(C17A) \\sim Ueq, Uanis(C18A) \\sim Ueq,
Uanis(C19A) \\sim Ueq: with sigma of 0.01 and sigma for terminal atoms of 0.02
4. Others
 Sof(H23A)=Sof(C21A)=Sof(H21A)=Sof(C24A)=Sof(H24A)=Sof(C22A)=Sof(H22A)=
 Sof(C25A)=Sof(H25A)=1-FVAR(1)
 Sof(C21)=Sof(H21)=Sof(C22)=Sof(H22)=Sof(H23)=Sof(C24)=Sof(H24)=Sof(C25)=
 Sof(H25)=FVAR(1)
 Sof(C18A)=Sof(H18A)=Sof(C13A)=Sof(C14A)=Sof(H14A)=Sof(C19A)=Sof(H19D)=
 Sof(H19E)=Sof(H19F)=Sof(C15A)=Sof(H15A)=Sof(C16A)=Sof(C17A)=Sof(H17A)=1-FVAR(2)
 Sof(C13)=Sof(C14)=Sof(H14)=Sof(C15)=Sof(H15)=Sof(C16)=Sof(C17)=Sof(H17)=
 Sof(C18)=Sof(H18)=Sof(C19)=Sof(H19A)=Sof(H19B)=Sof(H19C)=FVAR(2)
5.a Ternary CH refined with riding coordinates:
 C10(H10)
5.b Secondary CH2 refined with riding coordinates:
 C11(H11A,H11B)
5.c Aromatic/amide H refined with riding coordinates:
 C2(H2), C4(H4), C5(H5), C14(H14), C15(H15), C17(H17), C18(H18), C21(H21),
 C22(H22), C23(H23), C23(H23A), C24(H24), C25(H25), C21A(H21A), C18A(H18A),
 C24A(H24A), C14A(H14A), C15A(H15A), C22A(H22A), C17A(H17A), C25A(H25A)
5.d Idealised Me refined as rotating group:
 C9(H0AA,H0AB,H0AC), C19(H19A,H19B,H19C), C19A(H19D,H19E,H19F)
;
_shelx_res_file
;
    sa5034.res created by SHELXL-2014/7

TITL sa5034 in P2(1)/c
CELL 0.71073 8.729 9.996 25.71 90 98.72 90
ZERR 4 0.004 0.004 0.011 0 0.007 0
LATT 1
SYMM -X,0.5+Y,0.5-Z
SFAC C H Br N O S
UNIT 100 84 4 8 12 4
DFIX 1.39 0.01 C25A C20 C25 C20 C23 C22 C21 C20 C24 C23 C22 C21 C25 C24
DFIX 1.76 0.01 S1 C13A S1 C13
SIMU 0.02 0.04 1.7 C21 > C21A C24A C22A C25A
SIMU 0.02 0.04 1.7 C13 > C19 C18A C13A C14A C19A C15A C16A C17A
ISOR 0.01 0.02 C20 C21 C22 C23 C24A C25A C25 C24 C21A C22A
ISOR 0.01 0.02 C13 C14 C15 C16 C17 C18 C19 C13A C14A C15A C16A C17A C18A C19A

L.S. 4
PLAN  20
BOND
fmap 2
MORE -1
BOND $H
ACTA
CONF
OMIT -2 50.4
OMIT 1 6 0
OMIT -7 0 4
OMIT 0 4 13
OMIT 0 2 7
OMIT 0 3 12
OMIT 0 1 2
OMIT 0 1 1
OMIT -4 5 3
OMIT 1 0 0
OMIT 0 0 2
OMIT -4 2 4
OMIT -2 1 2
OMIT 3 3 1
OMIT 0 3 10
REM <olex2.extras>
REM <HklSrc "%.\\sa5034.hkl">
REM </olex2.extras>

WGHT    0.000000   14.172300
FVAR       0.28457   0.37605   0.67229
BR1   3    0.261003    0.402252    0.323350    11.00000    0.13142    0.04534 =
         0.05414   -0.00524   -0.01066    0.03353
S1    6    1.083399   -0.133638    0.365197    11.00000    0.03427    0.13252 =
         0.02922   -0.01977    0.00612   -0.01685
O1    5    0.897840   -0.370629    0.336268    11.00000    0.05445    0.07633 =
         0.03552   -0.00248    0.00566    0.03301
O2    5    1.104369    0.004403    0.376849    11.00000    0.06309    0.13070 =
         0.03791    0.00484   -0.00504   -0.04842
O3    5    1.177613   -0.197252    0.332358    11.00000    0.03406    0.26070 =
         0.03586   -0.04810    0.01121    0.00691
N1    4    0.834030    0.087006    0.304052    11.00000    0.05967    0.06955 =
         0.02813    0.00176    0.01072   -0.02462
N2    4    0.894927   -0.142031    0.333772    11.00000    0.03245    0.07331 =
         0.02238   -0.00888    0.00349   -0.00650
C1    1    0.594161    0.103880    0.326281    11.00000    0.06150    0.03562 =
         0.02261    0.00311    0.00778   -0.01310
C2    1    0.455085    0.171257    0.331439    11.00000    0.06583    0.03644 =
         0.02401   -0.00176    0.00585   -0.00752
AFIX  43
H2    2    0.375685    0.128794    0.345404    11.00000   -1.20000
AFIX   0
C3    1    0.441786    0.302294    0.314967    11.00000    0.09684    0.03248 =
         0.02703   -0.00337   -0.00255    0.00851
C4    1    0.556299    0.368796    0.292033    11.00000    0.14484    0.02858 =
         0.02274   -0.00120   -0.01149   -0.01689
AFIX  43
H4    2    0.541613    0.457321    0.281300    11.00000   -1.20000
AFIX   0
C5    1    0.690716    0.302711    0.285420    11.00000    0.11776    0.04933 =
         0.02147    0.00173    0.00712   -0.04099
AFIX  43
H5    2    0.766242    0.344393    0.269222    11.00000   -1.20000
AFIX   0
C6    1    0.709992    0.171951    0.303682    11.00000    0.07586    0.04131 =
         0.02373   -0.00099    0.00073   -0.02568
C7    1    0.799766   -0.028215    0.328051    11.00000    0.04655    0.04736 =
         0.02156   -0.00203    0.00770   -0.01230
C8    1    0.652761   -0.026086    0.340792    11.00000    0.03907    0.04266 =
         0.01931   -0.00273    0.00931   -0.00693
C9    1    0.965685    0.112675    0.275290    11.00000    0.05545    0.11967 =
         0.03419    0.00295    0.02169   -0.04231
AFIX 137
H0AA  2    0.929165    0.158857    0.243052    11.00000   -1.50000
H0AB  2    1.011617    0.029163    0.267536    11.00000   -1.50000
H0AC  2    1.041660    0.166653    0.296629    11.00000   -1.50000
AFIX   0
C10   1    0.580501   -0.150615    0.357905    11.00000    0.03163    0.03501 =
         0.03246    0.00118    0.00519   -0.00386
AFIX  13
H10   2    0.469066   -0.145916    0.345021    11.00000   -1.20000
AFIX   0
C11   1    0.648364   -0.265541    0.328054    11.00000    0.04754    0.03372 =
         0.02294   -0.00180   -0.00395   -0.00305
AFIX  23
H11A  2    0.613583   -0.349854    0.340845    11.00000   -1.20000
H11B  2    0.605415   -0.258732    0.291077    11.00000   -1.20000
AFIX   0
C12   1    0.821002   -0.269619    0.332583    11.00000    0.03418    0.06337 =
         0.02028   -0.01144    0.00222    0.00298
PART 1
C13   1    1.095851   -0.229530    0.423318    31.00000    0.03915    0.05375 =
         0.03077   -0.01823   -0.00142    0.00747
C14   1    1.071914   -0.160627    0.470775    31.00000    0.04361    0.04297 =
         0.03489   -0.01167    0.00895    0.00501
AFIX  43
H14   2    1.041921   -0.071271    0.468822    31.00000   -1.20000
AFIX   0
C15   1    1.092295   -0.223628    0.518518    31.00000    0.05907    0.05859 =
         0.03944   -0.00429    0.00829   -0.00504
AFIX  43
H15   2    1.085851   -0.173195    0.548506    31.00000   -1.20000
AFIX   0
C16   1    1.120995   -0.354191    0.523918    31.00000    0.08205    0.07561 =
         0.05308    0.00777   -0.00476   -0.00448
C17   1    1.142780   -0.426177    0.479934    31.00000    0.08765    0.06528 =
         0.07231    0.00208   -0.00886    0.01266
AFIX  43
H17   2    1.167703   -0.516488    0.483586    31.00000   -1.20000
AFIX   0
C18   1    1.129030   -0.369483    0.431293    31.00000    0.06463    0.04903 =
         0.05083   -0.00889   -0.00125    0.00965
AFIX  43
H18   2    1.141413   -0.422626    0.402532    31.00000   -1.20000
AFIX   0
C19   1    1.140635   -0.418963    0.578430    31.00000    0.14081    0.11551 =
         0.06722    0.02489   -0.02710   -0.01978
AFIX 137
H19A  2    1.152441   -0.350498    0.604921    31.00000   -1.50000
H19B  2    1.230935   -0.475070    0.582918    31.00000   -1.50000
H19C  2    1.050853   -0.471972    0.581661    31.00000   -1.50000
AFIX   0
PART 0
C20   1    0.600679   -0.172566    0.417514    11.00000    0.04129    0.03853 =
         0.03117   -0.00214    0.01644   -0.00364
PART 1
C21   1    0.603056   -0.060760    0.450420    21.00000    0.03496    0.04485 =
         0.02957    0.00157    0.01230    0.00002
AFIX  43
H21   2    0.594490    0.025392    0.436629    21.00000   -1.20000
AFIX   0
C22   1    0.618657   -0.082648    0.504470    21.00000    0.04909    0.05836 =
         0.04285   -0.00693    0.01240    0.00450
AFIX  43
H22   2    0.622704   -0.010120    0.527293    21.00000   -1.20000
AFIX   0
PART 0
C23   1    0.628353   -0.213637    0.524854    11.00000    0.08377    0.07971 =
         0.04852    0.00315    0.02451    0.00273
PART 1
AFIX  43
H23   2    0.607680   -0.229120    0.558777    21.00000   -1.20000
AFIX  43
PART 0
PART 2
H23A  2    0.640679   -0.228265    0.560971   -21.00000   -1.20000
AFIX   0
PART 0
PART 1
C24   1    0.668157   -0.319183    0.495074    21.00000    0.08216    0.06857 =
         0.05892    0.00172    0.01974    0.00053
AFIX  43
H24   2    0.710711   -0.398377    0.509773    21.00000   -1.20000
AFIX   0
C25   1    0.638964   -0.296652    0.441014    21.00000    0.07059    0.05338 =
         0.04648   -0.00364    0.02020   -0.00006
AFIX  43
H25   2    0.645416   -0.369481    0.418941    21.00000   -1.20000
AFIX   0

PART 0
PART 2
C21A  1    0.676666   -0.090792    0.452052   -21.00000    0.05836    0.06455 =
         0.04178    0.00194    0.00556   -0.01420
AFIX  43
H21A  2    0.720864   -0.013974    0.440311   -21.00000   -1.20000
AFIX   0

C18A  1    1.214364   -0.283048    0.429631   -31.00000    0.04986    0.05629 =
         0.05031    0.00698    0.00965    0.00548
AFIX  43
H18A  2    1.262120   -0.306396    0.400957   -31.00000   -1.20000
AFIX   0

C13A  1    1.087997   -0.197735    0.428897   -31.00000    0.04267    0.04830 =
         0.03548   -0.01268    0.00508    0.00682
C24A  1    0.532908   -0.304144    0.488604   -21.00000    0.06518    0.05288 =
         0.04326    0.00301    0.01694   -0.00685
AFIX  43
H24A  2    0.481360   -0.375750    0.501252   -21.00000   -1.20000
AFIX   0

C14A  1    1.006212   -0.153288    0.458186   -31.00000    0.04063    0.04379 =
         0.03615   -0.00358    0.00912    0.00271
AFIX  43
H14A  2    0.931659   -0.087847    0.448423   -31.00000   -1.20000
AFIX   0

C19A  1    1.223693   -0.361343    0.573451   -31.00000    0.07992    0.10012 =
         0.05592    0.01706    0.00205   -0.02000
AFIX 137
H19D  2    1.314559   -0.316100    0.590576   -31.00000   -1.50000
H19E  2    1.246610   -0.454425    0.569596   -31.00000   -1.50000
H19F  2    1.141790   -0.352293    0.594263   -31.00000   -1.50000
AFIX   0

C15A  1    1.034607   -0.210623    0.509323   -31.00000    0.05168    0.05118 =
         0.04470   -0.00260    0.00906    0.00304
AFIX  43
H15A  2    0.971026   -0.193494    0.534490   -31.00000   -1.20000
AFIX   0

C22A  1    0.693109   -0.116329    0.506564   -21.00000    0.07091    0.07733 =
         0.04845   -0.00652    0.00567   -0.01890
AFIX  43
H22A  2    0.753919   -0.059132    0.529631   -21.00000   -1.20000
AFIX   0

C16A  1    1.173934   -0.300801    0.520260   -31.00000    0.06370    0.06528 =
         0.05390    0.00388   -0.00100   -0.00375
C17A  1    1.255998   -0.326918    0.481187   -31.00000    0.06429    0.06690 =
         0.06537    0.00849    0.00309    0.01047
AFIX  43
H17A  2    1.346034   -0.377362    0.489114   -31.00000   -1.20000
AFIX   0

C25A  1    0.521110   -0.280426    0.434620   -21.00000    0.05710    0.04501 =
         0.03572   -0.00536    0.00467   -0.00774
AFIX  43
H25A  2    0.461114   -0.335788    0.410561   -21.00000   -1.20000
AFIX   0
HKLF 4

REM  sa5034 in P2(1)/c
REM R1 =  0.1280 for    3603 Fo > 4sig(Fo)  and  0.1414 for all    3965 data
REM    393 parameters refined using    423 restraints

END

WGHT      0.0001     14.1729

REM Highest difference peak  0.493,  deepest hole -0.547,  1-sigma level  0.087
Q1    1   1.2194 -0.4034  0.4668  11.00000  0.05    0.49
Q2    1   0.3101  0.3385  0.3068  11.00000  0.05    0.41
Q3    1   1.1161 -0.1593  0.4092  11.00000  0.05    0.41
Q4    1   0.6334 -0.0431  0.5004  11.00000  0.05    0.37
Q5    1   0.1998  0.3046  0.3403  11.00000  0.05    0.37
Q6    1   1.1989 -0.3524  0.4189  11.00000  0.05    0.37
Q7    1   1.1973 -0.3666  0.5163  11.00000  0.05    0.37
Q8    1   1.1173 -0.0467  0.3614  11.00000  0.05    0.36
Q9    1   0.8223  0.1506  0.3206  11.00000  0.05    0.34
Q10   1   0.5766 -0.3928  0.4086  11.00000  0.05    0.34
Q11   1   0.9386 -0.2011  0.5887  11.00000  0.05    0.32
Q12   1   0.5438  0.3409  0.2699  11.00000  0.05    0.32
Q13   1   0.2859  0.5244  0.3151  11.00000  0.05    0.32
Q14   1   0.5815 -0.1320  0.5326  11.00000  0.05    0.32
Q15   1   0.7809 -0.1827  0.5178  11.00000  0.05    0.31
Q16   1   1.0853  0.0858  0.3699  11.00000  0.05    0.31
Q17   1   0.7526 -0.1598  0.4571  11.00000  0.05    0.30
Q18   1   0.7398  0.0009  0.3515  11.00000  0.05    0.30
Q19   1   0.7042 -0.3115  0.4481  11.00000  0.05    0.29
Q20   1   1.0781 -0.4505  0.4912  11.00000  0.05    0.29
;
_shelx_res_checksum              64950
_shelx_hkl_file
;
   0   0   1   -0.09    0.10
   0   0  -1   -0.13    0.14
   0   0  -1   -0.13    0.11
   0   0   1   -0.04    0.10
   0   0  -2   -0.02    0.21
   0   0   2    1.41    0.34
   0   0  -2    0.74    0.49
   0   0  -2    1.80    0.76
   0   0   2    1.15    0.73
   0   0  -2   -0.28    0.35
   0   0   2    2.79    0.60
   0   0   3   -0.15    0.63
   0   0  -3    7.53    1.30
   0   0   3    3.07    1.23
   0   0  -3    8.42    1.33
   0   0  -3    2.09    0.87
   0   0   3    3.53    0.79
   0   0  -3   -0.02    0.57
   0   0   3    7.05    0.84
   0   0  -4  470.83    8.19
   0   0   4  472.18    9.19
   0   0  -4  462.13    8.85
   0   0   4  439.40    8.25
   0   0  -4  469.18    8.19
   0   0   5    2.34    1.85
   0   0  -5    0.65    1.12
   0   0   5    1.71    1.86
   0   0  -5    2.93    1.33
   0   0  -5    0.48    1.10
   0   0   5    3.01    2.19
   0   0  -5   -0.06    1.32
   0   0   5    2.63    1.17
   0   0   6 9888.91 1757.08
   0   0  -6 9674.55 1718.99
   0   0   6 9857.17 1751.55
   0   0  -6 9999.00 1776.72
   0   0  -6 8691.38 1544.41
   0   0   6 9061.52 1610.15
   0   0   6 9807.87 1742.70
   0   0   7   -0.13    1.71
   0   0  -7    1.37    0.70
   0   0   7   -4.30    3.03
   0   0  -7   -2.31    2.69
   0   0  -7   -5.21    3.20
   0   0  -7   -1.90    1.96
   0   0   8 2706.49   43.63
   0   0  -8 2669.10   42.85
   0   0  -8 2771.15   45.85
   0   0  -8 2619.87   45.27
   0   0   8 2495.93   41.28
   0   0  -8 2695.78   43.37
   0   0   8 2719.24   43.92
   0   0   9   -0.95    1.42
   0   0  -9    0.02    1.73
   0   0   9   -0.54    3.05
   0   0  -9    3.77    1.91
   0   0  -9    6.86    4.37
   0   0   9    6.32    2.19
   0   0  -9    1.66    2.04
   0   0  10   25.73    3.07
   0   0 -10   33.03    2.93
   0   0  10   29.47    3.99
   0   0 -10   24.25    3.71
   0   0 -10   21.55    3.78
   0   0  10   29.02    3.85
   0   0 -10   31.74    3.50
   0   0  10   20.53    2.85
   0   0  11    2.79    2.25
   0   0 -11    2.57    1.50
   0   0  11   -1.36    2.64
   0   0 -11    4.36    3.09
   0   0 -11    2.65    1.85
   0   0  11    0.47    1.58
   0   0  12 1326.12   47.22
   0   0 -12 1204.28   41.08
   0   0 -12 1314.14   45.94
   0   0 -12 1265.63   43.96
   0   0  12 1252.78   42.98
   0   0  13    6.98    3.22
   0   0 -13    4.00    2.58
   0   0  13    6.83    3.61
   0   0 -13    2.51    3.07
   0   0 -13   11.45    3.13
   0   0  13    5.14    1.96
   0   0  14  162.52   16.50
   0   0 -14  146.58   11.40
   0   0  14  142.78   16.56
   0   0 -14  153.00    8.57
   0   0 -14  155.64    7.47
   0   0  14  140.05    6.90
   0   0  15    5.16    1.75
   0   0 -15    2.49    1.84
   0   0  15    5.65    2.38
   0   0 -15   -1.69    3.52
   0   0 -15    2.02    1.17
   0   0  16   39.79    4.49
   0   0 -16   35.37    3.54
   0   0  16   26.53    6.60
   0   0 -16   40.53    6.06
   0   0 -16   44.95    6.74
   0   0  16   40.25    4.77
   0   0  17    2.00    2.45
   0   0 -17    1.74    1.31
   0   0  17    9.71    4.90
   0   0 -17   -0.46    2.92
   0   0 -17    1.78    1.76
   0   0  17    3.92    2.07
   0   0  18   88.28    7.54
   0   0 -18   77.13   11.62
   0   0  18   92.79   13.22
   0   0 -18   87.08   19.84
   0   0 -18   99.58    6.03
   0   0  18   70.12    9.69
   0   0  19    4.93    2.27
   0   0 -19    1.18    1.37
   0   0  19   13.97    4.02
   0   0 -19    0.44    2.95
   0   0 -19    2.54    1.80
   0   0  19    4.91    2.15
   0   0  20  781.49  153.48
   0   0  20  742.97   56.03
   0   0 -20  786.89  154.11
   0   0 -20  734.13   44.12
   0   0  21    4.72    1.97
   0   0 -21   10.43    4.94
   0   0  22   20.96    4.88
   0   0  22   20.56    5.19
   0   0 -22   32.35    7.39
   0   0 -22   30.81    6.00
   0   0  23    9.27    3.95
   0   0  23    5.65    3.22
   0   0 -23    8.69    5.69
   0   0 -23   -0.83    1.48
   0   0  24   88.34    8.07
   0   0  24   82.56   14.41
   0   0 -24  101.97   11.81
   0   0 -24   97.62    8.26
   0   0  25    6.12    2.46
   0   0  25    7.49    3.38
   0   0 -25    2.01    3.91
   0   0 -25    1.33    1.71
   0   0  26  135.67   20.68
   0   0  26  191.02   46.91
   0   0 -26  200.39   43.52
   0   0 -26  165.81   20.44
   0   0  27    4.42    3.56
   0   0 -27    8.94    2.78
   0   0  28   27.08    8.73
   0   0 -28    9.02    4.69
   0   0  29   13.06    6.22
   0   0 -29    9.43    5.86
   0   0 -30   42.98   13.01
   0   0 -31   10.38    7.82
   0   0 -32   40.12   15.85
   0   0 -33   15.86    7.08
   0   1   0    2.44    0.77
   0  -1   0    0.12    0.68
   0  -1   0    0.42    0.83
   0   1   0   -0.04    0.73
   0  -1   0    0.80    0.75
   0   1   0    2.01    0.79
   0   1   0    1.37    0.86
   0  -1   0    0.11    0.70
   0   1  -1    1.29    0.39
   0   1   1    1.04    0.96
   0  -1   1    1.78    1.04
   0  -1  -1    2.02    1.13
   0  -1   1    0.03    0.81
   0  -1  -1    1.09    0.91
   0   1  -1    1.18    1.06
   0   1  -2    7.39    1.26
   0  -1   2    0.95    1.35
   0   1  -2    2.87    1.23
   0   1  -3   95.87    5.07
   0   1   3  104.69    6.02
   0  -1  -3  106.02    5.96
   0  -1   3  102.65    5.89
   0   1  -3  107.78    6.02
   0  -1   3  114.48    7.32
   0   1  -3  102.15    5.76
   0  -1  -3  116.75    6.59
   0   1   3  109.64    6.14
   0   1  -3   97.64    5.68
   0  -1   3  104.12    5.96
   0  -1  -5  189.89   34.01
   0   1   5  186.93   34.09
   0  -1  -6 1447.20   24.79
   0  -1   6 1458.04   23.24
   0   1  -6 1439.55   22.91
   0  -1  -6 1471.80   25.13
   0  -1   6 1488.80   26.11
   0   1  -6 1434.47   24.54
   0  -1   6 1462.49   25.26
   0   1  -6 1455.33   25.72
   0  -1  -6 1459.21   25.18
   0   1   6 1416.50   24.17
   0  -1  -6 1466.49   23.47
   0   1  -6 1436.51   24.61
   0  -1   7  395.03    7.43
   0   1  -7  385.56    6.85
   0   1   7  387.71    9.16
   0  -1   7  414.25    9.74
   0   1  -7  410.68    9.16
   0  -1  -7  398.72    9.17
   0   1   7  408.80    8.93
   0  -1  -7  391.71    7.89
   0   1   7  392.30    7.08
   0   1  -7  393.97    8.87
   0  -1   7  374.94    8.48
   0   1   8  347.75    8.29
   0  -1  -8  366.95    8.14
   0  -1   8  354.87    6.75
   0   1  -8  367.04    6.74
   0   1   8  370.32   15.98
   0  -1   8  391.97   11.34
   0   1  -8  376.67    8.94
   0  -1  -8  386.22    9.24
   0   1   8  382.68    8.85
   0  -1  -8  368.56    7.25
   0   1   8  360.92    6.86
   0  -1   8  361.92    9.71
   0   1   9  108.74   10.55
   0  -1   9   98.62    5.54
   0  -1  -9   95.78    5.93
   0   1  -9  100.55    5.49
   0   1   9  118.43   17.01
   0  -1  -9  105.29   11.24
   0  -1   9  104.57   12.10
   0   1  -9  107.18    6.80
   0  -1  -9  102.22    7.80
   0   1   9   90.88    5.97
   0  -1  -9  106.89    8.20
   0   1  -9  101.37    6.67
   0   1   9  109.38   10.16
   0  -1   9   93.64    6.00
   0   1  10   60.81    8.96
   0  -1  10   58.19    3.79
   0  -1 -10   47.35    3.85
   0   1 -10   56.62    6.05
   0   1  10   71.52   11.01
   0  -1  10   63.25    9.28
   0   1 -10   57.19    4.57
   0   1 -10   52.82    7.55
   0  -1 -10   65.51    8.64
   0   1  10   59.02    4.69
   0  -1 -10   54.70    3.68
   0   1 -10   63.69    4.99
   0   1  10   65.55    6.21
   0  -1  10   55.91    6.44
   0   1  11  759.40   27.06
   0  -1  11  789.23   27.08
   0  -1 -11  715.16   25.33
   0   1 -11  762.49   26.21
   0   1  11  745.57   27.11
   0  -1  11  771.01   28.49
   0  -1 -11  832.85   30.07
   0  -1 -11  760.94   26.07
   0   1 -11  741.47   26.39
   0   1  11  730.16   25.15
   0  -1  11  716.42   25.68
   0   1  12  993.82   34.86
   0  -1  12 1011.60   34.60
   0  -1 -12  906.75   31.70
   0   1 -12  967.24   32.88
   0   1  12  966.30   34.49
   0  -1 -12  977.77   35.65
   0  -1 -12  977.83   33.56
   0   1 -12 1015.43   36.58
   0   1  12  935.45   32.05
   0  -1  12  927.73   32.66
   0   1  13   -0.15    2.29
   0  -1  13    0.84    1.16
   0  -1 -13    3.32    1.46
   0   1 -13    1.12    1.09
   0   1  13    4.88    1.94
   0  -1 -13   -3.32    3.22
   0  -1 -13   -0.40    1.29
   0   1 -13    7.92    2.65
   0   1  13    6.17    1.42
   0  -1  13    2.15    2.60
   0   1  14   23.44    3.31
   0  -1  14   35.81    4.23
   0  -1 -14   20.99    2.76
   0   1 -14   22.34    2.74
   0   1  14   29.38    4.08
   0  -1  14   36.55    6.24
   0  -1 -14   31.52    5.15
   0   1 -14   22.28    3.68
   0  -1 -14   30.07    3.00
   0   1 -14   32.17    4.94
   0   1  14   18.48    2.46
   0  -1  14   28.09    3.34
   0   1  15  109.19    8.68
   0  -1  15   91.09    8.14
   0  -1 -15   83.85    6.52
   0   1 -15   75.03   10.32
   0   1  15  101.82   14.25
   0  -1  15  105.61   14.95
   0  -1 -15  108.80   13.87
   0   1 -15  115.97   16.70
   0  -1 -15   94.64    6.86
   0   1 -15  101.31   12.90
   0   1  15   90.14   11.38
   0  -1  15   89.87    7.76
   0   1  16   19.90    4.82
   0  -1  16    8.77    2.40
   0   1 -16   12.17    2.63
   0   1  16   18.84    5.48
   0  -1  16   13.29    4.36
   0  -1 -16   14.79    4.23
   0   1 -16   17.31    5.28
   0  -1 -16   12.24    2.75
   0   1 -16   15.61    4.31
   0   1  16   12.57    2.72
   0   1  17   57.89    9.81
   0  -1  17   64.83    8.55
   0   1 -17   58.24    7.60
   0   1  17   77.47   15.48
   0  -1  17   62.02   11.76
   0  -1 -17   81.58    8.49
   0   1 -17   76.53   12.59
   0  -1 -17   55.50    9.05
   0   1 -17   42.57    8.47
   0   1  17   52.70    7.16
   0   1  18   31.89    6.16
   0  -1  18   20.55    4.25
   0   1 -18   21.16    4.14
   0   1  18   16.46    4.38
   0  -1  18   24.21    6.09
   0  -1 -18   21.25    5.98
   0   1 -18   26.96    5.86
   0  -1 -18   34.31    6.02
   0   1 -18   27.64    5.23
   0   1  18   12.96    3.19
   0   1  19    4.22    2.37
   0  -1  19   11.69    3.09
   0   1 -19    5.80    1.66
   0   1  19    9.39    2.90
   0  -1  19   17.81    5.12
   0  -1 -19   16.22    7.34
   0   1 -19    7.71    3.03
   0  -1 -19    9.12    2.33
   0   1 -19    9.25    3.73
   0   1  19    7.76    2.99
   0   1  20    5.40    1.80
   0  -1  20    7.18    2.43
   0   1 -20    0.19    1.08
   0   1  20   10.89    3.72
   0  -1  20    8.25    2.55
   0  -1 -20    5.89    3.73
   0   1 -20    6.64    3.38
   0  -1 -20    0.37    1.52
   0   1 -20    0.36    2.05
   0   1  20    0.34    1.39
   0   1  21   37.46    8.32
   0  -1  21   22.88    5.13
   0   1 -21   31.59    5.81
   0   1  21   27.92    6.78
   0  -1  21   30.01    8.22
   0  -1 -21   35.15    8.38
   0   1 -21   36.45    7.86
   0  -1 -21   29.14    7.81
   0   1 -21   21.27    5.73
   0   1  21   25.57    5.16
   0  -1  22    7.01    2.30
   0   1  22    8.91    4.51
   0   1  22    2.97    3.18
   0  -1  22   10.58    3.84
   0  -1 -22    8.57    4.76
   0   1 -22    6.64    4.13
   0  -1 -22    9.84    3.35
   0   1 -22    7.52    2.32
   0  -1  23    3.37    1.07
   0   1  23   -0.83    2.27
   0   1  23    2.07    4.21
   0  -1  23    6.71    2.65
   0  -1 -23    2.41    4.11
   0   1 -23    4.11    3.41
   0  -1 -23    3.18    1.39
   0   1 -23    1.30    1.88
   0  -1  24    0.46    1.27
   0   1  24    9.75    3.41
   0  -1  24    4.31    2.42
   0  -1 -24   19.73    8.38
   0   1 -24    2.51    4.49
   0  -1 -24    4.96    2.15
   0   1 -24    5.58    2.80
   0   1  25   19.71    5.34
   0  -1 -25   46.67    8.16
   0   1 -25   60.70    8.97
   0  -1 -25   24.32    6.19
   0   1 -25   37.06    6.55
   0   1  26   28.42    5.40
   0  -1 -26   39.65    9.06
   0   1 -26   28.98    6.61
   0   1 -26   27.56    5.80
   0   1  27   22.36    5.38
   0  -1 -27   12.94    5.47
   0   1 -27   24.19    6.45
   0   1 -27   18.21    5.66
   0   1  28    0.02    2.00
   0  -1  28    7.80    4.26
   0  -1 -28    2.93    4.15
   0   1 -28   23.38    7.33
   0   1 -28    8.05    5.56
   0  -1 -29    6.68    5.03
   0   1 -29   15.37    6.38
   0  -1  30   -1.25    3.74
   0  -1 -30   -2.00    4.86
   0   1 -30   11.50    4.72
   0  -1 -31   25.71   10.19
   0   1 -31   13.94    6.41
   0  -1 -32   32.16    9.37
   0   1 -32   43.18   13.63
   0   2   0  778.20   14.41
   0  -2   0  745.25   13.69
   0  -2   0  763.69   13.87
   0   2   0  765.16   13.71
   0  -2   0  783.45   14.88
   0   2   0  756.99   13.54
   0   2   0  747.32   14.08
   0  -2   0  763.75   13.72
   0   2  -1 1440.50   24.16
   0   2   1 1476.24   25.15
   0  -2   1 1503.03   25.14
   0   2  -1 1422.46   23.72
   0  -2  -1 1485.39   25.81
   0   2   1 1463.17   24.79
   0  -2   1 1506.65   25.26
   0   2  -1 1481.98   24.72
   0  -2  -1 1468.99   24.85
   0   2   1 1480.16   24.79
   0  -2   1 1472.57   25.28
   0   2  -2  177.50    9.78
   0  -2   2  174.55    9.45
   0   2   2  190.34   34.19
   0  -2   2  186.77   33.45
   0   2  -2  170.28    9.32
   0  -2  -2  193.15    5.68
   0  -2   2  184.19   33.04
   0   2  -2  176.66    9.64
   0  -2  -2  181.45   10.40
   0   2   2  186.24   33.40
   0  -2   2  166.19    9.43
   0   2   2  194.01    4.93
   0  -2   3  210.92    4.83
   0   2   3  176.84   10.13
   0  -2  -3  168.76    9.62
   0  -2   3  196.97    5.45
   0   2  -3  207.14    5.58
   0  -2   3  215.66   11.27
   0   2  -3  222.94    5.94
   0  -2  -3  211.93    6.44
   0   2   3  214.00    5.91
   0   2  -3  213.72    6.72
   0  -2   3  193.29    5.76
   0   2   3  222.56    5.16
   0   2  -4  168.12    9.01
   0  -2   4  152.60    8.11
   0  -2  -4  146.07    8.69
   0  -2   4  148.18    8.50
   0   2  -4  146.17    8.25
   0  -2   4  171.06   18.92
   0   2  -4  164.13    9.99
   0  -2  -4  149.89    8.73
   0   2   4  180.03   15.71
   0   2  -4  140.78    8.62
   0   2  -5  758.87   12.77
   0  -2   5  757.98   12.71
   0   2   5  730.28   14.53
   0  -2  -5  696.09   13.61
   0  -2   5  720.19   13.85
   0   2  -5  760.05   14.38
   0  -2   5  783.39   15.45
   0   2  -5  715.69   15.65
   0  -2  -5  744.36   14.60
   0   2   5  726.72   14.01
   0   2  -5  754.39   15.11
   0  -2   5  724.69   14.19
   0   2  -6   10.25    1.18
   0  -2   6    5.72    0.90
   0  -2  -6    9.08    2.26
   0  -2   6    6.62    2.67
   0   2  -6    5.64    1.82
   0  -2   6    9.98    2.19
   0   2  -6   11.15    1.65
   0  -2  -6    5.22    2.14
   0   2   6    7.73    2.66
   0   2   6    5.73    1.01
   0   2  -6    3.84    2.91
   0  -2   6    9.63    2.62
   0   2   7   69.07    3.77
   0  -2  -8   40.37    6.13
   0   2   8    1.67    0.48
   0  -2   8   45.98    6.45
   0  -2   9   -0.43    0.27
   0   2   9    4.28    2.92
   0  -2  -9    4.48    1.66
   0  -2   9    4.54    0.83
   0  -2  -9    2.25    1.70
   0  -2   9    7.85    2.86
   0   2  -9    8.13    2.07
   0  -2   9    1.41    2.32
   0   2  -9    8.90    2.12
   0  -2  -9    6.42    2.14
   0   2   9   10.77    2.49
   0   2   9    1.28    0.50
   0  -2   9    9.35    2.31
   0  -2  10   -0.16    0.26
   0   2  10    0.11    2.83
   0  -2 -10    2.04    1.84
   0  -2  10    3.89    1.22
   0  -2  10   10.23    3.22
   0  -2  10    5.64    1.73
   0  -2 -10   10.62    3.87
   0   2  10    1.88    0.98
   0   2 -10    2.39    2.08
   0  -2  10    3.43    3.09
   0  -2  11   -0.14    0.31
   0  -2  11   89.00   15.71
   0  -2  12   -0.35    0.32
   0  -2  12   55.70    7.79
   0  -2 -12   62.07   10.95
   0  -2  13    0.34    0.36
   0   2  13   15.87    3.47
   0  -2  13   22.68    5.49
   0  -2 -13   18.04    2.95
   0   2 -13   17.25    6.73
   0  -2 -13   17.51    2.51
   0   2 -13   13.07    3.01
   0   2  13   15.93    2.10
   0   2  14   67.04    6.76
   0  -2  14   63.27    4.57
   0  -2  14   63.34    8.61
   0  -2 -14   86.43   15.37
   0   2 -14   61.72    6.39
   0  -2 -14   63.14    7.12
   0   2 -14   86.24    8.21
   0   2  14   73.08    6.48
   0   2  15   82.58   10.27
   0  -2  15   80.44    6.52
   0  -2  15   79.90   14.79
   0  -2 -15   94.67   16.54
   0   2 -15   95.27   12.59
   0  -2 -15   86.88    8.97
   0   2 -15   79.45   12.55
   0   2  15   65.46    8.06
   0   2  16   27.80    5.55
   0  -2  16   29.97    5.78
   0  -2  16   31.01    6.50
   0  -2 -16   45.76    6.77
   0   2 -16   32.32    9.11
   0  -2 -16   30.93    6.20
   0   2 -16   44.07    8.04
   0   2  16   30.14    5.13
   0   2  17   11.35    3.43
   0  -2  17   10.15    2.33
   0  -2  17    8.57    4.28
   0  -2 -17   13.44    4.43
   0   2 -17   15.59    5.07
   0  -2 -17    9.29    2.03
   0   2 -17    7.24    3.73
   0   2  17   13.21    3.00
   0   2  18   11.35    3.93
   0  -2  18    5.86    1.63
   0  -2  18    6.88    4.24
   0  -2 -18    9.61    4.57
   0   2 -18    5.05    3.31
   0  -2 -18    6.94    1.88
   0   2 -18    6.13    2.80
   0   2  18    5.89    1.99
   0   2  19    5.18    2.54
   0  -2  19    0.95    0.97
   0  -2  19    7.03    2.49
   0  -2 -19   -1.02    3.79
   0   2 -19    5.16    2.01
   0  -2 -19    1.01    0.52
   0   2 -19    2.74    1.92
   0   2  19    0.96    1.22
   0  -2  20    3.13    1.02
   0   2  20    6.89    2.61
   0  -2  20   12.18    3.97
   0  -2 -20    7.59    3.03
   0   2 -20   12.53    3.65
   0  -2 -20    3.21    1.41
   0   2 -20   17.94    5.55
   0   2  20    3.77    1.93
   0  -2  21  350.02   25.15
   0   2  21  358.97   47.98
   0  -2  21  326.12   37.69
   0  -2 -21  420.01   60.25
   0   2 -21  364.18   48.94
   0  -2 -21  351.90   27.44
   0   2 -21  365.66   51.53
   0   2  21  318.28   23.01
   0  -2  22   22.51    3.87
   0   2  22   32.67    5.93
   0  -2  22   20.15    5.48
   0  -2 -22   42.70    8.88
   0   2 -22   25.20    6.31
   0  -2 -22   22.26    4.98
   0   2 -22   30.10    6.72
   0  -2  23    6.28    1.52
   0   2  23    5.39    2.92
   0  -2  23   16.72    4.76
   0  -2 -23   22.75    8.69
   0   2 -23    2.81    3.89
   0  -2 -23    9.71    2.39
   0   2 -23   16.47    5.26
   0   2  24    4.66    2.51
   0  -2  24   11.62    3.71
   0  -2 -24   11.60    4.99
   0   2 -24    6.53    4.03
   0   2 -24    2.36    2.27
   0   2  25   53.93    8.04
   0  -2  25   64.86   13.03
   0  -2 -25   55.32   11.43
   0   2 -25   50.76    8.26
   0   2 -25   51.59   11.00
   0   2  26   11.45    4.54
   0  -2  26    8.68    3.62
   0  -2 -26   10.48    5.41
   0   2 -26    3.96    2.67
   0   2  27   80.27   14.81
   0  -2  27  100.73   20.00
   0  -2 -27  124.49   14.73
   0   2 -27  107.59   10.37
   0   2 -27  115.22    9.87
   0   2  28    6.75    3.22
   0  -2  28   23.81    5.60
   0  -2 -28    0.40    4.27
   0   2 -28   -0.26    3.92
   0   2 -28    5.19    3.27
   0   2  29   18.34    5.86
   0  -2  29   21.09    6.93
   0  -2 -29   27.86    8.25
   0   2 -29   13.65    6.03
   0   2 -29   12.37    3.98
   0  -2  30    3.78    3.15
   0   2 -30    5.18    4.47
   0  -2  31    5.19    2.57
   0  -2 -31   10.29    6.26
   0   2 -31    7.34    5.13
   0  -2  32    4.37    2.60
   0  -2 -32   10.39    5.04
   0   2 -32    6.73    5.43
   0   3   0    0.64    2.67
   0  -3   0    2.87    1.37
   0   3   0    0.38    2.18
   0  -3   0    3.37    2.52
   0   3   0    1.40    1.57
   0  -3   0    5.89    2.14
   0   3   1    1.33    2.78
   0  -3   1    2.49    2.08
   0  -3  -1    0.18    2.03
   0   3   1    8.66    3.30
   0  -3   1    2.16    2.31
   0  -3  -1   -1.32    2.39
   0   3   1    3.20    1.75
   0   3  -1    1.98    2.86
   0   3   1    0.33    2.10
   0  -3   1   10.07    3.45
   0   3  -2  623.11   12.45
   0   3   2  615.29   13.18
   0  -3   2  598.02   11.90
   0  -3   2  639.83   16.77
   0  -3  -2  617.48   12.97
   0   3   2  605.78   12.48
   0   3   2  633.96   12.52
   0  -3   2  582.28   11.99
   0   3  -3   24.51    3.17
   0   3   3   20.55    4.34
   0  -3   3   13.37    3.09
   0  -3  -3   17.69    3.17
   0  -3   3   18.96    2.86
   0  -3   3   13.45    3.27
   0   3  -3   12.66    2.45
   0  -3  -3   10.98    2.60
   0   3   3   14.81    3.62
   0   3  -3   15.11    4.58
   0  -3   3   20.24    3.38
   0   3   3   13.82    3.35
   0   3  -4 1152.05   20.50
   0  -3   4 1150.92   19.96
   0   3   4 1164.34   22.16
   0  -3   4 1230.62   22.52
   0  -3  -4 1191.03   22.11
   0   3   4 1117.19   20.59
   0  -3   4 1126.29   20.90
   0   3   4 1128.67   19.51
   0   3  -5   88.58    7.46
   0  -3   5  109.58   11.62
   0   3   5   84.05    6.71
   0  -3  -5   72.43    5.40
   0  -3   5   92.53    6.13
   0   3  -5   77.45    5.23
   0  -3  -5   97.11    7.04
   0   3   5   81.45    6.39
   0   3  -5  103.41   12.92
   0  -3   5   84.08    5.84
   0   3   5   83.83    5.22
   0   3  -6  332.41    6.95
   0  -3   6  328.14    6.87
   0   3   6  365.14   10.27
   0  -3  -6  348.22    9.38
   0  -3   6  335.79    8.75
   0  -3   6  382.96   17.18
   0  -3  -6  361.29    9.51
   0   3   6  344.08    8.76
   0   3  -6  334.17    9.59
   0  -3   6  330.31    9.00
   0   3   6  339.89    7.17
   0   3  -7   54.94    7.25
   0  -3   7   50.17    3.29
   0  -3  -7   49.63    4.71
   0  -3   7   39.97    4.38
   0  -3   7   47.51    6.99
   0   3  -7   40.71    5.50
   0  -3  -7   44.56    4.57
   0   3   7   40.37    4.22
   0   3  -7   65.49    7.62
   0   3  -8   39.24    5.40
   0  -3   8   37.58    4.18
   0   3   8   36.96    4.97
   0  -3  -8   36.22    4.30
   0  -3   8   36.11    4.52
   0  -3   8   46.03    6.18
   0  -3  -8   45.71    5.53
   0   3   8   34.15    4.93
   0   3   8   38.49    5.37
   0   3  -8   43.92    5.18
   0  -3   8   32.93    4.35
   0  -3   9    4.97    1.27
   0  -3   9    4.27    3.24
   0  -3   9   12.16    3.22
   0  -3  -9    8.97    2.85
   0   3   9    5.96    1.43
   0   3  -9   12.38    5.64
   0  -3  10   -0.37    0.39
   0  -3  11    0.27    0.46
   0  -3  11  111.48   16.08
   0   3  11   -0.37    0.37
   0  -3  12   10.52    1.44
   0   3  12    0.04    0.19
   0  -3  13    3.46    0.89
   0   3  13    5.27    2.15
   0  -3  13    2.90    0.82
   0  -3  13    3.59    2.42
   0  -3  13    8.88    2.71
   0  -3 -13    8.47    4.82
   0   3  13    0.46    0.26
   0   3 -13    8.74    3.31
   0  -3  14   12.02    2.20
   0   3  14   14.85    4.59
   0  -3  14    9.52    2.42
   0  -3  14   20.76    4.96
   0  -3 -14   12.71    4.92
   0   3 -14   22.07    5.20
   0   3 -14   21.75    5.72
   0  -3  15   18.00    3.50
   0   3  15   24.46    5.60
   0  -3  15   12.78    2.47
   0  -3  15   18.90    4.41
   0  -3 -15   25.56    6.41
   0   3 -15   20.22    5.25
   0   3 -15   16.18    4.24
   0   3  15   10.40    1.97
   0  -3  16  209.34    9.24
   0   3  16  240.76   27.78
   0  -3  16  210.67   10.51
   0  -3  16  211.37   24.57
   0  -3 -16  224.81   12.92
   0   3 -16  226.41   27.49
   0   3 -16  225.67   12.81
   0   3  16  184.45    8.39
   0  -3  17   92.67    6.17
   0   3  17   98.90   15.69
   0  -3  17   96.04    5.79
   0  -3  17  101.40   14.27
   0  -3 -17  124.93   17.59
   0   3 -17   92.60    8.63
   0   3 -17  107.49   10.44
   0   3  17  103.77    6.43
   0  -3  18  195.17   11.27
   0  -3  18  199.69   11.57
   0   3  18  238.27   25.10
   0  -3  18  208.46   25.70
   0  -3 -18  212.08   17.62
   0   3 -18  263.39   28.51
   0   3 -18  225.65   18.90
   0   3  18  181.38   11.84
   0  -3  19   18.82    4.40
   0  -3  19   38.44    5.12
   0   3  19   49.59    8.28
   0  -3  19   47.38    9.70
   0  -3 -19   66.73    9.35
   0   3 -19   53.28    9.73
   0   3 -19   62.89    7.00
   0   3  19   27.59    5.13
   0  -3  20    2.32    0.79
   0   3  20   14.75    5.22
   0  -3  20    4.88    2.85
   0  -3 -20   13.23    4.84
   0   3 -20   -0.37    3.47
   0   3 -20   26.60    6.56
   0   3  20    7.14    1.81
   0   3  21   44.03    8.68
   0  -3  21   22.04    5.15
   0  -3 -21   54.64   13.51
   0   3 -21   37.70    7.07
   0   3 -21   40.16   10.35
   0   3  22   60.28   12.77
   0  -3  22   69.73   15.57
   0  -3 -22   77.71    8.69
   0   3 -22   49.74    7.65
   0   3 -22   84.19   13.75
   0   3  23   -0.11    2.84
   0  -3  23   12.16    3.97
   0  -3 -23   17.84    5.03
   0   3 -23    4.40    3.36
   0   3 -23    8.51    4.06
   0   3  24   18.26    5.53
   0  -3  24   30.12    7.52
   0  -3 -24   23.18    7.31
   0   3 -24   24.76    8.08
   0   3 -24   26.84    7.45
   0   3  25   13.98    5.20
   0  -3  25    9.34    3.47
   0  -3 -25    8.09    3.65
   0   3 -25    4.92    3.45
   0   3 -25    3.44    2.85
   0   3  26   10.61    4.22
   0  -3  26   11.82    6.54
   0  -3 -26    4.60    4.48
   0   3 -26   11.11    6.19
   0   3 -26    0.52    2.64
   0   3  27    4.71    1.91
   0  -3  27   13.22    4.29
   0  -3 -27    7.87    5.00
   0   3 -27   -2.98    4.28
   0   3 -27    6.66    3.55
   0   3  28   11.11    4.93
   0  -3  28    3.82    3.63
   0  -3 -28    4.00    4.90
   0   3 -28    5.35    4.03
   0   3 -28    1.11    2.19
   0   3  29    9.26    3.75
   0  -3  29    9.32    4.09
   0  -3 -29    6.08    5.15
   0   3 -29    9.19    4.54
   0   3 -29   -0.54    2.61
   0   3  30   19.61    6.50
   0  -3  30   36.14   13.61
   0  -3 -30   26.67   10.22
   0   3 -30   13.55    7.62
   0   3 -30   19.38    6.61
   0  -3  31    3.08    2.73
   0  -3 -31   11.56    7.81
   0   3 -31    5.03    3.99
   0  -3  32   13.30    5.48
   0  -3 -32   13.07    7.67
   0   3 -32    9.14    6.16
   0  -4   0 1782.42   31.22
   0  -4   0 1870.24   32.56
   0   4   0 1747.28   31.06
   0   4   0 1823.86   31.59
   0   4   0 1846.63   32.66
   0   4  -1   74.54    6.10
   0   4   1   78.27    6.50
   0  -4   1   78.02    5.59
   0  -4  -1   70.16    5.24
   0  -4   1   89.44    6.53
   0  -4  -1   82.78    6.30
   0   4  -1   76.19    5.48
   0   4   1   67.52    7.13
   0   4  -1   75.56    5.28
   0   4   1   70.75    5.45
   0   4  -1   84.32    6.78
   0   4   1   86.25    7.26
   0  -4   1   73.51    5.51
   0   4  -2  414.08   15.95
   0   4   2  370.61   15.04
   0  -4   2  366.32   14.10
   0  -4   2  396.90   15.31
   0   4  -2  383.17   14.47
   0  -4  -2  377.63   14.89
   0   4   2  359.14   13.99
   0   4  -2  374.13   14.33
   0   4   2  398.91   16.66
   0   4   2  407.93   15.43
   0  -4   2  363.72   14.24
   0   4  -3    5.01    2.39
   0  -4   3    5.06    2.09
   0  -4  -3    3.63    2.94
   0  -4   3    6.26    4.10
   0   4  -3    1.82    1.91
   0  -4  -3    3.88    2.75
   0  -4   3    3.36    1.87
   0   4  -3    3.71    1.51
   0   4   3    1.35    2.32
   0   4   3    1.94    2.03
   0  -4   3    3.01    2.46
   0   4  -4   66.46    9.22
   0   4   4   62.20    6.12
   0  -4   4   67.91    6.53
   0  -4   4   64.00    5.79
   0   4  -4   70.03    5.88
   0  -4  -4   79.44    7.36
   0   4  -4   59.82    5.32
   0   4   4   57.92    7.13
   0   4  -4   75.16   11.21
   0   4   4   69.22    5.77
   0  -4   4   57.90    5.30
   0   4  -5   60.77    5.10
   0   4   5   58.78    6.41
   0  -4   5   58.07    5.14
   0  -4   5   58.44    5.74
   0   4  -5   44.56    4.39
   0  -4  -5   45.73    4.89
   0   4  -5   50.11    4.50
   0   4   5   48.57    5.13
   0   4  -5   56.45    7.50
   0   4   5   46.17    4.56
   0   4  -6  611.23   21.86
   0   4   6  506.35   20.33
   0  -4   6  556.22   19.81
   0  -4   6  590.23   22.05
   0   4  -6  523.68   19.45
   0   4  -6  555.89   21.49
   0   4   6  578.96   22.19
   0   4  -7  469.26   17.22
   0  -4   7  452.04   21.83
   0  -4   7  470.67   18.11
   0   4  -7  457.75   18.26
   0   4   7  458.15   16.75
   0   4  -8  162.66   13.72
   0   4   8  141.52   11.71
   0  -4   8  156.11   12.20
   0  -4   8  171.66   12.91
   0   4  -8  164.57   18.56
   0   4   8  159.31   11.01
   0   4  -9   21.82    3.46
   0  -4   9   14.29    2.21
   0  -4   9   12.85    3.36
   0  -4   9   20.04    3.43
   0   4  -9   19.99    4.77
   0   4   9   16.91    2.35
   0   4 -10    1.26    0.77
   0  -4  10    1.74    0.98
   0   4  10    8.27    2.09
   0  -4  10    5.96    3.08
   0  -4  10   -0.64    2.76
   0  -4 -10   10.68    4.58
   0   4  10    1.52    0.55
   0   4 -10    8.46    4.46
   0   4  10    3.58    1.57
   0  -4  11  103.33   10.33
   0   4  11  141.69   19.58
   0  -4  11  126.85    7.67
   0  -4  11  105.74   18.46
   0  -4 -11  108.45    9.23
   0   4  11  108.29    8.61
   0   4 -11  140.85   15.16
   0   4  11   97.02    6.77
   0  -4  12   -0.02    0.44
   0   4  12   33.58    8.08
   0  -4  12   26.46    4.29
   0  -4  12   29.35    6.05
   0  -4  12   33.89    7.02
   0  -4 -12   37.44    5.47
   0   4  12    2.99    0.72
   0   4 -12   32.86    6.31
   0   4  12   26.57    5.06
   0  -4  13   24.76    3.95
   0   4  13   -0.11    0.34
   0   4  14   35.33    7.60
   0  -4  14   22.51    3.93
   0  -4  14   28.63    3.72
   0  -4  14   30.86    7.81
   0  -4  14   37.04    6.57
   0  -4 -14   30.93    6.71
   0   4  14   19.05    3.99
   0   4 -14   34.52    7.74
   0   4  14   21.79    4.12
   0   4  15  128.55   12.93
   0  -4  15  106.44   13.57
   0  -4  15  114.08   15.63
   0  -4 -15  127.31   20.55
   0   4  15   92.64    6.72
   0   4 -15  131.46   14.21
   0   4  15  105.90    4.96
   0   4  16    6.49    4.28
   0  -4  16   11.86    6.76
   0  -4 -16   23.29    6.76
   0   4 -16   -0.75    3.08
   0   4 -16    6.31    4.50
   0   4  16    4.60    0.95
   0   4  16    2.29    0.50
   0   4  17    5.14    3.27
   0  -4  17   12.37    4.63
   0  -4 -17    7.30    3.26
   0   4 -17   17.72    5.08
   0   4 -17   11.34    5.27
   0   4  18    9.07    3.71
   0  -4  18   15.61    5.26
   0  -4 -18    8.59    4.42
   0   4 -18   13.51    4.36
   0   4 -18    5.93    3.74
   0   4  19   81.79    8.78
   0  -4  19   70.81   12.00
   0  -4 -19   92.08   13.05
   0   4 -19   70.87    8.43
   0   4 -19   67.16   13.23
   0   4  20   37.17    8.15
   0  -4  20   13.05    3.80
   0  -4 -20   28.99    8.44
   0   4 -20   19.22    4.76
   0   4 -20   27.85    6.35
   0   4  21    8.94    4.12
   0  -4  21    7.51    3.14
   0  -4 -21    1.60    3.86
   0   4 -21   11.11    4.67
   0   4 -21    3.49    3.23
   0   4  22  110.14   10.81
   0  -4  22   88.96   16.66
   0  -4 -22   85.99    9.16
   0   4 -22  107.11   16.68
   0   4 -22  119.00   12.43
   0   4  23   19.76    6.80
   0  -4  23   12.93    4.81
   0  -4 -23    9.35    6.61
   0   4 -23    4.75    3.86
   0   4 -23    4.95    3.61
   0   4  24    6.74    3.65
   0  -4  24   11.97    3.77
   0  -4 -24   18.13    7.85
   0   4 -24    8.22    5.54
   0   4 -24    2.39    3.15
   0   4  25    3.20    4.42
   0  -4  25   25.50    6.79
   0  -4 -25    6.36    4.86
   0   4 -25    9.01    4.60
   0   4 -25    1.66    3.19
   0   4  26   27.71    8.63
   0  -4  26   27.35    5.87
   0  -4 -26   26.20    7.96
   0   4 -26   17.00    4.72
   0   4 -26   28.09    9.22
   0   4  27    5.71    3.04
   0  -4  27   14.23    4.83
   0  -4 -27    4.37    5.07
   0   4 -27    2.78    4.19
   0   4 -27    0.53    3.39
   0   4  28   11.68    4.41
   0  -4  28   21.35   10.42
   0  -4 -28   12.37    4.50
   0   4 -28   16.90    9.07
   0   4 -28   20.04    6.81
   0   4  29   10.66    5.40
   0  -4  29    7.20    4.16
   0  -4 -29    2.50    3.45
   0   4 -29   18.05    8.09
   0   4 -29    9.11    5.47
   0   4  30    4.39    2.44
   0  -4  30   12.11    4.99
   0  -4 -30   -1.03    2.87
   0   4 -30    8.83    6.26
   0   4 -30    3.36    3.18
   0   4  31    6.56    3.77
   0  -4  31   19.40    6.21
   0  -4 -31   25.65   10.13
   0   4 -31    7.20    4.89
   0   4 -31   11.50    3.98
   0   5   0    4.56    2.21
   0  -5   0   17.66    4.78
   0  -5   0    9.17    2.99
   0   5   0    7.99    4.45
   0   5  -1  179.10   23.08
   0   5   1  152.47   20.45
   0  -5   1  190.56    8.55
   0  -5   1  141.47   11.08
   0  -5  -1  151.74   15.32
   0  -5   1  147.45   11.21
   0  -5  -1  154.98   19.96
   0   5  -1  138.45   10.86
   0   5   1  139.17   10.79
   0   5  -2   30.43    4.89
   0   5   2   19.17    3.91
   0  -5   2   18.65    3.22
   0  -5   2   28.74    4.86
   0  -5  -2   12.58    4.01
   0  -5   2   18.54    3.39
   0  -5  -2   22.95    3.54
   0   5  -2   17.76    4.06
   0   5   2   20.64    3.79
   0   5   3  395.50   16.19
   0  -5   3  366.71   14.29
   0  -5   3  396.21   16.04
   0  -5  -3  379.06   15.65
   0  -5   3  387.25   15.50
   0  -5  -3  375.23   15.39
   0   5   3  393.15   15.69
   0   5  -4   55.88    6.18
   0   5   4   48.32    6.80
   0  -5   4   44.33    4.23
   0  -5   4   46.61    6.45
   0  -5  -4   39.61    4.85
   0  -5   4   39.37    7.04
   0  -5  -4   43.92    5.70
   0   5  -4   49.01    5.56
   0   5   4   36.80    4.54
   0   5  -5   46.09    4.76
   0   5   5   31.57    5.77
   0  -5   5   38.75    3.79
   0  -5   5   39.80    4.95
   0  -5  -5   37.40    4.88
   0  -5   5   42.51    7.81
   0  -5  -5   38.74    4.83
   0   5  -5   43.79    6.39
   0   5   5   40.13    4.02
   0   5  -6  128.73   10.37
   0   5   6  135.71    9.07
   0  -5   6  101.61    7.80
   0  -5   6  119.10    9.55
   0  -5  -6  125.61   17.17
   0  -5   6   93.97   20.02
   0  -5  -6  110.53    9.31
   0   5  -6  136.55    8.58
   0   5   6  129.74    6.70
   0   5  -7   18.14    3.09
   0   5   7   20.13    4.62
   0  -5   7   12.34    2.30
   0  -5   7   13.75    3.76
   0  -5  -7   20.22    4.20
   0  -5   7   20.89    4.02
   0  -5  -7   14.61    3.46
   0   5  -7   33.50    7.91
   0   5   7   13.65    2.54
   0   5  -8   11.39    2.58
   0   5   8    9.95    5.67
   0  -5   8   13.72    2.28
   0  -5   8   13.52    3.38
   0  -5  -8   17.95    3.23
   0  -5   8   20.21    3.79
   0  -5  -8    4.10    3.18
   0   5  -8    3.59    4.02
   0   5   8    9.45    1.99
   0   5  -9  295.19   11.32
   0   5   9  313.60   14.99
   0  -5   9  279.21   10.34
   0  -5   9  300.18   12.85
   0  -5   9  293.75   18.53
   0  -5  -9  288.70   12.72
   0   5  -9  299.56   18.76
   0   5   9  281.28   11.14
   0   5 -10   45.18    6.56
   0   5  10   40.63    6.42
   0  -5  10   33.05    3.31
   0  -5  10   50.51    7.56
   0  -5  10   46.01    7.31
   0  -5 -10   43.28    5.82
   0   5 -10   50.79    6.90
   0   5  10   44.27    5.56
   0   5 -11  293.25   10.91
   0  -5  11  300.61   10.79
   0  -5  11  340.30   14.40
   0  -5  11  321.75   17.58
   0  -5 -11  298.99   13.07
   0   5  11  286.99   14.97
   0   5 -11  297.30   13.36
   0   5  11  327.59   11.87
   0   5  12   -1.92    3.53
   0  -5  12    3.72    1.31
   0  -5  12   18.43    4.86
   0  -5  12   20.63    4.87
   0  -5 -12    9.65    4.16
   0   5  12    3.92    1.33
   0   5 -12    7.73    4.29
   0   5  12    3.54    1.66
   0   5  13    9.59    5.58
   0  -5  13    4.22    1.30
   0  -5  13    7.32    2.14
   0  -5  13    8.74    3.48
   0  -5  13   10.18    4.86
   0  -5 -13    2.83    3.11
   0   5  13    7.22    2.20
   0   5 -13   10.54    3.63
   0   5  13   11.41    2.54
   0   5  14   19.53    8.15
   0  -5  14   -0.14    0.45
   0  -5  14    7.59    1.85
   0  -5  14    5.97    3.64
   0  -5  14   11.50    3.76
   0  -5 -14   14.39    5.69
   0   5  14    0.19    0.35
   0   5 -14   31.80    7.39
   0   5  14    0.06    0.96
   0   5  15  156.43   15.80
   0  -5  15  108.39    9.08
   0  -5  15  143.16    9.34
   0  -5  15  169.02   12.38
   0  -5  15  183.12   23.63
   0  -5 -15  159.42   12.24
   0   5  15  130.68    9.44
   0   5 -15  175.16   13.17
   0   5  15  157.54    9.43
   0   5  16   28.02    5.88
   0  -5  16   45.48    7.91
   0  -5  16   27.74    6.45
   0  -5 -16   31.81    6.99
   0   5  16   17.04    4.03
   0   5 -16   47.80    8.83
   0   5  16   19.18    4.45
   0   5  17   83.17   10.01
   0  -5  17   63.08   11.22
   0  -5  17   56.69    9.64
   0  -5 -17   48.23   10.30
   0   5 -17   65.90    8.11
   0   5  18    4.71    3.41
   0  -5  18   14.57    7.19
   0  -5 -18   13.18    4.69
   0   5 -18    2.31    3.47
   0   5 -18   20.42    6.39
   0   5  19   47.35    8.92
   0  -5  19   47.83    7.43
   0  -5 -19   54.87    7.42
   0   5 -19   60.22    7.84
   0   5 -19   43.41    9.24
   0   5  20   53.47    7.31
   0  -5  20   55.50   10.86
   0  -5 -20   73.41   10.19
   0   5 -20   58.30   10.26
   0   5 -20   59.52   10.58
   0   5  21   73.76    9.82
   0  -5  21   68.84   11.16
   0  -5 -21   67.89   12.71
   0   5 -21   76.80   10.14
   0   5 -21   64.97   10.42
   0   5  22    6.68    5.08
   0  -5  22    7.62    5.02
   0  -5 -22    6.85    3.74
   0   5 -22   -4.00    4.25
   0   5 -22   -0.50    3.53
   0   5  23    4.71    3.42
   0  -5  23   10.09    2.95
   0  -5 -23   14.10    5.60
   0   5 -23   20.58    7.62
   0   5 -23   15.76    6.54
   0   5  24   11.08    4.45
   0  -5  24   14.01    4.54
   0  -5 -24    3.37    4.40
   0   5 -24    2.22    3.92
   0   5 -24   17.07    6.34
   0   5  25   -0.38    3.58
   0  -5  25   -0.21    3.83
   0  -5 -25   12.59    4.77
   0   5 -25    2.91    3.68
   0   5 -25   -1.18    3.44
   0   5  26    0.31    3.87
   0  -5  26   15.88    5.21
   0  -5 -26   15.97    8.56
   0   5 -26    0.55    3.56
   0   5 -26    6.34    3.07
   0   5  27   21.12    8.42
   0  -5  27   14.82    5.53
   0  -5 -27    5.30    4.72
   0   5 -27    2.10    4.22
   0   5 -27    2.99    2.24
   0   5  28    8.99    5.26
   0  -5  28    7.38    3.09
   0  -5 -28    2.39    4.98
   0   5 -28    6.02    5.12
   0   5 -28   32.28   12.53
   0   5  29    0.01    3.49
   0  -5  29    3.87    3.47
   0  -5 -29    1.43    4.67
   0   5 -29    9.86    6.79
   0   5 -29    3.50    3.45
   0   5  30    5.59    5.17
   0  -5  30   11.99    4.71
   0  -5 -30    1.43    4.95
   0   5 -30   -1.00    4.35
   0   5 -30    7.50    5.66
   0   6   0   64.02   11.34
   0  -6   0   41.25    4.89
   0  -6   0   39.49    4.98
   0   6   0   49.50    8.27
   0   6  -1   48.99    5.38
   0   6   1   70.08   12.80
   0  -6   1   45.23    5.25
   0  -6  -1   46.59    5.97
   0  -6   1   56.99    6.04
   0  -6  -1   47.70    5.75
   0   6  -1   57.17    6.04
   0   6   1   42.11    6.01
   0   6  -2   60.79    7.91
   0   6   2   49.63    6.31
   0  -6   2   52.24    6.65
   0  -6  -2   46.47    5.62
   0  -6   2   57.36    7.43
   0  -6  -2   57.02    6.99
   0   6  -2   49.97    5.84
   0   6   2   67.32    9.41
   0   6  -3   17.74    4.72
   0   6   3   14.19    3.57
   0  -6   3   21.26    5.66
   0  -6  -3   13.49    4.32
   0  -6   3   21.07    5.35
   0  -6  -3   24.71    6.14
   0   6  -3   15.14    3.92
   0   6   3   25.88    5.85
   0   6  -4    5.25    1.86
   0   6   4   19.42    5.06
   0  -6   4   10.58    3.50
   0  -6  -4    6.54    3.24
   0  -6   4    5.90    2.88
   0  -6  -4   12.85    4.91
   0   6  -4    7.14    2.98
   0   6   4   13.91    3.85
   0   6  -5   23.34    4.89
   0   6   5   27.21    6.80
   0  -6   5   13.53    3.57
   0  -6  -5   42.85    7.04
   0  -6   5   25.86    7.02
   0  -6  -5   24.78    5.95
   0   6  -5   34.94    5.28
   0   6   5   26.25    5.16
   0   6  -6  138.64   16.16
   0   6   6  138.27    8.59
   0  -6   6   99.87   14.20
   0  -6   6  126.77    7.69
   0  -6  -6  155.99   22.15
   0  -6   6  134.95   19.01
   0  -6  -6  145.08    9.03
   0   6   6  135.04    7.74
   0   6  -7   60.27    9.38
   0   6   7   59.90    7.10
   0  -6   7   55.06    8.19
   0  -6   7   52.82    6.23
   0  -6  -7   66.84    7.42
   0  -6   7   76.39   10.54
   0  -6  -7   81.51    9.26
   0   6  -7   67.58    7.80
   0   6   7   64.71    6.26
   0   6  -8  248.51   20.94
   0   6   8  259.41   14.39
   0  -6   8  200.48   15.81
   0  -6   8  237.94   13.42
   0  -6  -8  236.66   13.27
   0  -6   8  214.43   15.25
   0  -6  -8  243.94   13.76
   0   6  -8  229.66   14.17
   0   6   8  242.45   12.28
   0   6  -9   25.00    5.44
   0   6   9   25.87    6.22
   0  -6   9   15.14    3.20
   0  -6   9   27.02    6.30
   0  -6  -9   30.05    5.62
   0  -6   9   27.30    6.74
   0  -6  -9   42.04    7.79
   0   6  -9   28.46    6.41
   0   6   9   23.94    5.32
   0   6 -10    7.44    2.83
   0   6  10    5.90    3.84
   0  -6  10    7.34    2.23
   0  -6  10    4.18    3.46
   0  -6 -10    9.05    3.40
   0  -6  10   11.56    4.25
   0  -6 -10    2.58    3.38
   0   6 -10   12.26    4.22
   0   6  10    5.19    3.05
   0   6 -11    8.40    2.38
   0   6  11    7.21    3.96
   0  -6  11    9.33    2.51
   0  -6  11    6.50    2.75
   0  -6  11   16.35    5.28
   0  -6 -11   17.61    5.38
   0   6 -11   16.23    5.64
   0   6  11    9.33    2.65
   0   6 -12   91.32    8.15
   0  -6  12   76.16    6.15
   0  -6  12   91.95    8.14
   0  -6  12   98.59   13.16
   0  -6 -12   91.97    8.17
   0   6  12   52.80   10.31
   0   6 -12  123.93   18.78
   0   6  12   92.36    6.48
   0   6 -13    6.24    2.39
   0   6  13   23.91    7.42
   0  -6  13    7.00    2.01
   0  -6  13    7.59    3.76
   0  -6  13   16.95    6.21
   0  -6 -13    7.48    4.97
   0   6  13    8.31    2.20
   0   6 -13   29.69    8.25
   0   6  13    5.13    1.80
   0   6  14   98.55    9.48
   0  -6  14  104.13    6.84
   0  -6  14  114.12    9.66
   0  -6  14  133.26   23.35
   0  -6 -14  123.21   10.75
   0   6  14   64.29   10.45
   0   6 -14  123.22   11.05
   0   6  14   94.23    9.17
   0   6  15   13.58    6.34
   0  -6  15    0.89    0.71
   0  -6  15    6.19    1.81
   0  -6  15   10.60    5.34
   0  -6  15    9.54    3.08
   0  -6 -15   15.27    5.39
   0   6  15    1.36    0.65
   0   6 -15   26.32    7.10
   0   6  15    5.41    1.57
   0   6  16   37.41    8.44
   0  -6  16   19.71    4.19
   0  -6  16   22.77    6.34
   0  -6  16   48.01   11.08
   0  -6 -16   48.84   11.49
   0   6 -16   37.80    8.74
   0   6  16   22.58    4.41
   0   6  17   15.06    6.62
   0  -6  17   14.09    5.35
   0  -6  17   21.77    6.74
   0  -6 -17   21.56    6.53
   0   6 -17   18.32    7.82
   0   6  18   42.88    7.22
   0  -6  18   27.92    7.67
   0  -6  18   34.44    7.93
   0  -6 -18   54.73    9.66
   0   6 -18   37.34    8.75
   0   6  19    6.72    4.04
   0  -6  19   -0.26    3.98
   0  -6 -19    6.29    4.25
   0   6 -19    3.79    4.23
   0   6  20   25.97    7.70
   0  -6  20   28.44    6.18
   0  -6 -20   17.88    7.28
   0   6 -20   38.97    7.24
   0   6 -20   35.67    8.76
   0   6  21    6.24    4.38
   0  -6  21    9.12    3.94
   0  -6 -21   14.53    7.14
   0   6 -21    7.25    4.16
   0   6 -21    8.75    3.51
   0   6  22   14.22    6.05
   0  -6  22   26.51    6.99
   0  -6 -22   16.38    6.00
   0   6 -22   35.48    9.35
   0   6 -22   18.79    7.27
   0   6  23    3.22    3.00
   0  -6  23   12.92    4.29
   0  -6 -23    4.89    3.90
   0   6 -23   -1.45    3.84
   0   6 -23    6.84    4.63
   0   6  24   13.69    5.35
   0  -6  24    1.81    3.77
   0  -6 -24   23.38    7.38
   0   6 -24    2.33    2.04
   0   6 -24   19.00    6.68
   0   6  25    9.78    4.62
   0  -6  25   32.89    9.63
   0  -6 -25   29.70    9.74
   0   6 -25   18.08    4.37
   0   6 -25   14.79    6.34
   0   6  26   17.49    6.71
   0  -6  26   17.59    6.10
   0  -6 -26   16.52    7.94
   0   6 -26   29.50   10.23
   0   6 -26   12.19    5.13
   0   6  27   20.14    7.57
   0  -6  27   16.12    5.68
   0  -6 -27   17.48    8.28
   0   6 -27   14.86    7.54
   0   6 -27   27.79    9.15
   0   6  28   12.27    6.44
   0  -6  28   15.50    5.79
   0  -6 -28   27.48   10.13
   0   6 -28   11.02    6.08
   0   6 -28   16.84    7.20
   0   6  29   -1.55    3.49
   0  -6  29   18.32    6.96
   0  -6 -29   -0.18    5.02
   0   6 -29    1.72    4.50
   0   6 -29    9.65    4.78
   0   7   0    1.68    2.70
   0  -7   0    5.89    4.70
   0  -7   0    7.25    4.53
   0   7   0   -2.35    3.08
   0   7  -1   54.13   10.83
   0   7   1   52.84    8.95
   0  -7   1   64.96   10.10
   0  -7  -1   70.63   11.60
   0  -7   1   74.10   12.32
   0  -7  -1   63.41    9.62
   0   7  -1   64.16   12.35
   0   7   1   47.40    8.15
   0   7  -2  159.01   16.82
   0   7   2  134.47   12.13
   0  -7   2  142.32    9.36
   0  -7  -2  113.20    7.87
   0  -7   2  130.13    9.64
   0  -7  -2  144.77    9.76
   0   7  -2  126.45    9.13
   0   7   2  129.11    8.48
   0   7  -3  188.59   23.86
   0   7   3  229.99   17.80
   0  -7   3  209.42   12.53
   0  -7  -3  204.78   11.94
   0  -7   3  192.82   11.07
   0  -7  -3  220.88   14.60
   0   7  -3  257.14   25.10
   0   7   3  208.53   11.53
   0   7  -4  100.79   14.72
   0   7   4  104.43    8.33
   0  -7   4  102.44    7.61
   0  -7  -4  100.25    7.94
   0  -7   4  112.38   12.64
   0  -7  -4  110.30    7.80
   0   7  -4  106.77    9.63
   0   7   4  105.31    7.29
   0   7  -5   12.50    3.85
   0   7   5   24.92    6.72
   0  -7   5   24.24    6.56
   0  -7  -5   22.47    6.20
   0  -7   5   17.29    4.85
   0  -7  -5    7.72    4.05
   0   7  -5    7.91    5.93
   0   7   5   11.99    4.18
   0   7  -6   17.64    6.31
   0   7   6   23.21    6.45
   0  -7   6   23.69    6.69
   0  -7  -6   29.80    6.29
   0  -7   6   18.51    4.92
   0  -7  -6   28.94    6.32
   0   7  -6   15.22    4.59
   0   7   6   24.12    5.88
   0   7  -7   35.15    7.35
   0   7   7   33.53    7.11
   0  -7   7   34.75    6.43
   0  -7  -7   46.13    9.39
   0  -7   7   26.69    6.43
   0  -7  -7   19.87    5.52
   0   7  -7   43.82    7.62
   0   7   7   27.62    6.83
   0   7  -8   39.83    8.34
   0   7   8   25.24    6.64
   0  -7   8   35.77    6.40
   0  -7  -8   32.60    8.50
   0  -7   8   38.23    7.75
   0  -7  -8   30.64    6.20
   0   7   8   44.37    8.25
   0   7  -9   46.06    9.35
   0   7   9   51.75    9.04
   0  -7   9   52.22    8.60
   0  -7  -9   43.40    7.70
   0  -7   9   48.42   10.39
   0  -7  -9   47.41    8.05
   0   7  -9   52.57    9.00
   0   7   9   52.12    8.04
   0   7 -10   78.74   10.34
   0   7  10   92.37   10.02
   0  -7  10   83.16    8.03
   0  -7 -10   89.99    9.14
   0  -7  10   73.20   10.46
   0  -7 -10  116.10   10.07
   0   7 -10  111.26   11.19
   0   7  10   90.04    7.69
   0   7 -11   11.93    3.40
   0   7  11   12.52    5.27
   0  -7  11    2.27    1.54
   0  -7  11    8.71    4.02
   0  -7 -11    3.81    3.31
   0  -7  11    7.99    3.48
   0  -7 -11    5.12    3.91
   0   7 -11    7.44    3.83
   0   7  11   10.22    3.02
   0   7 -12   77.81   10.35
   0   7  12   71.79    8.48
   0  -7  12   51.28    7.60
   0  -7  12   73.39    8.93
   0  -7 -12   62.73    7.41
   0  -7  12   84.32   15.65
   0  -7 -12   80.89    9.12
   0   7 -12   79.99   10.77
   0   7  12   66.95    8.85
   0   7 -13    3.29    1.26
   0   7  13    3.60    3.93
   0  -7  13    0.48    3.55
   0  -7 -13   14.77    5.33
   0  -7  13    2.56    4.02
   0  -7 -13   -0.52    4.15
   0   7 -13    8.99    6.64
   0   7  13   12.44    3.38
   0   7 -14   25.68    5.57
   0  -7  14   17.91    5.72
   0  -7 -14   24.79    8.18
   0  -7  14   24.98    6.82
   0  -7 -14   28.64    6.78
   0   7 -14   22.45    7.20
   0   7  14   19.54    4.69
   0   7  15    1.35    3.66
   0  -7  15   13.47    6.07
   0  -7  15    8.88    3.42
   0  -7 -15    8.57    5.72
   0   7 -15    3.66    4.82
   0   7  15    6.57    1.89
   0   7  16   23.05    6.74
   0  -7  16   37.20    7.77
   0  -7  16   40.98    7.65
   0  -7 -16   33.50    7.83
   0   7 -16   53.26    8.30
   0   7  17   33.37    7.21
   0  -7  17   34.37    6.22
   0  -7  17   39.42    8.79
   0  -7 -17   39.15    7.51
   0   7 -17   44.96    8.68
   0   7  18   50.06    9.74
   0  -7  18   49.52   12.59
   0  -7  18   37.87   11.20
   0  -7 -18   31.95    7.02
   0   7 -18   24.74    6.94
   0   7  19   21.34    8.53
   0  -7  19   29.81    7.82
   0  -7  19   32.20   10.94
   0  -7 -19   13.76    6.44
   0   7 -19   23.30    7.96
   0   7  20    5.84    2.14
   0  -7  20    5.39    3.52
   0  -7  20    8.96    4.77
   0  -7 -20    8.29    4.58
   0   7 -20    6.28    6.13
   0   7  21   18.12    5.36
   0  -7  21   12.02    5.67
   0  -7 -21   12.38    4.98
   0   7 -21   -1.03    3.47
   0   7 -21    4.84    3.41
   0   7  22   16.72    7.63
   0  -7  22   19.80    6.49
   0  -7 -22   27.33    7.05
   0   7 -22   11.86    5.04
   0   7 -22   12.21    4.02
   0   7  23   21.01    7.13
   0  -7  23   14.78    6.62
   0  -7 -23   13.25    5.25
   0   7 -23    6.80    3.89
   0   7 -23   25.94    8.65
   0   7  24   43.64   12.98
   0  -7  24   22.71    8.58
   0  -7 -24   18.53    7.40
   0   7 -24   28.81    9.81
   0   7 -24   34.63   10.54
   0   7  25   12.66    6.13
   0  -7  25   25.71    8.01
   0  -7 -25   29.38    9.76
   0   7 -25    9.43    4.27
   0   7 -25    2.02    4.16
   0   7  26    4.82    5.05
   0  -7  26   11.58    4.16
   0  -7 -26   -0.38    4.15
   0   7 -26    8.60    3.98
   0   7 -26    0.80    4.23
   0   7  27    9.51    3.63
   0  -7  27   11.67    4.89
   0  -7 -27    0.75    1.75
   0   7 -27   -2.07    4.58
   0   7 -27    4.34    3.15
   0   8   0   17.50    5.88
   0  -8   0   16.26    5.21
   0  -8   0   15.80    5.28
   0   8   0   12.31    4.90
   0   8  -1   18.84    5.50
   0   8   1   14.01    5.10
   0  -8   1   17.47    6.16
   0  -8  -1   31.50    7.04
   0  -8   1   25.52    6.69
   0  -8  -1   22.19    6.75
   0   8  -1    9.31    3.96
   0   8   1   21.62    8.25
   0   8  -2   28.71    6.82
   0   8   2   25.63    5.95
   0  -8   2   31.00    6.24
   0  -8  -2   12.33    4.83
   0  -8   2   32.07    6.19
   0  -8  -2   40.47    8.79
   0   8  -2   29.39    8.17
   0   8   2   33.31    6.74
   0   8  -3   22.30    5.06
   0   8   3   42.06    9.88
   0  -8   3   29.51    6.03
   0  -8  -3   38.95    7.49
   0  -8   3   35.95    8.30
   0  -8  -3   30.25    6.37
   0   8  -3   39.95    7.39
   0   8   3   29.34    5.62
   0   8  -4   31.45    6.11
   0   8   4   32.64    9.08
   0  -8   4   31.28    7.75
   0  -8  -4   36.86    7.35
   0  -8   4   28.42    6.90
   0  -8  -4   49.18    9.27
   0   8  -4   32.39    7.28
   0   8   4   29.74    6.00
   0   8  -5   32.16    6.49
   0   8   5   33.30    7.20
   0  -8   5   27.67    5.86
   0  -8  -5   26.55    6.73
   0  -8   5   33.44    7.43
   0  -8  -5   36.85    7.76
   0   8  -5   31.59    7.66
   0   8   5   22.42    5.26
   0   8  -6   17.78    5.38
   0   8   6   37.26    9.07
   0  -8   6   31.83    7.84
   0  -8  -6   29.30    6.77
   0  -8   6   24.25    6.55
   0  -8  -6   32.56    7.41
   0   8  -6   16.97    5.79
   0   8   6   29.87    7.37
   0   8  -7   40.72    9.96
   0   8   7   35.57    8.74
   0  -8   7   43.71    9.00
   0  -8  -7   39.82    8.77
   0  -8   7   48.25   11.21
   0  -8  -7   53.39    8.48
   0   8  -7   47.40   10.77
   0   8   7   33.69    8.60
   0   8  -8    3.51    1.69
   0   8   8   -0.22    4.43
   0  -8   8    0.89    3.59
   0  -8  -8   10.57    3.81
   0  -8   8    1.61    2.77
   0  -8  -8   11.86    6.02
   0   8  -8    5.01    4.25
   0   8   8    3.80    2.36
   0   8  -9  103.19   12.81
   0   8   9  116.31   10.90
   0  -8   9  107.60    9.38
   0  -8  -9  106.77    9.41
   0  -8   9   97.79   12.98
   0  -8  -9  109.86    8.97
   0   8  -9  116.85    9.75
   0   8   9  110.27   13.18
   0   8 -10   23.98    4.93
   0   8  10   31.94    8.06
   0  -8  10   14.23    5.50
   0  -8 -10   26.49    5.72
   0  -8  10   23.06    6.06
   0  -8 -10   16.32    5.45
   0   8 -10   17.10    5.61
   0   8  10   25.22    4.97
   0   8 -11    3.11    1.17
   0   8  11    6.19    4.17
   0  -8  11    0.37    3.62
   0  -8 -11   17.46    6.03
   0  -8  11   15.32    4.93
   0  -8 -11    9.88    4.17
   0   8 -11   15.67    6.43
   0   8  11    9.65    3.09
   0   8 -12    6.81    2.22
   0   8  12    7.69    6.01
   0  -8  12    4.35    4.12
   0  -8 -12    6.24    3.66
   0  -8  12   12.89    4.58
   0  -8 -12   11.57    6.16
   0   8 -12   29.03    8.50
   0   8  12    5.77    1.93
   0   8 -13   31.16    6.82
   0   8  13   54.17    9.54
   0  -8  13   45.26    7.15
   0  -8 -13   28.60    6.89
   0  -8  13   41.32    7.31
   0  -8 -13   31.46    7.55
   0   8 -13   43.72   11.55
   0   8  13   36.55    6.68
   0   8 -14    3.65    1.50
   0   8  14    2.56    2.63
   0  -8  14    4.57    4.02
   0  -8 -14   12.02    7.15
   0  -8  14    7.52    3.00
   0  -8 -14   10.86    6.28
   0   8 -14   16.71    6.63
   0   8  14   -0.40    1.16
   0  -8  15   75.18    9.79
   0  -8 -15   89.93   11.92
   0  -8  15   62.72   16.01
   0  -8 -15   83.59   11.71
   0   8 -15   62.05    9.69
   0   8  16   34.04   11.74
   0  -8  16    9.18    5.35
   0  -8 -16    4.00    2.81
   0  -8  16    7.52    5.23
   0  -8 -16   13.42    4.90
   0   8 -16    4.47    5.36
   0   8  17   -1.16    3.98
   0  -8  17   16.61    7.06
   0  -8 -17    4.29    6.16
   0  -8  17   10.72    4.06
   0  -8 -17    5.55    4.09
   0   8 -17    8.81    7.00
   0   8  18    9.15    5.63
   0  -8  18    7.35    4.80
   0  -8 -18   11.43    6.20
   0  -8  18   11.02    7.42
   0  -8 -18    8.76    5.06
   0   8 -18   15.23    7.93
   0   8  19    7.26    4.50
   0  -8  19   -1.82    3.91
   0  -8 -19    3.02    4.15
   0  -8  19   13.78    3.01
   0  -8 -19    2.25    3.91
   0   8 -19    4.67    6.56
   0   8  20   16.07    7.25
   0  -8  20   19.49    5.21
   0  -8  20    7.42    3.85
   0  -8 -20    4.80    4.34
   0   8 -20   16.21    7.09
   0   8  21    6.06    4.55
   0  -8  21   17.76    6.12
   0  -8  21   11.02    4.93
   0  -8 -21   23.77    6.95
   0   8 -21   30.27    8.29
   0   8  22   15.39    7.47
   0  -8  22    5.90    3.89
   0  -8 -22    1.27    4.88
   0   8 -22    7.93    4.53
   0   8 -22   18.20    7.58
   0   8  23    5.46    4.09
   0  -8  23   13.67    5.44
   0  -8 -23    6.10    5.05
   0   8 -23   12.11    6.71
   0   8 -23   11.30    5.73
   0   8  24   15.20    6.28
   0  -8  24   10.96    5.01
   0  -8 -24    3.82    4.66
   0   8 -24   15.04    7.79
   0   8 -24    5.44    4.36
   0   8  25   12.16    7.00
   0  -8  25    0.55    3.20
   0  -8 -25    2.56    4.67
   0   8 -25   -0.45    4.58
   0   8 -25   10.24    5.89
   0   9   0    8.53    4.77
   0  -9   0    0.57    3.73
   0  -9   0    9.03    4.44
   0   9   0   10.08    4.36
   0   9  -1   35.79   10.52
   0   9   1   37.17   11.29
   0  -9   1   52.26    6.96
   0  -9  -1   29.68    6.62
   0  -9   1   67.71   12.78
   0  -9  -1   53.52    7.72
   0   9  -1   50.35    7.23
   0   9   1   41.66    8.13
   0   9  -2  141.53   21.46
   0   9   2  146.21   10.98
   0  -9   2  214.98   14.50
   0  -9  -2  158.83   11.67
   0  -9   2  138.78   17.37
   0  -9  -2  175.34   12.83
   0   9  -2  174.21   11.91
   0   9   2  166.02   11.84
   0   9  -3  140.12   10.29
   0   9   3  151.11   12.02
   0  -9   3  145.78   10.80
   0  -9  -3  148.21   11.48
   0  -9   3  114.50    9.14
   0  -9  -3  154.12   12.64
   0   9  -3  154.10   11.40
   0   9   3  161.72   12.30
   0   9  -4  209.13   15.56
   0   9   4  183.02   12.97
   0  -9   4  188.05   12.54
   0  -9  -4  214.20   14.47
   0  -9   4  181.05   25.28
   0  -9  -4  214.39   14.09
   0   9  -4  186.29   12.80
   0   9   4  194.20   12.62
   0   9  -5   20.27    7.53
   0   9   5   43.28    7.23
   0  -9   5   37.41    7.86
   0  -9  -5   33.60    7.57
   0  -9   5   41.19    6.85
   0  -9  -5   30.04    7.85
   0   9  -5   23.53    6.39
   0   9   5   23.80    7.73
   0   9  -6   11.07    2.96
   0   9   6    6.18    2.42
   0  -9   6   19.63    5.92
   0  -9  -6    5.12    4.21
   0  -9   6   17.81    6.87
   0  -9  -6    5.84    3.52
   0   9  -6   11.11    5.52
   0   9   6    6.21    3.88
   0   9  -7    5.00    3.48
   0   9   7    8.50    3.50
   0  -9   7   19.19    6.23
   0  -9  -7    0.03    3.97
   0  -9   7    9.04    3.73
   0  -9  -7   12.98    6.37
   0   9  -7    1.33    4.26
   0   9   7   17.43    5.33
   0   9  -8   38.73    7.82
   0   9   8   57.44    8.21
   0  -9   8   18.37    5.99
   0  -9  -8   42.14    8.03
   0  -9   8   28.50    7.40
   0  -9  -8   48.06    8.52
   0   9  -8   33.92    9.02
   0   9   8   45.92    7.13
   0   9  -9   71.42   11.33
   0   9   9   80.71   14.76
   0  -9   9   97.20   12.27
   0  -9  -9  100.17   12.28
   0  -9   9   72.49   14.15
   0  -9  -9   84.28   10.72
   0   9  -9   74.16    9.71
   0   9   9  110.29   11.66
   0   9 -10   64.80   14.39
   0   9  10  107.63   16.90
   0  -9  10   89.54   10.67
   0  -9 -10   94.14   11.41
   0  -9  10   86.12   16.09
   0  -9 -10   78.68    9.71
   0   9 -10  110.32   15.23
   0   9  10   86.00   10.82
   0   9 -11   13.94    4.41
   0   9  11   42.09    8.46
   0  -9  11   54.25    8.96
   0  -9 -11   43.75    7.97
   0  -9  11   44.52   10.32
   0  -9 -11   44.47    7.81
   0   9  11   32.21    5.86
   0   9 -12   12.19    4.04
   0   9  12   27.41    7.50
   0  -9  12   29.36    6.29
   0  -9 -12   26.74    6.29
   0  -9  12   16.25    6.25
   0  -9 -12   27.06    7.14
   0   9 -12   26.55    7.44
   0   9  12    8.59    2.42
   0   9  13   -1.15    3.95
   0  -9  13    7.95    4.10
   0  -9 -13    8.39    4.22
   0  -9  13   10.44    3.80
   0  -9 -13   -0.09    3.39
   0   9 -13   -1.62    4.47
   0   9  14   23.87    7.07
   0  -9  14    0.93    3.43
   0  -9 -14    1.39    3.73
   0  -9  14   11.04    4.21
   0  -9 -14   -0.71    3.34
   0   9 -14    8.50    4.57
   0   9  15   10.84    6.39
   0  -9  15   12.03    5.75
   0  -9 -15   21.86    7.19
   0  -9  15   12.73    4.64
   0  -9 -15   13.13    5.25
   0   9 -15   15.40    6.91
   0   9  16   32.74    8.90
   0  -9  16   15.07    5.68
   0  -9 -16   38.56    9.17
   0  -9  16   36.92    8.15
   0  -9 -16   29.08    6.93
   0   9 -16   43.05   10.02
   0   9  17   22.28    7.08
   0  -9  17    9.81    6.45
   0  -9 -17   13.26    5.94
   0  -9  17   10.34    4.56
   0  -9 -17   18.49    7.32
   0   9 -17   20.58    6.55
   0   9  18   24.07    7.08
   0  -9  18   32.60    8.25
   0  -9 -18   11.38    8.68
   0  -9  18   25.11    7.52
   0  -9 -18   13.11    6.46
   0   9 -18   27.53    8.45
   0   9  19   -6.80    4.21
   0  -9  19    3.47    4.28
   0  -9 -19    0.90    4.21
   0  -9  19   -0.03    3.97
   0  -9 -19   -0.27    3.68
   0   9 -19    8.31    5.77
   0   9  20   12.28    7.75
   0  -9  20    6.55    4.21
   0  -9 -20    4.54    4.65
   0  -9  20   13.28    6.28
   0  -9 -20    8.67    6.37
   0   9 -20    0.66    5.53
   0   9  21    4.61    6.25
   0  -9  21    2.27    1.78
   0  -9 -21    4.19    5.31
   0  -9  21    9.56    3.58
   0  -9 -21   10.41    4.77
   0   9 -21    7.70    4.64
   0   9  22   17.04    7.83
   0  -9  22    3.02    4.10
   0  -9 -22   13.69    6.54
   0  -9 -22   17.65    6.13
   0   9 -22    4.80    3.18
   0   9  23   16.71    6.18
   0  -9  23    4.35    3.83
   0  -9 -23    1.10    4.81
   0  -9 -23    9.96    5.12
   0   9 -23   50.91   16.75
   0   9 -23   11.86    5.51
   0  10   0   65.11    9.79
   0 -10   0   47.13    8.24
   0 -10   0   47.25    7.81
   0  10   0   59.40   10.05
   0  10  -1    2.43    3.25
   0  10   1   12.74    5.31
   0 -10   1   -0.52    3.68
   0 -10  -1    0.46    3.58
   0 -10   1   -0.55    3.28
   0 -10  -1    5.64    3.69
   0  10  -1    4.16    4.12
   0  10   1    6.64    3.74
   0  10  -2   22.09    6.14
   0  10   2   30.73    7.81
   0 -10   2   11.21    5.26
   0 -10  -2   29.54    5.63
   0 -10   2   34.50    8.24
   0 -10  -2   14.17    5.63
   0  10  -2   37.10   11.30
   0  10   2   28.75    6.95
   0  10  -3   13.78    5.68
   0  10   3   20.11    7.32
   0 -10   3   14.32    6.04
   0 -10  -3   14.57    6.17
   0 -10   3   21.77    6.77
   0 -10  -3    2.40    3.72
   0  10  -3   21.66    7.32
   0  10   3   11.61    4.77
   0  10  -4    0.59    1.06
   0  10   4    1.74    4.51
   0 -10   4    4.20    3.91
   0 -10  -4    6.86    3.85
   0 -10   4    2.07    2.17
   0 -10  -4    1.86    3.59
   0  10  -4    5.57    4.09
   0  10   4    5.99    4.22
   0  10  -5    7.01    3.38
   0  10   5   14.61    7.11
   0 -10   5    8.55    4.19
   0 -10  -5    9.62    4.07
   0 -10   5   15.77    5.31
   0 -10  -5    9.18    4.05
   0  10  -5    8.45    4.08
   0  10   5    4.52    3.86
   0  10  -6   50.70   10.69
   0  10   6   47.65   10.89
   0 -10   6   68.34   10.37
   0 -10  -6   55.59    9.14
   0 -10   6   33.21    5.71
   0 -10  -6   37.91    7.22
   0  10  -6   56.72   10.74
   0  10   6   33.73    5.59
   0  10  -7    9.57    3.14
   0  10   7    8.60    6.50
   0 -10   7    9.99    5.75
   0 -10  -7    7.24    3.73
   0 -10   7    0.83    1.71
   0 -10  -7    8.09    3.17
   0  10  -7   -0.95    4.03
   0  10   7    2.03    2.82
   0  10  -8   31.48   10.79
   0  10   8   25.05    6.32
   0 -10   8   48.83    9.66
   0 -10  -8   55.11   11.96
   0 -10   8   55.70   15.42
   0 -10  -8   55.45   11.14
   0  10  -8   71.96   14.20
   0  10   8   31.71    9.93
   0  10  -9    9.25    3.38
   0  10   9    9.35    4.99
   0 -10   9    2.43    3.30
   0 -10  -9   10.55    5.21
   0 -10   9    9.85    3.13
   0 -10  -9   11.82    5.64
   0  10  -9    1.34    4.85
   0  10   9    8.19    4.11
   0  10 -10    7.44    3.38
   0 -10  10   25.12    7.66
   0 -10 -10   17.08    5.45
   0 -10  10   13.26    4.17
   0 -10 -10   10.29    4.45
   0  10 -10   19.00    5.37
   0  10  10   15.68    4.50
   0  10 -11    2.90    1.40
   0  10  11    9.85    4.92
   0 -10  11   13.55    4.41
   0 -10 -11   21.64    6.77
   0 -10  11    7.70    3.16
   0 -10 -11    4.72    3.61
   0  10 -11    9.60    5.94
   0  10  11    3.75    1.93
   0  10  12   22.41    7.41
   0 -10  12   32.49    8.78
   0 -10 -12   27.55    7.96
   0 -10  12   25.97    8.96
   0 -10 -12    8.08    4.64
   0  10 -12   30.10    9.00
   0  10  13   12.46    4.92
   0 -10  13    6.23    5.32
   0 -10 -13    8.76    3.83
   0 -10  13    6.56    4.22
   0 -10 -13   11.85    5.20
   0  10 -13    4.74    5.20
   0  10  14   52.54   12.70
   0 -10  14   19.68    5.76
   0 -10 -14   34.78    8.87
   0 -10  14   33.07    9.11
   0 -10 -14   22.17    6.97
   0  10 -14   41.75   10.46
   0  10  15    3.70    3.56
   0 -10  15    0.52    3.98
   0 -10 -15    3.38    4.18
   0 -10  15   -4.90    3.71
   0 -10 -15    7.54    5.55
   0  10 -15   -2.13    4.75
   0  10  16   25.29    8.56
   0 -10  16   22.87    7.69
   0 -10 -16    9.41    3.72
   0 -10  16    6.94    4.61
   0 -10 -16   14.46    7.40
   0  10 -16    4.98    5.14
   0  10  17    4.55    4.50
   0 -10  17    8.93    4.86
   0 -10 -17   11.73    4.26
   0 -10  17    9.83    5.11
   0 -10 -17    7.43    4.64
   0  10 -17    8.34    6.08
   0 -10  18   12.60    8.47
   0 -10 -18    0.16    3.61
   0 -10  18    7.73    8.16
   0 -10 -18   17.94    7.34
   0  10 -18   19.19    9.50
   0  10  19    4.03    4.65
   0 -10  19    6.36    4.58
   0 -10 -19    3.75    4.51
   0 -10  19    7.44    5.77
   0 -10 -19   14.96    7.08
   0  10 -19    0.20    5.61
   0  10  20    8.89    5.03
   0 -10  20    3.45    2.90
   0 -10 -20   12.68    7.32
   0 -10  20    2.07    2.15
   0 -10 -20   13.06    6.65
   0  10 -20    4.90    5.26
   0  10  21   48.10   15.19
   0 -10  21   24.84    8.87
   0  10 -21    9.26    4.39
   0  11   0    6.84    3.98
   0 -11   0    0.31    4.12
   0 -11   0    5.70    3.95
   0  11   0   12.18    4.94
   0  11  -1    7.19    5.40
   0  11   1    2.23    3.23
   0 -11   1    9.13    5.79
   0 -11  -1    0.79    3.89
   0 -11   1    6.06    5.34
   0 -11  -1    5.96    3.59
   0  11   1   10.09    5.23
   0  11  -1   14.82    4.59
   0  11  -2   15.40    5.41
   0  11   2   11.77    5.02
   0 -11   2   21.99    6.52
   0 -11  -2   23.43    6.54
   0 -11   2   18.61    4.67
   0 -11  -2   24.76    6.64
   0  11  -2   11.22    6.09
   0  11   2   13.23    3.70
   0  11  -3   24.90    6.94
   0  11   3    7.35    3.81
   0 -11   3   12.59    5.58
   0 -11  -3   12.71    5.33
   0 -11   3   10.58    5.91
   0 -11  -3    5.54    3.68
   0  11  -3   19.27    6.08
   0  11   3   12.38    3.54
   0  11  -4   17.77    6.11
   0  11   4    2.88    3.85
   0 -11   4   10.13    6.17
   0 -11  -4   15.55    6.82
   0 -11   4   15.31    6.47
   0 -11  -4   11.69    5.80
   0  11  -4    4.62    3.84
   0  11   4   17.68    5.80
   0  11  -5    8.53    2.98
   0  11   5    8.60    6.97
   0 -11   5    6.82    4.33
   0 -11  -5   20.13    6.55
   0 -11   5   20.68   12.93
   0 -11  -5    9.11    4.52
   0  11  -5    9.63    4.78
   0  11   5   10.73    5.65
   0  11  -6    6.57    2.98
   0  11   6   -0.16    3.76
   0 -11   6    6.18    4.04
   0 -11  -6   10.20    5.76
   0 -11   6    4.57    3.65
   0 -11  -6   11.41    6.00
   0  11  -6   25.04    8.42
   0  11   6   13.52    5.35
   0  11  -7   12.51    4.77
   0  11   7   16.38    7.30
   0 -11   7   -0.91    3.89
   0 -11  -7    8.92    4.39
   0 -11   7   14.74    5.24
   0 -11  -7    2.50    3.49
   0  11  -7    6.32    5.30
   0  11   7   -0.05    2.70
   0  11  -8   10.19    3.69
   0  11   8    3.24    5.01
   0 -11   8    8.08    5.35
   0 -11  -8    3.36    3.58
   0 -11   8    6.41    2.48
   0 -11  -8    5.96    3.66
   0  11  -8   20.15    7.96
   0  11   8    6.60    2.87
   0  11  -9    5.87    1.76
   0  11   9    7.99    4.34
   0 -11   9    7.42    5.43
   0 -11  -9    6.71    3.92
   0 -11   9    5.49    4.05
   0 -11  -9   12.21    5.76
   0  11  -9    4.64    2.93
   0  11   9   -2.65    2.33
   0  11  10    8.94    5.13
   0 -11  10    5.18    4.66
   0 -11 -10    1.07    3.56
   0 -11  10    6.78    2.98
   0 -11 -10   13.62    6.40
   0  11 -10    5.31    4.52
   0  11  11    5.78    4.93
   0 -11  11    8.48    4.61
   0 -11 -11    7.17    3.13
   0 -11  11    9.93    3.64
   0 -11 -11    8.77    4.44
   0  11 -11    9.74    5.71
   0  11  12    6.78    5.03
   0 -11  12   16.92    6.32
   0 -11 -12    2.99    4.16
   0 -11  12   10.02    3.95
   0 -11 -12    1.30    3.73
   0  11 -12    4.17    5.82
   0  11  13   -3.61    4.44
   0 -11  13    5.37    4.21
   0 -11 -13   12.41    6.35
   0 -11  13    9.28    3.32
   0 -11 -13    7.23    4.16
   0  11 -13    7.32    3.63
   0  11  14    8.66    5.47
   0 -11  14    1.10    4.18
   0 -11 -14   13.93    6.56
   0 -11  14    4.01    2.66
   0 -11 -14    5.01    3.92
   0  11  15   12.13    6.80
   0 -11  15    8.21    6.48
   0 -11 -15    3.37    4.32
   0 -11  15    5.29    4.42
   0 -11 -15   38.59   12.35
   0  11 -15   10.23    6.32
   0  11  16   18.39    7.45
   0 -11  16   29.18   11.49
   0 -11 -16    3.17    3.97
   0 -11  16   -0.57    4.12
   0 -11 -16   12.78    6.42
   0  11 -16    1.57    6.56
   0  11  17   25.86   11.01
   0 -11  17   15.48    7.96
   0 -11 -17   14.20    7.89
   0 -11  17    0.66    2.59
   0 -11 -17   15.09    7.49
   0  11 -17    1.70    6.02
   0  12   0   16.61    6.50
   0 -12   0    8.78    4.53
   0 -12   0   14.92    7.30
   0  12   0    3.89    3.85
   0  12  -1    9.35    4.94
   0  12   1   14.28    5.22
   0 -12   1   35.93   10.84
   0 -12  -1   20.73    7.71
   0 -12   1   13.67    6.28
   0 -12  -1   14.97    8.94
   0  12  -1   23.72    8.46
   0  12   1    8.72    3.94
   0  12  -2    3.04    3.64
   0  12   2   15.91    5.62
   0 -12   2    9.08    4.48
   0 -12  -2    2.77    5.22
   0 -12   2    2.45    4.37
   0 -12  -2   11.28    6.27
   0  12  -2   14.42    7.97
   0  12   2   13.72    6.14
   0  12  -3   19.32    6.66
   0  12   3    5.40    4.23
   0 -12   3   12.27    7.61
   0 -12  -3    6.10    4.49
   0 -12   3   16.11    7.41
   0 -12  -3    7.63    4.22
   0  12  -3   -3.67    3.93
   0  12   3   12.90    5.67
   0  12  -4   10.85    3.94
   0  12   4   17.24    6.71
   0 -12   4   12.03    6.67
   0 -12  -4    3.83    4.13
   0 -12   4    8.08    3.66
   0 -12  -4    1.81    3.80
   0  12  -4    9.54    4.82
   0  12  -5    3.49    2.87
   0  12   5    8.32    3.95
   0 -12   5    9.16    4.84
   0 -12  -5   25.69    8.95
   0 -12   5   19.04    6.62
   0 -12  -5   -0.03    3.85
   0  12  -5   -1.46    4.24
   0  12   5   10.64    4.34
   0  12  -6    1.73    2.61
   0  12   6    7.09    3.96
   0 -12   6    1.34    4.20
   0 -12  -6    8.90    6.35
   0 -12   6   11.44    4.73
   0 -12  -6    3.80    4.14
   0  12  -6   14.03    7.43
   0  12   6    6.72    4.47
   0  12  -7   20.11    6.72
   0  12   7   22.72    8.79
   0 -12   7    9.14    6.24
   0 -12  -7   10.81    6.62
   0 -12   7   30.89   11.99
   0 -12  -7   14.24    6.59
   0  12  -7   22.51    8.80
   0  12   7    2.13    1.34
   0  12   8   23.36    8.44
   0 -12   8   -0.98    4.43
   0 -12  -8    4.66    4.17
   0 -12   8    9.50    3.74
   0 -12  -8    8.28    6.01
   0  12  -8    9.30    4.65
   0  12   9   25.16    8.95
   0 -12  -9   26.91    9.53
   0 -12   9   22.55    8.38
   0 -12  -9   13.09    6.41
   0  12  -9   24.27    9.72
   0  12  10    7.78    6.19
   0 -12  10   -2.69    4.01
   0 -12 -10   29.82   10.53
   0 -12  10    7.13    3.43
   0 -12 -10   11.19    6.69
   0  12 -10    6.29    5.55
   0  12  11   13.77    7.42
   0 -12  11    4.90    4.61
   0 -12 -11    2.39    3.84
   0 -12  11   14.07    5.44
   0 -12 -11    9.17    6.09
   0  12 -11   23.48    9.31
   0  12  12    9.00    5.61
   0 -12  12   11.98    6.74
   0 -12 -12    7.00    4.36
   0 -12  12    6.68    3.14
   0  12 -12    4.09    4.68
   1   0 -33    0.56    3.85
  -1   0  32    7.54    3.56
   1   0 -32   15.01    8.01
  -1   0  31    5.74    4.38
   1   0 -31    6.39    6.47
  -1   0  30    4.29    3.89
   1   0 -30   15.69    7.13
  -1   0  29    4.82    3.70
   1   0 -29    8.76    7.03
  -1   0  28   13.46    4.16
   1   0 -28   -0.34    3.72
  -1   0  27    2.52    2.68
  -1   0  27    6.12    3.59
   1   0 -27    6.24    2.98
   1   0 -27    4.10    1.93
  -1   0  26   43.07    6.51
  -1   0  26   50.96   11.51
   1   0 -26   39.20    7.71
   1   0 -26   36.58    9.99
  -1   0  25   10.16    3.42
  -1   0  25    3.82    3.20
   1   0 -25    3.58    2.77
   1   0 -25    4.91    2.78
  -1   0  24   64.48    7.48
  -1   0  24   39.51   11.71
   1   0 -24   60.19    7.97
   1   0 -24   51.60    6.96
  -1   0  23    4.99    1.55
  -1   0  23   10.23    4.40
   1   0 -23    6.42    2.05
   1   0 -23    2.55    1.56
  -1   0  22   23.55    5.51
  -1   0  22   23.87    7.01
   1   0 -22   29.68    6.78
   1   0 -22   29.67    5.58
  -1   0  21    2.61    1.76
  -1   0  21    5.12    2.45
   1   0 -21    5.57    2.77
   1   0 -21    1.52    2.08
  -1   0  20    4.69    2.09
  -1   0  20   11.80    4.73
   1   0 -20   13.89    5.05
   1   0 -20    4.42    2.28
  -1   0  19    8.87    3.73
  -1   0  19   10.81    5.68
   1   0 -19    1.82    3.38
   1   0 -19    6.82    3.04
  -1   0  18  671.84   37.84
   1   0 -18  720.94  107.19
   1   0 -18  683.79   30.92
  -1   0  17    4.42    2.88
   1   0 -17    1.58    1.00
  -1   0  17    6.50    2.61
   1   0 -17   11.17    5.09
   1   0 -17    7.89    2.68
  -1   0  16   58.01    5.85
   1   0 -16   46.10    4.60
  -1   0  16   59.94    8.40
   1   0 -16   55.27    9.43
   1   0 -16   42.94    4.73
  -1   0  16   45.22    4.82
  -1   0  15    0.57    1.73
   1   0 -15    6.68    1.62
  -1   0  15    5.22    2.66
   1   0 -15    3.15    2.11
   1   0 -15    0.49    1.90
  -1   0  15    3.38    1.85
  -1   0  14   13.95    2.84
   1   0 -14   23.10    3.92
  -1   0  14    9.66    4.60
   1   0 -14   16.59    3.63
   1   0 -14   22.20    3.44
  -1   0  14   16.90    2.79
  -1   0  13    0.90    1.83
   1   0 -13    2.45    1.62
  -1   0  13    0.43    2.03
   1   0 -13    0.72    1.93
  -1   0  13    3.79    1.59
  -1   0  12  549.50   20.17
   1   0 -12  511.44   18.40
  -1   0  12  534.06   32.03
   1   0 -12  556.82   20.15
  -1   0  12  510.10   18.55
  -1   0  11    3.21    2.00
   1   0 -11    3.60    1.80
  -1   0  11    6.00    2.58
  -1   0  11    0.55    1.91
   1   0 -11   -0.19    2.07
  -1   0  11    7.76    2.03
  -1   0  10   68.56    6.01
   1   0 -10   63.58    4.30
  -1   0  10   75.35    9.47
   1   0 -10   69.35    6.90
  -1   0  10   54.10    4.11
   1   0 -10   74.54    5.46
  -1   0  10   53.11    3.92
  -1   0   9    1.91    1.89
   1   0  -9    2.18    1.67
  -1   0   9   -0.35    2.48
  -1   0   9    0.49    1.79
   1   0  -9    0.16    1.82
  -1   0   8   15.00    3.62
   1   0  -8   15.82    1.90
  -1   0   8   16.38    2.79
   1   0  -8   14.70    3.40
   1   0  -8   17.15    2.96
  -1   0   8   20.65    2.85
   1   0  -8   15.43    3.47
  -1   0   8   17.36    2.64
  -1   0   7    0.43    2.66
   1   0  -7    3.47    1.64
  -1   0   7    3.24    3.24
  -1   0   7    1.51    1.83
  -1   0   7    3.44    1.69
   1   0  -6   66.10    4.63
  -1   0   6   79.50    7.90
   1   0  -6   68.73    4.63
  -1   0   6   55.50    3.89
   1   0  -6   65.63    4.87
  -1   0   6   67.85    5.06
  -1   0   5    2.47    1.68
   1   0  -5    2.89    2.62
  -1   0   5    3.16    2.46
  -1   0   5    3.22    1.75
   1   0  -5    7.32    2.33
  -1   0   5    5.64    2.38
   1   0  -4  160.46    8.65
  -1   0   4  170.07   11.66
   1   0  -4  169.09    9.06
  -1   0   4  157.73    8.96
   1   0  -4  163.95    9.63
  -1   0   3    3.12    1.02
   1   0  -3    0.40    1.33
  -1   0   3    2.64    1.39
   1   0  -3   -0.06    0.71
  -1   0   3    3.70    1.54
   1   0  -3    3.51    1.31
  -1   0   3    2.86    1.94
   1   0  -2    8.66    0.97
  -1   0   2    2.26    1.21
   1   0  -2   12.19    1.16
   1   0  -2    2.75    0.82
  -1   0   2   13.41    2.59
  -1   0   2   10.98    1.56
  -1   0   1    1.65    0.55
   1   0  -1    1.36    1.27
  -1   0   1    1.63    0.96
   1   0  -1    2.87    1.11
   1   0  -1   -0.41    0.57
  -1   0   1    1.40    0.80
   1   0  -1   -0.61    0.94
   1   0   0    1.03    0.52
   1   0   0    1.18    0.62
  -1   0  -1    2.47    0.60
   1   0   1    0.81    0.47
  -1   0  -1    2.06    0.81
  -1   0  -1    1.92    0.75
   1   0   2   99.58    5.35
  -1   0  -2  106.28    5.81
   1   0   2  107.49    7.13
  -1   0  -2  115.70    6.29
  -1   0  -3    3.03    0.92
  -1   0  -3    5.36    1.09
   1   0   3    4.62    1.06
  -1   0  -3   -0.43    1.20
   1   0   4  202.36    5.49
   1   0   4  193.88    5.42
  -1   0  -4  191.94   34.76
  -1   0  -4  197.92    5.23
  -1   0  -4  215.42    5.52
   1   0   5    4.39    1.39
  -1   0  -5    1.74    1.38
   1   0   5    1.99    1.70
  -1   0  -5    0.56    0.88
  -1   0  -5   -1.72    1.57
  -1   0  -5    2.93    2.09
   1   0   6  361.35    7.39
  -1   0  -6  335.23    7.02
   1   0   6  361.33    8.90
  -1   0  -6  363.82    8.12
  -1   0  -6  374.91    8.37
  -1   0  -6  357.19    8.32
  -1   0  -6  341.52    6.97
   1   0   7    1.02    1.03
  -1   0  -7    1.11    0.83
   1   0   7    2.97    1.31
  -1   0  -7    1.58    1.79
  -1   0  -7    2.73    1.79
  -1   0  -7    0.85    2.36
  -1   0  -7    1.36    0.89
   1   0   8 1284.53   21.77
   1   0   8 1308.95   23.65
  -1   0  -8 1279.04   23.32
  -1   0  -8 1359.96   24.38
  -1   0  -8 1335.56   23.86
  -1   0  -8 1297.76   22.07
   1   0   9    2.36    1.53
  -1   0  -9    0.07    0.93
   1   0   9   -3.17    2.40
  -1   0  -9    2.16    1.86
  -1   0  -9    3.22    1.64
  -1   0  -9    6.60    2.20
  -1   0  -9    1.48    1.56
   1   0  10  233.91    9.64
  -1   0 -10  225.04    8.68
   1   0  10  256.52   20.22
  -1   0 -10  216.73   14.61
  -1   0 -10  234.62   17.40
  -1   0 -10  217.30    9.71
  -1   0 -10  234.93   11.35
   1   0  11    2.85    2.06
  -1   0 -11    0.26    0.99
   1   0  11    4.47    1.97
  -1   0 -11   -1.99    2.61
  -1   0 -11    2.65    1.78
   1   0  12   48.85    4.87
  -1   0 -12   48.86    4.07
   1   0  12   67.80    8.68
  -1   0 -12   65.61   11.64
  -1   0 -12   59.54    6.06
   1   0  13    4.56    2.20
  -1   0 -13    3.18    1.17
  -1   0 -13    5.48    2.49
  -1   0 -13    3.22    1.57
   1   0  14    5.87    2.34
  -1   0 -14   -0.90    0.86
   1   0  14    5.88    2.48
  -1   0 -14   15.62    4.53
  -1   0 -14    3.99    1.27
   1   0  15   -0.36    1.39
  -1   0 -15    2.98    1.44
   1   0  15   -4.10    2.80
  -1   0 -15   10.95    4.96
  -1   0 -15    1.07    1.41
   1   0  16   73.86    9.57
  -1   0 -16   72.70    6.48
   1   0  16   74.65   11.06
  -1   0 -16   83.30    8.37
  -1   0 -16   76.56    9.10
   1   0  17    3.54    2.10
  -1   0 -17    3.88    1.73
   1   0  17   -1.66    3.21
  -1   0 -17    1.95    3.14
  -1   0 -17    1.45    1.51
   1   0  18  240.88   15.35
  -1   0 -18  191.22   12.00
   1   0  18  218.38   26.71
  -1   0 -18  251.17   17.44
  -1   0 -18  216.74   17.87
   1   0  19    2.92    1.16
  -1   0 -19    0.03    1.26
   1   0  19    3.76    2.64
  -1   0 -19   11.48    5.03
  -1   0 -19    6.19    1.88
   1   0  20  277.59   20.99
  -1   0 -20  242.01   15.21
   1   0  20  249.31   34.89
  -1   0 -20  277.58   20.76
  -1   0 -20  284.65   17.84
   1   0  21    8.15    3.45
   1   0  21   -1.56    3.58
  -1   0 -21    0.79    4.02
  -1   0 -21   15.46    5.85
   1   0  22   27.35    4.79
   1   0  22   39.52    9.21
  -1   0 -22   40.44    9.54
  -1   0 -22   30.37    5.31
   1   0  23    1.89    1.11
   1   0  23    5.44    3.07
  -1   0 -23    8.82    5.83
  -1   0 -23    3.36    1.43
   1   0  24   84.75   13.04
   1   0  24  111.68   12.22
  -1   0 -24  105.16   13.30
  -1   0 -24   82.59   10.21
   1   0  25    2.18    1.39
  -1   0 -25    7.96    4.90
  -1   0 -25    2.35    1.95
  -1   0 -26   65.30   14.58
  -1   0 -27   14.79    5.15
  -1   0 -28   23.56    8.78
  -1   0 -29    1.44    4.33
  -1   0 -30   87.67    8.55
  -1   0 -31    8.45    5.11
  -1   0 -32   15.43    7.48
  -1  -1  33    7.68    4.37
   1  -1 -33   22.07    9.89
   1   1 -33    8.33    5.39
  -1  -1  32    9.05    3.69
   1  -1 -32   23.75    9.16
   1   1 -32   20.66    9.01
  -1  -1  31   -1.44    4.60
   1  -1 -31   22.00    8.40
   1   1 -31   16.23    6.74
  -1  -1  30   15.83    3.94
   1  -1 -30   24.15    9.57
   1   1 -30   11.39    4.98
  -1   1  29   12.55    4.64
  -1  -1  29   16.49    5.25
   1  -1 -29    9.18    5.67
   1   1 -29    9.08    4.68
   1   1 -29   13.26    3.92
  -1   1  28   49.06   11.60
  -1   1  28   57.91   10.47
  -1  -1  28   67.85   16.99
   1  -1 -28   59.81   13.06
   1   1 -28   68.91   11.87
   1   1 -28   62.68   11.62
  -1   1  27   16.38    5.77
  -1   1  27   18.11    6.09
  -1  -1  27   16.85    7.78
   1  -1 -27   23.23    7.78
   1   1 -27   18.97    6.96
   1   1 -27   13.69    4.87
  -1   1  26    8.39    3.34
  -1  -1  26    8.32    2.62
  -1   1  26   17.23    5.63
  -1  -1  26    8.11    4.00
   1  -1 -26   12.93    5.87
   1   1 -26   17.11    5.47
   1  -1 -26   13.99    3.90
   1   1 -26   12.01    3.88
  -1   1  25    3.48    3.28
  -1  -1  25    3.01    1.63
  -1   1  25    3.98    3.32
  -1  -1  25    9.82    4.36
   1  -1 -25   14.06    5.69
   1   1 -25    3.96    3.01
   1  -1 -25    3.27    1.37
   1   1 -25    1.43    1.80
  -1   1  24    8.87    3.37
  -1  -1  24    2.44    1.81
  -1   1  24    9.12    3.36
  -1  -1  24   13.51    4.24
   1  -1 -24    6.42    6.32
   1   1 -24   17.11    5.47
   1  -1 -24    9.40    2.67
   1   1 -24   15.62    5.06
  -1   1  23   52.35    5.98
  -1  -1  23   33.32    8.21
  -1   1  23   65.54   13.49
  -1  -1  23   64.43    9.52
   1  -1 -23   55.45    8.18
   1   1 -23   46.57    6.00
   1  -1 -23   32.10    6.74
   1   1 -23   61.36    5.75
  -1   1  22  167.66   13.90
  -1  -1  22  189.18   15.93
  -1   1  22  142.68   17.41
  -1  -1  22  169.99   22.57
   1  -1 -22  161.73   14.27
   1   1 -22  162.70   20.23
   1  -1 -22  161.68   21.73
   1   1 -22  147.14   12.07
  -1   1  21   26.19    5.34
  -1  -1  21   13.94    3.51
  -1   1  21   22.80    5.52
  -1  -1  21   27.42    6.39
   1  -1 -21   16.91    5.39
   1   1 -21   26.04    5.91
   1  -1 -21   26.07    6.61
   1   1 -21   11.51    3.59
  -1   1  20   14.98    4.59
  -1  -1  20   19.17    4.80
   1   1 -20   20.73    3.53
  -1   1  20   17.77    6.21
  -1  -1  20   31.39    7.24
   1  -1 -20   26.16    5.43
   1   1 -20   20.30    5.87
   1  -1 -20   11.31    3.72
   1   1 -20   21.01    4.24
  -1   1  19    5.97    3.66
  -1  -1  19    7.09    3.49
   1   1 -19    0.17    1.25
  -1   1  19    3.21    2.09
  -1  -1  19    6.44    2.09
   1  -1 -19   11.89    4.67
   1   1 -19    6.84    3.36
   1  -1 -19    3.48    1.55
   1   1 -19    9.41    3.41
  -1   1  19    1.80    2.29
  -1   1  18  135.37    8.13
  -1  -1  18  135.08    7.90
   1   1 -18  111.26    6.19
  -1   1  18  104.26    8.71
  -1  -1  18  134.52   19.65
   1  -1 -18  107.97    8.05
   1   1 -18  113.63    7.85
   1  -1 -18  143.25   14.98
   1   1 -18  129.46    7.96
  -1   1  18   95.45   12.78
  -1   1  17    2.91    2.28
  -1  -1  17    5.19    2.30
   1   1 -17    3.73    1.52
  -1   1  17    6.54    2.54
  -1  -1  17   14.06    3.49
   1  -1 -17    5.74    3.41
   1   1 -17   16.60    4.91
   1  -1 -17    3.50    2.35
   1   1 -17   -0.14    2.37
  -1   1  17   -0.01    1.58
  -1   1  16   40.98    5.61
  -1  -1  16   43.04    4.51
   1   1 -16   43.21    4.14
  -1   1  16   46.00   11.65
  -1  -1  16   52.77   10.44
   1  -1 -16   49.24    6.75
   1   1 -16   45.16    5.66
   1  -1 -16   43.64    6.52
   1   1 -16   52.21    5.68
  -1   1  16   37.14    3.97
  -1   1  15   63.97    5.84
  -1  -1  15   51.40    6.31
   1   1 -15   57.08    4.56
  -1   1  15   80.72   11.30
  -1  -1  15   62.81   11.07
   1  -1 -15   57.19    6.05
   1   1 -15   63.78    6.28
   1  -1 -15   58.40    8.28
   1   1 -15   57.08    6.73
  -1   1  15   61.99    5.11
  -1   1  14  342.49   17.39
  -1  -1  14  340.46   14.26
   1   1 -14  328.30   13.50
  -1  -1  14  326.58   20.35
   1  -1 -14  346.44   15.89
   1   1 -14  342.02   15.28
   1  -1 -14  310.76   17.89
   1   1 -14  333.47   15.75
  -1   1  14  296.32   14.29
  -1   1  13  134.45    7.27
  -1  -1  13  144.57    7.09
   1  -1 -13  118.75    8.73
   1   1 -13  130.33    6.21
  -1   1  13  147.14   16.07
  -1  -1  13  159.10   14.23
   1  -1 -13  121.69    7.47
   1   1 -13  145.09   19.14
   1  -1 -13  143.40   14.78
   1   1 -13  138.04   10.07
  -1   1  13  135.51    7.58
  -1  -1  13  118.24    8.98
  -1   1  12  454.16   17.19
  -1  -1  12  441.58   16.16
   1  -1 -12  420.85   15.94
   1   1 -12  429.85   15.50
  -1   1  12  402.66   20.52
  -1  -1  12  463.27   24.64
   1   1 -12  431.93   16.86
   1  -1 -12  440.79   16.03
   1   1 -12  420.90   16.03
  -1   1  12  427.75   19.64
  -1  -1  12  416.03   17.22
  -1   1  11  477.08   17.98
  -1  -1  11  459.02   16.63
   1  -1 -11  463.16   17.00
   1   1 -11  465.88   16.88
  -1   1  11  452.67   21.43
  -1  -1  11  503.14   24.28
   1  -1 -11  469.88   17.86
  -1   1  11  436.50   15.84
   1   1 -11  475.52   17.71
  -1  -1  11  451.66   21.86
  -1   1  10    4.74    2.42
   1  -1 -10    3.25    2.00
  -1  -1  10    1.71    1.71
   1   1 -10    4.62    1.53
  -1   1  10    5.90    1.99
  -1  -1  10    7.50    1.83
   1   1 -10    5.01    3.20
   1  -1 -10   -1.96    2.86
  -1   1  10    6.66    1.99
   1   1 -10    0.60    1.43
   1  -1 -10    2.71    0.89
  -1   1  10    1.17    0.91
   1   1 -10    1.49    2.33
  -1  -1  10    0.73    2.39
  -1   1   9   29.66    4.04
   1  -1  -9   33.13    3.17
  -1  -1   9   37.87    3.13
   1   1  -9   30.68    2.57
  -1   1   9   35.98    5.02
  -1  -1   9   31.99    5.01
   1  -1  -9   36.91    6.71
  -1   1   9   34.84    3.35
   1  -1  -9   40.55    5.63
  -1   1   9   34.89    4.02
  -1  -1   9   28.52    2.92
  -1   1   8  871.88   16.55
  -1  -1   8  880.98   15.60
   1   1  -8  874.76   15.91
  -1   1   8  836.77   19.70
  -1  -1   8  883.80   19.47
   1  -1  -8  858.65   16.64
  -1   1   8  835.79   16.00
   1  -1  -8  872.09   16.14
  -1   1   8  867.95   15.39
   1   1  -8  836.25   16.08
  -1  -1   8  845.38   15.98
   1  -1  -7 1372.66   23.69
  -1  -1   7 1385.78   23.22
   1   1  -7 1400.46   23.33
  -1   1   7 1376.48   24.82
  -1  -1   7 1391.66   24.77
   1  -1  -7 1415.69   25.07
  -1   1   7 1349.60   23.58
   1  -1  -7 1414.41   24.22
  -1   1   7 1377.33   24.50
   1   1  -7 1393.55   24.24
  -1   1   6 1037.83   18.59
   1  -1  -6 1001.54   18.34
  -1  -1   6 1036.69   17.82
  -1   1   6 1030.20   19.02
  -1  -1   6 1042.16   18.98
  -1   1   6  998.00   18.04
  -1   1   6 1012.29   17.41
   1   1  -6 1012.86   18.23
  -1  -1   6 1001.02   18.86
  -1   1   5  170.09    9.88
   1  -1  -5  153.97    8.64
  -1  -1   5  173.03    9.59
  -1   1   5  165.79   11.31
  -1  -1   5  161.72   10.19
   1  -1  -5  155.37    9.17
  -1   1   5  158.15    9.84
   1  -1  -5  155.30    8.70
  -1   1   5  169.26   12.40
   1   1  -5  167.37   10.08
  -1  -1   5  153.24    8.68
   1  -1  -4  185.91   33.31
  -1   1   4  171.09    9.29
  -1  -1   4  188.11   33.72
   1   1  -4  190.79   34.18
   1  -1  -4  194.97    5.88
  -1   1   4  178.91   11.88
   1  -1  -4  183.53   11.11
   1   1  -4  175.65    9.72
   1   1  -3  840.95   14.37
  -1  -1   3  819.63   13.96
  -1   1   3  836.66   14.85
   1  -1  -3  836.48   14.62
  -1   1   3  872.32   14.92
  -1  -1   3  878.22   15.49
   1  -1  -3  859.33   15.46
  -1   1   3  871.12   15.56
  -1   1   3  855.68   14.70
   1   1  -2 1023.07   17.53
  -1   1   2 1027.26   17.50
  -1  -1   2 1002.90   17.12
  -1  -1   2  993.53   16.18
   1  -1  -2  976.40   17.00
  -1   1   2  973.66   16.82
  -1  -1   2  992.95   16.98
   1   1  -1 1075.14   19.09
  -1   1   1 1017.11   17.08
   1  -1  -1 1057.47   17.63
  -1  -1   1 1064.37   17.97
   1   1  -1 1069.90   17.98
  -1  -1   1 1109.29   17.55
   1  -1  -1 1062.31   18.08
  -1   1   1 1055.51   17.82
   1   1  -1 1054.48   17.73
  -1  -1   1 1085.58   18.08
   1   1   0  103.47    5.84
  -1  -1   0   96.33    5.47
  -1   1   0   93.57    5.22
   1  -1   0  103.78    5.66
  -1  -1   0  110.54    6.27
   1   1   0  119.70   11.11
   1  -1   0  106.06    6.14
  -1   1   0  110.98    6.15
  -1  -1   0  107.68    5.52
  -1  -1   0  103.19    7.49
  -1  -1  -1  933.28   15.97
  -1   1  -1  919.13   15.19
  -1   1  -1  915.97   14.72
  -1  -1  -1  929.83   16.23
   1  -1   1  929.66   16.05
  -1   1  -1  936.26   16.05
  -1  -1  -1  949.70   15.28
   1   1   1  947.81   15.66
  -1  -1  -1  921.99   15.19
   1   1   2  249.54    9.99
  -1  -1  -2  239.39    5.45
  -1   1  -2  223.03    4.42
   1  -1   2  229.31    4.46
  -1   1  -2  225.25    4.47
   1  -1   2  252.46    5.81
  -1   1  -2  221.49    5.38
  -1  -1  -2  224.39    5.14
  -1  -1  -2  234.86    4.46
  -1  -1  -3   10.61    1.65
  -1   1  -3   12.13    1.59
   1  -1   3    8.76    1.87
  -1   1  -3   11.36    2.62
  -1  -1  -3   11.21    1.39
   1   1   3   10.85    1.66
   1   1   3   11.36    1.86
  -1  -1  -3   11.67    2.15
  -1   1  -4 1343.82   21.28
   1   1   4 1434.39   24.74
  -1  -1  -4 1418.53   24.02
  -1   1  -4 1384.69   21.96
   1  -1   4 1386.72   24.57
  -1   1  -4 1382.73   23.49
  -1  -1  -4 1469.47   25.05
   1   1   4 1456.94   24.31
  -1  -1  -4 1434.69   22.76
  -1   1  -5  447.06    7.52
  -1   1  -5  446.78   12.18
   1  -1   5  445.36   10.39
  -1   1  -5  461.31   11.09
  -1  -1  -5  460.63    9.65
   1   1   5  480.11    9.54
  -1  -1  -5  462.48    7.98
  -1   1  -5  450.50    9.61
   1  -1   6  861.41   13.84
   1   1   6  878.00   16.22
  -1   1  -6  824.10   13.38
  -1  -1  -6  841.38   15.57
  -1  -1  -6  926.52   17.28
   1  -1   6  885.41   19.03
  -1   1  -6  845.23   15.70
  -1  -1  -6  899.90   16.81
   1   1   6  887.98   16.06
  -1  -1  -6  853.46   13.79
   1  -1   7 1671.53   26.43
   1   1   7 1706.99   29.43
  -1  -1  -7 1653.36   28.33
  -1   1  -7 1652.55   26.23
  -1  -1  -7 1660.45   29.46
   1  -1   7 1626.81   29.02
  -1   1  -7 1609.24   27.83
  -1  -1  -7 1725.04   29.59
   1   1   7 1667.77   28.39
  -1  -1  -7 1664.10   26.37
  -1   1  -7 1606.13   27.74
   1  -1   8    2.14    0.53
   1   1   8    1.79    2.28
  -1  -1  -8    6.74    1.85
  -1   1  -8    0.87    0.62
  -1  -1  -8    2.78    2.21
   1  -1   8    7.73    1.96
   1  -1   8    4.37    1.62
  -1   1  -8    4.13    2.10
  -1  -1  -8    5.71    4.97
   1   1   8    2.18    1.21
  -1  -1  -8    2.62    0.68
  -1   1  -8    3.06    1.94
   1  -1   9 1213.14   20.00
   1   1   9 1223.48   22.80
  -1  -1  -9 1226.99   22.02
  -1   1  -9 1205.41   19.50
  -1  -1  -9 1223.77   23.71
  -1   1  -9 1225.95   22.34
  -1  -1  -9 1281.39   24.99
   1   1   9 1263.38   22.77
  -1   1  -9 1245.60   22.96
  -1  -1  -9 1260.36   20.44
  -1   1  -9 1229.74   22.19
   1  -1  10  274.79    9.72
   1   1  10  284.15   11.59
  -1  -1 -10  277.93   10.85
  -1   1 -10  266.06    9.41
   1  -1  10  287.87   23.34
  -1  -1 -10  284.61   17.25
   1   1  10  257.62   13.17
  -1   1 -10  286.82   11.75
  -1  -1 -10  288.57   10.88
  -1   1 -10  274.33   12.59
   1  -1  11    2.39    1.17
   1   1  11    1.27    1.15
  -1  -1 -11    1.16    1.66
  -1   1 -11    2.26    1.03
   1  -1  11    4.75    2.55
  -1  -1 -11    8.63    4.24
  -1   1 -11    5.69    2.96
  -1  -1 -11    3.43    1.23
  -1   1 -11    6.88    3.46
   1  -1  11    0.63    1.62
   1  -1  12  506.62   17.97
   1   1  12  498.07   18.73
  -1  -1 -12  504.90   18.44
  -1   1 -12  489.47   16.97
   1  -1  12  507.28   20.41
  -1  -1 -12  525.43   20.14
  -1   1 -12  487.81   18.90
  -1  -1 -12  487.01   17.10
  -1   1 -12  519.09   19.26
   1  -1  12  455.30   16.92
   1  -1  13  819.31   31.25
   1   1  13  828.88   32.72
  -1  -1 -13  790.34   31.12
  -1   1 -13  840.60   31.98
   1  -1  13  881.30   35.97
  -1  -1 -13  862.11   35.02
  -1   1 -13  852.42   34.41
  -1  -1 -13  801.65   30.88
  -1   1 -13  907.08   35.59
   1  -1  13  801.93   31.45
   1  -1  14  357.20   14.42
   1   1  14  338.18   20.90
  -1  -1 -14  338.82   14.32
  -1   1 -14  379.01   14.89
   1  -1  14  371.41   20.70
  -1  -1 -14  376.37   32.73
  -1   1 -14  369.60   17.83
  -1  -1 -14  352.59   14.05
  -1   1 -14  372.35   15.80
   1  -1  14  354.68   15.05
   1  -1  15  523.71   18.15
   1   1  15  538.71   19.42
  -1  -1 -15  512.62   18.08
  -1   1 -15  510.24   16.90
   1  -1  15  527.05   32.29
  -1  -1 -15  612.95   22.35
  -1   1 -15  517.20   19.67
  -1  -1 -15  523.51   17.66
  -1   1 -15  519.97   18.71
   1  -1  15  492.16   17.59
   1  -1  16    0.32    0.69
   1   1  16   18.19    4.92
  -1  -1 -16    3.35    1.47
  -1   1 -16    3.40    0.93
   1  -1  16    3.81    3.17
  -1  -1 -16    4.88    2.49
  -1   1 -16    4.02    3.61
  -1  -1 -16    5.38    1.57
  -1   1 -16    3.67    2.02
   1  -1  17   15.17    3.29
   1   1  17   17.46    4.22
  -1   1 -17   14.03    2.81
   1  -1  17   20.38    5.51
  -1  -1 -17   20.31    4.72
  -1   1 -17   17.82    4.98
  -1  -1 -17   18.11    3.85
  -1   1 -17   17.31    3.86
   1  -1  18  178.93   16.19
   1   1  18  192.36   19.00
  -1   1 -18  189.01   11.49
   1  -1  18  186.06   18.55
  -1  -1 -18  228.08   15.70
  -1   1 -18  201.42   14.21
  -1  -1 -18  185.31   11.43
  -1   1 -18  183.46   15.35
   1  -1  19  102.06   11.52
   1   1  19  113.42   12.30
  -1   1 -19  107.18    7.04
   1  -1  19  130.98   14.51
  -1  -1 -19  127.50   13.46
  -1   1 -19  131.67   18.52
  -1  -1 -19  120.28    8.98
  -1   1 -19  135.46    9.73
   1  -1  20   36.38    5.95
   1   1  20   31.52    6.26
  -1   1 -20   31.44    4.62
   1  -1  20   41.72    8.05
  -1  -1 -20   46.75    9.84
  -1   1 -20   23.15    6.00
  -1  -1 -20   29.64    5.93
  -1   1 -20   33.38    5.78
   1  -1  21   34.08    7.32
   1   1  21   64.46    6.79
   1  -1  21   47.54   10.00
  -1  -1 -21   43.48   10.58
  -1   1 -21   53.23    8.04
  -1  -1 -21   43.75    7.60
  -1   1 -21   43.26    7.87
   1  -1  22    3.69    1.60
   1   1  22    3.35    1.59
   1  -1  22    6.52    4.11
  -1  -1 -22   15.32    4.54
  -1   1 -22    7.02    4.06
  -1  -1 -22    0.34    0.89
  -1   1 -22    6.62    2.68
   1  -1  23    1.81    0.87
   1   1  23    0.70    1.16
   1  -1  23    5.32    4.08
  -1  -1 -23    1.05    3.86
  -1   1 -23    0.38    3.91
  -1  -1 -23    0.87    0.83
  -1   1 -23    1.69    1.62
   1   1  24   18.36    5.38
   1  -1  24   20.08    7.28
  -1  -1 -24    4.48    4.84
  -1   1 -24    4.93    4.09
  -1   1 -24   11.87    4.17
   1   1  25   14.74    4.15
   1  -1  25   12.29    4.79
  -1  -1 -25   15.18    5.55
  -1   1 -25   11.15    3.69
  -1   1 -25   18.03    5.68
   1   1  26    3.67    2.23
   1  -1  26   11.51    4.08
  -1  -1 -26   26.53    7.60
  -1   1 -26    4.54    4.08
  -1   1 -26    6.33    2.39
   1  -1  27    3.42    2.17
  -1  -1 -27   19.20    6.73
  -1   1 -27    5.49    4.39
   1  -1  28   17.57    5.55
  -1  -1 -28   15.19    5.07
  -1   1 -28   16.10    6.92
   1  -1  29   10.67    3.89
  -1  -1 -29    3.55    5.00
  -1   1 -29    3.06    4.55
   1  -1  30   12.91    6.99
  -1  -1 -30    7.87    5.07
  -1   1 -30    3.24    4.03
  -1  -1 -31    9.78    5.23
  -1   1 -31    5.13    4.84
  -1  -1 -32   12.04    7.41
  -1   1 -32   12.95    6.36
  -1  -2  32   13.20    6.48
   1  -2 -32   10.63    7.90
  -1  -2  31   16.01    6.44
   1  -2 -31   12.49    6.38
   1   2 -31   12.43    5.02
  -1   2  30   11.51    4.58
  -1  -2  30   15.05    5.26
   1  -2 -30    7.03    3.95
   1   2 -30    4.89    3.70
   1   2 -30    3.55    3.39
  -1   2  29    0.83    2.73
  -1  -2  29   10.27    4.25
   1  -2 -29    5.89    2.75
   1   2 -29   -1.16    4.04
   1   2 -29   10.14    4.41
  -1   2  28    1.96    2.94
  -1  -2  28   13.21    4.65
   1  -2 -28   12.35    3.72
   1   2 -28    1.70    4.48
   1   2 -28    4.21    2.47
  -1   2  27   13.42    6.48
  -1  -2  27   29.76    7.21
   1  -2 -27   54.58   10.78
   1   2 -27   41.33   10.20
   1   2 -27   41.97    8.74
  -1   2  26    6.64    4.01
  -1  -2  26    3.93    2.15
   1  -2 -26   16.41    5.29
   1   2 -26    6.26    3.60
   1   2 -26    2.74    2.61
  -1   2  25    8.50    3.84
  -1  -2  25    4.63    2.14
  -1  -2  25   -1.30    3.74
   1  -2 -25    6.93    4.32
   1   2 -25   19.13    6.59
   1  -2 -25    0.26    0.52
   1   2 -25    9.42    4.58
  -1   2  24   34.18    7.79
  -1  -2  24   26.52    6.13
  -1  -2  24   44.57   10.15
   1  -2 -24   41.99    7.59
   1   2 -24   31.20    9.14
   1  -2 -24   33.20    9.12
   1   2 -24   49.77    7.13
  -1   2  23   44.04    7.86
  -1  -2  23   41.04    7.86
  -1  -2  23   83.06   10.70
   1  -2 -23   48.65    8.03
   1   2 -23   44.75    7.69
   1  -2 -23   33.75    7.81
   1   2 -23   50.89    5.47
  -1   2  22    4.95    2.95
  -1  -2  22    6.45    1.82
  -1  -2  22   12.10    4.53
   1  -2 -22   16.03    7.07
   1   2 -22    5.76    3.72
   1  -2 -22   11.48    3.47
   1   2 -22    8.27    3.21
  -1   2  21   22.50    5.45
  -1  -2  21   26.56    5.31
  -1  -2  21   26.33    9.62
   1  -2 -21   15.21    5.98
   1   2 -21   14.55    5.24
   1  -2 -21   18.52    5.79
   1   2 -21   12.73    4.41
  -1   2  21    7.01    2.45
  -1   2  20    8.38    3.96
  -1  -2  20    7.76    2.80
  -1  -2  20   10.74    3.59
   1  -2 -20    1.09    3.71
   1   2 -20    3.91    3.41
   1  -2 -20   11.29    2.94
   1   2 -20    3.11    1.76
  -1   2  20    1.69    0.72
  -1   2  19   65.61    8.99
  -1  -2  19   64.85    8.13
  -1  -2  19   67.80   11.66
   1  -2 -19   53.08    8.27
   1   2 -19   77.20   10.61
   1  -2 -19   58.41   11.08
   1   2 -19   63.71    9.21
  -1   2  19   42.86    7.09
  -1   2  18   51.69    9.23
  -1  -2  18   37.39    5.33
  -1  -2  18   35.33    7.04
   1  -2 -18   28.66    5.38
   1   2 -18   39.95    6.90
   1  -2 -18   31.52    6.75
   1   2 -18   41.43    6.44
  -1   2  18   29.74    4.50
  -1   2  17  443.16   21.38
  -1  -2  17  431.08   19.64
  -1   2  17  457.79   22.43
  -1  -2  17  409.68   28.12
   1  -2 -17  444.27   29.13
   1   2 -17  430.08   21.18
   1  -2 -17  431.04   19.98
   1   2 -17  414.60   24.97
  -1   2  17  399.54   18.62
  -1   2  16   33.86    5.47
  -1  -2  16   47.52    5.36
  -1   2  16   49.16    6.21
  -1  -2  16   39.45    8.12
   1  -2 -16   37.54    5.70
   1   2 -16   46.34    9.62
   1  -2 -16   41.14    5.87
   1   2 -16   57.98    8.81
  -1   2  16   37.12    4.36
  -1   2  15   97.53    9.36
  -1  -2  15   69.74    6.07
  -1   2  15  100.63    9.69
  -1  -2  15   83.89   18.87
   1  -2 -15   83.49    8.79
   1   2 -15   78.51    8.65
   1  -2 -15   74.82   10.81
   1   2 -15   80.93   11.74
  -1   2  15   71.20    6.85
  -1   2  14   -0.20    2.67
  -1  -2  14    0.31    1.37
  -1   2  14   13.43    4.64
  -1  -2  14   10.00    3.23
   1  -2 -14   11.07    5.34
   1   2 -14    0.90    2.82
   1  -2 -14    4.84    1.67
  -1   2  14    3.46    1.99
   1   2 -14    3.39    2.58
  -1   2  13   47.50    5.58
  -1  -2  13   44.60    3.78
  -1  -2  13   49.28    7.76
   1  -2 -13   50.26    9.01
   1   2 -13   41.70    4.67
   1  -2 -13   47.54    6.72
  -1   2  13   47.44    5.01
   1   2 -13   43.30    5.47
  -1  -2  12  150.95   13.24
  -1   2  12  184.35   15.62
  -1  -2  12  161.33   11.18
   1  -2 -12  175.10   13.08
   1   2 -12  173.85   14.72
   1  -2 -12  170.17   11.69
  -1   2  12  181.38   14.71
   1   2 -12  174.33   13.22
  -1  -2  11  324.08   13.56
  -1   2  11  365.19   14.80
  -1  -2  11  334.29   12.30
   1  -2 -11  314.80   13.16
   1   2 -11  314.13   12.78
   1  -2 -11  345.26   12.85
  -1   2  11  332.24   12.51
  -1  -2  10    6.87    1.68
  -1   2  10    7.58    3.21
   1  -2 -10    7.14    2.49
  -1  -2  10    2.57    1.44
   1  -2 -10    5.19    2.02
   1   2 -10    3.69    1.22
   1  -2 -10   15.66    5.13
   1   2 -10    7.05    2.96
   1  -2 -10    3.15    1.11
  -1   2  10   12.56    3.08
   1   2 -10   10.40    4.55
  -1  -2  10    3.78    2.06
  -1  -2   9  112.37   10.04
  -1  -2   9  128.11    7.31
   1  -2  -9  110.95    8.53
   1   2  -9  112.29    7.20
   1   2  -9  114.53    9.22
   1  -2  -9  110.83   14.33
  -1   2   9  109.15    9.23
   1   2  -9  114.12    8.85
   1  -2  -9  133.17    8.28
  -1   2   9  121.37    9.20
   1   2  -9  136.40    9.07
  -1  -2   9  109.46   11.50
  -1  -2   8    3.52    0.88
  -1   2   8    5.78    2.88
   1  -2  -8   -1.77    1.98
  -1  -2   8    2.46    1.47
   1  -2  -8    4.18    1.79
  -1  -2   8   10.77    3.27
   1   2  -8    3.84    1.57
   1   2  -8    4.99    1.18
   1  -2  -8    5.21    3.03
  -1   2   8    1.93    2.70
   1   2  -8    7.12    3.43
  -1   2   8    0.19    0.82
   1   2  -8    5.32    2.88
  -1  -2   8    3.72    2.30
  -1  -2   7  189.03   34.94
   1  -2  -7  187.78   33.73
   1  -2  -7  188.88   34.20
  -1  -2   7  208.59    7.26
   1   2  -7  194.92    6.02
   1   2  -7  179.77   19.08
   1  -2  -7  151.57    9.72
  -1   2   7  164.60    9.79
  -1   2   7  195.89    9.62
   1   2  -7  185.74   33.46
   1   2  -6   18.37    2.48
  -1  -2   6   15.12    3.73
  -1   2   6   21.85    4.31
   1  -2  -6   15.60    3.46
   1  -2  -6   18.42    3.01
  -1  -2   6    9.29    3.08
   1   2  -6   13.66    3.15
   1   2  -6   14.57    3.64
   1  -2  -6   10.21    2.42
  -1   2   6   13.03    3.27
  -1   2   6   23.41    3.48
   1   2  -6   18.64    3.43
  -1  -2   6   13.82    3.86
   1   2  -5  260.99    6.32
  -1  -2   5  265.45   13.43
   1  -2  -5  247.66    6.49
   1  -2  -5  248.85    7.33
  -1  -2   5  229.57    7.04
   1   2  -5  244.77    6.62
   1   2  -5  258.94    8.72
   1  -2  -5  203.82    9.41
  -1   2   5  252.65    5.92
   1   2  -5  266.89   10.32
  -1  -2   5  237.65    6.60
  -1  -2   4   89.38    9.07
  -1   2   4   78.91    5.57
   1  -2  -4   87.59    5.58
  -1  -2   4   99.30    6.97
   1   2  -4   87.51    5.68
   1   2  -4   91.57    9.00
   1  -2  -4   71.69    5.54
  -1   2   4   72.77    5.22
   1   2  -4   87.42    8.14
  -1  -2   4   92.30    6.95
   1   2  -3 1359.62   23.45
  -1  -2   3 1307.97   22.29
  -1   2   3 1362.03   23.74
   1  -2  -3 1306.65   22.58
  -1  -2   3 1379.86   24.19
   1   2  -3 1324.17   22.89
   1   2  -3 1294.81   22.42
   1   2  -3 1361.09   26.12
  -1  -2   3 1299.89   22.56
   1   2  -2  138.98   14.82
  -1   2   2  113.04    8.40
  -1  -2   2   99.22    6.45
   1   2  -2  115.19    7.24
   1  -2  -2  119.55   10.03
   1   2  -2  112.86    6.41
   1  -2  -2  104.51    7.64
  -1   2   2   85.31    5.69
  -1  -2   2  120.24    7.14
   1   2  -1    6.59    1.98
  -1   2   1    7.80    2.45
   1  -2  -1   10.27    1.91
  -1  -2   1    5.91    2.60
   1   2  -1    5.42    1.69
   1  -2  -1    4.94    1.98
   1   2  -1    3.80    1.19
   1  -2  -1    5.42    2.57
  -1   2   1    3.18    2.47
   1   2  -1    8.44    1.66
  -1  -2   1    3.48    1.98
   1   2   0  155.05    9.24
  -1  -2   0  165.73   15.02
  -1   2   0  149.49    8.58
   1  -2   0  134.79    7.27
  -1  -2   0  135.51    8.20
  -1   2   0  135.44    7.29
   1   2   0  138.10    8.00
   1  -2   0  149.15   10.06
  -1   2   0  132.67    7.78
   1   2   0  157.02    8.40
  -1  -2   0  162.29    8.92
   1   2   1   57.05    5.14
  -1   2  -1   41.29    3.36
   1  -2   1   37.90    3.07
   1  -2   1   41.33    2.94
  -1   2  -1   37.31    2.66
  -1  -2  -1   36.77    3.99
   1   2   1   34.36    3.31
   1  -2   1   34.43    3.42
  -1   2  -1   41.67    4.16
   1   2   1   41.22    3.05
   1   2   1   59.13    6.20
   1   2   2    1.86    2.68
  -1  -2  -2    2.06    1.41
  -1   2  -2    5.07    1.38
   1  -2   2   -1.24    1.23
   1  -2   2    3.12    2.34
  -1   2  -2    3.49    1.44
  -1  -2  -2    0.59    3.01
   1  -2   2    3.64    2.93
  -1   2  -2    3.54    2.19
   1   2   2    3.45    0.92
   1   2   2    4.69    1.99
  -1  -2  -2    2.44    1.63
  -1  -2  -3 4938.53   79.19
  -1   2  -3 5131.80  911.87
   1  -2   3 5155.12  916.03
   1  -2   3 5129.29  911.48
  -1   2  -3 5022.22   79.18
   1  -2   3 5103.11  906.95
  -1   2  -3 4995.95   79.62
   1   2   3 5206.57  925.23
   1   2   3 5173.22  919.22
  -1  -2  -3 5135.37  912.50
  -1   2  -3 4972.19   79.62
  -1  -2  -4  263.15    7.18
  -1   2  -4  255.96    5.10
   1  -2   4  258.02    4.87
   1  -2   4  261.92    6.15
  -1   2  -4  266.89    6.33
   1  -2   4  281.72   11.13
  -1   2  -4  259.28   15.96
   1   2   4  266.06    6.34
   1   2   4  271.66    5.85
  -1  -2  -4  272.80    5.66
  -1   2  -4  264.15    7.75
   1   2   6    3.23    1.55
  -1   2  -6    1.68    0.69
  -1  -2  -6    2.65    2.18
   1  -2   6    2.68    1.74
  -1   2  -6    1.57    1.59
   1  -2   6    4.35    2.15
  -1   2  -6    7.03    1.21
  -1  -2  -6   -0.91    2.12
   1   2   6    2.57    2.28
  -1   2  -6    7.94    4.44
   1   2   7   11.72    3.39
  -1  -2  -7    4.76    1.66
   1  -2   7    4.84    2.28
  -1   2  -7    5.13    1.66
   1  -2   7   10.88    3.12
  -1   2  -7    4.41    1.73
   1   2   7    3.57    1.60
  -1   2  -7    9.12    2.69
   1   2   8    7.26    2.62
  -1  -2  -8    6.80    2.26
   1  -2   8    4.57    2.25
  -1   2  -8    7.36    2.92
   1  -2   8    4.41    2.90
  -1   2  -8    0.08    0.89
  -1  -2  -8    2.93    1.32
   1   2   8    3.94    2.55
   1   2   9 1439.53  112.65
  -1  -2  -9 1334.87   46.17
   1  -2   9 1386.94   48.30
  -1   2  -9 1364.44   46.93
   1  -2   9 1119.81   41.13
   1   2   9 1406.94  109.74
  -1   2  -9 1458.90  113.94
   1   2  10   72.86    7.16
  -1  -2 -10   61.79    6.22
   1  -2  10   92.99   13.41
  -1   2 -10   73.39    6.33
   1  -2  10   82.54   14.33
  -1   2 -10   84.97    7.41
   1  -2  10   82.95    6.87
   1   2  11  595.84   26.23
  -1  -2 -11  511.28   19.14
   1  -2  11  541.33   20.73
  -1   2 -11  549.33   26.75
   1  -2  11  503.11   18.85
   1   2  12   11.69    3.82
   1  -2  12   20.64    4.05
   1  -2  12   14.49    3.11
  -1  -2 -12   12.94    3.29
  -1   2 -12   14.16    3.10
   1   2  13  296.01   13.92
   1  -2  13  302.69   18.99
  -1  -2 -13  321.77   14.87
  -1   2 -13  323.98   15.28
  -1   2 -13  299.36   13.85
   1   2  14    3.87    2.33
   1  -2  14    2.46    1.48
  -1  -2 -14    6.06    3.41
  -1   2 -14    6.19    3.36
  -1   2 -14    6.36    2.66
   1   2  15   37.54    5.94
   1  -2  15   14.06    3.18
  -1  -2 -15   16.65    4.60
  -1   2 -15   25.95    5.85
  -1  -2 -15   14.66    2.90
  -1   2 -15   25.30    6.59
   1   2  16   11.70    3.64
   1  -2  16    5.20    4.17
  -1  -2 -16    9.72    4.45
  -1   2 -16    7.69    2.98
  -1  -2 -16    2.10    0.76
  -1   2 -16    4.61    4.04
   1  -2  17  101.90    5.02
   1   2  17  133.51   15.36
   1  -2  17  112.34   13.51
  -1  -2 -17  100.94   13.33
  -1   2 -17  132.65   12.78
  -1  -2 -17  106.64    6.04
  -1   2 -17  123.48   10.89
   1  -2  18    3.54    0.93
   1   2  18   10.39    4.27
   1  -2  18   25.62    6.19
  -1  -2 -18   11.68    5.81
  -1   2 -18    7.81    3.31
  -1  -2 -18    6.79    1.55
  -1   2 -18    6.48    2.97
   1  -2  19  138.18    8.58
   1   2  19  149.38   17.39
   1  -2  19  134.13   19.50
  -1  -2 -19  156.12   15.58
  -1   2 -19  155.64   12.21
  -1  -2 -19  136.50    9.12
  -1   2 -19  166.48   15.17
   1  -2  20    1.61    0.52
   1   2  20   11.60    5.04
   1  -2  20    4.84    3.69
  -1  -2 -20   -0.08    3.49
  -1   2 -20   11.27    6.05
  -1  -2 -20    3.75    1.09
  -1   2 -20    6.35    3.49
   1  -2  21   15.54    3.61
   1   2  21   41.31    9.70
   1  -2  21   41.82    9.21
  -1  -2 -21   39.71    7.90
  -1   2 -21   34.51    7.29
  -1  -2 -21   19.44    4.56
  -1   2 -21   54.03    6.96
   1   2  22    5.98    3.43
   1  -2  22    4.28    2.92
  -1  -2 -22    1.02    3.74
  -1   2 -22    9.58    4.48
  -1   2 -22    4.19    1.23
   1   2  23   60.23   10.53
   1  -2  23   48.85    9.00
  -1  -2 -23   45.84    7.13
  -1   2 -23   43.88    7.38
  -1   2 -23   62.57    6.94
   1   2  24   17.69    5.23
   1  -2  24   18.79    6.09
  -1  -2 -24    5.52    4.54
  -1   2 -24   -1.00    4.11
  -1   2 -24    5.25    2.62
   1   2  25  121.35   14.43
   1  -2  25   86.60   17.14
  -1  -2 -25   99.13   13.24
  -1   2 -25   93.42   12.46
  -1   2 -25   70.88   16.55
   1   2  26    1.32    3.18
   1  -2  26   11.52    4.44
  -1  -2 -26   13.58    6.53
  -1   2 -26    6.84    4.38
  -1   2 -26    3.02    2.85
   1   2  27    9.54    3.78
   1  -2  27    6.47    3.08
  -1  -2 -27   25.86    5.77
  -1   2 -27   12.31    5.40
  -1   2 -27    0.95    2.25
   1   2  28    0.79    1.00
   1  -2  28   -4.00    3.46
  -1  -2 -28    1.51    4.09
  -1   2 -28    5.66    6.43
  -1   2 -28    1.78    1.60
   1  -2  29   28.06   11.65
  -1  -2 -29   39.36   14.15
  -1   2 -29   80.28    9.84
   1  -2  30   12.84    5.32
  -1  -2 -30    9.89    6.72
  -1   2 -30    5.49    5.18
   1  -2  31   18.27    8.98
  -1  -2 -31   16.15    6.10
  -1   2 -31    6.82    5.35
   1  -2  32    9.09    3.38
  -1  -2 -32    6.72    5.34
  -1   2 -32   13.64    7.77
   1  -3 -32    9.29    6.29
   1   3 -32    5.83    4.46
  -1   3  31    8.46    3.79
   1  -3 -31   -5.83    5.12
   1   3 -31   10.48    5.70
   1   3 -31   13.49    5.64
  -1   3  30   25.03   10.42
   1  -3 -30   46.85   13.44
   1   3 -30   37.04   11.64
   1   3 -30   50.84    7.11
  -1   3  29    3.93    3.50
   1  -3 -29    8.46    5.24
   1   3 -29   17.33    6.34
   1   3 -29   16.02    4.90
  -1   3  28   64.61   11.98
   1  -3 -28   63.63   13.46
   1   3 -28   37.23   12.31
   1   3 -28   70.41   20.39
  -1   3  27    7.84    4.71
   1  -3 -27   18.11    5.20
   1   3 -27   24.34    6.55
   1   3 -27    6.08    3.54
  -1   3  26   16.73    6.49
  -1  -3  26    7.64    4.59
   1  -3 -26    4.38    4.29
   1   3 -26    8.18    4.51
   1   3 -26   14.22    5.78
  -1   3  25   28.51    6.04
   1  -3 -25   46.25    9.81
   1   3 -25   31.35    7.95
   1   3 -25   24.43    6.50
  -1   3  24   12.22    5.50
   1  -3 -24    2.80    4.72
   1   3 -24   27.71    6.08
   1   3 -24   23.48    6.58
  -1   3  23    7.86    3.51
  -1  -3  23   14.00    3.49
  -1  -3  23   32.16    8.29
   1  -3 -23   23.89    7.37
   1   3 -23   32.88    7.86
   1   3 -23   45.99    6.95
  -1   3  22   42.63    8.35
  -1  -3  22   48.78    4.08
   1  -3 -22   30.73    8.15
   1   3 -22   45.54    6.37
   1   3 -22   33.26    6.45
  -1   3  21   -2.97    2.74
  -1  -3  21    6.49    2.42
  -1  -3  21   10.42    4.47
   1  -3 -21    5.64    4.55
   1   3 -21    8.17    5.12
   1   3 -21    6.40    5.10
  -1  -3  20   36.64    8.85
  -1   3  20   74.91    7.90
  -1  -3  20   80.74    6.64
  -1  -3  20   63.85   10.07
   1  -3 -20   71.08    8.83
   1   3 -20   75.81   10.65
   1   3 -20   61.70   12.87
  -1   3  20   48.61    9.74
  -1  -3  19    2.26    1.18
  -1   3  19   12.42    5.27
  -1  -3  19    4.08    2.07
  -1  -3  19   10.97    3.95
   1  -3 -19   17.60    6.88
   1   3 -19   12.01    5.19
   1   3 -19    6.24    2.31
  -1   3  19    3.69    1.54
  -1  -3  18   29.05    6.23
  -1   3  18   66.86   10.60
  -1  -3  18   46.71    6.09
  -1  -3  18   66.62   10.73
   1  -3 -18   56.39    9.57
   1   3 -18   37.74    6.86
   1   3 -18   44.89   11.57
  -1   3  18   25.85    6.44
  -1  -3  17    9.20    2.44
  -1   3  17   21.72    5.46
  -1  -3  17   20.90    4.23
  -1  -3  17   21.92    5.74
   1  -3 -17    6.84    3.34
   1   3 -17   11.20    4.10
  -1   3  17   12.52    2.82
   1   3 -17   17.60    4.66
  -1  -3  16    7.54    2.35
  -1   3  16    9.02    3.79
  -1  -3  16    7.34    2.48
  -1  -3  16   12.90    4.18
   1  -3 -16   18.65    5.65
   1   3 -16    4.07    2.21
  -1   3  16   10.59    2.44
   1   3 -16    3.25    3.19
  -1  -3  15    4.71    1.45
  -1   3  15   13.74    5.50
  -1  -3  15    2.90    1.61
  -1  -3  15    3.40    3.73
   1  -3 -15    8.48    3.73
   1   3 -15    4.75    3.01
  -1   3  15    3.89    1.59
   1   3 -15    2.18    3.09
  -1  -3  14  210.23    8.18
  -1   3  14  224.48   10.52
  -1  -3  14  237.42    8.78
  -1  -3  14  231.66   31.69
   1  -3 -14  238.09   11.43
   1   3 -14  240.26   10.72
  -1   3  14  223.42    8.37
   1   3 -14  226.67   10.67
  -1  -3  13    4.70    0.96
  -1   3  13    9.40    3.58
  -1  -3  13    2.79    0.56
  -1  -3  13    3.88    3.89
   1  -3 -13    7.75    2.33
   1   3 -13    9.18    2.54
  -1   3  13    3.42    1.36
   1   3 -13    2.49    3.28
  -1  -3  12  200.64   13.14
  -1   3  12  236.90   11.84
  -1  -3  12  225.25    9.45
  -1  -3  12  195.60   10.76
   1  -3 -12  211.92   11.45
   1   3 -12  209.95   10.39
  -1   3  12  204.35   13.34
   1   3 -12  231.51   11.89
  -1  -3  11    2.59    1.04
  -1  -3  11    5.05    1.44
  -1  -3  11   13.03    3.41
  -1  -3  11    6.30    1.66
   1  -3 -11    6.92    3.34
  -1   3  11    9.02    1.39
   1   3 -11   -0.51    2.68
  -1  -3  10    1.85    1.46
  -1   3  10    2.75    2.91
  -1  -3  10    3.84    1.93
  -1  -3  10    0.52    3.08
  -1  -3  10    3.23    1.75
   1  -3 -10   -1.40    2.91
  -1   3  10    2.62    0.87
   1   3 -10    5.85    2.75
  -1  -3   9   36.78    5.03
  -1   3   9   34.79    4.48
   1  -3  -9   36.49    5.42
  -1  -3   9   42.65    5.57
  -1  -3   9   47.55    7.11
   1   3  -9   38.97    6.39
   1  -3  -9   33.00    4.22
  -1   3   9   37.14    4.64
   1   3  -9   49.22    5.35
   1   3  -8  705.75   25.12
  -1  -3   8  716.83   24.97
  -1   3   8  727.60   26.68
   1  -3  -8  687.03   24.89
  -1  -3   8  724.43   26.30
   1   3  -8  653.85   24.82
   1  -3  -8  728.20   30.78
  -1   3   8  691.53   24.23
   1   3  -8  756.61   27.71
   1   3  -7   67.72    8.88
  -1  -3   7   55.04    6.10
   1  -3  -7   67.64    6.07
  -1  -3   7   61.95    6.03
   1   3  -7   61.23    5.37
  -1  -3   7   62.05   10.08
   1   3  -7   62.48    8.86
   1  -3  -7   68.93   10.19
  -1   3   7   66.75    6.23
  -1   3   7   55.90    4.42
   1   3  -7   47.91    5.59
   1   3  -6  691.04   13.22
  -1  -3   6  706.35   23.07
  -1   3   6  659.09   14.42
   1  -3  -6  631.43   13.33
  -1  -3   6  709.47   14.98
   1   3  -6  677.54   13.94
  -1  -3   6  702.93   17.67
   1   3  -6  669.49   14.40
   1  -3  -6  690.00   15.39
  -1   3   6  668.01   14.55
   1   3  -6  626.51   14.20
  -1  -3   6  665.60   14.03
   1   3  -5  121.77    8.60
  -1  -3   5  119.58   12.78
  -1   3   5  107.63    7.34
  -1  -3   5  126.99    8.19
   1   3  -5  130.29    7.91
  -1  -3   5  150.41   10.79
   1   3  -5  128.89    7.63
   1  -3  -5  107.94    7.23
  -1   3   5  114.85   10.01
  -1  -3   5  128.81   13.09
   1   3  -4    6.14    2.14
  -1  -3   4    6.57    1.95
  -1   3   4    0.80    2.53
   1  -3  -4    2.70    1.52
  -1  -3   4    2.23    2.73
   1   3  -4    0.81    2.10
  -1  -3   4    6.68    1.76
   1   3  -4    5.65    2.51
   1  -3  -4    4.58    3.05
  -1   3   4    1.22    2.26
   1   3  -4   -0.78    2.80
  -1  -3   4    5.07    2.47
  -1  -3   3   14.40    3.46
  -1   3   3    7.83    2.79
   1  -3  -3    6.76    1.57
  -1  -3   3   12.94    3.94
   1   3  -3    7.87    1.94
   1  -3  -3   11.68    2.39
  -1  -3   3   15.33    3.50
   1   3  -3    8.44    1.65
   1  -3  -3   15.34    4.67
  -1   3   3   21.26    2.87
  -1  -3   3   18.83    2.80
   1   3  -2  417.22   10.50
  -1  -3   2  391.10    8.68
  -1   3   2  410.08    9.66
  -1  -3   2  408.66    9.96
   1   3  -2  369.42    8.80
   1  -3  -2  393.35    8.70
  -1  -3   2  427.53    9.11
   1   3  -2  393.15    8.56
   1  -3  -2  408.35   10.16
  -1   3   2  396.78    9.56
   1   3  -2  372.21    9.38
  -1  -3   2  418.61    9.54
   1   3  -1   15.61    3.42
  -1   3   1   13.06    4.06
   1  -3  -1   10.96    2.03
  -1  -3   1   18.67    3.21
   1  -3  -1   11.27    1.83
   1   3  -1   11.35    2.27
  -1   3   1   10.15    2.02
  -1  -3   1   11.15    1.83
   1  -3  -1   11.59    2.97
   1   3  -1   13.77    3.13
  -1   3   1   15.33    4.04
   1   3  -1   10.71    1.90
   1   3   0  482.81   10.87
  -1  -3   0  454.91   10.04
   1  -3   0  463.97    9.73
   1  -3   0  466.77    9.50
  -1  -3   0  478.79   11.14
  -1   3   0  469.96    9.42
   1   3   0  444.46   10.11
   1  -3   0  464.00   10.94
  -1  -3   0  457.17   11.88
  -1   3   0  465.47   10.35
   1   3   0  481.39    9.68
   1   3   0  480.90   11.21
  -1  -3   0  467.36    9.80
   1   3   1  106.92   16.34
  -1   3  -1   80.02    6.45
   1  -3   1   78.54    4.98
   1  -3   1   76.87    4.94
  -1   3  -1   87.21    9.16
  -1  -3  -1   98.69    6.79
   1   3   1   82.40    8.32
   1  -3   1   82.98    6.48
  -1   3  -1   79.02    5.48
  -1  -3  -1   97.73    6.13
   1   3   1   93.71    6.00
   1   3   1   87.52    6.15
  -1  -3  -1   84.73    5.40
   1   3   2   28.98    3.26
  -1  -3  -2   25.31    3.06
  -1   3  -2   33.91    3.77
   1  -3   2   25.26    2.42
   1  -3   2   30.36    3.71
  -1   3  -2   21.33    2.10
  -1  -3  -2   24.23    3.51
   1  -3   2   23.33    3.18
  -1   3  -2   17.13    2.64
  -1  -3  -2   24.38    2.60
   1   3   2   25.91    2.81
   1   3   2   19.26    2.74
  -1  -3  -2   21.99    2.50
  -1   3  -2   23.96    3.98
   1   3   3   23.08    3.65
  -1  -3  -3   31.03    3.35
  -1   3  -3   27.07    2.77
   1  -3   3   33.24    3.22
   1  -3   3   31.42    3.19
  -1   3  -3   19.61    2.05
  -1  -3  -3   32.24    3.99
   1  -3   3   25.62    3.55
  -1   3  -3   31.79    3.76
  -1  -3  -3   35.33    3.73
   1   3   3   30.54    3.30
   1   3   3   26.20    2.77
  -1  -3  -3   30.42    2.83
  -1   3  -3   28.22    3.94
  -1  -3  -4  107.24    6.98
  -1   3  -4  141.72   10.04
   1  -3   4  125.70    7.04
   1  -3   4  126.65    7.54
  -1   3  -4  138.07    7.88
  -1  -3  -4  134.57    8.83
   1  -3   4  141.91   15.55
  -1   3  -4  121.87    7.67
  -1  -3  -4  138.37    8.26
   1   3   4  122.23    7.58
   1   3   4  127.06    7.20
  -1  -3  -4  123.30    6.93
  -1   3  -4  140.39   10.93
   1   3   5  104.77    8.54
  -1   3  -5   98.26    5.68
  -1  -3  -5  103.87   15.24
   1  -3   5  110.97    6.13
   1  -3   5   82.57    5.60
  -1   3  -5  106.71    6.45
   1  -3   5  120.77   15.52
  -1  -3  -5  103.68    6.68
   1   3   5  108.18    6.83
   1   3   5  111.82    6.70
  -1   3  -5  106.68    7.87
  -1  -3  -5  103.33    5.79
  -1   3  -6  410.09   14.90
  -1  -3  -6  395.84   15.52
   1  -3   6  434.09   14.94
   1  -3   6  399.67   16.14
  -1   3  -6  409.40   15.12
   1  -3   6  445.40   21.01
  -1  -3  -6  408.01   15.47
   1   3   6  424.44   15.88
   1   3   6  408.99   14.79
  -1   3  -6  423.78   16.82
  -1   3  -7    3.85    1.07
   1   3   7   12.87    4.99
  -1  -3  -7    7.54    2.56
   1  -3   7   -0.33    0.29
   1  -3   7    8.51    3.41
  -1   3  -7    4.16    1.68
   1  -3   7    5.96    2.13
  -1  -3  -7    2.49    2.42
   1   3   7    6.13    2.15
   1   3   7    3.18    1.10
  -1   3  -7    6.68    3.57
  -1   3  -8   26.46    2.63
   1  -3   8   26.62    1.91
   1  -3   8   35.85    4.70
  -1   3  -8   19.91    2.75
   1  -3   8   22.44    5.08
  -1  -3  -8   34.57    6.69
   1   3   8   28.57    4.72
   1   3   8   29.60    2.07
  -1   3  -8   27.06    5.32
   1   3   9  209.05   10.21
   1  -3   9  199.68   16.73
  -1   3  -9  183.01   15.26
   1  -3   9  221.59   13.97
  -1  -3  -9  211.85   18.25
   1   3   9  197.95    8.77
   1   3  10    7.00    1.89
   1  -3  10   11.73    2.61
   1  -3  10    5.43    2.99
  -1  -3 -10    6.37    2.52
  -1   3 -10   13.06    2.63
   1   3  11   40.38    6.41
   1  -3  11   39.28    5.57
   1  -3  11   39.77    6.93
  -1  -3 -11   26.76    3.96
  -1   3 -11   34.66    4.93
   1   3  12  303.23   14.33
   1  -3  12  326.83   20.63
   1  -3  12  301.41   17.89
  -1  -3 -12  320.01   17.73
  -1   3 -12  324.78   15.19
   1   3  13   -0.27    3.39
   1  -3  13    5.04    2.12
   1  -3  13   11.81    3.59
  -1  -3 -13    1.64    1.58
  -1   3 -13    7.26    3.53
   1   3  14  148.30    8.37
   1  -3  14  143.12   21.48
   1  -3  14  171.59   23.62
  -1  -3 -14  146.02    8.01
  -1   3 -14  166.25   11.03
   1   3  15  206.97   26.74
   1  -3  15  167.72   17.59
  -1  -3 -15  179.56   10.81
  -1   3 -15  167.67   14.39
   1   3  16   17.55    5.00
   1  -3  16   19.44    5.05
  -1  -3 -16   30.36    6.07
  -1   3 -16   22.96    5.79
  -1   3 -16   28.36    7.24
   1   3  17   37.29    7.42
   1  -3  17   27.53    8.08
  -1  -3 -17   26.05    6.57
  -1   3 -17   33.45    9.91
  -1   3 -17   31.60    6.77
   1   3  18  189.14   13.72
   1  -3  18  163.98   21.42
  -1  -3 -18  184.82   14.28
  -1   3 -18  184.74   13.49
  -1   3 -18  207.64   14.74
   1  -3  19    9.23    4.49
  -1  -3 -19    8.18    4.62
  -1   3 -19   -0.95    3.25
  -1   3 -19    1.56    2.74
   1   3  20   23.65    5.86
   1  -3  20   27.99    7.09
  -1  -3 -20   13.20    4.66
  -1   3 -20   21.35    5.68
  -1   3 -20   25.48    6.42
   1   3  21   14.68    4.76
   1  -3  21   16.99    4.86
  -1  -3 -21   24.74    6.27
  -1   3 -21    5.33    4.45
  -1   3 -21   22.12    5.75
   1   3  22   22.53    5.77
   1  -3  22   11.92    3.52
  -1  -3 -22   22.58    6.09
  -1   3 -22   29.87    8.29
  -1   3 -22   18.96    5.46
   1   3  23   -0.71    2.99
   1  -3  23    8.07    2.14
  -1  -3 -23    9.24    4.54
  -1   3 -23   11.32    4.77
  -1   3 -23    5.53    3.87
   1   3  24   39.89    8.89
   1  -3  24   41.01    6.97
  -1  -3 -24   66.08   10.95
  -1   3 -24   47.73    8.24
  -1   3 -24   39.43    6.33
   1   3  25    7.84    4.24
   1  -3  25    9.98    3.55
  -1  -3 -25    6.51    5.59
  -1   3 -25   15.26    6.34
  -1   3 -25   10.12    4.11
   1   3  26    7.45    4.03
   1  -3  26   14.07    4.56
  -1  -3 -26    4.55    3.67
  -1   3 -26   20.51    5.94
  -1   3 -26    7.62    3.50
   1   3  27    7.23    3.57
   1  -3  27   18.54    6.03
  -1  -3 -27   14.93    5.10
  -1   3 -27   12.23    6.67
  -1   3 -27    9.31    3.82
   1   3  28    4.59    3.10
   1  -3  28   -0.41    4.01
  -1  -3 -28    2.26    5.05
  -1   3 -28    5.18    4.45
  -1   3 -28    6.24    2.72
   1   3  29    5.06    2.85
   1  -3  29    9.25    5.28
  -1  -3 -29    4.34    2.61
  -1   3 -29   -4.23    4.52
  -1   3 -29    4.41    3.48
   1  -3  30   11.85    4.20
  -1  -3 -30    5.93    6.03
  -1   3 -30    0.34    5.06
   1  -3  31   11.26    4.72
  -1  -3 -31   14.87    6.27
  -1   3 -31   12.59    6.64
  -1   4  31    5.77    3.83
  -1  -4  31   16.31    7.33
   1  -4 -31   33.69   12.01
   1   4 -31    9.96    5.26
   1   4 -31   25.86    8.91
  -1   4  30    4.88    5.03
  -1  -4  30    7.20    3.51
   1  -4 -30   15.61    5.20
   1   4 -30    1.56    3.27
   1   4 -30    8.73    4.12
  -1   4  29   24.42    8.13
  -1  -4  29   14.88    5.50
   1  -4 -29   47.58   14.09
   1   4 -29   32.17   10.13
   1   4 -29   19.41    9.75
  -1   4  28   10.71    5.66
  -1  -4  28    5.04    2.82
   1  -4 -28    1.81    4.77
   1   4 -28   14.43    7.19
  -1   4  27   22.34    7.09
  -1  -4  27   13.72    5.03
   1  -4 -27   18.40    7.46
   1   4 -27    1.34    3.96
   1   4 -27    5.86    4.50
  -1   4  26    6.00    3.28
  -1  -4  26    7.83    6.34
   1  -4 -26    2.52    4.58
   1   4 -26    9.39    4.35
   1   4 -26   11.51    3.70
  -1   4  25   36.54    8.77
  -1  -4  25   11.80    4.63
   1  -4 -25   45.05   12.59
   1   4 -25   18.88    7.14
   1   4 -25   39.06    8.20
  -1   4  24   84.03   23.00
  -1  -4  24  103.18   18.60
   1  -4 -24  115.28   21.16
   1   4 -24  117.21   15.36
   1   4 -24  132.06   16.72
  -1   4  23   22.83    6.04
  -1  -4  23   20.66    5.29
   1  -4 -23   41.86    9.80
   1   4 -23   34.62    7.58
   1   4 -23   10.51    5.42
  -1   4  22   71.59    8.51
  -1  -4  22   40.79    8.23
   1  -4 -22   60.81    8.54
   1   4 -22   49.22    6.77
   1   4 -22   34.83   10.29
  -1   4  21   17.56    6.74
  -1  -4  21    2.84    1.16
  -1  -4  21    7.33    2.82
   1  -4 -21    4.21    4.26
   1   4 -21    6.46    3.99
   1   4 -21   11.99    5.92
  -1   4  20    5.67    3.54
  -1  -4  20    4.54    1.35
  -1  -4  20    2.60    2.72
   1  -4 -20    6.66    2.92
   1   4 -20    6.88    4.08
   1   4 -20    7.69    3.91
  -1   4  19  112.97   10.85
  -1  -4  19   65.37    7.44
  -1  -4  19   89.84   13.92
   1  -4 -19  113.80   12.59
   1   4 -19  104.03   16.73
   1   4 -19   87.70   19.01
  -1  -4  18   72.77   10.64
  -1   4  18  128.29   11.25
  -1  -4  18  122.20    8.03
  -1  -4  18  125.08   16.97
   1  -4 -18  127.90   12.54
   1   4 -18  117.63   15.84
  -1   4  18   69.31    9.78
   1   4 -18  111.71    9.80
  -1  -4  17    7.15    2.14
  -1   4  17   10.02    3.57
  -1  -4  17   12.92    3.15
  -1  -4  17    7.77    4.09
   1  -4 -17   16.20    6.00
   1   4 -17   15.53    5.25
  -1   4  17    6.70    1.70
   1   4 -17   21.88    7.25
  -1  -4  16   54.03    9.58
  -1   4  16   82.93    8.03
  -1  -4  16   77.58    5.45
  -1  -4  16   74.37    9.23
   1  -4 -16   77.47    8.10
   1   4 -16   82.78   13.66
  -1   4  16   56.57    8.07
   1   4 -16   83.97    7.94
  -1  -4  15    2.99    1.22
  -1   4  15    2.21    3.14
  -1  -4  15    4.39    1.88
  -1  -4  15    3.09    3.65
   1  -4 -15   19.08    5.69
   1   4 -15    0.93    2.61
  -1   4  15    7.29    2.45
   1   4 -15    6.83    3.77
  -1  -4  14   10.47    2.56
  -1   4  14   10.23    3.42
  -1  -4  14   13.97    2.87
  -1  -4  14   12.84    4.45
   1  -4 -14   10.00    3.57
   1   4 -14   11.28    3.71
  -1   4  14   14.57    3.37
   1   4 -14   16.65    4.59
  -1  -4  13   27.51    5.56
  -1   4  13   36.57    6.12
  -1  -4  13   31.15    5.31
  -1  -4  13   23.75    5.80
  -1  -4  13   42.98    8.84
   1  -4 -13   26.70    6.02
  -1   4  13   21.02    4.82
   1   4 -13   32.83    4.91
  -1  -4  12   66.93    7.99
  -1   4  12   75.04    8.49
  -1  -4  12   78.59    6.62
  -1  -4  12   92.32    9.33
  -1  -4  12   97.58   15.77
   1  -4 -12   87.52    9.59
  -1   4  12   57.11    8.45
   1   4 -12   78.04    8.36
  -1  -4  11   37.72    3.53
  -1   4  11   45.59    5.66
  -1  -4  11   35.70    5.08
  -1  -4  11   34.59    5.92
   1  -4 -11   53.51    6.66
  -1   4  11   36.30    5.36
   1   4 -11   44.92    6.12
   1   4 -10   46.03    6.43
  -1  -4  10   32.76    3.14
  -1   4  10   53.32    8.83
  -1  -4  10   32.37    4.00
  -1  -4  10   52.68    6.99
   1  -4 -10   57.51    6.47
  -1   4  10   36.66    5.74
   1   4 -10   53.03    6.00
   1   4  -9   74.60    7.79
  -1  -4   9   52.58    7.00
  -1   4   9   68.98    7.72
  -1  -4   9   70.07    6.75
  -1  -4   9   64.95    8.28
   1  -4  -9   92.62    8.16
  -1   4   9   56.99    7.47
   1   4  -9   72.66    7.07
   1   4  -8  234.05   14.33
  -1  -4   8  230.22   12.36
  -1  -4   8  232.92   10.67
  -1  -4   8  236.36   14.17
   1  -4  -8  205.06   10.10
   1   4  -8  236.20   11.04
   1   4  -7  195.70   13.51
  -1  -4   7  179.36   15.79
  -1   4   7  196.12   15.93
  -1  -4   7  172.17   13.02
  -1  -4   7  203.43   15.90
   1   4  -7  161.57   11.59
   1  -4  -7  196.96   10.85
   1   4  -6    6.59    2.21
  -1  -4   6    2.31    0.98
  -1   4   6    0.61    2.22
  -1  -4   6    2.39    3.16
  -1  -4   6    5.02    2.16
   1   4  -6    3.47    2.04
   1  -4  -6    5.50    4.65
   1   4  -6    1.85    3.25
   1   4  -5   34.90    4.66
  -1  -4   5   33.23    3.59
  -1   4   5   33.82    4.88
  -1  -4   5   27.25    4.36
   1  -4  -5   29.41    3.53
  -1  -4   5   22.84    5.41
   1   4  -5   27.08    3.05
   1  -4  -5   41.35    5.76
   1   4  -4  361.04   16.97
  -1  -4   4  364.05   13.93
  -1   4   4  347.96   14.19
  -1  -4   4  371.91   14.95
   1  -4  -4  361.03   14.02
  -1  -4   4  375.51   17.54
   1   4  -4  328.26   12.45
   1  -4  -4  349.30   14.38
   1   4  -4  368.13   19.43
   1   4  -3  319.50   15.70
  -1  -4   3  314.58   12.23
  -1   4   3  331.28   13.61
   1  -4  -3  300.00   12.06
  -1  -4   3  316.74   12.90
   1   4  -3  297.10   11.93
   1  -4  -3  322.68   12.59
  -1  -4   3  333.00   17.80
   1   4  -3  315.54   13.49
   1  -4  -3  313.81   13.36
  -1   4   3  295.94   12.04
   1   4  -2  189.11   12.17
  -1  -4   2  185.07   18.26
  -1   4   2  208.64    9.46
   1  -4  -2  166.05   11.94
  -1  -4   2  189.79    9.13
   1   4  -2  171.52   12.38
   1  -4  -2  186.53    8.00
  -1  -4   2  184.35   15.17
   1   4  -2  184.57   15.05
   1  -4  -2  186.97    9.49
  -1   4   2  186.31   15.60
   1   4  -2  184.64   15.52
  -1  -4   2  182.64   15.17
  -1  -4   1   34.54    3.80
   1  -4  -1   40.18    4.18
  -1  -4   1   45.32    4.91
   1  -4  -1   40.13    4.28
   1   4  -1   38.07    4.22
  -1   4   1   35.17    4.01
  -1  -4   1   38.14    4.27
   1  -4  -1   43.27    5.19
   1   4  -1   42.71    3.88
  -1   4   1   52.74    5.15
   1   4  -1   46.43    5.29
  -1  -4   1   56.64    5.29
  -1   4   1   46.98    5.65
   1   4   0   97.27   14.85
  -1  -4   0   79.84    6.79
  -1   4   0   73.42    6.44
   1  -4   0   73.64    6.09
   1  -4   0   76.69    6.17
  -1  -4   0   72.75    6.58
  -1   4   0   80.16    9.60
   1   4   0   81.06    6.68
   1  -4   0   84.23    7.72
  -1  -4   0   96.79   13.45
  -1   4   0   81.38    6.73
   1   4   0   74.94    5.96
   1   4   0   89.03    7.26
  -1  -4   0   80.14    6.55
   1   4   1   29.27    4.16
  -1   4  -1   31.84    3.65
   1  -4   1   26.35    3.37
   1  -4   1   37.51    3.89
  -1  -4  -1   26.71    4.12
  -1   4  -1   40.47    4.03
   1   4   1   23.48    4.13
   1  -4   1   43.19    5.05
  -1  -4  -1   35.41    4.30
  -1   4  -1   31.00    3.89
   1   4   1   29.45    3.17
   1   4   1   25.03    3.13
  -1  -4  -1   30.48    3.73
  -1   4  -1   25.47    3.74
   1   4   2  165.14   14.63
  -1  -4  -2  123.85    9.49
  -1   4  -2  178.44   15.12
   1  -4   2  150.28   10.63
   1  -4   2  154.14   11.04
  -1   4  -2  153.43   11.02
  -1  -4  -2  154.79   11.91
   1   4   2  137.05   15.51
   1  -4   2  163.44   12.34
  -1   4  -2  170.65   12.48
  -1  -4  -2  151.73   11.07
   1   4   2  152.26   10.91
   1   4   2  155.49   11.11
  -1  -4  -2  173.54   12.17
   1   4   3   84.53    7.34
  -1   4  -3   89.07    8.41
   1  -4   3   92.61    7.08
   1  -4   3   86.40    6.80
  -1   4  -3   90.74    6.82
  -1  -4  -3   85.71    8.73
   1  -4   3  104.42    8.84
  -1  -4  -3   75.50    6.52
   1   4   3   74.51    6.04
   1   4   3   85.27    6.90
  -1   4  -3   87.92    8.04
  -1  -4  -3   77.42    8.61
   1   4   4  408.99   16.36
  -1   4  -4  420.47   15.76
   1  -4   4  400.90   14.64
   1  -4   4  418.88   15.98
  -1   4  -4  380.17   14.23
  -1  -4  -4  410.67   16.77
   1  -4   4  439.01   20.88
  -1  -4  -4  451.19   17.14
   1   4   4  427.54   16.09
   1   4   4  434.11   15.92
  -1  -4  -4  394.87   14.39
   1   4   5  149.97   20.07
  -1   4  -5  101.22    7.55
   1  -4   5  102.57    7.37
   1  -4   5  110.88    8.74
  -1   4  -5  106.95    8.04
  -1  -4  -5  121.24    9.52
   1  -4   5   96.82   12.61
  -1  -4  -5  122.29    9.54
   1   4   5   96.47    7.61
   1   4   5  100.99    8.99
  -1   4  -5  101.30    9.25
   1   4   6   29.86    5.84
  -1   4  -6   31.86    3.19
   1  -4   6   35.30    3.27
   1  -4   6   26.50    3.92
  -1   4  -6   27.57    3.34
  -1  -4  -6   27.53    4.23
   1  -4   6   28.10    4.35
  -1  -4  -6   29.61    3.99
   1   4   6   29.33    5.95
   1   4   6   31.49    3.92
  -1   4  -6   31.08    4.57
  -1   4  -7   18.56    3.20
   1   4   7   10.00    4.06
   1  -4   7   14.91    3.17
   1  -4   7   22.79    3.84
  -1   4  -7   24.14    3.73
   1  -4   7   21.29    4.06
  -1  -4  -7   18.28    3.59
   1   4   7   14.47    3.97
   1   4   7   14.68    3.31
  -1   4  -7    8.36    3.77
  -1   4  -8  183.70    8.23
   1  -4   8  199.93    9.15
   1  -4   8  212.48   10.37
   1  -4   8  202.55   24.15
  -1  -4  -8  174.34    9.43
   1   4   8  179.20    8.04
  -1   4  -8  202.04   11.00
  -1   4  -9    9.99    1.58
   1   4   9   10.80    4.55
   1  -4   9    0.62    0.49
   1  -4   9    4.28    2.04
   1  -4   9   11.22    4.60
  -1  -4  -9    0.23    2.60
   1   4   9    6.81    1.27
  -1   4 -10  487.40   18.51
   1   4  10  442.24   19.45
   1  -4  10  517.24   19.52
   1  -4  10  529.53   22.14
   1  -4  10  566.61   30.10
  -1  -4 -10  481.80   20.60
   1   4  10  509.81   19.26
  -1   4 -10  544.19   23.69
   1   4  11   95.50    9.49
   1  -4  11   79.39   10.98
   1  -4  11   89.21   12.95
  -1  -4 -11   75.02    8.13
  -1   4 -11   71.84    7.96
   1   4  12   44.16    6.10
   1  -4  12   32.76   10.06
   1  -4  12   48.15    7.61
  -1  -4 -12   35.61    6.21
  -1   4 -12   46.83    6.83
   1   4  13   11.29    4.18
   1  -4  13   -1.58    2.71
   1  -4  13   12.47    4.82
  -1  -4 -13    8.18    3.67
  -1   4 -13   12.48    4.68
   1   4  14   17.90    5.09
   1  -4  14   25.38    6.78
   1  -4  14   31.33    6.67
  -1  -4 -14   17.45    4.74
  -1   4 -14   23.62    5.98
   1   4  15   26.62   10.71
   1  -4  15   48.83    8.57
   1  -4  15   44.05    8.77
  -1  -4 -15   47.98    7.25
  -1   4 -15   37.04    6.09
   1   4  16  130.32   23.16
   1  -4  16  113.05   12.73
   1  -4  16  143.47   17.20
  -1  -4 -16  137.68   10.74
  -1   4 -16  143.51   13.62
   1   4  17    0.34    3.43
   1  -4  17   12.22    3.80
  -1  -4 -17    4.09    3.70
  -1   4 -17    7.04    4.57
   1   4  18   78.30   10.20
   1  -4  18   57.06   12.22
  -1  -4 -18   65.33    7.97
  -1   4 -18   84.22    8.75
  -1   4 -18   66.01    7.87
   1   4  19   14.77    5.07
   1  -4  19   -0.94    3.24
  -1  -4 -19    7.49    4.22
  -1   4 -19   14.53    4.91
  -1   4 -19    8.34    3.92
   1   4  20    3.26    2.90
   1  -4  20   15.23    5.03
  -1  -4 -20    9.10    5.60
  -1   4 -20    4.99    3.52
  -1   4 -20    7.24    3.95
   1   4  21    9.00    4.07
   1  -4  21    8.33    2.83
  -1  -4 -21    9.48    4.36
  -1   4 -21   -1.67    4.11
  -1   4 -21   -0.12    3.52
   1   4  22    8.08    2.40
   1  -4  22   10.67    4.08
  -1  -4 -22   18.08    6.62
  -1   4 -22   17.93    5.97
  -1   4 -22   26.51    8.05
   1   4  23    3.07    3.21
   1  -4  23    8.05    4.26
  -1  -4 -23    1.47    4.62
  -1   4 -23   -0.97    4.27
  -1   4 -23   -0.04    3.14
   1   4  24   61.57   11.47
   1  -4  24   47.10   12.35
  -1  -4 -24   52.52   11.06
  -1   4 -24   50.58    9.68
   1   4  25    1.42    3.43
   1  -4  25   14.63    4.46
  -1  -4 -25   23.68    8.00
  -1   4 -25   12.03    4.32
  -1   4 -25   15.39    4.36
   1   4  26   21.20    6.18
   1  -4  26    7.02    3.99
  -1  -4 -26    4.91    4.30
  -1   4 -26   24.57    6.70
  -1   4 -26   18.25    5.87
   1   4  27   17.87    5.44
   1  -4  27    2.17    4.06
  -1  -4 -27    5.39    6.32
  -1   4 -27   22.26    6.45
   1   4  28   21.10    6.57
   1  -4  28   18.29    6.26
  -1  -4 -28   12.37    6.06
  -1   4 -28   22.77    8.79
  -1   4 -28   18.31    6.84
   1   4  29   19.64    6.51
   1  -4  29   12.21    4.53
  -1  -4 -29    5.36    4.87
  -1   4 -29    8.39    5.22
  -1   4 -29   -0.70    4.00
   1   4  30   24.30    9.74
   1  -4  30   26.90    8.68
  -1  -4 -30   47.53   15.87
  -1   4 -30   56.94   16.87
  -1   4 -30   36.86   11.30
  -1   5  30   16.05    6.90
  -1  -5  30    3.86    2.92
   1  -5 -30    5.12    5.18
   1   5 -30   -1.16    4.44
   1   5 -30   12.42    5.93
  -1   5  29    8.24    4.42
  -1  -5  29   14.43    7.04
   1  -5 -29   13.97    6.46
   1   5 -29    7.33    5.11
   1   5 -29    6.85    5.66
  -1   5  28   10.27    5.68
  -1  -5  28   10.62    7.23
   1  -5 -28   14.13    6.53
   1   5 -28    6.97    3.42
   1   5 -28    0.75    3.34
  -1   5  27   20.04    6.63
  -1  -5  27   30.22   12.82
   1  -5 -27   43.32   10.72
   1   5 -27   33.99   10.50
   1   5 -27   36.05    9.03
  -1   5  26    2.79    3.03
  -1  -5  26    4.69    3.08
   1  -5 -26   10.22    5.46
   1   5 -26    5.71    4.37
   1   5 -26    2.75    3.50
  -1   5  25   13.52    5.22
  -1  -5  25   14.76    7.35
   1  -5 -25   25.28    7.28
   1   5 -25   28.25    8.03
   1   5 -25   29.89    7.38
  -1   5  24   11.35    5.56
  -1  -5  24    4.65    4.23
   1  -5 -24   11.65    6.60
   1   5 -24    2.27    1.47
   1   5 -24    3.54    3.28
  -1   5  23    3.48    2.43
  -1  -5  23   12.62    4.64
   1  -5 -23    0.20    4.52
   1   5 -23   -0.01    3.41
   1   5 -23    1.79    1.87
  -1   5  22   11.57    4.79
  -1  -5  22    5.37    3.31
   1  -5 -22    6.80    4.68
   1   5 -22    4.20    3.34
   1   5 -22    8.34    4.29
  -1   5  21   35.10    8.94
  -1  -5  21   63.42   12.12
   1  -5 -21   38.92    8.06
   1   5 -21   39.13    7.07
   1   5 -21   35.74    6.99
  -1   5  20   14.61    5.18
  -1  -5  20    2.90    3.65
   1  -5 -20    4.71    4.61
   1   5 -20    8.33    5.16
   1   5 -20   14.97    5.87
  -1   5  19   96.70    8.82
  -1  -5  19   96.18    5.42
  -1  -5  19  111.01   13.67
   1  -5 -19   94.66    9.13
   1   5 -19   84.55   18.14
   1   5 -19  119.31   10.02
  -1   5  18    7.01    5.91
  -1  -5  18    3.24    1.23
  -1  -5  18   12.94    4.89
   1  -5 -18    0.27    4.29
   1   5 -18   10.18    3.18
  -1   5  18    1.47    1.15
   1   5 -18    7.01    2.63
  -1   5  17   87.65   10.58
  -1  -5  17   75.48    5.42
  -1  -5  17  103.97   10.64
   1  -5 -17   53.93   10.26
   1   5 -17   81.96    8.14
  -1   5  17   53.39    9.00
   1   5 -17   73.11   10.91
  -1  -5  16    4.16    1.61
  -1   5  16   -4.54    4.26
  -1  -5  16    3.80    1.60
  -1  -5  16    6.65    3.07
   1  -5 -16    5.66    4.31
  -1   5  16    1.05    1.25
   1   5 -16   13.47    6.03
  -1  -5  15  146.76    9.27
  -1   5  15  208.49   15.01
  -1  -5  15  155.55    9.81
  -1  -5  15  186.55   13.81
  -1  -5  15  166.46   13.73
   1  -5 -15  180.58   13.47
  -1   5  15  109.55   15.00
   1   5 -15  179.89   15.14
  -1  -5  14   42.92    5.59
  -1   5  14   42.35    6.76
  -1  -5  14   43.10    7.14
  -1  -5  14   58.11    9.26
  -1  -5  14   45.64    7.89
   1  -5 -14   44.33    7.22
  -1   5  14   33.12    6.96
   1   5 -14   44.80    7.15
  -1  -5  13  145.72    9.63
  -1   5  13  213.49   12.76
  -1  -5  13  167.47   10.81
  -1  -5  13  176.23   20.02
   1  -5 -13  153.08   10.05
  -1   5  13  123.08   11.77
   1   5 -13  165.84   10.99
  -1  -5  12    9.30    2.34
  -1  -5  12   24.54    6.48
  -1  -5  12   10.41    3.70
   1  -5 -12   14.25    4.65
  -1   5  12   11.34    2.46
   1   5 -12   16.62    5.82
   1   5 -11   61.68    9.35
  -1  -5  11   47.70    4.69
  -1   5  11   48.59    7.25
  -1  -5  11   42.98    5.94
  -1  -5  11   53.68    9.91
   1  -5 -11   58.72    6.97
  -1   5  11   52.50    7.63
   1   5 -11   52.82    6.98
   1   5 -10    3.97    1.21
  -1  -5  10    1.25    1.30
  -1   5  10   13.85    5.71
  -1  -5  10    3.04    3.33
  -1  -5  10    4.02    2.64
   1  -5 -10    9.43    5.13
  -1   5  10    2.15    1.53
   1   5 -10    5.59    4.92
   1   5  -9   62.47    8.25
  -1  -5   9   51.92    5.57
  -1   5   9   56.27    7.09
  -1  -5   9   46.41    6.40
  -1  -5   9   60.66    9.56
   1  -5  -9   65.04    7.74
   1   5  -9   61.74    7.51
   1   5  -8    3.30    1.77
  -1  -5   8    3.97    2.27
  -1   5   8    1.14    4.08
  -1  -5   8    5.84    3.37
  -1  -5   8    2.25    1.90
   1  -5  -8    4.05    3.44
   1   5  -8   15.18    5.32
   1   5  -7  489.99   20.07
  -1  -5   7  451.90   18.54
  -1   5   7  466.00   20.61
  -1  -5   7  465.62   20.35
   1  -5  -7  450.59   19.31
  -1  -5   7  464.41   20.02
   1  -5  -7  445.60   19.91
   1   5  -7  476.05   21.03
   1   5  -6   40.14    6.55
  -1  -5   6   32.37    4.70
  -1   5   6   33.18    5.34
  -1  -5   6   46.99    5.80
   1  -5  -6   47.24    5.41
  -1  -5   6   47.96    5.67
   1  -5  -6   34.11    5.35
   1   5  -5  122.19   15.99
  -1  -5   5  119.51    9.27
  -1  -5   5  129.07    7.93
   1  -5  -5   99.25    8.30
  -1  -5   5  124.25   10.91
   1   5  -5  127.19    7.99
   1   5  -4   49.77    6.55
  -1  -5   4   44.07    4.32
  -1   5   4   32.28    4.73
  -1  -5   4   27.75    4.33
   1  -5  -4   39.27    4.65
  -1  -5   4   51.92    6.96
   1   5  -4   36.97    4.75
   1  -5  -4   47.04    6.04
   1   5  -4   47.36    6.75
  -1   5   4   46.78    4.93
   1   5  -3  111.14   17.54
   1  -5  -3   92.00    7.83
  -1  -5   3   94.81    7.72
   1   5  -3  104.17    8.09
   1  -5  -3   84.82    8.37
   1   5  -3  108.32    9.44
  -1   5   3  110.41   14.18
   1   5  -2   32.83    6.72
  -1   5   2   43.02    6.54
  -1  -5   2   34.20    4.94
   1  -5  -2   21.64    3.43
   1  -5  -2   24.92    3.94
   1   5  -2   34.89    4.12
   1   5  -2   42.46    7.18
  -1   5   2   19.07    3.51
   1   5  -1  251.17   11.19
  -1   5   1  236.30   12.32
   1  -5  -1  241.38   10.78
  -1   5   1  203.37   16.91
   1  -5  -1  242.78   11.03
   1   5  -1  221.13    9.60
   1   5  -1  251.04   18.04
  -1   5   1  235.66   10.83
  -1   5   0   89.55    7.98
   1  -5   0   75.24    6.61
  -1   5   0   87.15    7.01
   1  -5   0   96.36    8.21
   1   5   0   80.96    6.64
   1   5   0  107.81   17.01
  -1   5   0  111.29    9.49
   1   5   1 1000.44   39.73
  -1   5  -1 1048.92   41.23
   1  -5   1  911.85   35.66
   1  -5   1 1011.77   39.80
  -1   5  -1 1017.00   39.43
   1  -5   1  985.96   39.25
   1   5   1  934.37   48.55
   1   5   1 1020.74   40.74
  -1   5  -1 1046.67   41.48
  -1  -5  -1  995.20   38.82
   1   5   2  168.15   23.17
  -1   5  -2  170.59    8.53
   1  -5   2  154.67    7.55
   1  -5   2  177.24    9.28
  -1   5  -2  168.74    8.16
   1  -5   2  166.92    9.69
   1   5   2  178.72    8.65
   1   5   2  175.99   15.04
  -1   5  -2  160.09    8.83
  -1  -5  -2  172.13    8.33
   1   5   3   12.00    3.60
  -1   5  -3    5.59    2.93
   1  -5   3    3.38    1.51
   1  -5   3    5.13    2.65
  -1   5  -3    2.21    1.64
   1  -5   3   12.63    4.61
  -1  -5  -3    7.62    4.55
   1   5   3    6.24    3.26
   1   5   3    5.90    1.93
  -1  -5  -3    8.38    2.77
   1   5   4   61.24    7.46
  -1   5  -4   56.78    5.14
   1  -5   4   60.25    5.12
   1  -5   4   48.95    4.91
  -1   5  -4   51.63    4.63
  -1  -5  -4   59.94    6.50
  -1  -5  -4   70.57    6.48
   1   5   4   57.46    5.53
   1   5   4   49.14    5.65
  -1   5  -4   73.35   10.65
   1   5   5   73.29    7.28
  -1   5  -5   75.54   10.87
   1  -5   5   68.40    5.37
   1  -5   5   66.88    5.90
  -1  -5  -5   77.79    7.57
  -1  -5  -5   90.38    7.66
   1   5   5   93.24   11.53
  -1   5  -5   85.16    8.55
  -1   5  -6    8.41    2.26
   1   5   6    4.54    4.11
   1  -5   6   11.48    2.52
   1  -5   6   15.28    3.00
  -1  -5  -6   11.32    4.15
   1  -5   6   18.47    5.50
  -1  -5  -6    7.00    2.46
   1   5   6    0.71    1.92
  -1   5  -6   11.95    4.59
  -1   5  -7  599.34   24.00
   1   5   7  595.89   27.91
   1  -5   7  583.80   22.92
   1  -5   7  584.24   24.14
  -1  -5  -7  616.01   25.90
   1  -5   7  577.10   25.34
  -1  -5  -7  536.14   22.38
   1   5   7  601.45   24.13
  -1   5  -7  600.72   26.05
  -1   5  -8   66.59    5.93
   1   5   8   80.59   11.94
   1  -5   8   56.66    7.40
   1  -5   8   87.14   11.13
  -1  -5  -8   69.09    7.27
   1  -5   8   76.53   13.53
  -1  -5  -8   60.64    7.36
   1   5   8   78.03    8.97
  -1   5  -8   73.73    8.33
  -1   5  -9   94.59   12.09
   1  -5   9   96.55    7.86
   1  -5   9  101.99    9.39
   1  -5   9  107.13   14.84
  -1  -5  -9  100.20    9.61
   1   5   9  111.59    5.12
  -1   5  -9  106.78    7.60
  -1   5 -10    1.60    0.85
   1   5  10   -0.66    3.72
   1  -5  10    1.75    0.82
   1  -5  10    4.95    2.79
   1  -5  10    3.92    2.20
  -1  -5 -10    7.35    4.09
   1   5  10    1.95    0.79
  -1   5 -10   -1.95    3.40
  -1   5 -11    5.06    1.59
   1   5  11    2.97    3.86
   1  -5  11    0.43    0.36
   1  -5  11   14.87    4.58
   1  -5  11   13.20    4.36
  -1  -5 -11    1.41    3.06
   1   5  11    3.08    1.16
  -1   5 -11   19.78    5.79
   1   5  12    2.20    2.74
   1  -5  12    2.30    0.83
   1  -5  12    1.96    2.92
   1  -5  12    5.98    2.70
  -1  -5 -12   -1.16    2.67
   1   5  12    1.42    0.58
  -1   5 -12   -2.91    3.55
   1   5  13  234.00   27.81
   1  -5  13  176.39   21.09
   1  -5  13  188.08   13.37
  -1  -5 -13  180.75   12.70
  -1   5 -13  173.40   13.36
   1   5  14    5.37    4.08
   1  -5  14    9.72    5.38
   1  -5  14    4.98    2.02
  -1  -5 -14   10.08    3.86
  -1   5 -14    9.30    5.67
   1   5  15  157.59   19.36
   1  -5  15  113.63   12.89
   1  -5  15  130.96   21.23
  -1  -5 -15  138.38   11.68
  -1   5 -15  147.41   12.58
   1   5  16    9.29    3.42
   1  -5  16   22.23    5.08
   1  -5  16    8.33    3.55
  -1  -5 -16    2.39    4.10
  -1   5 -16   22.31    6.53
   1   5  17   16.68    6.27
   1  -5  17   14.25    4.53
   1  -5  17    6.24    3.94
  -1  -5 -17   24.16    6.98
  -1   5 -17    8.97    5.39
   1   5  18    5.42    3.02
   1  -5  18    3.72    2.53
   1  -5  18    5.83    3.46
  -1  -5 -18    6.68    4.02
  -1   5 -18   13.24    6.22
   1   5  19   98.37   12.90
   1  -5  19  113.16   14.64
  -1  -5 -19  116.75   11.27
  -1   5 -19  105.47   10.36
  -1   5 -19  110.47   12.32
   1   5  20   32.82    8.67
   1  -5  20   10.62    3.74
  -1  -5 -20   30.20    7.83
  -1   5 -20   26.92    6.90
  -1   5 -20   18.89    5.60
   1   5  21  114.44   12.69
   1  -5  21   95.10   13.30
  -1  -5 -21  110.35   12.87
  -1   5 -21  113.03   21.66
  -1   5 -21  106.67   13.20
   1   5  22   22.67    6.78
   1  -5  22   14.82    4.90
  -1  -5 -22   28.06    6.71
  -1   5 -22   27.38    6.02
  -1   5 -22   31.38    7.00
   1   5  23    5.22    3.59
   1  -5  23    4.30    2.65
  -1  -5 -23    5.95    5.43
  -1   5 -23    7.83    4.50
  -1   5 -23   -5.31    3.37
   1   5  24   -0.62    3.08
   1  -5  24    2.00    4.27
  -1  -5 -24   12.22    3.65
  -1   5 -24   -2.16    4.51
  -1   5 -24    3.61    2.59
   1   5  25   31.68    9.25
   1  -5  25   11.28    5.14
  -1  -5 -25   46.12   14.44
  -1   5 -25   20.66    7.26
  -1   5 -25   21.37    6.95
   1   5  26   28.22    6.98
   1  -5  26   17.96    5.73
  -1  -5 -26   49.01   11.92
  -1   5 -26   34.77    8.86
  -1   5 -26   39.03    8.17
   1   5  27   13.56    5.69
   1  -5  27   16.56    5.00
  -1  -5 -27   42.52   13.20
  -1   5 -27   20.58    8.24
  -1   5 -27   11.66    5.00
   1   5  28   30.65   10.75
   1  -5  28   13.03    6.31
  -1  -5 -28   16.68    6.89
  -1   5 -28   18.91    7.60
  -1   5 -28    3.65    4.52
   1   5  29    9.64    4.12
   1  -5  29    6.95    3.10
  -1  -5 -29    4.90    3.17
  -1   5 -29    3.68    2.75
  -1   5 -29    1.60    1.82
  -1   6  29    2.91    4.16
  -1  -6  29   13.01    4.75
   1  -6 -29   11.20    8.21
   1   6 -29    9.59    5.93
   1   6 -29    0.74    3.78
  -1   6  28    3.64    4.14
  -1  -6  28    9.74    6.00
   1  -6 -28    5.13    4.37
   1   6 -28   -0.89    4.52
   1   6 -28    2.31    4.00
  -1   6  27    8.50    4.88
  -1  -6  27    2.34    3.18
   1  -6 -27   -4.23    4.77
   1   6 -27   -1.59    4.07
   1   6 -27   17.78    7.57
  -1   6  26   23.78    8.39
  -1  -6  26   33.79   12.45
   1  -6 -26   26.64    9.86
   1   6 -26    3.12    4.28
   1   6 -26   15.88    5.41
  -1   6  25   12.35    6.47
  -1  -6  25   11.61    4.48
   1  -6 -25    3.67    4.74
   1   6 -25    2.80    3.85
   1   6 -25   -0.28    3.76
  -1   6  24   27.86    7.24
  -1  -6  24   15.30    6.17
   1  -6 -24   37.36    9.61
   1   6 -24   37.22    9.56
   1   6 -24   25.36   10.10
  -1   6  23   43.34    9.79
  -1  -6  23   34.76    7.87
   1  -6 -23   47.82   10.92
   1   6 -23   39.37    8.25
   1   6 -23   53.01   10.07
  -1   6  22    3.47    4.08
  -1  -6  22    4.23    2.99
   1  -6 -22    4.75    5.24
   1   6 -22   -3.57    3.43
   1   6 -22    1.34    4.02
  -1   6  21   16.97    6.16
  -1  -6  21   22.81    7.62
   1  -6 -21   36.04    8.71
   1   6 -21   37.25    6.91
   1   6 -21   29.75    8.07
  -1   6  20    5.71    3.86
  -1  -6  20   18.86    7.76
   1  -6 -20   23.33    9.16
   1   6 -20   32.94    6.69
   1   6 -20    3.47    4.20
  -1   6  19   36.66    9.04
  -1  -6  19   18.77    7.54
   1  -6 -19   14.36    6.87
   1   6 -19   14.96    5.46
   1   6 -19   21.66    6.41
  -1   6  18   46.95    8.89
  -1  -6  18   42.89    5.32
  -1  -6  18   70.68    8.48
   1  -6 -18   90.99   10.74
   1   6 -18   46.19    5.97
   1   6 -18   53.08    7.32
  -1   6  18   35.75    7.65
  -1   6  17   15.98    7.09
  -1  -6  17   20.26    3.62
  -1  -6  17   25.59    6.88
  -1  -6  17   23.40    6.97
   1  -6 -17   30.00    7.93
   1   6 -17   13.43    6.61
  -1   6  17   19.92    3.78
  -1  -6  16    0.48    0.66
  -1   6  16   -0.70    3.66
  -1  -6  16    5.39    2.05
  -1  -6  16    0.94    3.89
  -1  -6  16    3.86    2.39
   1  -6 -16    7.25    5.62
   1   6 -16    7.27    3.29
  -1   6  16    1.59    1.63
  -1  -6  15   41.02    8.81
  -1   6  15   94.47   11.46
  -1  -6  15   58.83    5.22
  -1  -6  15   88.86    9.76
  -1  -6  15   73.20   12.26
   1  -6 -15   74.33   10.76
  -1   6  15   35.64    7.95
   1   6 -15   62.61    8.13
  -1   6  15   75.12    6.56
  -1  -6  14    2.22    1.05
  -1  -6  14    9.14    5.08
  -1  -6  14    5.48    2.83
   1  -6 -14   25.69    8.24
  -1   6  14    1.04    0.97
   1   6 -14    3.35    3.12
  -1   6  14    4.03    1.77
   1   6 -13    2.38    1.03
  -1  -6  13   -0.29    1.31
  -1   6  13    2.47    3.70
  -1  -6  13    9.81    6.16
  -1  -6  13   13.08    4.59
   1  -6 -13    3.16    4.30
  -1   6  13   -1.41    1.17
   1   6 -13   11.52    6.30
   1   6 -12   18.29    4.51
  -1  -6  12    5.69    2.02
  -1   6  12   22.30    6.33
  -1  -6  12   13.70    5.17
  -1  -6  12    7.51    3.37
   1  -6 -12   36.80    7.08
  -1   6  12    9.42    2.87
   1   6 -12   20.10    6.29
  -1   6  12    7.90    2.67
   1   6 -11   31.06    6.92
  -1  -6  11   24.92    5.65
  -1   6  11   40.88    7.63
  -1  -6  11   27.57    7.38
  -1  -6  11   23.71    6.66
   1  -6 -11   32.06    6.31
   1   6 -11   15.96    5.68
  -1   6  11   26.45    6.13
   1   6 -10  190.64   14.45
  -1  -6  10  147.00    8.04
  -1   6  10  163.83   11.31
  -1  -6  10  196.42   12.39
   1  -6 -10  185.62   18.91
  -1  -6  10  189.80   19.87
   1  -6 -10  179.31   11.12
   1   6 -10  197.58   12.29
  -1   6  10  174.27   17.19
   1   6  -9   16.70    4.04
  -1   6   9   15.39    5.17
  -1  -6   9   11.88    3.71
   1  -6  -9   14.96    4.29
  -1  -6   9    8.04    2.74
   1  -6  -9    7.47    4.09
   1   6  -9   11.93    4.69
  -1   6   9   17.99    4.63
   1   6  -8   38.53    7.53
  -1   6   8   35.49    8.09
  -1  -6   8   60.02    9.08
   1  -6  -8   55.73   11.08
  -1  -6   8   54.68   10.21
   1  -6  -8   56.01    9.27
  -1   6   8   32.40    5.32
   1   6  -7   15.23    3.83
  -1   6   7   16.64    5.43
  -1  -6   7    5.08    3.31
   1  -6  -7   12.92    3.88
  -1  -6   7   17.21    5.22
   1  -6  -7   15.19    5.03
   1   6  -7   13.72    4.72
  -1   6   7   10.15    2.74
   1   6  -6   51.90    7.75
  -1   6   6   73.38    8.03
  -1  -6   6   62.36    6.99
   1  -6  -6   84.53    8.86
  -1  -6   6   69.04   11.64
   1  -6  -6   74.98    7.95
   1   6  -6   62.78    7.26
  -1   6   6   72.84    7.45
   1   6  -5   -0.46    2.23
  -1   6   5    3.13    3.51
  -1  -6   5   -2.87    3.29
   1  -6  -5    9.79    4.29
  -1  -6   5    4.90    3.08
   1  -6  -5   11.03    5.13
   1   6  -5    0.94    2.39
  -1   6   5    2.08    2.45
   1   6  -4  181.76   21.29
  -1   6   4  217.83   11.98
  -1  -6   4  185.01    9.75
   1  -6  -4  183.78    8.74
  -1  -6   4  172.47   13.40
   1  -6  -4  183.93    9.73
   1   6  -4  195.57   10.32
  -1   6   4  193.80    9.33
   1   6  -3  181.22    9.16
  -1   6   3  182.12   16.37
  -1  -6   3  179.83    9.64
   1  -6  -3  173.02   21.27
  -1  -6   3  171.89    8.47
   1  -6  -3  188.81   10.84
   1   6  -3  184.73    9.17
  -1   6   3  172.11   21.37
   1   6  -2  210.02   22.03
  -1   6   2  207.13   10.67
  -1  -6   2  190.29    9.45
   1  -6  -2  168.13    8.25
  -1  -6   2  179.68    8.98
   1  -6  -2  181.09   10.10
   1   6  -2  228.47   25.38
  -1   6   2  189.94   19.43
   1   6  -1   33.91    5.40
  -1   6   1   39.57    6.47
  -1  -6   1   24.04    5.36
   1  -6  -1   29.91    6.10
  -1  -6   1   33.64    4.67
   1  -6  -1   33.88    6.09
   1   6  -1   27.93    6.80
  -1   6   1   21.53    5.82
   1   6   0    8.19    4.34
  -1   6   0    8.72    3.06
   1  -6   0   10.94    3.44
  -1  -6   0    7.04    3.47
  -1  -6   0    5.86    2.77
   1  -6   0   12.90    5.25
   1   6   0    4.75    2.02
  -1   6   0    3.90    3.01
   1   6   1    3.80    3.48
  -1   6  -1   19.06    5.06
   1  -6   1   12.35    3.48
  -1  -6  -1   14.54    4.61
   1  -6   1    3.84    3.35
  -1  -6  -1   19.51    4.21
   1   6   1   14.76    3.43
  -1   6  -1   13.89    4.04
   1   6   2   74.61   11.05
  -1   6  -2   95.95    9.23
   1  -6   2   82.51    7.75
  -1  -6  -2   73.25    8.33
   1  -6   2   88.24    9.30
  -1  -6  -2   91.15   15.09
   1   6   2   81.49   11.52
  -1   6  -2   71.39    7.94
   1   6   3  206.26   25.09
  -1   6  -3  194.83   15.78
   1  -6   3  197.66    9.35
  -1  -6  -3  181.20    9.50
   1  -6   3  176.00    9.30
  -1  -6  -3  186.57    9.15
   1   6   3  173.01   16.57
  -1   6  -3  210.83   10.98
   1   6   4  177.82   10.07
  -1   6  -4  176.54    8.89
   1  -6   4  181.10    8.52
  -1  -6  -4  187.42    9.61
   1  -6   4  173.53   14.97
  -1  -6  -4  160.96    8.24
   1   6   4  177.15   10.00
  -1   6  -4  170.28    9.86
   1   6   5  155.84    9.05
  -1   6  -5  182.67    8.95
   1  -6   5  159.77    7.20
   1  -6   5  148.26    7.72
  -1  -6  -5  192.75   10.49
   1  -6   5  161.64   24.70
  -1  -6  -5  178.75    9.63
   1   6   5  194.94   16.34
  -1   6  -6   18.13    4.00
   1   6   6   26.25    6.25
   1  -6   6   10.45    2.60
   1  -6   6   21.12    4.76
  -1  -6  -6   35.09    5.45
   1  -6   6   24.80    5.27
  -1  -6  -6   34.51    5.31
   1   6   6   22.20    4.21
  -1   6  -6   26.76    6.75
  -1   6  -7    8.20    3.03
   1   6   7    5.79    3.75
   1  -6   7    1.72    1.49
   1  -6   7    7.06    3.19
  -1  -6  -7    6.76    4.23
   1  -6   7    4.14    2.12
  -1  -6  -7   11.42    3.96
   1   6   7    7.97    3.61
  -1   6  -7    6.67    4.05
  -1   6  -8   22.47    4.59
   1   6   8   17.26    5.33
   1  -6   8   20.67    4.30
   1  -6   8   19.38    4.69
  -1  -6  -8   19.80    5.67
   1  -6   8   24.90    7.94
  -1  -6  -8   21.70    5.74
   1   6   8   19.94    4.35
  -1   6  -8   14.64    5.19
  -1   6  -9   98.50   11.93
   1   6   9   99.75    8.08
   1  -6   9   88.07    6.19
   1  -6   9  132.38   12.63
  -1  -6  -9   92.46    8.93
   1  -6   9  101.08   14.31
  -1  -6  -9   95.51    7.12
   1   6   9  111.03   13.25
  -1   6  -9  149.47   10.77
  -1   6 -10   79.29   10.26
   1   6  10   83.77   10.80
   1  -6  10   78.87    5.60
   1  -6  10   88.79    7.74
  -1  -6 -10   86.94    8.24
   1  -6  10   84.55   12.89
  -1  -6 -10   79.69    6.90
   1   6  10   88.47    6.14
  -1   6 -10   83.70    8.56
  -1   6 -11   10.46    2.73
   1  -6  11    4.48    1.62
   1  -6  11   -1.58    2.92
  -1  -6 -11    9.36    5.11
   1  -6  11   17.65    7.63
  -1  -6 -11   14.33    4.72
   1   6  11    5.08    1.77
  -1   6 -11   10.00    6.05
  -1   6 -12   60.31    9.15
   1   6  12   87.25   12.54
   1  -6  12    6.48    1.37
   1  -6  12   71.89   12.86
   1  -6  12   88.86   13.19
  -1  -6 -12   71.31   12.28
  -1   6 -12   72.37   12.94
   1   6  13   15.30    5.16
   1  -6  13   12.73    2.69
   1  -6  13   22.78    5.74
   1  -6  13   28.61    6.71
  -1  -6 -13    6.75    3.53
   1   6  13    9.16    2.19
   1   6  13    9.13    2.38
  -1   6 -13   13.57    5.89
   1   6  14   77.68   11.39
   1  -6  14   75.32    8.09
   1  -6  14   93.97   15.93
  -1  -6 -14   94.91    9.79
  -1   6 -14   61.05    7.99
   1   6  15    4.95    4.08
   1  -6  15   15.81    4.59
   1  -6  15    5.07    5.10
  -1  -6 -15   19.73    6.06
  -1   6 -15    8.67    6.52
   1   6  16   42.73   12.72
   1  -6  16   46.49    8.58
   1  -6  16   41.88   10.88
  -1  -6 -16   42.40    7.94
  -1   6 -16   35.56    8.09
   1   6  17    2.69    3.41
   1  -6  17    6.27    3.03
   1  -6  17    9.52    4.45
  -1  -6 -17    7.29    3.84
  -1   6 -17    3.41    3.04
   1   6  18   13.52    5.90
   1  -6  18   -1.45    4.03
   1  -6  18   22.08    6.15
  -1  -6 -18    8.59    4.19
  -1   6 -18    9.42    5.45
   1   6  19   19.75    6.21
   1  -6  19    9.97    4.48
   1  -6  19    2.78    3.82
  -1  -6 -19    8.13    5.78
  -1   6 -19   -2.10    4.51
   1  -6  20    8.83    4.17
   1  -6  20   10.81    3.56
  -1  -6 -20   -1.39    4.12
  -1   6 -20    7.52    6.20
   1   6  21   -0.58    3.99
   1  -6  21    6.77    2.86
  -1  -6 -21   16.61    6.21
  -1   6 -21   10.88    6.67
  -1   6 -21    5.26    4.33
   1   6  22   26.23    6.61
   1  -6  22   16.06    4.70
  -1  -6 -22    3.39    3.55
  -1   6 -22    7.51    4.97
  -1   6 -22   11.03    3.86
   1   6  23    3.06    3.97
   1  -6  23   13.42    6.75
  -1  -6 -23   10.35    4.59
  -1   6 -23    7.69    3.67
  -1   6 -23   14.96    7.48
   1   6  24    3.18    4.02
   1  -6  24   12.24    3.97
  -1  -6 -24    1.26    4.26
  -1   6 -24   -0.58    4.44
  -1   6 -24   21.45    7.36
   1   6  25   23.80    8.14
   1  -6  25   32.30    9.02
  -1  -6 -25   25.91    9.09
  -1   6 -25   23.90    9.02
  -1   6 -25   12.84    5.70
   1  -6  26    7.93    3.90
  -1  -6 -26    6.48    7.09
  -1   6 -26    3.54    2.73
  -1   6 -26    7.98    4.94
   1   6  27    6.40    5.16
   1  -6  27   -0.02    3.74
  -1  -6 -27    1.99    4.69
  -1   6 -27    6.36    4.57
  -1   6 -27   13.51    6.82
   1   6  28    3.60    3.44
   1  -6  28   25.24    8.88
  -1  -6 -28    0.51    4.44
  -1   6 -28   26.31    9.85
  -1   6 -28    5.76    3.93
  -1   7  28   -3.04    3.64
  -1  -7  28    4.54    7.90
   1  -7 -28   25.39   11.20
   1   7 -28    4.31    4.58
   1   7 -28   -0.28    3.94
  -1   7  27    5.53    4.55
  -1  -7  27    1.59    4.80
   1  -7 -27    7.67    5.42
   1   7 -27    4.84    3.96
   1   7 -27   10.99    3.61
  -1   7  26   28.24    9.03
  -1  -7  26   18.49    7.12
   1  -7 -26   13.48    6.18
   1   7 -26    8.02    4.58
   1   7 -26   10.73    3.67
  -1   7  25   29.00    9.74
  -1  -7  25    3.90    3.74
   1  -7 -25    3.92    4.92
   1   7 -25    4.22    4.83
   1   7 -25    1.69    4.53
  -1   7  24   16.35    5.97
  -1  -7  24    3.16    5.14
   1  -7 -24    1.22    4.75
   1   7 -24    8.89    4.67
   1   7 -24   10.27    4.91
  -1   7  23   13.20    5.35
  -1  -7  23    4.18    2.82
   1  -7 -23   -2.01    4.83
   1   7 -23    1.38    3.49
   1   7 -23    6.09    3.81
  -1   7  22    1.71    3.83
  -1  -7  22    9.67    4.46
   1   7 -22   13.00    4.00
   1   7 -22   15.41    7.54
  -1   7  21   24.49    7.96
  -1  -7  21   20.21    8.50
   1  -7 -21    0.88    3.70
   1   7 -21   10.40    5.30
   1   7 -21    8.80    6.47
  -1   7  20   49.73   12.56
  -1  -7  20   47.30   11.80
   1  -7 -20   51.79   10.50
   1   7 -20   30.36    8.18
   1   7 -20   33.31    8.82
  -1   7  19    7.75    5.02
  -1  -7  19   14.08    6.82
   1  -7 -19    4.03    4.56
   1   7 -19   15.28    7.24
  -1   7  18   20.66    8.45
  -1  -7  18   24.29    7.61
  -1  -7  18   19.32    7.14
   1  -7 -18    8.99    4.60
   1   7 -18   17.64    6.13
  -1   7  17   46.31    8.98
  -1  -7  17   25.17    5.10
  -1  -7  17   12.44    4.52
  -1  -7  17   48.28    8.79
   1  -7 -17   30.37    8.31
   1   7 -17   17.38    6.05
  -1   7  17   38.44    4.77
  -1   7  16   10.54    4.58
  -1  -7  16   -0.33    1.10
  -1  -7  16    1.59    4.08
  -1  -7  16    5.40    3.07
   1  -7 -16    9.05    5.12
   1   7 -16    3.51    3.45
  -1   7  16   -0.98    1.28
  -1  -7  15   17.57    6.54
  -1  -7  15   23.71    7.12
   1  -7 -15   36.00    8.77
   1   7 -15   21.53    6.72
  -1   7  15   24.72    5.80
   1   7 -14   98.73   14.39
  -1   7  14  140.01   11.03
  -1  -7  14  112.37   13.31
  -1  -7  14  123.03   16.29
   1  -7 -14  142.14   12.24
   1   7 -14  119.21   10.41
  -1   7  14  114.01   12.16
   1   7 -13   29.41    7.67
  -1   7  13   34.36    8.89
  -1  -7  13   33.05    7.65
   1  -7 -13   27.37    6.45
  -1  -7  13   26.61   10.22
   1  -7 -13   57.19    9.20
   1   7 -13   38.46    9.04
  -1   7  13   33.44    8.12
   1   7 -12   46.50   10.51
  -1   7  12   45.57    9.77
  -1  -7  12   42.49    9.12
   1  -7 -12   47.83    9.83
  -1  -7  12   56.71   10.55
   1  -7 -12   59.44    8.67
   1   7 -12   61.06    8.26
  -1   7  12   51.26   10.00
   1   7 -11   83.33   10.94
  -1   7  11   96.11    9.53
  -1  -7  11   94.04    9.01
   1  -7 -11   80.40    7.95
  -1  -7  11   80.28   11.23
   1  -7 -11  102.09    9.60
   1   7 -11   95.80   10.20
  -1   7  11   80.74   11.53
   1   7 -10   12.48    4.29
  -1   7  10   27.20    7.18
  -1  -7  10   25.60    5.81
   1  -7 -10    9.52    4.19
  -1  -7  10   19.52    4.98
   1  -7 -10   16.14    5.58
   1   7 -10    8.67    4.76
  -1   7  10   14.50    4.50
   1   7  -9   31.40    5.73
  -1   7   9   39.49    7.14
  -1  -7   9   30.47    6.41
   1  -7  -9   31.49    6.17
  -1  -7   9   41.11    8.94
   1  -7  -9   30.98    6.33
  -1   7   9   25.46    5.82
   1   7  -8  132.90   14.12
  -1   7   8  129.85   11.25
  -1  -7   8  128.78   10.31
   1  -7  -8  116.19   12.20
  -1  -7   8  133.43   18.58
   1  -7  -8  137.21   11.20
   1   7  -8  126.49   10.79
  -1   7   8  107.38   14.46
   1   7  -7   10.29    3.35
  -1   7   7    8.92    3.81
  -1  -7   7   10.90    4.35
   1  -7  -7    6.70    3.15
  -1  -7   7   17.03    4.77
   1  -7  -7    8.39    4.24
   1   7  -7    8.72    3.15
  -1   7   7    8.42    3.68
   1   7  -6  215.90   15.42
  -1   7   6  226.08   16.22
  -1  -7   6  214.35   15.01
   1  -7  -6  231.53   15.68
  -1  -7   6  221.89   24.41
   1  -7  -6  193.25   14.39
   1   7  -6  220.87   16.01
  -1   7   6  222.14   14.83
   1   7  -5    1.89    1.84
  -1   7   5    1.49    3.66
  -1  -7   5    7.77    4.93
   1  -7  -5    4.50    2.78
  -1  -7   5    7.64    2.70
   1  -7  -5    4.60    4.54
   1   7  -5    1.12    3.54
  -1   7   5    2.40    2.08
   1   7  -4    7.72    5.27
  -1   7   4    5.04    3.75
  -1  -7   4   10.84    5.53
   1  -7  -4   12.32    3.32
  -1  -7   4   11.84    4.46
   1  -7  -4    3.24    3.61
   1   7  -4   14.16    4.37
  -1   7   4   18.22    4.81
   1   7  -3   17.35    5.61
  -1   7   3   11.25    3.77
  -1  -7   3   14.29    5.02
   1  -7  -3   10.16    2.99
  -1  -7   3   25.45    5.84
   1  -7  -3   26.35    6.41
   1   7  -3   13.19    4.45
  -1   7   3   32.32    7.56
   1   7  -2  125.71   19.40
  -1   7   2  143.35   18.25
  -1  -7   2  144.44    9.49
   1  -7  -2  133.14    8.83
  -1  -7   2  129.93   10.59
   1  -7  -2  112.85    8.25
   1   7  -2  126.89    9.14
  -1   7   2  122.01   13.67
   1   7  -1   56.23    9.12
  -1   7   1   41.45    7.06
  -1  -7   1   54.24    8.88
   1  -7  -1   37.22    6.10
  -1  -7   1   42.37    7.22
   1  -7  -1   35.62    6.41
   1   7  -1   38.83    6.53
  -1   7   1   37.78    6.92
   1   7   0  152.53   11.80
  -1   7   0  161.18   10.48
   1  -7   0  184.99   10.79
  -1  -7   0  168.51   10.87
  -1  -7   0  157.15    9.60
   1  -7   0  137.19    9.83
   1   7   0  174.94   17.41
  -1   7   0  161.41   10.79
   1   7   1    3.19    2.16
  -1   7  -1    9.32    3.83
   1  -7   1    5.33    3.27
  -1  -7  -1   16.90    5.80
   1  -7   1    0.20    3.09
  -1  -7  -1    4.76    3.24
   1   7   1    8.37    4.15
  -1   7  -1   10.78    5.51
   1   7   2   49.27    7.80
  -1   7  -2   46.73    7.72
   1  -7   2   43.38    7.03
  -1  -7  -2   58.28    9.06
   1  -7   2   38.13    6.69
  -1  -7  -2   43.30    7.25
   1   7   2   55.63    9.25
  -1   7  -2   28.14    5.30
   1   7   3   13.45    6.52
  -1   7  -3   13.06    5.15
   1  -7   3    5.51    2.62
  -1  -7  -3    5.24    3.03
   1  -7   3    4.34    1.96
  -1  -7  -3    7.84    3.57
   1   7   3    9.62    4.15
  -1   7  -3    2.80    3.78
   1   7   4    5.49    2.11
  -1   7  -4    6.07    2.25
   1  -7   4    3.64    2.67
  -1  -7  -4    6.93    4.28
   1  -7   4    5.98    3.26
  -1  -7  -4   -2.72    2.77
   1   7   4    5.49    2.82
  -1   7  -4    6.60    4.68
   1   7   5   41.71    8.57
  -1   7  -5   29.36    5.15
   1  -7   5   26.29    6.43
  -1  -7  -5   23.28    6.95
   1  -7   5   23.01    7.43
  -1  -7  -5   22.42    5.99
   1   7   5   28.19    5.07
  -1   7  -5   29.08    6.66
  -1   7  -6   82.54    7.23
   1   7   6   92.99    9.70
   1  -7   6  101.46    8.62
  -1  -7  -6   77.67    7.41
   1  -7   6   90.97   13.20
  -1  -7  -6   80.93    7.77
   1   7   6   88.22    6.95
  -1   7  -6   63.10    9.80
  -1   7  -7   30.58    5.72
   1   7   7   17.74    6.57
   1  -7   7   17.68    5.05
  -1  -7  -7   28.05    6.19
   1  -7   7   27.58    8.67
  -1  -7  -7   22.81    5.96
   1   7   7   31.08    5.04
  -1   7  -7   30.82    6.70
  -1   7  -8   74.58    7.20
   1   7   8   61.85    6.85
   1  -7   8   69.05    6.59
  -1  -7  -8   55.16    9.16
   1  -7   8   73.18   12.93
  -1  -7  -8   63.21    7.07
   1   7   8   66.17    8.90
  -1   7  -8   74.67    9.77
  -1   7  -9   18.83    4.94
   1   7   9   10.21    4.27
   1  -7   9    7.56    2.89
   1  -7   9   12.96    4.86
  -1  -7  -9    9.25    5.00
   1  -7   9   24.96    6.06
  -1  -7  -9   13.14    4.58
   1   7   9   16.46    4.02
  -1   7  -9   17.72    5.80
  -1   7 -10    0.82    1.40
   1   7  10    5.90    3.79
   1  -7  10    2.04    1.20
   1  -7  10    2.30    2.96
  -1  -7 -10    2.96    4.17
   1  -7  10    6.46    3.11
  -1  -7 -10    2.71    3.34
   1   7  10    4.94    2.21
  -1   7 -10   13.05    6.41
  -1   7 -11    7.83    2.49
   1   7  11   14.68    6.57
   1  -7  11    4.55    1.82
   1  -7  11    2.45    3.18
  -1  -7 -11    6.04    4.89
   1  -7  11    4.22    2.90
  -1  -7 -11   11.26    5.45
   1   7  11    6.28    2.40
  -1   7 -11    3.56    4.58
  -1   7 -12    8.54    2.49
   1   7  12   30.72    7.40
   1  -7  12   11.79    4.60
  -1  -7 -12   21.93    7.92
   1  -7  12    3.56    2.79
  -1  -7 -12    5.79    5.10
   1   7  12    9.82    3.12
  -1   7 -12   20.23    8.20
  -1   7 -13    2.87    0.99
   1   7  13    5.97    3.98
   1  -7  13   12.38    4.14
  -1  -7 -13    9.33    5.83
   1  -7  13   17.23    5.29
  -1  -7 -13   21.84    6.52
   1   7  13    2.14    1.21
  -1   7 -13    7.51    4.94
   1   7  14   81.01    9.02
   1  -7  14   59.82    6.33
  -1  -7 -14   70.63    8.46
   1  -7  14   64.81   13.09
  -1  -7 -14   66.06    8.58
  -1   7 -14   61.05    8.55
   1   7  15   29.83    8.56
   1  -7  15   39.51    6.61
  -1  -7 -15   28.53    7.03
   1  -7  15   27.69    7.97
  -1  -7 -15   24.07    6.36
  -1   7 -15   39.49    8.13
   1   7  16   37.45   10.23
   1  -7  16   41.61    8.87
   1  -7  16   36.39    7.29
  -1  -7 -16   28.58    6.82
  -1   7 -16   47.69   10.61
   1   7  17   10.20    6.10
   1  -7  17    7.92    3.62
   1  -7  17    5.68    3.12
  -1  -7 -17    6.50    3.93
  -1   7 -17    3.97    5.19
   1   7  18   26.45    6.72
   1  -7  18   14.22    5.48
   1  -7  18   22.93   10.24
  -1  -7 -18   19.02    6.81
  -1   7 -18    5.20    5.03
   1   7  19    0.33    3.37
   1  -7  19    1.38    1.75
   1  -7  19   13.31    7.20
  -1  -7 -19    1.51    3.34
  -1   7 -19    8.81    5.17
   1   7  20   16.03    5.52
   1  -7  20   22.29    5.74
   1  -7  20   21.34    6.38
  -1  -7 -20   22.14    5.00
  -1   7 -20   19.76    6.95
   1   7  21    4.89    4.39
   1  -7  21    5.28    3.57
   1  -7  21    5.75    2.24
  -1  -7 -21   10.57    4.93
  -1   7 -21   17.17    6.39
   1   7  22    7.06    4.35
   1  -7  22   25.93    7.90
  -1  -7 -22    8.48    4.57
  -1   7 -22   34.17    8.35
  -1   7 -22   26.89    8.99
   1   7  23   25.15    7.26
   1  -7  23   23.73    7.70
  -1  -7 -23   22.40    6.47
  -1   7 -23   26.62    7.67
  -1   7 -23    9.21    4.73
   1   7  24    1.05    4.31
   1  -7  24    9.20    2.86
  -1  -7 -24    0.90    3.06
  -1   7 -24   -5.36    4.99
  -1   7 -24   15.35    7.21
   1   7  25    7.06    4.06
   1  -7  25   12.30    4.14
  -1  -7 -25    5.93    4.08
  -1   7 -25   16.81    7.45
  -1   7 -25   21.44    7.76
   1   7  26   32.02   10.05
   1  -7  26    8.94    7.09
  -1  -7 -26   19.94    7.63
  -1   7 -26    1.32    4.57
  -1   7 -26    2.11    4.48
   1   7  27    5.81    4.30
   1  -7  27   17.10    6.73
  -1  -7 -27   12.32    5.60
  -1   7 -27    4.21    4.72
  -1   7 -27    6.80    4.58
  -1   8  26    2.55    5.43
  -1  -8  26    1.33    2.19
   1  -8 -26    6.18    5.15
   1   8 -26   11.61    4.99
   1   8 -26    3.07    4.32
  -1   8  25    9.44    4.99
  -1  -8  25   16.80    7.31
   1  -8 -25   23.01    9.63
   1   8 -25   11.04    5.25
   1   8 -25   22.63    7.73
  -1   8  24   -5.87    4.33
  -1  -8  24   11.16    4.26
   1  -8 -24    4.99    5.31
   1   8 -24    5.23    3.70
   1   8 -24   11.27    7.82
  -1   8  23   14.42    7.52
  -1  -8  23   18.93    7.04
   1  -8 -23   11.51    7.20
   1   8 -23   19.61    6.96
   1   8 -23    8.09    4.74
  -1  -8  22    4.42    3.17
   1   8 -22    8.57    4.81
   1   8 -22   20.97    7.63
  -1   8  21    0.48    3.87
  -1  -8  21    8.80    4.48
   1  -8 -21   20.15    7.63
   1   8 -21    7.01    3.70
   1   8 -21   24.12    8.20
  -1   8  20   23.96    6.71
  -1  -8  20    8.69    5.12
   1  -8 -20    7.61    4.87
   1   8 -20    7.66    5.09
  -1   8  19   13.59    6.41
  -1  -8  19   23.61    6.51
  -1  -8  19   33.79   10.97
   1  -8 -19   28.40    7.00
   1   8 -19   18.94    4.01
  -1   8  18    5.91    4.81
  -1  -8  18   16.08    5.88
   1  -8 -18    4.59    3.27
  -1  -8  18    6.74    3.62
   1  -8 -18    2.10    4.24
   1   8 -18    6.42    6.52
  -1   8  17   72.48   19.19
  -1  -8  17   69.42   12.64
   1  -8 -17   71.90   13.42
  -1  -8  17   70.16   16.90
   1  -8 -17   59.67   11.62
   1   8 -17   60.68   15.75
  -1   8  16    4.72    2.94
  -1  -8  16    5.33    4.45
   1  -8 -16    3.17    3.12
  -1  -8  16    7.30    2.62
   1  -8 -16    1.13    4.52
   1   8 -16   12.66    6.64
   1   8 -15   14.42    4.18
  -1   8  15   13.69    7.61
  -1  -8  15   11.89    4.61
   1  -8 -15   19.30    6.25
  -1  -8  15   15.74    5.18
   1  -8 -15   18.44    7.01
   1   8 -15    7.48    4.81
  -1   8  15   20.45    5.46
   1   8 -14    4.99    1.87
  -1   8  14    0.43    4.73
  -1  -8  14   11.78    5.10
   1  -8 -14    1.96    3.31
  -1  -8  14    7.03    3.13
   1  -8 -14   10.17    6.03
   1   8 -14    6.66    4.80
  -1   8  14    6.25    1.73
   1   8 -13    6.83    1.94
  -1   8  13   14.88    7.76
  -1  -8  13   11.63    4.62
   1  -8 -13   -0.46    2.95
  -1  -8  13    6.84    3.64
   1  -8 -13    1.71    3.94
   1   8 -13    3.74    4.92
  -1   8  13   11.84    3.80
   1   8 -12   11.79    3.09
  -1   8  12   10.99    5.28
  -1  -8  12   12.83    4.84
   1  -8 -12   24.69    6.57
  -1  -8  12    6.02    4.05
   1  -8 -12   12.08    5.37
   1   8 -12    6.07    4.31
  -1   8  12    9.61    2.76
   1   8 -11   68.56   11.60
  -1   8  11   80.18    8.76
  -1  -8  11  102.89    9.23
   1  -8 -11   81.58    7.21
  -1  -8  11   79.90   11.00
   1  -8 -11   90.49    8.67
  -1   8  11   78.66    6.30
   1   8 -10    7.91    2.75
  -1   8  10   14.72    6.99
  -1  -8  10    1.05    3.30
   1  -8 -10    8.09    4.12
  -1  -8  10    3.80    2.21
   1  -8 -10    7.63    3.63
   1   8 -10   15.78    6.48
  -1   8  10    0.56    2.51
   1   8  -9  242.02   32.19
  -1   8   9  261.86   32.33
  -1  -8   9  213.99   14.03
   1  -8  -9  224.18   13.66
  -1  -8   9  250.01   41.61
   1  -8  -9  238.93   15.74
   1   8  -9  237.84   15.87
  -1   8   9  250.59   29.54
   1   8  -8    4.82    2.16
  -1   8   8    9.97    4.20
  -1  -8   8   -1.93    3.80
   1  -8  -8   10.04    3.95
  -1  -8   8   11.18    4.68
   1  -8  -8   11.56    6.30
   1   8  -8   18.73    5.37
  -1   8   8   -2.43    2.73
   1   8  -7   -0.65    2.35
  -1   8   7   14.70    6.75
  -1  -8   7    1.99    3.95
   1  -8  -7    6.72    3.52
  -1  -8   7    3.21    2.07
   1  -8  -7   -3.02    4.43
   1   8  -7   -6.21    3.87
  -1   8   7    4.48    3.53
   1   8  -6   21.88    5.55
  -1   8   6    7.81    4.69
  -1  -8   6   -2.38    3.68
   1  -8  -6    9.18    4.81
  -1  -8   6    3.69    2.20
   1  -8  -6   12.79    5.88
   1   8  -6    6.79    4.53
  -1   8   6    0.81    2.72
   1   8  -5  148.66   22.83
  -1   8   5  153.85   12.69
  -1  -8   5  107.88    9.54
   1  -8  -5  129.07   10.49
  -1  -8   5  119.03   16.75
   1  -8  -5  136.80   19.42
   1   8  -5  116.66   10.08
  -1   8   5  134.26   11.67
   1   8  -4    7.65    3.64
  -1   8   4    2.08    3.83
  -1  -8   4    5.90    3.70
   1  -8  -4    8.36    4.62
  -1  -8   4   17.45    5.44
   1  -8  -4   14.10    5.52
   1   8  -4    8.59    5.24
  -1   8   4   13.73    5.25
   1   8  -3  243.94   19.35
  -1   8   3  240.37   17.21
  -1  -8   3  250.18   17.74
   1  -8  -3  223.58   15.74
  -1  -8   3  239.48   27.73
   1  -8  -3  308.59   21.52
   1   8  -3  282.36   19.53
  -1   8   3  253.61   28.07
   1   8  -2    4.99    2.05
  -1   8   2   18.43    6.67
  -1  -8   2   -0.13    3.48
   1  -8  -2    6.50    3.43
  -1  -8   2   14.03    5.10
   1  -8  -2    4.68    4.64
   1   8  -2    4.16    3.35
  -1   8   2    5.49    3.52
   1   8  -1   47.60    9.60
  -1   8   1   44.83   10.32
  -1  -8   1   66.56    8.50
   1  -8  -1   39.78    6.76
  -1  -8   1   59.16    6.89
   1  -8  -1   29.08    6.94
   1   8  -1   39.91    9.36
  -1   8   1   38.59    7.21
   1   8   0   34.70    7.71
  -1   8   0   36.84    7.14
   1  -8   0   31.83    6.09
  -1  -8   0   35.39    7.77
  -1  -8   0   38.97    7.18
   1  -8   0   39.63    7.98
   1   8   0   27.14    6.18
  -1   8   0   40.01    7.75
   1   8   1   80.33    8.64
  -1   8  -1   86.16    8.27
   1  -8   1   90.93    8.16
  -1  -8  -1   51.71    9.47
   1  -8   1   66.04    8.11
  -1  -8  -1   67.13    6.75
   1   8   1   74.87    8.87
  -1   8  -1   93.78    9.46
   1   8   2   -3.23    4.43
  -1   8  -2    9.24    2.58
   1  -8   2   12.77    4.54
  -1  -8  -2    4.44    3.72
   1  -8   2   14.53    6.46
  -1  -8  -2    6.81    3.40
   1   8   2    6.47    4.02
  -1   8  -2    6.27    5.19
   1   8   3  375.56   27.13
  -1   8  -3  421.82   27.29
   1  -8   3  427.66   27.53
  -1  -8  -3  373.73   25.08
   1  -8   3  434.25   28.29
  -1  -8  -3  372.44   24.14
   1   8   3  377.63   24.27
  -1   8  -3  414.47   27.42
   1   8   4    5.78    3.21
  -1   8  -4    8.28    3.98
   1  -8   4    9.40    3.98
  -1  -8  -4   -0.09    3.54
   1  -8   4   17.49    6.36
  -1  -8  -4    4.52    3.13
   1   8   4    4.97    1.84
  -1   8  -4   11.93    6.42
   1   8   5   68.99    9.22
  -1   8  -5  106.76    9.67
   1  -8   5  101.47   10.18
  -1  -8  -5  113.98   11.22
   1  -8   5   84.10   14.79
  -1  -8  -5  102.24    9.83
   1   8   5  103.72    9.76
  -1   8  -5  109.87   17.98
  -1   8  -6   16.75    5.83
   1   8   6    3.06    3.60
   1  -8   6    9.23    4.02
  -1  -8  -6   30.22    8.06
   1  -8   6   12.36    5.20
  -1  -8  -6   12.84    4.95
   1   8   6    7.47    3.18
  -1   8  -6   -1.64    3.76
  -1   8  -7   30.95    6.53
   1   8   7   28.54    7.48
   1  -8   7   12.82    5.06
  -1  -8  -7   29.05    7.36
   1  -8   7   12.69    4.39
  -1  -8  -7   23.66    6.62
   1   8   7   27.88    6.06
  -1   8  -7   11.43    6.22
   1   8   8   14.02    5.31
   1  -8   8   14.80    5.70
  -1  -8  -8   21.80    6.04
   1  -8   8   14.99    5.92
  -1  -8  -8    5.22    4.32
   1   8   8    8.47    2.03
  -1   8  -9  161.80   14.19
   1   8   9  131.46   11.23
   1  -8   9  179.43   11.80
  -1  -8  -9  175.97   12.76
   1  -8   9  160.54   21.48
  -1  -8  -9  153.30   11.25
   1   8   9  149.22   14.73
  -1   8  -9  141.47   11.12
  -1   8 -10    7.06    1.50
   1   8  10    0.92    4.61
   1  -8  10   14.65    5.03
  -1  -8 -10    1.08    2.50
   1  -8  10   11.53    3.52
  -1  -8 -10    8.93    6.01
   1   8  10    0.35    1.69
  -1   8 -10    5.05    3.48
  -1   8 -11  200.16   18.92
   1   8  11  227.90   19.43
   1  -8  11  233.01   19.94
  -1  -8 -11  236.80   27.35
   1  -8  11  256.03   32.73
  -1  -8 -11  243.97   21.25
   1   8  11  231.77   18.51
  -1   8 -11  198.11   17.73
  -1   8 -12    2.76    1.39
   1   8  12    5.40    4.65
   1  -8  12   12.49    4.72
  -1  -8 -12    3.47    4.13
   1  -8  12   13.38    5.66
  -1  -8 -12   -0.08    3.18
   1   8  12    1.10    1.00
  -1   8 -12    0.04    4.86
   1   8  13    3.66    4.14
   1  -8  13   15.91    5.82
  -1  -8 -13   12.57    6.32
   1  -8  13   18.39    4.80
  -1  -8 -13    8.48    3.86
  -1   8 -13    2.67    4.67
   1  -8  14   17.91    6.09
  -1  -8 -14   15.62    5.12
   1  -8  14   20.45    6.04
  -1  -8 -14    2.39    3.79
  -1   8 -14   12.02    6.56
   1   8  15  118.19   15.18
   1  -8  15   90.24   12.29
  -1  -8 -15   73.50   11.35
   1  -8  15   90.03   20.56
  -1  -8 -15   91.37   11.97
  -1   8 -15   90.35   16.27
   1   8  16   12.49    6.28
   1  -8  16   26.71    7.42
  -1  -8 -16    5.95    4.16
   1  -8  16   11.13    5.96
  -1  -8 -16   15.60    6.67
  -1   8 -16   21.52    6.08
   1   8  17   56.76   12.62
   1  -8  17   41.09   11.05
  -1  -8 -17   57.40   12.46
   1  -8  17   68.84   13.99
  -1  -8 -17   70.15   14.18
  -1   8 -17   38.88   11.46
   1   8  18    6.68    4.44
   1  -8  18    6.36    3.25
  -1  -8 -18   11.46    4.46
   1  -8  18   26.86    6.55
  -1  -8 -18    7.97    3.88
  -1   8 -18   -0.62    4.63
   1   8  19    0.16    4.10
   1  -8  19    9.34    4.60
  -1  -8 -19    9.56    4.82
  -1  -8 -19   22.52    6.49
  -1   8 -19    6.02    3.27
   1   8  20    3.16    4.54
   1  -8  20   20.17    5.24
  -1  -8 -20   16.80    5.19
   1  -8  20   11.21    6.12
  -1  -8 -20    1.97    4.30
  -1   8 -20   10.03    5.75
   1   8  21    7.97    4.85
   1  -8  21   15.25    7.58
  -1  -8 -21   11.87    5.66
   1  -8  21   31.22   11.10
  -1  -8 -21   33.95    8.35
  -1   8 -21   13.67    7.74
   1   8  22    0.77    3.86
   1  -8  22   18.25    7.61
   1  -8  22   11.82    5.29
  -1  -8 -22   17.92    8.01
  -1   8 -22   10.33    6.48
   1   8  23   18.66    6.83
   1  -8  23   20.63    7.62
  -1  -8 -23   27.29    9.05
  -1   8 -23   16.01    6.26
  -1   8 -23    8.22    5.33
   1   8  24    0.54    2.69
   1  -8  24    8.59    3.93
  -1  -8 -24   -0.18    4.43
  -1   8 -24   -0.12    5.26
  -1   8 -24   18.34    6.88
   1   8  25    6.53    3.70
  -1  -8 -25   -2.85    4.00
  -1   8 -25    8.42    4.74
  -1   8 -25   10.41    5.99
  -1   9  24    2.83    4.83
  -1  -9  24   14.78    5.10
   1  -9 -24    6.21    4.34
   1  -9 -24    2.14    4.58
   1   9 -24   -2.01    3.88
   1   9 -24   18.84    8.56
  -1   9  23   18.62    8.44
  -1  -9  23    8.91    5.07
   1  -9 -23   11.35    4.78
   1  -9 -23    5.27    4.73
   1   9 -23    5.01    4.64
   1   9 -23   28.60   11.27
  -1   9  22   15.47    4.91
  -1  -9  22    6.79    3.40
   1  -9 -22    3.38    3.90
   1  -9 -22   11.55    5.37
   1   9 -22    5.58    4.63
   1   9 -22   -5.04    5.03
  -1   9  21   16.73    7.64
  -1  -9  21    6.28    5.06
   1  -9 -21   19.90    6.35
   1  -9 -21   19.15    7.53
   1   9 -21    8.40    4.41
   1   9 -21   21.27    9.09
  -1   9  20    8.93    5.05
  -1  -9  20    0.24    3.88
   1  -9 -20    0.21    3.69
  -1  -9  20    5.20    3.05
   1  -9 -20    3.36    4.04
   1   9 -20   -2.96    4.86
  -1   9  19    6.59    4.21
  -1  -9  19   12.29    5.34
   1  -9 -19    5.08    4.18
  -1  -9  19   10.00    5.05
   1  -9 -19    9.12    4.94
   1   9 -19   16.43    6.32
  -1  -9  18    6.97    4.13
   1  -9 -18   -0.99    3.47
  -1  -9  18   12.31    4.98
   1  -9 -18   16.11    5.34
   1   9 -18   11.12    8.49
  -1   9  17    2.17    4.04
  -1  -9  17   10.67    5.25
   1  -9 -17    3.50    3.91
   1  -9 -17    7.22    4.42
   1   9 -17   14.20    7.59
  -1   9  16   56.90   10.24
  -1  -9  16   48.87    9.58
   1  -9 -16   39.21    9.54
  -1  -9  16   25.04    7.76
   1  -9 -16   20.36    6.01
   1   9 -16   26.36    7.15
  -1   9  15   21.50    7.34
  -1  -9  15    4.31    4.34
   1  -9 -15   11.58    5.36
  -1  -9  15    3.13    2.11
   1  -9 -15   17.73    6.92
   1   9 -15    9.11    5.41
   1   9 -14   15.15    5.31
  -1   9  14   64.24   13.20
  -1  -9  14   19.82    6.19
   1  -9 -14   25.28    7.29
  -1  -9  14   17.19    6.67
   1  -9 -14   36.73    9.35
   1   9 -14   21.47    5.87
  -1   9  14   17.84    5.45
   1   9 -13   36.73    7.83
  -1   9  13   37.35    8.31
  -1  -9  13   39.16    7.79
   1  -9 -13   36.48    7.50
  -1  -9  13   54.49   11.83
   1  -9 -13   48.96    9.34
   1   9 -13   58.81   10.24
  -1   9  13   34.59    6.90
   1   9 -12    2.96    2.06
  -1   9  12    7.75    5.00
  -1  -9  12   24.51    8.05
   1  -9 -12    3.68    3.64
  -1  -9  12    7.51    2.31
   1  -9 -12    6.16    4.68
  -1   9  12    3.89    2.20
   1   9 -11    2.35    1.92
  -1   9  11   14.17    7.38
  -1  -9  11    7.31    4.37
   1  -9 -11    4.90    3.52
  -1  -9  11    6.32    2.84
   1  -9 -11   11.59    5.26
   1   9 -11    1.92    4.04
  -1   9  11    3.18    3.01
   1   9 -10    7.54    2.41
  -1   9  10   22.24    7.43
  -1  -9  10   26.83    7.79
   1  -9 -10   13.22    4.93
  -1  -9  10    6.20    3.81
   1  -9 -10   13.85    6.98
   1   9 -10    8.75    3.92
  -1   9  10    2.00    2.50
   1   9  -9    6.50    2.28
  -1   9   9    7.44    4.45
  -1  -9   9    3.61    3.70
   1  -9  -9    9.04    4.24
  -1  -9   9    6.05    3.59
   1  -9  -9    4.12    4.34
   1   9  -9   10.82    5.36
  -1   9   9    8.99    3.12
   1   9  -8   29.44    7.45
  -1   9   8   26.07    7.21
  -1  -9   8   37.85    8.46
   1  -9  -8   35.95    9.25
  -1  -9   8   43.74    7.87
   1  -9  -8   55.48    9.74
   1   9  -8   32.28    8.03
  -1   9   8   33.10    7.57
   1   9  -7   17.73    5.61
  -1   9   7   16.70    6.49
  -1  -9   7   32.94    7.20
   1  -9  -7   12.20    4.80
  -1  -9   7   16.30    4.92
   1  -9  -7   18.65    5.32
   1   9  -7    7.04    4.00
  -1   9   7   16.80    5.23
   1   9  -6   12.31    5.68
  -1   9   6   10.76    5.95
  -1  -9   6    1.75    3.64
   1  -9  -6   12.38    5.18
  -1  -9   6    6.70    3.36
   1  -9  -6   13.36    5.96
   1   9  -6   22.03    7.03
  -1   9   6   10.67    3.71
   1   9  -5   23.87    6.82
  -1   9   5   19.64    4.64
  -1  -9   5   21.12    5.50
   1  -9  -5   33.08    7.31
  -1  -9   5   32.99    7.84
   1  -9  -5   20.31    6.60
   1   9  -5   22.49    6.38
  -1   9   5   25.12    6.64
   1   9  -4    2.71    2.10
  -1   9   4    3.01    2.60
  -1  -9   4   18.67    5.62
   1  -9  -4   17.70    6.06
  -1  -9   4   14.41    4.82
   1  -9  -4   14.07    6.52
   1   9  -4    1.11    3.22
  -1   9   4    5.64    3.27
   1   9  -3    6.78    2.86
  -1   9   3   11.19    5.38
  -1  -9   3   -1.73    3.41
   1  -9  -3    4.50    3.98
  -1  -9   3   -1.01    2.95
   1  -9  -3    4.35    4.03
   1   9  -3    6.21    3.49
  -1   9   3   12.35    4.12
   1   9  -2    3.77    4.23
  -1   9   2   -5.31    3.73
  -1  -9   2    5.55    3.67
   1  -9  -2    9.09    6.02
  -1  -9   2    7.34    3.44
   1  -9  -2    8.77    4.55
   1   9  -2    5.48    4.99
  -1   9   2   12.79    4.74
   1   9  -1   49.45    9.89
  -1   9   1   52.20    7.85
  -1  -9   1   33.46    7.12
   1  -9  -1   34.92    8.12
  -1  -9   1   36.28    8.04
   1  -9  -1   46.79    6.95
   1   9  -1   45.96    7.13
  -1   9   1   41.86    8.19
   1   9   0   20.86    6.03
  -1   9   0   20.73    6.01
   1  -9   0   13.56    6.13
  -1  -9   0   14.34    4.41
  -1  -9   0   21.83    5.57
   1  -9   0   14.50    6.34
   1   9   0   21.07    4.88
  -1   9   0   19.25    5.00
   1   9   1   13.21    4.83
  -1   9  -1    7.66    4.88
   1  -9   1   17.73    6.77
  -1  -9  -1   13.10    5.53
   1  -9   1   11.83    5.79
  -1  -9  -1   12.91    4.95
   1   9   1    5.61    3.28
  -1   9  -1   11.17    4.33
   1   9   2   19.49    5.85
  -1   9  -2    9.80    4.05
   1  -9   2   -2.53    3.83
  -1  -9  -2    0.30    3.59
   1  -9   2    9.89    6.16
  -1  -9  -2    0.78    3.16
   1   9   2   -2.02    3.22
  -1   9  -2    2.97    3.77
   1   9   3    8.82    3.50
  -1   9  -3    4.10    3.13
   1  -9   3    3.28    3.88
  -1  -9  -3    7.44    3.67
   1  -9   3    4.19    4.04
  -1  -9  -3    5.97    4.81
   1   9   3    6.68    2.93
  -1   9  -3    0.52    4.12
   1   9   4   25.02    5.84
  -1   9  -4   13.76    5.45
   1  -9   4   15.13    6.09
  -1  -9  -4    9.18    5.11
   1  -9   4   21.99    5.19
  -1  -9  -4    9.57    5.12
   1   9   4    8.14    3.69
  -1   9  -4   15.86    6.79
  -1   9  -5   12.20    5.33
   1   9   5   16.21    7.74
   1  -9   5   17.10    6.58
  -1  -9  -5   21.62    6.06
   1  -9   5   17.70    5.54
  -1  -9  -5    8.34    3.55
   1   9   5   12.24    4.61
  -1   9  -5    8.88    4.54
  -1   9  -6   16.37    5.12
   1   9   6    1.98    3.86
   1  -9   6    4.73    4.03
  -1  -9  -6   10.72    5.96
   1  -9   6    6.01    5.34
  -1  -9  -6    5.17    3.24
   1   9   6    5.22    2.38
  -1   9  -6    6.77    4.53
  -1   9  -7   61.17   10.45
   1   9   7   42.16    8.96
   1  -9   7   81.65    9.17
  -1  -9  -7   55.87    7.11
   1  -9   7   45.03   10.59
  -1  -9  -7   81.39    8.95
   1   9   7   57.06    6.95
  -1   9  -7   57.05   10.70
  -1   9  -8    5.48    2.67
   1   9   8    7.83    4.85
   1  -9   8    4.56    3.73
  -1  -9  -8   16.87    7.15
   1  -9   8    3.05    2.99
  -1  -9  -8    4.27    3.47
   1   9   8    7.06    3.27
  -1   9  -8    6.07    3.95
  -1   9  -9    5.12    2.09
   1   9   9    2.18    4.71
   1  -9   9   12.45    5.46
  -1  -9  -9   16.58    6.53
   1  -9   9   15.50    5.66
  -1  -9  -9   10.60    5.11
   1   9   9   10.40    3.69
  -1   9  -9    6.33    5.46
  -1   9 -10    2.62    1.59
   1   9  10    5.45    2.32
   1  -9  10    2.22    3.17
  -1  -9 -10   -0.96    3.98
   1  -9  10    6.15    3.05
  -1  -9 -10    8.44    4.66
   1   9  10    3.96    2.07
  -1   9 -10    4.00    4.98
  -1   9 -11   15.94    4.50
   1   9  11   20.67    7.15
   1  -9  11   15.32    6.09
  -1  -9 -11   34.88    8.14
   1  -9  11   16.34    6.45
  -1  -9 -11    5.21    3.42
   1   9  11    7.02    2.70
  -1   9 -11    7.90    3.35
   1   9  12   12.40    6.21
   1  -9  12    5.70    4.01
  -1  -9 -12    9.93    4.41
   1  -9  12   25.59    6.74
  -1  -9 -12    4.65    4.54
  -1   9 -12   20.60    7.97
   1   9  13   12.19    5.09
   1  -9  13   10.90    4.59
  -1  -9 -13    9.14    3.44
   1  -9  13   11.28    5.35
  -1  -9 -13   11.65    5.22
  -1   9 -13    7.61    6.18
   1   9  14    0.82    3.70
   1  -9  14   20.30    5.21
  -1  -9 -14   -0.61    3.62
   1  -9  14   13.16    5.82
  -1  -9 -14   18.73    4.82
  -1   9 -14   13.02    5.02
   1  -9  15   39.05    7.70
  -1  -9 -15   39.10    9.22
   1  -9  15   23.27   10.02
  -1  -9 -15   20.21    4.70
  -1   9 -15   41.81   11.16
   1   9  16   16.83    6.05
   1  -9  16    4.17    3.83
  -1  -9 -16   17.70    5.84
   1  -9  16    4.04    2.03
  -1  -9 -16   16.36    6.20
  -1   9 -16   15.95    5.02
   1   9  17   14.03    7.34
   1  -9  17    3.55    3.90
  -1  -9 -17   11.09    6.91
   1  -9  17    9.45    5.00
  -1  -9 -17    0.04    3.64
  -1   9 -17    7.06    3.35
   1   9  18   19.81    6.69
   1  -9  18   15.52    6.33
  -1  -9 -18    9.18    5.27
   1  -9  18    3.56    3.27
  -1   9 -18    6.18    5.65
   1   9  19   23.09    8.35
   1  -9  19   11.35    5.59
  -1  -9 -19   13.08    6.28
   1  -9  19    8.80    3.05
  -1  -9 -19   10.18    5.56
  -1   9 -19   40.38   12.54
   1   9  20   22.97    9.03
   1  -9  20   22.59    7.15
  -1  -9 -20   18.62    7.39
   1  -9  20    7.51    4.08
  -1  -9 -20   19.56    7.94
  -1   9 -20   11.99    5.94
   1   9  21   23.69   11.35
   1  -9  21   11.25    3.59
  -1  -9 -21    8.59    5.19
   1  -9  21   16.38    6.80
  -1  -9 -21   14.36    5.52
  -1   9 -21   41.98   14.43
   1   9  22   18.42    8.36
   1  -9  22   15.04    6.41
  -1  -9 -22   17.61    8.08
   1  -9  22   13.57    6.80
  -1  -9 -22   15.02    6.97
  -1   9 -22   19.83   10.72
   1   9  23   23.04    8.39
   1  -9  23    9.46    4.87
  -1  -9 -23    7.59    6.83
  -1  -9 -23   13.42    6.70
  -1   9 -23    8.56    6.04
  -1  10  21   21.03    8.90
  -1 -10  21   19.70    8.50
   1 -10 -21    9.47    7.23
  -1 -10  21   10.40    4.42
   1 -10 -21    9.82    4.94
   1  10 -21    0.69    5.41
  -1  10  20   11.10    5.92
  -1 -10  20   41.66   14.62
   1 -10 -20   10.39    5.04
  -1 -10  20   18.68    6.25
   1 -10 -20   23.59    8.48
   1  10 -20   23.48    9.09
  -1  10  19    8.64    5.01
  -1 -10  19    6.62    6.25
   1 -10 -19    0.60    3.84
  -1 -10  19    0.46    2.90
   1 -10 -19    4.11    4.59
   1  10 -19    1.86    5.80
  -1  10  18   16.17    5.89
  -1 -10  18   16.48    7.96
   1 -10 -18   27.03    9.14
  -1 -10  18   21.59    8.81
   1 -10 -18    8.30    4.96
   1  10 -18    8.59    5.27
  -1  10  17    4.80    4.48
  -1 -10  17   20.44    8.62
  -1 -10  17    3.49    2.50
   1 -10 -17    4.97    6.48
   1  10 -17   15.98    6.72
  -1  10  16   12.42    5.84
  -1 -10  16   11.89    5.86
   1 -10 -16    8.98    3.71
  -1 -10  16    8.79    3.35
   1 -10 -16   24.68    8.85
   1  10 -16   22.49    9.00
  -1 -10  15    1.58    3.98
   1 -10 -15    1.82    3.66
  -1 -10  15    3.05    2.73
   1 -10 -15   22.85    8.26
   1  10 -15    9.25    4.35
  -1  10  14   18.86    8.19
  -1 -10  14    2.88    5.13
   1 -10 -14    8.20    5.34
  -1 -10  14    8.96    3.33
   1 -10 -14    7.45    4.94
   1  10 -14    4.62    3.95
  -1  10  13   14.70    6.21
  -1 -10  13   30.04    7.81
   1 -10 -13   16.79    6.14
  -1 -10  13   15.66    5.55
   1 -10 -13    4.42    5.75
   1  10 -13    5.02    5.42
   1  10 -12   30.80    7.15
  -1  10  12   34.52    9.27
  -1 -10  12   35.25    9.09
   1 -10 -12   48.72    9.76
  -1 -10  12   25.80    6.94
   1 -10 -12   27.62    7.11
   1  10 -12   19.13    5.89
  -1  10  12   34.19    6.77
   1  10 -11    5.78    1.97
  -1  10  11    9.44    4.88
  -1 -10  11   11.41    4.63
   1 -10 -11    4.41    3.45
  -1 -10  11    7.58    3.58
   1 -10 -11    6.35    5.84
   1  10 -11    6.38    6.65
  -1  10  11    5.02    2.64
   1  10 -10   33.38    9.75
  -1  10  10   53.20   14.17
  -1 -10  10   34.39    8.68
   1 -10 -10   34.85    9.63
  -1 -10  10   34.54    9.28
   1 -10 -10   48.15    9.04
   1  10 -10   39.80    9.56
  -1  10  10   42.30    7.96
   1  10  -9    7.51    3.72
  -1  10   9    5.04    4.16
  -1 -10   9    5.06    4.86
   1 -10  -9    3.41    2.58
  -1 -10   9    1.83    2.02
   1 -10  -9    8.94    4.38
   1  10  -9   -2.71    4.39
  -1  10   9    4.55    2.86
   1  10  -8    8.20    2.79
  -1  10   8   17.14    6.93
  -1 -10   8    7.57    6.61
   1 -10  -8   11.19    5.33
  -1 -10   8    9.65    3.37
   1 -10  -8    7.22    4.26
   1  10  -8   14.10    6.57
  -1  10   8    8.87    4.29
   1  10  -7    6.24    2.32
  -1  10   7    9.51    4.83
  -1 -10   7   -0.80    4.33
   1 -10  -7    3.92    4.45
  -1 -10   7    3.57    3.42
   1 -10  -7   20.89    7.41
   1  10  -7   15.55    6.28
  -1  10   7    1.26    2.53
   1  10  -6   18.60    8.11
  -1  10   6   11.82    5.61
  -1 -10   6    8.59    4.63
   1 -10  -6   27.32    5.82
  -1 -10   6   24.61    7.89
   1 -10  -6   18.49    6.89
   1  10  -6   29.75    6.54
  -1  10   6    8.64    3.35
   1  10  -5   10.90    3.26
  -1  10   5    0.24    3.87
  -1 -10   5    9.67    4.49
   1 -10  -5    4.75    3.22
  -1 -10   5    6.62    3.11
   1 -10  -5    4.39    4.02
   1  10  -5   10.11    6.63
  -1  10   5    7.30    3.13
   1  10  -4   51.70    9.64
  -1  10   4   51.62   10.78
  -1 -10   4   73.32   11.63
   1 -10  -4   46.87    8.37
  -1 -10   4   56.86   12.62
   1 -10  -4   69.41   11.92
   1  10  -4   47.34    9.22
  -1  10   4   37.60    7.12
   1  10  -3    3.74    2.49
  -1  10   3   10.80    4.32
  -1 -10   3    1.64    4.18
   1 -10  -3    6.31    3.56
  -1 -10   3    8.99    3.45
   1 -10  -3    8.79    6.05
   1  10  -3   10.96    5.28
  -1  10   3    8.06    4.03
   1  10  -2   46.01    9.93
  -1  10   2   48.84    7.95
  -1 -10   2   51.35    8.53
   1 -10  -2   51.31    8.09
  -1 -10   2   57.98   14.44
   1 -10  -2   48.79    9.51
   1  10  -2   47.40    8.96
  -1  10   2   50.07    8.03
   1  10  -1   -0.64    3.30
  -1  10   1   15.48    6.41
   1 -10  -1    5.52    3.20
  -1 -10   1    1.35    4.34
  -1 -10   1    1.55    3.09
   1 -10  -1    0.76    4.04
   1  10  -1   10.57    3.36
  -1  10   1    4.58    3.29
   1  10   0    2.40    1.81
  -1  10   0   17.42    5.94
   1 -10   0    4.05    3.22
  -1 -10   0    0.13    3.96
  -1 -10   0   11.85    5.94
   1 -10   0   19.41    7.10
   1  10   0    7.10    4.28
  -1  10   0    6.75    3.92
   1  10   1   14.60    6.32
  -1  10  -1   17.65    6.10
   1 -10   1   -4.62    3.05
  -1 -10  -1    1.59    4.09
   1 -10   1   13.41    4.25
  -1 -10  -1    5.15    3.45
   1  10   1    4.90    3.65
  -1  10  -1    8.25    4.35
   1  10   2   55.28   10.58
  -1  10  -2   33.39    6.98
   1 -10   2   31.05    5.88
  -1 -10  -2   29.90    7.44
   1 -10   2   47.90    8.86
  -1 -10  -2   41.63    7.55
   1  10   2   28.00    5.79
  -1  10  -2   20.12    7.25
   1  10   3   -0.49    3.89
  -1  10  -3    7.81    4.07
   1 -10   3    4.38    2.61
  -1 -10  -3   11.36    8.10
   1 -10   3    9.02    3.18
  -1 -10  -3   15.68    6.67
   1  10   3   10.02    4.31
  -1  10  -3    4.60    3.22
   1  10   4   69.22   10.85
  -1  10  -4   72.75   12.54
   1 -10   4   57.41    8.34
  -1 -10  -4   91.38   13.12
   1 -10   4   73.29   16.30
  -1 -10  -4   83.04   11.84
   1  10   4   71.58    9.53
  -1  10  -4   79.11   12.19
  -1  10  -5    7.22    3.79
   1  10   5   11.89    5.80
   1 -10   5    4.13    2.65
  -1 -10  -5   13.77    6.97
   1 -10   5    8.55    3.79
  -1 -10  -5    4.06    3.16
   1  10   5    7.59    4.08
  -1  10  -5   21.47    7.23
  -1  10  -6    4.91    2.62
   1  10   6   16.41    6.83
   1 -10   6    3.53    3.37
  -1 -10  -6    9.00    4.95
   1 -10   6   -4.03    3.64
  -1 -10  -6    6.70    3.62
   1  10   6    5.95    3.78
  -1  10  -6    5.16    3.51
  -1  10  -7    8.09    4.12
   1  10   7   13.04    4.81
   1 -10   7    9.15    4.03
  -1 -10  -7   12.43    5.49
   1 -10   7    8.70    3.31
  -1 -10  -7    1.10    3.27
   1  10   7    3.77    2.56
  -1  10  -7    3.97    5.04
  -1  10  -8   23.60    7.17
   1  10   8   28.02    7.18
   1 -10   8   36.94    7.88
  -1 -10  -8   48.22   12.20
   1 -10   8   47.08    9.41
  -1 -10  -8   45.50    9.68
   1  10   8   22.41    5.94
  -1  10  -8   39.95   10.13
  -1  10  -9    1.10    1.08
   1  10   9    7.70    5.43
   1 -10   9    3.20    3.79
  -1 -10  -9    5.89    4.50
   1 -10   9    8.45    3.15
  -1 -10  -9    2.19    3.38
   1  10   9    4.94    2.64
  -1  10  -9    9.42    6.25
   1  10  10   47.98   10.27
   1 -10  10   49.24    8.84
  -1 -10 -10   49.99    9.67
   1 -10  10   50.95   13.17
  -1 -10 -10   58.39   10.26
  -1  10 -10   50.75   10.86
   1  10  11   14.51    4.53
   1 -10  11    3.34    3.86
  -1 -10 -11    1.73    3.92
   1 -10  11    8.96    4.45
  -1 -10 -11    7.93    5.53
  -1  10 -11   12.74    7.25
   1  10  12   26.93   10.24
   1 -10  12   24.14    7.09
  -1 -10 -12   28.75    8.48
   1 -10  12   25.39    6.56
  -1 -10 -12   30.73    9.10
  -1  10 -12    7.64    5.23
   1  10  13    5.83    4.28
   1 -10  13    8.37    5.80
  -1 -10 -13    1.63    3.48
   1 -10  13    7.90    3.77
  -1 -10 -13    7.78    4.38
  -1  10 -13    9.88    4.69
   1  10  14    4.96    5.23
   1 -10  14   14.76    6.27
  -1 -10 -14    7.81    4.05
   1 -10  14    4.98    2.87
  -1 -10 -14   23.14    6.90
  -1  10 -14   19.89    8.31
   1  10  15   15.00    6.76
   1 -10  15    7.01    4.02
  -1 -10 -15    0.67    4.08
   1 -10  15    2.59    2.28
  -1 -10 -15    4.86    5.31
  -1  10 -15   13.54    8.74
   1  10  16   60.49    9.86
   1 -10  16   40.41   11.47
  -1 -10 -16   13.11    7.37
   1 -10  16   28.70   16.53
  -1 -10 -16   30.91    9.49
  -1  10 -16   45.55   13.90
   1  10  17   14.01    6.29
   1 -10  17    5.32    4.16
  -1 -10 -17    8.30    4.90
   1 -10  17    3.03    2.34
  -1 -10 -17   14.41    7.30
  -1  10 -17   12.28    7.08
   1  10  18   20.11    7.47
   1 -10  18   13.27    5.81
  -1 -10 -18   11.41    4.15
   1 -10  18    6.62    2.71
  -1 -10 -18   18.01    7.42
  -1  10 -18   30.01   12.69
   1 -10  19   14.30    5.29
  -1 -10 -19   26.28   10.22
   1 -10  19    8.97    3.37
  -1 -10 -19    2.27    4.17
  -1  10 -19    2.43    5.31
   1  10  20   -0.17    4.17
   1 -10  20   -3.52    4.53
  -1 -10 -20    7.91    5.08
   1 -10  20   -5.16    4.14
  -1 -10 -20    9.23    5.71
  -1  10 -20    7.85    6.20
  -1  11  17    8.30    5.47
  -1 -11  17    7.77    4.99
   1 -11 -17   14.40    5.92
  -1 -11  17    9.63    4.75
   1 -11 -17   -0.55    4.34
   1  11 -17    8.88    7.18
  -1  11  16   15.15    7.61
  -1 -11  16   15.55    7.66
   1 -11 -16    2.25    3.56
  -1 -11  16   11.80    5.39
   1 -11 -16    4.26    6.36
   1  11 -16   13.86    8.60
  -1  11  15   -1.42    4.30
  -1 -11  15    4.86    4.69
   1 -11 -15   22.26    7.45
  -1 -11  15   23.78    8.55
   1 -11 -15   16.21    7.54
   1  11 -15   13.57    6.98
  -1  11  14    1.73    4.56
  -1 -11  14    6.91    5.74
   1 -11 -14    7.97    4.16
  -1 -11  14    8.25    4.40
   1 -11 -14   -0.25    4.13
   1  11 -14    7.62    4.45
  -1  11  13   21.12    7.36
  -1 -11  13   24.30    9.85
   1 -11 -13   29.58    9.42
  -1 -11  13   12.46    5.25
   1 -11 -13   20.07    7.96
   1  11 -13   28.42   12.21
  -1  11  12   11.09    5.00
  -1 -11  12   12.31    6.55
   1 -11 -12    9.65    4.51
  -1 -11  12    9.81    5.18
   1 -11 -12    3.49    5.71
   1  11 -12   -7.06    5.24
  -1  11  11   20.68    7.22
  -1 -11  11    2.66    4.45
   1 -11 -11    3.58    2.36
  -1 -11  11    8.51    3.32
   1 -11 -11    8.90    3.13
   1  11 -11   -3.90    4.73
   1  11 -10    3.00    1.85
  -1  11  10    6.11    2.46
  -1 -11  10    3.07    4.50
   1 -11 -10    7.83    3.74
  -1 -11  10   11.47    4.05
   1 -11 -10   11.04    4.45
   1  11 -10    6.48    5.05
  -1  11  10    2.77    2.05
   1  11  -9    2.46    1.74
  -1  11   9   15.70    6.21
  -1 -11   9   10.26    4.95
   1 -11  -9    8.32    3.83
  -1 -11   9    1.55    3.60
   1 -11  -9   14.74    5.13
   1  11  -9    8.15    5.25
  -1  11   9   10.37    4.81
   1  11  -8   -3.58    2.84
  -1  11   8   17.45    7.03
  -1 -11   8   28.20    8.02
   1 -11  -8   15.58    5.80
  -1 -11   8   10.34    5.02
   1 -11  -8    6.86    4.20
   1  11  -8   10.51    5.84
  -1  11   8    2.99    1.78
   1  11  -7   53.19   12.27
  -1  11   7   57.58   11.99
  -1 -11   7   44.84   10.05
   1 -11  -7   64.08   12.83
  -1 -11   7   54.26   13.92
   1 -11  -7   56.51   11.54
   1  11  -7   66.40   19.91
  -1  11   7   82.45   23.92
   1  11  -6   16.93    5.19
  -1  11   6   42.81   10.94
  -1 -11   6   14.82    6.54
   1 -11  -6   16.20    5.85
  -1 -11   6    9.07    3.20
   1 -11  -6   10.30    4.99
   1  11  -6    9.57    4.78
  -1  11   6   12.06    5.50
   1  11  -5   11.08    4.11
  -1  11   5   17.98    6.62
  -1 -11   5    5.70    3.98
   1 -11  -5    3.17    3.73
  -1 -11   5   22.29    8.53
   1 -11  -5    3.22    4.48
   1  11  -5   25.14    7.05
  -1  11   5   14.96    5.37
   1  11  -4    6.40    3.50
  -1  11   4   13.88    5.92
  -1 -11   4    1.92    3.97
   1 -11  -4    7.70    4.31
  -1 -11   4    6.23    3.01
   1 -11  -4    5.44    4.28
   1  11  -4   13.98    6.57
  -1  11   4    4.66    2.94
   1  11  -3   14.87    5.01
  -1  11   3    1.35    3.81
  -1 -11   3   18.52    5.60
   1 -11  -3   15.11    6.06
  -1 -11   3    5.08    3.14
   1 -11  -3    2.35    4.12
   1  11  -3    8.18    4.82
  -1  11   3    8.96    5.08
   1  11  -2   15.68    6.18
  -1  11   2   21.02    7.30
  -1 -11   2   11.58    6.37
   1 -11  -2   14.33    6.63
  -1 -11   2    9.83    4.73
   1 -11  -2    8.43    6.14
   1  11  -2   10.64    5.38
  -1  11   2    5.12    3.72
   1  11  -1   39.59    9.85
  -1  11   1   16.02    8.67
   1 -11  -1   32.54    9.16
  -1 -11   1   41.00    9.49
  -1 -11   1   29.94    8.14
   1 -11  -1   41.53    9.33
   1  11  -1   26.58    8.35
  -1  11   1   33.26    8.48
   1  11   0   10.09    3.48
  -1  11   0   17.64    6.79
   1 -11   0    8.64    4.94
  -1 -11   0   38.38    9.72
  -1 -11   0   28.37    7.87
   1 -11   0   19.44    8.44
   1  11   0   34.83    9.47
  -1  11   0   16.71    5.96
   1  11   1   35.93    9.61
  -1  11  -1   33.58    8.98
   1 -11   1   57.05   11.43
  -1 -11  -1   42.84    9.39
   1 -11   1   46.57   10.21
  -1 -11  -1   25.65    7.94
   1  11   1   50.99   11.14
  -1  11  -1   26.28    7.36
   1  11   2   13.32    5.08
  -1  11  -2   21.50    8.96
   1 -11   2    4.14    3.44
  -1 -11  -2   -1.09    4.05
   1 -11   2   10.75    5.61
  -1 -11  -2   -3.55    3.54
   1  11   2    2.17    3.11
  -1  11  -2    7.43    4.36
   1  11   3    5.48    4.18
  -1  11  -3    6.46    3.46
   1 -11   3   -0.16    3.26
  -1 -11  -3    7.73    6.02
   1 -11   3    8.13    3.97
  -1 -11  -3    2.60    3.68
   1  11   3    4.82    3.21
  -1  11  -3   12.02    5.76
   1  11   4    9.46    4.39
  -1  11  -4   11.52    4.69
   1 -11   4   25.13    7.58
  -1 -11  -4    9.95    5.92
   1 -11   4   12.30    4.05
  -1 -11  -4    0.91    3.54
   1  11   4   13.46    5.19
  -1  11  -4    3.15    4.08
  -1  11  -5   26.82    8.46
   1  11   5   25.04    7.70
   1 -11   5   10.69    4.84
  -1 -11  -5   30.39    8.59
   1 -11   5   15.19    6.35
  -1 -11  -5    7.54    4.19
   1  11   5    6.72    4.49
  -1  11  -5   12.94    5.88
  -1  11  -6   31.74    6.73
   1  11   6    6.87    4.75
   1 -11   6   15.47    6.83
  -1 -11  -6   17.61    6.52
   1 -11   6   20.08    6.66
  -1 -11  -6    9.46    4.33
   1  11   6   24.25    6.58
  -1  11  -6   11.29    7.65
  -1  11  -7   11.85    4.70
   1  11   7   37.96   10.47
   1 -11   7   28.04    7.33
  -1 -11  -7   28.34    7.83
   1 -11   7   19.91    5.05
  -1 -11  -7   25.92    7.02
   1  11   7   20.71    5.39
  -1  11  -7   23.86    6.85
  -1  11  -8   10.61    4.55
   1  11   8   10.02    4.96
   1 -11   8    8.76    3.94
  -1 -11  -8   26.60    8.03
   1 -11   8   19.19    6.35
  -1 -11  -8   19.87    6.35
  -1  11  -8   14.00    7.03
   1  11   9   13.97    7.91
   1 -11   9   15.86    5.89
  -1 -11  -9    6.02    4.37
   1 -11   9   15.29    6.27
  -1 -11  -9   14.46    6.51
  -1  11  -9   24.58    7.88
   1  11  10   16.23    7.17
   1 -11  10    9.78    5.67
  -1 -11 -10    5.93    4.95
   1 -11  10    3.67    2.23
  -1 -11 -10   11.75    6.63
  -1  11 -10    8.04    6.71
   1  11  11   18.93    8.39
   1 -11  11   13.62    5.18
  -1 -11 -11   16.23    7.11
   1 -11  11   10.44    4.50
  -1 -11 -11    4.80    3.90
  -1  11 -11   11.49    7.03
   1  11  12   -1.25    4.16
   1 -11  12    2.43    3.87
  -1 -11 -12    8.97    6.39
   1 -11  12    2.32    4.89
  -1 -11 -12    9.42    4.31
  -1  11 -12    6.71    6.24
   1  11  13    4.77    5.48
   1 -11  13   16.42    6.65
  -1 -11 -13    9.97    4.64
   1 -11  13   44.73   14.24
  -1 -11 -13   64.55   18.89
   1  11  14    8.10    4.55
   1 -11  14    9.20    4.42
  -1 -11 -14    7.56    4.18
   1 -11  14   10.99    5.44
  -1 -11 -14   23.90    8.48
  -1  11 -14    3.48    5.93
   1  11  15   11.23    7.22
   1 -11  15   16.93    7.21
  -1 -11 -15    9.25    5.00
   1 -11  15   11.42    6.38
  -1 -11 -15   18.61    7.66
  -1  11 -15   39.63   13.65
   1  11  16    5.83    4.10
   1 -11  16    2.43    4.21
  -1 -11 -16    4.60    4.82
   1 -11  16    4.91    4.70
  -1 -11 -16   10.22    4.70
  -1  11 -16   12.61    9.88
  -1  12  12   18.23    8.43
  -1 -12  12   12.45    7.10
   1 -12 -12    1.35    3.35
  -1 -12  12   -0.53    3.38
   1 -12 -12    6.38    4.47
   1  12 -12   12.04    5.39
  -1  12  11    9.73    5.14
  -1 -12  11   21.37    9.83
   1 -12 -11   30.65   11.28
  -1 -12  11   12.73    7.09
   1 -12 -11    9.11    6.10
   1  12 -11   19.97    8.60
  -1  12  10   14.13    7.66
  -1 -12  10    4.17    4.37
  -1 -12  10   13.84    5.76
   1 -12 -10   11.10    6.62
   1  12 -10   -1.19    5.02
  -1  12   9    0.85    4.15
  -1 -12   9    7.46    5.07
   1 -12  -9    7.81    4.11
  -1 -12   9   16.10    5.10
   1 -12  -9   13.64    7.03
   1  12  -9   15.06    8.00
   1  12  -8    4.61    2.93
  -1  12   8    4.36    4.29
  -1 -12   8    6.74    4.72
   1 -12  -8    3.63    3.78
  -1 -12   8    7.63    4.04
   1 -12  -8    9.50    4.72
   1  12  -8    0.48    4.56
  -1  12   8    1.93    3.19
   1  12  -7   -0.37    2.96
  -1  12   7    6.85    4.82
  -1 -12   7    3.65    4.52
   1 -12  -7    0.00    3.86
  -1 -12   7    4.44    3.15
   1 -12  -7   29.72    9.66
   1  12  -7    9.67    5.36
  -1  12   7    0.85    1.85
   1  12  -6    4.42    3.46
  -1  12   6    5.14    4.03
  -1 -12   6    3.41    4.42
   1 -12  -6   13.32    6.81
  -1 -12   6    8.30    3.40
   1 -12  -6   -1.58    3.67
   1  12  -6    5.31    4.01
  -1  12   6   -1.62    3.22
   1  12  -5    2.63    1.67
  -1  12   5   26.89    8.95
  -1 -12   5    9.05    5.05
   1 -12  -5    6.55    5.04
  -1 -12   5    8.44    5.48
   1 -12  -5    5.93    4.31
   1  12  -5   -0.40    3.88
  -1  12   5    8.14    4.11
   1  12  -4   19.50    6.48
  -1  12   4   13.10    5.01
  -1 -12   4   26.01    9.05
   1 -12  -4    4.47    3.87
  -1 -12   4   25.76    8.25
   1 -12  -4   15.13    6.93
   1  12  -4    6.43    4.56
  -1  12   4    6.11    5.05
   1  12  -3   20.12    7.56
  -1  12   3   11.47    6.02
  -1 -12   3   11.56    5.51
   1 -12  -3   14.98    7.08
  -1 -12   3    3.95    4.34
   1 -12  -3   20.35    8.13
   1  12  -3    8.57    4.75
  -1  12   3    2.06    3.84
   1  12  -2    8.60    4.47
  -1  12   2    2.72    3.47
  -1 -12   2   19.90    7.91
   1 -12  -2    1.70    3.67
  -1 -12   2    8.56    3.53
   1 -12  -2   15.11    6.99
   1  12  -2    2.92    3.81
  -1  12   2    0.95    2.22
   1  12  -1   11.21    4.90
  -1  12   1    0.84    1.93
   1 -12  -1    2.44    3.85
  -1 -12   1   11.08    6.35
  -1 -12   1    5.31    3.80
   1 -12  -1   18.73    7.55
   1  12  -1    0.28    3.38
  -1  12   1   13.22    6.55
   1  12   0    9.12    3.32
  -1  12   0    4.49    3.34
  -1 -12   0    5.93    4.52
  -1 -12   0    7.22    2.65
   1 -12   0    0.49    4.26
   1  12   0   -0.86    3.41
  -1  12   0   -2.46    4.12
   1  12   1    3.39    3.44
  -1  12  -1    5.27    3.58
   1 -12   1   10.10    5.90
  -1 -12  -1   20.43    7.60
   1 -12   1    3.65    4.54
  -1 -12  -1    5.27    3.69
   1  12   1    0.54    3.26
  -1  12  -1   12.22    5.41
   1  12   2   12.12    8.06
  -1  12  -2   11.56    4.61
   1 -12   2    9.98    5.76
  -1 -12  -2   33.60   11.14
   1 -12   2   -0.57    4.03
  -1 -12  -2    0.83    2.37
   1  12   2   12.43    7.49
  -1  12  -2   11.98    5.30
   1  12   3   19.52    7.76
  -1  12  -3   12.80    6.87
   1 -12   3   17.12    6.85
  -1 -12  -3   16.02    8.31
   1 -12   3    1.39    6.25
  -1 -12  -3   20.42    8.06
   1  12   3   13.16    6.00
  -1  12  -3   19.29    8.09
  -1  12  -4   13.30    5.53
   1  12   4   10.62    6.51
   1 -12   4    7.53    5.31
  -1 -12  -4    0.61    3.84
   1 -12   4    4.26    2.48
  -1 -12  -4    9.86    4.27
   1  12   4   -0.81    3.10
  -1  12  -4   23.94    9.03
  -1  12  -5    9.43    3.68
   1  12   5   11.34    4.57
   1 -12   5   -2.01    3.74
  -1 -12  -5   16.32    7.09
   1 -12   5   13.83    5.44
  -1 -12  -5   17.26    6.96
   1  12   5   14.49    5.96
  -1  12  -5    7.00    4.92
   1  12   6    7.26    4.57
   1 -12   6   -1.19    3.71
  -1 -12  -6   10.14    5.09
   1 -12   6    8.42    3.14
  -1 -12  -6    6.27    3.64
  -1  12  -6    0.71    4.39
   1  12   7   11.96    5.48
   1 -12   7    7.23    4.19
  -1 -12  -7    5.46    4.64
   1 -12   7   12.00    5.49
  -1 -12  -7    4.78    4.08
  -1  12  -7   15.59    6.80
   1  12   8   13.34    7.09
   1 -12   8   10.94    6.13
  -1 -12  -8   15.11    7.36
   1 -12   8    6.63    2.74
  -1 -12  -8   10.13    5.89
  -1  12  -8    4.60    3.92
   1  12   9    5.13    4.41
   1 -12   9   17.76    7.82
  -1 -12  -9   10.21    5.10
   1 -12   9   11.05    3.52
  -1 -12  -9    9.02    6.03
  -1  12  -9   12.30    6.38
   1  12  10    2.04    4.42
   1 -12  10    4.90    4.09
  -1 -12 -10   17.56    8.73
   1 -12  10    3.74    2.43
  -1 -12 -10    5.36    3.91
  -1  12 -10   -2.57    5.73
   1  12  11    9.11    7.42
   1 -12  11    4.98    4.33
  -1 -12 -11    4.50    4.42
   1 -12  11   16.30    6.57
  -1 -12 -11    2.24    3.49
  -1  12 -11   11.26    6.62
  -2   0  33    7.01    3.63
   2   0 -33   15.48    7.95
  -2   0  32   10.89    6.12
   2   0 -32    8.00    4.34
  -2   0  31    9.89    4.73
   2   0 -31   11.67    4.81
  -2   0  30   16.87    6.06
   2   0 -30    8.50    5.28
  -2   0  29    1.44    2.27
  -2   0  29    3.87    3.15
   2   0 -29   19.08    5.59
   2   0 -29    3.86    1.80
  -2   0  28    6.47    2.89
  -2   0  28    3.65    1.92
   2   0 -28    2.61    3.65
   2   0 -28    1.90    1.33
  -2   0  27    2.77    1.54
  -2   0  27    9.69    2.75
   2   0 -27    3.11    4.31
   2   0 -27   -0.42    1.97
  -2   0  26   -0.93    2.26
  -2   0  26   14.81    4.85
   2   0 -26    1.90    4.08
   2   0 -26    6.34    2.28
  -2   0  25    6.33    3.30
  -2   0  25    5.35    3.96
   2   0 -25    2.52    3.72
   2   0 -25    7.17    2.44
  -2   0  24   59.11    6.61
  -2   0  24   55.92    8.18
   2   0 -24   63.40    7.77
   2   0 -24   54.46    9.36
  -2   0  23    5.16    3.46
  -2   0  23    6.47    2.96
   2   0 -23    2.68    3.49
   2   0 -23    7.03    2.31
  -2   0  22    3.89    3.05
  -2   0  22    5.04    3.29
   2   0 -22    7.96    4.02
   2   0 -22   12.45    4.33
  -2   0  21    2.24    2.38
  -2   0  21    3.44    3.92
   2   0 -21   -1.02    3.26
   2   0 -21    7.32    2.28
  -2   0  20  141.10   10.26
  -2   0  20  168.69   26.80
   2   0 -20  152.13   21.78
   2   0 -20  155.87   18.12
  -2   0  19    2.33    2.45
  -2   0  19    3.86    2.17
   2   0 -19    2.23    3.36
   2   0 -19    8.07    3.06
  -2   0  18   91.10   11.24
  -2   0  18  105.84   13.32
   2   0 -18   89.60    8.04
   2   0 -18   96.45   10.80
  -2   0  17    4.34    2.35
  -2   0  17    9.61    2.80
   2   0 -17    2.58    3.06
   2   0 -17    4.51    2.74
  -2   0  16  280.42   11.59
  -2   0  16  246.46   23.09
   2   0 -16  243.60   11.26
   2   0 -16  252.34   13.01
  -2   0  15    3.41    2.16
  -2   0  15    3.43    4.23
   2   0 -15   -0.79    2.65
   2   0 -15    4.56    2.11
  -2   0  14 1511.85   58.50
  -2   0  14 1567.34  217.88
   2   0 -14 1497.30   58.28
   2   0 -14 1523.22   67.29
  -2   0  13    3.98    2.24
   2   0 -13    3.92    1.67
   2   0 -13    3.63    2.76
   2   0 -13    5.67    2.59
  -2   0  13    4.33    1.60
  -2   0  12    7.53    2.78
   2   0 -12    2.71    1.91
  -2   0  12    7.42    2.49
   2   0 -12    9.33    2.82
   2   0 -12    6.91    2.88
  -2   0  12    5.38    2.14
  -2   0  11    5.26    2.51
   2   0 -11    7.55    2.91
  -2   0  11    5.87    2.86
   2   0 -11    0.52    1.81
   2   0 -11    1.94    2.45
  -2   0  11    0.48    1.75
   2   0 -11    2.19    2.00
  -2   0  11    6.38    3.46
  -2   0  10  368.05   14.24
   2   0 -10  370.52   14.01
   2   0 -10  351.68   13.63
   2   0 -10  375.70   14.49
  -2   0  10  354.34   13.51
   2   0 -10  375.14   15.68
  -2   0  10  360.98   14.12
  -2   0   9    2.88    2.14
   2   0  -9    2.02    2.27
   2   0  -9    1.24    1.93
   2   0  -9    7.70    3.64
  -2   0   9   -1.29    1.49
  -2   0   9    1.20    1.12
  -2   0   8 1918.02   32.77
   2   0  -8 1832.88   31.15
   2   0  -8 1887.65   32.28
  -2   0   8 1810.95   30.73
   2   0  -8 1938.13   33.65
  -2   0   8 1679.58   28.76
  -2   0   7   -0.09    2.09
   2   0  -7    3.43    1.81
   2   0  -7    3.72    1.27
   2   0  -7    3.59    2.23
  -2   0   7   -0.18    1.57
   2   0  -7    5.67    1.79
  -2   0   6  154.85    9.08
   2   0  -6  150.47    9.11
   2   0  -6  135.73    7.81
   2   0  -6  155.28   10.98
  -2   0   6  149.01    8.31
   2   0  -6  160.39   11.31
  -2   0   6  139.52    8.18
  -2   0   5    2.01    2.08
   2   0  -5    4.16    2.42
   2   0  -5    1.66    0.94
   2   0  -5    0.73    1.80
  -2   0   5    5.35    1.40
   2   0  -5    2.31    1.40
  -2   0   4  116.47    7.21
   2   0  -4  123.27    7.31
   2   0  -4  118.24    6.76
   2   0  -4  114.79    6.71
  -2   0   4  116.54    6.62
   2   0  -4  119.41   11.52
  -2   0   3    0.91    2.22
   2   0  -3    5.24    2.14
  -2   0   3    2.91    2.22
   2   0  -3    4.50    2.52
   2   0  -3    1.18    1.68
  -2   0   3    0.13    1.51
   2   0  -3    4.23    2.22
  -2   0   3    5.23    2.47
  -2   0   2   65.44    4.75
   2   0  -2   62.64    4.12
   2   0  -2   63.64    4.02
  -2   0   2   66.59    4.74
  -2   0   2   63.42    8.77
  -2   0   1    1.61    2.35
  -2   0   1    2.16    1.68
   2   0  -1    5.42    1.63
   2   0  -1    1.34    1.17
  -2   0   1    3.78    1.99
   2   0  -1    3.90    1.61
  -2   0   1    7.44    2.04
  -2   0   0  279.70    6.92
   2   0   0  244.30    5.28
   2   0   0  270.05    5.48
  -2   0   0  268.25    6.54
  -2   0   0  271.34    6.26
  -2   0  -1    1.93    1.04
   2   0   1    3.10    1.23
  -2   0  -1    2.31    1.59
   2   0   1   13.47    3.69
  -2   0  -1   -0.32    1.74
   2   0   2 2163.15   35.04
  -2   0  -2 2159.77   34.83
   2   0   3    3.76    1.70
  -2   0  -3    0.62    0.83
   2   0   3    2.07    0.97
  -2   0  -3    3.56    1.75
  -2   0  -3    0.30    1.29
   2   0   4  237.57    5.93
  -2   0  -4  216.24    5.44
  -2   0  -4  224.17    5.49
   2   0   4  229.12    5.87
  -2   0  -4  219.42    6.23
   2   0   5    2.63    1.24
  -2   0  -5    1.71    0.88
  -2   0  -5    1.74    1.02
   2   0   5    1.13    1.40
  -2   0  -5    4.19    1.18
   2   0   6 1982.13   32.94
  -2   0  -6 1845.04   30.46
  -2   0  -6 1876.05   32.14
  -2   0  -6 1862.30   32.38
   2   0   7    0.58    1.11
  -2   0  -7    2.91    0.84
  -2   0  -7    5.20    1.53
  -2   0  -7   -0.38    1.49
  -2   0  -7    7.92    3.12
   2   0   8  605.41   21.54
  -2   0  -8  580.27   20.54
  -2   0  -8  608.70   21.85
  -2   0  -8  597.28   21.43
   2   0   9    3.27    2.05
  -2   0  -9    3.11    1.80
  -2   0  -9    2.74    1.61
  -2   0  -9    6.45    2.02
  -2   0  -9    1.84    2.06
   2   0  10    8.98    2.13
  -2   0 -10   15.47    3.40
  -2   0 -10   10.23    2.48
   2   0  11    1.95    1.03
  -2   0 -11    4.11    1.79
  -2   0 -11    7.08    2.74
  -2   0 -11    1.80    1.64
   2   0  12 1534.54  213.09
  -2   0 -12 1498.21   57.07
  -2   0 -12 1518.71   58.74
  -2   0 -12 1496.76   57.04
   2   0  13    1.90    0.97
  -2   0 -13    1.23    0.85
  -2   0 -13    2.59    2.98
  -2   0 -13    6.30    2.12
   2   0  14   73.45   10.34
  -2   0 -14   58.86    7.37
  -2   0 -14   89.95   11.83
  -2   0 -14   79.01    8.13
   2   0  15   -0.11    1.49
  -2   0 -15    1.96    1.46
  -2   0 -15    4.94    3.14
  -2   0 -15    3.71    1.70
   2   0  16   17.64    4.68
  -2   0 -16   12.74    3.16
  -2   0 -16   24.89    5.87
  -2   0 -16   15.64    3.77
   2   0  17    2.39    0.97
  -2   0 -17    2.15    1.27
  -2   0 -17    2.02    2.60
  -2   0 -17    3.61    2.05
   2   0  18   89.44    9.98
  -2   0 -18   80.79    5.93
  -2   0 -18   87.93    7.95
  -2   0 -18   86.78    6.33
   2   0  19    9.17    2.26
  -2   0 -19    5.36    2.01
  -2   0 -19   -0.22    3.70
  -2   0 -19    4.04    3.02
   2   0  20    6.54    2.73
  -2   0 -20   19.73    5.98
  -2   0 -20    2.88    2.42
   2   0  21    2.23    1.32
  -2   0 -21    5.38    3.99
  -2   0 -21    1.62    1.28
   2   0  22   32.78    6.85
  -2   0 -22   30.73    7.07
  -2   0 -22   34.28    6.77
   2   0  23    8.46    2.71
  -2   0 -23    8.58    5.40
  -2   0 -23    2.26    1.22
  -2   0 -24    7.12    4.64
  -2   0 -24    0.50    1.23
  -2   0 -25   10.72    4.24
  -2   0 -26   12.19    5.09
  -2   0 -27    3.66    4.20
  -2   0 -28   31.55    8.43
  -2   0 -29   -0.76    4.05
  -2   0 -30    7.21    4.88
  -2   0 -31    2.79    3.05
  -2  -1  33    9.51    5.68
   2  -1 -33   12.87    6.54
   2   1 -33    3.73    4.36
  -2  -1  32   13.89    5.23
   2  -1 -32   10.48    4.48
   2   1 -32    6.02    4.61
  -2   1  31    9.46    6.88
  -2  -1  31    9.80    5.35
   2  -1 -31    7.26    4.37
   2   1 -31   15.29    7.61
  -2   1  30    7.74    3.70
  -2   1  30   18.62    5.95
  -2  -1  30    8.33    3.90
   2  -1 -30    8.41    4.15
   2   1 -30   13.22    5.41
   2   1 -30    4.35    1.88
  -2   1  29   18.95    5.74
  -2   1  29   19.21    5.82
  -2  -1  29   15.92    5.64
   2  -1 -29    2.56    4.67
   2   1 -29    1.97    1.68
   2   1 -29    8.17    2.77
  -2   1  28    3.85    2.91
  -2   1  28   10.34    6.14
  -2  -1  28    9.22    3.50
   2  -1 -28   17.34    5.50
   2   1 -28   12.02    5.68
   2   1 -28   11.07    3.16
  -2   1  27    6.40    2.39
  -2  -1  27    9.81    3.50
  -2   1  27    5.53    3.40
  -2  -1  27   12.89    4.84
   2  -1 -27    0.76    4.21
   2   1 -27    8.13    3.99
   2  -1 -27    6.23    3.03
   2   1 -27    5.20    2.05
  -2   1  26   13.59    4.80
  -2  -1  26   12.88    4.02
  -2   1  26   35.17    7.99
  -2  -1  26   22.35   10.58
   2  -1 -26   39.85    7.44
   2   1 -26   25.53    6.06
   2  -1 -26   10.34    3.60
   2   1 -26   28.78    7.75
  -2   1  25  101.99   11.42
  -2  -1  25   69.70    8.14
  -2   1  25   73.61   13.00
  -2  -1  25   82.10   14.99
   2  -1 -25   92.70   15.24
   2   1 -25   75.77   12.73
   2  -1 -25   83.24   12.03
   2   1 -25   74.42   11.03
  -2   1  24    6.56    3.95
  -2  -1  24    4.05    3.02
  -2   1  24    6.86    3.67
  -2  -1  24    7.16    3.05
   2  -1 -24    7.04    4.02
   2   1 -24   -0.13    3.55
   2  -1 -24    4.94    2.24
   2   1 -24    5.09    2.42
  -2   1  23   84.43    6.98
  -2  -1  23   69.91    5.63
  -2   1  23   77.85   16.14
  -2  -1  23   64.17   10.07
   2  -1 -23   73.43    7.35
   2   1 -23   56.76    7.24
   2  -1 -23   65.35    9.05
   2   1 -23   54.43    5.94
  -2   1  22   15.60    4.71
  -2  -1  22   15.30    4.28
  -2   1  22   21.18    7.17
  -2  -1  22   26.37    8.10
   2  -1 -22    8.91    3.85
   2   1 -22   21.13    6.12
   2  -1 -22   23.26    5.70
   2   1 -22   18.28    5.59
  -2   1  21   24.01    5.43
  -2  -1  21   20.23    5.13
  -2   1  21   20.06    5.76
  -2  -1  21   36.24    7.70
   2  -1 -21   14.13    4.64
   2   1 -21   32.19    9.49
   2  -1 -21   28.21    7.80
   2   1 -21   29.53    6.11
  -2   1  20  150.16   11.08
  -2  -1  20  133.37    9.72
  -2   1  20  141.39   19.72
  -2  -1  20  148.06   17.22
   2  -1 -20  166.73   13.47
   2   1 -20  132.31   16.81
   2  -1 -20  155.51   18.07
   2   1 -20  135.05   10.12
  -2   1  19   68.63    9.46
  -2  -1  19   87.59    7.05
  -2   1  19   76.95   12.32
  -2  -1  19   71.68   13.57
   2  -1 -19   74.15   13.79
   2   1 -19   87.05    8.24
   2  -1 -19   88.15   12.75
   2   1 -19   82.61   14.59
  -2   1  18   43.43    6.81
  -2   1  18   32.95    6.11
  -2  -1  18   50.47    8.41
   2  -1 -18   50.90    9.58
   2   1 -18   44.18    8.43
   2  -1 -18   46.83    8.24
   2   1 -18   41.56    6.49
  -2   1  17   50.56    7.52
  -2  -1  17   47.62    7.25
  -2   1  17   48.52    8.72
  -2  -1  17   49.81    9.16
   2  -1 -17   53.61    8.51
   2   1 -17   53.79    8.51
   2  -1 -17   54.57    8.71
   2   1 -17   43.37    8.02
  -2   1  16  115.02    6.80
  -2  -1  16  142.38    6.94
  -2   1  16  123.93   18.99
  -2  -1  16  139.54   18.13
   2  -1 -16  132.23    8.32
   2   1 -16  129.22    7.45
   2  -1 -16  141.38   13.67
   2   1 -16  145.02    9.95
  -2   1  15   14.87    4.04
  -2  -1  15    8.49    3.21
   2   1 -15   11.30    2.66
  -2   1  15   15.44    4.36
  -2  -1  15   18.43    6.17
   2  -1 -15   15.34    4.55
   2   1 -15   20.76    4.88
   2  -1 -15   16.32    3.64
   2   1 -15   24.42    5.39
  -2   1  15    9.84    2.86
  -2   1  14   -1.62    2.32
  -2  -1  14    3.10    2.23
   2   1 -14    7.20    2.63
  -2   1  14    6.22    2.06
  -2  -1  14    5.96    2.72
   2  -1 -14    5.53    2.73
   2   1 -14    6.39    2.18
   2  -1 -14    5.92    3.43
   2   1 -14    7.15    2.67
  -2   1  14    6.54    1.60
  -2   1  13    3.81    2.68
  -2  -1  13   16.41    2.83
   2   1 -13    5.83    1.14
  -2   1  13    4.33    2.00
  -2  -1  13   11.92    2.66
   2  -1 -13    7.08    2.72
   2   1 -13   15.04    3.79
   2  -1 -13   13.16    2.61
   2   1 -13   13.92    3.00
  -2   1  13    6.58    1.76
  -2   1  12    9.81    2.84
  -2  -1  12   22.57    3.45
   2   1 -12   29.74    3.15
  -2   1  12   19.88    3.47
  -2  -1  12   22.26    3.39
   2  -1 -12   22.95    3.95
   2   1 -12   36.04    5.38
   2  -1 -12   20.45    3.17
   2   1 -12   19.61    3.92
  -2   1  12   16.21    3.68
  -2   1  11  131.44   10.33
  -2  -1  11  147.59   10.74
   2  -1 -11  110.21    8.43
   2   1 -11  107.92    8.17
  -2   1  11  151.81   16.90
   2  -1 -11  120.13    9.38
  -2  -1  11  141.54   16.77
   2   1 -11  117.51   16.53
  -2  -1  11  115.30   17.08
   2  -1 -11  136.94   16.50
   2   1 -11  138.77   10.60
  -2   1  11  130.85    9.57
  -2   1  10   34.83    4.25
   2  -1 -10   30.14    3.29
  -2  -1  10   32.52    3.94
   2   1 -10   39.55    3.76
  -2   1  10   31.12    4.50
   2  -1 -10   33.03    4.07
  -2  -1  10   37.59    4.56
  -2   1  10   32.32    3.44
   2   1 -10   33.24    5.41
  -2  -1  10   31.79    3.46
   2  -1 -10   30.53    3.31
  -2   1  10   30.18    3.75
   2   1 -10   41.84    5.46
  -2  -1  10   36.75    4.01
  -2  -1   9  484.96   10.68
   2   1  -9  474.93   10.12
  -2   1   9  437.75   13.79
   2  -1  -9  441.79   14.43
  -2  -1   9  463.30   11.29
   2   1  -9  478.58   10.65
  -2  -1   9  455.22    9.95
   2  -1  -9  482.82   19.77
  -2   1   9  474.20   17.06
   2   1  -9  480.89   11.62
  -2  -1   9  451.51   10.30
  -2   1   8   39.65    4.72
   2  -1  -8   34.90    3.46
  -2  -1   8   30.80    3.17
   2   1  -8   31.30    3.23
  -2   1   8   43.00    5.58
   2  -1  -8   37.41    4.62
  -2  -1   8   35.47    4.67
  -2   1   8   31.03    3.20
   2   1  -8   37.57    6.27
  -2  -1   8   29.71    3.91
   2  -1  -8   47.12    5.71
  -2   1   8   40.62    5.54
   2   1  -8   45.64    6.38
  -2  -1   8   37.58    5.09
   2  -1  -7   59.34    4.39
  -2  -1   7   59.41    4.82
  -2   1   7   53.49    6.63
   2  -1  -7   50.08    6.44
  -2  -1   7   61.50    7.19
  -2   1   7   43.46    6.00
   2   1  -7   54.63    4.37
  -2  -1   7   53.14    7.14
  -2   1   7   46.35    6.15
   2   1  -7   48.36    4.44
  -2  -1   7   46.03    3.81
  -2   1   6   32.71    3.86
   2  -1  -6   36.99    3.54
  -2  -1   6   40.58    4.06
  -2   1   6   46.00    5.88
   2  -1  -6   35.35    3.22
  -2  -1   6   42.09    4.46
  -2   1   6   37.68    4.60
   2   1  -6   41.34    3.63
  -2  -1   6   40.29    4.30
   2  -1  -6   36.48    4.65
  -2   1   6   38.68    5.64
   2   1  -6   50.49    4.40
  -2  -1   6   41.05    5.40
   2  -1  -5  648.95   12.54
  -2  -1   5  693.20   13.62
  -2   1   5  671.03   12.45
   2  -1  -5  676.53   12.15
  -2  -1   5  689.48   15.37
  -2   1   5  672.10   13.34
   2   1  -5  661.52   13.33
  -2  -1   5  676.47   14.38
   2  -1  -5  680.16   13.45
   2   1  -5  703.75   14.13
  -2  -1   4    4.32    1.76
  -2   1   4   -1.15    2.36
   2  -1  -4    3.24    2.00
  -2   1   4    0.33    1.14
   2  -1  -4    3.34    1.11
  -2  -1   4    1.44    2.66
  -2   1   4    3.34    1.57
   2   1  -4    1.46    1.17
  -2  -1   4    4.66    1.81
   2  -1  -4    2.66    0.78
   2   1  -4    4.33    2.82
  -2  -1   4    5.84    2.35
  -2  -1   3 1858.68   30.88
  -2   1   3 1924.12   32.32
  -2   1   3 1864.97   29.93
   2  -1  -3 1850.64   29.48
  -2  -1   3 1863.26   31.19
  -2   1   3 1762.54   29.71
   2   1  -3 1871.39   30.01
  -2  -1   3 1876.08   29.83
   2  -1  -3 1871.37   32.83
  -2   1   3 1832.59   31.69
  -2  -1   3 1820.47   30.57
   2  -1  -2    2.49    0.48
   2   1  -1    5.70    3.28
  -2  -1   1    3.82    1.85
  -2   1   1    7.58    3.16
   2  -1  -1    1.58    1.81
  -2  -1   1    5.52    3.16
  -2   1   1    1.47    1.68
   2   1  -1    0.75    1.37
  -2  -1   1    0.76    2.00
  -2  -1   0 2708.06   43.95
  -2   1   0 2827.51   45.67
  -2   1   0 2790.27   43.47
  -2  -1   0 2818.94   45.79
  -2   1   0 2721.53   42.44
  -2  -1   0 2719.19   42.33
  -2   1   0 2713.16   43.96
  -2  -1   0 2921.58   45.44
  -2  -1   0 2755.39   44.58
  -2  -1  -1 1159.47   20.32
  -2   1  -1 1203.23   20.55
   2  -1   1 1162.03   19.89
  -2   1  -1 1167.72   19.13
  -2  -1  -1 1138.47   20.14
  -2  -1  -1 1155.55   18.57
  -2  -1  -1 1224.72   19.64
   2   1   1 1177.22   20.19
   2   1   2  131.23   10.88
  -2  -1  -2  137.58   13.23
  -2   1  -2  131.70    7.03
  -2  -1  -2  123.84    7.47
  -2  -1  -2  142.30    7.61
  -2   1  -2  136.05    7.80
  -2  -1  -2  148.06    8.48
   2   1   2  132.60    7.63
  -2  -1  -2  142.45    8.28
  -2   1  -3    4.91    1.61
  -2  -1  -3    5.50    1.46
  -2   1  -3    0.91    1.14
  -2   1  -3    5.65    0.98
  -2  -1  -3    4.22    0.79
  -2   1  -3    9.10    2.01
  -2  -1  -3    2.29    0.74
   2   1   3    6.65    1.90
  -2  -1  -3    1.90    0.91
  -2   1  -4   20.40    3.71
   2   1   4   17.85    3.80
  -2   1  -4   17.85    2.51
   2  -1   4   23.24    4.14
  -2   1  -4   20.64    2.99
  -2  -1  -4   18.84    2.79
  -2   1  -4   23.23    4.16
  -2  -1  -4   15.54    2.10
  -2  -1  -4   19.84    2.84
  -2   1  -5  117.81    7.64
   2   1   5  115.00    9.36
  -2  -1  -5  107.82    6.43
  -2   1  -5  120.13    6.68
   2  -1   5  125.20    7.40
  -2   1  -5  128.27    7.23
  -2  -1  -5  119.83    7.50
  -2  -1  -5  118.50    6.81
  -2  -1  -5  130.94    7.10
   2   1   6    3.00    1.42
  -2  -1  -6    1.10    1.59
   2  -1   6    2.54    0.91
  -2   1  -6    2.41    0.83
  -2  -1  -6   -1.07    1.14
  -2  -1  -6    3.68    1.36
  -2  -1  -6    0.35    0.38
   2  -1   7   26.56    3.60
   2   1   7   26.43    5.52
  -2   1  -7   21.06    3.03
  -2  -1  -7   18.19    2.27
   2  -1   7   20.77    3.88
  -2   1  -7   20.52    3.54
  -2  -1  -7   17.42    2.89
  -2  -1  -7   17.81    2.31
  -2  -1  -7   24.01    3.55
   2  -1   8    0.00    0.68
   2   1   8    3.70    1.64
  -2   1  -8    1.80    1.49
  -2  -1  -8    6.41    1.87
   2  -1   8   11.28    3.76
  -2   1  -8    1.98    1.78
  -2  -1  -8    6.32    1.89
  -2   1  -8    3.52    1.53
  -2  -1  -8    3.50    1.89
  -2  -1  -8    2.37    1.09
  -2   1  -8    2.66    1.61
   2  -1   9    6.73    1.81
   2   1   9   -0.30    1.91
  -2   1  -9    6.75    1.85
  -2  -1  -9    5.17    1.87
   2  -1   9    7.96    3.36
  -2   1  -9    6.47    1.77
  -2  -1  -9    2.92    1.18
   2  -1   9   12.01    3.95
  -2  -1  -9    7.52    3.55
  -2   1  -9    6.98    2.71
  -2  -1  -9    4.97    1.58
   2  -1  10    9.77    3.07
   2   1  10    8.03    3.30
  -2   1 -10    5.25    1.46
  -2  -1 -10    8.79    2.43
   2  -1  10    4.43    2.33
  -2   1 -10    6.45    1.65
   2  -1  10    9.18    2.57
  -2  -1 -10    5.55    1.52
  -2  -1 -10    2.95    3.04
  -2  -1 -10    4.61    1.22
  -2   1 -10    5.27    2.58
   2  -1  11    4.15    1.47
   2   1  11    4.52    1.73
  -2  -1 -11    3.40    1.73
  -2   1 -11    4.27    1.44
   2  -1  11    5.24    2.34
  -2  -1 -11    6.25    3.16
  -2   1 -11    8.10    2.90
  -2  -1 -11    4.37    1.67
  -2   1 -11    5.56    2.39
   2  -1  12    2.51    1.50
   2   1  12    0.42    2.14
  -2  -1 -12    5.27    2.14
  -2   1 -12    2.58    0.84
   2  -1  12    7.68    2.78
  -2  -1 -12   -0.61    2.49
  -2   1 -12   11.17    2.99
  -2  -1 -12    3.41    1.55
  -2   1 -12    6.31    3.27
   2  -1  13   15.43    2.28
   2   1  13   15.34    2.69
  -2  -1 -13   10.87    2.17
  -2   1 -13   18.12    2.17
   2  -1  13   22.99    3.47
  -2  -1 -13   11.57    3.36
  -2   1 -13   11.89    3.62
  -2  -1 -13   19.32    3.29
  -2   1 -13   28.24    4.27
   2  -1  14   76.33    9.32
   2   1  14   85.13    7.82
  -2  -1 -14   52.75    7.87
  -2   1 -14   82.94    6.74
   2  -1  14   88.05   11.24
  -2  -1 -14   67.08    7.45
  -2   1 -14  102.37   12.81
  -2  -1 -14   76.58    6.70
  -2   1 -14   85.98    7.83
   2  -1  15  115.50   11.19
   2   1  15  125.98    7.66
  -2   1 -15  102.22    5.19
   2  -1  15  111.45   15.54
  -2  -1 -15  126.83   11.55
  -2   1 -15  143.17   17.98
  -2  -1 -15  118.16    6.02
  -2   1 -15  119.10   14.06
   2  -1  16   10.20    2.23
   2   1  16    3.00    1.96
  -2   1 -16    5.05    1.57
   2  -1  16    9.17    3.40
  -2  -1 -16    2.21    3.11
  -2   1 -16    9.55    4.49
  -2  -1 -16    5.75    1.93
  -2   1 -16   13.61    4.17
   2  -1  17  144.68   12.01
   2   1  17  153.30   10.35
  -2   1 -17  146.29   12.17
   2  -1  17  153.43   18.45
  -2  -1 -17  147.01   24.48
  -2   1 -17  170.19   12.86
  -2   1 -17  166.57   14.10
   2  -1  18  272.57   16.91
   2   1  18  237.92   15.44
  -2   1 -18  241.17   14.76
   2  -1  18  253.39   33.20
  -2  -1 -18  275.21   18.47
  -2   1 -18  274.56   19.03
  -2  -1 -18  258.41   15.83
  -2   1 -18  252.25   21.87
   2  -1  19  108.89   11.89
   2   1  19  120.91   10.26
  -2   1 -19   74.60   10.95
   2  -1  19  134.63   15.04
  -2  -1 -19  106.44    9.35
  -2   1 -19  138.17   24.12
  -2  -1 -19   84.16   10.95
  -2   1 -19   91.33    9.48
   2  -1  20    3.19    1.34
   2   1  20    2.55    1.99
   2  -1  20   -2.00    3.87
  -2  -1 -20    3.61    4.21
  -2   1 -20    9.11    4.63
  -2  -1 -20    3.63    1.09
  -2   1 -20    1.72    1.83
   2  -1  21   62.83    8.05
   2   1  21   69.74   10.39
   2  -1  21   83.68   12.88
  -2  -1 -21  108.61   12.05
  -2   1 -21   90.53    9.28
  -2  -1 -21   56.63    7.98
  -2   1 -21   64.62    6.68
   2  -1  22   16.13    4.36
   2   1  22   21.10    5.92
   2  -1  22   31.61    7.84
  -2  -1 -22   29.73    7.29
  -2   1 -22   26.41    6.29
  -2  -1 -22   17.04    4.42
  -2   1 -22   20.21    5.64
   2   1  23   54.08    8.86
   2  -1  23   50.08   13.36
  -2  -1 -23   66.56    8.86
  -2   1 -23   82.71   10.85
  -2   1 -23   55.75   10.52
   2   1  24   38.31    7.23
   2  -1  24   53.54    8.41
  -2  -1 -24   43.30    9.89
  -2   1 -24   26.19    6.58
  -2   1 -24   38.82    7.41
   2   1  25   19.63    6.18
  -2  -1 -25   23.94    7.24
  -2   1 -25   15.98    5.86
  -2   1 -25   20.82    4.37
  -2  -1 -26    4.95    2.47
  -2   1 -26   20.21    6.12
  -2   1 -27    2.17    4.10
  -2  -1 -28    9.48    4.89
  -2   1 -28   15.78    7.71
  -2  -1 -29   17.10    7.27
  -2   1 -29   20.16    7.47
  -2  -1 -30    4.84    4.38
  -2   1 -30    5.11    5.22
  -2  -1 -31   10.19    5.04
  -2   1 -31   26.26    9.97
  -2  -2  32    4.09    2.85
   2  -2 -32   17.55    7.93
   2   2 -32    9.69    5.50
  -2   2  31    3.00    2.89
  -2  -2  31   22.53    7.39
   2  -2 -31    8.24    7.31
   2   2 -31   13.87    6.74
   2   2 -31    5.68    2.32
  -2   2  30   11.84    4.81
  -2  -2  30    7.54    6.34
   2  -2 -30   29.79   10.06
   2   2 -30   17.01    7.93
   2   2 -30    8.85    3.25
  -2   2  29    2.40    3.25
   2  -2 -29    6.72    4.52
   2   2 -29   20.74    6.40
   2   2 -29    8.06    3.39
  -2   2  28   21.94    4.91
  -2  -2  28    8.30    6.08
   2  -2 -28    9.61    4.74
   2   2 -28    6.95    3.25
   2   2 -28   13.64    5.57
  -2   2  27    2.92    3.10
  -2  -2  27   16.74    4.10
   2  -2 -27    2.39    4.13
   2   2 -27    8.15    5.47
   2   2 -27    7.72    4.11
  -2   2  26    4.60    2.87
  -2  -2  26   -0.60    1.46
  -2  -2  26    8.75    3.75
   2  -2 -26    5.03    6.12
   2   2 -26    3.61    4.66
   2  -2 -26    6.23    2.81
   2   2 -26    4.77    2.52
  -2   2  25   16.94    4.85
  -2  -2  25    7.28    2.49
  -2  -2  25   14.78    5.17
   2  -2 -25   11.01    6.21
   2   2 -25    9.79    4.33
   2  -2 -25   11.11    3.71
   2   2 -25   12.44    3.91
  -2   2  24   10.20    4.14
  -2  -2  24    6.61    3.22
  -2   2  24   17.21    6.51
  -2  -2  24   12.58    4.30
   2  -2 -24   13.34    6.38
   2   2 -24    7.38    5.06
   2  -2 -24    5.91    1.64
   2   2 -24   34.56    6.13
  -2   2  23    2.80    3.18
  -2  -2  23    3.35    2.02
  -2   2  23   13.04    4.18
  -2  -2  23    1.52    2.43
   2  -2 -23    9.16    4.39
   2   2 -23   10.72    6.08
   2  -2 -23    9.39    2.37
   2   2 -23    5.64    3.55
  -2   2  22   23.53    6.93
  -2  -2  22   27.64    5.56
  -2   2  22   25.34    5.89
  -2  -2  22   25.86    6.54
   2  -2 -22   28.78    6.85
   2   2 -22   23.48    6.24
   2  -2 -22   21.31    4.93
   2   2 -22   12.46    4.38
  -2   2  21  133.22   12.16
  -2  -2  21  121.94   10.01
  -2   2  21  129.06   16.04
  -2  -2  21  135.28   20.16
   2  -2 -21  127.35   12.25
   2   2 -21  133.32   12.72
   2  -2 -21  113.25   12.83
   2   2 -21  131.75   11.92
  -2   2  20    7.30    3.78
  -2  -2  20    4.39    2.94
  -2   2  20    8.67    3.68
  -2  -2  20   13.94    5.77
   2  -2 -20    4.53    4.02
   2   2 -20    2.82    1.99
   2  -2 -20    0.95    1.66
   2   2 -20    5.46    3.00
  -2   2  19  361.28   60.77
  -2  -2  19  350.02   54.04
  -2   2  19  374.65   60.09
  -2  -2  19  317.68   29.62
   2   2 -19  348.38   54.32
   2  -2 -19  334.05   26.61
   2   2 -19  344.10   22.66
  -2   2  18    5.72    3.19
  -2  -2  18    4.64    2.55
  -2   2  18    7.21    3.17
  -2  -2  18    6.19    2.28
   2   2 -18    9.66    3.69
   2  -2 -18    5.19    1.27
   2   2 -18    2.23    2.73
  -2   2  17    2.29    1.51
  -2  -2  17    4.32    2.85
  -2   2  17    9.04    3.49
  -2  -2  17    6.71    3.30
   2   2 -17   10.70    4.15
   2  -2 -17    2.07    1.27
   2   2 -17   15.01    4.86
  -2   2  17    5.65    2.45
  -2   2  16    8.76    4.23
  -2  -2  16    5.79    2.12
  -2   2  16    7.08    2.99
  -2  -2  16    5.58    2.53
   2  -2 -16   -5.98    3.54
   2   2 -16    3.36    3.02
   2  -2 -16    4.47    1.73
   2   2 -16   10.89    4.36
  -2   2  16    5.33    1.94
  -2   2  15  319.94   13.32
  -2  -2  15  337.70   12.81
  -2   2  15  360.16   26.36
  -2  -2  15  355.66   20.24
   2   2 -15  340.42   13.80
   2  -2 -15  346.10   17.34
  -2   2  15  283.69   20.84
   2   2 -15  338.79   15.76
  -2   2  14   13.26    3.49
  -2  -2  14    9.17    2.52
  -2   2  14   19.47    5.50
  -2  -2  14   16.76    3.72
   2   2 -14   12.41    3.25
   2  -2 -14   23.69    4.01
  -2   2  14   13.47    2.31
   2   2 -14    2.09    3.11
  -2  -2  13  343.34   18.55
  -2   2  13  360.68   16.18
  -2  -2  13  347.81   14.66
  -2   2  13  359.09   22.21
  -2  -2  13  375.73   17.28
   2   2 -13  375.36   16.49
   2  -2 -13  399.03   24.31
  -2   2  13  377.79   15.76
   2   2 -13  373.74   16.59
  -2  -2  12  127.82   15.11
  -2   2  12  139.38    7.85
  -2  -2  12  145.09    7.29
  -2   2  12  153.51   10.97
  -2  -2  12  176.46    9.76
   2   2 -12  144.25    7.97
   2  -2 -12  162.31   11.44
  -2   2  12  138.20    8.09
  -2  -2  11    1.27    1.50
  -2   2  11    5.25    2.97
  -2  -2  11    9.83    4.31
  -2   2  11   -0.94    2.36
   2  -2 -11    4.03    1.50
  -2  -2  11    1.07    3.08
   2   2 -11    1.06    1.01
   2   2 -11   -0.29    2.01
   2  -2 -11    7.28    2.57
  -2   2  11    1.10    0.94
   2   2 -11   10.79    4.15
  -2  -2  10  198.84    9.57
  -2  -2  10  210.18    8.91
  -2   2  10  255.51   22.37
   2  -2 -10  199.47   20.17
  -2  -2  10  243.13   10.79
   2   2 -10  211.34   12.95
   2   2 -10  220.58   16.92
   2  -2 -10  256.00   16.11
  -2   2  10  189.17   17.98
   2   2 -10  203.73    9.38
  -2  -2   9  359.99   20.80
  -2   2   9  384.19   15.28
  -2  -2   9  362.85   13.74
  -2   2   9  363.67   14.74
   2  -2  -9  340.15   16.47
  -2  -2   9  382.46   15.21
   2   2  -9  358.42   19.04
   2   2  -9  353.20   13.62
   2  -2  -9  383.09   19.89
  -2   2   9  359.92   20.54
   2   2  -9  359.39   14.39
  -2  -2   8    7.13    2.13
  -2   2   8   14.28    3.99
   2  -2  -8    4.61    2.21
  -2  -2   8   12.17    3.32
  -2   2   8   15.77    4.28
   2  -2  -8   11.24    3.53
  -2  -2   8   13.53    3.81
   2   2  -8   15.15    3.87
   2  -2  -8   14.82    4.27
  -2   2   8   13.16    3.41
   2   2  -8    9.48    2.50
   2  -2  -8    8.55    2.49
  -2   2   8   15.83    3.93
   2   2  -8   10.63    3.69
  -2  -2   8   13.97    4.11
  -2  -2   7  142.87   15.71
   2  -2  -7  156.07    9.49
  -2   2   7  160.43    9.19
   2  -2  -7  151.46   11.81
  -2  -2   7  146.49    9.07
   2   2  -7  141.36   11.55
  -2   2   7  140.71   14.04
   2   2  -7  144.85   10.31
  -2   2   7  133.57   15.54
   2   2  -7  146.07    9.10
  -2  -2   6   24.51    3.35
  -2   2   6   23.68    3.61
   2  -2  -6   27.97    3.41
   2  -2  -6   28.39    4.16
  -2  -2   6   30.51    3.47
   2   2  -6   21.62    2.68
   2   2  -6   31.50    3.96
   2  -2  -6   31.99    3.91
  -2   2   6   27.68    3.31
   2   2  -6   32.91    4.79
  -2   2   6   26.62    3.91
   2   2  -6   29.80    5.28
  -2  -2   6   24.01    3.41
   2   2  -5  138.07    9.24
  -2  -2   5  123.76    9.26
  -2   2   5  152.61    9.30
   2  -2  -5  143.58    9.72
  -2  -2   5  141.15    8.60
   2   2  -5  143.04    8.47
   2   2  -5  141.98   10.21
   2  -2  -5  125.78    8.25
  -2   2   5  129.01    7.87
   2   2  -5  148.19    8.72
  -2   2   5  163.97   10.53
  -2  -2   5  149.15    9.18
   2   2  -4   12.52    2.10
  -2  -2   4    5.37    1.29
  -2   2   4   15.77    2.73
   2  -2  -4    6.40    1.55
   2  -2  -4    9.41    1.51
  -2  -2   4    0.55    2.49
   2   2  -4    6.72    2.19
   2   2  -4    7.82    1.11
  -2   2   4    4.09    2.71
   2   2  -4    3.56    1.50
  -2   2   4    7.33    1.74
   2   2  -4    9.44    3.95
  -2  -2   4    7.22    1.46
   2   2  -3    6.06    1.47
  -2  -2   3    4.97    1.65
  -2   2   3    4.49    2.36
   2  -2  -3    7.10    1.82
   2  -2  -3    9.47    1.35
  -2  -2   3    0.05    2.54
   2   2  -3    8.01    2.08
  -2  -2   3   10.42    1.70
   2   2  -3    6.49    1.61
   2  -2  -3    7.18    3.02
  -2   2   3    8.07    2.05
   2   2  -3    7.60    3.12
  -2  -2   3    9.91    3.81
   2   2  -2    4.63    1.92
  -2   2   2    1.44    2.52
   2  -2  -2    1.44    1.87
   2  -2  -2   -0.44    0.33
  -2  -2   2    1.10    2.77
   2  -2  -2    2.29    0.98
  -2  -2   2    1.08    0.54
   2   2  -2   -0.40    0.39
  -2   2   2    6.51    2.16
   2   2  -2    5.07    2.59
  -2  -2   2    3.61    2.57
   2   2  -1   70.66    9.81
  -2  -2   1   65.37   10.46
   2   2   2   35.28    6.31
  -2  -2  -2   38.07    4.01
  -2   2  -2   33.92    2.99
   2  -2   2   29.87    2.45
   2  -2   2   35.59    4.43
  -2   2  -2   32.91    2.31
  -2  -2  -2   32.08    3.99
   2  -2   2   29.63    3.55
  -2   2  -2   38.50    3.53
  -2  -2  -2   27.68    2.21
   2   2   2   27.02    3.87
   2   2   2   38.08    5.14
  -2  -2  -2   35.66    4.44
  -2  -2  -3  476.46   10.56
  -2   2  -3  498.50    9.79
   2  -2   3  460.60    8.84
   2  -2   3  478.70   10.63
  -2   2  -3  487.97    9.03
  -2  -2  -3  489.44   11.35
   2  -2   3  492.25   18.03
  -2   2  -3  503.81   10.81
  -2  -2  -3  502.54    9.45
   2   2   3  500.55    9.34
   2   2   3  507.10   10.53
  -2  -2  -3  478.68    9.18
   2   2   4   52.91    7.38
  -2  -2  -4   33.84    3.34
  -2   2  -4   48.81    3.28
   2  -2   4   45.30    5.51
   2  -2   4   48.68    6.49
  -2   2  -4   50.73    3.39
   2  -2   4   40.72    6.40
  -2   2  -4   45.66    3.77
  -2  -2  -4   44.45    4.49
   2   2   4   46.77    4.14
   2   2   4   51.60    7.24
  -2  -2  -4   45.48    3.30
  -2   2  -5  171.72    9.11
   2  -2   5  164.33    9.13
  -2   2  -5  155.59    8.57
   2  -2   5  164.96   19.75
  -2   2  -5  174.86   10.46
  -2  -2  -5  168.56    9.33
   2   2   5  164.31    8.99
   2   2   5  165.80    9.78
  -2  -2  -5  153.67    8.12
  -2   2  -6  246.27    9.47
   2   2   6  271.90   14.83
  -2  -2  -6  240.64   10.03
  -2   2  -6  247.99    8.90
   2  -2   6  252.73    9.97
  -2   2  -6  254.65    9.87
   2  -2   6  271.93   18.06
  -2   2  -6  242.74   20.64
  -2  -2  -6  264.44   10.31
   2   2   6  285.23   10.87
   2   2   6  273.80    9.98
  -2  -2  -6  261.19    9.39
  -2   2  -7  875.71   29.87
   2   2   7  912.30   32.54
  -2  -2  -7  856.15   30.42
  -2   2  -7  865.07   29.22
   2  -2   7  877.40   31.09
  -2   2  -7  849.26   29.59
   2  -2   7  916.59   32.74
  -2  -2  -7  892.56   32.34
   2   2   7  878.35   30.55
  -2  -2  -7  862.69   29.11
  -2   2  -7  896.73   32.11
  -2   2  -8  429.92   14.79
   2   2   8  460.30   18.00
  -2  -2  -8  425.81   16.14
  -2   2  -8  434.17   14.88
   2  -2   8  430.83   17.50
  -2   2  -8  418.05   15.51
   2  -2   8  449.27   23.57
  -2  -2  -8  480.20   17.83
   2   2   8  430.51   21.63
  -2  -2  -8  423.01   14.54
  -2   2  -8  471.17   18.25
   2   2   9   44.69    5.41
  -2   2  -9   52.59    5.56
  -2  -2  -9   46.08    4.96
  -2   2  -9   49.22    4.83
   2  -2   9   49.07    6.82
  -2   2  -9   52.46    4.53
   2  -2   9   57.84    7.84
  -2  -2  -9   60.89   10.73
   2   2   9   43.55    6.96
  -2  -2  -9   46.65    4.06
  -2   2  -9   44.40    5.12
   2   2  10  185.51    9.29
  -2   2 -10  174.31    6.87
  -2   2 -10  165.44    6.46
   2  -2  10  185.32   15.19
  -2  -2 -10  158.76    8.42
  -2  -2 -10  150.93    5.89
  -2   2 -10  166.78    8.97
   2   2  11  838.24   33.67
  -2   2 -11  870.94   32.60
  -2   2 -11  864.74   32.36
   2  -2  11  836.47   33.89
   2  -2  11  918.40   38.41
  -2  -2 -11  890.05   35.40
  -2   2 -11  883.43   35.15
   2   2  12   15.98    4.46
   2  -2  12   18.40    4.21
   2  -2  12   21.52    4.65
  -2  -2 -12   10.89    4.37
  -2   2 -12   15.64    4.19
   2   2  13  693.69  165.95
   2  -2  13  703.49  168.29
   2  -2  13  680.83   24.51
  -2  -2 -13  710.93  170.12
  -2   2 -13  667.96   24.04
   2   2  14   51.27    9.86
   2  -2  14   49.99    9.03
  -2  -2 -14   57.34    7.90
  -2   2 -14   48.75    5.96
  -2   2 -14   50.68    7.58
   2   2  15   14.65    4.89
   2  -2  15   22.13    8.05
  -2  -2 -15   31.23    6.43
  -2   2 -15   30.16    5.82
  -2   2 -15   23.07    6.26
   2   2  16   52.37   11.31
   2  -2  16   48.19    9.89
  -2  -2 -16   63.89   13.42
  -2   2 -16   61.47   10.15
  -2   2 -16   59.95    8.58
   2   2  17  234.16   23.58
   2  -2  17  252.41   28.57
  -2  -2 -17  232.12   20.51
  -2   2 -17  267.17   31.79
  -2   2 -17  235.87   16.07
   2   2  18    3.65    2.57
   2  -2  18    4.17    2.06
  -2  -2 -18    0.73    3.65
  -2   2 -18   -0.40    2.86
  -2   2 -18    1.62    2.69
   2   2  19  268.49   37.13
   2  -2  19  314.81   32.17
  -2  -2 -19  310.17   25.99
  -2   2 -19  335.48   25.94
  -2   2 -19  302.82   28.38
   2   2  20   30.98    5.86
   2  -2  20   41.62    9.17
  -2  -2 -20   32.79    8.19
  -2   2 -20   23.91    5.37
  -2   2 -20   32.88    6.58
   2   2  21   15.84    5.37
   2  -2  21   23.49    5.55
  -2  -2 -21   31.49    7.08
  -2   2 -21   28.64    7.02
  -2   2 -21   19.09    5.32
   2   2  22    7.30    2.66
   2  -2  22   -1.29    3.58
  -2  -2 -22   -0.34    3.38
  -2   2 -22    9.12    5.76
  -2   2 -22    4.87    3.70
   2   2  23   18.70    5.20
   2  -2  23   36.29    8.52
  -2  -2 -23   28.25    6.58
  -2   2 -23   23.19    8.82
  -2   2 -23   12.81    4.59
   2   2  24    0.85    2.23
   2  -2  24   -2.07    3.24
  -2  -2 -24    5.99    4.68
  -2   2 -24    7.29    4.18
  -2   2 -24   -0.05    1.79
   2   2  25   20.34    5.71
   2  -2  25   24.21    6.63
  -2  -2 -25   34.00    8.85
  -2   2 -25   39.07    9.03
  -2   2 -25   19.84    5.17
   2   2  26    4.95    1.94
   2  -2  26    8.49    3.97
  -2  -2 -26    8.62    5.85
  -2   2 -26    7.45    4.45
  -2   2 -26    9.79    4.19
   2  -2  27   35.81   10.41
  -2  -2 -27   35.93    8.89
  -2   2 -27   52.55   11.30
   2  -2  28   15.16    5.64
  -2  -2 -28   30.60   10.91
  -2   2 -28    7.35    4.86
   2  -2  29   54.29   16.62
  -2  -2 -29   17.61    9.00
  -2   2 -29   30.41    9.57
  -2  -2 -30   11.39    6.06
  -2   2 -30    7.05    5.05
  -2  -2 -31   -0.04    4.40
  -2   2 -31    2.52    4.70
  -2   3  32    3.39    3.35
  -2  -3  32   10.15    6.27
   2  -3 -32    9.14    3.88
   2   3 -32   11.51    5.26
   2   3 -32   -0.09    3.26
  -2   3  31    8.87    3.38
  -2  -3  31    8.45    4.79
   2  -3 -31    5.42    5.86
   2   3 -31   10.43    6.85
   2   3 -31    7.54    3.76
  -2   3  30   13.10    5.28
  -2  -3  30   -1.58    4.44
   2  -3 -30   26.02   10.33
   2   3 -30    9.59    4.79
   2   3 -30    7.52    3.59
  -2   3  29   13.56    7.35
  -2  -3  29    6.55    2.78
   2  -3 -29   13.85    9.20
   2   3 -29    3.87    4.71
   2   3 -29    7.37    4.56
  -2   3  28    5.07    3.50
  -2  -3  28   10.75    5.63
   2  -3 -28    6.90    4.32
   2   3 -28   16.02    6.86
   2   3 -28    1.28    3.40
  -2   3  27   12.70    5.19
  -2  -3  27    3.68    2.44
   2  -3 -27   15.03    5.08
   2   3 -27   -0.07    3.53
   2   3 -27    5.85    4.26
  -2   3  26    1.75    3.10
  -2  -3  26    3.39    3.11
   2  -3 -26    7.22    5.00
   2   3 -26   -1.94    3.05
   2   3 -26   -3.37    2.96
  -2   3  25    6.57    3.59
  -2  -3  25   31.04    5.77
   2  -3 -25   15.61    6.94
   2   3 -25    7.17    2.94
   2   3 -25    3.88    3.18
  -2   3  24   25.12    6.83
  -2  -3  24   15.04    4.11
  -2  -3  24   36.18    7.53
   2  -3 -24   33.09    7.98
   2   3 -24   13.75    5.49
   2  -3 -24   18.43    4.63
   2   3 -24   22.94    7.17
  -2   3  23   20.76    5.02
  -2  -3  23   15.76    4.33
  -2  -3  23   24.58    7.27
   2  -3 -23   29.81    9.37
   2   3 -23   11.61    5.04
   2  -3 -23   17.62    4.77
   2   3 -23   23.88    6.10
  -2   3  22    8.92    2.85
  -2  -3  22   12.18    3.54
  -2  -3  22   11.40    5.47
   2  -3 -22   21.17    6.59
   2   3 -22    6.12    3.52
   2  -3 -22   13.90    3.54
   2   3 -22    8.66    3.57
  -2   3  21   14.66    4.99
  -2  -3  21   12.13    3.62
  -2  -3  21   12.39    4.28
   2  -3 -21   25.93    7.28
   2   3 -21    9.83    4.30
   2  -3 -21    7.61    2.04
   2   3 -21    7.85    3.74
  -2  -3  20    1.41    0.87
  -2   3  20    0.75    3.01
  -2  -3  20    2.75    2.82
  -2  -3  20    5.86    3.14
   2  -3 -20    8.01    4.20
   2   3 -20   10.60    4.02
   2  -3 -20   11.71    3.81
   2   3 -20   -0.32    2.23
  -2  -3  19    6.20    2.17
  -2   3  19   20.86    5.88
  -2  -3  19    9.79    3.04
  -2  -3  19   12.42    4.54
   2  -3 -19   13.41    4.79
   2   3 -19    5.73    3.12
   2  -3 -19   17.66    4.48
   2   3 -19   15.33    5.75
  -2  -3  18   11.29    3.08
  -2   3  18   21.49    6.07
  -2  -3  18   17.49    4.30
  -2  -3  18   24.12    7.66
   2  -3 -18   28.74    6.49
   2   3 -18   13.80    4.04
   2  -3 -18   24.70    5.63
  -2   3  18   12.02    3.60
   2   3 -18   30.07    9.23
  -2  -3  17   16.57    4.34
  -2   3  17   24.67    6.24
  -2  -3  17   30.81    4.85
  -2  -3  17   15.51    5.17
   2  -3 -17   46.88    7.62
   2   3 -17   24.41    5.89
  -2   3  17   22.99    5.22
   2   3 -17   44.27    8.11
  -2  -3  16   13.93    3.74
  -2   3  16   21.27    5.79
  -2  -3  16   23.04    4.78
  -2  -3  16   31.35    7.33
   2  -3 -16   33.69    7.10
   2   3 -16   30.35    7.28
  -2   3  16   22.02    4.57
   2   3 -16   30.00    5.82
  -2  -3  15   45.18    8.53
  -2   3  15   74.85   11.88
  -2  -3  15   84.33    5.55
  -2  -3  15   60.29    9.16
   2  -3 -15   83.53    7.20
   2   3 -15   59.18    8.60
  -2   3  15   79.42    5.20
   2   3 -15   60.78    9.02
  -2  -3  14   43.30    7.37
  -2   3  14   57.51    7.36
  -2  -3  14   65.50    6.29
  -2  -3  14   70.17    7.81
   2  -3 -14   62.14    7.74
   2   3 -14   55.65    5.96
  -2   3  14   43.61    6.65
   2   3 -14   56.58    6.79
  -2  -3  13   15.59    3.34
  -2   3  13   24.90    6.80
  -2  -3  13   21.05    4.88
  -2  -3  13   12.27    4.29
   2  -3 -13   15.22    5.47
   2   3 -13   19.76    4.38
  -2   3  13   14.91    2.78
   2   3 -13   23.74    5.82
  -2  -3  12    9.11    1.74
  -2   3  12   11.62    3.65
  -2  -3  12   20.60    2.99
  -2  -3  12   12.16    3.78
   2  -3 -12   10.56    4.18
   2   3 -12   15.45    2.80
  -2   3  12   18.98    3.52
   2   3 -12    6.85    3.49
  -2  -3  11    1.70    1.20
  -2   3  11    8.02    3.02
  -2  -3  11    5.47    2.21
  -2  -3  11   12.11    4.14
   2  -3 -11    1.83    3.14
   2   3 -11    8.02    2.99
  -2   3  11    1.07    1.51
   2   3 -11    0.72    3.17
  -2  -3  10  387.22   16.38
  -2  -3  10  419.02   17.12
   2  -3 -10  363.83   23.91
  -2  -3  10  442.32   19.52
   2   3 -10  352.40   27.29
   2  -3 -10  431.77   19.00
   2   3 -10  428.87   19.54
  -2   3  10  371.13   22.24
   2   3 -10  402.69   17.69
  -2  -3   9   68.63    9.25
  -2   3   9   85.43    7.54
   2  -3  -9   71.08    9.73
  -2  -3   9   78.23    7.04
   2   3  -9   76.96   11.72
   2  -3  -9   97.94   16.34
   2   3  -9   81.11    6.71
  -2   3   9   72.84    8.43
   2   3  -9   94.94   14.50
   2   3  -8  657.31   23.53
  -2  -3   8  645.18   22.94
   2  -3  -8  598.46   22.65
  -2  -3   8  641.29   23.93
   2   3  -8  645.47   30.54
   2  -3  -8  667.48   24.95
  -2   3   8  599.32   34.34
   2   3  -8  664.73   25.07
   2   3  -7   45.97    7.49
  -2  -3   7   40.41    6.07
  -2   3   7   46.69    5.92
   2  -3  -7   37.81    4.89
  -2  -3   7   48.01    5.57
  -2  -3   7   47.01    8.43
   2   3  -7   38.34    4.85
   2  -3  -7   62.52    6.58
  -2   3   7   49.54    6.46
   2   3  -7   55.74   11.73
   2   3  -6    7.12    3.03
  -2  -3   6    4.03    1.91
  -2   3   6    2.26    2.84
   2  -3  -6    3.76    1.34
  -2  -3   6   12.05    3.85
  -2  -3   6    6.35    2.15
   2   3  -6    6.00    1.94
   2  -3  -6    5.55    2.75
  -2   3   6    5.48    3.11
   2   3  -6    5.34    3.21
  -2  -3   6    8.56    2.87
   2   3  -5   82.65   10.67
  -2  -3   5   62.87    8.42
  -2   3   5   68.22    6.25
   2  -3  -5   70.91    7.37
  -2  -3   5   83.59    7.40
  -2  -3   5   81.56   10.57
   2   3  -5   72.87    7.64
   2  -3  -5   72.29    7.09
  -2   3   5   61.21    8.42
  -2  -3   5   72.59    6.07
  -2  -3   4  673.13   14.04
  -2   3   4  701.23   14.82
   2  -3  -4  668.47   13.72
  -2  -3   4  682.31   14.83
  -2  -3   4  680.77   13.08
   2   3  -4  694.62   12.83
   2  -3  -4  688.72   15.16
  -2   3   4  622.03   13.41
   2   3  -4  716.02   15.12
  -2  -3   4  644.71   13.47
   2   3  -3  328.81    8.67
  -2  -3   3  302.42    9.44
  -2   3   3  305.38    8.59
  -2  -3   3  306.91    8.87
   2  -3  -3  294.44    7.75
  -2  -3   3  319.24    6.81
   2   3  -3  312.77    6.65
   2  -3  -3  286.10    8.93
  -2   3   3  307.82    8.26
  -2  -3   3  291.19    7.63
   2   3  -2  644.80   18.74
  -2   3   2  612.50   12.84
   2  -3  -2  580.08   12.07
  -2  -3   2  599.10   13.39
   2  -3  -2  584.28   10.83
  -2  -3   2  618.23   12.43
   2  -3  -2  623.10   14.26
   2   3  -2  598.20   10.80
  -2   3   2  575.55   12.40
   2   3  -2  656.75   13.94
  -2  -3   2  593.42   12.26
   2   3  -1  111.42   12.61
  -2  -3   1   90.52   14.42
   2  -3  -1   98.14    6.31
   2  -3  -1   94.40    5.36
  -2  -3   1  105.58    7.79
   2   3  -1   81.89    6.15
  -2  -3   1  103.74    6.01
   2  -3  -1  123.59   18.59
  -2   3   1  101.87    6.73
   2   3  -1  100.06    5.67
   2   3  -1  107.17    7.43
  -2  -3   1   95.18    6.18
   2   3   0   11.46    2.11
  -2  -3   0   11.88    2.41
  -2   3   0    0.92    1.97
   2  -3   0    8.38    1.70
   2  -3   0   10.10    1.41
  -2  -3   0   17.11    2.75
  -2   3   0    9.19    1.31
   2   3   0    6.76    2.27
   2  -3   0   16.99    4.00
  -2  -3   0   10.24    1.68
  -2   3   0   10.60    2.59
   2   3   0    7.66    1.42
   2   3   0    4.85    1.58
  -2  -3   0    8.23    1.91
   2   3   1  206.48   18.11
  -2   3  -1  188.76   33.88
   2  -3   1  203.16    5.69
   2  -3   1  201.50    4.86
  -2   3  -1  195.25    4.92
  -2  -3  -1  199.55    7.53
   2   3   1  201.35    9.75
   2  -3   1  215.15    7.29
  -2   3  -1  178.75   10.32
  -2  -3  -1  196.22    7.39
   2   3   1  195.33    5.35
   2   3   1  193.82    6.58
  -2  -3  -1  202.67    5.55
   2   3   2  462.93   11.31
  -2  -3  -2  455.43   10.33
  -2   3  -2  516.06   12.38
   2  -3   2  492.02    9.97
   2  -3   2  477.03    9.26
  -2   3  -2  451.56    8.62
  -2  -3  -2  517.36   13.03
   2  -3   2  488.36   11.71
  -2   3  -2  467.17   10.77
  -2  -3  -2  483.31    9.68
   2   3   2  493.40    9.84
   2   3   2  515.71   10.92
  -2  -3  -2  474.78    9.54
  -2  -3  -3   34.38    3.66
  -2   3  -3   22.57    2.57
   2  -3   3   28.77    2.73
   2  -3   3   32.14    2.98
  -2   3  -3   29.96    2.81
  -2  -3  -3   31.16    4.28
   2  -3   3   24.98    4.15
  -2   3  -3   18.40    2.72
  -2  -3  -3   28.99    3.13
   2   3   3   26.90    4.24
   2   3   3   30.51    5.52
  -2  -3  -3   24.37    2.56
   2   3   4  710.96   26.29
  -2   3  -4  674.20   23.49
   2  -3   4  646.30   22.44
   2  -3   4  666.19   23.28
  -2   3  -4  638.08   22.31
  -2  -3  -4  666.12   24.74
   2  -3   4  671.90   24.90
  -2  -3  -4  647.46   24.95
   2   3   4  667.09   24.12
   2   3   4  675.02   23.73
  -2  -3  -4  659.31   23.35
   2   3   5   22.60    4.07
  -2   3  -5   11.79    2.75
   2  -3   5   10.96    2.36
   2  -3   5   15.19    3.55
  -2   3  -5   17.67    2.46
  -2  -3  -5   19.31    3.61
   2  -3   5   17.76    6.43
  -2  -3  -5   17.90    2.82
   2   3   5   14.54    3.66
   2   3   5   19.73    2.99
  -2  -3  -5   11.81    2.98
   2   3   6   25.16    3.97
  -2   3  -6   18.73    2.26
   2  -3   6   19.68    2.12
   2  -3   6   34.75    6.32
  -2   3  -6   20.42    2.50
   2  -3   6   26.03    4.06
  -2  -3  -6   20.71    3.38
   2   3   6   19.11    2.55
   2   3   6   28.37    4.07
  -2  -3  -6   23.53    3.28
  -2   3  -6   19.28    4.11
   2   3   7   61.77    6.85
  -2   3  -7   62.99    7.14
   2  -3   7   46.77    3.41
   2  -3   7   58.46    8.06
  -2   3  -7   52.57    4.57
   2  -3   7   64.27   12.66
  -2  -3  -7   68.82    7.31
   2   3   7   59.93    5.12
   2   3   7   60.29    6.57
  -2  -3  -7   55.38    6.53
  -2   3  -7   65.62    6.45
  -2   3  -8  172.22   11.60
   2   3   8  200.18   19.98
  -2   3  -8  168.00   11.18
   2  -3   8  174.11   18.73
  -2   3  -8  179.70   14.91
   2  -3   8  200.13   11.93
  -2  -3  -8  152.08   11.54
   2   3   8  175.28   12.64
   2   3   8  170.61   11.32
  -2  -3  -8  170.78   11.24
  -2   3  -9   38.33    3.66
   2   3   9   47.58    6.53
  -2   3  -9   41.00    2.88
   2  -3   9   37.65    6.21
  -2   3  -9   38.50    3.71
   2  -3   9   46.11    6.97
  -2  -3  -9   51.29    6.07
   2   3   9   38.86    3.95
  -2   3  -9   44.15    5.21
   2   3  10  442.61   26.03
   2  -3  10  470.50   20.33
   2  -3  10  464.06   25.09
  -2  -3 -10  466.74   19.86
  -2   3 -10  445.93   19.65
   2   3  11    7.36    4.17
   2  -3  11    3.87    1.63
   2  -3  11   -0.38    3.28
  -2  -3 -11    3.55    2.54
  -2   3 -11    4.32    3.39
   2   3  12  440.69   19.25
   2  -3  12  457.52   17.45
   2  -3  12  471.03   27.46
  -2  -3 -12  466.86   17.56
  -2   3 -12  447.16   17.82
   2   3  13   34.68    9.59
   2  -3  13   57.45    7.14
   2  -3  13   49.34    7.46
  -2  -3 -13   48.91    6.26
  -2   3 -13   61.39    7.77
   2   3  14    4.09    2.67
   2  -3  14    9.01    3.11
   2  -3  14    7.23    3.34
  -2  -3 -14   11.16    3.56
  -2   3 -14   12.26    5.29
   2   3  15   19.80    5.11
   2  -3  15   31.48    6.77
   2  -3  15   31.96    7.04
  -2  -3 -15   12.25    4.28
  -2   3 -15   25.31    6.72
   2   3  16  176.05   21.56
   2  -3  16  155.02   17.23
  -2  -3 -16  180.30   17.99
  -2   3 -16  160.68   22.54
   2   3  17   85.33   11.09
   2  -3  17   76.44    8.60
  -2  -3 -17   78.77   12.68
  -2   3 -17  102.16    9.40
  -2   3 -17   85.83    8.10
   2   3  18  235.84   26.10
   2  -3  18  237.25   31.28
  -2  -3 -18  261.43   30.12
  -2   3 -18  262.78   23.79
  -2   3 -18  263.14   20.64
   2   3  19   93.13   12.20
   2  -3  19   66.19   12.84
  -2  -3 -19   89.13   12.36
  -2   3 -19  100.03   14.00
  -2   3 -19   89.36    9.07
   2   3  20   79.76    9.23
   2  -3  20   71.93   10.09
  -2  -3 -20   83.38   13.66
  -2   3 -20   75.71    7.87
  -2   3 -20   60.45   10.85
   2   3  21  102.91   13.71
   2  -3  21   83.44   12.55
  -2  -3 -21  104.53   15.90
  -2   3 -21  109.35   13.84
  -2   3 -21  118.32   14.20
   2   3  22   66.76   11.65
   2  -3  22   62.90    9.32
  -2  -3 -22   66.89    9.38
  -2   3 -22   79.89   13.93
  -2   3 -22   76.29    8.93
   2   3  23   79.79   10.15
   2  -3  23   76.82   14.64
  -2  -3 -23  112.89   15.24
  -2   3 -23  102.46   14.01
  -2   3 -23   93.30   12.05
   2   3  24   91.47    7.46
   2  -3  24   61.32   14.13
  -2  -3 -24   62.83   12.22
  -2   3 -24   87.43   13.24
  -2   3 -24   59.18   10.49
   2   3  25   19.83    5.11
   2  -3  25    7.83    3.79
  -2  -3 -25    8.86    4.31
  -2   3 -25   12.75    3.68
  -2   3 -25   13.66    4.12
   2   3  26   16.04    5.40
   2  -3  26    9.34    4.92
  -2  -3 -26   17.86    6.32
  -2   3 -26   11.82    5.52
  -2   3 -26    5.19    2.86
   2   3  27    7.94    4.06
   2  -3  27   18.99    7.24
  -2  -3 -27   11.79    6.14
  -2   3 -27    6.36    3.89
  -2   3 -27    5.96    3.66
   2  -3  28    9.97    6.33
  -2  -3 -28    8.06    3.99
  -2   3 -28    2.59    4.37
   2  -3  29    4.71    2.60
  -2  -3 -29   19.85    7.72
  -2   3 -29    4.98    4.85
   2  -3  30   18.51    8.48
  -2  -3 -30    4.88    4.54
  -2   3 -30    6.79    6.98
  -2   4  31   -0.15    3.57
  -2  -4  31   12.31    6.76
   2  -4 -31    8.12    6.28
   2   4 -31   12.19    5.36
   2   4 -31    1.70    3.86
  -2   4  30   -3.61    3.62
  -2  -4  30    2.11    6.01
   2  -4 -30    9.08    8.56
   2   4 -30    3.66    4.27
   2   4 -30    8.03    4.20
  -2   4  29    2.70    3.59
  -2  -4  29   10.45    3.89
   2  -4 -29   29.10   10.71
   2   4 -29   17.78    7.76
   2   4 -29   27.38    8.62
  -2   4  28    5.24    3.64
  -2  -4  28    7.55    2.81
   2  -4 -28   14.12    6.67
   2   4 -28    7.29    4.30
   2   4 -28    8.61    4.89
  -2   4  27    3.97    5.40
  -2  -4  27    5.23    2.79
   2  -4 -27   10.92    5.42
   2   4 -27   30.38    8.73
   2   4 -27    0.09    4.08
  -2   4  26   15.55    6.72
  -2  -4  26    8.49    2.89
   2  -4 -26    1.95    4.03
   2   4 -26   10.32    6.06
   2   4 -26   14.96    4.59
  -2   4  25    4.62    3.38
  -2  -4  25   10.88    5.65
   2  -4 -25    8.97    4.69
   2   4 -25    6.30    5.23
   2   4 -25   10.10    3.06
  -2   4  24    4.67    3.25
  -2  -4  24   20.58    7.33
   2  -4 -24   11.47    5.26
   2   4 -24    7.26    4.25
   2   4 -24   17.42    6.37
  -2   4  23   41.96    8.23
  -2  -4  23   65.60    9.78
   2  -4 -23   43.08    8.82
   2   4 -23   43.22    8.81
   2   4 -23   54.32    8.03
  -2   4  22   11.64    5.46
  -2  -4  22    7.81    2.43
  -2  -4  22    7.01    3.44
   2  -4 -22   12.53    5.78
   2   4 -22   15.71    5.65
   2   4 -22    5.69    4.04
  -2   4  21  224.00   21.22
  -2  -4  21  218.12   11.50
  -2  -4  21  202.91   31.22
   2  -4 -21  238.51   16.43
   2   4 -21  238.00   14.53
   2   4 -21  254.53   31.23
  -2   4  20  128.18   18.08
  -2  -4  20  115.34    7.04
  -2  -4  20  105.21   15.68
   2  -4 -20  140.78   11.56
   2   4 -20   99.62    8.16
   2   4 -20  113.89    9.45
  -2  -4  19    7.59    2.01
  -2   4  19   42.62    9.67
  -2  -4  19   19.47    4.20
  -2  -4  19   26.80    6.18
   2  -4 -19   19.99    7.11
   2   4 -19   17.31    6.29
   2   4 -19   11.41    4.63
  -2  -4  18    5.02    1.60
  -2   4  18   -1.19    3.38
  -2  -4  18    5.32    1.97
  -2  -4  18    9.17    3.13
   2  -4 -18   19.83    6.63
   2   4 -18    2.87    4.22
  -2   4  18    7.81    2.53
   2   4 -18    7.45    3.71
  -2  -4  17    2.97    1.37
  -2   4  17    6.48    3.02
  -2  -4  17    2.91    2.18
  -2  -4  17    5.78    3.44
   2  -4 -17    2.60    3.64
   2   4 -17    8.47    4.33
  -2   4  17   10.04    3.45
   2   4 -17    7.59    4.31
  -2  -4  16  242.55   17.49
  -2   4  16  328.03   21.73
  -2  -4  16  293.07   17.79
  -2  -4  16  327.36   21.27
   2  -4 -16  296.99   22.67
   2   4 -16  311.37   30.16
  -2   4  16  200.68   19.76
   2   4 -16  309.08   23.92
  -2  -4  15  177.38   14.71
  -2   4  15  214.36   19.43
  -2  -4  15  233.52   11.71
  -2  -4  15  209.38   12.24
   2  -4 -15  206.88   12.17
   2   4 -15  230.37   18.21
  -2   4  15  145.19   21.05
   2   4 -15  246.98   18.22
  -2  -4  14  201.73   15.92
  -2   4  14  255.57   14.34
  -2  -4  14  235.47   11.52
  -2  -4  14  254.12   14.42
   2  -4 -14  214.93   14.50
   2   4 -14  243.21   13.15
  -2   4  14  175.81   14.87
   2   4 -14  246.75   29.77
  -2  -4  13   83.65   12.28
  -2   4  13  116.82    8.51
  -2  -4  13  114.91    9.61
  -2  -4  13  135.69    9.94
   2  -4 -13  143.36   11.98
   2   4 -13  135.67   13.90
  -2   4  13   92.49   12.65
   2   4 -13  126.22    8.05
  -2  -4  12   39.03    6.04
  -2  -4  12   42.89    4.49
  -2  -4  12   69.39    9.87
   2  -4 -12   47.75    6.22
   2   4 -12   42.45    5.03
  -2   4  12   38.88    7.14
   2   4 -12   63.63   10.96
  -2  -4  11    2.21    1.68
  -2   4  11    4.13    2.73
  -2  -4  11    6.10    5.92
  -2  -4  11    5.36    2.96
   2  -4 -11    4.21    3.42
  -2   4  11    5.31    1.73
   2   4 -11   11.72    4.66
   2   4 -10  311.22   14.48
  -2  -4  10  270.95   19.12
  -2   4  10  283.69   13.99
  -2  -4  10  304.67   15.03
  -2  -4  10  298.23   15.52
   2  -4 -10  239.67   12.65
  -2   4  10  258.65   15.88
   2   4 -10  319.57   15.37
   2   4  -9  101.58   13.12
  -2  -4   9   72.59    8.98
  -2   4   9   82.71    8.77
   2  -4  -9   83.51   10.00
  -2  -4   9  106.40    9.84
  -2  -4   9  103.02   13.76
   2   4  -9   72.87    8.09
   2  -4  -9   84.31   11.86
  -2   4   9   70.74    8.68
   2   4  -9   65.71    7.08
   2   4  -8  145.39   12.06
  -2  -4   8  127.96    8.78
  -2   4   8  128.67    7.80
   2  -4  -8  134.47    8.72
  -2  -4   8  161.72    9.13
  -2  -4   8  163.99   15.40
   2   4  -8  113.31   13.01
   2  -4  -8  103.37    8.96
  -2   4   8  112.45   13.49
   2   4  -8  144.56   14.51
   2   4  -7  215.10   17.63
  -2  -4   7  195.30   12.56
  -2   4   7  202.82   10.76
  -2  -4   7  191.81   10.13
  -2  -4   7  230.51   18.58
   2   4  -7  190.45    8.55
   2  -4  -7  168.72   10.06
   2   4  -7  209.61   10.60
   2   4  -6   32.94    6.00
  -2  -4   6   38.87    4.20
  -2   4   6   41.04    4.96
  -2  -4   6   36.40    4.93
  -2  -4   6   49.76    8.19
   2   4  -6   31.44    3.21
   2  -4  -6   35.01    4.77
   2   4  -5  209.21   14.64
  -2  -4   5  196.29    9.76
  -2   4   5  203.91   11.20
   2  -4  -5  203.38    9.85
  -2  -4   5  213.63    9.67
   2   4  -5  221.82    8.83
   2  -4  -5  193.78    9.62
   2   4  -5  260.75   11.65
   2   4  -4  134.47   11.24
  -2  -4   4  113.33    8.75
  -2   4   4  115.57    9.13
   2  -4  -4  103.07    7.97
  -2  -4   4  117.23   10.45
   2   4  -4  104.81    7.62
   2  -4  -4  128.44   18.54
   2   4  -4   99.99    8.41
  -2  -4   3   15.79    4.36
  -2  -4   3   36.58    5.45
   2  -4  -3   30.18    4.84
  -2  -4   3   31.24    4.91
   2   4  -3   28.61    2.93
   2  -4  -3   30.68    5.07
   2   4  -3   27.93    4.85
   2   4  -2   11.81    3.19
  -2   4   2    9.55    4.17
   2  -4  -2    4.01    1.64
  -2  -4   2    6.95    3.86
   2  -4  -2    3.19    1.70
  -2  -4   2    5.22    1.57
   2  -4  -2    9.16    3.79
   2   4  -2    6.04    1.79
   2   4  -2    1.93    2.25
  -2  -4   2    5.94    2.89
   2   4  -1  559.04   29.38
  -2   4   1  538.98   19.94
   2  -4  -1  546.79   19.96
   2  -4  -1  544.56   19.36
  -2  -4   1  564.82   20.09
   2  -4  -1  550.17   21.43
   2   4  -1  532.85   18.89
   2   4  -1  575.92   21.73
  -2  -4   1  543.62   19.89
   2   4   0   34.60    4.87
  -2   4   0   22.21    2.91
   2  -4   0   29.71    3.33
   2  -4   0   24.01    3.05
  -2  -4   0   28.78    4.98
  -2   4   0   19.68    2.40
   2  -4   0   31.63    4.69
  -2  -4   0   21.13    2.42
   2   4   0   19.93    2.52
   2   4   0   22.56    3.89
  -2  -4   0   21.66    3.17
   2   4   1  110.09   10.69
  -2   4  -1   93.79    7.52
   2  -4   1   86.32    6.74
   2  -4   1   90.03    6.80
  -2  -4  -1   86.96    8.00
  -2   4  -1   82.70    6.09
   2  -4   1   81.35    7.36
  -2  -4  -1   86.62    6.59
   2   4   1   93.97    7.59
   2   4   1  104.56   15.47
  -2  -4  -1   78.95    9.57
   2   4   2    3.29    2.06
  -2   4  -2    7.56    3.02
   2  -4   2    5.89    1.91
   2  -4   2    5.83    2.09
  -2   4  -2    3.73    1.36
  -2  -4  -2   -1.46    3.43
   2  -4   2   13.91    5.04
  -2  -4  -2    5.02    1.88
   2   4   2    7.84    2.19
   2   4   2    4.78    3.48
  -2  -4  -2    4.48    1.45
   2   4   3   36.65    6.32
  -2   4  -3   29.76    3.60
   2  -4   3   29.97    3.54
   2  -4   3   37.89    3.82
  -2   4  -3   25.74    2.83
  -2  -4  -3   30.35    5.03
   2  -4   3   50.12    6.25
  -2  -4  -3   27.65    3.46
   2   4   3   24.43    3.43
   2   4   3   33.55    3.61
  -2  -4  -3   26.18    3.80
  -2   4  -4   12.25    3.37
   2  -4   4   14.29    3.09
   2  -4   4   16.63    3.93
  -2   4  -4    9.48    2.81
  -2  -4  -4    9.53    4.04
   2  -4   4   16.20    4.59
  -2  -4  -4   13.41    3.60
   2   4   4   16.39    3.67
   2   4   4   15.87    4.51
  -2  -4  -4    9.67    2.26
  -2   4  -4    0.67    3.43
   2   4   5   58.40    6.27
  -2   4  -5   66.95    6.47
   2  -4   5   55.11    4.51
   2  -4   5   58.93    5.27
  -2   4  -5   59.84    5.04
  -2  -4  -5   41.42    5.07
   2  -4   5   56.32   10.18
  -2  -4  -5   51.05    4.95
   2   4   5   48.04    7.23
   2   4   5   50.07    5.28
  -2  -4  -5   51.88    4.28
  -2   4  -5   66.43    6.65
   2   4   6   50.12    5.93
  -2   4  -6   57.73    6.22
   2  -4   6   54.49    4.27
   2  -4   6   59.53    5.25
  -2   4  -6   53.78    4.59
  -2  -4  -6   48.53    6.42
   2  -4   6   60.78    7.94
  -2  -4  -6   49.49    5.02
   2   4   6   49.01    8.69
   2   4   6   56.64    6.27
  -2  -4  -6   57.53    4.40
  -2   4  -6   56.82    5.99
   2   4   7  116.25   10.21
  -2   4  -7  124.82    5.87
   2  -4   7  112.84    7.64
   2  -4   7  124.35    6.69
  -2   4  -7  116.66    8.58
  -2  -4  -7  121.52   20.98
   2  -4   7  142.99   20.57
  -2  -4  -7  118.76   17.06
   2   4   7  111.83    8.78
   2   4   7  130.43    5.82
  -2  -4  -7  116.84    8.00
  -2   4  -7  149.13    9.51
   2   4   8  182.22   20.30
  -2   4  -8  159.93    9.45
   2  -4   8  153.98    6.39
   2  -4   8  153.62   15.91
  -2   4  -8  137.10    6.87
   2  -4   8  184.33   11.27
  -2  -4  -8  152.03    7.80
   2   4   8  139.41    7.65
   2   4   8  154.69    7.20
  -2   4  -8  139.81    9.07
   2   4   9   28.81    8.39
  -2   4  -9   34.50    4.73
   2  -4   9    1.21    0.51
   2  -4   9   33.38    5.72
   2  -4   9   42.80    8.55
  -2   4  -9   43.19    6.23
  -2   4 -10    1.43    0.43
   2   4  10    1.51    1.01
   2  -4  10    3.77    1.83
   2  -4  10    7.37    3.10
  -2  -4 -10    2.34    2.39
  -2   4 -10    5.89    3.94
   2   4  11   34.51    6.19
   2  -4  11   23.42    5.49
   2  -4  11   29.75    6.83
  -2  -4 -11   33.89    8.13
  -2   4 -11   42.39    7.73
   2   4  12  100.50   12.52
   2  -4  12   85.85    8.14
   2  -4  12   99.63   13.11
  -2  -4 -12  107.75   16.62
  -2   4 -12   96.53    7.45
   2   4  13   26.44    7.36
   2  -4  13   27.50    6.15
   2  -4  13   32.23    8.32
  -2  -4 -13   22.33    5.20
  -2   4 -13   35.05    6.74
   2   4  14   33.09    7.13
   2  -4  14   34.67    7.06
   2  -4  14   39.45    6.88
  -2  -4 -14   40.38    6.39
  -2   4 -14   44.05    8.77
   2   4  15   28.16    5.83
   2  -4  15   33.43    6.65
   2  -4  15   33.68    7.69
  -2  -4 -15   32.57    5.78
  -2   4 -15   24.22    6.67
   2   4  16   -3.14    3.38
   2  -4  16    6.71    2.74
   2  -4  16   11.53    3.77
  -2  -4 -16    5.51    3.57
  -2   4 -16    6.71    4.18
   2   4  17    9.21    3.55
   2  -4  17   14.08    4.84
   2  -4  17   14.59    4.78
  -2  -4 -17   10.59    4.65
  -2   4 -17   22.93    5.23
   2   4  18    9.21    3.41
   2  -4  18    3.88    2.84
  -2  -4 -18    4.84    3.89
  -2   4 -18   10.04    4.21
   2   4  19   56.21    6.73
   2  -4  19   51.20    8.15
  -2  -4 -19   54.49    7.41
  -2   4 -19   55.93    7.12
  -2   4 -19   68.49    9.55
   2   4  20    3.38    3.00
   2  -4  20    9.85    3.02
  -2  -4 -20   10.84    5.46
  -2   4 -20   -0.28    4.44
  -2   4 -20   20.62    7.26
   2   4  21   16.02    5.92
   2  -4  21    6.83    3.81
  -2  -4 -21    3.62    4.11
  -2   4 -21    6.61    3.27
  -2   4 -21   11.80    4.30
   2   4  22    6.94    2.53
   2  -4  22   11.38    4.66
  -2  -4 -22    6.05    4.39
  -2   4 -22    5.93    3.17
  -2   4 -22    6.43    3.68
   2   4  23    6.81    4.65
   2  -4  23   18.97    6.55
  -2  -4 -23   10.36    5.55
  -2   4 -23    1.93    2.27
  -2   4 -23    9.77    4.42
   2   4  24   40.87   10.76
   2  -4  24   36.27    9.15
  -2  -4 -24   76.98   13.07
  -2   4 -24   44.22    8.64
  -2   4 -24   50.09    8.69
   2   4  25   12.02    4.98
   2  -4  25    4.03    2.37
  -2  -4 -25   -2.99    4.11
  -2   4 -25    2.33    4.45
   2   4  26   16.57    5.91
   2  -4  26   22.38    4.92
  -2  -4 -26   16.53    6.64
  -2   4 -26    9.52    5.72
  -2   4 -26    9.02    3.25
   2   4  27   23.22    8.07
   2  -4  27   18.97    9.04
  -2  -4 -27    9.83    4.82
  -2   4 -27    2.81    4.71
  -2   4 -27    6.33    3.73
   2   4  28   27.33    8.05
   2  -4  28   28.13    8.92
  -2  -4 -28   17.67    6.37
  -2   4 -28   21.65    9.56
  -2   4 -28   31.71   10.34
   2  -4  29   20.96    9.22
  -2  -4 -29    0.96    4.49
  -2   4 -29   -0.52    5.21
  -2   5  30    5.59    4.53
  -2  -5  30    5.25    4.47
   2  -5 -30   14.47    7.86
   2   5 -30    2.73    4.35
   2   5 -30    3.59    4.39
  -2   5  29    6.61    4.42
   2  -5 -29   25.31    9.72
   2   5 -29   16.48    6.76
   2   5 -29    6.96    4.68
  -2   5  28   12.75    7.94
  -2  -5  28   15.45    7.15
   2  -5 -28    4.45    5.73
   2   5 -28    6.66    4.81
   2   5 -28    0.01    3.69
  -2   5  27   44.97   10.26
   2  -5 -27   32.23   10.12
   2   5 -27   29.84    7.83
   2   5 -27   30.76    7.49
  -2   5  26    9.04    6.09
   2  -5 -26   12.50    7.75
   2   5 -26    0.73    3.18
   2   5 -26    8.76    4.76
  -2   5  25   74.12   14.40
   2  -5 -25   87.49   14.48
   2   5 -25  119.88   11.97
   2   5 -25   62.01   13.25
  -2   5  24    6.56    4.16
  -2  -5  24   11.37    5.71
   2  -5 -24   12.85    7.35
   2   5 -24    2.18    4.05
   2   5 -24    7.22    4.08
  -2   5  23    1.57    4.28
   2  -5 -23   10.83    6.82
   2   5 -23   11.58    5.66
   2   5 -23    2.81    3.84
  -2   5  22   32.01    7.63
  -2  -5  22   17.84    5.65
   2  -5 -22   30.64    7.70
   2   5 -22   19.26    6.51
   2   5 -22   19.58    7.48
  -2   5  21   19.14    7.03
  -2  -5  21   -0.44    1.05
   2  -5 -21    4.00    2.86
   2   5 -21    3.79    3.43
   2   5 -21   12.16    3.33
  -2   5  20    9.13    5.12
  -2  -5  20    5.63    1.97
  -2  -5  20   12.63    4.48
   2  -5 -20    9.82    4.90
   2   5 -20   15.18    6.00
   2   5 -20   17.51    6.14
  -2   5  19  131.55   10.85
  -2  -5  19  108.45    7.39
   2  -5 -19  117.27   13.15
   2   5 -19  117.13   17.02
   2   5 -19  123.00   14.55
  -2   5  18   35.28    9.19
  -2  -5  18   34.13    7.12
  -2  -5  18   30.89    7.10
   2  -5 -18   40.38    9.31
   2   5 -18   38.76   11.01
   2   5 -18   34.35    9.47
  -2  -5  17   90.92   15.77
  -2   5  17  180.39   21.93
  -2  -5  17  169.02   12.82
  -2  -5  17  184.78   15.65
   2  -5 -17  167.52   21.99
   2   5 -17  201.84   20.98
   2   5 -17  221.12   18.69
  -2  -5  16    4.82    2.26
  -2   5  16   17.80    4.96
  -2  -5  16   10.41    3.11
  -2  -5  16   10.96    4.60
   2  -5 -16   14.75    6.25
   2   5 -16    5.75    3.02
   2   5 -16   27.12    5.96
  -2  -5  15   16.98    4.86
  -2   5  15   50.24    8.25
  -2  -5  15   52.72    7.30
  -2  -5  15   40.19    7.69
   2  -5 -15   48.31    9.19
   2   5 -15   34.67    5.97
   2   5 -15   55.62    9.29
  -2   5  14   40.15   10.59
  -2  -5  14   42.47    6.02
  -2  -5  14   52.58    8.41
   2  -5 -14   44.21    7.68
   2   5 -14   38.02    6.02
   2   5 -14   51.23    9.22
  -2   5  13   27.73    6.57
  -2  -5  13   33.61    6.47
  -2  -5  13   31.22    6.13
   2  -5 -13   38.74    7.30
   2   5 -13   34.36    6.72
  -2   5  12   30.59    5.27
  -2  -5  12   66.99   11.74
  -2  -5  12   49.15    9.92
   2  -5 -12   35.28    6.93
   2   5 -12   29.14    6.46
   2   5 -11  242.08   15.29
  -2   5  11  283.94   15.51
  -2  -5  11  226.72   13.40
  -2  -5  11  239.84   16.63
   2  -5 -11  247.74   19.31
   2   5 -11  252.36   14.57
   2   5 -10    3.59    1.30
  -2   5  10    1.75    3.23
  -2  -5  10    6.56    3.83
  -2  -5  10   10.06    4.05
   2  -5 -10   -1.66    3.37
   2   5 -10   -1.31    3.69
   2   5  -9  486.79   19.98
  -2   5   9  472.68   18.48
  -2  -5   9  496.48   19.58
  -2  -5   9  505.33   28.49
   2  -5  -9  504.36   19.86
   2   5  -9  507.67   20.05
   2   5  -8  323.77   20.90
  -2   5   8  292.66   12.83
  -2  -5   8  282.48   12.71
  -2  -5   8  307.11   15.95
   2  -5  -8  280.64   12.80
   2   5  -8  300.08   14.14
   2   5  -7    8.10    2.70
  -2   5   7    3.97    3.37
  -2  -5   7   13.31    4.18
   2  -5  -7    6.12    2.13
  -2  -5   7   11.96    3.22
   2   5  -7    7.75    2.26
   2  -5  -7    8.27    4.80
   2   5  -7   14.50    4.14
   2   5  -6  156.30   17.87
  -2   5   6  140.60    8.48
  -2  -5   6  136.60    8.40
   2  -5  -6  143.30    7.45
  -2  -5   6  153.36    9.95
   2   5  -6  138.72    6.93
   2  -5  -6  149.17   10.07
   2   5  -6  152.13    9.19
   2   5  -5  227.23   12.09
  -2   5   5  190.71   10.20
  -2  -5   5  181.58    9.96
   2  -5  -5  202.91   15.14
  -2  -5   5  206.26   15.80
   2   5  -5  199.17    9.24
   2  -5  -5  215.02   11.97
   2   5  -5  182.03   10.09
   2   5  -4   64.27    8.38
  -2   5   4   61.22    6.41
  -2  -5   4   50.37    6.07
   2  -5  -4   51.35    4.90
  -2  -5   4   56.03    6.92
   2   5  -4   59.11    5.00
   2  -5  -4   48.54    6.02
   2   5  -4   58.98    8.12
   2   5  -3  487.20   24.30
  -2   5   3  446.25   19.24
  -2  -5   3  470.76   20.54
   2  -5  -3  471.42   20.06
  -2  -5   3  479.31   21.17
   2  -5  -3  468.81   20.68
   2   5  -3  436.68   17.76
   2   5  -3  446.34   23.69
   2   5  -2  160.12   18.84
  -2   5   2  159.81    8.73
  -2  -5   2  169.43    9.61
   2  -5  -2  161.20    8.05
  -2  -5   2  190.29    8.95
   2  -5  -2  177.21   20.58
   2   5  -2  145.23    7.01
   2   5  -2  174.91    9.46
  -2   5   1   74.59    6.58
   2  -5  -1   61.18    5.50
  -2  -5   1   79.06    7.43
  -2  -5   1   84.81    6.68
   2  -5  -1   64.68    7.76
   2   5  -1   73.32    5.99
   2   5  -1   65.52    7.03
   2   5   0   22.44    4.46
  -2   5   0   21.28    4.61
   2  -5   0   21.27    2.97
  -2  -5   0   51.20    6.06
  -2   5   0   19.77    3.23
   2  -5   0   21.82    4.41
  -2  -5   0   23.12    3.11
   2   5   0   16.59    2.27
   2   5   0   28.05    6.00
   2   5   1   62.47   15.03
  -2   5  -1   57.24    8.91
   2  -5   1   51.88    4.64
   2  -5   1   45.65    4.63
  -2  -5  -1   57.96    6.80
  -2   5  -1   41.29    6.03
   2  -5   1   48.65    5.70
  -2  -5  -1   55.72    6.19
   2   5   1   50.31    7.40
   2   5   1   49.50    5.15
  -2  -5  -1   43.58    5.56
   2   5   2   14.86    4.30
  -2   5  -2   11.33    3.54
   2  -5   2    9.44    1.99
   2  -5   2   10.30    2.37
  -2  -5  -2   11.27    4.19
  -2   5  -2    7.82    1.79
   2  -5   2    3.81    3.37
  -2  -5  -2    7.47    1.60
   2   5   2    6.40    1.68
   2   5   2    3.56    1.60
  -2  -5  -2    7.03    2.19
   2   5   3  531.71   22.81
  -2   5  -3  562.78   22.83
   2  -5   3  527.77   21.30
   2  -5   3  567.05   22.80
  -2   5  -3  478.57   19.25
  -2  -5  -3  541.17   23.48
   2  -5   3  566.16   24.29
  -2  -5  -3  503.27   20.58
   2   5   3  537.12   29.08
   2   5   3  527.26   21.46
  -2  -5  -3  524.67   21.14
  -2   5  -3  559.14   23.97
   2   5   4    9.04    3.87
  -2   5  -4    4.25    1.93
   2  -5   4    4.04    1.45
   2  -5   4    3.26    1.37
  -2   5  -4    6.58    1.64
  -2  -5  -4    6.55    5.59
   2  -5   4    6.05    3.06
  -2  -5  -4    6.11    2.18
   2   5   4   12.35    2.60
   2   5   4   13.01    3.34
  -2  -5  -4    5.50    1.49
  -2   5  -4    8.83    4.00
   2   5   5  119.60   10.31
  -2   5  -5  159.99    8.12
   2  -5   5  125.86   12.61
   2  -5   5  135.30    7.00
  -2   5  -5  125.21    6.39
  -2  -5  -5  149.22   14.03
   2  -5   5  142.19   17.30
  -2  -5  -5  133.71    7.31
   2   5   5  104.60   11.60
   2   5   5  153.86   17.43
  -2  -5  -5  127.86    6.26
  -2   5  -5  109.57   10.00
   2   5   6   15.98    6.72
  -2   5  -6   14.70    3.38
   2  -5   6   12.32    2.53
   2  -5   6   11.48    3.26
  -2   5  -6   10.98    2.64
  -2  -5  -6    7.47    4.27
   2  -5   6   15.87    4.79
  -2  -5  -6   18.00    5.26
   2   5   6    5.45    1.95
   2   5   6   12.00    3.10
  -2  -5  -6    7.72    1.59
  -2   5  -6   11.30    4.65
   2   5   7   69.39   12.73
  -2   5  -7   82.42    7.22
   2  -5   7   69.04    5.91
   2  -5   7   74.51    7.23
  -2  -5  -7   81.14   16.67
   2  -5   7   65.44   11.42
  -2  -5  -7   68.97    6.77
   2   5   7   69.69    6.19
  -2   5  -7   86.32    9.54
  -2  -5  -7   62.70    5.47
  -2   5  -8    9.17    2.81
   2  -5   8   13.07    2.48
   2  -5   8   25.02    5.41
  -2  -5  -8    8.84    4.21
   2  -5   8   16.99    5.28
  -2  -5  -8   19.83    5.13
   2   5   8   14.22    3.20
  -2   5  -8   24.01    6.91
   2   5   9  143.39   17.82
  -2   5  -9  139.66    6.88
   2  -5   9  130.98    6.44
   2  -5   9  140.04    8.64
  -2  -5  -9  124.21   13.90
   2  -5   9  141.17   18.17
  -2  -5  -9  126.70    9.75
   2   5   9  127.99    6.32
  -2   5  -9  145.66   10.81
  -2   5 -10   15.27    3.65
   2   5  10   17.53    4.96
   2  -5  10    0.59    0.29
   2  -5  10   23.74    5.33
  -2  -5 -10   26.39    6.69
   2  -5  10   19.10    5.46
  -2  -5 -10   26.17    5.97
   2   5  10   16.70    3.60
  -2   5 -10   23.91    6.20
  -2   5 -11   87.39    5.00
   2   5  11  121.84    9.18
   2  -5  11  112.92   15.44
   2  -5  11  126.66   13.21
  -2  -5 -11  100.77    8.27
  -2   5 -11   81.99    8.73
   2   5  12   29.74    5.78
   2  -5  12   26.90    7.85
   2  -5  12   27.14    7.24
  -2  -5 -12   22.44    5.87
  -2   5 -12   11.56    4.88
   2   5  13    6.09    2.51
   2  -5  13   13.36    5.03
   2  -5  13   13.10    4.41
  -2  -5 -13    7.50    3.71
  -2   5 -13   10.94    5.08
   2   5  14   12.31    4.92
   2  -5  14    6.81    2.39
   2  -5  14    3.95    2.46
  -2  -5 -14   10.87    5.50
  -2   5 -14   13.34    6.72
   2   5  15   58.73    8.14
   2  -5  15   58.95    8.47
   2  -5  15   69.66   10.56
  -2  -5 -15   47.29    9.75
  -2   5 -15   61.48    7.64
   2   5  16    8.02    4.04
   2  -5  16    5.01    2.68
   2  -5  16   16.14    5.45
  -2  -5 -16    0.83    3.55
  -2   5 -16   14.35    6.87
   2   5  17   73.48   13.60
   2  -5  17   83.23   12.82
   2  -5  17  101.76   15.44
  -2  -5 -17  101.13    9.32
  -2   5 -17   88.40   11.57
   2   5  18   37.43    8.38
   2  -5  18   27.76    6.02
   2  -5  18   33.09    9.22
  -2  -5 -18   28.39    7.10
  -2   5 -18   20.79    6.43
   2   5  19   35.68    8.25
   2  -5  19   34.61    7.91
   2  -5  19   39.60   10.09
  -2  -5 -19   40.08    7.02
  -2   5 -19   40.04    6.22
   2   5  20   13.72    5.91
   2  -5  20    4.47    2.38
  -2  -5 -20    6.25    3.64
  -2   5 -20   14.68    5.62
  -2   5 -20    6.69    4.30
   2   5  21    8.38    5.37
   2  -5  21   -1.24    3.24
  -2  -5 -21   11.97    4.06
  -2   5 -21    9.90    5.89
  -2   5 -21   15.24    5.90
   2   5  22   14.42    5.68
   2  -5  22   16.92    6.46
  -2  -5 -22   21.73    5.61
  -2   5 -22   30.33    8.08
  -2   5 -22   24.65    7.29
   2   5  23   72.48   12.48
   2  -5  23   43.40   10.39
  -2  -5 -23   25.52    6.60
  -2   5 -23   36.62   10.21
  -2   5 -23   63.20   12.13
   2   5  24   11.68    6.99
   2  -5  24    2.12    2.40
  -2  -5 -24    8.92    3.11
  -2   5 -24    1.77    4.26
  -2   5 -24    2.82    3.78
   2   5  25   11.53    4.63
   2  -5  25    2.88    3.14
  -2  -5 -25    4.57    2.12
  -2   5 -25   23.15    7.65
  -2   5 -25   33.84    9.04
   2   5  26   18.22    6.89
   2  -5  26   15.97    4.65
  -2  -5 -26   13.22    7.15
  -2   5 -26   12.48    6.72
  -2   5 -26   15.58    6.63
   2   5  27    2.52    3.44
   2  -5  27    0.01    3.34
  -2  -5 -27    7.36    3.52
  -2   5 -27   10.02    4.72
  -2   5 -27    8.41    3.92
   2   5  28    6.30    3.69
   2  -5  28    3.06    4.37
  -2  -5 -28   12.11    5.29
  -2   5 -28    9.71    5.76
  -2   5 -28    4.64    2.81
   2   5  29    4.41    3.73
   2  -5  29   20.50    9.56
  -2  -5 -29   13.36    6.25
  -2   5 -29   10.04    4.32
  -2   6  29   13.07    6.99
  -2  -6  29    0.47    3.90
   2  -6 -29   10.35    7.90
   2   6 -29    0.23    4.20
   2   6 -29    4.55    4.39
  -2   6  28    2.83    4.31
  -2  -6  28    9.04    3.40
   2  -6 -28   11.28    6.16
   2   6 -28    5.30    4.17
   2   6 -28   -4.83    4.05
  -2   6  27    3.38    4.30
  -2  -6  27    6.78    3.21
   2  -6 -27    4.11    2.47
   2   6 -27    3.04    3.90
   2   6 -27    0.64    4.48
  -2   6  26   15.71    6.57
  -2  -6  26   11.26    4.11
   2  -6 -26    5.31    5.27
   2   6 -26   23.56    9.89
   2   6 -26   25.98    9.03
  -2   6  25   12.45    5.82
  -2  -6  25   18.56    5.76
   2  -6 -25   14.10    7.71
   2   6 -25    1.81    3.66
   2   6 -25   -1.46    4.20
  -2   6  24   17.09    6.34
  -2  -6  24   21.25    7.19
   2  -6 -24   16.54    7.20
   2   6 -24   10.60    5.55
   2   6 -24    8.11    4.62
  -2   6  23    4.88    4.50
  -2  -6  23    7.29    4.40
   2  -6 -23   16.96    6.83
   2   6 -23   10.54    5.55
   2   6 -23   -1.92    3.61
  -2   6  22   16.17    5.46
  -2  -6  22    9.91    4.92
   2  -6 -22   28.63   11.44
   2   6 -22   25.77    6.00
   2   6 -22   24.29    7.76
  -2   6  21   62.53    9.52
  -2  -6  21   46.02   13.80
   2  -6 -21   71.60   11.97
   2   6 -21   81.21   10.98
   2   6 -21   55.63   13.69
  -2   6  20   20.06    7.15
  -2  -6  20    7.92    3.72
   2  -6 -20   12.82    5.77
   2   6 -20   29.10    6.60
   2   6 -20   31.19    7.74
  -2   6  19   21.28    7.13
  -2  -6  19   12.51    3.36
  -2  -6  19   29.62    6.48
   2  -6 -19   11.10    5.39
   2   6 -19   32.66    7.01
   2   6 -19   14.78    5.34
  -2   6  18    5.14    3.96
  -2  -6  18    3.52    1.37
  -2  -6  18    1.46    3.74
   2  -6 -18   20.36    7.33
   2   6 -18    7.30    2.92
   2   6 -18   10.31    3.74
  -2   6  17    6.07    3.56
  -2  -6  17    5.13    2.26
  -2  -6  17   17.89    5.05
   2  -6 -17   15.80    5.19
   2   6 -17   21.06    5.28
   2   6 -17   14.13    5.06
  -2   6  16   15.49    5.81
  -2  -6  16   12.94    3.35
  -2  -6  16   12.88    6.09
   2  -6 -16    3.14    4.26
   2   6 -16    9.07    3.17
   2   6 -16    8.55    4.27
  -2  -6  15  119.26    9.76
  -2  -6  15  116.23   11.14
  -2  -6  15  125.27   21.97
   2  -6 -15  127.88   15.98
   2   6 -15  136.64   13.05
  -2   6  14   76.22    8.17
  -2  -6  14   74.26    8.54
  -2  -6  14   69.08   10.63
   2  -6 -14   48.50    8.71
   2   6 -14   69.45    8.12
   2   6 -13  119.96   10.69
  -2   6  13  145.07   12.90
  -2  -6  13  130.97   11.00
  -2  -6  13  122.32   21.16
   2  -6 -13  136.91   12.27
   2   6 -13  123.32   11.70
   2   6 -12   39.33    7.38
  -2   6  12   32.49    6.36
  -2  -6  12   40.36    7.26
  -2  -6  12   42.06    6.78
   2  -6 -12   33.52    6.61
   2   6 -12   35.65    6.85
   2   6 -11    9.45    3.11
  -2   6  11   20.09    6.27
  -2  -6  11    9.56    3.87
  -2  -6  11   15.71    4.56
   2  -6 -11    9.59    4.50
   2   6 -11   14.95    5.26
   2   6 -10   16.20    4.68
  -2   6  10   22.14    6.48
  -2  -6  10   20.42    5.43
   2  -6 -10   14.43    4.79
  -2  -6  10   27.12    7.19
   2  -6 -10   30.02    6.69
   2   6 -10   37.03    7.02
   2   6  -9   70.53   12.96
  -2   6   9   83.91    8.08
  -2  -6   9   72.49   11.02
   2  -6  -9   59.99    8.67
  -2  -6   9   76.61   15.11
   2  -6  -9   78.77   13.24
   2   6  -8   59.82   10.04
  -2   6   8   47.85    7.71
  -2  -6   8   60.56    9.50
   2  -6  -8   55.60    8.47
  -2  -6   8   52.41    9.26
   2  -6  -8   51.04    9.12
   2   6  -8   54.25    9.01
   2   6  -7   20.06    5.58
  -2   6   7   21.79    5.61
  -2  -6   7    6.47    4.10
   2  -6  -7   19.93    5.68
  -2  -6   7   11.58    3.08
   2  -6  -7   24.14    6.30
   2   6  -7   12.45    4.87
   2   6  -6  265.51   20.67
  -2   6   6  285.23   31.05
  -2  -6   6  234.14   13.25
   2  -6  -6  245.95   17.63
  -2  -6   6  259.00   24.43
   2  -6  -6  232.33   13.30
   2   6  -6  278.59   34.26
   2   6  -5   30.43    8.94
  -2   6   5   22.06    5.47
  -2  -6   5   32.49    9.28
   2  -6  -5   31.30    6.22
  -2  -6   5   30.75    6.92
   2  -6  -5   34.67    5.53
   2   6  -5   31.18    7.21
   2   6  -4   25.41    5.17
  -2   6   4   15.55    4.01
  -2  -6   4   26.31    6.12
   2  -6  -4   26.35    5.77
  -2  -6   4   28.97    6.19
   2  -6  -4   19.28    5.47
   2   6  -4   21.92    6.35
   2   6  -3    7.77    4.31
  -2   6   3   12.40    4.19
  -2  -6   3   15.61    5.19
   2  -6  -3   20.48    4.98
  -2  -6   3    9.59    3.10
   2  -6  -3   10.48    3.99
   2   6  -3    4.39    1.77
   2   6  -3   14.60    4.08
   2   6  -2  223.87   13.42
  -2   6   2  225.16   10.79
  -2  -6   2  236.20   12.78
   2  -6  -2  213.49    9.62
  -2  -6   2  214.61    9.08
   2  -6  -2  196.00   10.17
   2   6  -2  187.61    8.19
   2   6  -2  201.15   29.45
  -2   6   2  255.88   11.92
   2   6  -1   19.95    4.78
  -2   6   1    8.17    3.27
   2  -6  -1   14.83    3.44
  -2  -6   1   19.48    4.66
  -2  -6   1   12.67    2.99
   2  -6  -1   26.51    5.95
   2   6  -1   10.32    2.72
   2   6  -1   22.42    6.91
  -2   6   1   21.39    4.99
   2   6   0  341.29   16.86
  -2   6   0  341.27   14.23
   2  -6   0  345.90   16.14
  -2   6   0  282.95   13.00
  -2  -6   0  323.72   12.74
   2  -6   0  324.95   14.01
   2   6   0  285.58   11.33
   2   6   0  347.99   14.36
  -2   6   0  337.13   14.42
   2   6   1   18.77    4.96
  -2   6  -1   15.48    4.18
   2  -6   1   25.65    5.17
  -2  -6  -1   16.31    4.65
  -2   6  -1   19.66    3.80
   2  -6   1   23.76    5.59
  -2  -6  -1   16.92    3.85
   2   6   1   12.85    3.51
   2   6   1   19.64    4.33
  -2   6  -1   24.75    6.00
   2   6   2    6.31    2.45
  -2   6  -2    4.88    2.52
   2  -6   2    3.22    2.09
  -2   6  -2    4.73    1.94
   2  -6   2   10.51    4.76
  -2  -6  -2    5.02    2.96
   2   6   2    2.71    1.91
   2   6   2    5.63    2.48
  -2   6  -2    5.29    3.61
   2   6   3   96.50   16.87
  -2   6  -3   98.38    9.96
   2  -6   3   88.41    8.10
  -2   6  -3   69.55    6.42
   2  -6   3   71.23    7.84
  -2  -6  -3   87.80    8.30
   2   6   3   95.58    9.15
  -2   6  -3   97.10    9.75
   2   6   4   68.34   10.05
  -2   6  -4   62.75   13.42
   2  -6   4   66.34    9.65
   2  -6   4   45.80    8.39
  -2  -6  -4   72.53   10.26
   2   6   4   68.24    9.59
  -2   6  -4   67.91   10.34
   2   6   5    5.88    4.03
  -2   6  -5    5.68    2.36
   2  -6   5    9.89    2.53
   2  -6   5    5.43    4.14
   2  -6   5    9.31    3.01
  -2  -6  -5    7.21    3.69
   2   6   5   14.50    3.61
  -2   6  -5   21.42    6.20
  -2  -6  -5    7.71    2.76
   2   6   6  208.42   20.65
  -2   6  -6  176.61   13.63
   2  -6   6  156.88    8.29
   2  -6   6  190.22   10.26
   2  -6   6  189.99   25.27
  -2  -6  -6  167.12   10.09
   2   6   6  192.81   21.33
  -2   6  -6  193.95   12.24
  -2  -6  -6  153.87    9.48
   2   6   7   96.92    7.83
  -2   6  -7  100.18    8.34
   2  -6   7   94.33    9.37
   2  -6   7  106.74    7.17
   2  -6   7  119.80   15.62
  -2  -6  -7  117.09    8.34
   2   6   7   98.21   11.26
  -2   6  -7  123.42    9.86
   2   6   8  200.67   22.69
  -2   6  -8  164.65   15.24
   2  -6   8  167.75   10.54
   2  -6   8  159.57   11.43
   2  -6   8  180.65   15.07
  -2  -6  -8  185.15   12.72
   2   6   8  174.41   11.01
  -2   6  -8  186.53   13.98
   2   6   9   32.27    6.85
  -2   6  -9   24.32    5.47
   2  -6   9   25.58    5.43
   2  -6   9   38.21    6.44
   2  -6   9   39.22    7.49
  -2  -6  -9   32.25    5.75
   2   6   9   27.15    6.31
  -2   6  -9   44.34    7.96
  -2   6 -10    5.22    1.79
   2  -6  10    1.67    1.01
   2  -6  10    5.61    3.80
   2  -6  10    1.70    3.49
  -2  -6 -10    8.38    3.73
   2   6  10    2.20    1.34
  -2   6 -10    3.07    4.13
  -2   6 -11   46.55    8.25
   2   6  11   58.14   13.63
   2  -6  11    0.07    0.37
   2  -6  11   50.37    7.93
   2  -6  11   47.45   11.81
  -2  -6 -11   42.93    7.34
  -2   6 -12   48.65    8.43
   2   6  12   81.32   11.36
   2  -6  12   57.93   11.40
   2  -6  12   72.65   11.39
   2  -6  12   88.63   15.00
  -2  -6 -12   68.45    6.72
   2   6  12   51.34    7.02
  -2   6 -12   71.65    8.68
   2   6  13   46.54   12.27
   2  -6  13   33.73    9.54
   2  -6  13   54.03   11.07
  -2  -6 -13   41.56   10.35
  -2   6 -13   47.79   10.28
   2   6  14  168.15   27.23
   2  -6  14  143.74   19.33
   2  -6  14  143.69   22.57
  -2  -6 -14  155.59   13.51
  -2   6 -14  211.39   18.68
   2   6  15    8.21    3.83
   2  -6  15   15.11    4.63
   2  -6  15   15.24    5.61
  -2  -6 -15   19.06    4.66
  -2   6 -15   23.03    6.62
   2   6  16   76.16   15.00
   2  -6  16   67.42   11.02
   2  -6  16   65.03   10.65
  -2  -6 -16   65.15    8.18
  -2   6 -16   38.32    6.86
   2   6  17    1.31    2.82
   2  -6  17    7.88    2.34
   2  -6  17   -6.64    4.33
  -2  -6 -17    2.69    3.81
  -2   6 -17    9.05    5.59
   2   6  18   20.80    5.37
   2  -6  18   17.54    5.67
   2  -6  18   25.18    8.48
  -2  -6 -18   16.29    5.85
  -2   6 -18   23.02    7.80
   2   6  19   15.75    5.44
   2  -6  19    3.55    2.04
   2  -6  19    0.98    2.86
  -2  -6 -19    8.08    4.34
  -2   6 -19    9.75    5.35
   2   6  20   76.35   15.04
   2  -6  20   89.93   14.65
   2  -6  20   69.02   15.73
  -2  -6 -20   71.77   12.97
  -2   6 -20   47.76   15.44
   2   6  21   -3.11    3.88
   2  -6  21    2.49    2.91
  -2  -6 -21    4.77    3.98
  -2   6 -21   -1.50    3.67
   2   6  22   10.59    5.32
   2  -6  22   17.69    5.53
  -2  -6 -22   23.06    8.00
  -2   6 -22   16.15    6.75
  -2   6 -22    3.33    6.11
   2   6  23   11.44    4.17
   2  -6  23   18.56    4.43
  -2  -6 -23   13.82    6.49
  -2   6 -23    8.32    4.95
  -2   6 -23   24.09    7.40
   2   6  24    7.60    4.27
   2  -6  24    4.27    3.11
  -2  -6 -24   11.25    6.23
  -2   6 -24   16.59    7.39
  -2   6 -24    0.24    3.86
   2   6  25   32.28    9.98
   2  -6  25   14.50    7.01
  -2  -6 -25   13.00    5.54
  -2   6 -25   13.41    7.12
  -2   6 -25    4.09    4.37
   2   6  26   12.98    5.97
   2  -6  26   14.72    7.14
  -2  -6 -26    2.36    4.27
  -2   6 -26    3.63    4.47
  -2   6 -26   12.00    4.89
   2   6  27    7.69    4.12
   2  -6  27    4.08    2.17
  -2  -6 -27    7.37    4.75
  -2   6 -27   -0.45    5.66
  -2   6 -27    3.52    2.92
  -2   7  28    1.73    3.82
  -2  -7  28   -0.44    4.37
   2  -7 -28   25.93   11.65
   2   7 -28    3.06    3.86
   2   7 -28   22.04    8.71
  -2   7  27   12.60    7.23
  -2  -7  27   -0.97    4.64
   2  -7 -27    3.51    5.51
   2   7 -27   10.95    5.97
   2   7 -27    6.83    3.99
  -2   7  26    0.80    4.36
  -2  -7  26   16.07    5.13
   2  -7 -26   21.14    8.95
   2   7 -26    3.19    3.09
   2   7 -26    7.96    4.99
  -2   7  25    1.83    2.79
  -2  -7  25   11.57    6.42
   2  -7 -25   17.61    9.59
   2   7 -25    6.62    4.27
   2   7 -25    4.71    3.69
  -2   7  24   -2.87    4.60
  -2  -7  24   13.21    5.10
   2  -7 -24    0.98    4.79
   2   7 -24    1.31    3.71
   2   7 -24    1.76    4.26
  -2   7  23   18.47    5.28
  -2  -7  23    2.77    2.15
   2  -7 -23   11.15    7.35
   2   7 -23   21.65    7.19
   2   7 -23   10.92    5.57
  -2   7  22   14.38    5.71
  -2  -7  22   16.04    6.88
   2  -7 -22   12.81    5.08
   2   7 -22   14.72    6.56
   2   7 -22    3.02    4.19
  -2   7  21   22.11    6.84
  -2  -7  21    5.34    4.80
   2  -7 -21   17.50    5.98
   2   7 -21    3.55    4.02
   2   7 -21   11.20    4.92
  -2   7  20   16.75    7.63
  -2  -7  20   -2.51    4.75
   2  -7 -20    2.34    4.22
   2   7 -20   42.78    8.24
   2   7 -20    6.99    4.08
  -2   7  19    3.05    4.13
  -2  -7  19    4.33    4.77
   2  -7 -19    8.76    7.52
   2   7 -19    5.11    1.91
   2   7 -19   14.64    6.56
  -2   7  18   55.30   10.19
  -2  -7  18   30.12    3.89
  -2  -7  18   32.15    7.06
   2  -7 -18   39.20    8.77
   2   7 -18   36.16    6.30
   2   7 -18   45.79    8.85
  -2   7  17   22.95    6.88
  -2  -7  17   32.42    4.81
  -2  -7  17   58.72    8.79
   2  -7 -17   39.30    9.05
   2   7 -17   33.33    7.46
  -2   7  16   34.62    8.43
  -2  -7  16   29.73    5.35
  -2  -7  16   29.72    7.67
  -2  -7  16   37.77    7.67
   2  -7 -16   30.90    8.28
   2   7 -16   54.49    8.64
  -2   7  15    6.42    4.32
  -2  -7  15    7.95    4.18
  -2  -7  15   10.78    4.39
   2  -7 -15    6.04    6.29
   2   7 -15   11.15    6.52
   2   7 -14   10.22    4.25
  -2   7  14   18.91    6.19
  -2  -7  14   13.40    4.49
  -2  -7  14    6.96    4.50
   2  -7 -14   15.74    6.75
   2   7 -14    2.87    4.39
   2   7 -13   14.52    4.29
  -2   7  13   12.46    5.41
  -2  -7  13   11.20    4.93
   2  -7 -13   14.29    4.87
  -2  -7  13   13.64    4.31
   2  -7 -13   10.00    5.05
   2   7 -13   16.12    5.99
   2   7 -12    7.28    2.29
  -2   7  12   -0.45    4.45
  -2  -7  12    9.14    4.47
   2  -7 -12   10.86    4.50
  -2  -7  12    0.59    2.70
   2  -7 -12   11.69    6.90
   2   7 -12    6.58    4.22
   2   7 -11  119.42   11.38
  -2   7  11  169.72   15.59
  -2  -7  11  126.65   12.15
   2  -7 -11  124.91   11.07
  -2  -7  11  131.65   16.65
   2  -7 -11  135.34   13.40
   2   7 -11  158.98   14.70
   2   7 -10  107.69   14.43
  -2   7  10  133.43   11.29
  -2  -7  10   97.87   10.47
   2  -7 -10  119.35    9.42
  -2  -7  10  101.87   12.76
   2  -7 -10  126.07   11.82
   2   7 -10  110.55   12.77
   2   7  -9   43.12    8.69
  -2   7   9   25.57    6.48
  -2  -7   9   55.98   10.52
   2  -7  -9   39.90    7.50
  -2  -7   9   36.80    7.01
   2  -7  -9   22.28    6.25
   2   7  -9   22.02    5.87
   2   7  -8   80.29   11.75
  -2   7   8   75.30    8.62
  -2  -7   8   76.53    9.60
   2  -7  -8   88.24    8.43
  -2  -7   8   73.43   11.13
   2  -7  -8   66.45    7.55
   2   7  -8   55.89   12.52
   2   7  -7   29.34    5.28
  -2   7   7   28.64    6.51
  -2  -7   7   18.11    5.22
   2  -7  -7   36.59    6.29
  -2  -7   7   29.80    6.42
   2  -7  -7   31.81    6.32
   2   7  -7   20.88    7.21
  -2   7   7   19.68    5.25
   2   7  -6   -0.42    2.38
  -2   7   6    8.95    4.36
  -2  -7   6    3.10    4.29
   2  -7  -6    6.92    4.68
  -2  -7   6    7.43    2.62
   2  -7  -6    5.69    4.26
   2   7  -6   13.24    4.99
  -2   7   6    1.24    3.84
   2   7  -5   45.03    8.97
  -2   7   5   39.98    7.16
  -2  -7   5   47.48    8.08
   2  -7  -5   52.94    9.65
  -2  -7   5   57.32   11.72
   2  -7  -5   33.46    6.61
   2   7  -5   62.10    9.77
  -2   7   5   55.18   10.11
   2   7  -4   74.20   10.06
  -2   7   4  117.16   10.05
  -2  -7   4  110.82    9.92
   2  -7  -4  110.01   13.54
  -2  -7   4  114.78   13.85
   2  -7  -4  107.17    9.52
   2   7  -4  132.10   10.86
  -2   7   4  104.20    9.21
   2   7  -3    5.50    2.14
  -2   7   3    0.30    3.11
  -2  -7   3    3.76    4.12
   2  -7  -3    4.25    2.47
  -2  -7   3    5.37    3.10
   2  -7  -3    2.67    3.63
   2   7  -3   -1.39    3.26
  -2   7   3    6.07    3.37
   2   7  -2   90.12   10.54
  -2   7   2  104.53    8.96
  -2  -7   2   95.08    8.84
   2  -7  -2   97.74    8.12
  -2  -7   2   84.82    7.17
   2  -7  -2   93.57    8.48
   2   7  -2   93.53    8.14
  -2   7   2  103.38    9.06
   2   7  -1    2.95    3.07
  -2   7   1    4.43    3.12
   2  -7  -1    8.99    3.92
  -2  -7   1    5.77    4.31
  -2  -7   1    0.80    2.23
   2  -7  -1   13.84    4.92
   2   7  -1    2.96    3.09
  -2   7   1    1.37    3.09
   2   7   0    8.79    2.57
  -2   7   0    1.97    2.79
   2  -7   0   12.08    4.15
  -2  -7   0    5.99    4.02
  -2  -7   0    7.01    2.83
   2  -7   0    5.46    3.46
   2   7   0    7.33    3.20
  -2   7   0   11.93    4.63
   2   7   1    5.60    3.72
  -2   7  -1    4.15    1.59
   2  -7   1    4.92    2.59
  -2  -7  -1    5.92    4.27
   2  -7   1    8.44    5.05
  -2  -7  -1    5.54    3.40
   2   7   1    6.70    2.31
  -2   7  -1   14.11    5.76
   2   7   2  132.79   16.89
  -2   7  -2  131.94   10.30
   2  -7   2  158.62   11.08
  -2  -7  -2  144.15   11.41
   2  -7   2  139.45   11.23
  -2  -7  -2  129.20    9.63
   2   7   2  131.78    9.97
  -2   7  -2  167.65   14.21
   2   7   3   67.99   14.73
  -2   7  -3   71.05   12.67
   2  -7   3   73.18   12.30
  -2  -7  -3   57.98    9.25
   2  -7   3   62.65    9.99
  -2  -7  -3   59.10   12.72
   2   7   3   70.81   14.63
  -2   7  -3   64.24    9.64
   2   7   4  270.98   19.98
  -2   7  -4  266.74   22.63
   2  -7   4  267.16   17.14
  -2  -7  -4  258.16   22.12
   2  -7   4  238.97   19.19
  -2  -7  -4  240.50   15.81
   2   7   4  237.85   15.32
  -2   7  -4  256.32   17.98
   2   7   5   40.12    7.47
  -2   7  -5   53.79    7.96
   2  -7   5   38.33    6.32
  -2  -7  -5   65.39    9.77
   2  -7   5   47.41    9.11
  -2  -7  -5   66.60    9.58
   2   7   5   63.13    8.42
   2   7   6   30.32    7.03
  -2   7  -6   14.97    4.78
   2  -7   6   11.43    3.41
  -2  -7  -6   18.96    6.59
   2  -7   6   19.71    6.74
  -2  -7  -6   15.88    4.44
   2   7   6   15.54    4.17
  -2   7  -6    5.77    4.01
   2   7   7    6.97    4.03
  -2   7  -7   10.12    3.27
   2  -7   7    0.13    2.45
  -2  -7  -7    2.20    3.93
   2  -7   7    8.22    5.02
  -2  -7  -7    3.18    2.82
   2   7   7    2.51    1.40
  -2   7  -7    2.71    3.56
   2   7   8   70.96    8.40
   2  -7   8   38.58    5.87
   2  -7   8   56.16    8.66
  -2  -7  -8   59.46    8.59
   2  -7   8   59.08    8.98
  -2  -7  -8   54.55    8.63
   2   7   8   47.04    9.23
  -2   7  -8   52.11    9.27
   2   7   9   99.47   15.43
  -2   7  -9   73.05   12.74
   2  -7   9   74.33    6.29
   2  -7   9   93.84    9.02
  -2  -7  -9   96.79   13.44
   2  -7   9   93.32   12.57
  -2  -7  -9  106.94   10.30
   2   7   9   95.26    7.96
  -2   7  -9   97.83   10.72
   2   7  10  238.83   23.97
   2  -7  10  243.49   18.92
  -2  -7 -10  212.72   17.81
   2  -7  10  187.68   30.21
  -2  -7 -10  241.67   19.26
   2   7  10  185.25   19.29
  -2   7 -10  240.94   20.52
  -2   7 -11    3.73    1.24
   2  -7  11    0.25    2.70
  -2  -7 -11    2.57    3.67
   2  -7  11    1.67    3.00
  -2  -7 -11    6.57    3.01
   2   7  11    3.74    1.74
  -2   7 -11    3.96    4.79
  -2   7 -12   50.76    7.82
   2   7  12   82.85   13.67
   2  -7  12   76.31    7.20
  -2  -7 -12  107.31    9.67
   2  -7  12   91.46   12.59
  -2  -7 -12   79.82    7.03
   2   7  12   60.64    8.13
  -2   7 -12  102.29   10.10
   2   7  13    8.34    2.83
   2  -7  13   13.23    4.23
  -2  -7 -13   -1.38    3.47
   2  -7  13    9.14    5.71
  -2  -7 -13    8.01    3.32
  -2   7 -13   22.86    8.95
   2   7  14    6.42    4.15
   2  -7  14    1.36    2.47
  -2  -7 -14   -2.30    3.37
   2  -7  14   -1.00    2.03
  -2  -7 -14    6.39    3.18
  -2   7 -14   -0.50    4.55
   2   7  15   40.84    8.71
   2  -7  15   33.17    6.64
  -2  -7 -15   30.72    5.39
   2  -7  15   20.90    7.18
  -2  -7 -15   39.04    7.78
  -2   7 -15   24.28    8.30
   2   7  16   82.37   14.70
   2  -7  16   86.30   14.96
  -2  -7 -16  112.39   12.81
   2  -7  16   81.92   12.64
  -2  -7 -16   78.76    9.39
  -2   7 -16  102.76   17.29
   2   7  17   19.48    5.66
   2  -7  17    4.41    2.45
  -2  -7 -17   -3.88    3.86
   2  -7  17   13.74    6.85
  -2  -7 -17   -0.39    3.08
  -2   7 -17   19.75    9.49
   2   7  18   73.88   16.42
   2  -7  18   54.77   10.90
   2  -7  18   80.12   16.85
  -2  -7 -18   82.27    8.03
  -2   7 -18  108.25   11.77
   2   7  19   13.82    4.22
   2  -7  19    7.95    2.58
   2  -7  19    1.44    1.98
  -2  -7 -19    5.61    3.54
  -2   7 -19    3.57    2.58
   2   7  20    3.16    4.44
   2  -7  20    8.58    3.89
   2  -7  20    6.48    3.89
  -2  -7 -20    0.51    3.47
  -2   7 -20    8.77    3.96
   2   7  21    5.92    3.44
   2  -7  21   12.20    3.81
   2  -7  21   14.67    4.93
  -2  -7 -21    6.05    5.37
  -2   7 -21    9.09    5.51
   2   7  22    4.77    6.43
   2  -7  22    8.81    5.08
   2  -7  22    9.59    9.60
  -2  -7 -22   18.51    5.97
  -2   7 -22   14.49    5.97
   2   7  23    9.59    5.71
  -2  -7 -23    5.28    4.16
  -2   7 -23    8.86    5.17
  -2   7 -23    9.05    5.27
   2   7  24   43.29   13.67
   2  -7  24   30.93    9.59
  -2  -7 -24   20.39    7.81
  -2   7 -24   45.55   14.43
  -2   7 -24   44.85   13.77
   2   7  25    6.80    4.18
   2  -7  25   11.69    5.08
  -2  -7 -25    9.09    5.16
  -2   7 -25    7.49    3.97
  -2   7 -25   10.22    5.34
   2   7  26    7.33    5.76
   2  -7  26    6.33    2.94
  -2  -7 -26   11.71    3.95
  -2   7 -26   -1.18    5.28
  -2   7 -26   11.99    7.21
  -2   8  26   11.15    7.20
  -2  -8  26   11.82    5.44
   2  -8 -26    8.86    5.89
   2   8 -26    2.07    3.78
   2   8 -26   -3.01    4.53
  -2   8  25    6.03    5.09
  -2  -8  25    8.72    5.47
   2  -8 -25    2.53    5.08
   2   8 -25   10.67    6.30
   2   8 -25    1.04    4.77
  -2   8  24   13.26    6.38
   2  -8 -24    8.97    7.54
   2   8 -24    8.39    2.95
   2   8 -24    3.07    4.76
  -2   8  23   21.30    8.74
  -2  -8  23   20.77    8.57
   2  -8 -23   39.73   12.89
   2   8 -23   31.75   11.03
   2   8 -23   47.47   13.60
  -2   8  22   11.20    6.53
  -2  -8  22    1.90    4.61
   2  -8 -22   13.75    6.29
   2   8 -22    6.68    4.83
   2   8 -22    3.58    2.85
  -2   8  21   35.82   10.42
  -2  -8  21    9.26    5.86
   2  -8 -21   31.69   10.40
   2   8 -21   15.83    5.27
   2   8 -21   11.58    4.76
  -2   8  20   15.37    7.31
  -2  -8  20   14.90    6.43
   2  -8 -20   12.37    7.39
   2   8 -20   21.55    6.97
   2   8 -20   18.11    5.76
  -2   8  19    1.87    5.50
  -2  -8  19    1.78    4.24
   2  -8 -19   -4.02    4.34
   2   8 -19   10.71    5.75
   2   8 -19    4.91    4.29
  -2  -8  18   22.82    8.27
   2  -8 -18   17.11    4.75
   2  -8 -18    6.63    4.53
   2   8 -18   12.83    3.67
  -2  -8  17   18.95    8.40
   2  -8 -17   18.92    6.71
  -2  -8  17   22.89    5.62
   2  -8 -17   18.60    9.01
   2   8 -17   17.87    7.86
  -2   8  17   10.27    3.81
  -2   8  16   -0.56    4.41
  -2  -8  16    3.35    4.94
   2  -8 -16    3.11    3.04
  -2  -8  16    6.57    3.38
   2  -8 -16    5.46    4.78
   2   8 -16   14.04    6.78
  -2   8  16    2.51    2.02
  -2   8  15   19.46    7.44
  -2  -8  15   21.29    7.71
   2  -8 -15   13.02    4.46
  -2  -8  15   21.69    9.62
   2  -8 -15   15.47    5.91
   2   8 -15   30.41    7.27
  -2   8  15   20.44    5.04
   2   8 -14   29.35    6.34
  -2   8  14   42.84    7.96
  -2  -8  14   54.55    8.68
   2  -8 -14   20.28    5.09
  -2  -8  14   43.13    6.33
   2  -8 -14   36.22    7.50
   2   8 -14   40.99    8.24
  -2   8  14   40.32    6.13
   2   8 -13   21.36    5.71
  -2   8  13   19.65    9.24
  -2  -8  13   27.32    6.93
   2  -8 -13    6.70    3.47
  -2  -8  13   16.21    6.67
   2  -8 -13   14.79    6.03
   2   8 -13   26.24    7.19
  -2   8  13   25.03    6.56
   2   8 -12   25.11    6.00
  -2   8  12   65.70   10.35
  -2  -8  12   41.12    6.64
   2  -8 -12   60.01    8.03
  -2  -8  12   37.35    7.54
   2  -8 -12   28.90    8.37
   2   8 -12   21.41    6.46
  -2   8  12   27.76    6.29
   2   8 -11   20.61    5.98
  -2   8  11   10.42    5.39
  -2  -8  11   20.47    6.98
   2  -8 -11    3.52    2.81
  -2  -8  11    9.36    3.32
   2  -8 -11    6.29    4.16
   2   8 -11    7.08    3.17
  -2   8  11    1.86    2.77
   2   8 -10    8.15    4.08
  -2   8  10   55.24    9.22
  -2  -8  10   17.43    6.70
   2  -8 -10   15.88    5.99
  -2  -8  10   17.25    4.62
   2  -8 -10   23.45    6.06
   2   8 -10   21.71    6.64
  -2   8  10   21.06    5.57
   2   8  -9   48.79    6.65
  -2   8   9   54.40    8.78
  -2  -8   9   37.15    7.88
   2  -8  -9   43.76    8.19
  -2  -8   9   35.16    8.27
   2  -8  -9   48.58    7.10
   2   8  -9   40.38    8.61
  -2   8   9   31.52    5.74
   2   8  -8    2.66    2.30
  -2   8   8    5.97    4.27
  -2  -8   8    4.94    4.08
   2  -8  -8    6.16    2.82
  -2  -8   8    6.36    1.87
   2  -8  -8   21.56    8.28
   2   8  -8   -1.43    3.96
  -2   8   8    5.86    2.67
   2   8  -7  110.36   14.77
  -2   8   7  114.95   11.71
  -2  -8   7  137.27   13.45
   2  -8  -7   94.20   11.89
  -2  -8   7  106.39   14.25
   2  -8  -7   69.06    8.56
   2   8  -7  122.72   16.73
  -2   8   7  115.17   10.41
   2   8  -6   13.87    3.97
  -2   8   6   23.23    6.50
  -2  -8   6    9.96    6.30
   2  -8  -6   18.58    6.57
  -2  -8   6   16.37    5.08
   2  -8  -6    7.03    4.65
   2   8  -6    9.66    5.01
  -2   8   6   15.08    5.13
   2   8  -5   22.71    6.24
  -2   8   5   18.85    4.97
  -2  -8   5   25.58    6.42
   2  -8  -5   14.23    4.61
  -2  -8   5   12.25    3.35
   2  -8  -5   21.16    6.74
   2   8  -5   13.45    5.23
  -2   8   5   22.31    5.89
   2   8  -4   23.24    6.72
  -2   8   4   28.39    7.38
  -2  -8   4   31.16    7.74
   2  -8  -4   29.50    6.65
  -2  -8   4   27.36    7.63
   2  -8  -4   29.87    7.60
   2   8  -4   28.50    6.72
  -2   8   4   36.35   10.11
   2   8  -3   55.55    8.30
  -2   8   3   60.01    8.61
  -2  -8   3   32.60    7.86
   2  -8  -3   42.14    8.20
  -2  -8   3   53.50    8.78
   2  -8  -3   46.03   10.00
   2   8  -3   41.03    8.48
  -2   8   3   66.42    8.17
   2   8  -2   30.34    7.10
  -2   8   2    6.09    5.32
  -2  -8   2   12.68    5.75
   2  -8  -2   12.71    4.27
  -2  -8   2    8.48    3.66
   2  -8  -2   12.56    5.16
   2   8  -2    7.94    4.06
  -2   8   2   21.17    6.49
   2   8  -1  144.21   17.38
  -2   8   1  149.09   13.41
   2  -8  -1  168.06   14.05
  -2  -8   1  128.10   12.40
  -2  -8   1  126.15   16.75
   2  -8  -1  138.46   13.11
   2   8  -1  150.39   13.16
  -2   8   1  138.59   12.28
   2   8   0    6.56    4.90
  -2   8   0   11.58    5.16
   2  -8   0    4.80    3.16
  -2  -8   0   -4.18    4.55
  -2  -8   0    2.59    2.27
   2  -8   0    4.61    4.37
   2   8   0    7.12    4.13
  -2   8   0   -0.40    3.44
   2   8   1   47.12   10.54
  -2   8  -1   55.68    6.95
   2  -8   1   54.76    6.12
  -2  -8  -1   64.15    8.66
   2  -8   1   66.56    8.39
  -2  -8  -1   58.52    6.46
   2   8   1   72.53    9.68
  -2   8  -1   62.31    8.08
   2   8   2   15.45    5.70
  -2   8  -2    6.05    3.30
   2  -8   2   10.56    4.36
  -2  -8  -2   11.64    4.54
   2  -8   2   11.22    6.07
  -2  -8  -2   12.92    4.05
   2   8   2   12.81    4.43
  -2   8  -2    9.10    5.07
   2   8   3   19.31    5.69
  -2   8  -3   14.55    4.86
   2  -8   3   19.07    5.45
  -2  -8  -3   24.53    7.21
   2  -8   3   17.65    7.31
  -2  -8  -3   11.06    3.86
   2   8   3   18.41    6.17
  -2   8  -3   21.98    7.05
   2   8   4   14.92    5.53
  -2   8  -4   12.45    5.06
   2  -8   4    2.84    2.87
  -2  -8  -4    0.74    4.22
   2  -8   4    9.50    4.28
  -2  -8  -4   11.90    4.35
   2   8   4   12.31    4.72
  -2   8  -4   21.76    6.68
   2   8   5   16.37    6.66
  -2   8  -5   14.15    4.42
   2  -8   5    8.76    3.81
  -2  -8  -5    9.01    4.11
   2  -8   5   24.62    8.83
  -2  -8  -5   14.40    4.67
   2   8   5   14.48    4.58
  -2   8  -5   20.61    6.24
   2   8   6   31.62    7.51
  -2   8  -6   34.62    6.23
   2  -8   6   20.95    4.64
  -2  -8  -6   30.60    6.82
   2  -8   6   40.27    8.17
  -2  -8  -6   16.25    5.27
   2   8   6   23.27    5.80
  -2   8  -6   30.93    7.14
   2   8   7   60.91    8.36
   2  -8   7   69.06    6.56
  -2  -8  -7   48.35    7.41
   2  -8   7   34.69    8.95
  -2  -8  -7   72.21    7.52
   2   8   7   49.23    6.57
  -2   8  -7   39.82    8.07
   2   8   8    4.64    4.38
  -2   8  -8   13.25    3.69
   2  -8   8    2.51    1.58
  -2  -8  -8    8.28    5.72
   2  -8   8   12.63    4.45
  -2  -8  -8    4.07    2.77
   2   8   8   10.28    3.20
  -2   8  -8   18.13    6.75
  -2   8  -9    2.31    1.45
   2   8   9    4.22    4.49
   2  -8   9    1.42    2.65
  -2  -8  -9    4.02    3.92
   2  -8   9   -0.67    4.17
  -2  -8  -9   16.04    5.64
   2   8   9    5.81    1.77
  -2   8  -9   11.14    5.51
  -2   8 -10    3.24    1.12
   2   8  10   18.46    5.84
   2  -8  10    1.57    2.74
  -2  -8 -10   24.08    7.77
   2  -8  10   13.12    5.87
  -2  -8 -10    4.61    3.01
   2   8  10    1.25    1.04
  -2   8 -10   11.20    6.72
  -2   8 -11    2.19    0.78
   2   8  11    7.73    4.67
   2  -8  11    9.18    4.44
  -2  -8 -11   -0.03    3.97
   2  -8  11    5.62    1.93
  -2  -8 -11    6.97    3.01
   2   8  11   -0.17    0.85
  -2   8 -11    2.41    4.90
   2   8  12   16.88    4.88
   2  -8  12   29.89    5.74
  -2  -8 -12   18.38    7.62
   2  -8  12   23.19    5.90
  -2  -8 -12    9.53    4.17
  -2   8 -12   53.06   10.34
   2   8  13   26.19    7.07
   2  -8  13   22.60    6.02
  -2  -8 -13   28.61    8.15
   2  -8  13   29.91    6.58
  -2  -8 -13   38.20    6.17
  -2   8 -13   41.95    9.13
   2   8  14   -2.62    3.60
   2  -8  14   12.01    4.15
  -2  -8 -14    8.72    5.89
   2  -8  14    5.93    5.97
  -2  -8 -14    1.43    3.11
  -2   8 -14   10.78    5.82
   2   8  15   14.90    6.30
   2  -8  15   22.37    5.54
  -2  -8 -15    3.31    4.47
   2  -8  15    9.65    5.59
  -2  -8 -15   19.37    6.64
  -2   8 -15   30.72    7.11
   2   8  16    6.20    4.30
   2  -8  16    9.82    3.40
  -2  -8 -16    7.53    4.57
   2  -8  16    9.40    4.78
  -2  -8 -16   13.51    6.18
  -2   8 -16    9.38    5.52
   2   8  17   -2.86    3.76
   2  -8  17   10.34    4.03
  -2  -8 -17   10.74    6.86
   2  -8  17   13.25    4.28
  -2  -8 -17    4.18    3.48
  -2   8 -17   -0.02    4.50
   2   8  18   -1.58    4.08
   2  -8  18    9.98    5.43
  -2  -8 -18    5.76    6.17
   2  -8  18    9.14    4.49
  -2  -8 -18    1.10    3.46
  -2   8 -18    2.90    4.68
   2   8  19   20.25    5.66
   2  -8  19   14.48    5.10
  -2  -8 -19   25.58   10.18
   2  -8  19   25.50    5.80
  -2  -8 -19   22.82    7.49
  -2   8 -19   24.21    8.08
   2   8  20    8.91    5.41
   2  -8  20   11.91    4.83
  -2  -8 -20    8.66    4.82
   2  -8  20    4.96    2.79
  -2  -8 -20    3.09    3.76
  -2   8 -20   10.52    5.70
   2   8  21   31.34   10.11
   2  -8  21   12.74    4.05
  -2  -8 -21   20.14    9.01
   2  -8  21   13.43    5.67
  -2  -8 -21   26.92    9.66
  -2   8 -21   26.81    9.43
   2   8  22   33.98   11.29
   2  -8  22   11.79    5.96
  -2  -8 -22    7.58    5.26
   2  -8  22   20.15    7.01
  -2  -8 -22   11.41    6.62
  -2   8 -22    7.14    6.21
   2   8  23    9.57    6.16
   2  -8  23   14.17    4.75
  -2  -8 -23   -7.66    4.26
  -2  -8 -23   -1.10    4.35
  -2   8 -23    9.46    6.60
   2   8  24    7.64    4.65
   2  -8  24   -1.87    3.78
  -2  -8 -24    7.85    4.74
  -2  -8 -24    2.74    4.51
  -2   8 -24   30.06    9.73
  -2   8 -24    9.29    5.26
  -2   9  23   13.43    5.86
  -2  -9  23    6.74    3.63
   2  -9 -23    2.86    3.74
   2  -9 -23   10.17    5.33
   2   9 -23    1.77    3.66
   2   9 -23   18.95    8.34
  -2   9  22   -0.51    4.37
  -2  -9  22    1.91    5.28
   2  -9 -22    1.66    3.52
   2  -9 -22    2.86    4.54
   2   9 -22    6.34    4.48
   2   9 -22    8.90    4.17
  -2   9  21   21.45    8.89
  -2  -9  21   -0.51    4.42
   2  -9 -21    7.14    4.17
   2  -9 -21   21.68    8.46
   2   9 -21   11.73    5.26
   2   9 -21   15.88    8.01
  -2   9  20    2.66    4.51
  -2  -9  20   -1.01    4.36
   2  -9 -20    8.77    4.01
   2  -9 -20   13.61    6.76
   2   9 -20    8.13    5.19
   2   9 -20   -0.50    3.51
  -2   9  19    3.39    2.74
  -2  -9  19   12.37    7.01
   2  -9 -19   21.23    7.11
   2  -9 -19   19.01    6.61
   2   9 -19    5.68    5.39
  -2   9  18    2.05    4.59
  -2  -9  18   15.06    6.29
   2  -9 -18   16.55    5.93
  -2  -9  18   13.91    5.24
   2  -9 -18   11.07    5.21
   2   9 -18   14.45    6.07
  -2   9  17   24.10    6.30
  -2  -9  17   36.82   10.53
   2  -9 -17   49.00   10.70
  -2  -9  17   29.43    9.76
   2  -9 -17   31.84    8.10
   2   9 -17   37.22    9.93
  -2   9  16   11.11    4.58
  -2  -9  16    8.05    6.44
   2  -9 -16   -1.37    3.05
  -2  -9  16    4.95    2.25
   2  -9 -16    1.42    3.96
   2   9 -16   13.98    5.23
   2   9 -15   10.86    3.71
  -2   9  15    4.42    4.50
  -2  -9  15    8.03    4.68
   2  -9 -15   13.77    4.90
  -2  -9  15   14.09    3.58
   2  -9 -15    3.40    3.62
   2   9 -15   28.27    7.75
  -2   9  15    1.09    2.33
   2   9 -14   12.62    4.80
  -2   9  14    8.19    4.81
  -2  -9  14   12.90    5.18
   2  -9 -14    2.61    1.95
  -2  -9  14    8.30    2.72
   2  -9 -14    5.85    4.17
  -2   9  14    5.72    3.65
   2   9 -13    9.57    3.41
  -2   9  13   26.83    7.86
  -2  -9  13   18.60    7.37
   2  -9 -13    2.92    3.50
  -2  -9  13    9.10    3.35
   2  -9 -13   14.82    5.32
   2   9 -13   21.94    6.95
  -2   9  13    6.66    3.06
   2   9 -12   33.06    9.71
  -2   9  12   41.75    9.10
  -2  -9  12   73.53   12.02
   2  -9 -12   26.45    5.76
  -2  -9  12   33.64    9.77
   2  -9 -12   55.88   11.08
   2   9 -12   30.85    7.18
  -2   9  12   48.99    7.28
   2   9 -11   48.41   10.21
  -2   9  11   69.94   10.83
  -2  -9  11   62.32   10.10
   2  -9 -11   58.22   11.84
  -2  -9  11   58.46   14.71
   2  -9 -11   62.47   10.06
   2   9 -11   62.84   10.00
  -2   9  11   55.68   10.45
   2   9 -10   19.37    6.71
  -2   9  10    7.00    4.60
  -2  -9  10   14.16    6.92
   2  -9 -10    4.00    3.26
  -2  -9  10    6.54    2.53
   2  -9 -10   19.33    7.51
   2   9 -10   11.12    6.28
  -2   9  10   11.05    4.10
   2   9  -9   10.81    4.66
  -2   9   9   33.40    8.20
  -2  -9   9   12.00    5.18
   2  -9  -9   13.19    4.88
  -2  -9   9    9.41    4.04
   2  -9  -9   31.87    7.52
   2   9  -9   18.22    7.49
  -2   9   9   19.00    6.29
   2   9  -8    6.65    3.04
  -2   9   8   11.79    5.05
  -2  -9   8   12.24    7.48
   2  -9  -8   21.23    6.35
  -2  -9   8   24.02    6.19
   2  -9  -8   13.45    6.32
   2   9  -8   13.00    4.28
  -2   9   8    7.35    3.60
   2   9  -7    6.12    2.79
  -2   9   7    0.81    3.92
  -2  -9   7   10.25    5.64
   2  -9  -7    8.44    3.23
  -2  -9   7    6.53    2.61
   2  -9  -7    6.00    4.32
   2   9  -7    5.96    3.17
  -2   9   7    7.63    4.61
   2   9  -6   36.32    8.37
  -2   9   6   50.67    8.77
  -2  -9   6    6.26    4.13
   2  -9  -6   35.96    7.41
  -2  -9   6   39.31    5.86
   2  -9  -6   31.46    7.40
   2   9  -6   63.15    9.64
  -2   9   6   37.96    8.40
   2   9  -5   52.10   10.24
  -2   9   5   72.78   15.59
  -2  -9   5   75.00   10.03
   2  -9  -5   55.81    7.65
  -2  -9   5   81.52   11.22
   2  -9  -5   70.50    8.88
   2   9  -5   87.80   10.96
  -2   9   5   53.39    7.92
   2   9  -4   26.84    6.42
  -2   9   4   33.55    7.75
  -2  -9   4   28.83    7.64
   2  -9  -4   29.69    7.09
  -2  -9   4   28.74    6.53
   2  -9  -4   24.31    6.84
   2   9  -4   36.95    9.96
  -2   9   4   32.22    7.41
   2   9  -3   24.89    6.61
  -2   9   3   37.34    8.93
  -2  -9   3   20.09    5.49
   2  -9  -3   31.99    6.54
  -2  -9   3   42.17    7.27
   2  -9  -3   25.88    7.19
   2   9  -3   35.40    9.34
  -2   9   3   35.01    8.04
   2   9  -2   32.52    7.79
  -2   9   2   13.65    4.64
  -2  -9   2    8.57    4.73
   2  -9  -2   20.15    5.18
  -2  -9   2   28.79   10.36
   2  -9  -2   18.05    6.92
   2   9  -2   27.31    6.00
  -2   9   2   21.70    6.89
   2   9  -1   13.08    4.57
  -2   9   1   13.04    5.79
   2  -9  -1    5.41    2.83
  -2  -9   1    4.85    4.32
  -2  -9   1    7.10    3.50
   2  -9  -1    6.55    4.35
   2   9  -1    2.34    1.63
  -2   9   1   14.34    5.81
   2   9   0   14.76    7.54
  -2   9   0   13.51    5.74
   2  -9   0   11.44    4.69
  -2  -9   0    9.84    4.09
  -2  -9   0   18.77    4.70
   2  -9   0   12.05    5.11
   2   9   0    8.57    4.03
  -2   9   0    5.72    3.94
   2   9   1    2.62    1.73
  -2   9  -1    4.88    3.26
   2  -9   1    4.93    2.60
  -2  -9  -1   -4.18    4.49
   2  -9   1    4.54    4.15
  -2  -9  -1    9.80    4.35
   2   9   1    7.64    3.96
  -2   9  -1    3.73    5.71
   2   9   2   29.13    6.78
  -2   9  -2   34.01    7.50
   2  -9   2   53.15    7.21
  -2  -9  -2   26.36    7.91
   2  -9   2   64.18    9.98
  -2  -9  -2   32.29    6.69
   2   9   2   40.23    5.66
  -2   9  -2   40.40    7.20
   2   9   3   85.36   17.10
  -2   9  -3   98.31   11.10
   2  -9   3   73.26    9.54
  -2  -9  -3   89.56   10.63
   2  -9   3   95.38   10.15
  -2  -9  -3   88.06    9.15
   2   9   3   72.49   12.39
  -2   9  -3   83.52   10.26
   2   9   4   61.08   11.86
  -2   9  -4   57.30   12.74
   2  -9   4   79.60    8.53
  -2  -9  -4   70.37    9.07
   2  -9   4   73.59   14.50
  -2  -9  -4   79.14    9.02
   2   9   4   72.01    7.25
  -2   9  -4   65.30    9.84
   2   9   5   12.72    4.51
  -2   9  -5   17.18    5.26
   2  -9   5   21.16    6.60
  -2  -9  -5   18.05    6.47
   2  -9   5    9.28    3.26
  -2  -9  -5   12.37    4.42
   2   9   5   17.25    5.00
  -2   9  -5   20.64    9.27
   2   9   6   21.12    6.92
  -2   9  -6    2.41    2.28
   2  -9   6    2.16    2.74
  -2  -9  -6    8.66    4.67
   2  -9   6    7.49    3.96
  -2  -9  -6    4.85    2.82
   2   9   6    7.14    4.02
  -2   9  -6   -4.89    3.88
   2   9   7   11.24    5.08
  -2   9  -7    3.92    2.24
   2  -9   7    5.98    3.13
  -2  -9  -7    9.40    6.48
   2  -9   7    7.36    3.58
  -2  -9  -7    0.96    2.60
   2   9   7    5.45    2.86
  -2   9  -7    6.74    5.89
   2   9   8   24.36    8.12
  -2   9  -8   21.96    6.75
   2  -9   8    7.17    3.24
  -2  -9  -8   31.98    8.03
   2  -9   8   31.37    8.36
  -2  -9  -8   28.59    5.41
   2   9   8   19.13    6.58
  -2   9  -8   25.88    8.05
  -2   9  -9   18.35    4.82
   2   9   9   23.42    8.14
   2  -9   9   11.38    4.88
  -2  -9  -9   51.14   11.11
   2  -9   9   13.97    5.12
  -2  -9  -9   17.51    5.56
   2   9   9   11.37    4.12
  -2   9  -9   28.25    8.12
   2   9  10   34.79    7.51
   2  -9  10   71.48    9.45
  -2  -9 -10   66.50   10.94
   2  -9  10   64.36   14.78
  -2  -9 -10   61.61    9.50
  -2   9 -10   60.64   10.10
   2   9  11   14.47    5.69
   2  -9  11   10.98    4.98
  -2  -9 -11   15.60    7.70
   2  -9  11   22.12    7.01
  -2  -9 -11    8.09    3.15
  -2   9 -11   49.34   11.54
   2   9  12    4.66    3.55
   2  -9  12    7.68    4.69
  -2  -9 -12    1.74    4.25
   2  -9  12    4.27    3.91
  -2  -9 -12   12.25    5.20
  -2   9 -12   19.24    8.25
   2   9  13    9.89    5.20
   2  -9  13    4.80    2.93
  -2  -9 -13   13.89    6.61
   2  -9  13    4.99    2.84
  -2  -9 -13    8.48    4.60
  -2   9 -13    9.84    6.54
   2  -9  14   12.33    4.69
  -2  -9 -14   14.73    4.46
   2  -9  14    4.39    3.18
  -2  -9 -14   19.13    5.26
  -2   9 -14   11.53    7.44
   2   9  15   32.64    9.85
   2  -9  15   18.36    5.05
  -2  -9 -15   14.77    6.91
   2  -9  15   13.70    4.30
  -2  -9 -15   19.14    7.27
  -2   9 -15   22.93    8.87
   2   9  16   21.88    7.08
   2  -9  16   18.37    6.05
  -2  -9 -16   16.99    6.26
   2  -9  16   17.48    7.60
  -2  -9 -16   14.91    6.11
  -2   9 -16   18.42    8.37
   2   9  17   17.16    6.43
   2  -9  17   -2.45    3.69
  -2  -9 -17   21.41    7.92
   2  -9  17   16.39    6.37
  -2  -9 -17    7.79    4.60
  -2   9 -17    7.18    5.85
   2   9  18    9.44    6.85
   2  -9  18    2.14    1.75
  -2  -9 -18    7.27    7.03
   2  -9  18    8.43    4.18
  -2  -9 -18    3.77    3.77
  -2   9 -18   25.42    9.77
   2   9  19    7.03    4.79
   2  -9  19    5.91    4.26
  -2  -9 -19    7.24    5.27
   2  -9  19   -2.03    4.45
  -2  -9 -19    5.38    5.23
  -2   9 -19   -2.75    4.88
   2   9  20    4.60    4.28
   2  -9  20    2.63    2.27
  -2  -9 -20    7.54    4.79
   2  -9  20    6.59    4.87
  -2  -9 -20    5.52    3.89
  -2   9 -20   -1.51    5.17
   2   9  21    7.86    6.81
   2  -9  21   13.56    4.70
  -2  -9 -21    3.79    4.01
   2  -9  21   11.01    5.53
  -2  -9 -21   -1.64    3.66
  -2   9 -21    9.41    6.14
   2   9  22   15.65    7.81
   2  -9  22    5.06    4.73
  -2  -9 -22    3.57    4.66
   2  -9  22    8.35    4.88
  -2  -9 -22    4.54    4.31
  -2   9 -22   17.08    8.76
  -2  10  21    0.71    4.97
  -2 -10  21   10.44    8.03
   2 -10 -21    5.64    3.95
   2 -10 -21   13.83    7.82
   2  10 -21    3.42    3.80
   2  10 -21   16.58    8.19
  -2  10  20    8.49    5.84
  -2 -10  20    6.43    5.28
   2 -10 -20   -4.13    3.21
   2 -10 -20    2.42    4.58
   2  10 -20   10.29    5.84
   2  10 -20    0.67    3.21
  -2  10  19    4.01    5.06
  -2 -10  19    4.48    5.09
   2 -10 -19    2.69    3.45
  -2 -10  19    4.84    2.58
   2 -10 -19   12.01    5.76
   2  10 -19   13.85    6.81
  -2  10  18    4.08    5.08
  -2 -10  18    4.26    6.23
   2 -10 -18    4.66    3.47
  -2 -10  18    4.43    2.51
   2 -10 -18   17.06    8.28
   2  10 -18    3.32    5.33
  -2  10  17    5.40    5.32
  -2 -10  17   -1.52    4.24
   2 -10 -17    1.59    3.30
  -2 -10  17   11.35    6.05
   2 -10 -17    0.42    4.79
   2  10 -17    3.90    5.39
  -2  10  16   13.91    6.94
  -2 -10  16   -1.56    4.18
   2 -10 -16    9.43    4.06
  -2 -10  16    2.73    3.08
   2 -10 -16   11.87    5.63
   2  10 -16    6.92    4.94
  -2  10  15   14.31    7.49
  -2 -10  15    2.65    4.79
   2 -10 -15    7.48    3.77
  -2 -10  15    3.51    2.09
   2 -10 -15   10.69    6.72
   2  10 -15    4.06    3.05
  -2  10  14   11.86    7.30
  -2 -10  14   17.46    7.94
   2 -10 -14   24.01    6.57
  -2 -10  14   19.25    7.03
   2 -10 -14    7.94    5.31
   2  10 -14   21.32    7.65
   2  10 -13    5.83    2.63
  -2  10  13   10.27    6.65
  -2 -10  13    7.93    5.44
   2 -10 -13    5.07    5.03
  -2 -10  13    6.19    4.04
   2 -10 -13   14.05    6.01
   2  10 -13    8.40    5.32
  -2  10  13   11.46    4.53
   2  10 -12    9.55    3.87
  -2  10  12   19.26    5.94
  -2 -10  12    5.01    4.77
   2 -10 -12   -2.31    3.23
  -2 -10  12    8.65    3.93
   2 -10 -12   -4.66    4.18
   2  10 -12    5.65    2.37
  -2  10  12    6.35    3.69
   2  10 -11    7.66    3.53
  -2  10  11    3.46    4.25
  -2 -10  11    5.54    4.50
   2 -10 -11    1.24    3.32
  -2 -10  11   -0.59    3.20
   2 -10 -11    4.16    4.32
   2  10 -11   -1.60    4.27
  -2  10  11    0.28    2.98
   2  10 -10   14.61    4.07
  -2  10  10    8.16    6.15
  -2 -10  10   15.20    6.14
   2 -10 -10    2.45    1.95
  -2 -10  10    3.48    2.74
   2 -10 -10   10.92    4.17
   2  10 -10   -1.37    4.15
  -2  10  10   20.57    5.75
   2  10  -9    2.09    1.80
  -2  10   9    7.58    4.41
  -2 -10   9    7.28    4.56
   2 -10  -9    1.55    1.74
  -2 -10   9    3.09    1.77
   2 -10  -9    7.56    4.34
   2  10  -9    2.08    2.76
  -2  10   9    4.99    5.34
   2  10  -8   23.50    6.27
  -2  10   8   28.32    7.55
  -2 -10   8   34.17    8.22
   2 -10  -8   36.33    8.04
  -2 -10   8   23.46    5.92
   2 -10  -8   37.89   10.24
   2  10  -8   18.97    6.63
  -2  10   8   19.43    7.32
   2  10  -7    8.37    3.01
  -2  10   7   11.99    5.05
  -2 -10   7    9.10    4.31
   2 -10  -7    5.75    5.08
  -2 -10   7   16.46    6.56
   2 -10  -7    4.43    4.17
   2  10  -7   -0.88    4.15
  -2  10   7   10.04    5.29
   2  10  -6   40.48   13.16
  -2  10   6   32.25    8.82
  -2 -10   6   32.72    8.99
   2 -10  -6   29.89    6.57
  -2 -10   6   32.23    9.42
   2 -10  -6   35.51    8.86
   2  10  -6   35.58    9.09
  -2  10   6   64.28   13.07
   2  10  -5    3.07    3.13
  -2  10   5   15.45    6.72
  -2 -10   5    6.68    4.99
   2 -10  -5    2.01    2.95
  -2 -10   5    8.94    4.64
   2 -10  -5   21.36    7.28
   2  10  -5   11.32    5.10
  -2  10   5    4.86    4.04
   2  10  -4   18.45    6.02
  -2  10   4   -0.06    3.46
  -2 -10   4    4.33    3.83
   2 -10  -4    6.78    4.34
  -2 -10   4   -2.51    2.79
   2 -10  -4    8.55    5.12
   2  10  -4    3.20    3.55
  -2  10   4    8.72    4.15
   2  10  -3    6.67    5.49
  -2  10   3   28.00    7.10
  -2 -10   3   13.63    5.89
   2 -10  -3    4.61    3.07
  -2 -10   3    8.91    3.37
   2 -10  -3    8.45    6.22
   2  10  -3   20.64    6.16
  -2  10   3   11.17    4.12
   2  10  -2   38.91    8.25
  -2  10   2   34.14    8.36
   2 -10  -2   39.14    6.46
  -2 -10   2   36.04    6.37
  -2 -10   2   26.18    5.83
   2 -10  -2   42.07    8.53
   2  10  -2   50.40    8.98
  -2  10   2   37.54    8.03
   2  10  -1    9.31    4.38
  -2  10   1    3.73    2.29
   2 -10  -1    5.79    3.41
  -2 -10   1   10.29    4.15
  -2 -10   1    7.99    4.22
   2 -10  -1   -0.13    4.33
   2  10  -1    1.11    3.67
  -2  10   1   12.62    6.27
   2  10   0   65.87   12.47
  -2  10   0   80.61   12.36
   2 -10   0   92.74   12.32
  -2 -10   0   68.01   10.09
  -2 -10   0   61.60    8.84
   2 -10   0   52.87    9.22
   2  10   0   64.74   10.12
  -2  10   0   63.84   10.71
   2  10   1    2.49    3.33
  -2  10  -1    0.60    2.79
   2 -10   1   26.28    5.43
  -2 -10  -1    5.08    5.81
   2 -10   1    4.41    3.97
  -2 -10  -1    4.83    4.22
   2  10   1   -0.26    2.78
  -2  10  -1    8.81    4.46
   2  10   2   12.74    4.96
  -2  10  -2   16.05    7.79
   2 -10   2   10.88    5.03
  -2 -10  -2   16.43    6.65
   2 -10   2   15.95    6.74
  -2 -10  -2   15.00    4.53
   2  10   2   11.24    4.28
  -2  10  -2   24.96    6.68
   2  10   3    8.81    4.08
  -2  10  -3    7.94    3.79
   2 -10   3    7.11    3.80
  -2 -10  -3    5.06    3.99
   2 -10   3    3.40    3.60
  -2 -10  -3    7.10    4.19
  -2  10  -3    9.61    3.10
   2  10   4   14.24    6.84
  -2  10  -4   21.59    6.54
   2 -10   4    7.43    3.07
  -2 -10  -4    5.19    4.04
   2 -10   4    7.01    2.74
  -2 -10  -4    6.94    3.84
   2  10   4   16.58    5.00
  -2  10  -4    2.96    4.22
   2  10   5   16.72    8.22
  -2  10  -5    4.06    2.74
   2 -10   5   14.89    5.81
  -2 -10  -5    9.20    4.12
   2 -10   5   13.72    5.17
  -2 -10  -5   19.94    4.96
   2  10   5   10.40    4.36
  -2  10  -5    7.61    5.32
   2  10   6   45.18   12.67
  -2  10  -6   23.59    6.27
   2 -10   6   32.09    7.65
  -2 -10  -6   44.19   10.31
   2 -10   6   44.62   11.36
  -2 -10  -6   68.79   12.81
   2  10   6   26.26    5.81
  -2  10  -6   39.99   10.24
   2  10   7   11.56    3.26
  -2  10  -7    3.45    1.77
   2 -10   7    8.30    4.66
  -2 -10  -7   11.50    4.24
   2 -10   7    7.82    2.94
  -2 -10  -7   11.64    5.18
   2  10   7    4.50    2.11
  -2  10  -7   15.47    5.80
   2  10   8   16.69    3.75
  -2  10  -8   25.42    4.87
   2 -10   8   10.46    5.09
  -2 -10  -8   32.69    7.88
   2 -10   8   15.25    4.83
  -2 -10  -8   20.82    5.68
   2  10   8    8.97    4.45
  -2  10  -8   26.87    8.26
   2  10   9    1.11    4.21
   2 -10   9    8.78    4.22
  -2 -10  -9    6.38    4.69
   2 -10   9   11.89    2.95
  -2 -10  -9    7.10    4.58
  -2  10  -9   -0.39    5.47
   2  10  10    9.66    5.31
   2 -10  10    4.70    3.28
  -2 -10 -10    1.06    4.27
   2 -10  10   22.25    9.13
  -2 -10 -10   -0.01    2.96
   2  10  11   16.32    8.40
   2 -10  11    1.78    3.10
  -2 -10 -11   10.24    5.34
  -2 -10 -11    6.91    4.86
  -2  10 -11    9.23    5.56
   2  10  12   27.91    9.29
   2 -10  12    4.56    3.53
  -2 -10 -12    8.50    4.99
   2 -10  12   12.34    4.11
  -2 -10 -12    5.83    4.89
  -2  10 -12    8.79    5.47
   2  10  13    3.18    4.50
   2 -10  13    7.11    4.75
  -2 -10 -13   21.84    9.24
   2 -10  13    0.05    2.85
  -2 -10 -13   -1.27    2.84
   2  10  14   31.80    9.92
   2 -10  14   11.17    5.51
  -2 -10 -14   41.92   12.78
   2 -10  14   32.35   11.18
  -2 -10 -14   28.04    8.33
  -2  10 -14   51.14    9.99
   2  10  15    4.99    4.75
   2 -10  15    9.03    4.34
  -2 -10 -15    4.44    4.28
   2 -10  15    9.70    3.77
  -2 -10 -15    5.71    3.90
  -2  10 -15    8.13    5.63
   2  10  16    7.62    5.20
   2 -10  16   -1.50    3.49
  -2 -10 -16   13.43    5.54
   2 -10  16    6.09    3.68
  -2 -10 -16   20.16    7.27
  -2  10 -16    8.70    6.13
   2  10  17    8.69    6.27
   2 -10  17    3.31    4.02
  -2 -10 -17    4.94    5.14
   2 -10  17    6.15    4.26
  -2 -10 -17    4.83    3.93
  -2  10 -17    8.34    4.77
   2 -10  18    8.59    2.85
  -2 -10 -18   13.64    8.04
   2 -10  18   16.76    7.34
  -2 -10 -18    9.55    4.32
  -2  10 -18    6.93    6.17
   2  10  19    1.61    4.15
   2 -10  19    1.75    2.03
  -2 -10 -19   -7.44    4.17
   2 -10  19    9.98    3.70
  -2 -10 -19   11.72    7.40
  -2  10 -19    1.69    5.74
  -2  11  17   18.02    7.59
  -2 -11  17   15.49    8.22
   2 -11 -17    7.30    3.87
  -2 -11  17    9.58    5.48
   2 -11 -17   12.78    7.54
  -2  11  16    6.87    4.56
  -2 -11  16    7.86    5.44
   2 -11 -16    2.27    3.33
  -2 -11  16   11.24    5.54
   2 -11 -16    6.68    6.42
   2  11 -16    3.42    5.60
  -2  11  15    0.60    4.28
  -2 -11  15    7.95    5.08
   2 -11 -15   16.18    6.11
  -2 -11  15    2.57    3.18
   2 -11 -15    1.07    4.20
  -2  11  14   -1.44    4.96
  -2 -11  14   12.80    5.89
   2 -11 -14   11.62    5.41
  -2 -11  14    6.85    3.38
   2 -11 -14    7.21    4.53
   2  11 -14   26.91    9.32
  -2  11  13   11.05    7.69
  -2 -11  13   -0.95    4.44
   2 -11 -13    2.43    2.71
  -2 -11  13    6.73    3.68
   2 -11 -13   -0.25    4.21
   2  11 -13   12.20    7.91
  -2  11  12   10.99    5.84
  -2 -11  12   16.15    7.48
   2 -11 -12   13.96    6.06
  -2 -11  12    5.87    3.15
   2 -11 -12    2.84    4.93
   2  11 -12    7.95    5.31
   2  11 -11   21.49    7.45
  -2  11  11   38.47   11.67
  -2 -11  11   17.50    6.91
   2 -11 -11   20.62    7.17
  -2 -11  11    6.08    3.53
   2 -11 -11    6.90    4.79
   2  11 -11   25.21    9.31
  -2  11  11    9.61    4.55
   2  11 -10    5.71    2.49
  -2  11  10    5.63    4.93
  -2 -11  10   12.93    5.57
   2 -11 -10   13.14    5.56
  -2 -11  10    2.93    2.20
   2 -11 -10   14.27    7.52
   2  11 -10   27.81   11.17
  -2  11  10    6.86    4.69
   2  11  -9   14.91    5.38
  -2  11   9   10.54    5.30
  -2 -11   9    1.32    4.05
   2 -11  -9    4.01    3.51
  -2 -11   9   12.71    5.45
   2 -11  -9   25.39    9.47
   2  11  -9   -1.32    4.38
  -2  11   9    6.52    3.44
   2  11  -8   11.60    4.23
  -2  11   8    1.79    2.17
  -2 -11   8   14.91    6.09
   2 -11  -8    4.89    3.63
  -2 -11   8    4.03    2.69
   2  11  -8    7.81    4.34
  -2  11   8    2.00    3.22
   2  11  -7   22.32    6.28
  -2  11   7    5.77    3.45
  -2 -11   7   21.24    7.61
   2 -11  -7   17.90    6.14
  -2 -11   7    9.50    4.58
   2 -11  -7   22.49    8.52
   2  11  -7   12.57    5.43
  -2  11   7    1.75    3.45
   2  11  -6    8.08    3.09
  -2  11   6    2.08    3.93
  -2 -11   6   27.70    8.54
   2 -11  -6    7.74    4.40
  -2 -11   6    4.98    2.97
   2 -11  -6    8.74    6.47
   2  11  -6    4.78    3.89
  -2  11   6    7.74    4.62
   2  11  -5   13.04    4.69
  -2  11   5   25.09    7.73
  -2 -11   5   56.76   12.43
   2 -11  -5   20.23    6.71
  -2 -11   5   15.06    5.84
   2 -11  -5   31.72    8.90
   2  11  -5   31.99    8.09
  -2  11   5   30.05    9.14
   2  11  -4    2.67    2.23
  -2  11   4    5.95    4.31
  -2 -11   4   12.54    5.65
   2 -11  -4   -2.86    3.08
  -2 -11   4    8.15    4.10
   2 -11  -4    7.99    6.71
   2  11  -4    6.08    4.39
  -2  11   4    1.74    3.51
   2  11  -3   18.10    5.85
  -2  11   3   23.31    6.65
  -2 -11   3   18.68    5.95
   2 -11  -3   30.10    7.77
  -2 -11   3   21.19    6.94
   2 -11  -3   28.20    8.44
   2  11  -3   27.19    7.44
  -2  11   3   16.60    6.15
   2  11  -2    3.19    3.45
  -2  11   2    9.90    4.15
   2 -11  -2    1.10    3.21
  -2 -11   2    5.28    4.57
  -2 -11   2    7.68    3.77
   2 -11  -2   20.45    7.15
   2  11  -2    9.26    5.27
  -2  11   2   -0.87    4.32
   2  11  -1   14.56    5.18
  -2  11   1    1.86    3.49
   2 -11  -1    0.98    3.15
  -2 -11   1    5.63    4.58
  -2 -11   1    7.42    3.14
   2 -11  -1   18.73    8.33
   2  11  -1    2.38    3.80
  -2  11   1    1.30    4.25
   2  11   0    4.64    2.56
  -2  11   0   22.57    7.17
   2 -11   0    4.90    3.37
  -2 -11   0    3.24    4.67
  -2 -11   0   11.13    4.03
   2 -11   0   17.86    4.82
   2  11   0    8.15    4.32
  -2  11   0   12.60    4.83
   2  11   1   17.12    8.01
  -2  11  -1   26.34    7.09
   2 -11   1   12.14    5.08
  -2 -11  -1   30.85   10.08
   2 -11   1   35.77    9.41
  -2 -11  -1   16.89    6.28
   2  11   1    8.27    4.09
  -2  11  -1   24.83    7.67
   2  11   2   13.10    4.82
  -2  11  -2    1.37    3.03
   2 -11   2    4.03    3.36
  -2 -11  -2   19.30    7.70
   2 -11   2    9.50    5.53
  -2 -11  -2    4.46    4.21
   2  11   2    2.20    3.12
  -2  11  -2   11.13    5.05
   2  11   3   23.58    7.62
  -2  11  -3   13.65    7.15
   2 -11   3    5.01    4.58
  -2 -11  -3   18.15    7.97
   2 -11   3   13.91    6.20
  -2 -11  -3    7.59    3.82
   2  11   3   20.61    6.07
  -2  11  -3   25.85    8.12
   2  11   4    9.68    5.69
  -2  11  -4   10.45    5.16
   2 -11   4    6.72    4.57
  -2 -11  -4    6.20    4.92
   2 -11   4    5.01    3.31
  -2 -11  -4    6.57    4.78
   2  11   4    5.91    2.10
  -2  11  -4   13.85    8.59
   2  11   5   18.31    8.58
  -2  11  -5    0.45    2.16
   2 -11   5   13.70    5.63
  -2 -11  -5   16.09    7.24
   2 -11   5   16.57    8.56
  -2 -11  -5    8.33    4.70
   2  11   5   11.44    4.98
  -2  11  -5    9.42    5.93
   2  11   6    8.67    2.86
  -2  11  -6   17.78    5.88
   2 -11   6    3.11    3.19
  -2 -11  -6    1.69    4.49
   2 -11   6    9.18    4.60
  -2 -11  -6    4.01    3.44
   2  11   6   -0.91    2.39
  -2  11  -6    1.30    4.64
   2  11   7    3.31    2.35
   2 -11   7   16.44    5.31
  -2 -11  -7   21.81    7.78
   2 -11   7   11.89    3.96
  -2 -11  -7    2.08    3.11
  -2  11  -7    9.32    4.68
   2  11   8    5.68    3.83
   2 -11   8    3.62    3.44
  -2 -11  -8   17.56    7.78
   2 -11   8   14.78    5.49
  -2 -11  -8    0.60    2.95
  -2  11  -8   21.64    9.29
   2  11   9   30.79   11.79
   2 -11   9   29.05    8.77
  -2 -11  -9   30.28   10.39
   2 -11   9   19.35    7.55
  -2 -11  -9   30.74    9.33
  -2  11  -9   35.74   12.25
   2  11  10    8.55    2.77
   2 -11  10    1.19    3.18
  -2 -11 -10    7.94    3.00
   2 -11  10    5.82    4.54
  -2 -11 -10    7.62    3.43
   2  11  11   -3.97    4.58
   2 -11  11    7.18    3.78
  -2 -11 -11    9.41    5.61
   2 -11  11   10.83    4.87
  -2 -11 -11    8.07    5.61
  -2  11 -11   11.64    6.50
   2  11  12    2.12    2.48
   2 -11  12    7.00    4.19
  -2 -11 -12    1.98    4.55
   2 -11  12    5.90    4.09
  -2 -11 -12    6.22    4.38
  -2  11 -12   11.78    8.87
   2  11  13   11.91    5.81
   2 -11  13    1.48    3.39
  -2 -11 -13    6.36    4.93
   2 -11  13   -1.91    5.18
  -2 -11 -13    4.08    3.29
  -2  11 -13    9.50    6.54
   2  11  14   15.64    7.05
   2 -11  14    5.45    3.95
  -2 -11 -14    1.82    4.64
   2 -11  14    7.95    3.67
  -2 -11 -14    1.58    3.14
  -2  11 -14   12.36    7.17
   2  11  15   18.09    8.18
   2 -11  15    5.15    3.09
  -2 -11 -15   14.80    8.10
   2 -11  15   14.40    7.31
  -2 -11 -15    3.11    3.26
  -2  11 -15   11.98    8.33
  -2  12  12    2.01    4.30
  -2 -12  12    1.48    2.80
  -2  12  11   -1.27    4.55
  -2 -12  11    3.09    5.41
   2 -12 -11    5.51    3.70
  -2 -12  11   -1.39    2.88
   2 -12 -11    8.71    4.79
   2  12 -11   29.54   12.24
  -2  12  10    8.28    6.61
  -2 -12  10   10.04    7.76
   2 -12 -10   16.42    6.38
  -2 -12  10    5.56    2.87
   2 -12 -10    1.94    4.48
   2  12 -10    6.38    4.91
   2  12  -9    7.82    4.31
  -2  12   9   13.59    7.03
  -2 -12   9   32.30   12.30
   2 -12  -9    1.24    3.45
  -2 -12   9    3.99    2.33
   2 -12  -9    8.91    4.95
   2  12  -9   -1.30    4.21
  -2  12   9    4.71    3.89
   2  12  -8   11.68    5.73
  -2  12   8    8.45    4.96
  -2 -12   8    0.22    4.18
   2 -12  -8   10.23    6.35
  -2 -12   8    8.74    4.04
   2 -12  -8   -7.26    4.32
   2  12  -8    2.07    4.23
  -2  12   8    7.18    3.72
   2  12  -7    9.27    3.86
  -2  12   7   14.87    7.73
  -2 -12   7   19.07    7.40
   2 -12  -7    9.18    3.99
  -2 -12   7   24.44    8.63
   2 -12  -7   63.22   18.39
   2  12  -7   29.25   10.30
  -2  12   7   22.13    8.50
   2  12  -6   -4.72    3.29
  -2  12   6    6.08    3.01
  -2 -12   6    8.60    4.71
   2 -12  -6    7.36    3.75
  -2 -12   6    1.27    3.35
   2 -12  -6   -3.16    4.38
   2  12  -6    9.43    4.67
  -2  12   6   -1.26    3.37
   2  12  -5   14.60    7.74
  -2  12   5    6.62    4.02
  -2 -12   5   14.46    7.01
   2 -12  -5    4.25    3.44
  -2 -12   5   11.29    3.86
   2 -12  -5   41.01   12.41
   2  12  -5    2.60    3.93
  -2  12   5    3.42    3.53
   2  12  -4    1.94    2.61
  -2  12   4    9.44    5.79
  -2 -12   4   15.89    7.39
   2 -12  -4    5.93    3.41
  -2 -12   4    3.50    3.60
   2 -12  -4    1.98    4.68
   2  12  -4   12.87    6.45
  -2  12   4    4.37    3.94
   2  12  -3    7.67    4.73
  -2  12   3    9.92    5.62
  -2 -12   3   14.46    6.95
   2 -12  -3   -0.97    3.10
  -2 -12   3   10.63    5.90
   2 -12  -3    8.67    6.44
   2  12  -3   15.71    7.13
  -2  12   3    3.60    3.99
   2  12  -2   13.43    5.26
  -2  12   2    2.42    3.32
   2 -12  -2    0.15    3.13
  -2 -12   2   14.64    7.53
  -2 -12   2    2.32    2.80
   2 -12  -2   27.31   10.27
   2  12  -2    8.90    6.95
  -2  12   2    7.01    5.28
   2  12  -1   34.79   14.02
  -2  12   1   17.79    6.61
   2 -12  -1   27.75    9.12
  -2 -12   1   24.68    9.07
  -2 -12   1   18.34   10.37
   2 -12  -1   39.81   11.67
   2  12  -1   43.29   13.87
  -2  12   1   15.11    5.67
   2  12   0    3.66    2.64
  -2  12   0    3.95    3.34
   2 -12   0    1.75    3.02
  -2 -12   0   18.80    7.86
  -2 -12   0   11.65    5.28
   2 -12   0    7.23    5.17
   2  12   0   14.89    5.70
  -2  12   0   10.98    6.16
  -2  12  -1    5.15    3.73
   2 -12   1   11.33    5.96
  -2 -12  -1   11.49    5.91
   2 -12   1   31.29    9.65
  -2 -12  -1   27.30   10.61
   2  12   1   22.03    7.31
  -2  12  -1   35.02   10.20
   2  12   2   14.90    5.41
  -2  12  -2   11.26    4.43
   2 -12   2    7.89    5.13
  -2 -12  -2    1.35    4.73
   2 -12   2    4.59    4.90
  -2 -12  -2    6.80    5.93
   2  12   2   -0.94    3.04
  -2  12  -2    6.89    2.85
   2  12   3    5.13    3.28
   2 -12   3   23.30    8.20
  -2 -12  -3   18.88    7.44
   2 -12   3    4.03    4.95
  -2 -12  -3   -4.19    3.18
   2  12   3    4.70    3.22
  -2  12  -3   21.10    8.20
   2  12   4    8.39    3.70
  -2  12  -4   18.77    6.64
   2 -12   4    0.80    3.04
  -2 -12  -4   10.51    7.09
  -2 -12  -4    0.77    3.34
   2  12   4    1.73    2.90
  -2  12  -4    7.55    5.07
   2  12   5   11.13    4.89
   2 -12   5   10.52    5.37
  -2 -12  -5   19.89    7.64
  -2 -12  -5    8.41    4.99
  -2  12  -5   35.31   10.95
   2  12   6    3.71    3.77
   2 -12   6    7.71    4.06
  -2 -12  -6    8.24    6.71
   2 -12   6   10.08    4.63
  -2 -12  -6    8.70    4.97
  -2  12  -6   10.77    6.10
   2  12   7   20.85   10.71
   2 -12   7    6.33    3.56
  -2 -12  -7   19.34    8.49
   2 -12   7   21.31    6.88
  -2 -12  -7   34.91   11.00
  -2  12  -7   18.43   11.57
   2  12   8   10.49    5.53
   2 -12   8    6.96    3.65
  -2 -12  -8    9.78    7.10
   2 -12   8    4.46    2.61
  -2 -12  -8    6.44    4.76
  -2  12  -8   18.10    9.12
   2  12   9    7.55    3.70
  -2 -12  -9    6.69    5.17
   2 -12   9   11.96    5.25
  -2 -12  -9    7.51    3.61
  -2  12  -9   19.38    8.71
   2  12  10   19.32    8.80
  -2 -12 -10   -3.44    4.43
   2 -12  10    8.16    5.45
  -2 -12 -10    3.34    3.15
  -2  12 -10   10.02    5.57
  -3   0  33    5.60    2.97
   3   0 -33    4.17    3.11
  -3   0  32   -0.04    3.87
   3   0 -32   23.04    9.94
  -3   0  31    2.60    3.53
   3   0 -31   -2.07    4.12
  -3   0  30    7.58    3.91
  -3   0  30   13.46    6.16
   3   0 -30    7.28    4.77
   3   0 -30    4.38    1.98
  -3   0  29    0.56    2.60
  -3   0  29   12.15    5.03
   3   0 -29    4.17    4.33
   3   0 -29    0.40    1.04
  -3   0  28   12.66    6.26
  -3   0  28   11.17    3.84
   3   0 -28   23.40    6.80
   3   0 -28   22.99    7.17
  -3   0  27    6.74    3.87
  -3   0  27    4.20    2.65
   3   0 -27    2.42    4.27
   3   0 -27    4.16    1.77
  -3   0  26   11.99    3.68
  -3   0  26   11.40    5.63
   3   0 -26   12.49    5.71
   3   0 -26   18.35    5.01
  -3   0  25   11.00    4.35
  -3   0  25    2.10    4.78
   3   0 -25    5.95    3.85
   3   0 -25   -3.60    2.30
  -3   0  24    8.92    4.09
  -3   0  24   24.50    7.53
   3   0 -24    3.79    2.68
   3   0 -24   13.26    3.76
  -3   0  23    5.60    2.52
  -3   0  23    3.45    2.66
   3   0 -23    6.68    2.65
   3   0 -23    0.54    2.26
  -3   0  22    4.54    2.43
  -3   0  22   14.12    5.26
   3   0 -22   21.95    5.56
   3   0 -22    7.28    2.59
  -3   0  21    6.50    2.93
  -3   0  21    1.63    4.46
   3   0 -21    8.08    3.58
   3   0 -21    6.54    2.55
  -3   0  20  171.92   12.44
  -3   0  20  159.78   21.22
   3   0 -20  188.50   27.25
   3   0 -20  178.07   20.97
  -3   0  19    2.79    2.63
  -3   0  19   -2.72    3.28
   3   0 -19   10.49    3.63
   3   0 -19    6.67    2.18
  -3   0  18    2.18    2.57
  -3   0  18   15.55    4.97
   3   0 -18   -2.71    2.72
   3   0 -18   -1.40    2.64
  -3   0  17   -2.46    2.44
  -3   0  17    5.61    5.00
   3   0 -17   -1.82    2.86
   3   0 -17   -4.07    2.72
  -3   0  16  399.97   19.33
  -3   0  16  401.34   21.93
   3   0 -16  388.67   19.14
   3   0 -16  408.21   23.70
  -3   0  15    6.18    2.81
  -3   0  15    4.61    2.19
   3   0 -15    1.48    2.69
   3   0 -15   -0.95    2.97
  -3   0  14  499.09   18.64
  -3   0  14  532.09   28.38
   3   0 -14  531.32   19.74
   3   0 -14  505.94   24.64
  -3   0  13   -2.23    2.84
  -3   0  13    4.32    2.17
   3   0 -13   -0.79    2.40
   3   0 -13    5.22    1.73
  -3   0  12    6.81    2.94
  -3   0  12    8.72    3.49
   3   0 -12    1.01    2.27
   3   0 -12    2.49    1.57
  -3   0  11    4.80    4.07
  -3   0  11    2.92    2.02
   3   0 -11    2.17    1.91
   3   0 -11    0.86    1.15
  -3   0  10  925.74   32.99
  -3   0  10  939.11   46.79
   3   0 -10  886.92   31.32
   3   0 -10  917.33   32.57
  -3   0  10  880.54   30.94
  -3   0   9    0.83    2.88
   3   0  -9    4.32    1.68
  -3   0   9    3.92    2.07
   3   0  -9    0.69    1.78
   3   0  -9    9.04    3.12
  -3   0   9    5.00    1.65
   3   0  -9   11.44    3.77
  -3   0   8  469.13   18.01
   3   0  -8  423.07   16.08
  -3   0   8  465.60   17.29
   3   0  -8  443.53   16.32
   3   0  -8  451.85   18.67
  -3   0   8  438.74   16.22
   3   0  -8  419.07   22.33
  -3   0   7   -0.14    2.44
   3   0  -7    2.49    1.26
  -3   0   7    2.56    1.99
   3   0  -7    1.49    0.99
   3   0  -7    1.86    2.17
  -3   0   7    2.49    2.08
   3   0  -7    1.97    2.06
  -3   0   7    2.38    1.28
  -3   0   6  156.54    9.50
   3   0  -6  147.86    8.73
  -3   0   6  160.10    9.06
   3   0  -6  150.85    8.65
   3   0  -6  151.37    8.94
  -3   0   6  139.18    8.57
   3   0  -6  159.15   11.38
  -3   0   6  142.68   15.96
   3   0  -5    3.67    2.08
  -3   0   5    2.14    1.74
   3   0  -5    3.14    1.36
   3   0  -5    3.59    1.92
  -3   0   5    3.74    1.08
   3   0  -5    8.22    2.34
  -3   0   4  117.15    7.58
   3   0  -4  141.63    8.35
  -3   0   4  140.78    8.53
   3   0  -4  147.46    8.21
   3   0  -4  141.44    9.07
  -3   0   4  156.93    8.66
   3   0  -4  160.62   10.63
  -3   0   4  145.49   15.63
  -3   0   3   -1.03    2.21
  -3   0   3    2.51    2.14
   3   0  -3    0.32    1.16
   3   0  -3    4.44    1.81
  -3   0   3   -0.25    1.24
  -3   0   3    5.67    1.38
  -3   0   2  265.85    7.41
  -3   0   2  256.46    5.88
   3   0  -2  267.79    6.16
   3   0  -2  267.47    5.99
   3   0  -2  267.02   13.31
  -3   0   2  279.82    9.09
  -3   0   1    2.34    1.32
  -3   0   1    1.41    2.45
  -3   0   1    0.01    1.38
   3   0  -1    0.64    1.29
   3   0  -1    2.88    1.29
  -3   0   1    0.77    1.13
   3   0  -1    2.29    1.32
  -3   0   1    2.37    1.37
  -3   0   0   54.39    8.58
  -3   0   0   52.60    5.25
  -3   0   0   58.27    3.84
   3   0   0   50.00    3.38
   3   0   0   60.96    9.22
  -3   0   0   48.08    8.30
  -3   0  -1   -1.11    1.42
   3   0   1    3.63    1.02
  -3   0  -1    1.51    1.35
  -3   0  -2  108.74   12.96
  -3   0  -2  118.05    6.92
   3   0   2  118.06   11.18
  -3   0  -2  119.46    6.84
  -3   0  -2  112.25   13.21
   3   0   3    1.55    1.79
  -3   0  -3    1.75    1.00
   3   0   3    2.64    1.10
  -3   0  -3    0.97    1.18
  -3   0  -3    1.09    0.99
   3   0   4 1513.76   26.46
  -3   0  -4 1533.67   26.33
   3   0   4 1529.21   28.83
  -3   0  -4 1498.16   26.12
  -3   0  -4 1489.82   26.22
   3   0   5    1.72    1.08
  -3   0  -5    2.49    1.48
  -3   0  -5    3.88    1.80
   3   0   5   -0.26    1.66
  -3   0  -5    2.69    1.73
  -3   0  -5    1.95    1.12
   3   0   6  540.05   19.53
  -3   0  -6  495.23   18.90
  -3   0  -6  555.00   20.74
   3   0   6  522.20   21.81
  -3   0  -6  525.09   19.28
  -3   0  -6  510.26   18.28
   3   0   7    4.21    1.87
  -3   0  -7    1.75    1.68
  -3   0  -7   -1.20    1.37
   3   0   7    5.86    2.77
  -3   0  -7    1.08    0.69
   3   0   8   80.13    9.32
  -3   0  -8   72.33    5.62
  -3   0  -8   67.09   10.72
  -3   0  -8   68.31    8.14
  -3   0  -8  100.16    8.14
   3   0   9    2.84    1.43
  -3   0  -9    3.87    1.07
  -3   0  -9   -2.29    2.07
   3   0  10  889.37   34.83
  -3   0 -10  815.53   31.73
  -3   0 -10  861.57   34.27
   3   0  11    4.05    1.33
  -3   0 -11    3.67    2.26
  -3   0 -11    2.86    2.07
   3   0  12  338.43   14.35
  -3   0 -12  313.35   11.59
  -3   0 -12  321.39   13.45
  -3   0 -12  340.23   12.50
   3   0  13    2.71    1.18
  -3   0 -13    7.32    2.83
  -3   0 -13    8.17    3.91
  -3   0 -13    0.60    1.61
   3   0  14  297.64   14.64
  -3   0 -14  253.27   12.47
  -3   0 -14  282.35   15.08
  -3   0 -14  277.87   13.46
   3   0  15    0.53    1.70
  -3   0 -15    3.03    1.73
  -3   0 -15    3.88    3.20
  -3   0 -15    1.56    1.59
   3   0  16  252.67   18.47
  -3   0 -16  181.85   16.75
  -3   0 -16  250.18   19.34
  -3   0 -16  269.11   16.53
   3   0  17    3.22    1.76
  -3   0 -17    3.51    2.06
  -3   0 -17    2.49    2.87
  -3   0 -17    3.11    1.32
   3   0  18    8.24    2.76
  -3   0 -18    4.17    2.13
  -3   0 -18   -0.28    3.60
  -3   0 -18    7.88    3.11
   3   0  19   -1.09    1.30
  -3   0 -19    6.13    3.78
  -3   0 -19    5.10    1.99
   3   0  20    5.26    1.78
  -3   0 -20   10.15    5.39
  -3   0 -20   11.98    3.21
   3   0  21    3.60    1.28
  -3   0 -21   -2.15    3.56
  -3   0 -21    2.06    2.12
   3   0  22   69.67   13.82
  -3   0 -22   89.18   10.82
  -3   0 -22   60.21   12.87
  -3   0 -23   10.17    4.81
  -3   0 -24   64.20   12.68
  -3   0 -25    6.29    2.75
  -3   0 -26    3.05    2.38
  -3   0 -27   10.92    5.30
  -3   0 -28   11.64    6.92
  -3   0 -29    1.84    4.11
  -3   0 -30   15.97    7.24
  -3   1  33    6.72    4.78
  -3  -1  33   -1.47    4.84
   3  -1 -33    9.31    5.10
   3   1 -33    1.38    4.54
  -3   1  32    3.03    3.77
  -3  -1  32   19.72    6.90
   3  -1 -32   24.36    9.13
   3   1 -32   14.53    6.82
  -3   1  31   13.93    5.42
  -3   1  31    9.82    5.82
  -3  -1  31   16.26    6.68
   3  -1 -31    7.87    5.45
   3   1 -31    3.25    3.14
   3   1 -31    7.18    3.09
  -3   1  30    8.90    2.71
  -3   1  30   16.21    6.60
  -3  -1  30   10.44    3.76
   3  -1 -30   11.36    7.34
   3   1 -30    2.35    3.05
   3   1 -30    6.39    2.66
  -3   1  29   14.87    6.10
  -3   1  29    5.63    3.81
  -3  -1  29   12.72    6.41
   3  -1 -29   -1.06    3.83
   3   1 -29   18.86    7.24
   3  -1 -29    3.98    2.47
   3   1 -29    4.44    2.00
  -3   1  28   29.82    6.96
  -3  -1  28   23.93    6.54
  -3   1  28   29.14    7.71
  -3  -1  28   12.18    6.67
   3  -1 -28   22.65    6.84
   3   1 -28   31.94    7.98
   3  -1 -28   14.22    7.33
   3   1 -28   14.01    4.98
  -3   1  27   30.30    5.98
  -3  -1  27   38.13    6.85
  -3   1  27   32.08    8.65
  -3  -1  27   39.77   11.92
   3  -1 -27   31.72    9.21
   3   1 -27   27.87    6.40
   3  -1 -27   30.56    9.25
   3   1 -27   32.17    9.11
  -3   1  26   13.35    3.50
  -3  -1  26   18.48    5.33
  -3   1  26   57.44   10.85
  -3  -1  26    2.01    2.37
   3  -1 -26   30.52    8.46
   3   1 -26   25.55    6.17
   3  -1 -26   19.97    6.18
   3   1 -26   41.27    8.46
  -3   1  25   18.41    5.88
  -3  -1  25   22.63    5.93
  -3   1  25    6.79    3.11
  -3  -1  25   23.57    6.67
   3  -1 -25   14.17    5.50
   3   1 -25    2.14    3.50
   3  -1 -25    8.56    3.64
   3   1 -25   12.10    3.64
  -3   1  24    5.00    2.53
  -3  -1  24    1.26    2.31
  -3   1  24   11.48    4.86
  -3  -1  24    7.59    2.79
   3  -1 -24    7.15    2.56
   3   1 -24    3.88    2.13
   3  -1 -24    4.55    1.93
   3   1 -24    5.70    2.50
  -3   1  23    5.43    4.49
  -3  -1  23   12.53    4.94
  -3   1  23   13.88    5.32
  -3  -1  23    7.92    4.28
   3  -1 -23    9.52    2.60
   3   1 -23    3.78    3.39
   3  -1 -23    3.73    2.64
   3   1 -23    5.37    1.74
  -3   1  22   65.72    6.78
  -3  -1  22  130.34    8.97
  -3   1  22   82.88    8.96
  -3  -1  22   69.74   13.09
   3  -1 -22   88.87   13.16
   3   1 -22   73.47   10.11
   3  -1 -22   86.77   12.79
   3   1 -22   84.23   12.09
  -3   1  21   90.44    8.77
  -3  -1  21   98.09   11.42
  -3   1  21   64.82    8.10
  -3  -1  21   99.55   16.06
   3  -1 -21   86.14   12.72
   3   1 -21   87.75    9.98
   3  -1 -21   76.85   11.71
   3   1 -21   75.54   11.51
  -3   1  20  203.29   14.57
  -3  -1  20  156.66   11.51
  -3   1  20  166.39   19.41
  -3  -1  20  165.48   17.93
   3  -1 -20  216.23   19.18
   3   1 -20  186.20   16.38
   3  -1 -20  201.90   22.63
   3   1 -20  188.41   26.69
  -3   1  19   14.30    4.92
  -3  -1  19    3.47    2.58
  -3   1  19    3.19    2.15
  -3  -1  19   11.27    4.29
   3  -1 -19   20.59    6.19
   3   1 -19    3.02    2.94
   3  -1 -19    4.26    2.74
   3   1 -19   10.59    4.17
  -3   1  18   40.64    6.68
  -3  -1  18   42.52    6.73
  -3   1  18   43.73    9.03
  -3  -1  18   27.89    6.08
   3  -1 -18   32.84    5.87
   3   1 -18   28.36    6.49
   3  -1 -18   37.80    6.39
   3   1 -18   20.76    6.33
  -3   1  17   97.12    7.12
  -3  -1  17   80.34    5.77
  -3   1  17   81.09   12.57
  -3  -1  17  101.82   11.23
   3  -1 -17  104.29    7.96
   3   1 -17  107.71   13.34
   3  -1 -17   90.05   10.29
   3   1 -17   98.88   14.59
  -3   1  16   61.69    9.30
  -3  -1  16   70.04   10.09
  -3   1  16   63.32   12.79
  -3  -1  16   58.11    9.64
   3  -1 -16   54.80    9.21
   3   1 -16   43.95    9.11
   3  -1 -16   58.16    9.50
   3   1 -16   52.31    9.72
  -3   1  15   86.62    8.87
  -3  -1  15   64.58    6.95
  -3   1  15   78.31    9.15
  -3  -1  15   89.02   13.35
   3  -1 -15   58.93    6.63
   3   1 -15   67.03   10.39
   3  -1 -15   90.16   12.15
   3   1 -15   71.18   11.02
  -3   1  14  104.23   25.54
  -3  -1  14   83.61    7.99
  -3   1  14   87.38   13.47
  -3  -1  14   86.94   12.00
   3  -1 -14   88.01    8.43
   3   1 -14   93.63   16.27
   3  -1 -14   88.03   11.71
   3   1 -14   98.98   13.59
  -3   1  13    7.60    2.75
  -3  -1  13   12.74    3.06
  -3   1  13   10.50    2.05
  -3  -1  13   15.56    5.12
   3  -1 -13    3.32    2.83
   3   1 -13    6.41    2.74
   3  -1 -13   14.36    2.21
   3   1 -13   20.97    3.81
  -3   1  12   13.35    3.55
  -3  -1  12    0.81    2.52
  -3   1  12    3.87    2.27
  -3  -1  12    9.12    2.99
   3  -1 -12   10.82    3.41
   3   1 -12    3.57    1.55
   3  -1 -12    8.45    2.29
   3   1 -12    9.93    2.82
  -3   1  11  147.45   14.66
  -3  -1  11  126.58   13.38
  -3   1  11  128.26   16.63
  -3  -1  11  116.58    9.21
   3  -1 -11  101.12    7.63
   3  -1 -11  120.09    9.92
   3   1 -11  111.05    8.46
  -3  -1  11  116.14    8.75
   3  -1 -11  113.49   15.40
   3   1 -11  112.71   14.62
  -3  -1  10    9.30    3.11
  -3   1  10   12.92    3.26
  -3  -1  10    6.43    3.08
   3  -1 -10    4.56    1.52
   3  -1 -10    9.38    4.10
   3   1 -10   10.84    3.28
  -3  -1  10    3.01    1.70
   3  -1 -10   16.29    4.75
   3   1 -10    7.47    2.88
  -3   1   9   10.19    4.11
  -3  -1   9    8.45    4.01
  -3   1   9    6.41    2.18
  -3  -1   9    8.44    2.55
   3  -1  -9   10.00    2.70
   3   1  -9    4.10    2.01
   3  -1  -9    7.71    3.26
  -3   1   9    6.14    2.09
   3   1  -9   12.19    3.48
  -3  -1   9    7.06    1.88
  -3   1   9   13.04    3.04
   3   1  -9   12.73    4.38
  -3  -1   8    1.95    2.27
  -3   1   8    1.25    2.06
   3  -1  -8    3.19    1.35
  -3  -1   8    2.20    2.05
   3   1  -8    8.74    2.68
   3  -1  -8    0.68    4.25
  -3   1   8    0.07    1.98
   3   1  -8    0.74    1.42
  -3  -1   8    3.25    1.84
   3  -1  -8    6.61    2.35
  -3   1   8    3.47    1.77
   3   1  -8   11.10    3.10
  -3   1   7  213.81    9.81
   3  -1  -7  205.97    8.75
  -3   1   7  214.05   12.92
   3  -1  -7  207.20    8.17
  -3  -1   7  207.72    9.01
   3   1  -7  216.62    8.98
   3  -1  -7  218.55    9.68
  -3   1   7  190.35   12.47
   3   1  -7  233.70   11.68
  -3  -1   7  205.97    9.02
   3  -1  -7  225.63   13.19
  -3   1   7  198.30   15.78
   3   1  -7  243.53   24.34
  -3  -1   6    3.85    1.38
  -3   1   6    3.61    2.80
   3  -1  -6    5.24    2.59
  -3  -1   6    2.17    2.36
  -3   1   6    6.16    1.66
   3  -1  -6    3.41    1.54
  -3  -1   6    3.53    2.25
   3   1  -6    3.05    2.06
   3  -1  -6    5.41    1.93
  -3   1   6    3.39    1.52
   3   1  -6    3.58    2.24
  -3  -1   6    6.25    2.08
  -3   1   6    4.41    1.95
   3   1  -6    0.03    1.81
  -3  -1   6    3.40    2.20
  -3   1   5  442.55   11.09
  -3   1   5  421.75    8.69
   3  -1  -5  411.72    8.27
  -3  -1   5  419.97    9.89
   3   1  -5  412.94    9.22
   3  -1  -5  388.16   10.28
  -3   1   5  425.51    9.65
   3   1  -5  422.06    8.48
  -3  -1   5  422.79    8.14
   3  -1  -5  422.52   15.64
  -3  -1   5  401.91   10.60
  -3  -1   4   62.60    8.99
  -3   1   4   67.09    5.24
   3  -1  -4   60.39    4.39
  -3  -1   4   59.82    5.58
  -3   1   4   62.39    4.59
  -3  -1   4   54.19    4.68
   3  -1  -4   56.43    3.57
   3   1  -4   58.24    4.13
   3  -1  -4   69.50    5.31
   3   1  -4   65.27    4.39
  -3   1   4   61.26    5.25
  -3  -1   4   69.73    5.65
   3  -1  -4   72.98    9.14
  -3   1   4   58.29    6.65
   3   1  -4   74.61    9.13
  -3  -1   4   61.24    4.67
  -3  -1   3  188.67   35.04
  -3   1   3  196.32   11.73
  -3   1   3  193.90    4.24
  -3  -1   3  185.50   33.32
   3  -1  -3  209.52    4.41
   3   1  -3  192.45   34.66
   3  -1  -3  204.43    6.15
   3   1  -3  195.65    4.34
  -3   1   3  194.66    5.73
  -3  -1   3  184.85   32.99
   3  -1  -3  184.48   33.31
  -3   1   3  190.78   35.20
  -3  -1   3  186.33   33.47
  -3  -1   2   68.27    9.61
  -3   1   2   51.35    4.67
   3  -1  -2   57.45    4.55
   3  -1  -2   55.23    4.40
  -3  -1   2   60.99    5.05
  -3   1   2   53.11    7.79
   3   1  -2   61.22    9.66
  -3  -1   2   58.59    8.35
   3   1  -1  217.67    9.58
  -3  -1   1  208.58   14.80
  -3   1   1  222.30    6.58
   3  -1  -1  233.02    6.36
  -3   1   1  213.24    4.21
  -3  -1   1  225.22    6.57
   3   1  -1  218.26    8.21
   3   1  -1  225.49    4.88
   3  -1  -1  234.51    6.50
  -3   1   1  218.30    6.16
  -3  -1   1  213.56    4.22
  -3   1   1  216.10    6.31
  -3  -1   0   35.42    6.37
  -3   1   0   44.66    3.88
   3  -1   0   53.43    4.07
  -3   1   0   53.69    5.49
  -3  -1   0   38.76    3.39
   3   1   0   41.96    3.77
   3   1   0   47.55    4.76
   3  -1   0   39.22    3.45
  -3   1   0   52.88    4.00
  -3  -1   0   41.20    2.55
  -3   1   0   43.81    6.57
   3   1   0   52.16    7.81
  -3  -1   0   39.29    6.74
   3   1   1 1198.13   23.29
  -3  -1  -1 1172.98   21.33
  -3   1  -1 1189.37   21.58
  -3  -1  -1 1202.01   21.60
  -3   1  -1 1144.82   18.97
   3   1   1 1227.34   20.45
   3  -1   1 1176.21   20.90
  -3  -1  -1 1189.08   19.42
  -3   1  -1 1187.17   21.08
  -3   1  -1 1142.54   21.32
   3   1   1 1215.19   22.10
  -3  -1  -1 1228.84   21.81
  -3   1  -2   97.99    5.86
  -3  -1  -2   95.88   13.73
  -3   1  -2  117.21    7.63
  -3   1  -2  102.98    7.27
  -3  -1  -2  102.26    6.97
   3  -1   2   96.66    9.51
  -3  -1  -2  104.18    8.43
  -3   1  -2   95.68    5.94
  -3  -1  -2  107.32    5.95
   3   1   2   95.09    7.63
  -3  -1  -2   98.85   10.23
  -3   1  -3  356.78   10.15
   3   1   3  380.84    9.36
  -3  -1  -3  348.78    9.23
  -3   1  -3  377.75    8.56
  -3   1  -3  378.35    8.00
  -3  -1  -3  344.46    8.70
  -3  -1  -3  358.23    7.84
   3  -1   3  395.58   12.63
  -3   1  -3  376.77    8.65
  -3  -1  -3  370.74    7.95
   3   1   3  379.18    8.54
  -3  -1  -3  365.59    8.40
  -3   1  -4   37.95    6.63
   3   1   4   51.96    8.06
  -3  -1  -4   39.72    6.22
  -3   1  -4   46.64    7.04
  -3   1  -4   47.21    6.09
  -3  -1  -4   43.24    5.79
   3  -1   4   56.90    8.52
  -3   1  -4   51.91    4.58
  -3  -1  -4   54.24    6.19
  -3  -1  -4   45.35    7.76
  -3   1  -5  451.98   17.60
   3   1   5  483.13   18.79
  -3  -1  -5  448.67   16.83
  -3   1  -5  480.41   17.26
  -3   1  -5  460.79   17.77
  -3  -1  -5  438.62   16.58
   3  -1   5  465.57   17.55
  -3   1  -5  446.78   16.47
  -3  -1  -5  472.38   18.40
  -3  -1  -5  472.64   16.88
   3   1   6   22.93    3.79
  -3   1  -6   23.29    3.92
  -3  -1  -6   16.82    3.15
  -3   1  -6   25.03    3.25
  -3   1  -6   20.86    4.26
   3  -1   6   24.66    3.54
  -3  -1  -6   21.26    3.34
  -3   1  -6   22.53    3.42
  -3  -1  -6   20.87    2.73
  -3  -1  -6   15.81    3.89
   3   1   7  141.47   12.01
  -3   1  -7  146.07   10.64
  -3  -1  -7  142.97   10.31
  -3   1  -7  133.08   13.22
   3  -1   7  167.20   21.29
  -3  -1  -7  125.02   14.37
  -3   1  -7  108.12   15.22
  -3  -1  -7  156.40   11.06
  -3  -1  -7  161.99   15.58
   3   1   8   28.50    4.60
  -3   1  -8   17.54    2.65
  -3  -1  -8   25.74    4.37
  -3   1  -8   25.89    4.06
   3  -1   8   31.72    7.27
  -3  -1  -8   23.22    6.09
  -3  -1  -8   36.66    5.00
  -3  -1  -8   24.66    4.08
   3   1   9   30.70    5.20
  -3   1  -9   18.90    2.71
  -3  -1  -9   18.33    2.47
  -3   1  -9   18.47    3.62
   3  -1   9   23.77    4.91
  -3  -1  -9   16.47    3.22
  -3  -1  -9   18.17    3.56
  -3  -1  -9   18.41    3.16
   3  -1  10   11.90    2.36
   3   1  10    6.99    2.24
  -3   1 -10    6.12    1.30
  -3  -1 -10   12.12    2.61
   3  -1  10    9.56    3.12
  -3  -1 -10    7.64    2.49
  -3  -1 -10    5.81    1.24
   3  -1  11   23.39    4.28
   3   1  11   20.30    3.45
  -3   1 -11   19.23    3.37
  -3  -1 -11   14.65    2.63
   3  -1  11   22.87    5.63
  -3  -1 -11   19.03    3.90
  -3  -1 -11   15.84    3.82
  -3   1 -11   20.23    3.59
   3  -1  12   22.01    4.78
   3   1  12   32.42    9.40
  -3   1 -12   15.51    2.97
  -3  -1 -12   22.09    4.83
  -3   1 -12   32.37    8.97
  -3  -1 -12   19.58    4.12
  -3   1 -12   23.45    4.98
  -3  -1 -12   22.40    4.15
   3  -1  13  138.84    6.74
   3   1  13  155.22   19.22
  -3   1 -13  132.44    5.69
  -3  -1 -13  142.91    7.59
  -3   1 -13  162.21   18.78
  -3  -1 -13  119.31    5.64
  -3  -1 -13  135.38    5.87
  -3   1 -13  146.49   15.19
   3  -1  14    1.26    0.98
  -3   1 -14    7.02    2.22
  -3  -1 -14    4.49    2.94
  -3   1 -14   13.69    4.09
  -3  -1 -14    7.38    2.16
  -3  -1 -14   10.69    2.49
  -3   1 -14    5.63    3.59
   3  -1  15   54.23    9.63
   3   1  15   63.97   11.23
  -3   1 -15   40.13    6.95
  -3  -1 -15   64.07    9.42
  -3   1 -15   53.22    8.78
  -3  -1 -15   51.70    7.09
  -3   1 -15   67.40    9.04
   3  -1  16   24.03    5.86
   3   1  16   35.65    5.94
  -3   1 -16   21.33    4.98
  -3  -1 -16   27.12    7.78
  -3   1 -16   29.79    7.27
  -3  -1 -16   27.70    6.16
  -3   1 -16   34.45    6.57
   3  -1  17    0.74    0.45
   3   1  17    3.45    2.61
  -3   1 -17    1.12    1.08
  -3  -1 -17    8.54    6.37
  -3   1 -17   11.46    5.56
  -3  -1 -17    4.98    1.89
  -3   1 -17    4.69    3.14
   3  -1  18    6.29    1.75
   3   1  18    3.98    1.44
  -3   1 -18    2.16    1.00
  -3  -1 -18    9.86    5.68
  -3   1 -18   -0.22    3.70
  -3  -1 -18    1.97    1.35
  -3   1 -18    7.85    2.73
   3  -1  19   35.40    6.66
   3   1  19   61.84    8.20
  -3  -1 -19   51.30    9.71
  -3   1 -19   56.44    7.14
  -3  -1 -19   54.66    3.87
  -3   1 -19   53.82    5.58
   3  -1  20    9.25    3.27
   3   1  20    3.44    1.20
  -3  -1 -20    6.38    3.34
  -3   1 -20    8.48    3.82
  -3  -1 -20    9.16    2.46
  -3   1 -20   11.17    3.80
   3   1  21   74.80   12.15
  -3  -1 -21   66.39    8.24
  -3   1 -21   74.97    9.02
  -3   1 -21   61.88   10.79
   3   1  22   12.76    3.77
  -3  -1 -22   22.17    6.62
  -3   1 -22   11.15    4.78
  -3   1 -22   18.78    5.37
   3   1  23    7.49    1.91
  -3  -1 -23    7.76    4.28
  -3   1 -23   -0.19    2.92
  -3   1 -23    7.07    2.87
   3   1  24   10.17    3.36
  -3  -1 -24    6.68    2.25
  -3   1 -24    4.99    3.84
  -3  -1 -25   34.21    9.28
  -3   1 -25   47.79    8.68
  -3  -1 -26   32.51    7.26
  -3   1 -26   21.94    6.69
  -3  -1 -27   13.02    5.31
  -3   1 -27   27.15    7.71
  -3  -1 -28   23.79    9.15
  -3   1 -28    5.99    4.69
  -3  -1 -29   18.13    8.07
  -3   1 -29    3.82    3.38
  -3  -1 -30    4.64    2.80
  -3   1 -30    7.76    3.95
  -3   2  32    5.76    3.75
  -3  -2  32    5.96    4.06
   3   2 -32   -3.03    4.27
   3   2 -32    4.93    2.93
  -3   2  31   19.03    7.37
  -3  -2  31    9.96    4.34
   3  -2 -31    9.14    5.44
   3   2 -31   21.20    9.81
   3   2 -31   13.04    4.41
  -3   2  30   11.34    4.53
  -3  -2  30    4.27    3.36
   3  -2 -30   -5.53    5.31
   3   2 -30    3.64    2.71
   3   2 -30    6.71    3.89
  -3   2  29    2.74    3.30
  -3  -2  29    6.44    3.44
   3  -2 -29    2.78    4.63
   3   2 -29    1.21    2.66
   3   2 -29    8.33    3.08
  -3   2  28    3.22    3.06
  -3  -2  28   10.10    5.04
   3  -2 -28   -1.52    4.35
   3   2 -28    5.80    3.57
   3   2 -28   -0.76    3.32
  -3   2  27    1.52    2.99
  -3  -2  27    4.89    2.14
  -3   2  27    8.29    4.27
  -3  -2  27   -2.47    3.35
   3  -2 -27    6.20    5.06
   3   2 -27    8.31    5.51
   3  -2 -27    4.32    1.14
   3   2 -27    3.48    3.62
  -3   2  26    9.29    3.69
  -3  -2  26    2.54    2.04
  -3   2  26    6.35    3.01
  -3  -2  26    4.58    3.63
   3  -2 -26   11.46    5.46
   3   2 -26   16.42    6.99
   3  -2 -26    5.29    2.54
   3   2 -26   13.09    5.01
  -3   2  25    6.25    3.84
  -3   2  25    6.72    4.64
  -3  -2  25    0.23    2.79
   3  -2 -25   12.91    3.87
   3   2 -25    6.38    3.63
   3  -2 -25    5.99    3.34
   3   2 -25    5.36    2.05
  -3   2  24    4.87    3.19
  -3  -2  24    7.62    3.30
  -3   2  24    7.52    3.45
  -3  -2  24   16.00    6.89
   3  -2 -24   13.99    5.16
   3   2 -24   10.63    4.06
   3  -2 -24   12.19    3.68
   3   2 -24    3.52    2.55
  -3   2  23   10.98    3.88
  -3  -2  23    6.49    3.51
  -3   2  23    5.17    2.66
  -3  -2  23    2.03    4.82
   3  -2 -23    6.32    4.30
   3   2 -23    8.46    3.11
   3  -2 -23    7.02    2.28
   3   2 -23    4.07    3.58
  -3   2  22   14.21    4.44
  -3  -2  22    8.66    2.93
  -3   2  22    9.81    3.50
  -3  -2  22   18.31    7.38
   3  -2 -22   20.67    5.96
   3   2 -22   10.58    4.66
   3  -2 -22    8.87    3.75
   3   2 -22    3.01    3.59
  -3   2  21   23.47    6.11
  -3  -2  21    7.67    2.80
  -3   2  21   11.07    3.70
  -3  -2  21    6.43    3.64
   3  -2 -21   12.12    5.22
   3   2 -21   26.65    7.06
   3  -2 -21   19.31    5.25
   3   2 -21   13.68    5.67
  -3   2  20   19.23    5.27
  -3  -2  20   25.76    6.09
  -3   2  20   13.10    5.92
  -3  -2  20   20.69    5.60
   3  -2 -20   23.94    6.36
   3   2 -20   25.27    7.15
   3  -2 -20   20.19    5.45
   3   2 -20   20.98    5.48
  -3   2  19    6.34    3.12
  -3  -2  19   21.00    4.49
  -3   2  19   21.09    5.38
  -3  -2  19   19.01    5.80
   3  -2 -19   29.72    6.36
   3   2 -19   30.41    5.59
   3  -2 -19   16.67    4.23
   3   2 -19   21.99    5.10
  -3   2  18   48.77    7.95
  -3  -2  18   42.70    6.92
  -3   2  18   27.32    8.54
  -3  -2  18   29.64    5.45
   3  -2 -18   34.08    6.56
   3   2 -18   35.58    7.35
   3  -2 -18   43.79    8.49
   3   2 -18   20.96    6.28
  -3   2  17   40.13    6.59
  -3  -2  17   39.19    5.79
  -3   2  17   46.76    8.86
  -3  -2  17   41.13    8.84
   3  -2 -17   44.18    9.74
   3   2 -17   52.62    8.43
   3  -2 -17   42.67    7.42
   3   2 -17   45.66    7.17
  -3   2  16   22.48    5.80
  -3  -2  16   26.35    5.70
  -3   2  16   24.43    5.86
  -3  -2  16   35.73    8.52
   3  -2 -16   39.84    8.51
   3   2 -16   26.90    5.79
   3  -2 -16   20.19    5.77
   3   2 -16   24.97    5.93
  -3   2  15   35.85    5.44
  -3  -2  15   36.56    4.58
  -3   2  15   44.81    6.57
  -3  -2  15   38.02    5.87
   3  -2 -15   24.27    5.76
   3   2 -15   18.62    4.19
   3  -2 -15   24.84    5.17
   3   2 -15   29.72    6.27
  -3   2  14    7.55    3.24
  -3  -2  14   12.56    3.17
  -3   2  14    4.90    2.11
  -3  -2  14   11.27    4.12
   3  -2 -14    3.89    3.10
   3   2 -14    7.72    3.71
   3  -2 -14    3.39    1.30
   3   2 -14   10.39    4.65
  -3   2  13    1.58    2.14
  -3  -2  13    1.57    2.15
  -3   2  13    4.26    2.16
  -3  -2  13    7.11    3.51
   3  -2 -13    8.58    3.27
   3   2 -13   11.28    3.86
   3  -2 -13    9.90    3.51
   3   2 -13   16.03    4.80
  -3   2  12  204.55   11.74
  -3  -2  12  179.29    9.02
  -3   2  12  202.76   14.95
  -3  -2  12  169.72    9.41
   3  -2 -12  210.57   11.49
   3   2 -12  186.84    9.23
   3  -2 -12  192.55   23.29
   3   2 -12  193.26   10.27
  -3   2  11  532.44   22.54
  -3  -2  11  495.15   20.50
  -3   2  11  493.34   23.05
   3  -2 -11  464.61   19.19
  -3  -2  11  514.70   21.91
   3   2 -11  458.35   19.05
   3  -2 -11  463.92   20.33
   3   2 -11  500.21   20.71
   3  -2 -11  477.00   19.85
   3   2 -11  483.92   20.71
  -3  -2  10  329.40   14.46
  -3   2  10  303.73   17.20
   3  -2 -10  277.92   23.33
  -3  -2  10  370.72   24.45
   3   2 -10  313.86   20.78
   3  -2 -10  345.56   15.76
   3   2 -10  335.84   14.79
   3  -2 -10  324.63   14.21
   3   2 -10  358.73   16.12
  -3   2   9  132.37   11.37
  -3  -2   9  136.49   10.27
  -3   2   9  133.03   13.45
   3  -2  -9  136.66   15.10
  -3  -2   9  117.16    9.14
   3   2  -9  115.28   10.55
   3  -2  -9  149.97   16.26
   3   2  -9  132.32    9.50
   3  -2  -9  125.64   10.29
   3   2  -9  161.84   18.01
  -3  -2   8    6.31    2.24
  -3  -2   8   11.63    4.25
  -3   2   8   13.42    3.46
   3  -2  -8    7.44    2.00
  -3  -2   8    6.34    2.89
   3   2  -8    8.22    2.06
   3  -2  -8   10.29    3.90
   3   2  -8   12.56    3.32
   3  -2  -8   10.52    3.22
   3   2  -8   14.40    4.85
  -3  -2   7  120.47   12.54
  -3   2   7  107.11    8.67
  -3  -2   7  144.26   10.67
  -3   2   7  145.50   12.64
   3  -2  -7  138.13    9.61
  -3  -2   7  151.41   11.77
   3   2  -7  123.30    9.22
   3   2  -7  135.47   10.93
   3  -2  -7  151.73   16.43
  -3   2   7  121.97   12.70
   3   2  -7  139.31   15.83
  -3   2   7  113.72   14.77
   3   2  -7  160.78   12.10
  -3  -2   6  245.66   13.68
  -3   2   6  250.39   10.79
  -3   2   6  258.32    9.89
   3  -2  -6  263.25   11.86
   3   2  -6  250.58   10.43
   3   2  -6  266.04   10.82
   3  -2  -6  283.13   12.04
  -3   2   6  265.36   11.06
   3   2  -6  247.85   11.32
  -3   2   6  244.42   22.92
   3   2  -6  270.25   11.59
  -3   2   5  157.85   11.66
  -3   2   5  157.89   10.84
   3  -2  -5  163.02   10.94
   3   2  -5  142.27   10.38
   3   2  -5  165.78   11.46
   3  -2  -5  138.04   10.51
  -3   2   5  146.75   10.74
   3   2  -5  163.95   12.97
  -3  -2   5  140.34   10.33
  -3  -2   4  179.71   21.59
   3  -2  -4  117.48    7.94
  -3   2   4  193.74   11.62
   3   2  -2    2.23    1.09
  -3   2   2    1.60    2.72
   3  -2  -2    2.09    1.88
   3   2  -2    6.41    2.13
   3  -2  -2    1.82    2.53
  -3   2   2    3.28    1.38
   3   2  -2    3.38    1.69
  -3  -2   2    6.73    2.77
   3   2  -1   15.87    3.82
  -3  -2   1   12.51    2.56
   3  -2  -1   13.24    2.99
   3   2  -1   15.11    3.51
   3  -2  -1   14.49    3.84
  -3   2   1   11.76    2.42
   3   2  -1   20.46    3.71
  -3  -2   1   15.24    3.43
  -3  -2   0   15.60    3.72
  -3   2   0   19.79    3.54
   3  -2   0   14.46    3.23
   3   2   0   14.47    4.22
   3  -2   0   12.44    2.95
  -3   2   0   13.24    3.15
   3   2   0   18.08    3.76
  -3  -2   0   15.49    2.20
   3   2   1   17.48    3.16
  -3  -2  -1   14.66    3.49
  -3   2  -1   21.28    2.88
   3  -2   1   11.95    2.76
  -3   2  -1   12.93    2.42
   3   2   1   19.30    3.45
  -3  -2  -1   15.49    3.14
   3  -2   1   14.98    3.97
  -3   2  -1   33.13    3.60
  -3  -2  -1   16.50    3.40
   3   2   1   16.53    4.06
  -3  -2  -1   16.58    3.54
  -3  -2  -2   16.96    3.41
  -3   2  -2   17.75    2.96
   3  -2   2   14.71    3.25
  -3   2  -2    9.83    2.07
  -3  -2  -2   12.03    2.54
   3  -2   2   13.01    3.70
  -3   2  -2   18.33    3.34
  -3  -2  -2   13.63    2.88
   3   2   2    2.54    2.52
  -3  -2  -2    7.76    2.45
   3   2   3  146.51   17.04
  -3  -2  -3  112.34   17.44
  -3   2  -3  149.70   10.53
   3  -2   3  145.86   10.19
  -3   2  -3  144.38    9.95
  -3  -2  -3  136.43   10.30
   3  -2   3  160.32   20.79
  -3   2  -3  140.09   10.14
  -3  -2  -3  146.23    9.87
   3   2   3  149.67   11.17
  -3  -2  -3  134.99    9.71
   3   2   4   18.46    2.94
  -3   2  -4   12.19    3.13
   3  -2   4   11.66    3.02
  -3   2  -4   13.80    2.90
  -3  -2  -4   11.51    2.71
   3  -2   4   11.26    3.01
  -3   2  -4   14.69    3.83
  -3  -2  -4   16.02    3.34
   3   2   4   16.54    3.93
  -3  -2  -4   14.77    3.01
  -3   2  -5  262.94    9.95
   3   2   5  244.32   10.45
  -3   2  -5  243.95    9.42
   3  -2   5  270.74   10.43
  -3   2  -5  242.88    9.20
  -3  -2  -5  257.37    9.73
   3  -2   5  254.46   19.74
  -3  -2  -5  248.46    9.56
   3   2   5  239.88   10.74
  -3  -2  -5  248.84    9.49
  -3   2  -6    8.58    2.12
   3   2   6   12.82    3.90
  -3   2  -6   10.18    2.49
   3  -2   6   10.23    2.79
  -3   2  -6   10.23    2.62
  -3  -2  -6   11.84    3.38
   3  -2   6   13.94    4.67
  -3  -2  -6   10.31    4.04
  -3  -2  -6    7.77    2.47
  -3   2  -7   10.13    2.33
   3   2   7   19.02    3.99
  -3   2  -7   17.81    2.37
   3  -2   7   10.55    2.77
  -3   2  -7   11.30    2.52
  -3  -2  -7   19.43    2.92
   3  -2   7   18.29    4.56
  -3  -2  -7   10.59    2.60
  -3  -2  -7   11.90    2.79
  -3   2  -8   14.88    2.41
   3   2   8   10.48    3.33
  -3   2  -8    5.75    1.32
   3  -2   8   13.60    2.77
  -3   2  -8    9.98    1.81
  -3  -2  -8   10.53    2.32
   3  -2   8   15.83    3.27
  -3  -2  -8   13.05    2.61
  -3  -2  -8   12.09    1.81
   3   2   9  294.74   19.40
  -3   2  -9  273.43   11.09
  -3   2  -9  265.76   10.88
   3  -2   9  280.47   12.84
  -3   2  -9  247.23   11.42
  -3  -2  -9  260.11   12.19
   3  -2   9  277.64   17.38
  -3  -2  -9  272.62   18.57
  -3  -2  -9  266.32   10.92
   3   2  10   12.18    2.65
  -3   2 -10    6.09    1.05
  -3   2 -10    5.53    1.39
   3  -2  10    3.52    1.65
   3  -2  10    8.20    2.84
  -3  -2 -10    4.28    1.60
  -3  -2 -10    5.92    1.40
  -3   2 -10   11.28    3.59
   3   2  11  348.56   19.06
  -3   2 -11  354.34   12.17
  -3   2 -11  366.45   12.36
   3  -2  11  363.03   19.64
   3  -2  11  373.07   29.28
  -3  -2 -11  385.03   17.53
  -3  -2 -11  333.85   11.32
  -3   2 -11  364.88   14.73
   3   2  12   31.77    9.85
  -3   2 -12   33.27    4.28
  -3   2 -12   30.81    5.09
   3  -2  12   37.74    7.50
   3  -2  12   32.54   10.87
  -3  -2 -12   36.99    4.64
  -3  -2 -12   33.10    4.08
  -3   2 -12   27.12    5.95
  -3  -2 -12   32.16    7.92
   3   2  13   27.27    5.21
  -3   2 -13   20.12    4.00
  -3   2 -13   25.01    4.46
   3  -2  13   27.43    5.87
   3  -2  13   25.19    6.50
  -3  -2 -13   20.47    5.25
  -3  -2 -13   18.37    4.01
  -3  -2 -13   22.35    4.06
  -3   2 -13   18.42    4.81
   3   2  14   -0.12    1.51
  -3   2 -14    2.01    0.85
  -3   2 -14   -0.15    0.49
   3  -2  14    7.96    3.30
   3  -2  14    8.23    4.24
  -3  -2 -14    4.77    2.26
  -3  -2 -14   -0.11    0.48
  -3  -2 -14    1.79    0.62
  -3   2 -14    0.36    2.87
   3   2  15  150.69   20.35
  -3   2 -15  143.80    8.59
  -3   2 -15  139.90    8.32
   3  -2  15  151.62   19.56
  -3  -2 -15  151.20   10.75
  -3   2 -15  153.42   11.59
  -3  -2 -15  135.77    8.91
  -3  -2 -15  139.61    8.26
  -3   2 -15  162.88   25.28
   3   2  16    7.62    2.37
  -3   2 -16    1.54    0.58
  -3   2 -16    3.92    1.01
   3  -2  16    4.01    2.20
  -3  -2 -16    8.68    4.17
  -3   2 -16    3.84    3.75
  -3  -2 -16    4.22    1.00
  -3  -2 -16    2.29    0.66
  -3   2 -16   12.45    4.62
   3   2  17   53.28    9.29
  -3   2 -17   46.58    6.20
  -3   2 -17   30.72    5.29
   3  -2  17   54.56    9.94
  -3  -2 -17   46.29    8.65
  -3   2 -17   47.72    8.25
  -3  -2 -17   32.94    4.95
  -3  -2 -17   19.39    4.63
  -3   2 -17   46.10   13.00
   3   2  18    7.92    3.33
   3  -2  18    5.07    2.56
  -3  -2 -18    2.93    3.83
  -3   2 -18    7.35    3.97
  -3   2 -18   10.78    3.26
   3   2  19    0.03    2.69
   3  -2  19    6.29    3.62
  -3  -2 -19    6.26    5.36
  -3   2 -19   -0.76    3.61
  -3   2 -19   11.38    3.97
   3   2  20   11.70    4.00
   3  -2  20    3.86    2.16
  -3  -2 -20    4.93    3.21
  -3   2 -20    4.80    4.44
  -3   2 -20   17.40    5.49
   3   2  21   12.32    3.49
   3  -2  21   15.37    4.91
  -3  -2 -21   19.74    7.98
  -3   2 -21   12.56    6.48
  -3   2 -21   14.42    4.93
   3   2  22    2.81    1.39
   3  -2  22    4.53    1.77
  -3  -2 -22    8.07    5.52
  -3   2 -22    8.40    5.69
  -3   2 -22    6.83    4.23
   3   2  23    7.69    2.46
   3  -2  23   10.01    4.37
  -3  -2 -23   -0.14    3.64
  -3   2 -23    6.01    4.64
  -3   2 -23    8.11    4.80
   3   2  24    6.55    2.62
  -3  -2 -24   14.13    7.34
  -3   2 -24    7.07    3.67
  -3   2 -24    4.14    2.46
   3   2  25   10.94    5.37
  -3  -2 -25    2.70    3.97
  -3   2 -25    3.93    2.75
  -3   2 -25    4.85    3.41
  -3  -2 -26   17.19    6.20
  -3   2 -26    8.90    4.95
  -3  -2 -27    3.84    4.02
  -3   2 -27    2.57    4.42
  -3  -2 -28   33.90   11.91
  -3   2 -28    8.25    6.31
  -3  -2 -29   12.65    7.33
  -3   2 -29   22.47    9.37
  -3  -2 -30    5.23    4.61
  -3   2 -30    5.67    4.98
  -3   3  32   -0.19    3.29
  -3  -3  32   10.39    5.05
   3  -3 -32    5.07    5.28
   3   3 -32   11.29    6.86
   3   3 -32    1.43    1.97
  -3   3  31    5.69    4.07
  -3  -3  31   11.19    4.46
   3  -3 -31   29.61   10.79
   3   3 -31    6.71    3.77
   3   3 -31   -1.03    3.68
  -3   3  30    7.80    3.98
  -3  -3  30    8.63    4.37
   3  -3 -30   13.34    7.50
   3   3 -30    6.32    3.51
   3   3 -30    6.60    3.01
  -3   3  29   11.15    5.77
  -3  -3  29   17.76    6.69
   3  -3 -29   44.07   13.79
   3   3 -29   20.30    7.43
   3   3 -29   11.46    5.22
  -3   3  28   29.09    8.74
  -3  -3  28   29.44    6.97
   3  -3 -28   22.00    7.91
   3   3 -28   13.06    4.43
   3   3 -28   37.01    8.07
  -3   3  27   20.52    7.60
  -3  -3  27   10.52    5.46
   3  -3 -27   11.74    4.25
   3   3 -27   14.14    5.69
   3   3 -27    6.16    4.11
  -3   3  26   23.40    6.11
  -3  -3  26   12.50    3.75
   3  -3 -26   19.99    6.10
   3   3 -26   23.72    7.87
   3  -3 -26   19.13    3.67
   3   3 -26   23.41    5.85
  -3   3  25    4.36    3.54
  -3  -3  25    6.57    3.18
  -3  -3  25    8.60    4.58
   3  -3 -25   21.00    5.13
   3   3 -25    4.10    4.39
   3  -3 -25    8.61    3.06
   3   3 -25   16.95    6.12
  -3   3  24   33.24    7.34
  -3  -3  24   17.89    5.03
  -3  -3  24   26.00    7.60
   3  -3 -24   38.60    7.59
   3   3 -24   36.08    7.29
   3  -3 -24   22.29    6.53
   3   3 -24   22.85    7.02
  -3   3  23    4.21    4.99
  -3  -3  23    0.33    1.88
  -3  -3  23   19.54    6.13
   3  -3 -23    5.18    3.96
   3   3 -23    5.09    2.59
   3  -3 -23    4.20    1.62
   3   3 -23    3.25    1.77
  -3   3  22  123.63   12.33
  -3  -3  22  105.46    8.91
  -3  -3  22  109.93   13.68
   3  -3 -22  101.18   12.78
   3   3 -22  108.22   10.93
   3  -3 -22  101.88   15.97
   3   3 -22   93.77   10.12
  -3   3  21    8.46    3.30
  -3  -3  21   13.07    4.06
  -3  -3  21   11.59    5.01
   3  -3 -21    9.46    4.48
   3   3 -21    5.18    3.74
   3  -3 -21   11.21    3.17
   3   3 -21    7.11    3.48
  -3   3  20   64.02    7.20
  -3  -3  20   68.38    6.64
  -3  -3  20   85.59   14.61
   3  -3 -20   78.68    9.00
   3   3 -20   70.30    7.42
   3  -3 -20   77.26   11.52
   3   3 -20   84.27    8.96
  -3   3  19   21.35    5.95
  -3  -3  19   17.93    4.87
  -3  -3  19   32.86    8.25
   3  -3 -19   20.10    6.80
   3   3 -19   13.67    5.25
   3  -3 -19   12.75    4.03
   3   3 -19    5.99    3.55
  -3   3  18   23.11    5.05
  -3  -3  18   37.40    6.37
  -3  -3  18   42.23   10.04
   3  -3 -18   22.87    6.16
   3   3 -18   28.61    5.99
   3  -3 -18   21.34    4.33
   3   3 -18   28.57    5.96
  -3   3  17   19.66    6.00
  -3  -3  17   15.89    4.61
  -3  -3  17    7.27    4.06
   3  -3 -17   19.10    5.93
   3   3 -17    6.40    3.10
   3  -3 -17   11.58    4.15
   3   3 -17    9.74    5.27
  -3   3  16  148.00   11.29
  -3  -3  16  135.74   18.16
  -3  -3  16  144.37   11.76
   3  -3 -16  169.17   13.29
   3   3 -16  142.40   10.32
   3   3 -16  150.83   11.87
  -3   3  15   12.45    4.79
  -3  -3  15   21.72    4.98
  -3  -3  15   14.11    4.73
   3  -3 -15    4.45    3.69
   3   3 -15   17.67    4.82
   3   3 -15    6.42    3.54
  -3   3  14  184.62   11.21
  -3  -3  14  197.22   10.42
  -3  -3  14  187.92   11.41
   3  -3 -14  211.84   18.42
   3   3 -14  179.87    9.90
   3   3 -14  206.72   11.85
  -3   3  13   17.28    4.76
  -3  -3  13   23.22    4.81
  -3  -3  13    9.58    3.50
   3  -3 -13   25.30    6.19
   3   3 -13   20.80    4.60
   3   3 -13   18.74    5.04
  -3  -3  12    5.78    3.80
  -3  -3  12    8.98    4.05
   3  -3 -12    5.97    3.64
   3   3 -12    4.09    2.16
   3   3 -12    5.83    4.46
  -3   3  11    7.22    3.41
  -3  -3  11   -0.18    2.22
   3  -3 -11    4.92    1.78
  -3  -3  11    5.67    3.67
   3   3 -11    2.01    0.83
   3  -3 -11    3.95    2.66
   3   3 -11    5.22    2.66
   3   3 -11    6.16    4.71
  -3   3  10   27.52    4.47
  -3  -3  10   32.63    4.02
   3  -3 -10   33.46    5.36
  -3  -3  10   28.53    4.75
   3   3 -10   28.41    5.26
   3  -3 -10   29.10    4.47
   3   3 -10   34.48    3.77
   3   3 -10   33.56    5.27
  -3   3   9    3.85    2.47
   3  -3  -9    1.35    1.29
   3   3  -9    4.06    1.90
   3  -3  -9    8.39    4.80
   3   3  -9    7.81    1.97
   3   3  -9   -1.09    3.48
  -3   3   8  251.25   12.23
   3  -3  -8  251.83   10.86
  -3  -3   8  247.92   12.05
   3   3  -8  245.70   15.63
   3   3  -8  251.36   10.92
   3   3  -7  218.19   21.26
  -3   3   7  186.04   15.91
   3  -3  -7  233.28    9.31
  -3  -3   7  198.07    9.83
   3   3  -7  217.91   11.89
   3   3  -7  206.89    8.38
   3   3  -7  180.16   15.69
   3   3  -6  489.23   18.65
  -3   3   6  528.65   20.13
   3  -3  -6  498.78   18.91
  -3  -3   6  484.91   18.88
   3   3  -6  495.67   17.50
   3   3  -6  514.37   18.63
   3   3  -5   22.43    3.89
  -3   3   5   17.37    3.99
   3  -3  -5   13.22    3.13
  -3  -3   5    6.92    3.14
   3   3  -5   14.93    3.47
   3   3  -5   14.89    3.22
   3   3  -5   26.07    4.96
   3   3  -4    4.13    1.82
  -3   3   4    5.50    2.92
   3  -3  -4    2.87    0.95
  -3  -3   4    4.50    3.29
   3   3  -4    6.07    1.49
   3   3  -4    3.84    1.32
   3   3  -3   39.88    5.69
  -3   3   3   33.79    4.99
   3  -3  -3   23.92    3.63
   3  -3  -3    1.15    0.37
  -3  -3   3   37.43    5.50
   3   3  -3   -0.22    0.40
  -3  -3   3   26.59    3.76
   3   3  -1    3.21    1.60
  -3   3   1    2.48    2.68
   3  -3  -1    6.84    2.91
  -3  -3   1    4.84    3.21
  -3  -3   1    3.06    0.81
   3   3  -1    2.66    0.72
   3   3  -1    3.52    3.68
  -3  -3   1    4.35    2.09
   3   3   1    0.05    0.37
   3   3   2  318.33   13.36
  -3   3  -2  293.57   11.53
   3  -3   2  286.70   11.10
   3  -3   2  272.88   10.44
  -3   3  -2  256.47    9.11
  -3  -3  -2  261.09   11.71
  -3  -3  -2  269.87    9.86
   3   3   2  286.65   10.23
   3   3   2  277.14   11.50
  -3  -3  -2  258.57   10.08
  -3   3  -3   42.70    4.33
   3  -3   3   42.73    3.95
   3  -3   3   50.33    6.50
  -3   3  -3   41.96    3.31
  -3  -3  -3   60.08    8.25
  -3  -3  -3   51.74    5.25
   3   3   3   50.51    6.29
   3   3   3   53.01    9.56
  -3  -3  -3   47.87    8.03
  -3   3  -4  106.20    7.82
   3  -3   4  106.20    7.81
   3  -3   4  105.35   12.83
  -3   3  -4  106.97    7.56
  -3  -3  -4  108.71    9.39
  -3  -3  -4  106.58    7.69
   3   3   4  108.33    8.23
   3   3   4  109.41   11.98
  -3  -3  -4  101.64   11.60
  -3   3  -5    5.42    1.75
   3  -3   5    3.21    1.14
   3  -3   5    5.92    1.43
  -3   3  -5    5.54    1.35
  -3  -3  -5    7.07    3.34
  -3  -3  -5    8.27    2.08
   3   3   5    5.42    1.70
   3   3   5    4.80    1.54
  -3  -3  -5    2.19    1.14
   3   3   6  225.04   26.23
  -3   3  -6  214.33    9.24
   3  -3   6  205.37    9.19
  -3   3  -6  200.25    8.75
  -3  -3  -6  210.71   10.70
  -3  -3  -6  222.53    9.90
   3   3   6  206.27   14.73
   3   3   6  192.86   10.07
  -3  -3  -6  209.84   10.14
  -3   3  -7   46.17    6.23
   3   3   7   53.64    8.77
  -3   3  -7   59.34    4.64
   3  -3   7   59.06    7.41
  -3   3  -7   45.45    3.89
   3  -3   7   56.56    8.34
  -3  -3  -7   69.70    9.64
   3   3   7   47.05    7.09
   3   3   7   48.86    5.87
  -3  -3  -7   50.50    6.73
  -3   3  -8  126.79    8.55
   3   3   8  138.08   12.37
  -3   3  -8  117.12    8.08
   3  -3   8  133.82   12.69
  -3   3  -8  106.59    7.81
   3  -3   8  131.47    9.68
  -3  -3  -8  123.17    6.87
   3   3   8  114.51   10.19
  -3  -3  -8  131.33    9.50
  -3   3  -9   37.91    4.81
   3   3   9   50.62    9.35
  -3   3  -9   42.45    3.92
   3  -3   9   48.28    7.35
  -3   3  -9   32.97    3.56
   3  -3   9   57.74    9.20
  -3  -3  -9   46.97    9.88
   3   3   9   35.36    4.69
  -3  -3  -9   39.50    4.96
  -3   3  -9   50.94    6.26
   3   3  10    1.38    2.19
  -3   3 -10    0.57    0.57
   3  -3  10    0.51    1.07
   3  -3  10    6.18    3.26
  -3  -3 -10    4.60    2.15
  -3   3 -10    7.21    4.64
   3   3  11   27.51    6.84
  -3   3 -11    8.65    1.74
  -3   3 -11   12.53    2.38
   3  -3  11   11.34    2.89
   3  -3  11   12.03    3.03
  -3  -3 -11   19.70    4.80
  -3  -3 -11   13.15    2.43
  -3   3 -11   28.75    6.84
   3   3  12  100.12   14.35
  -3   3 -12   66.22    8.92
  -3   3 -12   79.52    3.70
   3  -3  12   77.61   13.18
   3  -3  12   88.14   13.38
  -3  -3 -12   96.78   15.98
  -3   3 -12   88.37   15.56
   3   3  13   13.61    4.91
   3  -3  13   19.50    5.76
   3  -3  13   15.16    4.15
  -3  -3 -13   21.08    5.60
  -3   3 -13    5.87    2.85
   3   3  14   37.46    6.99
   3  -3  14   38.92    7.65
   3  -3  14   41.58    7.94
  -3  -3 -14   55.22    8.96
  -3   3 -14   43.26    7.32
   3   3  15    8.36    3.29
   3  -3  15   13.23    4.42
   3  -3  15    8.60    3.90
  -3  -3 -15    4.08    2.70
  -3   3 -15    4.19    2.96
   3   3  16    9.14    3.02
   3  -3  16   11.59    3.88
   3  -3  16   -3.60    3.25
  -3  -3 -16    3.92    3.14
  -3   3 -16    5.56    2.92
   3   3  17    7.15    2.70
   3  -3  17    5.73    2.12
  -3  -3 -17   15.90    5.15
  -3   3 -17   18.42    7.26
  -3   3 -17    7.38    2.86
   3   3  18   35.30    8.30
   3  -3  18   46.20    7.25
  -3  -3 -18   42.12    7.68
  -3   3 -18   46.95    6.79
  -3   3 -18   54.47    6.43
   3   3  19   25.05    5.51
   3  -3  19   25.89    7.04
  -3  -3 -19   19.49    5.25
  -3   3 -19   33.89    8.01
  -3   3 -19   35.79   13.04
   3   3  20  118.27   16.19
   3  -3  20   99.44   13.40
  -3  -3 -20   93.91   15.54
  -3   3 -20  124.00   13.42
  -3   3 -20  105.63   13.25
   3   3  21    7.27    2.76
   3  -3  21    7.40    2.93
  -3  -3 -21    9.26    4.83
  -3   3 -21    4.18    4.32
  -3   3 -21    2.64    3.00
   3   3  22   33.93    7.52
   3  -3  22   43.91    9.78
  -3  -3 -22   34.23   10.68
  -3   3 -22   50.57   11.48
  -3   3 -22   44.95    7.98
   3   3  23    4.78    2.28
   3  -3  23    5.93    3.08
  -3  -3 -23    5.46    2.54
  -3   3 -23   15.42    6.84
  -3   3 -23   14.86    5.46
   3   3  24   13.51    3.03
   3  -3  24   18.06    5.32
  -3  -3 -24   17.29    6.34
  -3   3 -24   14.55    4.13
  -3   3 -24   15.03    4.62
   3   3  25   14.20    4.33
   3  -3  25    9.43    4.89
  -3  -3 -25   14.07    6.38
  -3   3 -25    4.93    6.62
  -3   3 -25    3.66    3.81
   3   3  26   61.04   16.70
   3  -3  26   46.03   14.68
  -3  -3 -26   84.42   24.37
  -3   3 -26   83.37   27.84
  -3   3 -26   75.26   23.50
   3  -3  27    0.73    3.83
  -3  -3 -27    0.75    3.87
  -3   3 -27   18.78    9.91
  -3  -3 -28   15.84    6.52
  -3   3 -28   16.03    7.75
  -3  -3 -29   23.07    9.80
  -3   3 -29   12.75    8.21
  -3   4  31   -1.54    3.55
  -3  -4  31    5.12    3.93
   3  -4 -31    9.56    6.01
   3   4 -31    4.65    4.23
   3   4 -31    4.74    5.05
  -3   4  30    9.07    4.44
  -3  -4  30    9.72    5.88
   3  -4 -30    8.21    7.57
   3   4 -30    1.61    3.68
   3   4 -30    9.69    4.32
  -3   4  29    9.00    4.31
  -3  -4  29   13.18    6.26
   3   4 -29   10.96    4.90
   3   4 -29   -8.07    3.80
  -3   4  28    9.09    4.41
  -3  -4  28    8.08    2.87
   3  -4 -28   26.63    9.89
   3   4 -28    4.67    2.83
   3   4 -28    3.11    3.95
  -3   4  27    5.55    4.11
   3  -4 -27    5.29    4.48
   3   4 -27    1.45    3.56
   3   4 -27   12.85    5.55
  -3   4  26    8.09    4.76
  -3  -4  26   -0.47    2.93
   3  -4 -26    4.42    4.44
   3   4 -26   10.60    6.02
   3   4 -26    8.14    4.26
  -3   4  25   -1.99    3.40
  -3  -4  25   15.02    4.65
   3  -4 -25    8.85    4.76
   3   4 -25    0.82    3.45
   3   4 -25    4.39    3.94
  -3   4  24    5.15    4.38
  -3  -4  24    8.46    2.96
  -3  -4  24    7.01    3.81
   3  -4 -24    1.39    4.65
   3   4 -24    6.01    3.61
   3   4 -24    6.87    3.76
  -3   4  23    9.00    4.02
  -3  -4  23   -0.65    1.75
  -3  -4  23    2.22    2.91
   3   4 -23   12.40    5.23
   3   4 -23    5.58    5.60
  -3   4  22   29.67    8.76
  -3  -4  22   10.79    3.23
  -3  -4  22   10.42    3.24
   3   4 -22   31.51    6.36
   3   4 -22   18.76    6.25
  -3   4  21   10.45    4.08
  -3  -4  21   12.82    4.36
  -3  -4  21    8.43    3.96
   3  -4 -21    7.52    4.42
   3   4 -21   10.85    4.91
   3   4 -21    8.70    4.22
  -3   4  20   21.70    5.71
  -3  -4  20    7.64    2.33
  -3  -4  20   14.06    5.52
   3   4 -20   17.80    5.11
   3   4 -20   18.52    5.44
  -3   4  19   -1.74    3.40
  -3  -4  19    8.35    2.82
  -3  -4  19    0.88    4.13
   3  -4 -19   10.53    5.73
   3   4 -19    4.09    3.64
   3   4 -19    4.05    5.32
  -3   4  18   50.47   10.50
  -3  -4  18   37.28    7.12
  -3  -4  18   37.46    8.52
   3   4 -18   51.81    6.60
   3   4 -18   47.38    9.77
  -3   4  17   33.69    7.05
  -3  -4  17   31.39    5.37
  -3  -4  17   26.18    6.46
   3   4 -17   27.45    5.95
   3   4 -17   40.23    8.00
  -3   4  16  107.99    9.45
  -3  -4  16  107.43    8.26
  -3  -4  16  127.00   10.92
   3   4 -16  112.46    8.68
   3   4 -16   88.29    9.70
  -3   4  15   33.67    7.25
  -3  -4  15   20.88    4.99
  -3  -4  15   24.81    7.01
   3   4 -15   32.64    5.44
   3   4 -15   49.66    8.39
  -3   4  14   69.56   10.47
  -3  -4  14   72.38   10.12
  -3  -4  14   81.60    7.23
   3   4 -14   66.84    9.37
   3   4 -14  103.48    9.60
  -3  -4  13   58.75   10.52
  -3  -4  13   64.34    9.88
   3   4 -13   57.47    8.11
   3   4 -13   55.76    8.49
  -3   4  12   44.10    7.37
  -3  -4  12   72.75   10.10
  -3  -4  12   77.60   12.53
   3   4 -12   59.16   12.11
   3   4 -12   77.54   12.94
  -3   4  11    8.09    3.08
  -3  -4  11   13.83    4.35
   3   4 -11   15.09    4.17
   3   4 -11    3.36    3.31
  -3   4  10  273.13   12.12
   3  -4 -10  294.33   16.33
  -3  -4  10  323.09   13.67
   3   4 -10  265.91   15.65
   3   4 -10  336.06   12.97
   3   4 -10  347.59   14.70
   3   4  -9    3.12    2.68
  -3   4   9    2.02    4.83
   3  -4  -9    3.04    1.02
  -3  -4   9    5.87    3.72
   3   4  -9    0.93    1.10
   3   4  -9    1.91    1.67
   3   4  -9   -4.69    3.57
   3   4  -8   97.93   12.02
  -3   4   8   79.04    7.42
   3  -4  -8   75.15    6.50
  -3  -4   8   85.68    8.02
   3   4  -8   72.51    9.49
   3   4  -8   87.86    6.92
   3   4  -8   97.33   16.24
   3   4  -7  128.34   10.28
  -3   4   7  139.11    8.48
   3  -4  -7  110.51   12.50
  -3  -4   7  116.49    9.56
  -3  -4   7  112.67   14.51
   3   4  -7  107.13    7.59
   3   4  -6   28.46    5.52
  -3   4   6   33.39    5.29
   3  -4  -6   30.72    3.54
  -3  -4   6   28.89    4.73
  -3  -4   6   28.45    4.52
   3   4  -6   22.52    2.79
   3   4  -6   18.33    4.14
   3   4  -5  184.96   12.78
  -3   4   5  194.05   10.21
   3  -4  -5  173.18   12.87
  -3  -4   5  154.70    8.84
   3  -4  -5  177.90   14.29
  -3  -4   5  157.13   12.63
   3   4  -5  164.47    7.16
   3   4  -5  189.78   20.05
   3  -4  -4  377.36   16.51
  -3  -4   4  380.21   17.26
   3  -4  -4  396.72   15.77
  -3  -4   4  395.30   15.71
   3   4  -4  383.06   15.13
   3   4  -4  405.21   17.59
   3   4  -3    5.60    1.96
  -3   4   3    2.04    2.73
  -3  -4   3    4.32    6.13
   3  -4  -3    2.17    1.49
  -3  -4   3   -0.52    0.91
   3   4  -3    7.10    1.50
   3   4  -3    2.85    1.94
  -3   4   2  390.45   16.83
   3  -4  -2  394.25   15.41
  -3  -4   2  416.48   19.52
  -3  -4   2  407.39   16.42
   3   4  -2  401.62   15.80
   3   4  -2  379.75   22.70
   3   4  -1    6.24    4.11
  -3   4   1    3.60    1.82
   3  -4  -1    5.40    1.22
  -3  -4   1   24.34    5.16
  -3  -4   1    3.03    0.91
   3   4  -1    4.13    1.31
   3   4  -1    7.59    2.54
   3   4   0   12.36    3.81
  -3   4   0    6.29    2.43
   3  -4   0    5.34    2.71
   3  -4   0    2.46    1.01
  -3  -4   0   19.91    6.04
  -3  -4   0    3.04    1.14
   3   4   0    3.97    1.08
   3   4   0   -0.04    2.46
  -3  -4   0    4.16    2.82
   3   4   1  272.57   28.66
  -3   4  -1  261.84   11.85
   3  -4   1  247.36   10.99
   3  -4   1  265.51   10.70
  -3  -4  -1  225.67   12.07
  -3   4  -1  235.94   10.93
  -3  -4  -1  237.62   10.03
   3   4   1  240.01   10.08
   3   4   1  263.77   11.85
  -3  -4  -1  232.85   10.32
   3   4   2  178.35   24.40
  -3   4  -2  222.55   10.30
   3  -4   2  229.08   10.21
   3  -4   2  234.88    9.66
  -3   4  -2  213.29   14.63
  -3  -4  -2  220.09   12.29
  -3  -4  -2  222.22    9.82
   3   4   2  219.17    9.15
   3   4   2  223.13   10.22
  -3  -4  -2  195.21    8.86
   3   4   3    6.59    2.34
  -3   4  -3   16.93    2.94
   3  -4   3    2.74    1.45
   3  -4   3    8.32    1.57
  -3   4  -3   10.13    1.51
  -3  -4  -3    9.33    5.53
  -3  -4  -3   10.03    1.93
   3   4   3    9.92    1.91
   3   4   3   12.92    2.55
  -3  -4  -3    4.92    1.98
   3   4   4  451.06   22.39
  -3   4  -4  450.07   18.39
   3  -4   4  419.19   16.95
   3  -4   4  411.74   17.05
  -3   4  -4  427.82   16.93
  -3  -4  -4  487.98   30.53
  -3  -4  -4  448.44   18.04
   3   4   4  442.06   17.85
   3   4   4  456.28   20.28
  -3  -4  -4  418.98   17.07
  -3   4  -5    8.39    2.44
   3  -4   5    3.63    1.87
   3  -4   5   10.10    1.74
  -3   4  -5    5.92    1.75
  -3  -4  -5    9.82    4.66
   3  -4   5    7.49    2.30
  -3  -4  -5    8.32    2.15
   3   4   5   10.33    1.95
   3   4   5    8.32    2.62
  -3  -4  -5    6.86    1.86
   3   4   6   90.01   15.38
  -3   4  -6   95.14    7.06
   3  -4   6   90.51    6.53
   3  -4   6   96.92   12.88
  -3   4  -6  103.41    7.48
  -3  -4  -6  121.30    8.15
   3  -4   6  102.24   15.20
  -3  -4  -6  104.94    9.63
   3   4   6  107.67    7.99
   3   4   6  103.60   10.12
  -3  -4  -6   97.43   10.29
   3   4   7  144.42   20.10
  -3   4  -7  135.73    5.72
   3  -4   7  119.98    8.85
   3  -4   7  132.56   16.35
  -3   4  -7  118.56    5.42
  -3  -4  -7  143.87    8.49
   3  -4   7  133.98   20.45
  -3  -4  -7  136.55    6.64
   3   4   7  130.37    6.09
   3   4   7  128.85    8.12
  -3  -4  -7  111.53    9.29
  -3   4  -7  175.24   10.11
   3   4   8    7.88    6.75
  -3   4  -8    8.84    1.93
   3  -4   8   12.80    2.50
   3  -4   8   19.54    4.41
  -3   4  -8    7.38    1.81
  -3  -4  -8   13.15    5.27
   3  -4   8    8.77    4.24
  -3  -4  -8   14.33    3.33
   3   4   8   12.65    2.74
   3   4   8   18.85    4.23
  -3  -4  -8   11.81    2.42
  -3   4  -8   16.72    5.00
  -3   4  -9   11.69    2.52
   3   4   9   13.62    3.37
  -3   4  -9   21.69    4.23
   3  -4   9   17.40    3.98
  -3  -4  -9   18.34    4.90
   3  -4   9   17.28    4.42
  -3  -4  -9   16.71    4.92
   3   4   9   13.97    2.90
  -3  -4  -9   11.93    2.58
  -3   4  -9   12.04    4.04
  -3   4 -10  258.14   13.07
   3   4  10  265.09   32.92
  -3   4 -10  262.67   11.86
   3  -4  10  277.19   26.68
   3  -4  10  272.55   31.95
  -3  -4 -10  272.02   15.39
  -3  -4 -10  240.56   10.74
  -3   4 -10  298.96   16.00
  -3   4 -11   38.05    6.30
   3   4  11   50.78    8.80
  -3   4 -11   43.61    5.53
   3  -4  11   50.98    9.32
   3  -4  11   40.86    8.79
  -3  -4 -11   54.55    7.88
  -3   4 -11   76.11   15.48
   3   4  12  106.79   17.80
   3  -4  12   88.09    9.12
   3  -4  12  115.56   11.85
  -3  -4 -12  111.57    8.50
  -3   4 -12  114.19    9.61
   3   4  13    4.25    3.03
   3  -4  13   10.79    3.64
   3  -4  13    9.19    4.11
  -3  -4 -13    4.54    3.71
  -3   4 -13    2.11    3.44
   3   4  14   64.35    8.45
   3  -4  14   60.78    8.00
   3  -4  14   73.71   12.87
  -3  -4 -14   84.48    7.73
  -3   4 -14   61.80    7.23
   3   4  15   12.41    4.14
   3  -4  15   18.85    4.39
   3  -4  15   29.16    6.69
  -3  -4 -15   15.55    4.69
  -3   4 -15   20.33    4.86
   3   4  16  179.26   16.82
   3  -4  16  210.10   28.23
   3  -4  16  201.25   31.29
  -3  -4 -16  217.60   17.37
  -3   4 -16  203.62   17.30
   3   4  17  107.03   13.32
   3  -4  17   80.38   11.51
   3  -4  17  107.42   12.85
  -3  -4 -17   90.13    8.28
  -3   4 -17   72.17   12.43
   3   4  18   25.51    8.03
   3  -4  18   21.31    6.32
   3  -4  18   12.28    4.27
  -3  -4 -18   11.48    5.35
  -3   4 -18   16.54    5.77
   3   4  19   49.46   10.03
   3  -4  19   38.28    8.66
  -3  -4 -19   43.05    9.05
  -3   4 -19   39.20    7.82
  -3   4 -19   43.34   10.02
   3   4  20   17.95    5.80
   3  -4  20   18.15    5.01
  -3  -4 -20   19.65    7.14
  -3   4 -20   24.37    7.94
  -3   4 -20   21.66    7.01
   3   4  21    6.19    2.31
   3  -4  21   11.43    4.40
  -3  -4 -21   -4.24    3.64
  -3   4 -21    3.85    3.55
  -3   4 -21    4.17    3.29
   3   4  22   87.02   16.89
   3  -4  22   70.50   15.68
  -3  -4 -22   84.82   11.77
  -3   4 -22   71.49   13.14
  -3   4 -22   94.05    8.73
   3   4  23    8.22    3.69
   3  -4  23   22.98    5.77
  -3  -4 -23   19.39    5.64
  -3   4 -23   26.54    8.47
  -3   4 -23   35.70    9.50
   3   4  24   13.79    6.56
   3  -4  24    7.98    3.15
  -3  -4 -24   16.26    6.47
  -3   4 -24    7.85    3.63
  -3   4 -24   22.80    6.02
   3   4  25   14.60    5.95
   3  -4  25    6.88    1.88
  -3  -4 -25   25.50    6.97
  -3   4 -25   24.62    7.95
  -3   4 -25   15.50    6.32
   3   4  26   -0.27    2.85
   3  -4  26   15.05    6.19
  -3  -4 -26    5.21    4.47
  -3   4 -26    4.02    4.63
  -3   4 -26    4.11    3.66
   3   4  27    3.39    3.92
   3  -4  27    7.35    4.20
  -3  -4 -27    3.76    2.75
  -3   4 -27   12.08    7.50
  -3   4 -27    2.15    3.25
   3  -4  28    7.13    4.51
  -3  -4 -28    1.72    4.28
  -3   5  30    2.32    3.95
  -3  -5  30    3.67    3.75
   3  -5 -30    4.64    6.08
   3   5 -30    7.49    5.39
   3   5 -30    1.68    3.68
  -3   5  29   -0.42    3.95
  -3  -5  29    4.33    2.66
   3  -5 -29    6.53    5.81
   3   5 -29    9.25    5.78
   3   5 -29   14.58    6.32
  -3   5  28    2.52    4.17
  -3  -5  28    8.45    4.16
   3  -5 -28    6.26    5.19
   3   5 -28    5.51    3.56
   3   5 -28    8.42    4.71
  -3   5  27    4.59    4.65
  -3  -5  27    7.38    4.58
   3  -5 -27   28.54   10.01
   3   5 -27   10.72    4.59
   3   5 -27   12.63    6.33
  -3   5  26   13.24    6.46
  -3  -5  26   11.13    5.61
   3  -5 -26   15.03    7.87
   3   5 -26    1.06    3.64
   3   5 -26    3.86    3.96
  -3   5  25   12.30    4.77
  -3  -5  25   17.39    5.52
   3  -5 -25   11.87    6.36
   3   5 -25   15.46    7.20
   3   5 -25    4.52    3.96
  -3   5  24   14.92    4.30
  -3  -5  24   13.57    3.61
   3  -5 -24    3.03    3.82
   3   5 -24    9.88    5.72
   3   5 -24    4.82    3.71
  -3   5  23    6.16    2.35
  -3  -5  23   -1.31    4.45
   3  -5 -23   10.38    5.12
   3   5 -23   19.82    6.05
   3   5 -23    6.29    3.49
  -3   5  22    3.17    3.55
  -3  -5  22    3.37    1.72
  -3  -5  22   -2.82    4.36
   3  -5 -22    9.14    5.08
   3   5 -22    1.91    3.14
   3   5 -22    7.20    4.70
  -3   5  21   18.11    6.42
  -3  -5  21   11.45    3.49
  -3  -5  21   13.27    4.17
   3  -5 -21   24.47    7.78
   3   5 -21   25.19    6.16
   3   5 -21    9.65    5.79
  -3   5  20   -1.78    3.90
  -3  -5  20    2.96    1.71
  -3  -5  20   13.43    5.56
   3  -5 -20    5.66    3.61
   3   5 -20   10.08    3.00
   3   5 -20   10.14    4.82
  -3   5  19    6.90    4.03
  -3  -5  19    9.67    2.98
  -3  -5  19   26.94    8.22
   3  -5 -19   18.19    6.58
   3   5 -19    2.86    2.81
   3   5 -19   13.05    4.74
  -3   5  18    6.52    3.17
  -3  -5  18    3.12    2.12
  -3  -5  18    5.32    4.48
   3  -5 -18   10.01    4.62
   3   5 -18    9.21    3.73
   3   5 -18    5.12    2.79
  -3   5  17    8.06    4.22
  -3  -5  17    9.12    3.37
  -3  -5  17    2.52    4.15
   3  -5 -17    8.96    4.42
   3   5 -17    9.04    4.94
   3   5 -17   19.60    9.15
  -3   5  16   23.39    7.38
  -3  -5  16    1.37    2.26
  -3  -5  16    3.32    3.26
   3  -5 -16    8.64    5.50
   3   5 -16   -4.33    2.79
   3   5 -16    4.60    2.25
  -3   5  15   11.63    4.41
  -3  -5  15    5.44    2.54
  -3  -5  15    4.15    3.78
   3  -5 -15   12.24    4.54
   3   5 -15   10.26    3.43
   3   5 -15   22.15    5.80
  -3   5  14   27.62    6.63
  -3  -5  14   26.84    4.86
  -3  -5  14   16.10    5.47
   3  -5 -14   26.19    5.91
   3   5 -14   18.53    4.80
   3   5 -14   21.70    5.82
  -3   5  13   21.04    5.94
  -3  -5  13   14.39    4.55
  -3  -5  13   11.65    5.44
   3  -5 -13   17.06    6.57
   3   5 -13    3.83    1.99
   3   5 -13   17.51    6.30
  -3   5  12   46.15    7.59
  -3  -5  12   61.76    9.12
   3  -5 -12   57.99    8.70
   3   5 -12   54.77   10.08
   3   5 -12   49.23    8.16
   3   5 -11    2.33    1.92
  -3   5  11   -2.31    2.92
  -3  -5  11    8.18    3.83
   3  -5 -11    5.82    4.30
   3   5 -11    3.96    2.96
   3   5 -11    3.61    3.45
   3   5 -10   10.81    3.18
  -3   5  10    2.17    3.00
  -3  -5  10    3.83    4.60
  -3  -5  10    0.58    1.48
   3  -5 -10   29.64    7.97
   3   5 -10    0.97    3.65
   3   5  -9   63.10   11.60
  -3   5   9   72.75   10.65
   3  -5  -9   47.28    7.73
  -3  -5   9   70.72   10.54
  -3  -5   9   59.30   10.25
   3   5  -9   46.83    6.96
   3  -5  -9   82.32    8.62
   3   5  -8  125.13   17.35
  -3   5   8   98.64    9.74
   3  -5  -8   67.56    8.49
  -3  -5   8  102.11   10.13
  -3  -5   8   94.77   13.86
   3   5  -8   96.94    8.25
   3  -5  -8  127.67   10.50
   3   5  -8  108.99    8.42
   3   5  -7  133.19   12.00
  -3   5   7  150.25   15.16
   3  -5  -7  108.56    7.06
  -3  -5   7  126.40    8.70
   3  -5  -7  125.83   13.11
  -3  -5   7  123.75   12.96
   3   5  -7  128.00    5.87
   3  -5  -7  142.84   10.39
   3   5  -7  117.48    7.83
   3   5  -6   12.18    4.65
  -3   5   6   13.95    4.15
  -3  -5   6   19.07    5.49
   3  -5  -6   15.21    3.75
  -3  -5   6   11.35    3.09
   3   5  -6    9.19    2.79
   3  -5  -6   14.47    4.32
   3   5  -6   10.86    4.13
   3   5  -5  115.01   13.23
  -3   5   5  111.44    6.94
  -3  -5   5   81.10    8.41
   3  -5  -5  100.68   11.93
  -3  -5   5  112.37    8.15
   3   5  -5  105.34   25.39
   3  -5  -5  106.41    8.02
   3   5  -5  113.27    7.10
   3   5  -4   14.46    3.89
  -3   5   4   14.76    4.34
  -3  -5   4   30.90    7.52
   3  -5  -4   15.56    3.23
  -3  -5   4   23.17    4.88
   3  -5  -4   16.21    5.21
   3   5  -4   11.11    2.53
   3   5  -4   13.98    3.89
   3   5  -3   35.15    6.69
  -3   5   3   40.65    5.46
  -3  -5   3   41.48    6.17
   3  -5  -3   35.32    4.08
  -3  -5   3   32.70    9.09
   3  -5  -3   35.43    5.86
   3   5  -3   42.03    4.25
   3   5  -3   38.14    5.28
   3   5  -2   39.76    5.81
  -3   5   2   39.41    5.09
   3  -5  -2   38.93    4.02
  -3  -5   2   17.33    5.06
  -3  -5   2   41.36    6.93
   3  -5  -2   43.99    8.25
   3   5  -2   35.76    3.80
   3   5  -2   32.21    9.82
   3   5  -1  198.56   21.00
  -3   5   1  152.70    8.53
   3  -5  -1  187.38    7.34
  -3  -5   1  185.44    9.88
  -3  -5   1  180.57    7.29
   3  -5  -1  189.70   10.11
   3   5  -1  183.33    7.31
   3   5  -1  173.46    9.78
   3   5   0   12.81    4.12
  -3   5   0    0.23    2.28
   3  -5   0    6.95    1.96
  -3  -5   0    8.84    5.35
  -3  -5   0    5.04    1.97
   3  -5   0   13.37    5.05
   3   5   0    5.87    1.97
   3   5   0    6.42    3.72
   3   5   1  201.98   23.29
  -3   5  -1  224.40    9.75
   3  -5   1  211.39    8.09
  -3  -5  -1  217.40   13.03
  -3   5  -1  197.67    7.50
   3  -5   1  216.81   10.91
  -3  -5  -1  186.34    7.92
   3   5   1  187.57   13.66
   3   5   1  187.05    8.43
   3   5   2   10.39    3.15
  -3   5  -2    4.89    2.75
   3  -5   2    3.92    1.44
  -3  -5  -2    4.99    4.06
  -3   5  -2    5.45    1.36
   3  -5   2    4.14    3.88
  -3  -5  -2   11.10    3.03
   3   5   2    8.24    2.56
   3   5   2    7.39    2.59
   3   5   3   12.99    6.16
  -3   5  -3   14.52    3.48
   3  -5   3    8.04    2.53
   3  -5   3   11.59    2.90
  -3   5  -3    9.03    2.71
  -3  -5  -3   23.04    5.62
   3  -5   3   14.06    4.75
  -3  -5  -3   16.80    3.53
   3   5   3   17.89    3.68
   3   5   3    9.97    3.35
  -3  -5  -3   11.10    2.86
   3   5   4   11.35    3.44
  -3   5  -4    7.64    2.53
   3  -5   4    6.29    1.92
   3  -5   4    8.16    2.36
  -3   5  -4    6.60    1.65
  -3  -5  -4    0.31    3.41
   3  -5   4   14.96    4.72
  -3  -5  -4    3.69    1.70
   3   5   4    6.50    1.79
   3   5   4    8.36    2.27
  -3  -5  -4    6.85    2.03
   3   5   5  202.67   27.36
  -3   5  -5  237.50    9.71
   3  -5   5  198.35    7.96
   3  -5   5  215.29    8.84
  -3   5  -5  194.41    7.70
  -3  -5  -5  246.46   11.83
   3  -5   5  254.98   28.53
  -3  -5  -5  221.06    9.25
   3   5   5  211.79    8.61
   3   5   5  244.90    9.91
  -3  -5  -5  208.74    8.38
  -3   5  -5  231.21   11.46
   3   5   6   37.19    7.64
  -3   5  -6   40.21    9.82
   3  -5   6   26.09    4.98
   3  -5   6   39.81    6.92
  -3   5  -6   22.56    4.36
  -3  -5  -6   41.73    7.58
   3  -5   6   33.38    8.00
  -3  -5  -6   40.92    6.13
   3   5   6   29.28    4.48
   3   5   6   30.99    6.40
  -3  -5  -6   25.47    5.14
  -3   5  -6   42.44    7.44
  -3   5  -7  161.57    8.63
   3  -5   7  155.53    7.88
   3  -5   7  168.05   17.71
  -3   5  -7  133.31    7.34
  -3  -5  -7  230.05   13.83
   3  -5   7  184.99   12.36
  -3  -5  -7  199.40   10.69
   3   5   7  125.82   11.70
   3   5   7  185.37   14.95
  -3  -5  -7  155.82    8.62
  -3   5  -7  208.89   12.84
   3   5   8   16.37    4.32
  -3   5  -8   16.56    4.15
   3  -5   8   12.80    2.61
   3  -5   8   13.28    3.61
  -3  -5  -8    7.66    3.60
   3  -5   8    7.69    4.37
  -3  -5  -8   12.90    3.75
   3   5   8   14.86    3.17
  -3  -5  -8   15.54    3.38
  -3   5  -8   23.06    6.71
   3   5   9   12.55    3.90
  -3   5  -9    9.17    2.32
   3  -5   9    3.95    1.08
   3  -5   9    7.35    2.12
  -3  -5  -9   10.23    4.96
   3  -5   9    8.91    3.09
  -3  -5  -9   14.10    4.26
   3   5   9   15.20    3.55
  -3  -5  -9    9.61    2.32
  -3   5  -9   11.83    4.61
   3   5  10    3.81    4.79
  -3   5 -10    3.38    1.23
   3  -5  10    3.36    1.17
  -3  -5 -10    1.62    3.68
   3  -5  10   15.36    5.50
  -3  -5 -10    1.17    2.41
   3   5  10   -1.22    0.55
  -3   5 -10    1.01    2.66
  -3  -5 -10    1.17    0.55
  -3   5 -11   55.59    7.82
   3   5  11   57.67   10.65
  -3   5 -11   45.28    7.70
   3  -5  11   69.16   10.67
  -3  -5 -11   72.70   17.70
   3  -5  11   83.35   10.88
  -3  -5 -11   72.22   12.64
  -3   5 -11   82.61    8.83
   3   5  12  176.17   26.61
   3  -5  12  148.26   18.28
   3  -5  12  157.06   16.84
  -3  -5 -12  145.06   10.50
  -3   5 -12  161.54   13.91
   3   5  13  120.36   19.98
   3  -5  13  115.33   17.34
   3  -5  13  123.09   25.95
  -3  -5 -13  115.22    9.20
  -3   5 -13  149.05   13.44
   3   5  14   13.18    3.74
   3  -5  14    9.80    3.00
   3  -5  14    4.42    2.63
  -3  -5 -14    7.04    5.57
  -3   5 -14   21.04    7.81
   3   5  15   40.09    8.18
   3  -5  15   29.72    6.19
   3  -5  15   41.88    9.30
  -3  -5 -15   20.63    4.91
  -3   5 -15   36.26    7.93
   3   5  16   27.28    7.63
   3  -5  16   17.06    5.56
   3  -5  16   13.68    5.70
  -3  -5 -16   27.88    6.48
  -3   5 -16   16.99    6.87
   3   5  17   11.93    5.86
   3  -5  17    9.17    4.34
   3  -5  17    7.11    2.51
  -3  -5 -17    5.43    3.38
  -3   5 -17   12.97    6.57
   3   5  18   11.12    4.65
   3  -5  18   14.19    5.20
   3  -5  18   18.22    5.51
  -3  -5 -18   17.38    5.40
  -3   5 -18   26.11    7.19
   3   5  19   12.17    4.06
   3  -5  19   23.46    6.84
   3  -5  19   10.55    5.23
  -3  -5 -19   22.00    8.41
  -3   5 -19   33.27    7.55
   3   5  20    2.64    2.16
   3  -5  20   -0.59    3.38
   3  -5  20    7.44    3.33
  -3  -5 -20   -0.07    3.27
  -3   5 -20   13.69    6.90
   3   5  21   67.36   16.25
   3  -5  21   49.40   10.64
  -3  -5 -21   74.94   13.52
  -3   5 -21   62.79   12.22
  -3   5 -21   34.14    8.81
   3   5  22    9.08    3.96
   3  -5  22   26.62    6.04
  -3  -5 -22   20.03    5.91
  -3   5 -22   26.99    7.67
  -3   5 -22   40.01    9.10
   3   5  23   54.02   14.02
   3  -5  23   36.35    9.18
  -3  -5 -23   59.96   11.75
  -3   5 -23   64.10   13.42
  -3   5 -23   36.02   10.42
   3   5  24    1.94    3.32
   3  -5  24    4.58    2.56
  -3  -5 -24   12.55    5.08
  -3   5 -24    5.18    5.49
  -3   5 -24    6.60    2.27
   3   5  25    2.99    1.60
   3  -5  25    6.16    2.85
  -3  -5 -25    9.49    4.58
  -3   5 -25    7.89    6.10
  -3   5 -25    8.74    4.35
   3   5  26    3.08    1.87
   3  -5  26   13.05    6.34
  -3  -5 -26   13.60    6.74
  -3   5 -26   13.32    7.00
  -3   5 -26   11.57    4.63
   3   5  27   13.97    4.81
   3  -5  27    2.87    2.95
  -3  -5 -27   20.34    8.67
  -3   5 -27    9.57    5.75
  -3   5 -27   19.36    7.80
  -3   6  29    9.66    3.74
  -3  -6  29   10.33    5.34
   3  -6 -29   11.97    6.99
   3   6 -29    5.41    4.22
   3   6 -29    6.50    4.36
  -3   6  28   -0.27    4.33
  -3  -6  28    8.34    5.21
   3  -6 -28   20.31    9.61
   3   6 -28    9.32    5.89
   3   6 -28   14.05    6.46
  -3   6  27    0.45    4.04
  -3  -6  27    7.59    4.16
   3  -6 -27   19.23    9.63
   3   6 -27    3.42    3.48
   3   6 -27   13.26    6.31
  -3   6  26   14.47    7.08
  -3  -6  26   11.14    4.82
   3  -6 -26   15.54    7.99
   3   6 -26   11.65    5.04
   3   6 -26   24.91   10.23
  -3   6  25   12.13    6.94
  -3  -6  25    6.42    2.68
   3  -6 -25   13.86    8.86
   3   6 -25    7.69    5.10
   3   6 -25    2.88    4.07
  -3   6  24    5.10    4.67
  -3  -6  24   14.82    4.96
   3  -6 -24   21.35    8.74
   3   6 -24   15.57    5.95
   3   6 -24   22.62    6.79
  -3   6  23    7.28    4.61
  -3  -6  23    2.05    3.86
   3  -6 -23   11.33    4.77
   3   6 -23    3.72    3.47
   3   6 -23    7.21    6.30
  -3   6  22   13.78    6.07
  -3  -6  22   -1.06    3.76
   3  -6 -22   12.55    5.53
   3   6 -22    4.66    3.42
   3   6 -22    7.31    3.14
  -3   6  21   15.22    6.78
  -3  -6  21    3.22    1.79
  -3  -6  21    1.32    4.59
   3  -6 -21    7.55    4.50
   3   6 -21    2.26    3.51
   3   6 -21    2.49    2.39
  -3   6  20   62.84   11.51
  -3  -6  20   43.95    6.09
  -3  -6  20   70.52   10.84
   3  -6 -20   43.35    8.57
   3   6 -20   30.44    6.43
   3   6 -20   44.01   10.64
  -3   6  19   -0.21    4.02
  -3  -6  19    6.64    3.18
  -3  -6  19   10.34    5.17
   3  -6 -19    8.04    4.57
   3   6 -19    2.58    3.04
   3   6 -19    3.01    2.76
  -3   6  18  175.74   15.58
  -3  -6  18  109.08    9.28
  -3  -6  18  120.70   12.50
   3  -6 -18  129.31   12.87
   3   6 -18  118.00   16.00
   3   6 -18  124.60   13.75
  -3   6  17    9.69    4.51
  -3  -6  17   13.64    4.25
  -3  -6  17   10.62    4.82
   3  -6 -17   -0.51    4.59
   3   6 -17    8.34    2.43
   3   6 -17    9.53    4.87
  -3  -6  16   29.10    6.77
  -3  -6  16   46.84    8.17
   3  -6 -16   31.86    6.92
   3   6 -16   49.96    9.02
   3   6 -16   58.72    7.82
  -3   6  15    6.49    3.85
  -3  -6  15    6.50    3.28
  -3  -6  15    7.05    4.13
   3  -6 -15    6.69    4.40
   3   6 -15    8.93    3.28
   3   6 -15   14.65    6.80
  -3   6  14   83.87    9.60
  -3  -6  14   51.65    7.20
   3  -6 -14   44.07    9.62
   3   6 -14   56.33    6.33
   3   6 -14   65.45    9.50
  -3   6  13   14.58    6.73
  -3  -6  13   21.32    6.21
   3  -6 -13   17.07    5.64
   3   6 -13    2.94    2.20
   3   6 -13    7.12    3.95
   3   6 -12  155.25   19.26
  -3   6  12  177.72   13.95
  -3  -6  12  148.67   11.92
  -3  -6  12  177.74   14.60
   3  -6 -12  129.25   11.64
   3   6 -12  181.91   13.79
   3   6 -11   89.01   10.16
  -3   6  11   74.43   12.22
  -3  -6  11   71.75    8.22
  -3  -6  11   86.41   13.66
   3  -6 -11   44.49    8.14
   3   6 -11   77.74   10.90
   3   6 -10   85.92   12.80
  -3   6  10   85.19    8.87
  -3  -6  10   83.39    8.17
   3  -6 -10   87.30    6.95
  -3  -6  10   90.04   10.56
   3  -6 -10   64.26    9.73
   3   6 -10  109.21   15.81
   3   6  -9   25.77    6.93
  -3   6   9   21.18    6.09
  -3  -6   9   25.75    6.96
   3  -6  -9   29.76    4.91
  -3  -6   9   24.55    5.87
   3  -6  -9   35.22    7.32
   3   6  -9   31.82    6.95
   3   6  -8   23.30    5.73
  -3   6   8   33.35    7.51
  -3  -6   8   34.94    6.40
   3  -6  -8   19.91    4.85
  -3  -6   8   18.95    5.81
   3  -6  -8   36.21    6.77
   3   6  -8   32.54    6.22
   3   6  -7   31.33    8.37
  -3   6   7   16.82    4.42
  -3  -6   7   33.32    6.61
   3  -6  -7   34.21    6.40
  -3  -6   7   36.62    5.70
   3  -6  -7   24.85    6.26
   3   6  -7   33.97    8.83
   3   6  -6  104.05   13.19
  -3   6   6   86.29    7.16
  -3  -6   6   85.22    7.53
   3  -6  -6   92.93    6.46
  -3  -6   6   75.57   14.44
   3   6  -6   67.38    8.98
   3  -6  -6   95.74    8.43
   3   6  -6  101.87   15.47
   3   6  -5   68.83   11.12
  -3   6   5   68.81   10.02
  -3  -6   5   49.44    7.91
   3  -6  -5   72.16   11.39
  -3  -6   5   64.45   11.32
   3  -6  -5   64.23    9.93
   3   6  -5   49.53    6.78
   3   6  -5   57.65   10.65
   3   6  -4  251.56   29.30
  -3   6   4  278.71   14.89
  -3  -6   4  273.34   15.34
   3  -6  -4  233.54   11.72
  -3  -6   4  247.65   19.14
   3  -6  -4  235.41   13.68
   3   6  -4  211.28   10.57
   3   6  -4  238.70   19.79
   3   6  -3   66.36   12.80
  -3   6   3   48.33    7.61
  -3  -6   3   40.13    6.97
   3  -6  -3   55.38    7.73
  -3  -6   3   53.74    9.35
   3  -6  -3   49.34    7.95
   3   6  -3   45.81    6.31
   3   6  -3   40.49    7.30
   3   6  -2   83.69   12.15
  -3   6   2   77.75   12.29
   3  -6  -2   88.10    5.75
  -3  -6   2   80.55    7.05
  -3  -6   2   85.60   11.17
   3  -6  -2   83.24    7.45
   3   6  -2   59.32    8.58
   3   6  -2   81.97    6.58
   3   6  -1   32.02    7.60
  -3   6   1   31.11    6.78
   3  -6  -1   25.01    5.04
  -3  -6   1   20.96    5.70
  -3  -6   1   26.92    4.62
   3  -6  -1   18.61    5.29
   3   6  -1   28.50    4.71
   3   6  -1   30.04    5.61
   3   6   0    6.94    3.50
  -3   6   0   11.51    4.16
   3  -6   0    9.70    2.70
  -3  -6   0   23.70    6.84
  -3  -6   0   23.16    4.87
   3  -6   0   10.19    4.45
   3   6   0   10.80    2.52
   3   6   0   16.42    4.42
   3   6   1    4.71    2.42
  -3   6  -1   13.85    4.58
   3  -6   1    3.01    2.31
  -3  -6  -1    2.46    3.74
  -3   6  -1    6.15    2.43
   3  -6   1    5.05    3.35
  -3  -6  -1    4.05    1.65
   3   6   1   10.14    2.74
   3   6   1    8.69    3.03
   3   6   2  178.49   22.95
  -3   6  -2  159.21   13.76
   3  -6   2  160.64    8.50
  -3  -6  -2  158.67   10.35
  -3   6  -2  134.77    9.68
   3  -6   2  157.55   10.70
  -3  -6  -2  151.20   10.50
   3   6   2  135.86    8.19
   3   6   2  162.99   19.36
   3   6   3   16.49    4.65
  -3   6  -3   16.43    3.91
   3  -6   3   14.21    3.51
  -3  -6  -3   10.14    3.82
  -3   6  -3   10.68    2.70
   3  -6   3   13.46    4.46
  -3  -6  -3   11.23    3.10
   3   6   3    7.50    2.72
   3   6   3   19.25    5.24
  -3   6  -3   32.89    6.91
   3   6   4  143.40   19.73
  -3   6  -4  129.74   12.73
   3  -6   4  118.89   13.16
  -3   6  -4   83.63    8.26
  -3  -6  -4  140.11   10.23
   3  -6   4  132.21    8.95
  -3  -6  -4  141.83    8.04
   3   6   4   75.74   16.60
   3   6   4  115.41    7.25
  -3   6  -4  169.09   11.21
   3   6   5   66.13   10.26
  -3   6  -5   75.83    6.08
   3  -6   5   66.86   11.11
  -3   6  -5   56.28    7.12
  -3  -6  -5   82.98    8.39
   3  -6   5   67.87   11.75
  -3  -6  -5   79.71    6.37
   3   6   5   75.42    9.71
  -3   6  -5   65.30    9.85
   3   6   6    9.06    2.99
  -3   6  -6    4.88    3.08
   3  -6   6   -0.62    1.21
   3  -6   6    4.60    2.57
  -3  -6  -6   15.15    6.69
   3  -6   6    5.79    3.07
  -3  -6  -6    4.12    1.71
   3   6   6    1.66    1.37
  -3  -6  -6    7.52    2.62
  -3   6  -6    7.25    4.11
   3   6   7   12.47    4.50
  -3   6  -7   25.46    5.84
   3  -6   7    9.69    2.49
   3  -6   7   26.89    6.38
  -3  -6  -7   19.77    5.75
   3  -6   7   24.26    7.30
  -3  -6  -7   21.31    5.58
   3   6   7   15.58    3.95
  -3  -6  -7   16.35    3.89
  -3   6  -7   37.07    7.75
  -3   6  -8   37.67    8.45
   3  -6   8   30.86    4.86
   3  -6   8   38.05    6.01
  -3  -6  -8   41.61    7.72
   3  -6   8   46.89    9.87
  -3  -6  -8   35.61    6.24
   3   6   8   37.02    7.39
  -3   6  -8   27.80    7.32
  -3  -6  -8   27.50    4.35
   3   6   9   32.50    8.36
  -3   6  -9   23.33    5.15
   3  -6   9   17.38    3.89
   3  -6   9   37.28    8.24
  -3  -6  -9   26.95    6.67
   3  -6   9   29.70    7.20
  -3  -6  -9   20.98    4.74
   3   6   9   35.21    6.43
  -3   6  -9   30.83    7.14
  -3  -6  -9   19.65    5.19
   3   6  10   51.07    9.68
  -3   6 -10   37.39    7.42
   3  -6  10   41.26    5.88
   3  -6  10   47.62    8.41
  -3  -6 -10   53.03    9.01
   3  -6  10   43.10   11.37
  -3  -6 -10   49.97    8.82
   3   6  10   38.78    7.55
  -3   6 -10   60.17    8.41
   3  -6  11    0.15    0.52
   3  -6  11   82.32   12.23
   3  -6  11   78.82   13.84
  -3   6 -12   16.01    4.36
   3   6  12   32.12    7.80
   3  -6  12   24.00    5.12
  -3  -6 -12   13.48    6.93
   3  -6  12   24.05    9.97
  -3  -6 -12   45.27    9.02
  -3   6 -12   42.29    9.35
   3   6  13    4.67    4.28
   3  -6  13    6.20    3.72
   3  -6  13    8.68    3.58
  -3  -6 -13   10.45    4.82
  -3   6 -13    7.74    4.82
   3   6  14   10.52    4.49
   3  -6  14    4.45    1.91
  -3  -6 -14    2.26    4.19
   3  -6  14    8.28    3.93
  -3  -6 -14    3.04    4.28
  -3   6 -14   12.13    6.47
   3   6  15   21.37    5.73
   3  -6  15   18.78    4.36
  -3  -6 -15   12.98    4.50
   3  -6  15   20.07    6.42
  -3  -6 -15   19.64    5.22
  -3   6 -15   21.01    5.33
   3   6  16  118.87   18.57
   3  -6  16  128.72   20.10
   3  -6  16   89.95   16.57
  -3  -6 -16  111.24   11.98
  -3   6 -16  118.45   25.41
   3   6  17   14.34    5.88
   3  -6  17   36.50    8.55
   3  -6  17   41.62   10.31
  -3  -6 -17   21.15    9.57
  -3   6 -17   25.48    6.08
   3   6  18   21.46    6.56
   3  -6  18   30.98    6.77
   3  -6  18    8.01    3.81
  -3  -6 -18   30.50    6.07
  -3   6 -18   54.43   10.67
   3   6  19   -4.19    3.83
   3  -6  19    8.68    4.71
   3  -6  19    6.89    2.80
  -3  -6 -19   14.66    6.18
  -3   6 -19    9.91    4.52
   3   6  20    7.91    3.75
   3  -6  20    4.07    3.42
   3  -6  20    9.64    4.07
  -3  -6 -20    5.64    3.55
  -3   6 -20    3.73    3.96
   3   6  21   11.58    5.37
   3  -6  21   14.13    5.59
   3  -6  21   14.44    6.40
  -3  -6 -21   13.95    6.24
  -3   6 -21    9.64    7.04
   3   6  22   58.48   14.82
   3  -6  22   37.95    9.47
  -3  -6 -22   58.11   11.86
  -3   6 -22   73.16   22.30
  -3   6 -22   61.73   12.97
   3   6  23   -0.35    4.07
   3  -6  23    8.74    3.37
  -3  -6 -23   -1.07    3.39
  -3   6 -23   12.75    7.77
  -3   6 -23    7.45    2.98
   3   6  24   15.44    5.79
   3  -6  24   14.18    4.69
  -3  -6 -24   19.40    6.57
  -3   6 -24    2.12    4.32
  -3   6 -24    5.89    4.08
   3   6  25   17.72    6.99
   3  -6  25   20.60    8.55
  -3  -6 -25    4.91    4.11
  -3   6 -25    9.92    6.02
  -3   6 -25    3.93    4.03
   3  -6  26   15.55    5.71
  -3  -6 -26    0.75    4.00
  -3   6 -26   12.80    8.55
  -3   6 -26    2.43    3.55
  -3   7  27    6.23    4.92
   3  -7 -27    9.91    5.91
   3   7 -27    2.85    3.69
   3   7 -27   11.42    6.78
  -3   7  26   -5.93    4.37
   3  -7 -26   11.16    6.32
   3   7 -26    7.29    5.34
   3   7 -26    6.11    5.02
  -3   7  25   19.59    7.77
   3  -7 -25   -0.75    5.55
   3   7 -25    3.38    3.59
   3   7 -25    4.26    4.89
  -3   7  24    3.57    4.78
   3  -7 -24   16.14    8.16
   3   7 -24    0.54    3.52
   3   7 -24    7.19    4.65
  -3   7  23   13.82    7.22
   3   7 -23    0.50    3.23
   3   7 -23   15.70    6.58
  -3   7  22    5.26    3.95
   3  -7 -22   18.59    7.90
   3   7 -22    8.52    4.18
   3   7 -22   19.45   10.82
  -3   7  21    1.01    4.08
  -3  -7  21    6.69    5.13
   3  -7 -21    8.07    5.28
   3   7 -21   -0.26    3.19
   3   7 -21   12.45    2.56
  -3   7  20   52.55   10.83
   3  -7 -20   34.73    8.00
   3   7 -20   26.27    6.27
   3   7 -20   30.20    7.90
  -3   7  19    6.47    4.37
  -3  -7  19    5.24    2.74
   3  -7 -19    2.70    4.19
   3   7 -19    3.01    2.46
   3   7 -19   12.22    6.83
  -3   7  18   10.41    6.12
  -3  -7  18    3.45    2.40
   3   7 -18   -1.77    2.66
   3   7 -18   11.78    5.33
  -3   7  17    7.75    4.70
  -3  -7  17    4.13    2.40
   3  -7 -17    4.59    4.72
   3   7 -17   11.02    3.60
   3   7 -17   25.78    8.36
  -3   7  16   40.99    8.10
  -3  -7  16   36.47    5.64
   3  -7 -16   51.75    8.40
   3   7 -16   30.78    5.19
   3   7 -16   29.69    6.84
  -3   7  15    3.77    4.89
  -3  -7  15    4.90    4.20
   3  -7 -15   15.64    7.84
   3   7 -15    6.48    3.18
   3   7 -15    3.83    4.69
  -3   7  14  101.57   15.46
  -3  -7  14   73.03   10.55
  -3  -7  14   77.33   13.19
   3  -7 -14   83.29   10.01
   3   7 -14   88.08   15.37
   3   7 -13   10.23    3.98
  -3   7  13   28.94    7.71
  -3  -7  13    9.36    4.12
   3  -7 -13    8.18    3.88
  -3  -7  13   -1.72    2.33
   3  -7 -13   15.77    7.12
   3   7 -13    1.92    2.95
   3   7 -12   85.52   15.64
  -3   7  12  105.20    9.47
  -3  -7  12   89.27    8.35
   3  -7 -12   76.94    7.42
  -3  -7  12   84.35   11.66
   3  -7 -12   88.13    9.31
   3   7 -11   12.07    4.14
  -3   7  11   22.79    6.75
  -3  -7  11   26.71    6.84
   3  -7 -11   13.11    4.74
  -3  -7  11   11.64    3.93
   3  -7 -11   20.12    7.33
   3   7 -11    8.45    4.74
   3   7 -10    9.99    4.21
  -3   7  10   13.82    5.73
  -3  -7  10   17.58    5.84
   3  -7 -10   25.66    5.98
  -3  -7  10   14.07    4.27
   3  -7 -10   15.76    6.69
   3   7 -10   28.74    6.78
   3   7  -9   44.35    8.93
  -3   7   9   33.42   10.09
  -3  -7   9   27.86    6.86
   3  -7  -9   39.65    8.43
  -3  -7   9   38.10    8.56
   3  -7  -9   43.81    9.62
   3   7  -9   45.24   11.46
   3   7  -8  176.90   14.22
  -3   7   8  212.01   27.48
  -3  -7   8  190.01   14.50
   3  -7  -8  153.54   11.09
  -3  -7   8  177.68   17.96
   3  -7  -8  199.94   16.53
   3   7  -8  160.93   17.23
   3   7  -7   12.05    3.94
  -3   7   7    2.75    3.82
  -3  -7   7   14.15    4.36
   3  -7  -7    7.34    2.87
  -3  -7   7    4.46    2.34
   3  -7  -7    4.41    4.30
   3   7  -7    7.10    5.36
   3   7  -6  119.12   18.45
  -3   7   6  119.07   23.75
  -3  -7   6  125.40   11.10
   3  -7  -6  123.62   17.87
  -3  -7   6  103.93   14.59
   3  -7  -6  106.98   10.47
   3   7  -6  129.19   15.10
   3   7  -5   25.76    5.93
  -3   7   5   10.33    4.30
  -3  -7   5   22.08    5.85
   3  -7  -5   16.96    4.75
  -3  -7   5   13.50    4.86
   3  -7  -5   17.97    6.81
   3   7  -5   25.02    6.22
   3   7  -4   28.42    8.15
  -3   7   4   28.17    7.75
  -3  -7   4   36.32    7.32
   3  -7  -4   31.45    5.56
  -3  -7   4   31.28    6.53
   3  -7  -4   33.59    7.25
   3   7  -4   28.10    7.34
   3   7  -3   27.68    8.09
  -3   7   3   41.60    8.17
  -3  -7   3   33.03    6.55
   3  -7  -3   25.13    5.96
  -3  -7   3   25.40    6.21
   3  -7  -3   47.31    8.80
   3   7  -3   19.64    5.77
   3   7  -2   82.24   11.17
  -3   7   2   67.92   13.48
   3  -7  -2   75.28    6.12
  -3  -7   2   80.77    8.02
  -3  -7   2   72.00   15.88
   3  -7  -2   94.82    9.11
   3   7  -2   80.55   11.44
   3   7  -1    1.54    3.32
  -3   7   1   -4.75    2.80
   3  -7  -1    7.02    2.75
  -3  -7   1   13.95    5.90
  -3  -7   1    4.84    2.46
   3  -7  -1    0.55    3.76
   3   7  -1    5.57    2.31
  -3   7   1    1.74    3.79
   3   7   0  273.20   28.15
  -3   7   0  326.21   20.93
   3  -7   0  329.74   20.45
  -3  -7   0  309.47   21.19
  -3  -7   0  294.95   18.32
   3  -7   0  299.76   20.10
   3   7   0  286.08   21.85
  -3   7   0  331.81   22.22
   3   7   1    1.01    2.17
  -3   7  -1    4.16    3.18
   3  -7   1    2.46    2.08
  -3  -7  -1    4.91    5.52
  -3   7  -1    1.83    1.35
   3  -7   1    3.98    3.66
  -3  -7  -1    6.11    3.35
   3   7   1   -0.49    2.71
  -3   7  -1    6.40    3.32
   3   7   2   46.29    8.47
  -3   7  -2   42.57    7.47
   3  -7   2   46.40    7.11
  -3  -7  -2   53.97    9.17
   3  -7   2   21.54    4.91
  -3  -7  -2   45.89    7.20
   3   7   2   59.09    6.55
  -3   7  -2   50.33    8.86
   3   7   3   43.60    9.34
  -3   7  -3   44.93    7.40
   3  -7   3   38.95    6.64
  -3  -7  -3   34.45   10.17
   3  -7   3   47.14    8.70
  -3  -7  -3   34.03    5.94
   3   7   3   40.74    7.36
  -3   7  -3   37.00    6.79
   3   7   4    9.78    4.71
  -3   7  -4   16.97    4.90
   3  -7   4   12.15    3.85
  -3  -7  -4   14.66    5.55
   3  -7   4    2.35    3.80
  -3  -7  -4    9.08    3.27
   3   7   4   17.65    5.02
  -3   7  -4   20.80    6.00
   3   7   5   13.26    4.61
  -3   7  -5    6.86    3.26
   3  -7   5    8.53    3.04
  -3  -7  -5    9.48    4.42
   3  -7   5   11.99    4.40
  -3  -7  -5    8.89    3.51
   3   7   5   14.71    4.27
  -3   7  -5   37.98    8.54
   3   7   6   85.36   14.35
  -3   7  -6   73.13   12.88
   3  -7   6   84.71    8.02
  -3  -7  -6   79.60    8.83
   3  -7   6   95.06   14.81
  -3  -7  -6   86.18    7.92
   3   7   6   80.78    7.26
  -3   7  -6   84.85   10.12
   3   7   7   19.20    5.86
  -3   7  -7   50.40    7.59
   3  -7   7   13.91    4.46
  -3  -7  -7   13.28    5.31
   3  -7   7   20.56    6.23
  -3  -7  -7    4.83    2.35
   3   7   7   14.62    4.29
  -3   7  -7   14.55    5.36
   3   7   8   47.03   11.21
  -3   7  -8   40.58    7.38
   3  -7   8   43.36   10.56
  -3  -7  -8   46.55   10.66
   3  -7   8   48.86   12.83
  -3  -7  -8   37.62    7.40
   3   7   8   39.03    8.29
  -3   7  -8   45.98   10.62
   3   7   9    8.92    3.93
  -3   7  -9    3.61    1.47
   3  -7   9    6.45    3.03
  -3  -7  -9   19.40    6.68
   3  -7   9   12.00    4.04
  -3  -7  -9    3.89    2.35
   3   7   9    6.28    2.23
  -3   7  -9    7.75    5.39
  -3   7 -10    2.37    1.07
   3  -7  10    4.41    1.71
  -3  -7 -10    4.50    2.73
   3  -7  10    4.35    5.80
  -3  -7 -10   -0.99    2.07
  -3   7 -10    7.74    4.99
   3   7  11   95.12   14.64
  -3   7 -11   42.23    9.62
   3  -7  11   71.49   12.26
  -3  -7 -11   95.35   10.98
   3  -7  11   82.50   14.85
  -3  -7 -11   65.05    5.96
   3   7  11   48.96    7.33
  -3   7 -11   57.22    9.73
   3   7  12   33.82    8.42
   3  -7  12   29.25    6.72
  -3  -7 -12   33.27    8.74
   3  -7  12   40.72    8.22
  -3  -7 -12   38.79    5.37
  -3   7 -12   52.54    9.29
   3   7  13   33.65    7.92
   3  -7  13   20.82    5.21
  -3  -7 -13   37.04    9.21
   3  -7  13   36.41   11.15
  -3  -7 -13   17.93    4.98
  -3   7 -13   16.58    5.59
   3   7  14   16.44    7.18
   3  -7  14    4.02    2.44
  -3  -7 -14    7.98    4.37
   3  -7  14    6.16    2.29
  -3  -7 -14    7.06    2.88
  -3   7 -14   12.86    5.53
   3   7  15    1.86    3.55
   3  -7  15    2.33    2.64
  -3  -7 -15    8.01    4.12
   3  -7  15    8.24    3.04
  -3  -7 -15   12.12    5.31
  -3   7 -15   10.51    4.34
   3   7  16   -2.18    3.18
   3  -7  16    2.01    1.85
  -3  -7 -16   -3.24    3.94
   3  -7  16   14.77   10.45
  -3  -7 -16    8.21    4.69
  -3   7 -16    0.70    4.89
   3   7  17    7.35    3.31
   3  -7  17    3.17    1.76
  -3  -7 -17   10.31    6.08
   3  -7  17   10.73    4.49
  -3  -7 -17   12.54    6.21
  -3   7 -17    6.01    4.67
   3   7  18    7.49    3.10
   3  -7  18    7.03    4.62
  -3  -7 -18   -2.80    4.03
   3  -7  18   16.82    4.88
  -3  -7 -18   13.84    7.65
  -3   7 -18   -2.76    3.97
   3   7  19    9.78    4.56
   3  -7  19    8.59    3.14
  -3  -7 -19   17.34    6.99
   3  -7  19   10.69    5.52
  -3  -7 -19    2.94    2.50
  -3   7 -19   12.22    5.69
   3   7  20   15.12    4.93
   3  -7  20   11.51    6.65
  -3  -7 -20   13.69    4.24
   3  -7  20    7.50    5.61
  -3  -7 -20    7.14    3.19
  -3   7 -20   12.28    6.06
   3   7  21   12.21    4.52
   3  -7  21    5.86    3.13
  -3  -7 -21    8.67    6.78
   3  -7  21   -0.04    4.43
  -3  -7 -21    2.81    1.76
  -3   7 -21   22.86    8.11
   3   7  22   20.08    7.04
   3  -7  22    5.81    2.58
   3  -7  22   14.47    8.98
  -3  -7 -22    4.23    4.14
  -3   7 -22   17.33    7.80
   3   7  23   -1.37    4.03
   3  -7  23   12.29    4.71
  -3  -7 -23   -4.08    3.75
  -3   7 -23    1.28    5.83
  -3   7 -23    6.41    5.46
   3   7  24    5.48    2.59
   3  -7  24    3.67    1.98
  -3  -7 -24    4.07    3.74
  -3   7 -24   10.83    6.21
  -3   7 -24   -0.58    4.49
   3   7  25    9.48    3.96
   3  -7  25   10.32    5.28
  -3  -7 -25   28.28   10.49
  -3   7 -25    4.99    6.09
  -3   7 -25    2.52    4.00
  -3   8  25    2.30    5.35
  -3  -8  25    4.80    3.81
   3  -8 -25   12.11    6.22
   3   8 -25    7.58    4.06
   3   8 -25    8.34    5.23
  -3   8  24   15.07    7.57
  -3  -8  24    6.15    3.96
   3  -8 -24   10.80    6.02
   3   8 -24    0.43    3.43
   3   8 -24    5.81    4.73
  -3   8  23    6.61    4.78
  -3  -8  23    6.90    5.10
   3  -8 -23   -3.60    4.99
   3   8 -23   15.85    7.27
   3   8 -23    3.47    3.36
  -3   8  22    1.32    4.95
  -3  -8  22   12.63    5.83
   3  -8 -22   12.58    7.38
   3   8 -22    2.60    2.83
   3   8 -22   11.10    6.26
  -3   8  21    9.75    5.39
  -3  -8  21    4.42    4.67
   3  -8 -21    8.57    6.98
   3   8 -21    7.14    3.65
   3   8 -21    9.79    5.64
  -3   8  20   16.94    6.86
  -3  -8  20    7.87    5.32
   3  -8 -20    8.92    5.66
   3   8 -20    9.45    5.04
   3   8 -20   14.64    7.81
  -3  -8  19    9.72    5.95
   3  -8 -19   19.39    7.71
   3   8 -19   14.89    5.54
   3   8 -19   11.80    7.16
  -3   8  18   -1.09    3.96
  -3  -8  18    5.75    2.39
  -3  -8  18   21.74    8.08
   3  -8 -18   15.60    5.76
   3  -8 -18    6.32    4.92
   3   8 -18    6.36    2.75
   3   8 -18    6.45    2.77
  -3   8  17   12.38    6.41
  -3  -8  17    2.32    2.03
  -3  -8  17   20.41    7.59
   3  -8 -17    7.64    4.20
   3  -8 -17   14.50    5.78
   3   8 -17   20.86    6.20
   3   8 -17   41.02   10.82
  -3   8  16   19.00    7.43
  -3  -8  16   31.68    9.11
   3  -8 -16   10.78    4.11
   3  -8 -16   18.79    8.22
   3   8 -16   18.70    6.46
   3   8 -16   21.51    6.88
  -3   8  15   24.93    7.58
  -3  -8  15    4.31    4.31
   3  -8 -15    8.64    4.52
  -3  -8  15    4.69    1.82
   3  -8 -15    9.23    5.30
   3   8 -15   -3.63    4.57
   3   8 -14    6.57    2.94
  -3   8  14    5.40    4.89
  -3  -8  14   13.27    6.52
   3  -8 -14   15.88    5.51
  -3  -8  14    6.17    5.64
   3  -8 -14   11.24    6.88
   3   8 -14    4.88    3.42
   3   8 -13   15.08    5.73
  -3   8  13   15.81    5.85
  -3  -8  13   17.22    6.42
   3  -8 -13   18.73    5.62
  -3  -8  13   11.67    4.40
   3  -8 -13   10.48    6.81
   3   8 -13   29.00    6.95
   3   8 -12   19.10    5.37
  -3   8  12   17.88    7.82
  -3  -8  12   11.41    4.65
   3  -8 -12    5.58    4.00
  -3  -8  12   12.17    3.43
   3  -8 -12   13.94    5.72
   3   8 -12    7.97    3.80
   3   8 -11   23.76    5.90
  -3   8  11   30.77    8.29
  -3  -8  11   16.05    5.92
   3  -8 -11   25.46    5.81
  -3  -8  11   23.70    5.79
   3  -8 -11   10.72    5.10
   3   8 -11   31.15    9.29
   3   8 -10   13.53    3.80
  -3   8  10    8.59    5.67
  -3  -8  10   13.24    5.62
   3  -8 -10   13.13    4.87
  -3  -8  10   24.38    5.52
   3  -8 -10   19.24    7.26
   3   8 -10   16.48    4.66
   3   8  -9    7.53    2.33
  -3   8   9    9.83    4.06
  -3  -8   9   34.07    7.91
   3  -8  -9    1.38    2.52
  -3  -8   9    4.88    2.09
   3  -8  -9   13.63    6.68
   3   8  -9   10.44    3.91
   3   8  -8   28.67    7.52
  -3   8   8   10.32    6.18
  -3  -8   8   40.96    8.97
   3  -8  -8   20.84    5.83
  -3  -8   8   33.67    6.74
   3  -8  -8   29.18    7.46
   3   8  -8   40.55   10.48
   3   8  -7    0.49    3.57
  -3   8   7    7.46    4.12
  -3  -8   7   11.13    4.68
   3  -8  -7    2.26    2.10
  -3  -8   7    4.62    2.17
   3  -8  -7    7.97    5.53
   3   8  -7    5.21    2.73
   3   8  -6   13.12    5.18
  -3   8   6    6.50    4.28
  -3  -8   6    1.72    4.03
   3  -8  -6    0.42    2.02
  -3  -8   6    4.74    1.80
   3  -8  -6    6.32    3.30
   3   8  -6   13.48    4.30
  -3   8   6   -2.59    3.31
   3   8  -5   36.58    8.89
  -3   8   5   30.08    6.75
  -3  -8   5   41.30    8.15
   3  -8  -5   39.15    6.76
  -3  -8   5   32.93    8.94
   3  -8  -5   38.62    8.39
   3   8  -5   39.72    8.03
  -3   8   5   42.07    8.83
   3   8  -4   56.55   12.09
  -3   8   4   49.02    7.09
  -3  -8   4   82.31    9.90
   3  -8  -4   57.14    5.21
  -3  -8   4   59.53    8.02
   3  -8  -4   87.72   10.75
   3   8  -4   62.88    7.40
  -3   8   4   96.79   12.26
   3   8  -3   21.22    7.18
  -3   8   3   14.27    4.77
  -3  -8   3   24.72    6.47
   3  -8  -3   20.47    4.90
  -3  -8   3   22.51    5.43
   3  -8  -3   33.30    8.89
   3   8  -3   22.38    6.46
  -3   8   3   12.22    5.00
   3   8  -2   24.35    6.34
  -3   8   2   26.98    6.51
   3  -8  -2   27.53    5.84
  -3  -8   2   19.14    6.19
  -3  -8   2   13.47    3.84
   3  -8  -2   31.78    7.91
   3   8  -2   24.01    5.38
  -3   8   2   12.94    4.47
   3   8  -1   -2.79    3.71
  -3   8   1    5.56    3.61
   3  -8  -1    2.50    3.69
  -3  -8   1   26.04    8.83
  -3  -8   1   -1.83    1.83
   3  -8  -1   -1.46    4.35
   3   8  -1   -0.11    3.36
  -3   8   1   15.74    5.44
   3   8   0   17.10    5.89
  -3   8   0   21.61    5.54
   3  -8   0   20.75    4.44
  -3  -8   0   36.66    8.01
  -3  -8   0   13.60    3.56
   3  -8   0   23.32    6.51
   3   8   0   15.99    5.28
  -3   8   0    6.21    4.38
   3   8   1   26.83    8.24
  -3   8  -1   18.18    5.16
   3  -8   1   15.30    4.16
  -3  -8  -1   25.47    5.61
   3  -8   1   21.25    6.16
  -3  -8  -1   17.59    4.79
   3   8   1   13.38    5.25
  -3   8  -1   23.28    6.73
   3   8   2    1.41    1.68
  -3   8  -2    9.76    4.55
   3  -8   2   10.46    3.61
  -3  -8  -2    2.83    4.42
   3  -8   2   13.95    5.29
  -3  -8  -2    6.25    3.42
   3   8   2    7.73    2.62
  -3   8  -2    7.46    4.29
   3   8   3   34.72    9.17
  -3   8  -3   36.49    8.77
   3  -8   3   26.85    4.93
  -3  -8  -3   51.36    9.12
   3  -8   3   38.92    7.92
  -3  -8  -3   42.46    7.25
   3   8   3   34.22    7.83
  -3   8  -3   46.75    8.11
   3   8   4   69.05    9.65
  -3   8  -4   78.14    6.68
   3  -8   4   56.22    5.49
  -3  -8  -4   56.17    7.87
   3  -8   4   79.16    7.58
  -3  -8  -4   64.79    6.06
   3   8   4   71.59    7.85
  -3   8  -4   58.53    7.34
   3   8   5   13.10    4.94
  -3   8  -5   12.84    4.27
   3  -8   5    9.90    3.48
   3  -8   5   -0.40    4.30
  -3  -8  -5    6.06    3.43
   3   8   5   14.51    4.66
   3   8   6   18.40    4.93
  -3   8  -6    4.25    2.39
   3  -8   6   12.60    4.23
  -3  -8  -6   27.70    6.97
   3  -8   6   10.67    3.77
  -3  -8  -6   15.95    4.72
   3   8   6   14.06    5.58
  -3   8  -6   20.81    7.04
   3   8   7    4.34    2.62
  -3   8  -7   12.22    4.33
   3  -8   7   18.40    4.85
  -3  -8  -7   22.04    7.26
   3  -8   7   17.81    6.56
  -3  -8  -7   18.53    4.98
   3   8   7    8.40    2.92
  -3   8  -7   29.26    9.72
   3   8   8   -1.00    4.67
  -3   8  -8    0.54    1.99
   3  -8   8    6.75    2.78
  -3  -8  -8    4.40    3.61
   3  -8   8    8.85    4.35
  -3  -8  -8    2.14    2.46
   3   8   8    9.12    2.86
  -3   8  -8    4.48    5.71
   3   8   9   33.29    7.67
  -3   8  -9   23.87    5.76
   3  -8   9   27.50    4.19
   3  -8   9   38.64    6.52
  -3  -8  -9   28.22    4.99
   3   8   9   37.40    6.69
  -3   8  -9   56.45    9.95
   3   8  10   15.90    6.15
  -3   8 -10   14.00    4.49
   3  -8  10   11.84    3.90
   3  -8  10    7.56    4.19
  -3  -8 -10   13.97    4.97
   3   8  10    0.68    1.23
  -3   8 -10   15.19    7.94
   3  -8  11   19.00    4.83
   3  -8  11   36.38    8.31
  -3  -8 -11   31.16    5.58
  -3   8 -11   19.30    6.51
   3   8  12   23.67    8.46
   3  -8  12   12.08    3.50
  -3  -8 -12   18.76    7.29
   3  -8  12    9.71    4.31
  -3  -8 -12   12.63    4.80
  -3   8 -12   27.08    8.61
   3   8  13   24.59    6.35
   3  -8  13   13.94    4.78
   3  -8  13    8.47    3.86
  -3  -8 -13   21.76    5.25
  -3   8 -13   30.66    8.66
   3   8  14   10.35    4.06
   3  -8  14   12.41    5.03
   3  -8  14    2.63    1.94
  -3  -8 -14   15.63    5.67
  -3   8 -14   20.75    7.77
   3   8  15   22.70    6.15
   3  -8  15   34.91    7.09
   3  -8  15   35.94    9.78
  -3  -8 -15   44.74    8.09
  -3   8 -15   59.12   13.63
   3   8  16    0.28    2.20
   3  -8  16    5.80    2.51
   3  -8  16   19.62    6.83
  -3  -8 -16   12.36    4.15
  -3   8 -16   17.03    5.30
   3   8  17   38.51   13.31
   3  -8  17   37.15   10.32
   3  -8  17   44.93   11.49
  -3  -8 -17   54.65   11.62
  -3   8 -17   56.26   12.46
   3   8  18   20.36    6.82
   3  -8  18    6.69    2.68
   3  -8  18    5.73    7.44
  -3  -8 -18    4.18    3.60
  -3   8 -18   22.91    8.36
   3   8  19   18.84    7.28
   3  -8  19    5.20    2.47
   3  -8  19   15.97    9.62
  -3  -8 -19   -0.41    3.00
  -3   8 -19    5.75    4.84
   3   8  20    3.92    2.73
   3  -8  20   15.66    6.75
  -3  -8 -20    7.47    5.61
  -3   8 -20   -6.77    4.76
   3   8  21   -1.22    4.19
   3  -8  21    4.43    2.66
   3  -8  21    9.02    4.09
  -3  -8 -21    6.53    5.23
  -3   8 -21    7.85    4.00
   3   8  22    9.68    6.28
   3  -8  22    5.32    3.65
   3  -8  22    3.82    3.54
  -3  -8 -22    6.58    5.53
  -3   8 -22    9.31    3.36
   3   8  23   13.59    5.62
   3  -8  23    6.17    2.68
   3  -8  23   13.96    6.15
  -3  -8 -23   11.06    6.37
  -3   8 -23    9.13    3.95
  -3   9  23   10.87    7.02
  -3  -9  23   14.66    7.49
   3  -9 -23   12.25    5.72
   3  -9 -23   -3.63    4.68
   3   9 -23    4.19    2.88
   3   9 -23    6.49    4.47
  -3   9  22    7.45    5.15
  -3  -9  22    3.55    4.93
   3  -9 -22   11.23    5.58
   3  -9 -22   10.70    5.57
   3   9 -22    0.54    1.92
   3   9 -22    4.76    4.90
  -3   9  21    9.47    5.43
  -3  -9  21   11.48    5.87
   3  -9 -21    0.12    3.09
   3  -9 -21   29.69   11.56
   3   9 -21   11.67    5.53
   3   9 -21    7.80    8.00
  -3   9  20    7.46    3.58
  -3  -9  20   15.46    7.46
   3  -9 -20   15.35    6.19
   3   9 -20    3.59    3.42
   3   9 -20    2.27    5.30
  -3   9  19   14.22    7.39
  -3  -9  19    9.47    5.73
   3  -9 -19    1.13    3.30
   3  -9 -19   13.71    7.07
   3   9 -19   12.40    3.80
   3   9 -19    0.88    4.45
  -3   9  18    7.33    5.03
  -3  -9  18   -2.84    4.61
   3  -9 -18    4.35    3.61
   3  -9 -18   15.58    5.67
   3   9 -18    7.31    4.41
   3   9 -18    9.18    4.28
  -3   9  17    6.28    5.30
  -3  -9  17    8.74    6.58
   3  -9 -17    7.96    4.61
   3  -9 -17    5.32    4.90
   3   9 -17    1.55    2.93
   3   9 -17    8.18    5.14
  -3   9  16    2.62    4.96
  -3  -9  16    2.86    4.73
   3  -9 -16    0.36    3.11
  -3  -9  16    9.82    4.71
   3  -9 -16   -6.06    4.40
   3   9 -16   -0.45    4.58
  -3   9  16    0.10    2.62
   3   9 -15    7.03    3.46
  -3   9  15    1.98    4.48
  -3  -9  15    4.05    4.56
  -3  -9  15    7.98    3.94
   3  -9 -15    7.07    4.67
   3   9 -15    1.49    2.43
  -3   9  15   -0.89    2.68
   3   9 -14   26.10    7.89
  -3   9  14   26.52    7.12
  -3  -9  14   41.33    9.50
   3  -9 -14   21.58    9.46
  -3  -9  14   25.77    8.71
   3  -9 -14   48.52   10.04
   3   9 -14   45.39   10.61
  -3   9  14   41.27    7.88
   3   9 -13    9.12    3.05
  -3   9  13   19.95    5.93
  -3  -9  13    7.11    5.41
   3  -9 -13    7.29    3.96
  -3  -9  13    9.02    3.67
   3  -9 -13    4.72    4.38
   3   9 -13    3.45    2.55
  -3   9  13    1.23    3.06
   3   9 -12   17.96    6.29
  -3   9  12    5.62    4.62
  -3  -9  12   29.66    8.29
   3  -9 -12    4.60    3.19
  -3  -9  12    2.89    1.91
   3  -9 -12   14.53    7.43
   3   9 -12   13.23    6.97
  -3   9  12   12.75    5.19
   3   9 -11   14.68    6.60
  -3   9  11   18.90    8.65
  -3  -9  11   27.58    8.29
   3  -9 -11   17.10    6.12
  -3  -9  11   18.50    6.65
   3  -9 -11   11.06    5.19
   3   9 -11   14.05    8.34
  -3   9  11   10.53    3.98
   3   9 -10    9.26    2.79
  -3   9  10    2.33    4.56
  -3  -9  10   -2.71    4.58
   3  -9 -10    9.59    3.87
  -3  -9  10   -1.02    2.52
   3  -9 -10   13.17    5.99
   3   9 -10   15.04    6.84
  -3   9  10    1.09    2.86
   3   9  -9    1.19    1.77
  -3   9   9    1.73    4.18
  -3  -9   9   16.05    7.17
   3  -9  -9    4.70    2.59
  -3  -9   9   11.24    4.85
   3  -9  -9   10.87    5.37
   3   9  -9   11.54    4.11
  -3   9   9   11.57    4.43
   3   9  -8   20.61    5.31
  -3   9   8   15.31    5.85
  -3  -9   8   17.57    6.68
   3  -9  -8   34.07    6.60
  -3  -9   8   17.34    5.28
   3  -9  -8   24.80    9.03
   3   9  -8   26.66    6.64
  -3   9   8   18.56    5.88
   3   9  -7   19.35    5.60
  -3   9   7   10.34    5.28
  -3  -9   7   23.79    7.98
   3  -9  -7    9.20    3.30
  -3  -9   7    7.61    3.45
   3  -9  -7   -1.11    4.41
   3   9  -7   14.91    4.47
  -3   9   7   10.48    4.17
   3   9  -6   19.39    6.98
  -3   9   6    6.90    4.26
  -3  -9   6   11.26    4.89
   3  -9  -6    5.30    2.69
  -3  -9   6    4.43    2.38
   3  -9  -6   19.41    6.68
   3   9  -6    6.28    2.74
  -3   9   6   11.98    5.69
   3   9  -5   27.25    7.19
  -3   9   5   17.65    7.61
  -3  -9   5   19.97    7.13
   3  -9  -5   14.47    5.14
  -3  -9   5   22.92    6.68
   3  -9  -5   33.78    7.52
   3   9  -5   20.33    6.49
  -3   9   5   37.98    7.83
   3   9  -4   -0.41    3.76
  -3   9   4    7.83    5.51
  -3  -9   4    5.34    4.39
   3  -9  -4    7.91    2.88
  -3  -9   4    8.27    2.41
   3  -9  -4   12.98    5.86
   3   9  -4    7.90    2.83
  -3   9   4    6.37    5.47
   3   9  -3   17.42    5.59
  -3   9   3   10.50    5.29
   3  -9  -3    8.57    3.99
  -3  -9   3   19.65    7.98
  -3  -9   3    9.53    3.46
   3  -9  -3   12.56    7.39
   3   9  -3   16.13    4.81
  -3   9   3    8.07    4.06
   3   9  -2   25.42   11.05
  -3   9   2   27.80    6.26
   3  -9  -2   35.05    5.84
  -3  -9   2   20.03    5.92
  -3  -9   2   21.67    5.85
   3  -9  -2   37.93    8.32
   3   9  -2   47.67    7.80
  -3   9   2   47.21    8.04
   3   9  -1   11.48    7.39
  -3   9   1   16.58    5.52
   3  -9  -1   12.38    4.40
  -3  -9   1   13.10    6.28
  -3  -9   1    9.09    3.33
   3  -9  -1   14.53    7.85
   3   9  -1   19.43    6.19
  -3   9   1   18.42    6.02
   3   9   0    4.85    1.96
  -3   9   0   12.69    5.07
   3  -9   0   12.04    4.46
  -3  -9   0   18.19    6.80
  -3  -9   0   13.54    4.70
   3  -9   0   11.13    5.57
   3   9   0    7.83    2.14
  -3   9   0   18.51    6.65
   3   9   1   28.88    6.91
  -3   9  -1   26.60    7.11
   3  -9   1   36.82    5.18
  -3  -9  -1   44.69    8.02
   3  -9   1   52.05   10.44
  -3  -9  -1   45.34    6.78
   3   9   1   34.15    7.62
  -3   9  -1   43.21    8.03
   3   9   2    8.80    4.59
  -3   9  -2   14.87    5.32
   3  -9   2    6.10    2.73
  -3  -9  -2    4.44    4.18
   3  -9   2    4.73    4.85
  -3  -9  -2    7.05    3.18
   3   9   2    9.90    4.98
  -3   9  -2    5.19    4.71
   3   9   3    3.91    2.73
  -3   9  -3   14.07    5.80
   3  -9   3    9.37    4.44
  -3  -9  -3   -2.19    4.28
   3  -9   3    6.90    3.90
  -3  -9  -3    3.11    2.42
   3   9   3    4.77    2.46
  -3   9  -3   15.08    7.43
   3   9   4   46.14   10.42
  -3   9  -4   29.07    5.25
   3  -9   4   32.78    5.63
  -3  -9  -4   72.82   11.38
   3  -9   4   54.43   11.85
  -3  -9  -4   51.62    7.01
   3   9   4   23.30    6.58
  -3   9  -4   47.72    8.67
   3   9   5    5.40    3.71
  -3   9  -5    3.09    2.66
   3  -9   5    5.85    3.26
  -3  -9  -5   18.71    7.40
   3  -9   5   13.66    6.74
  -3  -9  -5   21.76    6.45
   3   9   5    9.65    3.31
  -3   9  -5   11.66    6.32
   3   9   6   55.22   16.78
  -3   9  -6   55.32   13.13
   3  -9   6   51.35    8.44
  -3  -9  -6   66.82   11.03
   3  -9   6   48.03   12.91
  -3  -9  -6   36.89    8.69
   3   9   6   41.75    9.24
  -3   9  -6   40.08    7.97
   3   9   7   33.25   10.14
  -3   9  -7   24.54    7.08
   3  -9   7   24.81    6.81
  -3  -9  -7   28.30    7.59
   3  -9   7   34.75    8.22
  -3  -9  -7   25.05    5.64
   3   9   7   11.33    4.05
   3   9   8   13.91    5.05
  -3   9  -8    2.69    1.67
   3  -9   8    4.96    2.55
  -3  -9  -8    9.51    6.34
   3  -9   8   15.65    5.74
  -3  -9  -8    2.66    2.70
   3   9   8    4.01    2.16
  -3   9  -8    2.42    4.74
   3   9   9   24.88    7.76
   3  -9   9   14.86    5.38
  -3  -9  -9    6.55    4.63
   3  -9   9   15.77    5.24
  -3  -9  -9   10.64    5.00
  -3   9  -9   13.34    7.14
   3   9  10   12.38    4.08
   3  -9  10    5.05    3.21
  -3  -9 -10    6.05    6.15
   3  -9  10    2.83    2.22
  -3  -9 -10    8.90    4.92
  -3   9 -10   10.21    5.15
   3   9  11    8.40    4.29
   3  -9  11    9.27    4.32
  -3  -9 -11   23.36    7.68
   3  -9  11   21.11    5.53
  -3  -9 -11   11.51    3.77
  -3   9 -11   19.07    6.37
   3   9  12   18.10    8.36
   3  -9  12   19.54    5.07
  -3  -9 -12   19.23    7.59
   3  -9  12   38.61    9.37
  -3   9 -12   39.85   12.76
   3   9  13   35.97   10.74
   3  -9  13    7.17    2.38
  -3  -9 -13   12.63    6.05
   3  -9  13   15.48    6.38
  -3  -9 -13   12.05    4.72
  -3   9 -13   13.30    6.66
   3   9  14   22.16    7.14
   3  -9  14    7.74    4.21
  -3  -9 -14   19.71    7.44
   3  -9  14   10.51    5.96
  -3  -9 -14    6.45    3.71
  -3   9 -14    2.49    7.49
   3   9  15    8.54    4.40
   3  -9  15    4.65    2.89
  -3  -9 -15    4.02    4.49
   3  -9  15    1.95    4.57
  -3  -9 -15   10.00    5.58
  -3   9 -15   21.32    9.32
   3   9  16    8.92    4.18
  -3  -9 -16   -4.85    4.47
   3  -9  16   -4.24    4.28
  -3  -9 -16   19.72    8.01
  -3   9 -16    5.15    5.59
   3   9  17    6.86    3.58
   3  -9  17    1.93    2.62
  -3  -9 -17    3.47    4.83
   3  -9  17    5.04    3.55
  -3  -9 -17    9.81    5.30
  -3   9 -17    2.20    4.85
   3   9  18    4.08    2.84
   3  -9  18    7.83    5.17
  -3  -9 -18   -2.82    4.59
   3  -9  18   18.61    7.83
  -3  -9 -18    8.32    5.13
  -3   9 -18    6.72    5.56
   3   9  19    8.96    4.55
   3  -9  19   14.04    5.64
  -3  -9 -19   15.41    7.87
   3  -9  19    3.47    4.67
  -3  -9 -19   12.62    6.47
  -3   9 -19    9.89    5.86
   3   9  20   -2.28    4.28
   3  -9  20    2.49    1.82
  -3  -9 -20   12.04    5.71
   3  -9  20   15.72    6.14
  -3   9 -20    2.71    3.41
  -3  10  20    2.06    5.61
  -3 -10  20    4.18    4.87
   3 -10 -20    2.00    3.30
   3 -10 -20   -5.49    4.98
   3  10 -20    3.05    3.37
   3  10 -20    9.33    6.36
  -3  10  19    4.47    5.37
  -3 -10  19   11.21    6.12
   3 -10 -19    6.17    3.54
   3 -10 -19   17.85    8.19
   3  10 -19   11.52    4.63
   3  10 -19   18.89   10.35
  -3  10  18   36.59   12.46
  -3 -10  18   36.54   11.59
   3 -10 -18   33.97    9.71
   3 -10 -18   36.76   12.29
   3  10 -18   25.12    7.68
   3  10 -18   39.78   13.24
  -3  10  17    3.54    5.52
  -3 -10  17    8.87    5.59
   3 -10 -17    6.61    4.43
   3 -10 -17    6.64    5.40
  -3  10  16   31.21   13.33
  -3 -10  16   23.12    9.42
   3 -10 -16   28.47    8.76
  -3 -10  16    9.04    2.94
   3 -10 -16   27.11   10.34
   3  10 -16   21.50    8.41
  -3  10  15    6.33    6.38
  -3 -10  15   12.48    7.10
   3 -10 -15    2.55    3.07
  -3 -10  15    0.91    1.35
   3 -10 -15   12.12    7.18
   3  10 -15    8.71    5.08
   3  10 -14    6.06    2.84
  -3  10  14    7.54    4.13
  -3 -10  14    2.24    4.68
   3 -10 -14   23.65    8.05
  -3 -10  14    1.06    2.50
   3 -10 -14    3.15    5.08
   3  10 -14    0.24    3.81
  -3  10  14    6.87    4.18
   3  10 -13   15.29    5.72
  -3  10  13   10.12    4.42
  -3 -10  13   15.28    7.02
   3 -10 -13    6.94    4.01
  -3 -10  13    6.49    2.65
   3 -10 -13    6.06    5.34
   3  10 -13    4.09    4.39
  -3  10  13   16.16    5.74
   3  10 -12    7.89    3.73
  -3  10  12   28.96    9.29
  -3 -10  12   11.61    6.52
   3 -10 -12   30.00    6.74
  -3 -10  12   12.29    3.97
   3 -10 -12   11.57    5.88
   3  10 -12   44.09   10.73
  -3  10  12   24.80    7.33
   3  10 -11    3.00    2.02
  -3  10  11    9.27    5.35
  -3 -10  11    1.60    4.17
   3 -10 -11    4.24    2.64
  -3 -10  11    1.88    1.47
   3 -10 -11    6.58    5.17
   3  10 -11    0.21    4.75
  -3  10  11    4.50    3.37
   3  10 -10   36.45    8.98
  -3  10  10   24.93   11.58
  -3 -10  10   35.05    8.51
   3 -10 -10   27.91    6.69
  -3 -10  10   23.80    8.05
   3 -10 -10   19.80    7.87
   3  10 -10   45.13   11.49
  -3  10  10   23.03    6.29
   3  10  -9    3.17    2.98
  -3  10   9   16.21    3.35
  -3 -10   9   11.75    4.58
   3 -10  -9   10.36    4.51
  -3 -10   9   -0.59    2.62
   3 -10  -9   14.54    5.20
   3  10  -9   -0.30    3.99
  -3  10   9   -1.00    3.13
   3  10  -8   12.51    6.43
  -3  10   8   11.85    3.01
  -3 -10   8   16.57    6.44
   3 -10  -8    5.69    2.73
  -3 -10   8    7.34    3.67
   3 -10  -8    1.36    4.67
   3  10  -8   22.88    6.12
  -3  10   8   16.52    5.06
   3  10  -7   18.42    3.82
  -3  10   7    9.60    4.91
  -3 -10   7   23.50    6.69
   3 -10  -7   11.53    4.53
  -3 -10   7    4.79    2.65
   3 -10  -7    8.34    5.21
   3  10  -7   12.00    6.15
  -3  10   7   18.73    5.00
   3  10  -6   17.12    4.88
  -3  10   6    7.50    4.29
  -3 -10   6   10.09    5.52
   3 -10  -6   15.64    4.28
  -3 -10   6    8.40    4.64
   3 -10  -6   11.68    5.65
   3  10  -6    8.65    5.09
  -3  10   6   12.92    5.74
   3  10  -5   12.38    4.72
  -3  10   5    4.39    3.74
  -3 -10   5   11.02    7.56
   3 -10  -5   12.07    4.86
  -3 -10   5   10.39    4.13
   3 -10  -5    8.56    6.12
   3  10  -5    5.99    3.50
  -3  10   5    5.46    3.80
   3  10  -4   22.64    9.10
  -3  10   4   31.21    7.61
  -3 -10   4   27.43    8.34
   3 -10  -4   16.57    5.56
  -3 -10   4   15.43    6.11
   3 -10  -4   26.33    8.21
   3  10  -4   18.76    6.40
  -3  10   4   20.68    6.71
   3  10  -3   13.63    5.66
  -3  10   3    7.25    3.70
   3 -10  -3    6.24    3.29
  -3 -10   3    0.19    5.00
  -3 -10   3    4.87    2.05
   3 -10  -3    7.57    4.93
   3  10  -3    3.15    3.77
  -3  10   3    0.16    3.49
   3  10  -2   19.62    7.08
  -3  10   2   27.72    7.27
   3 -10  -2   21.84    5.42
  -3 -10   2   14.33    6.34
  -3 -10   2   16.12    5.30
   3 -10  -2   19.03    7.78
   3  10  -2   13.38    5.35
  -3  10   2   14.33    7.57
   3  10  -1   13.59    7.21
  -3  10   1    4.02    4.13
   3 -10  -1    5.77    3.63
  -3 -10   1    5.99    5.04
  -3 -10   1   -2.38    2.70
   3 -10  -1    6.53    7.69
  -3  10   1    4.72    4.91
   3  10   0   -3.64    3.67
  -3  10   0    0.45    2.84
   3 -10   0    4.02    3.44
  -3 -10   0   16.53    7.61
  -3 -10   0   10.50    4.73
   3 -10   0    8.53    4.79
   3  10   0    6.44    3.60
  -3  10   0    0.07    4.07
   3  10   1   22.07    6.83
  -3  10  -1   19.96    5.00
   3 -10   1   16.42    5.37
  -3 -10  -1   44.34   11.05
  -3 -10  -1   23.36    6.23
   3 -10   1    8.90    5.06
   3  10   1   21.44    5.36
  -3  10  -1   33.85    9.02
   3  10   2   33.51   10.33
  -3  10  -2   25.27    5.48
   3 -10   2   21.89    5.43
  -3 -10  -2   20.41    7.51
   3 -10   2   36.08    8.93
  -3 -10  -2   17.58    5.78
   3  10   2   33.29    7.54
  -3  10  -2   28.43    8.05
   3  10   3   13.94    3.90
  -3  10  -3   13.17    3.92
   3 -10   3    4.30    2.35
  -3 -10  -3   34.91   10.24
   3 -10   3   10.75    5.97
  -3 -10  -3   10.11    4.61
   3  10   3    7.82    5.30
  -3  10  -3   14.54    5.05
   3  10   4   30.73    8.55
  -3  10  -4    8.84    3.95
   3 -10   4   11.83    3.58
  -3 -10  -4    8.55    5.38
   3 -10   4   25.98    7.60
  -3 -10  -4   14.21    4.02
   3  10   4   16.92    4.33
  -3  10  -4   38.90    9.87
   3  10   5    8.88    8.85
  -3  10  -5    5.12    2.92
   3 -10   5    1.91    2.37
  -3 -10  -5    0.65    4.10
   3 -10   5    3.18    2.49
  -3 -10  -5    3.78    2.77
   3  10   5    3.07    2.27
  -3  10  -5   -0.02    4.53
   3  10   6   -1.31    3.86
  -3  10  -6    7.14    3.46
   3 -10   6    3.36    2.40
  -3 -10  -6   -1.40    4.21
   3 -10   6   14.48    4.73
  -3 -10  -6    5.46    3.96
   3  10   6    9.99    4.15
  -3  10  -6   -0.24    5.01
   3  10   7   20.77    6.02
  -3  10  -7    3.97    1.96
   3 -10   7    4.51    2.65
  -3 -10  -7    8.35    6.38
   3 -10   7    6.82    3.52
  -3 -10  -7    3.22    2.85
  -3  10  -7    3.63    5.92
   3  10   8   11.77    4.52
   3 -10   8    3.46    2.57
  -3 -10  -8   14.33    6.14
   3 -10   8   11.47    7.81
  -3 -10  -8   20.39    4.74
  -3  10  -8   17.02    8.08
   3  10   9   15.45    7.17
   3 -10   9    7.54    4.21
  -3 -10  -9   14.63    6.01
   3 -10   9    3.80    3.97
  -3 -10  -9    7.33    3.88
  -3  10  -9   -0.97    4.92
   3  10  10   34.95   11.96
   3 -10  10   16.48    4.75
  -3 -10 -10   45.07    9.84
   3 -10  10   27.43    8.62
  -3 -10 -10   12.77    5.04
  -3  10 -10   33.91   14.71
   3  10  11    3.93    4.42
   3 -10  11    7.13    4.84
  -3 -10 -11   11.63    5.78
   3 -10  11   11.98    5.33
  -3 -10 -11   19.16    5.18
  -3  10 -11   23.28   10.15
   3  10  12   15.12    9.29
   3 -10  12    5.96    2.88
  -3 -10 -12    9.05    5.21
   3 -10  12    7.77    7.55
  -3 -10 -12   23.06    7.60
  -3  10 -12    6.67    6.15
   3  10  13   22.79    9.85
   3 -10  13   26.66    8.91
  -3 -10 -13   15.42    8.57
   3 -10  13    3.93    7.68
  -3 -10 -13   11.30    4.70
  -3  10 -13   13.62    7.26
   3 -10  14    9.44    4.12
  -3 -10 -14   13.86    8.67
   3 -10  14    5.68    3.92
  -3 -10 -14    0.03    2.89
  -3  10 -14    4.85    4.22
   3  10  15    8.05    4.22
   3 -10  15   -2.65    2.84
  -3 -10 -15    2.22    4.28
   3 -10  15    5.73    2.63
  -3 -10 -15    8.84    4.79
  -3  10 -15   10.08    4.33
   3  10  16   11.86    4.96
  -3 -10 -16    3.88    4.69
   3 -10  16   14.45    5.94
  -3 -10 -16   16.74    7.10
  -3  10 -16   10.18    6.24
   3  10  17    5.20    4.65
  -3 -10 -17   15.88    7.92
   3 -10  17    9.02    7.77
  -3 -10 -17    4.06    3.51
  -3  10 -17   20.98   10.19
  -3  11  16    2.50    6.54
  -3 -11  16   -4.04    5.09
   3 -11 -16    3.07    4.85
   3  11 -16    4.37    2.99
  -3  11  15    1.44    7.98
  -3 -11  15   21.21    9.34
   3 -11 -15   24.54    9.56
   3  11 -15    6.96    4.59
  -3  11  14    1.98    6.23
  -3 -11  14   10.12    6.69
   3 -11 -14   21.61    7.91
   3  11 -14    8.86    7.14
  -3  11  13   28.02   10.32
  -3 -11  13   -1.04    5.52
  -3 -11  13    6.63    3.48
   3 -11 -13    4.15    4.74
   3  11 -13   23.65    8.60
   3  11 -12   17.49    5.45
  -3  11  12   16.19    8.22
  -3 -11  12   -2.20    4.65
  -3 -11  12   14.29    4.87
   3 -11 -12   20.70    7.98
   3  11 -12    6.55    3.70
  -3  11  12   12.47    5.84
   3  11 -11   10.80    5.31
  -3  11  11    7.81    5.42
  -3 -11  11    7.59    5.07
  -3 -11  11    2.95    1.42
   3 -11 -11   10.08    5.20
   3  11 -11   16.17    5.95
  -3  11  11   -1.32    3.18
   3  11 -10   12.76    4.15
  -3  11  10    8.49    4.48
  -3 -11  10   12.20    6.71
  -3 -11  10    5.21    2.51
   3 -11 -10    5.42    4.98
   3  11 -10   12.71    4.60
  -3  11  10   12.90    6.90
   3  11  -9    4.23    5.31
  -3  11   9    5.52    4.46
  -3 -11   9   -0.58    4.65
  -3 -11   9   -0.21    1.68
   3 -11  -9   22.94    8.36
   3  11  -9    9.23    4.87
  -3  11   9    6.70    4.09
   3  11  -8    7.88    5.44
  -3  11   8    7.56    4.55
  -3 -11   8   15.08    8.17
  -3 -11   8    5.27    3.38
   3 -11  -8   -5.94    4.22
   3  11  -8    7.54    4.99
  -3  11   8   10.93    4.12
   3  11  -7   14.94    5.23
  -3  11   7   26.58    8.57
  -3 -11   7    2.57    5.01
   3 -11  -7    3.11    2.71
  -3 -11   7    6.49    3.58
   3 -11  -7    5.17    4.49
   3  11  -7   12.12    5.68
  -3  11   7   39.24   11.43
   3  11  -6   15.95    5.62
  -3  11   6   31.33    9.15
  -3 -11   6   19.11    7.60
   3 -11  -6   15.83    5.07
  -3 -11   6   11.23    5.29
   3 -11  -6    0.55    4.72
   3  11  -6   10.72    5.34
  -3  11   6   11.94    6.24
   3  11  -5    5.01    4.50
  -3  11   5   26.91    7.89
  -3 -11   5    9.17    5.15
  -3 -11   5   -1.81    2.28
   3 -11  -5    2.35    4.84
   3  11  -5    3.90    2.34
  -3  11   5    8.68    5.40
   3  11  -4   14.07    5.34
  -3  11   4   26.28    6.76
  -3 -11   4    3.18    4.82
  -3 -11   4    7.36    3.18
   3 -11  -4    9.96    7.27
   3  11  -4   19.53    7.03
  -3  11   4   12.07    5.76
   3  11  -3    8.05    3.20
  -3  11   3    7.52    5.02
  -3 -11   3    8.24    4.91
  -3 -11   3    7.90    2.47
   3 -11  -3    3.04    4.50
   3  11  -3    7.71    2.99
  -3  11   3    7.44    4.12
   3  11  -2    8.46    3.07
  -3  11   2    5.05    3.96
  -3 -11   2    5.86    4.95
  -3 -11   2    3.27    1.83
   3 -11  -2    5.67    7.25
   3  11  -2    9.22    3.65
  -3  11   2    3.86    4.44
   3  11  -1   17.23    6.34
  -3  11   1   10.48    4.48
  -3 -11   1   14.05    7.14
  -3 -11   1   19.94    4.35
   3 -11  -1   15.61    7.58
   3  11  -1   21.70    5.78
  -3  11   1   10.42    4.94
   3  11   0   27.02    8.58
  -3  11   0   14.94    6.46
  -3 -11   0   20.78    7.43
  -3 -11   0    5.50    2.62
   3 -11   0   10.73    5.58
   3  11   0   11.16    5.06
  -3  11   0   12.74    6.53
   3  11   1   12.08    4.68
  -3  11  -1   12.79    5.60
  -3 -11  -1    3.54    5.02
  -3 -11  -1    5.69    2.34
   3 -11   1   13.21    6.26
   3  11   1    3.93    2.25
  -3  11  -1    5.04    6.39
   3  11   2    5.49    6.94
  -3  11  -2    9.68    4.23
   3 -11   2    6.58    4.56
  -3 -11  -2    3.65    2.62
   3  11   2    3.09    3.54
  -3  11  -2   17.86    7.18
   3  11   3   11.11    5.31
  -3  11  -3   10.56    5.71
   3 -11   3    3.99    2.93
  -3 -11  -3    2.49    2.34
   3  11   3    6.59    4.09
  -3  11  -3    7.42    5.34
   3  11   4   10.25    7.45
  -3  11  -4    2.94    2.81
   3 -11   4    6.55    4.42
   3  11   4   -3.84    2.70
  -3  11  -4    0.86    5.15
   3  11   5   10.58    3.19
  -3 -11  -5   15.40    6.46
   3 -11   5   14.86    8.06
  -3 -11  -5   19.26    6.60
  -3  11  -5   34.23   10.11
  -3 -11  -6   24.77    9.44
   3 -11   6   11.10    4.61
  -3 -11  -6    5.79    3.00
  -3  11  -6   26.23   10.30
   3  11   7   18.96    7.78
  -3 -11  -7   10.34    5.76
   3 -11   7   24.00    8.96
  -3  11  -7   11.64    6.37
   3  11   8   12.97    6.18
  -3 -11  -8   26.70    9.11
   3 -11   8   12.35    5.74
  -3  11  -8   -0.26    5.01
   3  11   9   21.94    7.49
  -3 -11  -9    7.07    5.11
   3 -11   9    5.04    3.83
  -3  11  -9    7.22    5.97
   3  11  10   25.25    8.04
  -3 -11 -10   16.68    8.24
   3 -11  10   -1.71    4.55
   3  11  11   22.96    9.04
  -3 -11 -11    8.41    7.46
   3 -11  11    9.80    3.88
  -3  11 -11   16.43    7.65
   3  11  12    2.95    3.48
  -3 -11 -12    7.69    5.10
   3 -11  12    9.02    4.70
  -3  11 -12   11.02    7.29
   3  11  13   15.75    9.02
  -3 -11 -13   18.59    8.21
   3 -11  13    2.70    2.34
  -3  11 -13   21.26    8.37
   3  12 -10    9.35    5.07
  -3  12  10    9.25    5.18
  -3 -12  10   18.92    8.88
   3 -12 -10    3.49    4.06
   3  12 -10    6.24    5.92
  -3  12  10   13.58    6.41
   3  12  -9    5.17    2.53
  -3  12   9    6.00    5.08
  -3 -12   9   31.10   11.00
   3 -12  -9    2.76    5.24
   3  12  -9    5.39    4.06
  -3  12   9    1.38    3.64
   3  12  -8    2.68    4.08
  -3  12   8    1.92    4.12
  -3 -12   8   15.94    8.20
   3 -12  -8   12.52    7.82
   3  12  -8   24.96   12.13
  -3  12   8   -3.12    3.60
   3  12  -7    5.21    2.59
  -3  12   7    9.35    6.08
  -3 -12   7    6.57    5.47
   3 -12  -7   10.14    5.84
   3  12  -7    4.87    4.45
  -3  12   7    5.61    5.31
   3  12  -6    6.78    2.58
  -3  12   6   10.74    5.42
  -3 -12   6   13.44    6.68
   3 -12  -6   -0.25    4.72
   3  12  -6    3.04    2.71
  -3  12   6    6.77    4.30
   3  12  -5   -2.24    3.45
  -3  12   5    8.88    4.47
  -3 -12   5   14.64    8.33
   3 -12  -5    8.30    7.02
   3  12  -5    4.04    2.92
  -3  12   5    1.68    3.81
   3  12  -4   17.73    5.50
  -3  12   4   11.35    4.04
  -3 -12   4   -0.83    5.41
   3 -12  -4   -3.08    4.79
   3  12  -4    2.21    2.92
  -3  12   4    7.39    4.39
   3  12  -3    3.85    2.87
  -3  12   3   12.11    5.68
  -3 -12   3    1.12    5.56
   3 -12  -3   15.76    7.92
   3  12  -3    2.31    2.11
  -3  12   3   26.84    8.89
   3  12  -2    4.11    4.92
  -3  12   2   11.72    5.78
  -3 -12   2   -0.32    5.71
   3 -12  -2   -0.60    4.86
   3  12  -2   -0.61    3.64
  -3  12   2   11.81    5.31
   3  12  -1    9.68    4.54
  -3  12   1    1.31    3.78
  -3 -12   1    7.45    6.13
   3 -12  -1    3.15    4.90
   3  12  -1    7.98    4.24
  -3  12   1    3.07    4.47
   3  12   0   11.21    4.86
  -3  12   0    7.81    3.20
  -3 -12   0   -3.19    5.50
   3 -12   0    9.53    5.41
   3  12   0   -0.21    3.16
  -3  12   0    4.47    4.74
   3  12   1    8.58    3.96
  -3  12  -1    9.43    4.48
  -3 -12  -1   -2.13    5.29
   3 -12   1    2.68    4.75
   3  12   1    4.34    2.32
  -3  12  -1   10.76    6.57
   3  12   2   18.15    7.28
  -3  12  -2    4.61    5.86
  -3 -12  -2   11.87    6.65
   3 -12   2    0.90    4.71
   3  12   2    4.24    3.29
  -3  12  -2   -1.43    4.47
   3  12   3    8.27    3.86
  -3 -12  -3   15.92    8.96
   3 -12   3   28.84    9.27
  -3  12  -3    7.23    4.74
   3  12   4    1.74    5.31
  -3 -12  -4    3.16    5.46
   3 -12   4    8.36    5.11
  -3  12  -4    3.50    5.06
   3  12   5    2.59    3.13
  -3 -12  -5    3.48    5.58
   3 -12   5    8.59    4.91
  -3  12  -5   14.89    7.01
   3  12   6   12.58    4.45
  -3 -12  -6   -3.06    4.82
   3 -12   6    7.76    3.73
  -3  12  -6    8.39    5.43
   3  12   7   -4.02    4.58
  -3 -12  -7    6.42    4.77
   3 -12   7    4.77    5.12
  -3  12  -7   -1.06    4.62
  -4   0  32   22.47    7.90
   4   0 -32    1.06    4.40
  -4   0  31    3.52    1.65
   4   0 -31    4.39    4.30
   4   0 -31    4.52    2.65
  -4   0  30   54.01    6.81
  -4   0  30   37.68   14.88
   4   0 -30   40.14   11.65
   4   0 -30   32.29    9.25
  -4   0  29    0.60    2.78
  -4   0  29   -0.75    3.86
   4   0 -29    1.59    3.83
   4   0 -29   -1.24    3.04
  -4   0  28   72.13   21.19
  -4   0  28   55.12   15.45
   4   0 -28   77.75   22.69
   4   0 -28   56.69   14.71
  -4   0  27   10.25    4.12
  -4   0  27   -1.54    3.70
   4   0 -27   13.21    5.92
   4   0 -27    1.46    2.28
  -4   0  26    5.57    2.76
  -4   0  26    4.62    2.60
   4   0 -26    5.21    4.35
   4   0 -26    7.31    4.06
  -4   0  25    0.32    2.69
  -4   0  25   -1.88    4.23
   4   0 -25    8.15    5.24
   4   0 -25    8.72    3.08
  -4   0  24   79.55    8.95
  -4   0  24   60.10   12.26
   4   0 -24   88.82   15.02
   4   0 -24   71.38   13.05
  -4   0  23   15.36    6.02
  -4   0  23    9.86    3.18
   4   0 -23   10.43    4.64
   4   0 -23   -3.10    3.08
  -4   0  22   35.17    7.30
  -4   0  22   29.19    6.91
   4   0 -22   48.70    7.97
   4   0 -22   43.73    8.51
  -4   0  21    1.14    2.90
  -4   0  21   13.09    4.97
   4   0 -21    2.15    3.05
   4   0 -21   -2.81    2.77
  -4   0  20  101.04   10.15
  -4   0  20  102.19   14.93
   4   0 -20  121.31   17.08
   4   0 -20   93.97   13.66
  -4   0  19    1.75    3.02
  -4   0  19    5.96    3.80
   4   0 -19    6.31    3.38
   4   0 -19   11.12    3.72
  -4   0  18    8.76    3.38
  -4   0  18   12.41    5.13
   4   0 -18    8.64    3.97
   4   0 -18    7.34    2.97
  -4   0  17    5.05    1.76
  -4   0  17    3.36    1.93
   4   0 -17    2.85    1.61
   4   0 -17    5.79    3.00
  -4   0  16   42.69    6.58
  -4   0  16   48.16    8.89
   4   0 -16   54.13    9.00
   4   0 -16   46.87   10.26
  -4   0  15    1.57    2.72
  -4   0  15    8.62    3.80
   4   0 -15   -2.18    2.31
   4   0 -15    6.10    2.32
  -4   0  14    1.68    2.87
  -4   0  14   11.36    4.31
   4   0 -14    2.01    2.41
   4   0 -14    9.27    4.09
  -4   0  13   -0.38    2.66
  -4   0  13    5.80    2.89
   4   0 -13   -2.84    2.19
   4   0 -13    5.74    2.26
  -4   0  12    3.11    2.12
  -4   0  12    5.86    1.82
   4   0 -12    5.52    3.28
   4   0 -12    3.22    2.49
  -4   0  11    4.33    2.86
  -4   0  11    2.53    1.18
   4   0 -11    7.69    2.33
   4   0 -11    3.53    3.59
  -4   0  10    7.05    3.13
  -4   0  10    3.91    2.30
   4   0 -10    5.04    1.85
   4   0 -10    3.43    2.12
  -4   0  10    5.79    2.08
   4   0 -10    9.14    3.12
  -4   0   9   -0.26    2.85
  -4   0   9    6.39    2.31
   4   0  -9    1.37    1.59
   4   0  -9    2.85    1.05
  -4   0   9    1.25    1.98
   4   0  -9    4.29    2.53
  -4   0   8  121.93    6.64
   4   0  -8  136.82    6.76
   4   0  -8  138.96   12.50
  -4   0   8  118.77   12.01
   4   0  -8  143.66   16.10
  -4   0   7   -2.25    2.85
  -4   0   7    8.11    2.97
   4   0  -7    3.43    2.47
   4   0  -7   -0.55    1.93
  -4   0   7    6.99    2.70
   4   0  -7    5.10    1.74
  -4   0   6   55.06    5.06
   4   0  -6   59.25    5.49
   4   0  -6   54.88    5.24
  -4   0   6   62.09    5.00
   4   0  -6   56.09    8.54
  -4   0   5    3.48    2.12
  -4   0   5    2.56    1.66
   4   0  -5   22.07    3.35
   4   0  -5    0.28    1.13
  -4   0   5    2.58    2.08
   4   0  -5    6.09    2.09
  -4   0   4   77.97   11.39
  -4   0   4   71.24    5.65
   4   0  -4   55.54    5.04
   4   0  -4   82.93    9.87
  -4   0   4   77.22    6.02
   4   0  -4   66.64    9.23
  -4   0   3    0.10    2.53
  -4   0   3    1.27    1.42
   4   0  -3    1.17    1.25
   4   0  -3    2.41    1.01
  -4   0   3    0.46    1.37
  -4   0   2  665.14   24.45
  -4   0   2  672.78   23.52
   4   0  -2  664.50   23.29
   4   0  -2  696.67   24.22
  -4   0   2  660.67   23.10
   4   0  -2  691.45   25.77
  -4   0   1    3.47    1.33
  -4   0   1    2.96    1.70
   4   0  -1    1.56    1.29
   4   0  -1    1.40    1.79
  -4   0   1   -0.51    1.21
  -4   0   0  323.38   12.94
  -4   0   0  365.38   13.61
   4   0   0  317.29   13.35
  -4   0   0  313.20   11.57
   4   0   0  338.32   13.85
  -4   0  -1    5.09    2.66
  -4   0  -1    3.00    1.54
   4   0   1    1.11    1.35
  -4   0  -1    4.05    1.21
  -4   0  -1    3.67    2.04
  -4   0  -2    7.83    2.31
  -4   0  -2    4.30    2.19
   4   0   2    1.68    0.96
  -4   0  -2    4.24    1.38
  -4   0  -2    0.88    1.21
  -4   0  -3    2.12    1.13
  -4   0  -3   -0.71    1.50
   4   0   3    3.56    2.02
  -4   0  -3    4.18    1.89
  -4   0  -3    1.58    1.45
  -4   0  -4  242.30    9.80
   4   0   4  263.59   10.72
  -4   0  -4  234.19    9.34
  -4   0  -4  223.89    9.39
  -4   0  -5    0.92    1.68
   4   0   5    2.35    1.42
  -4   0  -5    1.76    1.49
  -4   0  -5    4.48    1.58
   4   0   6   49.38    7.66
  -4   0  -6   48.87    7.44
  -4   0  -6   50.04    8.13
   4   0   6   57.82    8.10
  -4   0  -6   51.19    6.83
  -4   0  -6   46.29    7.70
   4   0   7    2.10    1.07
  -4   0  -7    2.33    1.74
  -4   0  -7    3.06    1.35
   4   0   7    6.40    1.96
  -4   0  -7    2.65    1.40
  -4   0  -7    3.92    1.53
   4   0   8  138.40   13.05
  -4   0  -8  113.22   14.90
  -4   0  -8  111.73   15.26
   4   0   9    2.99    1.51
  -4   0  -9    1.73    1.23
  -4   0  -9    6.39    3.43
  -4   0  -9    3.57    1.12
   4   0  10  183.09    8.58
  -4   0 -10  151.22    8.12
  -4   0 -10  176.14    8.42
  -4   0 -10  146.44    9.53
   4   0  11   -0.08    1.11
  -4   0 -11   -1.05    1.32
  -4   0 -11   -1.06    2.24
  -4   0 -11    0.62    1.09
   4   0  12    9.59    2.55
  -4   0 -12    8.56    2.51
   4   0  13    2.17    1.07
  -4   0 -13   -0.74    2.54
   4   0  14  264.80   20.60
  -4   0 -14  289.15   21.12
  -4   0 -14  274.72   17.32
   4   0  15    4.57    2.17
  -4   0 -15    0.05    2.69
  -4   0 -15    0.42    1.19
   4   0  16  182.82   17.03
  -4   0 -16  215.70   20.04
  -4   0 -16  194.85   16.27
   4   0  17    6.09    2.05
  -4   0 -17    3.91    3.80
  -4   0 -17    4.26    2.48
   4   0  18  118.37   16.86
  -4   0 -18  134.95   11.84
  -4   0 -18  133.40    8.11
   4   0  19    1.04    0.97
  -4   0 -19    1.77    3.49
  -4   0 -19   10.92    4.02
   4   0  20   45.34    9.14
  -4   0 -20   66.29    8.95
  -4   0 -20   54.03   10.52
   4   0  21    2.24    1.48
  -4   0 -21   15.06    6.28
  -4   0 -22   29.50    7.51
  -4   0 -23    6.16    3.84
  -4   0 -24    5.42    5.00
  -4   0 -25    9.04    6.05
  -4   0 -26    4.82    4.18
  -4   0 -27    7.64    3.66
  -4   0 -28    9.35    5.53
  -4   0 -29   21.17    7.46
  -4   1  32    1.19    2.81
  -4   1  32   14.06    5.30
  -4  -1  32   12.60    6.15
   4  -1 -32   -3.76    4.57
   4   1 -32    4.11    3.47
   4   1 -32    8.16    3.89
  -4   1  31    3.24    2.97
  -4   1  31    5.59    3.37
  -4  -1  31   12.08    5.72
   4  -1 -31    3.74    4.81
   4   1 -31    1.51    3.77
   4   1 -31    4.05    2.98
  -4   1  30   16.38    7.19
  -4   1  30    4.28    3.61
  -4  -1  30    2.42    2.73
   4  -1 -30    2.67    4.08
   4   1 -30    7.18    4.75
   4   1 -30    7.41    3.38
  -4   1  29    5.20    3.64
  -4  -1  29    3.57    2.99
  -4   1  29    1.40    1.53
  -4  -1  29   12.79    6.90
   4  -1 -29   11.09    7.73
   4   1 -29   11.28    5.55
   4  -1 -29    8.65    2.77
   4   1 -29    6.86    2.14
  -4   1  28    5.83    4.58
  -4  -1  28   11.16    4.51
  -4   1  28    3.96    3.73
  -4  -1  28   11.95    5.06
   4  -1 -28    6.32    5.11
   4   1 -28   18.84    5.79
   4  -1 -28    4.57    2.50
   4   1 -28    6.59    4.11
  -4   1  27   17.24    4.75
  -4  -1  27   21.00    5.14
  -4   1  27    7.74    3.77
  -4  -1  27   18.50    6.07
   4  -1 -27    7.40    6.02
   4   1 -27    6.69    4.19
   4  -1 -27   11.31    5.46
   4   1 -27   17.50    4.80
  -4   1  26   10.92    5.31
  -4  -1  26   32.22    7.06
  -4   1  26   22.50    8.99
  -4  -1  26   13.58    5.59
   4  -1 -26   17.76    6.48
   4   1 -26    3.30    4.17
   4  -1 -26   15.73    4.83
   4   1 -26   10.79    3.83
  -4   1  25    4.77    2.89
  -4  -1  25    7.59    3.52
  -4   1  25    9.71    3.12
  -4  -1  25    2.54    2.40
   4  -1 -25    1.44    1.75
   4   1 -25   -1.33    3.57
   4  -1 -25    5.72    3.69
   4   1 -25   -1.28    2.93
  -4   1  24   46.54    7.16
  -4  -1  24   39.32    6.57
  -4   1  24   24.08    8.40
  -4  -1  24   25.29    9.67
   4  -1 -24   43.69    7.87
   4   1 -24   35.46    6.86
   4  -1 -24   35.39    6.50
   4   1 -24   50.28   10.68
  -4   1  23   47.99    6.75
  -4  -1  23   47.08    6.88
  -4   1  23   38.90    9.52
  -4  -1  23   48.22    8.51
   4  -1 -23   43.90    8.30
   4   1 -23   32.45    9.24
   4  -1 -23   36.30    8.52
   4   1 -23   45.55    8.62
  -4   1  22   99.67    9.50
  -4  -1  22  104.29   10.32
  -4   1  22   85.41   11.89
  -4  -1  22  121.43   16.00
   4  -1 -22   93.91    9.56
   4   1 -22   98.95   14.91
   4  -1 -22   84.73   11.15
   4   1 -22  106.04   19.50
  -4   1  21   15.84    4.96
  -4  -1  21   28.06    7.12
  -4   1  21   15.13    4.37
  -4  -1  21   34.34    7.85
   4  -1 -21   11.19    4.95
   4   1 -21   16.93    7.10
   4  -1 -21   12.80    3.47
   4   1 -21   29.23    7.16
  -4   1  20    1.61    3.05
  -4  -1  20   10.77    4.73
  -4   1  20    5.65    3.41
  -4  -1  20   11.89    4.66
   4  -1 -20    6.05    4.55
   4   1 -20    8.92    3.77
   4  -1 -20    4.05    1.81
   4   1 -20    5.89    3.15
  -4   1  19   97.43    9.36
  -4  -1  19   82.81    8.07
  -4   1  19   92.51   13.14
  -4  -1  19   82.50   10.66
   4  -1 -19   94.01   14.01
   4   1 -19   69.62   12.88
   4  -1 -19   81.15   11.12
   4   1 -19   79.52    9.47
  -4   1  18  160.49   12.36
  -4  -1  18  148.08   11.37
  -4   1  18  132.44   14.92
  -4  -1  18  159.04   16.55
   4  -1 -18  146.90   11.71
   4   1 -18  150.39   18.80
   4  -1 -18  124.00   14.45
   4   1 -18  147.91   22.01
  -4   1  17  177.64   13.10
  -4  -1  17  172.37   12.13
  -4   1  17  150.41   22.94
  -4  -1  17  165.00   16.50
   4  -1 -17  174.05   12.64
   4   1 -17  158.18   11.52
   4  -1 -17  189.33   19.94
   4   1 -17  158.88   23.79
  -4   1  16   53.14    7.69
  -4  -1  16   48.04    7.01
  -4   1  16   59.62    8.68
  -4  -1  16   44.67    8.04
   4  -1 -16   64.98    9.44
   4   1 -16   54.37    7.96
   4  -1 -16   56.61    9.48
   4   1 -16   56.41   11.07
  -4   1  15    2.19    2.82
  -4  -1  15    1.02    3.99
  -4   1  15    6.41    2.37
  -4  -1  15    8.46    3.77
   4  -1 -15    6.06    3.31
   4   1 -15    2.48    2.37
   4  -1 -15   -0.21    2.18
   4   1 -15    2.94    1.56
  -4   1  14   22.26    5.63
  -4  -1  14   16.00    3.84
  -4   1  14   31.68    7.14
  -4  -1  14   21.67    5.50
   4  -1 -14   23.89    6.21
   4   1 -14   29.99    5.21
   4  -1 -14   23.34    5.80
   4   1 -14   21.52    5.28
  -4   1  13  104.31   25.58
  -4  -1  13  119.65    7.14
  -4   1  13  107.07   10.89
  -4  -1  13   93.69    8.98
   4  -1 -13   97.07    9.10
   4   1 -13   88.42    8.71
   4  -1 -13  119.22   15.97
   4   1 -13  121.41   13.42
  -4   1  12   13.17    4.36
  -4  -1  12   11.20    3.81
  -4   1  12   12.79    3.22
  -4  -1  12   17.67    5.10
   4  -1 -12   16.27    4.61
   4   1 -12   16.36    3.29
   4  -1 -12   11.63    4.56
   4   1 -12    8.74    3.10
  -4   1  11  135.69    8.82
  -4  -1  11  143.03    8.56
  -4   1  11  135.67   17.40
  -4  -1  11  115.89    9.21
   4  -1 -11  117.05    8.64
   4  -1 -11  140.75   15.62
   4   1 -11  120.65   17.38
  -4  -1  11  116.88    8.42
   4  -1 -11  117.72   18.44
   4   1 -11  127.43   20.87
  -4  -1  10  251.23   12.03
  -4   1  10  228.49   14.61
  -4  -1  10  253.18   11.93
   4  -1 -10  230.35   10.32
   4  -1 -10  219.12   10.90
   4   1 -10  243.40   10.98
  -4  -1  10  236.37   10.35
   4  -1 -10  253.06   15.22
   4   1 -10  252.76   14.17
  -4   1   9   10.17    3.44
  -4  -1   9    9.83    2.98
  -4   1   9    3.72    0.92
  -4  -1   9    7.37    2.49
   4  -1  -9    5.26    2.06
   4  -1  -9    4.60    2.56
   4   1  -9   10.77    2.52
  -4   1   9   -2.08    2.08
  -4  -1   9    3.90    1.46
   4  -1  -9    4.92    1.96
   4   1  -9    6.55    3.46
  -4   1   8   12.28    3.81
  -4  -1   8    8.53    2.29
  -4   1   8   14.63    2.73
  -4  -1   8   12.84    3.30
   4  -1  -8   11.90    1.89
   4   1  -8    6.33    1.85
   4  -1  -8   23.47    3.62
   4   1  -8    9.81    2.46
  -4   1   8   16.52    3.24
  -4  -1   8   10.34    1.80
   4  -1  -8   16.72    3.94
   4   1  -8   15.34    2.65
  -4   1   7   11.94    4.36
  -4   1   7    8.08    2.19
  -4  -1   7    7.87    2.77
   4  -1  -7   12.74    3.04
   4   1  -7    5.95    2.16
   4  -1  -7    7.72    2.88
   4   1  -7   11.78    3.41
  -4   1   7    8.13    2.93
  -4  -1   7   12.06    2.79
   4  -1  -7   10.19    2.58
   4   1  -7   13.22    4.15
  -4   1   6    9.03    3.32
  -4  -1   6    1.18    2.74
  -4   1   6    4.05    1.08
   4  -1  -6    7.13    2.68
   4   1  -6    6.46    2.47
   4  -1  -6   10.40    3.72
   4   1  -6    9.55    3.15
  -4   1   6    5.04    2.21
  -4  -1   6    5.13    1.29
   4  -1  -6    5.23    1.66
  -4   1   5    5.87    3.00
  -4   1   5    5.33    2.12
  -4  -1   5    1.59    1.96
   4  -1  -5   18.86    2.86
   4   1  -5   10.45    2.87
   4  -1  -5    8.46    4.36
   4   1  -5    2.86    1.51
  -4   1   5    5.69    3.21
  -4  -1   5    3.12    1.02
   4  -1  -5    3.33    2.91
   4   1  -5    3.89    2.70
  -4   1   4  335.98   13.79
  -4  -1   4  323.10   13.58
  -4   1   4  316.36   11.44
  -4  -1   4  318.44   12.52
   4  -1  -4  343.18   14.38
   4   1  -4  286.14   24.62
   4  -1  -4  314.09   12.42
   4   1  -4  338.33   12.14
  -4   1   4  296.87   11.66
  -4  -1   4  301.35   11.43
   4  -1  -4  276.33   13.85
   4   1  -4  326.90   13.45
  -4   1   3  151.40   11.28
  -4  -1   3  153.88   11.53
  -4   1   3  151.86   11.57
  -4  -1   3  152.79   10.90
   4   1  -3  143.17   10.28
   4  -1  -3  155.40   10.45
   4   1  -3  142.38    9.77
   4  -1  -3  159.71   11.62
  -4   1   3  145.12   15.22
  -4  -1   3  147.31   11.52
   4   1  -3  162.92   22.87
  -4   1   2  511.09   19.19
  -4   1   2  476.98   16.73
  -4  -1   2  484.54   17.96
   4   1  -2  426.97   27.20
   4  -1  -2  447.15   16.05
   4   1  -2  459.81   16.00
   4  -1  -2  477.37   17.63
  -4   1   2  448.18   16.61
  -4  -1   2  459.81   16.82
   4   1  -2  470.00   21.65
  -4   1   1  274.77    9.88
  -4  -1   1  316.79   12.36
   4   1  -1  291.06   11.36
   4   1  -1  277.06   10.23
   4  -1  -1  294.32   11.76
  -4   1   1  276.96   10.87
  -4  -1   1  287.31   10.19
   4   1  -1  311.26   12.94
  -4   1   0   95.79    8.16
  -4   1   0   92.60    6.51
  -4  -1   0  108.01   13.44
   4   1   0   88.59    7.54
   4  -1   0   93.82    8.47
  -4   1   0   98.92    7.41
  -4  -1   0   79.81    5.60
   4   1   0   94.82   10.31
  -4  -1   0   74.61   11.42
  -4   1  -1   81.94   13.63
  -4   1  -1  102.91    8.17
  -4  -1  -1  101.80    8.17
  -4   1  -1  115.69    9.61
   4   1   1   93.08    8.03
   4  -1   1  100.70   13.56
  -4  -1  -1   92.61    7.66
  -4   1  -1   98.65    7.46
   4   1   1  111.88   19.33
  -4  -1  -1   89.96   14.08
   4   1   2  617.09   23.06
  -4   1  -2  603.71   21.83
  -4   1  -2  622.23   22.78
  -4   1  -2  647.57   22.43
  -4  -1  -2  593.43   21.75
  -4   1  -2  613.09   22.77
   4   1   2  634.39   21.99
   4  -1   2  610.67   25.23
  -4  -1  -2  623.97   21.64
  -4   1  -2  603.86   21.73
   4   1   2  607.62   22.91
  -4  -1  -2  659.92   24.00
   4   1   3  702.63   25.79
  -4   1  -3  734.84   26.61
  -4   1  -3  764.31   27.32
  -4   1  -3  792.91   27.44
  -4  -1  -3  706.43   25.55
   4  -1   3  748.30   27.49
  -4  -1  -3  751.69   25.93
  -4   1  -3  723.03   25.74
  -4  -1  -3  793.67   27.36
   4   1   3  774.68   27.79
  -4  -1  -3  741.81   26.66
   4   1   4  475.18   19.93
  -4   1  -4  431.01   17.55
  -4   1  -4  463.78   18.95
  -4   1  -4  457.25   18.33
  -4  -1  -4  425.51   17.87
   4  -1   4  464.91   22.39
  -4  -1  -4  445.97   18.27
  -4   1  -4  453.62   18.49
  -4  -1  -4  482.38   19.18
  -4  -1  -4  436.80   17.98
   4   1   5  136.88    7.31
  -4   1  -5   93.04   13.28
  -4   1  -5  143.64   13.33
  -4   1  -5  106.48   12.18
  -4  -1  -5  123.12    6.94
   4  -1   5  128.31   17.40
  -4  -1  -5  108.05   10.36
  -4   1  -5  125.25    6.63
  -4  -1  -5  135.58   12.16
  -4  -1  -5  106.59   12.43
   4   1   6   33.01    4.49
  -4   1  -6   24.36    4.97
  -4   1  -6   32.72    3.69
  -4   1  -6   24.95    3.84
   4  -1   6   31.51    5.20
  -4  -1  -6   27.46    4.37
  -4  -1  -6   28.93    4.53
  -4  -1  -6   21.21    3.42
   4   1   7  145.63   14.86
  -4   1  -7  100.63   15.09
  -4   1  -7  143.79    7.16
  -4   1  -7  111.50   12.98
   4  -1   7  129.22   17.90
  -4  -1  -7   86.86   10.91
  -4  -1  -7  137.08   10.34
  -4  -1  -7  120.67   17.18
   4   1   8  156.56    8.58
  -4   1  -8  128.04   16.28
  -4   1  -8  153.72    6.82
  -4   1  -8  102.97   27.68
   4  -1   8  158.29   16.81
  -4  -1  -8   95.21   13.11
  -4  -1  -8  146.24    6.65
  -4  -1  -8  110.85   11.38
   4   1   9  214.94   14.92
  -4   1  -9  214.94   15.54
  -4   1  -9  222.27    8.80
   4  -1   9  244.78   16.37
  -4  -1  -9  235.93    9.67
  -4  -1  -9  182.74   15.70
   4   1  10  265.63   11.25
  -4   1 -10  231.44    8.96
   4  -1  10  276.53   29.93
  -4  -1 -10  260.02   15.69
  -4  -1 -10  237.22    9.09
   4   1  11   12.69    3.33
  -4   1 -11    7.47    2.49
   4  -1  11    3.50    2.33
  -4  -1 -11   21.63    5.19
  -4  -1 -11   10.66    3.15
   4   1  12   58.04   12.59
  -4   1 -12   49.89    7.99
  -4  -1 -12   73.60   11.37
  -4   1 -12   49.38    7.35
  -4  -1 -12   41.74    8.92
   4   1  13    3.24    1.70
  -4   1 -13    0.48    0.53
  -4  -1 -13    7.25    3.00
  -4   1 -13    1.52    2.85
  -4  -1 -13    2.96    1.07
  -4   1 -13    7.77    3.17
   4   1  14   75.42   13.79
  -4   1 -14   61.16    7.77
  -4  -1 -14   81.37    7.18
  -4   1 -14   79.63   15.53
  -4  -1 -14   62.26    8.64
  -4   1 -14   76.67    7.05
  -4  -1 -14   80.16    5.87
   4   1  15    8.32    2.84
  -4   1 -15    4.48    1.82
  -4  -1 -15    2.94    2.78
  -4   1 -15    7.79    3.43
  -4  -1 -15    2.76    1.15
  -4  -1 -15    2.77    1.68
  -4   1 -15    6.27    2.39
   4   1  16   30.39    7.87
  -4   1 -16   17.07    4.33
  -4  -1 -16   23.43    6.03
  -4   1 -16   33.04    8.56
  -4  -1 -16   10.38    3.38
  -4  -1 -16   32.39    6.14
  -4   1 -16   22.36    5.17
   4   1  17    4.63    2.08
  -4  -1 -17    5.23    3.30
  -4   1 -17    8.20    3.95
  -4  -1 -17    5.01    2.02
  -4   1 -17    8.85    3.61
   4   1  18    8.69    2.49
  -4  -1 -18    6.23    3.83
  -4   1 -18    8.77    4.85
  -4  -1 -18    7.97    2.17
  -4   1 -18    6.01    3.35
   4   1  19    2.99    1.90
  -4  -1 -19    7.39    5.22
  -4   1 -19    8.01    3.91
  -4  -1 -19    3.94    2.00
  -4   1 -19    2.67    2.18
   4   1  20    9.34    2.71
  -4  -1 -20   11.45    5.48
  -4   1 -20   27.99    7.99
  -4   1 -20    3.78    2.50
   4   1  21    3.47    1.43
  -4  -1 -21    8.03    4.73
  -4   1 -21    4.21    3.85
  -4   1 -21    7.92    3.48
   4   1  22    4.65    2.52
  -4  -1 -22    9.87    4.86
  -4   1 -22   22.04    6.58
  -4   1 -22    5.56    2.98
  -4  -1 -23   14.85    4.26
  -4   1 -23   36.87    7.37
  -4  -1 -24    1.03    3.60
  -4   1 -24    5.00    5.34
  -4  -1 -25    6.90    3.04
  -4   1 -25   19.49    6.59
  -4  -1 -26    5.19    4.10
  -4   1 -26    8.82    5.55
  -4  -1 -27    2.77    3.56
  -4   1 -27   13.11    7.27
  -4  -1 -28   10.59    5.46
  -4   1 -28    8.20    3.56
  -4   2  32    5.17    4.31
  -4  -2  32   18.99    6.79
   4  -2 -32    9.82    5.20
   4   2 -32   18.86    7.77
   4   2 -32    0.63    2.81
  -4   2  31    9.20    4.07
  -4  -2  31    4.55    4.02
   4   2 -31    2.85    2.63
   4   2 -31    3.54    2.52
  -4   2  30    6.75    2.39
  -4  -2  30    9.25    5.36
   4  -2 -30   -1.41    2.27
   4   2 -30   72.97   19.88
   4   2 -30    4.01    2.80
  -4   2  29   39.30   10.27
  -4   2  29   25.91    8.75
  -4  -2  29   15.16    5.45
   4  -2 -29   23.39    7.55
   4   2 -29   15.21    6.95
   4   2 -29   14.25    6.70
  -4   2  28   14.57    6.16
  -4  -2  28    2.00    1.41
  -4   2  28   16.58    6.16
  -4  -2  28   15.37    5.63
   4  -2 -28   11.28    4.72
   4   2 -28   10.09    4.70
   4  -2 -28    9.85    3.93
   4   2 -28    8.71    2.05
  -4   2  27   11.22    4.68
  -4  -2  27   15.62    6.14
  -4   2  27   16.48    5.44
  -4  -2  27   16.75    6.93
   4  -2 -27   13.71    6.39
   4   2 -27   18.65    6.83
   4  -2 -27   21.82    5.31
   4   2 -27   12.10    5.06
  -4   2  26    8.04    4.03
  -4  -2  26    5.30    3.94
  -4   2  26   11.88    4.24
  -4  -2  26   16.95    3.38
   4  -2 -26    8.46    5.22
   4   2 -26    9.99    5.37
   4  -2 -26    5.43    3.29
   4   2 -26   14.88    3.84
  -4   2  25   12.99    4.74
  -4  -2  25    1.99    2.97
  -4   2  25   11.07    5.55
  -4  -2  25   10.28    4.02
   4  -2 -25   10.44    5.01
   4   2 -25   16.54    6.38
   4  -2 -25    4.30    1.90
   4   2 -25   19.01    5.49
  -4   2  24   13.19    5.30
  -4  -2  24   13.49    4.41
  -4   2  24    7.97    4.62
  -4  -2  24   17.56    7.51
   4  -2 -24   20.59    5.93
   4   2 -24   16.38    5.79
   4  -2 -24   15.84    6.25
   4   2 -24    8.20    3.54
  -4   2  23   16.18    6.10
  -4  -2  23   15.68    4.93
  -4   2  23   16.26    5.26
  -4  -2  23   19.42    5.81
   4  -2 -23   22.10    6.28
   4   2 -23   19.05    6.08
   4  -2 -23   13.29    4.23
   4   2 -23   10.14    3.01
  -4   2  22    9.38    4.67
  -4  -2  22    0.09    2.57
  -4   2  22    9.39    2.01
  -4  -2  22   12.07    5.98
   4  -2 -22    2.89    4.15
   4   2 -22    6.01    3.66
   4  -2 -22    9.23    3.00
   4   2 -22    0.73    3.76
  -4   2  21    5.26    3.28
  -4  -2  21    5.43    2.61
  -4   2  21    8.05    3.07
  -4  -2  21   10.04    6.21
   4  -2 -21   11.91    7.46
   4   2 -21   -0.48    2.53
   4  -2 -21    2.89    2.06
   4   2 -21   12.32    4.21
  -4   2  20   63.07    6.58
  -4  -2  20   60.60    6.04
  -4   2  20   52.92    9.85
  -4  -2  20   42.64   10.44
   4  -2 -20   36.66    8.62
   4   2 -20   59.76    6.48
   4  -2 -20   53.41    6.23
   4   2 -20   68.76    8.49
  -4   2  19   -1.89    2.93
  -4  -2  19    6.80    3.89
  -4   2  19    1.98    1.65
  -4  -2  19    7.72    3.37
   4  -2 -19    4.88    3.87
   4   2 -19    1.78    1.92
   4  -2 -19    6.87    3.76
   4   2 -19   -2.15    3.60
  -4   2  18   23.25    5.53
  -4  -2  18   18.92    5.71
  -4   2  18   24.06    5.10
  -4  -2  18   39.71    7.83
   4  -2 -18   20.74    5.60
   4   2 -18   13.61    3.97
   4  -2 -18   27.38    4.76
   4   2 -18   21.90    5.77
  -4   2  17   61.57    9.35
  -4  -2  17   45.03    6.66
  -4   2  17   66.26   12.50
  -4  -2  17   61.28   11.75
   4  -2 -17   54.42    8.21
   4   2 -17   46.57   11.03
   4  -2 -17   56.96   10.33
   4   2 -17   61.85    9.83
  -4   2  16    7.68    3.06
  -4  -2  16    5.44    2.76
  -4   2  16    7.95    2.52
  -4  -2  16    4.91    3.62
   4  -2 -16    9.45    4.39
   4   2 -16    7.41    2.98
   4  -2 -16   12.84    5.28
   4   2 -16    8.69    2.97
  -4   2  15   22.61    5.30
  -4  -2  15   25.77    6.16
  -4   2  15   45.57    8.15
  -4  -2  15   40.85    7.50
   4  -2 -15   18.97    5.08
   4   2 -15   33.97    6.54
   4  -2 -15   18.60    5.65
   4   2 -15   35.82    7.44
  -4   2  14   14.69    5.60
  -4  -2  14    3.52    3.01
  -4   2  14    4.15    2.38
  -4  -2  14   19.59    5.13
   4  -2 -14   13.28    3.99
   4   2 -14    9.20    3.06
   4  -2 -14    8.22    2.76
   4   2 -14    4.68    1.99
  -4   2  13  257.99   11.91
  -4  -2  13  246.13   10.89
  -4   2  13  241.26   11.17
  -4  -2  13  261.92   11.76
   4  -2 -13  254.50   11.96
   4   2 -13  261.00   11.00
   4  -2 -13  254.94   26.15
   4   2 -13  244.14   15.00
  -4   2  12   -2.06    3.29
  -4  -2  12    1.79    2.75
  -4   2  12    1.04    1.24
  -4  -2  12    4.81    4.45
   4  -2 -12    2.13    1.60
   4   2 -12    1.54    1.89
   4  -2 -12    1.83    1.80
   4   2 -12    2.51    3.79
  -4  -2  11  162.67    8.21
  -4   2  11  169.49   12.08
   4  -2 -11  147.32    6.58
  -4  -2  11  189.27   21.96
   4  -2 -11  178.08    9.57
   4   2 -11  168.15    7.53
   4  -2 -11  163.26   17.97
   4   2 -11  175.34   19.86
  -4   2  10   29.52    5.16
  -4  -2  10   30.15    4.33
  -4   2  10   17.19    3.08
   4  -2 -10   22.36    3.04
  -4  -2  10   30.70    5.37
   4  -2 -10   26.70    5.09
   4   2 -10   19.80    3.22
   4  -2 -10   31.11    4.60
   4   2 -10   25.93    3.98
  -4   2   9   52.10    6.13
  -4  -2   9   55.83    5.50
  -4   2   9   64.46   10.16
   4  -2  -9   51.05    4.35
  -4  -2   9   39.74    4.54
   4  -2  -9   72.21    8.11
   4   2  -9   61.14    7.58
   4  -2  -9   72.87   13.21
   4   2  -9   44.27    6.82
  -4   2   8   91.57    8.42
  -4  -2   8   77.50    7.58
  -4   2   8   76.17   10.18
   4  -2  -8   76.02    7.00
  -4  -2   8   74.69    6.66
   4   2  -8   74.38    6.95
   4  -2  -8   78.92    7.18
   4   2  -8   89.21    9.23
   4  -2  -8   95.00    8.12
   4   2  -8   82.29   17.60
  -4   2   7  571.01   24.14
  -4   2   7  492.23   19.36
   4  -2  -7  524.79   20.53
  -4  -2   7  515.12   21.49
   4   2  -7  505.01   19.69
   4  -2  -7  488.69   21.04
   4   2  -7  497.94   19.55
   4   2  -7  515.69   25.46
  -4   2   6   -0.51    3.03
  -4  -2   6    3.72    3.85
  -4   2   6    3.67    0.87
   4  -2  -6    2.91    1.24
  -4  -2   6    2.33    2.69
   4   2  -6    4.08    1.22
   4  -2  -6   15.65    4.85
   4   2  -6    4.84    1.42
   4   2  -6    5.24    2.38
   4   2  -5    0.88    0.40
   4   2  -5  127.37   20.59
   4  -2  -4    0.26    0.39
   4   2  -3  180.09   16.05
  -4   2   3  229.56   10.52
  -4  -2   3  197.87    9.38
   4   2  -3  190.91    8.68
   4  -2  -3  196.89   11.82
  -4   2   3  171.81   12.37
   4   2  -3  199.02   15.04
   4   2  -2  156.86   21.28
  -4  -2   2  145.92   11.51
   4   2  -2  136.19   10.10
   4  -2  -2  150.79   11.19
  -4   2   2  150.43   10.99
   4   2  -2  164.30   21.66
  -4   2   1  361.77   14.28
  -4  -2   1  347.28   14.19
   4   2  -1  308.72   12.33
   4  -2  -1  353.90   14.16
  -4   2   1  328.13   13.03
   4   2  -1  356.39   19.90
   4   2   0   18.89    4.24
  -4   2   0   32.19    4.12
  -4  -2   0   23.38    3.75
   4   2   0    8.12    2.43
   4  -2   0   17.56    3.11
  -4   2   0   26.61    3.87
   4   2   0   25.68    4.25
  -4  -2   0   16.96    3.19
  -4   2  -1    4.40    3.77
   4  -2   1    6.34    2.01
  -4   2  -1    2.44    0.80
  -4   2  -1    2.77    0.92
  -4  -2  -1    5.35    2.79
   4  -2   1    8.24    2.29
  -4  -2  -1    2.05    0.69
  -4   2  -1    4.73    2.00
  -4  -2  -1    1.75    0.68
   4   2   1    3.83    2.12
  -4  -2  -1    7.72    3.28
  -4   2  -2   23.31    3.50
  -4   2  -2   17.97    2.49
  -4  -2  -2   21.56    3.53
  -4   2  -2   18.48    2.23
   4  -2   2   22.14    3.22
  -4  -2  -2   17.21    2.07
  -4   2  -2   15.78    2.65
  -4  -2  -2   20.18    2.95
   4   2   2   14.91    3.40
  -4  -2  -2   13.92    2.24
   4   2   3    5.84    2.98
  -4   2  -3    7.74    2.91
  -4   2  -3    1.41    1.35
  -4  -2  -3    6.65    1.65
  -4  -2  -3    2.00    1.09
   4  -2   3    7.43    2.60
  -4  -2  -3    1.75    0.46
   4   2   3    3.26    1.44
  -4  -2  -3    4.95    1.61
  -4   2  -4  198.24   16.91
   4   2   4  212.28   13.29
  -4   2  -4  202.79    9.23
  -4   2  -4  213.02    9.01
  -4  -2  -4  221.71   11.10
  -4  -2  -4  196.84   10.73
   4  -2   4  214.98   14.09
  -4  -2  -4  221.49    9.15
   4   2   4  209.05   11.87
  -4  -2  -4  217.82    9.71
  -4   2  -5   21.96    3.14
   4   2   5   19.81    4.66
  -4   2  -5   20.18    2.88
  -4   2  -5   17.93    3.05
  -4  -2  -5   27.12    4.76
  -4  -2  -5   10.33    2.32
   4  -2   5   19.64    3.60
  -4  -2  -5   18.53    2.51
   4   2   5   20.14    3.78
  -4  -2  -5   17.81    3.49
  -4   2  -6   52.47    8.83
   4   2   6   73.57   14.31
  -4   2  -6   57.95    4.89
  -4   2  -6   52.03    7.99
  -4  -2  -6   65.36    7.11
  -4  -2  -6   48.22    6.68
   4  -2   6   56.48   11.22
  -4  -2  -6   60.98    9.72
  -4  -2  -6   46.11    7.72
  -4   2  -7  125.51   12.49
   4   2   7  167.35   18.75
  -4   2  -7  135.18    6.10
  -4   2  -7  124.82   10.35
  -4  -2  -7  111.76   15.63
   4  -2   7  155.30   16.43
  -4  -2  -7  127.91    9.57
  -4  -2  -7  129.51   11.45
   4   2   8   20.84    5.20
  -4   2  -8   10.66    2.74
  -4   2  -8   17.66    3.66
  -4   2  -8   11.71    2.53
  -4  -2  -8   11.45    3.19
   4  -2   8   21.62    5.57
  -4  -2  -8   12.06    3.42
  -4  -2  -8   12.01    2.96
   4   2   9  140.33   16.67
  -4   2  -9  121.02   11.75
  -4   2  -9  148.79   11.34
  -4   2  -9  120.54   10.13
   4  -2   9  154.63   19.50
  -4  -2  -9  113.28    9.87
  -4  -2  -9  108.41    9.81
  -4  -2  -9  109.21    9.43
   4   2  10   29.53    6.68
  -4   2 -10   22.15    5.09
  -4   2 -10   38.80    5.32
   4  -2  10   21.35    5.56
  -4  -2 -10   30.96    4.76
  -4  -2 -10   26.80    5.23
   4   2  11    3.25    1.81
  -4   2 -11    3.92    1.59
  -4   2 -11    5.07    2.09
   4  -2  11    3.81    2.10
  -4  -2 -11    8.17    3.27
  -4  -2 -11    3.63    1.31
   4   2  12  130.15   14.26
  -4   2 -12   93.98   12.77
  -4   2 -12  131.95    8.40
   4  -2  12  151.84   16.51
  -4  -2 -12  152.11   10.60
  -4  -2 -12  112.81   10.26
  -4   2 -12  116.66    9.17
   4   2  13  107.63   12.91
  -4   2 -13   75.77    9.32
  -4   2 -13  108.11    7.14
   4  -2  13   95.98   16.56
  -4  -2 -13  105.17    7.95
  -4  -2 -13   87.54    8.55
  -4   2 -13   98.97    8.57
   4   2  14   42.85    9.67
  -4   2 -14   24.75    3.94
  -4   2 -14   31.11    4.77
   4  -2  14   33.56    7.85
  -4  -2 -14   34.88    5.98
  -4  -2 -14   24.54    5.62
  -4   2 -14   17.40    4.87
  -4  -2 -14   37.16    5.69
   4   2  15  170.15   23.82
  -4   2 -15  145.38   11.85
  -4   2 -15  184.78   11.57
  -4  -2 -15  181.96   13.02
  -4   2 -15  173.78   13.14
  -4  -2 -15  142.33   10.58
  -4  -2 -15  168.84   10.80
  -4   2 -15  182.57   13.44
   4   2  16   39.85    9.32
  -4   2 -16   37.49    6.37
  -4  -2 -16   43.70    9.45
  -4   2 -16   38.78    8.43
  -4  -2 -16   31.20    6.51
  -4   2 -16   40.15    7.81
   4   2  17    5.60    2.94
  -4   2 -17    6.80    1.32
  -4  -2 -17    5.07    3.26
  -4   2 -17   10.18    5.53
  -4  -2 -17    0.89    0.62
  -4   2 -17   12.09    5.03
   4   2  18    9.82    2.89
  -4  -2 -18   11.79    5.11
  -4   2 -18    5.24    2.88
  -4   2 -18    3.82    3.20
   4   2  19  148.41   25.22
  -4  -2 -19  154.09   26.76
  -4   2 -19  156.97   18.81
  -4   2 -19  172.94   11.28
   4   2  20   29.44    6.20
  -4  -2 -20    7.53    3.33
  -4   2 -20   16.60    5.57
  -4   2 -20   26.79    7.00
   4   2  21    7.09    2.88
  -4  -2 -21   13.64    5.12
  -4   2 -21    2.21    4.27
  -4   2 -21    9.83    3.79
   4   2  22    3.59    2.54
  -4  -2 -22    6.83    4.92
  -4   2 -22    2.43    3.90
  -4   2 -22    7.97    4.41
   4   2  23   -0.64    1.60
  -4  -2 -23   18.20    5.67
  -4   2 -23   18.08    5.61
  -4   2 -23   24.70    6.15
   4   2  24   11.90    4.37
  -4  -2 -24    7.31    4.52
  -4   2 -24   15.80    6.34
  -4  -2 -25    8.19    4.13
  -4   2 -25    5.00    4.58
  -4  -2 -26    9.00    4.37
  -4   2 -26   19.61    7.83
  -4  -2 -27   -1.24    4.19
  -4   2 -27   12.01    7.44
  -4  -2 -28    4.16    4.14
  -4   2 -28   18.52    8.44
  -4   3  31   17.87    7.47
  -4  -3  31   24.67    9.93
   4  -3 -31   10.98    7.75
   4   3 -31    8.19    4.26
   4   3 -31   15.79    9.60
  -4   3  30   13.42    6.10
  -4  -3  30   15.51    6.23
   4  -3 -30   10.59    5.83
   4   3 -30    8.33    4.64
   4   3 -30    5.98    2.97
  -4   3  29   -0.16    3.29
  -4  -3  29   13.30    5.83
   4  -3 -29   26.15    9.63
   4   3 -29   23.67    8.16
   4   3 -29   14.48    5.65
  -4   3  28    3.83    4.02
  -4  -3  28   11.50    5.66
   4  -3 -28    2.10    4.54
   4   3 -28    6.64    3.82
   4   3 -28    2.19    2.39
  -4   3  27    8.72    4.12
  -4  -3  27    4.98    3.28
  -4  -3  27    5.44    3.71
   4  -3 -27   12.52    5.36
   4   3 -27    7.09    4.83
   4  -3 -27    3.91    2.44
   4   3 -27   18.69    5.29
  -4   3  26   11.94    5.80
  -4  -3  26    1.84    2.35
  -4  -3  26   -1.14    3.89
   4  -3 -26    4.63    4.55
   4   3 -26   -0.31    3.74
   4  -3 -26    5.80    2.64
   4   3 -26   10.58    5.54
  -4   3  25   21.88    6.75
  -4  -3  25   20.39    4.74
  -4  -3  25   21.84    6.34
   4  -3 -25   16.40    6.47
   4   3 -25   20.91    5.58
   4  -3 -25   23.62    6.20
   4   3 -25   17.05    5.77
  -4   3  24   32.92    7.30
  -4  -3  24   25.37    4.56
  -4  -3  24   40.23   10.78
   4  -3 -24   17.75    7.29
   4   3 -24   32.23    9.28
   4  -3 -24   28.28    5.60
   4   3 -24   28.31    6.67
  -4   3  23   42.93    7.00
  -4  -3  23   26.33    6.66
  -4  -3  23   32.58    8.13
   4  -3 -23   41.16   10.71
   4   3 -23   25.25    8.41
   4  -3 -23   24.53    6.13
   4   3 -23   37.67    8.06
  -4   3  22   35.67    6.52
  -4  -3  22   15.74    4.74
  -4  -3  22   30.31    7.64
   4  -3 -22   23.11    8.16
   4   3 -22   13.40    4.03
   4  -3 -22   15.58    4.72
   4   3 -22   16.57    4.94
  -4   3  21   17.54    5.54
  -4  -3  21   32.10    6.62
  -4  -3  21   24.35    5.66
   4  -3 -21   27.94    7.60
   4   3 -21   22.40    6.72
   4  -3 -21   19.94    4.87
   4   3 -21   26.30    7.17
  -4   3  20    3.99    3.18
  -4  -3  20    3.41    2.45
  -4  -3  20    8.42    2.96
   4  -3 -20   11.40    5.43
   4   3 -20    2.59    2.75
   4  -3 -20    8.83    4.65
   4   3 -20    7.65    3.47
  -4   3  19  166.86   14.87
  -4  -3  19  179.89   14.77
  -4  -3  19  142.10   20.77
   4  -3 -19  133.37   12.40
   4   3 -19  153.56   21.95
   4  -3 -19  156.59   12.83
   4   3 -19  150.60   13.57
  -4   3  18   78.89    8.97
  -4  -3  18   67.24    7.47
  -4   3  18   65.62    6.99
  -4  -3  18   63.83    7.78
   4  -3 -18   65.89    8.19
   4   3 -18   62.25   13.27
   4  -3 -18   82.88    8.03
   4   3 -18   54.38    7.82
  -4   3  17   26.80    5.55
  -4  -3  17   15.17    4.58
  -4   3  17   14.77    4.43
  -4  -3  17   10.16    4.54
   4  -3 -17   24.38    6.12
   4   3 -17   18.52    5.61
   4  -3 -17   15.44    4.23
   4   3 -17   18.22    5.93
  -4   3  16    8.24    4.38
  -4  -3  16    4.31    2.79
  -4   3  16    0.85    2.15
  -4  -3  16    5.55    4.01
   4  -3 -16   15.38    6.66
   4   3 -16    4.63    2.36
   4   3 -16    3.39    3.83
  -4   3  15    7.74    4.14
  -4  -3  15   13.19    4.02
  -4   3  15    6.00    2.95
  -4  -3  15   13.72    5.26
   4  -3 -15    0.27    3.73
   4   3 -15   17.92    5.04
   4   3 -15   14.61    5.64
  -4   3  14    8.78    3.67
  -4  -3  14    1.87    2.60
  -4  -3  14   10.05    4.11
   4  -3 -14    2.49    3.56
   4   3 -14    3.97    2.54
   4   3 -14    7.72    5.15
  -4  -3  13   11.88    4.01
  -4  -3  13   12.05    4.29
   4  -3 -13   11.86    4.52
   4   3 -13   14.24    4.24
  -4   3  12   45.90    7.63
  -4  -3  12   57.30    8.87
   4  -3 -12   51.47    7.07
  -4  -3  12   51.79    8.62
   4   3 -12   26.56    7.05
   4  -3 -12   49.79    8.04
   4   3 -12   47.12    8.27
   4   3 -12   74.00   12.28
  -4   3  11   11.35    4.77
  -4  -3  11   17.95    4.51
   4  -3 -11    9.26    2.78
  -4  -3  11   11.84    4.04
   4   3 -11    9.59    3.03
   4  -3 -11    8.72    3.42
   4   3 -11   10.55    2.63
   4   3 -11   25.04    6.17
  -4   3  10    6.49    3.22
  -4  -3  10   11.17    3.06
   4  -3 -10   10.21    2.48
  -4  -3  10   11.91    3.94
   4   3 -10   11.17    2.91
   4  -3 -10   20.92    4.39
   4   3 -10   15.64    3.36
   4   3 -10   21.44    5.62
  -4   3   9   21.79    5.68
   4  -3  -9    5.28    1.42
  -4  -3   9    1.93    3.41
   4   3  -9    7.07    2.08
   4  -3  -9   12.60    4.62
   4   3  -9    7.28    2.12
   4   3  -9    6.73    3.05
  -4   3   8    3.17    3.29
   4  -3  -8    1.94    1.04
  -4  -3   8    9.24    3.58
   4   3  -8    4.57    1.02
   4  -3  -8    3.19    3.00
   4   3  -8   -0.25    0.98
   4   3  -8    3.12    3.38
  -4   3   7   16.88    5.20
   4  -3  -7    5.61    1.22
  -4  -3   7   16.65    5.22
   4   3  -7    4.32    0.85
   4  -3  -7   11.62    4.57
   4   3  -7   11.86    2.63
   4   3  -6  127.42   10.87
  -4   3   6  123.46    8.11
   4  -3  -6  116.99    7.90
  -4  -3   6  135.23    8.33
   4   3  -6  102.43    8.44
   4  -3  -6  120.01   10.40
   4   3  -6  123.99    7.07
   4   3  -6  128.25   19.53
   4   3  -5    6.45    2.64
  -4   3   5    9.43    3.28
   4  -3  -5   -0.01    0.29
  -4  -3   5    7.59    3.49
   4   3  -5    1.15    0.45
   4  -3  -5    6.90    3.32
   4   3  -5    8.28    1.25
   4   3  -5    3.71    2.48
   4   3  -4   27.87    4.83
  -4   3   4   20.47    3.20
  -4  -3   4   24.50    4.39
   4  -3  -4   17.93    3.82
   4   3  -4   17.74    2.72
   4   3  -3    9.55    2.05
  -4   3   3   11.60    3.68
  -4  -3   3    4.41    4.03
   4  -3  -3   19.36    4.06
   4   3  -3   15.28    4.09
   4   3  -2  127.40   14.80
  -4   3   2  113.60    8.80
  -4  -3   2  114.62    9.62
   4  -3  -2  105.56    8.93
   4   3  -2  121.74   17.27
   4   3  -1   33.39    5.73
  -4   3   1   29.21    4.27
  -4  -3   1   21.32    4.15
   4  -3  -1   39.31    5.23
   4   3  -1   33.38    5.86
   4   3   0  164.58   16.23
  -4   3   0  184.91    9.19
  -4  -3   0  166.84   18.00
   4  -3   0  181.43    9.61
   4   3   0  166.95   10.74
   4   3   1    9.23    4.28
  -4   3  -1   10.80    3.64
  -4  -3  -1    3.68    2.21
   4  -3   1    1.27    2.78
   4   3   1    5.38    2.06
  -4  -3  -1   -0.40    1.71
  -4   3  -2  270.52   12.02
   4  -3   2  248.36   10.98
  -4   3  -2  251.44    9.68
  -4  -3  -2  279.18   13.53
  -4  -3  -2  249.38   10.33
   4  -3   2  262.07   12.41
  -4  -3  -2  255.19   10.33
   4   3   2  284.38   17.80
  -4  -3  -2  239.57   11.28
   4   3   3   94.55   15.72
  -4   3  -3  119.74    9.17
   4  -3   3  105.07    7.96
  -4   3  -3   93.11    6.22
  -4  -3  -3  101.06    9.28
   4  -3   3   99.45   13.37
  -4  -3  -3   97.04    7.80
   4   3   3  102.89   14.97
  -4  -3  -3   84.86    6.48
   4   3   4  169.63   13.69
  -4   3  -4  191.16    9.09
   4  -3   4  157.24    7.51
  -4   3  -4  156.97    6.68
  -4  -3  -4  205.85   24.56
  -4  -3  -4  150.65   10.44
   4  -3   4  165.51   22.51
  -4  -3  -4  175.22    7.49
   4   3   4  169.44    8.70
  -4  -3  -4  160.09    7.54
   4   3   5   14.22    3.89
  -4   3  -5   12.23    3.54
  -4   3  -5    6.24    1.42
  -4  -3  -5    8.81    4.88
  -4  -3  -5    3.48    0.96
   4  -3   5   11.08    2.89
  -4  -3  -5    6.51    1.92
   4   3   5   10.22    2.71
  -4  -3  -5    8.89    2.30
  -4   3  -6    6.18    1.95
   4   3   6    5.61    1.67
  -4   3  -6   25.07    4.35
  -4   3  -6    1.25    0.64
  -4  -3  -6    5.02    4.27
  -4  -3  -6    2.80    0.93
   4  -3   6    4.82    2.50
  -4  -3  -6    6.78    1.78
   4   3   6    4.31    1.44
  -4  -3  -6    2.11    1.19
  -4   3  -7   14.58    3.22
   4   3   7   24.30    6.46
  -4   3  -7   22.32    4.28
   4  -3   7   19.07    4.37
  -4   3  -7   18.99    3.49
  -4  -3  -7   11.71    3.63
  -4  -3  -7   18.04    3.60
   4  -3   7   12.52    4.26
  -4  -3  -7   24.39    4.73
   4   3   7   25.60    5.79
  -4  -3  -7   11.86    3.23
  -4   3  -8  398.19   21.09
   4   3   8  455.46   18.42
  -4   3  -8  446.25   15.58
   4  -3   8  395.43   14.38
  -4   3  -8  386.80   13.84
  -4  -3  -8  452.18   18.05
   4  -3   8  435.70   25.87
  -4  -3  -8  449.22   16.07
  -4  -3  -8  382.24   13.98
  -4   3  -9   36.39    6.69
   4   3   9   36.76    8.27
  -4   3  -9   42.77    5.81
   4  -3   9   42.55    8.27
  -4   3  -9   28.24    4.15
  -4  -3  -9   24.53    7.14
   4  -3   9   61.45   10.78
  -4  -3  -9   35.06    6.75
  -4  -3  -9   31.22    4.39
  -4   3 -10  135.10    9.51
   4   3  10  153.12   19.48
  -4   3 -10  147.27    7.37
   4  -3  10  147.03   17.76
   4  -3  10  152.98   19.65
  -4  -3 -10  141.15    9.48
  -4  -3 -10  145.49    8.76
   4   3  11   19.16    5.17
  -4   3 -11   13.99    3.48
  -4   3 -11   13.69    3.17
   4  -3  11   14.57    3.95
   4  -3  11   17.84    4.73
  -4  -3 -11   14.34    3.95
  -4  -3 -11   11.96    2.90
  -4   3 -11   12.23    3.91
   4   3  12   13.57    4.49
  -4   3 -12    5.80    1.48
  -4   3 -12    4.03    1.39
   4  -3  12    0.00    1.76
   4  -3  12    0.89    3.41
  -4  -3 -12    4.33    2.04
  -4  -3 -12    1.76    0.60
  -4   3 -12   -0.85    2.91
   4   3  13   46.87    9.71
  -4   3 -13   34.19    6.04
  -4   3 -13   49.52    6.86
   4  -3  13   49.36   10.75
   4  -3  13   48.46   10.43
  -4  -3 -13   51.64    8.75
  -4  -3 -13   32.58    6.04
  -4   3 -13   41.43    7.26
   4   3  14   53.08   11.37
  -4   3 -14   38.88    5.41
  -4   3 -14   32.07    5.87
   4  -3  14   34.89    8.11
   4  -3  14   50.15    9.41
  -4  -3 -14   41.08    6.98
  -4  -3 -14   27.71    5.05
  -4  -3 -14   24.21    5.51
  -4   3 -14   45.37    8.27
   4   3  15    3.96    1.70
  -4   3 -15    2.64    0.77
   4  -3  15    8.39    4.49
   4  -3  15    2.21    5.48
  -4  -3 -15   14.36    4.86
  -4   3 -15    3.87    3.44
   4   3  16   49.01    7.19
   4  -3  16   48.95    7.63
   4  -3  16   78.22   11.05
  -4  -3 -16   68.27    6.90
  -4   3 -16   65.21    6.60
   4   3  17   11.87    3.64
   4  -3  17   19.66    5.23
  -4  -3 -17    9.33    3.43
  -4   3 -17   18.62    4.60
   4   3  18    8.35    4.24
   4  -3  18   22.20    5.18
  -4  -3 -18   11.76    4.40
  -4   3 -18   11.44    5.54
  -4   3 -18   11.65    5.28
   4   3  19   -3.30    2.84
   4  -3  19    3.13    2.96
  -4  -3 -19    1.25    3.15
  -4   3 -19   14.17    4.68
  -4   3 -19    3.92    3.25
   4   3  20    8.80    2.96
  -4  -3 -20    7.19    3.64
  -4   3 -20    7.21    5.66
  -4   3 -20    9.22    3.64
   4   3  21   17.85    5.94
  -4  -3 -21   33.42    7.21
  -4   3 -21   23.33    6.72
  -4   3 -21   12.49    4.51
   4   3  22    4.12    1.96
  -4  -3 -22   12.13    4.23
  -4   3 -22   12.70    3.88
  -4   3 -22    7.69    5.30
   4   3  23    7.45    2.93
  -4  -3 -23    6.65    3.55
  -4   3 -23    3.16    4.22
   4   3  24    8.82    2.10
  -4  -3 -24   11.52    5.32
  -4   3 -24   16.73    7.06
  -4   3 -24    8.83    3.61
   4   3  25   -0.27    2.42
  -4  -3 -25    6.35    5.44
  -4   3 -25   28.16    9.46
  -4  -3 -26   27.94    8.72
  -4   3 -26   18.57    7.58
  -4  -3 -27   -3.84    3.90
  -4   3 -27    9.08    5.33
  -4  -3 -28    7.49    5.60
  -4   3 -28   10.73    3.96
  -4   4  30   16.63    5.56
  -4  -4  30   12.51    4.17
   4  -4 -30    7.85    5.29
   4   4 -30    3.80    1.85
   4   4 -30   13.18    4.67
  -4   4  29    4.61    5.23
  -4  -4  29    9.48    4.75
   4  -4 -29   24.61    9.14
   4   4 -29    5.46    2.94
   4   4 -29    6.09    2.96
  -4   4  28    9.39    5.72
  -4  -4  28    5.17    3.50
   4  -4 -28    3.05    5.42
   4   4 -28    5.40    4.08
   4   4 -28    8.66    4.95
  -4   4  27    4.58    4.09
  -4  -4  27    8.42    3.13
   4  -4 -27   10.09    7.68
   4   4 -27    9.17    3.68
   4   4 -27    2.13    3.91
  -4   4  26    6.16    3.94
  -4  -4  26    6.66    3.08
   4  -4 -26    1.05    4.73
   4   4 -26    4.63    2.35
   4   4 -26    0.83    3.63
  -4   4  25    5.95    3.67
  -4  -4  25    9.26    3.73
  -4  -4  25   15.55    3.75
   4  -4 -25   23.01    7.34
   4   4 -25    5.51    4.69
   4   4 -25   12.72    5.44
  -4   4  24   26.29    8.24
  -4  -4  24   10.54    4.44
  -4  -4  24    7.07    3.11
   4  -4 -24   -1.05    4.37
   4   4 -24   29.31    6.90
   4   4 -24    9.12    5.41
  -4   4  23    4.59    3.87
  -4  -4  23   15.80    4.88
  -4  -4  23   15.58    5.76
   4  -4 -23    6.06    4.31
   4   4 -23   15.71    5.01
   4   4 -23   12.74    5.63
  -4   4  22    4.88    3.52
  -4  -4  22    8.35    3.28
  -4  -4  22   13.52    6.50
   4  -4 -22    9.35    5.09
   4   4 -22    9.11    3.66
   4   4 -22    9.34    3.53
  -4   4  21   22.38    6.79
  -4  -4  21   17.22    4.76
  -4  -4  21   17.37    4.61
   4  -4 -21   21.28    7.30
   4   4 -21   15.85    5.46
   4   4 -21   19.23    7.91
  -4   4  20    3.01    3.83
  -4  -4  20   12.14    4.96
  -4  -4  20    4.18    4.41
   4  -4 -20   11.14    4.93
   4   4 -20    3.40    3.08
   4   4 -20    0.97    3.70
  -4   4  19   16.76    6.40
  -4  -4  19    9.83    3.64
  -4  -4  19   11.55    5.28
   4  -4 -19   34.57    8.66
   4   4 -19   12.57    4.82
   4   4 -19   26.52    6.25
  -4   4  18   24.38    6.73
  -4  -4  18   10.12    3.83
  -4  -4  18    8.89    3.77
   4  -4 -18   15.01    5.03
   4   4 -18    2.39    2.63
   4   4 -18   10.76    5.65
  -4   4  17   86.58    9.36
  -4  -4  17  113.03   10.02
  -4  -4  17   75.12    9.58
   4  -4 -17   82.58    9.33
   4   4 -17   98.60   11.54
   4   4 -17  100.55   11.05
  -4   4  16   49.92    8.93
  -4  -4  16   61.63    6.44
  -4  -4  16   50.12    9.18
   4  -4 -16   72.37    9.53
   4   4 -16   47.92    7.98
   4   4 -16   55.23    9.68
  -4   4  15   59.44    8.72
  -4  -4  15   52.62    9.37
  -4  -4  15   58.86   13.39
   4  -4 -15   57.96   13.72
   4   4 -15   48.77    7.66
   4   4 -15   57.74   12.74
  -4   4  14   29.76    5.99
  -4  -4  14   26.16    6.62
  -4  -4  14   32.82    9.09
   4  -4 -14   31.30    6.89
   4   4 -14   23.16    5.64
   4   4 -14   20.58    6.24
  -4   4  13   29.30    5.25
  -4  -4  13   39.59    6.12
  -4  -4  13   41.81    7.90
   4  -4 -13   40.67    7.37
   4   4 -13   42.98    6.05
   4   4 -13   59.11    8.76
  -4   4  12    7.29    3.50
  -4  -4  12    6.14    4.25
  -4  -4  12   10.72    4.53
   4  -4 -12   14.95    5.84
   4   4 -12    7.96    2.91
   4   4 -12    7.43    2.58
  -4   4  11    2.65    2.82
  -4  -4  11    6.61    3.30
   4  -4 -11    1.67    1.00
  -4  -4  11    7.17    4.84
   4   4 -11    1.40    0.87
   4  -4 -11    2.74    4.08
   4   4 -11    3.86    2.44
   4   4 -11   17.85    5.35
  -4   4  10    5.15    3.14
   4  -4 -10    6.11    2.11
  -4  -4  10   12.71    4.55
   4   4 -10    4.11    1.68
   4  -4 -10   17.36    7.02
   4   4 -10    4.80    1.80
   4   4 -10    6.52    4.02
  -4   4   9  127.16   10.04
   4  -4  -9  108.20   12.18
  -4  -4   9  133.15    8.71
   4   4  -9   95.02   11.94
   4  -4  -9  154.20   10.22
   4   4  -9  140.88    8.52
   4   4  -8   87.54   16.06
  -4   4   8   69.36    7.75
   4  -4  -8   56.05    7.78
  -4  -4   8   54.85    6.55
   4   4  -8   42.73    6.67
   4  -4  -8   68.62    7.86
   4   4  -8   62.91    7.82
   4   4  -8   89.17   10.05
   4   4  -7   65.69    9.02
  -4   4   7   55.30    6.57
   4  -4  -7   49.63    6.79
  -4  -4   7   69.48    7.65
   4   4  -7   52.93    5.16
   4  -4  -7   38.43    5.55
   4   4  -7   57.48    6.55
   4   4  -7   75.25    8.22
   4   4  -6   93.53   13.91
  -4   4   6   92.51    9.24
   4  -4  -6   68.22    6.86
  -4  -4   6   81.30    8.55
   4  -4  -6   74.07    7.34
   4   4  -6   75.20    6.22
   4  -4  -6   78.35    8.53
   4   4  -6   81.38   10.15
   4   4  -6   77.07    9.86
   4   4  -5    4.09    2.19
  -4   4   5    5.82    3.45
   4  -4  -5    1.01    0.28
  -4  -4   5   10.57    3.46
   4  -4  -5    5.57    1.45
   4   4  -5    0.38    0.36
   4  -4  -5    8.46    4.64
   4   4  -5    3.99    1.04
   4   4  -5    3.92    3.09
   4   4  -4   26.19    6.75
  -4   4   4   18.34    4.62
   4  -4  -4   18.35    2.97
  -4  -4   4   27.80    6.23
   4  -4  -4   17.94    2.93
   4  -4  -4   14.72    4.28
   4   4  -4   18.60    3.03
   4   4  -4   21.22    3.85
   4   4  -4   24.67    5.25
   4   4  -3   17.17    4.27
  -4   4   3   21.26    5.37
  -4  -4   3    9.05    4.45
   4  -4  -3   20.47    5.40
   4   4  -3   11.98    2.34
   4   4  -3   10.71    2.03
   4   4  -3   23.45    5.47
   4   4  -2  113.95   18.60
  -4   4   2  120.69    7.15
  -4  -4   2  104.12   25.90
   4  -4  -2  119.08    7.76
   4   4  -2  129.94    7.98
   4   4  -1   68.75   10.18
  -4   4   1   58.28    6.18
  -4  -4   1   72.38    7.69
   4  -4  -1   57.29    7.10
   4   4  -1   60.15    9.69
   4   4   0   42.44    8.23
  -4   4   0   34.88    5.11
  -4  -4   0   49.70    6.62
  -4  -4   0   31.49    5.49
   4  -4   0   48.60    6.18
   4   4   0   37.90    3.96
   4   4   0   42.90    8.92
   4   4   1  248.10   19.26
  -4   4  -1  234.25   10.16
  -4  -4  -1  204.41   10.40
   4  -4   1  195.38    9.56
  -4  -4  -1  209.58    7.09
   4   4   1  237.05    7.87
   4   4   1  216.28   14.50
   4   4   2    4.63    3.00
  -4   4  -2    4.45    1.67
   4  -4   2    2.52    0.81
  -4  -4  -2    8.24    5.32
  -4   4  -2    1.15    0.54
   4  -4   2    0.09    2.66
  -4  -4  -2    4.49    1.27
   4   4   2    0.72    0.33
   4   4   2    3.01    1.67
   4   4   3   29.77    7.49
  -4   4  -3   33.89    4.04
   4  -4   3   25.67    4.91
  -4   4  -3   25.37    4.18
  -4  -4  -3   43.49    6.42
   4  -4   3   38.46    4.97
  -4  -4  -3   27.82    4.71
   4   4   3   26.28    4.37
   4   4   3   35.60    5.09
  -4  -4  -3   27.95    4.94
  -4   4  -4    9.01    3.04
   4  -4   4   10.36    2.77
   4  -4   4    3.97    1.09
  -4   4  -4    6.45    1.49
  -4  -4  -4    8.09    4.26
   4  -4   4   10.03    4.37
  -4  -4  -4    3.58    1.46
   4   4   4    7.38    1.94
   4   4   4    4.27    1.64
   4   4   5  135.22   23.11
  -4   4  -5  155.67    7.19
   4  -4   5   94.67   14.85
   4  -4   5  129.51    6.09
  -4   4  -5  137.40    5.51
  -4  -4  -5  174.98   11.14
   4  -4   5  144.11   17.65
  -4  -4  -5  150.34    6.47
   4   4   5  146.54    9.55
   4   4   5  134.23   12.25
  -4  -4  -5  135.58    9.45
   4   4   6   19.74    4.87
  -4   4  -6   20.00    4.32
   4  -4   6   19.13    3.89
   4  -4   6   22.80    4.92
  -4   4  -6   18.51    3.58
  -4  -4  -6   24.62    6.04
   4  -4   6   13.42    3.86
  -4  -4  -6   18.96    3.92
   4   4   6   14.02    3.34
   4   4   6   30.20    5.87
  -4  -4  -6   14.41    2.93
   4   4   7   75.25   15.65
  -4   4  -7   74.46   11.77
   4  -4   7   68.39   11.43
  -4   4  -7   65.39    8.57
  -4  -4  -7   58.59    9.10
   4  -4   7   82.20   10.93
  -4  -4  -7   71.20    9.38
   4   4   7   62.03    9.31
   4   4   7   70.48   12.06
  -4  -4  -7   60.53   10.83
  -4   4  -8   16.14    3.69
   4   4   8   19.03    5.04
  -4   4  -8   35.93    5.20
   4  -4   8   19.78    5.43
  -4   4  -8   22.60    4.49
  -4  -4  -8   27.23    6.31
   4  -4   8   27.61    7.45
  -4  -4  -8   22.84    4.52
   4   4   8   13.04    3.24
   4   4   8   26.99    5.05
  -4  -4  -8   19.04    4.34
  -4   4  -9    3.28    1.74
   4   4   9   10.47    3.56
  -4   4  -9    4.69    1.98
   4  -4   9    6.51    2.02
  -4   4  -9    5.31    1.72
  -4  -4  -9   11.19    5.50
   4  -4   9   11.06    5.42
  -4  -4  -9    7.48    2.65
  -4  -4  -9    4.16    1.40
  -4   4 -10   59.69   10.39
   4   4  10   58.35   11.92
  -4   4 -10   75.93    5.37
   4  -4  10   78.81   10.52
  -4  -4 -10   68.40   10.43
   4  -4  10   74.23   15.03
  -4  -4 -10   79.30    6.74
  -4  -4 -10   61.69    7.48
  -4   4 -10   75.83    8.74
  -4   4 -11   15.78    3.81
   4   4  11   26.13    7.40
  -4   4 -11   18.57    4.05
   4  -4  11   10.75    3.91
  -4  -4 -11   32.33    7.27
   4  -4  11   38.31    7.47
  -4  -4 -11   18.01    4.85
  -4  -4 -11   19.04    4.48
  -4   4 -11   17.00    5.92
   4   4  12    8.03    2.99
  -4   4 -12    1.68    0.80
  -4   4 -12    8.83    2.22
   4  -4  12    7.22    2.20
   4  -4  12   10.96    4.48
  -4  -4 -12   15.23    4.60
  -4  -4 -12    4.45    1.06
  -4   4 -12    6.38    5.54
   4   4  13   43.64   10.30
  -4   4 -13   27.61    5.57
  -4   4 -13   32.62    6.98
   4  -4  13   41.03   10.13
   4  -4  13   72.32    9.03
  -4  -4 -13   55.63    6.33
  -4   4 -13   48.32   11.72
   4   4  14  145.85   19.36
   4  -4  14  148.95   18.86
   4  -4  14  180.46   25.08
  -4  -4 -14  149.72   26.59
  -4   4 -14  127.64   12.94
   4   4  15   12.73    4.57
   4  -4  15    6.29    1.91
   4  -4  15    7.49    2.98
  -4  -4 -15   18.40    5.26
  -4   4 -15    7.07    3.99
   4   4  16   91.57   14.01
   4  -4  16   72.09   12.17
   4  -4  16   68.85    9.92
  -4  -4 -16   70.47   12.65
  -4   4 -16   74.03    8.44
   4   4  17   10.58    4.44
   4  -4  17    1.56    1.97
   4  -4  17    8.28    2.59
  -4  -4 -17    1.61    2.17
  -4   4 -17   11.86    4.95
   4   4  18   14.76    4.24
   4  -4  18    9.73    3.96
   4  -4  18   18.30    7.31
  -4  -4 -18    5.47    3.87
  -4   4 -18    6.41    4.92
   4   4  19   20.26    6.16
   4  -4  19    3.96    1.92
  -4  -4 -19   12.84    3.75
  -4   4 -19    8.41    5.34
  -4   4 -19   10.39    5.57
   4   4  20   51.94   12.24
   4  -4  20   53.96   11.27
  -4  -4 -20   63.64   14.62
  -4   4 -20   75.20   13.71
  -4   4 -20   74.03   13.18
   4   4  21   11.59    6.10
   4  -4  21   17.01    3.31
  -4  -4 -21    5.68    1.77
  -4   4 -21    3.53    2.31
  -4   4 -21    3.83    2.69
   4   4  22   17.69    5.61
   4  -4  22    7.73    4.64
  -4  -4 -22   17.49    6.15
  -4   4 -22   11.42    4.24
  -4   4 -22   10.00    4.76
   4   4  23    5.32    2.51
   4  -4  23    4.28    2.33
  -4  -4 -23    4.48    4.22
  -4   4 -23   15.62    5.75
  -4   4 -23    2.91    3.90
   4   4  24   14.63    4.66
   4  -4  24   18.97    6.66
  -4  -4 -24   20.50    7.09
  -4   4 -24   20.55    7.02
  -4   4 -24   18.99    6.81
   4   4  25   12.34    4.33
  -4  -4 -25   29.16    9.19
  -4   4 -25   16.48    7.84
  -4   4 -25   13.68    6.70
   4   4  26    2.50    2.69
  -4  -4 -26    1.92    3.96
  -4   4 -26   12.28    6.61
  -4   4 -26    0.27    3.08
  -4  -4 -27    7.64    4.49
  -4   4 -27    2.41    4.94
  -4   5  29    1.92    3.81
  -4  -5  29   11.46    4.65
   4  -5 -29    3.40    5.11
   4   5 -29    5.03    3.74
   4   5 -29    3.36    4.17
  -4   5  28   12.27    6.74
  -4  -5  28    9.56    4.58
   4   5 -28    2.31    3.29
   4   5 -28    5.47    3.70
  -4   5  27    9.77    3.94
  -4  -5  27    9.04    2.97
   4  -5 -27    4.84    5.19
   4   5 -27   -1.45    3.17
   4   5 -27    7.73    4.32
  -4   5  26    3.73    2.85
  -4  -5  26    8.23    4.67
   4  -5 -26    8.08    5.46
   4   5 -26    2.54    3.65
   4   5 -26    8.87    6.12
  -4   5  25    7.99    5.67
  -4  -5  25   13.41    4.83
   4  -5 -25   12.21    5.06
   4   5 -25    1.97    1.61
   4   5 -25   12.63    6.73
  -4   5  24   -2.57    3.90
  -4  -5  24    2.34    2.10
  -4  -5  24   -2.41    4.21
   4  -5 -24   10.95    8.41
   4   5 -24    5.78    2.62
   4   5 -24    9.57    4.73
  -4   5  23   26.87    6.97
  -4  -5  23   17.36    3.67
  -4  -5  23   19.73    6.14
   4  -5 -23   15.68    7.51
   4   5 -23   27.01    6.27
   4   5 -23   14.54    5.72
  -4   5  22   29.23    7.19
  -4  -5  22   14.27    5.10
  -4  -5  22   16.69    6.21
   4  -5 -22    4.73    4.98
   4   5 -22   20.63    6.03
   4   5 -22   20.90    6.56
  -4   5  21   42.84    8.01
  -4  -5  21   32.40    5.28
  -4  -5  21   31.72    6.17
   4  -5 -21   41.78    8.17
   4   5 -21   33.21    6.16
   4   5 -21   38.22    8.06
  -4   5  20    6.80    4.63
  -4  -5  20    2.71    2.23
  -4  -5  20    5.04    4.79
   4  -5 -20    1.22    3.43
   4   5 -20    5.27    3.07
   4   5 -20    2.77    4.33
  -4   5  19   13.05    4.99
  -4  -5  19   17.13    4.89
  -4  -5  19   17.14    7.56
   4  -5 -19    9.08    4.74
   4   5 -19    4.64    3.08
   4   5 -19   15.24    5.79
  -4   5  18   43.41    6.69
  -4  -5  18   51.92    7.61
  -4  -5  18   50.74    8.13
   4  -5 -18   61.84    8.84
   4   5 -18   42.91    6.08
   4   5 -18   63.71    9.04
  -4   5  17   90.97    8.28
  -4  -5  17   93.62    7.36
  -4  -5  17   82.30    8.78
   4  -5 -17   72.32   11.40
   4   5 -17   96.87   12.34
   4   5 -17   96.19   10.26
  -4  -5  16    4.00    2.40
  -4  -5  16    1.54    4.43
   4  -5 -16    6.66    3.92
   4   5 -16   11.70    3.84
   4   5 -16    3.21    4.28
  -4   5  15   10.46    4.52
  -4  -5  15    2.49    2.46
  -4  -5  15   -0.06    3.76
   4  -5 -15    2.45    3.23
   4   5 -15    3.23    1.60
   4   5 -15    4.01    3.30
  -4   5  14    4.01    4.97
  -4  -5  14    6.31    2.87
  -4  -5  14   17.04    6.95
   4  -5 -14    3.86    5.27
   4   5 -14    3.78    1.64
   4   5 -14    2.20    5.32
  -4   5  13   11.56    4.05
  -4  -5  13   19.80    5.70
  -4  -5  13   36.67    8.03
   4  -5 -13   48.53   10.63
   4   5 -13   26.85    4.93
   4   5 -13   11.88    5.71
  -4   5  12   26.90    6.63
  -4  -5  12   10.56    5.05
   4  -5 -12    4.05    3.88
   4   5 -12   17.16    4.54
   4   5 -12    3.67    3.50
  -4   5  11   90.56    8.72
   4  -5 -11   51.85    9.50
  -4  -5  11   76.94    8.38
   4  -5 -11   74.64    7.89
   4   5 -11   81.43   10.59
   4   5 -11   81.24    8.46
   4   5 -10    0.36    2.61
  -4   5  10    2.48    3.35
   4  -5 -10   -0.29    1.20
  -4  -5  10    2.86    3.76
   4   5 -10    2.80    1.27
   4  -5 -10    9.91    5.07
   4   5 -10    1.29    1.14
   4   5  -9   35.96    6.57
  -4   5   9   30.29    6.09
   4  -5  -9   17.91    4.63
  -4  -5   9   20.25    6.71
   4   5  -9   22.17    4.87
   4  -5  -9   27.09    7.30
   4   5  -9   29.76    5.93
   4   5  -9   17.65    5.83
   4   5  -8    3.52    2.09
  -4   5   8    9.58    4.48
   4  -5  -8    4.95    1.99
  -4  -5   8   11.96    5.37
   4  -5  -8    4.86    1.91
   4   5  -8    2.20    1.03
   4  -5  -8   13.37    5.57
   4   5  -8    7.96    2.35
   4   5  -8    1.94    3.30
   4   5  -7    5.90    2.04
  -4   5   7    2.98    3.25
   4  -5  -7    5.38    1.63
  -4  -5   7    5.38    3.89
   4  -5  -7   11.17    2.76
   4   5  -7   10.12    2.36
   4  -5  -7   22.02    6.08
   4   5  -7    9.26    2.00
   4   5  -7   13.56    4.99
   4   5  -6   32.87    7.27
  -4   5   6   19.67    5.28
   4  -5  -6   18.73    4.09
  -4  -5   6   25.43    5.62
   4  -5  -6   18.91    4.31
   4   5  -6   21.05    4.03
   4  -5  -6   21.04    5.86
   4   5  -6   26.16    4.82
   4   5  -6   23.70    5.89
   4   5  -5   47.76    9.18
  -4   5   5   52.41    8.16
   4  -5  -5   41.08    6.72
  -4  -5   5   39.74    7.07
   4  -5  -5   51.62    6.81
  -4  -5   5   52.54    9.71
   4  -5  -5   38.70    6.40
   4   5  -5   43.83    5.85
   4   5  -5   55.77   10.02
   4   5  -4   17.27    4.20
  -4   5   4   15.86    4.58
   4  -5  -4    0.46    0.30
  -4  -5   4   12.53    4.69
   4  -5  -4   13.87    2.73
  -4  -5   4   16.18    3.81
   4  -5  -4   14.27    4.64
   4   5  -4   12.71    2.50
   4   5  -4   20.32    5.72
   4  -5  -3    0.78    0.32
   4   5  -2   58.05   12.07
  -4   5   2   66.80    9.40
  -4  -5   2   72.42   10.73
  -4  -5   2   60.78    9.21
   4   5  -2    0.29    0.47
   4   5  -1    1.85    1.86
  -4   5   1    0.46    2.75
   4  -5  -1    0.16    0.51
  -4  -5   1    8.23    3.63
  -4  -5   1    1.10    1.05
   4  -5  -1   -4.05    3.54
   4   5  -1    0.50    0.32
   4   5  -1    8.01    3.44
   4   5   0   73.72   13.52
  -4   5   0   73.70   10.54
   4  -5   0   57.14    7.22
  -4  -5   0   61.14    9.22
  -4  -5   0   54.42    8.59
   4  -5   0   64.70    9.71
   4   5   0   68.41    9.86
   4   5   1    9.02    2.93
  -4   5  -1    9.18    3.01
   4  -5   1    5.35    1.99
  -4  -5  -1   12.87    3.94
   4  -5   1    4.63    3.64
  -4  -5  -1    3.29    1.31
   4   5   1    7.01    2.09
   4   5   1    2.44    2.23
   4   5   2   19.99    5.79
  -4   5  -2   10.97    4.03
   4  -5   2    7.57    2.29
  -4  -5  -2   15.23    4.87
  -4   5  -2   12.64    2.58
   4  -5   2   15.07    4.96
  -4  -5  -2    9.13    2.16
   4   5   2    8.74    2.14
   4   5   2   16.07    3.67
   4   5   3  218.09   28.09
  -4   5  -3  214.41   11.33
   4  -5   3  206.86   12.82
  -4  -5  -3  215.99   13.07
  -4   5  -3  199.70    9.36
   4  -5   3  224.80   15.12
  -4  -5  -3  205.78    9.94
   4   5   3  196.57    9.32
   4   5   3  222.68   19.70
   4   5   4   72.79   14.61
  -4   5  -4   51.61    7.39
   4  -5   4   48.61    8.43
  -4   5  -4   36.92    5.77
  -4  -5  -4   66.89   11.05
   4  -5   4   57.95   10.16
  -4  -5  -4   46.00    6.42
   4   5   4   48.09    6.48
   4   5   4   60.26   10.93
  -4   5  -5  264.81   16.37
   4  -5   5  222.30   17.02
  -4   5  -5  227.94   13.75
  -4  -5  -5  268.78   18.14
   4  -5   5  261.29   34.94
  -4  -5  -5  250.85   15.31
   4   5   5  232.30   15.21
   4   5   5  250.16   17.05
  -4  -5  -5  203.66   12.69
   4   5   6   -0.49    3.30
  -4   5  -6   -0.01    1.61
   4  -5   6    1.49    1.25
   4  -5   6    4.21    1.33
  -4   5  -6   -0.44    1.05
  -4  -5  -6    7.51    5.31
   4  -5   6    8.72    3.58
  -4  -5  -6    2.08    1.89
   4   5   6   -1.17    1.21
   4   5   6    5.44    2.70
  -4  -5  -6    3.52    1.84
   4   5   7    5.91    2.59
  -4   5  -7    2.75    1.72
   4  -5   7    0.94    0.62
   4  -5   7    1.73    1.56
  -4   5  -7    3.96    1.65
  -4  -5  -7    3.45    3.69
   4  -5   7    7.91    4.12
  -4  -5  -7   -0.17    1.34
   4   5   7    2.03    1.34
   4   5   7   -2.08    1.29
  -4  -5  -7    1.11    1.16
   4   5   8    8.51    2.78
  -4   5  -8    7.07    2.18
   4  -5   8    3.74    1.59
   4  -5   8    6.63    2.22
  -4   5  -8    3.51    1.74
  -4  -5  -8   10.90    5.20
   4  -5   8    8.69    4.54
  -4  -5  -8    2.18    1.60
   4   5   8    4.66    2.37
   4   5   8   10.80    3.14
  -4  -5  -8    7.63    2.24
  -4   5  -8    2.32    4.25
   4   5   9  241.67   35.51
  -4   5  -9  258.55   16.08
   4  -5   9  235.10   21.00
  -4  -5  -9  233.94   17.54
   4  -5   9  262.39   27.52
  -4  -5  -9  239.05   15.59
   4   5   9  232.73   14.79
  -4  -5  -9  197.87   15.03
  -4   5  -9  241.20   17.71
  -4   5 -10   12.73    3.31
   4   5  10   17.08    5.75
  -4   5 -10   20.45    4.79
   4  -5  10    9.64    3.21
  -4  -5 -10   22.09    5.88
   4  -5  10    6.94    3.15
  -4  -5 -10   13.65    3.97
   4   5  10   17.76    4.44
  -4  -5 -10   11.03    2.97
  -4   5 -10    8.25    4.53
  -4   5 -11   59.35    9.86
   4   5  11   92.42   19.99
  -4   5 -11   85.47   11.26
   4  -5  11   81.10   11.00
  -4  -5 -11  116.21   11.51
   4  -5  11  104.84   13.42
  -4  -5 -11  114.82   10.06
  -4  -5 -11   71.36    8.26
  -4   5 -11  121.15   12.67
   4   5  12   32.76   11.29
  -4   5 -12   26.41    4.72
   4  -5  12   16.64    4.50
  -4  -5 -12   17.27    5.70
   4  -5  12   18.81    5.08
  -4  -5 -12   32.10    6.80
  -4   5 -12   55.04    8.60
   4   5  13   20.38    6.11
   4  -5  13   24.84    5.47
  -4  -5 -13   31.66    8.02
   4  -5  13   24.13    5.94
  -4  -5 -13   39.10    9.57
  -4   5 -13   19.60    6.93
   4   5  14   -5.08    2.99
   4  -5  14    1.10    1.80
  -4  -5 -14   14.61    7.05
   4  -5  14    7.17    5.39
  -4  -5 -14    0.35    2.30
  -4   5 -14    2.28    3.99
   4   5  15   62.90   11.28
   4  -5  15   43.84    6.99
   4  -5  15   44.82   10.85
  -4  -5 -15   49.07   11.43
  -4   5 -15   53.34    9.09
   4   5  16   14.46    5.40
   4  -5  16   23.90    7.50
   4  -5  16   23.83    7.83
  -4  -5 -16   26.10    7.07
  -4   5 -16   40.37    8.45
   4   5  17   40.25   10.78
   4  -5  17   26.20    7.05
   4  -5  17   51.64    9.05
  -4  -5 -17   42.23    6.89
  -4   5 -17   18.80    6.76
   4   5  18   20.90    6.17
   4  -5  18   14.92    4.03
   4  -5  18   13.45    5.71
  -4  -5 -18    8.64    3.89
  -4   5 -18    7.02    4.85
   4   5  19    3.01    4.05
   4  -5  19    4.15    2.19
   4  -5  19    7.50    5.28
  -4  -5 -19    0.19    2.77
  -4   5 -19    8.91    5.24
   4   5  20   14.30    3.67
   4  -5  20    4.94    3.12
   4  -5  20    9.62    5.47
  -4  -5 -20    2.03    2.27
  -4   5 -20    9.93    4.84
   4   5  21   16.74    5.88
   4  -5  21    6.56    4.31
  -4  -5 -21    7.58    4.17
  -4   5 -21    2.55    4.68
  -4   5 -21    9.39    4.90
   4   5  22    3.93    3.17
   4  -5  22   15.45    4.49
  -4  -5 -22    9.60    4.58
  -4   5 -22   14.64    7.68
  -4   5 -22    6.94    3.68
   4   5  23   18.28    8.39
   4  -5  23   12.96    4.66
  -4  -5 -23   29.49   10.83
  -4   5 -23   36.77   11.21
  -4   5 -23    8.46    4.49
   4   5  24    6.48    2.90
   4  -5  24    8.23    3.36
  -4  -5 -24    7.74    3.22
  -4   5 -24    3.32    5.25
  -4   5 -24   14.34    5.99
   4   5  25    1.73    2.66
   4  -5  25   24.29    9.38
  -4  -5 -25   18.92    5.27
  -4   5 -25   26.52    8.79
  -4   5 -25    9.17    5.61
   4   5  26   11.63    4.91
   4  -5  26    9.64    4.08
  -4  -5 -26    2.20    3.66
  -4   5 -26   17.89    8.74
  -4   5 -26    2.87    3.32
  -4   6  28    9.90    5.33
  -4  -6  28   18.50   10.14
   4   6 -28    9.60    5.54
   4   6 -28    2.23    4.74
  -4   6  27    4.88    4.38
  -4  -6  27   11.29    4.36
   4   6 -27   -4.26    3.30
   4   6 -27    3.26    4.18
  -4   6  26    4.72    3.74
  -4  -6  26    2.58    3.14
   4  -6 -26    1.31    5.15
   4   6 -26    1.63    3.24
   4   6 -26   12.62    7.05
  -4   6  25    5.15    4.26
  -4  -6  25    8.66    5.68
   4  -6 -25   11.12    5.75
   4   6 -25    2.58    3.54
   4   6 -25    4.01    4.66
  -4   6  24   -0.16    4.07
   4  -6 -24    0.45    4.80
   4   6 -24   13.39    6.60
   4   6 -24    4.26    5.00
  -4   6  23   -0.19    3.99
  -4  -6  23   10.13    7.64
   4   6 -23    2.45    3.09
   4   6 -23   14.90    5.78
  -4   6  22    9.70    5.07
  -4  -6  22   11.46    3.18
  -4  -6  22    0.75    4.51
   4   6 -22    9.99    4.78
   4   6 -22    3.02    4.28
  -4   6  21    7.23    4.89
  -4  -6  21    4.05    2.68
  -4  -6  21    3.00    4.27
   4   6 -21   -3.80    3.16
   4   6 -21   19.94    6.33
  -4   6  20   31.34    8.79
  -4  -6  20   36.45    7.29
  -4  -6  20   57.97   12.28
   4   6 -20   33.30    8.35
   4   6 -20   76.32   14.33
  -4   6  19   13.44    4.95
  -4  -6  19    2.67    2.24
  -4  -6  19   32.75    7.18
   4   6 -19    5.42    2.80
   4   6 -19   -0.06    4.71
  -4   6  18    8.62    4.33
  -4  -6  18   -0.43    2.33
  -4  -6  18    6.71    4.30
   4   6 -18    0.65    2.60
   4   6 -18    0.58    2.35
  -4   6  17   23.88    6.37
  -4  -6  17   19.76    4.82
  -4  -6  17   30.09    7.00
   4   6 -17   17.94    4.95
   4   6 -17   31.66    7.62
  -4   6  16   13.66    6.80
  -4  -6  16   31.47    7.19
  -4  -6  16    8.32    4.85
   4   6 -16   34.52    6.87
   4   6 -16   25.29    8.00
  -4   6  15    9.25    6.68
  -4  -6  15    6.98    3.37
  -4  -6  15   11.41    5.11
   4   6 -15    3.36    3.10
   4   6 -15    4.03    4.64
  -4   6  14    3.21    4.62
  -4  -6  14    7.89    3.96
  -4  -6  14    8.76    4.94
   4   6 -14    6.33    2.64
   4   6 -14   10.51    5.27
  -4   6  13   31.30    7.48
  -4  -6  13   19.77    5.95
   4   6 -13   24.33    4.69
   4   6 -13   42.61    9.93
  -4   6  12    6.53    4.41
  -4  -6  12   12.30    6.91
   4   6 -12    1.12    1.62
   4   6 -11  172.82   20.98
  -4   6  11  195.82   17.14
  -4  -6  11  166.93   14.89
   4  -6 -11  154.75   12.20
   4   6 -11  169.31   26.42
   4   6 -11  170.48   15.18
   4   6 -10   59.95    9.71
  -4   6  10   74.54    9.01
  -4  -6  10   52.04    9.28
   4  -6 -10   67.59    9.72
   4   6 -10   66.16    7.42
   4   6 -10   81.69    9.55
   4   6  -9    6.11    1.99
  -4   6   9   12.95    6.39
   4  -6  -9    2.63    0.80
  -4  -6   9   18.25    7.12
   4  -6  -9    8.25    2.67
   4   6  -9    7.30    2.67
   4   6  -9    3.77    1.45
   4   6  -9   -1.90    3.58
   4   6  -8   22.40    6.39
  -4   6   8   15.39    4.78
   4  -6  -8   11.96    3.24
  -4  -6   8   25.63    6.68
   4  -6  -8   16.74    4.28
  -4  -6   8   22.78    4.42
   4   6  -8    9.90    2.58
   4   6  -8   18.65    6.88
   4   6  -7   71.06   13.57
  -4   6   7   53.71   11.65
   4  -6  -7   41.35    7.24
  -4  -6   7   48.31    8.24
   4  -6  -7   57.90    7.46
  -4  -6   7   52.37    9.62
   4   6  -7   42.25    5.61
   4   6  -7   81.81    8.78
   4   6  -6    1.20    2.09
  -4   6   6   12.44    4.43
   4  -6  -6    3.48    1.07
  -4  -6   6    6.34    4.26
   4  -6  -6    6.86    2.45
  -4  -6   6    8.37    2.47
   4   6  -6    2.82    1.48
   4   6  -6    2.21    3.01
   4   6  -5   24.16    6.19
  -4   6   5   25.78    6.74
   4  -6  -5   15.52    3.62
  -4  -6   5   22.74    6.91
   4  -6  -5   18.58    4.25
  -4  -6   5   20.38    4.80
   4   6  -5   14.31    3.31
   4   6  -5   18.21    5.68
   4   6  -4   29.73    6.04
  -4   6   4   19.85    5.53
  -4  -6   4   12.29    5.07
   4  -6  -4   14.29    3.46
  -4  -6   4   17.93    4.70
   4   6  -4   12.80    3.14
   4   6  -4   29.56    5.89
   4   6  -3   12.77    3.92
  -4   6   3   12.85    4.83
   4  -6  -3   12.25    2.97
  -4  -6   3   12.61    6.38
  -4  -6   3   10.53    2.77
   4   6  -3   11.40    2.96
   4   6  -3   16.05    5.10
   4   6  -2   89.57   16.26
  -4   6   2   96.97   10.32
   4  -6  -2   93.64    6.24
  -4  -6   2   87.85    9.79
  -4  -6   2   91.92    8.04
   4   6  -2   85.69    6.22
   4   6  -2   92.16    7.95
   4   6  -1   35.40    6.60
  -4   6   1   52.50    8.11
   4  -6  -1   41.20    5.23
  -4  -6   1   49.42    9.37
  -4  -6   1   29.82    5.61
   4  -6  -1   52.14    8.29
   4   6  -1   31.51    4.42
   4   6  -1   31.27    5.95
   4   6   0   58.08   10.17
  -4   6   0   73.53   12.67
   4  -6   0   59.33    7.31
  -4  -6   0   62.61   10.13
  -4  -6   0   49.06    8.83
   4  -6   0   76.32    8.45
   4   6   0   38.23    7.56
   4   6   0   68.55    9.33
   4   6   1   34.68    7.61
  -4   6  -1   12.74    3.47
   4  -6   1   15.89    3.76
  -4  -6  -1   29.29    6.57
  -4  -6  -1   15.72    3.81
   4   6   1   11.16    2.74
   4   6   1   31.70    5.43
   4   6   2   20.55    6.12
  -4   6  -2    5.40    3.55
   4  -6   2    3.98    1.67
  -4  -6  -2    4.86    2.60
  -4   6  -2    2.00    0.99
  -4  -6  -2    3.77    1.68
   4   6   2    4.50    1.82
   4   6   2   -0.98    2.49
   4   6   3   27.56    7.56
  -4   6  -3   38.02    6.63
   4  -6   3   30.12    5.44
  -4  -6  -3   33.82    7.11
  -4   6  -3   30.41    4.40
  -4  -6  -3   26.24    6.20
   4   6   3   25.06    6.19
   4   6   3   44.52    6.71
   4   6   4  217.87   28.42
  -4   6  -4  249.61   16.36
   4  -6   4  254.14   22.98
  -4  -6  -4  259.02   18.31
  -4   6  -4  215.95   13.48
  -4  -6  -4  255.99   16.04
   4   6   4  201.81   13.49
   4   6   4  224.59   15.38
   4   6   5   11.31    5.17
  -4   6  -5    6.88    3.31
   4  -6   5    4.95    1.88
  -4   6  -5    2.53    1.78
  -4  -6  -5    8.06    6.61
   4  -6   5   14.42    3.99
  -4  -6  -5    9.34    3.40
   4   6   5   -0.77    1.25
   4   6   5    7.85    2.62
   4   6   6   41.01    8.24
  -4   6  -6   43.49    6.76
   4  -6   6   43.22    8.41
  -4   6  -6   37.51    5.78
  -4  -6  -6   62.22    8.42
   4  -6   6   58.20   16.41
  -4  -6  -6   47.96    7.23
   4   6   6   38.09    5.82
   4   6   6   54.04   10.23
  -4   6  -6   63.60    7.72
  -4   6  -7   17.00    4.48
   4  -6   7   15.49    4.35
  -4   6  -7    7.23    2.33
  -4  -6  -7   18.93    6.20
  -4  -6  -7   21.43    4.84
   4   6   7    9.91    2.84
  -4  -6  -7    2.75    1.53
  -4   6  -7   19.54    6.72
   4   6   8    8.27    4.22
  -4   6  -8    6.35    2.61
   4  -6   8    1.87    1.77
   4  -6   8    0.52    1.87
  -4  -6  -8    8.76    5.02
   4  -6   8    2.94    2.24
  -4  -6  -8    0.98    1.67
   4   6   8    3.16    1.25
  -4  -6  -8    0.29    1.26
  -4   6  -8    6.69    4.90
   4   6   9   62.60    9.08
  -4   6  -9   76.70    6.73
   4  -6   9   62.21   10.52
  -4  -6  -9   86.65   13.38
   4  -6   9   69.83   11.76
  -4  -6  -9   70.26    9.04
   4   6   9   44.92   10.74
  -4   6  -9   70.66   11.29
   4   6  10  107.63   14.26
  -4   6 -10   91.78    5.74
   4  -6  10   80.18   10.13
  -4  -6 -10   98.62   10.70
   4  -6  10   89.45   15.06
  -4  -6 -10   89.82    9.19
   4   6  10   67.56    9.72
  -4   6 -10   84.83   10.70
   4   6  11    8.30    3.43
  -4   6 -11    3.76    1.30
   4  -6  11    6.73    2.31
  -4  -6 -11    8.38    4.26
   4  -6  11   12.98    5.05
  -4  -6 -11    4.06    3.22
   4   6  11    0.08    0.41
  -4   6 -11    5.90    4.38
   4   6  12   35.00    9.26
   4  -6  12   23.96    6.00
  -4  -6 -12   15.68    7.32
   4  -6  12   42.23   14.97
  -4  -6 -12   31.88    6.55
  -4   6 -12   35.45    8.87
   4   6  13   15.23    4.61
   4  -6  13   19.23    5.18
  -4  -6 -13   19.37    6.96
   4  -6  13   17.39    5.77
  -4  -6 -13    9.28    3.15
  -4   6 -13   15.34    7.44
   4   6  14   16.45    6.52
   4  -6  14    5.47    1.58
  -4  -6 -14    5.59    5.99
   4  -6  14   14.70    5.83
  -4  -6 -14   12.67    4.90
  -4   6 -14   10.43    5.54
   4   6  15   23.23    8.75
   4  -6  15   24.95    5.84
  -4  -6 -15   32.28    7.80
   4  -6  15   40.84    7.98
  -4  -6 -15   30.55    5.78
  -4   6 -15   38.23   11.81
   4   6  16    3.34    2.49
   4  -6  16   -0.21    2.66
  -4  -6 -16   18.60    7.76
   4  -6  16    7.12    3.05
  -4  -6 -16    7.48    3.26
  -4   6 -16   12.23    6.88
   4   6  17   13.40    5.43
   4  -6  17    3.87    2.87
  -4  -6 -17    8.47    5.99
   4  -6  17    9.64    5.45
  -4  -6 -17    2.41    2.73
  -4   6 -17   26.81    7.89
   4   6  18    3.40    3.22
   4  -6  18    4.95    2.52
  -4  -6 -18   18.26    5.44
   4  -6  18    3.11    2.88
  -4  -6 -18    9.33    5.05
  -4   6 -18   12.67    3.25
   4   6  19   20.40    5.42
   4  -6  19   12.17    4.14
  -4  -6 -19    7.26    5.22
   4  -6  19    5.64    4.11
  -4  -6 -19    7.89    3.59
  -4   6 -19   15.11    7.21
   4   6  20   23.62    6.83
   4  -6  20    8.41    2.08
   4  -6  20    5.31    2.92
  -4  -6 -20    7.33    4.51
  -4   6 -20   11.47    5.41
   4   6  21    4.30    2.48
   4  -6  21    8.08    2.81
   4  -6  21   16.43    7.25
  -4  -6 -21   -0.09    2.99
  -4   6 -21    7.43    4.44
   4  -6  22    7.33    4.32
  -4  -6 -22    4.10    3.74
  -4   6 -22    4.60    4.95
  -4   6 -22    7.59    4.46
   4   6  23   28.54    8.85
   4  -6  23    2.76    3.21
  -4  -6 -23    0.34    3.24
  -4   6 -23    7.40    7.22
  -4   6 -23   -2.42    3.98
   4   6  24    5.41    3.64
   4  -6  24    1.89    2.44
  -4  -6 -24    0.28    3.54
  -4   6 -24   13.48    6.55
  -4   6 -24    9.54    5.03
   4   6  25   -0.18    3.09
   4  -6  25   11.45    3.70
  -4  -6 -25    3.67    4.64
  -4   6 -25   -0.79    5.26
  -4   6 -25   12.55    4.90
  -4   7  27    6.73    4.93
  -4  -7  27   -1.89    5.17
  -4   7  26   16.89    8.45
  -4  -7  26   11.85    5.66
   4  -7 -26   -0.45    6.70
   4   7 -26    8.80    3.99
   4   7 -26   14.63    6.62
  -4   7  25    3.95    4.95
  -4  -7  25    6.41    4.41
   4  -7 -25   20.77    9.21
   4   7 -25    8.64    5.02
   4   7 -25    3.76    4.69
  -4   7  24    6.09    4.80
  -4  -7  24   21.69    8.05
   4  -7 -24   29.20   10.34
   4   7 -24   18.71    7.19
   4   7 -24   16.64    6.09
  -4   7  23    6.25    5.16
  -4  -7  23   17.91    7.15
   4  -7 -23   14.52    6.18
   4   7 -23    2.66    3.21
   4   7 -23    5.91    5.05
  -4   7  22   11.67    4.75
  -4  -7  22   10.57    6.79
   4  -7 -22   11.38    6.09
   4   7 -22   12.09    5.27
   4   7 -22   18.02    8.02
  -4   7  21   32.74    9.02
  -4  -7  21   14.53    5.48
   4  -7 -21   12.04    5.40
   4   7 -21    7.98    4.60
   4   7 -21    4.70    4.63
  -4   7  20    3.48    5.11
  -4  -7  20   -0.42    2.06
  -4  -7  20    6.54    4.61
   4  -7 -20    9.96    5.12
   4   7 -20    3.96    2.84
   4   7 -20    8.66    5.34
  -4  -7  19    2.44    1.97
  -4  -7  19   13.38    4.64
   4  -7 -19    0.36    3.70
   4   7 -19    9.92    3.89
   4   7 -19   -0.29    4.49
  -4  -7  18   17.09    5.46
  -4  -7  18   12.16    6.09
   4  -7 -18    4.27    4.26
   4   7 -18   14.73    5.19
   4   7 -18   12.56    6.76
  -4   7  17   10.11    4.92
  -4  -7  17    4.42    2.64
  -4  -7  17    2.56    4.20
   4  -7 -17    0.95    4.09
   4   7 -17    2.15    2.64
   4   7 -17    4.54    4.24
  -4   7  16    5.86    4.66
  -4  -7  16   17.85    5.52
  -4  -7  16   28.77    7.07
   4  -7 -16   21.22    6.88
   4   7 -16   15.82    6.26
   4   7 -16   29.91    7.22
  -4   7  15   12.34    6.79
  -4  -7  15    6.98    4.36
   4  -7 -15   11.51    6.82
   4   7 -15    3.57    2.42
   4   7 -15    7.08    2.69
  -4   7  14    2.01    4.32
  -4  -7  14   -1.35    4.64
   4  -7 -14    2.70    2.53
   4  -7 -14    8.36    4.74
   4   7 -14    5.27    2.93
   4   7 -14   15.35    5.83
  -4   7  13   10.37    6.64
  -4  -7  13   19.61    7.31
   4  -7 -13   14.82    4.38
   4  -7 -13   12.84    6.47
   4   7 -13   18.49    4.80
   4   7 -13   23.81    5.74
   4   7 -12   16.02    4.67
  -4   7  12   32.36    9.23
  -4  -7  12   36.59    9.66
   4  -7 -12   14.00    4.59
   4  -7 -12    5.33    4.11
   4   7 -12   26.15    5.46
   4   7 -12   14.84    6.05
   4   7 -11   38.36    8.89
  -4   7  11   33.28    7.93
  -4  -7  11   29.93    8.02
   4  -7 -11   27.07    5.46
   4  -7 -11   35.39    8.52
   4   7 -11   40.57    6.70
   4   7 -11   26.75    6.96
   4   7 -10    6.19    1.98
  -4   7  10   16.10    5.82
  -4  -7  10   18.83    7.34
   4  -7 -10   16.26    5.07
  -4  -7  10   12.65    3.88
   4  -7 -10   15.78    5.23
   4   7 -10   15.41    5.16
   4   7  -9   44.39   10.75
  -4   7   9   35.45    7.39
  -4  -7   9   48.61    7.44
   4  -7  -9   35.41    7.87
  -4  -7   9   38.35    7.47
   4  -7  -9   48.77    7.76
   4   7  -9   38.62    8.38
   4   7  -8   -1.56    2.99
  -4   7   8    7.77    5.85
  -4  -7   8   -0.37    4.56
   4  -7  -8    3.61    1.99
  -4  -7   8    2.99    1.65
   4  -7  -8    1.66    3.50
   4   7  -8    9.62    6.25
   4   7  -7   45.02   10.12
  -4   7   7   34.50    7.40
  -4  -7   7   36.11    8.88
   4  -7  -7   47.42    9.69
  -4  -7   7   31.79    8.48
   4  -7  -7   55.21    9.34
   4   7  -7   52.74    9.34
   4   7  -6   43.58   10.23
  -4   7   6   56.18    8.40
   4  -7  -6   27.55    6.52
  -4  -7   6   64.96    8.67
   4  -7  -6   61.25    6.03
  -4  -7   6   54.68    7.64
   4  -7  -6   58.62    7.88
   4   7  -6   57.04   11.33
   4   7  -5  112.93   15.01
  -4   7   5   99.62   10.36
  -4  -7   5  108.51   11.64
   4  -7  -5  112.13    9.13
  -4  -7   5   92.46   12.46
   4  -7  -5   69.64   11.06
   4   7  -5   71.80    6.44
   4   7  -5  126.56   11.93
   4   7  -4   57.76   11.84
  -4   7   4   59.33    7.64
   4  -7  -4   61.33    6.41
  -4  -7   4   58.36    8.80
  -4  -7   4   40.15    8.42
   4  -7  -4   60.38    7.57
   4   7  -4   49.52    8.81
   4   7  -4   82.99    8.94
   4   7  -3    2.64    3.06
  -4   7   3    8.61    3.80
   4  -7  -3    7.05    2.31
  -4  -7   3    9.80    6.79
  -4  -7   3    3.84    1.99
   4  -7  -3   12.88    5.02
   4   7  -3    6.00    2.09
   4   7  -3   10.82    4.65
   4   7  -2    9.94    3.42
  -4   7   2    9.13    5.02
   4  -7  -2   11.84    3.38
  -4  -7   2   23.53    6.96
  -4  -7   2    9.54    2.80
   4  -7  -2   11.88    5.06
   4   7  -2    4.76    2.13
   4   7  -2   17.16    5.18
   4   7  -1    4.08    2.99
  -4   7   1    7.86    3.74
   4  -7  -1    2.62    1.68
  -4  -7   1    3.21    4.58
  -4  -7   1    3.77    1.46
   4  -7  -1   11.88    4.83
   4   7  -1    3.63    2.07
   4   7  -1    7.99    3.68
   4   7   0   41.60   10.04
  -4   7   0   48.59    9.51
   4  -7   0   42.73    7.50
  -4  -7   0   33.66    8.48
  -4  -7   0   25.88    6.76
   4  -7   0   30.94    7.33
   4   7   0   24.19    5.77
   4   7   0   50.40   10.29
   4   7   1   49.00   10.29
  -4   7  -1   36.34    7.14
   4  -7   1   31.89    5.66
  -4  -7  -1   43.03   10.91
  -4  -7  -1   31.72    6.00
   4  -7   1   26.93    5.73
   4   7   1   16.87    5.10
   4   7   1   27.55    6.30
   4   7   2   40.66   12.00
  -4   7  -2   57.22    6.13
   4  -7   2   61.42    5.38
  -4  -7  -2   80.53   11.08
  -4   7  -2   43.36    8.56
   4  -7   2   59.13    7.37
  -4  -7  -2   57.12    5.55
   4   7   2   48.02    8.67
   4   7   2   51.14    9.64
   4   7   3    9.62    4.26
  -4   7  -3   16.72    5.50
   4  -7   3   12.43    3.49
  -4  -7  -3   10.94    5.43
   4  -7   3   24.80    6.64
  -4  -7  -3   17.81    4.60
   4   7   3    9.40    2.97
   4   7   3   15.26    4.83
  -4   7  -3    3.32    3.79
   4   7   4  115.49   18.31
  -4   7  -4  101.90   18.70
   4  -7   4  100.40    8.51
  -4  -7  -4  123.07   21.44
   4  -7   4   73.02   14.41
  -4  -7  -4  113.85    9.70
   4   7   4   97.42    8.80
  -4   7  -4  115.66   17.79
   4   7   5    4.45    3.11
  -4   7  -5   10.28    2.95
   4  -7   5    3.02    1.18
  -4  -7  -5    8.22    5.32
   4  -7   5    8.36    4.43
  -4  -7  -5   -0.17    1.47
   4   7   5    1.75    2.04
  -4   7  -5    9.56    6.95
   4   7   6    4.76    2.59
   4  -7   6    5.84    2.28
  -4  -7  -6    4.82    5.02
   4  -7   6    5.95    3.67
  -4  -7  -6    7.01    2.57
   4   7   6    2.72    3.08
  -4   7  -6    5.88    5.37
   4   7   7    0.29    3.37
  -4   7  -7    4.33    2.94
   4  -7   7    3.24    1.39
  -4  -7  -7   10.85    5.68
   4  -7   7   20.84    5.26
  -4  -7  -7    7.22    1.79
   4   7   7    6.66    2.02
  -4   7  -7   26.13    8.45
  -4   7  -8   70.90   14.80
   4  -7   8   61.99   11.13
  -4  -7  -8  108.72   12.70
   4  -7   8   76.36   10.67
  -4  -7  -8   82.49    7.82
   4   7   8   58.07   10.75
  -4   7  -8  101.56   14.21
   4   7   9   11.52    6.94
  -4   7  -9    7.98    3.05
   4  -7   9    4.02    1.85
  -4  -7  -9    8.36    6.94
   4  -7   9   10.97    4.10
  -4  -7  -9   13.45    4.64
   4   7   9    3.49    1.56
  -4   7  -9    9.23    3.13
   4   7  10   68.69   10.05
  -4   7 -10   58.49   11.78
   4  -7  10   74.70   10.82
  -4  -7 -10  100.71   21.02
   4  -7  10   88.90   13.19
  -4  -7 -10   80.92    7.75
   4   7  10   52.58    9.15
  -4   7 -10   96.21   13.36
   4   7  11   19.64    6.11
   4  -7  11    8.77    2.59
  -4  -7 -11    9.50    4.73
   4  -7  11   11.57    4.08
  -4  -7 -11   21.10    5.90
  -4   7 -11    4.62    4.86
   4   7  12   12.46    5.64
   4  -7  12    7.56    2.60
  -4  -7 -12    7.77    4.89
   4  -7  12   14.22    4.97
  -4  -7 -12    9.37    4.18
  -4   7 -12   19.88    8.58
   4   7  13    7.27    3.62
   4  -7  13    9.09    2.78
  -4  -7 -13   -2.48    4.10
   4  -7  13   18.04    4.91
  -4  -7 -13    6.34    3.04
  -4   7 -13    6.89    7.50
   4   7  14   30.12    8.59
   4  -7  14    8.73    2.36
  -4  -7 -14   17.29    6.00
   4  -7  14   19.20    6.94
  -4  -7 -14   12.22    5.12
  -4   7 -14   44.17   12.19
   4   7  15   10.34    4.03
   4  -7  15    3.94    3.75
  -4  -7 -15    8.89    5.01
   4  -7  15    7.42    3.17
  -4  -7 -15   10.22    4.74
  -4   7 -15    3.25    4.71
   4   7  16   29.61    7.52
   4  -7  16   34.15    8.02
  -4  -7 -16   34.32    9.27
   4  -7  16   41.37    9.08
  -4  -7 -16   57.02    9.76
  -4   7 -16   41.04    8.61
   4   7  17    9.08    3.52
   4  -7  17   19.60    4.72
  -4  -7 -17   11.01    5.26
   4  -7  17   20.15    6.28
  -4  -7 -17   12.28    4.96
  -4   7 -17   17.80    7.41
   4   7  18   12.59    5.79
   4  -7  18   12.77    6.29
   4  -7  18   28.70    9.22
  -4  -7 -18   10.34    4.38
  -4   7 -18   16.53    7.90
   4   7  19    1.48    2.19
   4  -7  19    4.06    2.25
  -4  -7 -19   15.02    8.48
   4  -7  19    7.89    4.27
  -4  -7 -19   13.16    7.40
  -4   7 -19    8.13    4.69
   4   7  20    5.49    2.74
   4  -7  20    5.90    3.50
  -4  -7 -20   12.60    8.62
   4  -7  20    4.57    3.21
  -4  -7 -20    2.17    3.36
  -4   7 -20   -0.29    4.50
   4   7  21    8.41    3.49
   4  -7  21    4.53    2.02
  -4  -7 -21   16.02    8.59
   4  -7  21    8.47    5.87
  -4  -7 -21    2.63    3.37
  -4   7 -21    8.52    7.02
   4   7  22    6.01    2.91
   4  -7  22   10.64    4.13
  -4  -7 -22   10.34    5.77
   4  -7  22   10.35    3.92
  -4  -7 -22   13.96    5.86
  -4   7 -22    6.46    4.81
   4   7  23    4.68    2.59
   4  -7  23    2.15    1.77
  -4  -7 -23    4.72    3.18
  -4  -7 -23   10.89    5.33
  -4   7 -23    0.42    4.86
  -4   7 -23    4.95    4.58
  -4   8  25    0.55    5.68
  -4  -8  25   25.18    8.71
  -4   8  24   15.48    7.70
  -4  -8  24   10.33    5.95
   4  -8 -24    3.22    5.63
   4   8 -24    5.60    4.72
   4   8 -24   -9.25    4.98
  -4   8  23    1.17    4.29
  -4  -8  23    7.91    3.84
   4  -8 -23   -0.76    5.62
   4   8 -23    8.01    3.83
   4   8 -23    7.66    3.87
  -4   8  22   11.56    5.79
  -4  -8  22   -1.27    5.02
   4  -8 -22   17.74    7.34
   4   8 -22    3.58    2.72
   4   8 -22   12.36    6.01
  -4   8  21   13.17    6.79
  -4  -8  21   25.61    9.60
   4  -8 -21   19.26    7.96
   4   8 -21    2.93    3.23
   4   8 -21   20.66    8.60
  -4   8  20    0.41    4.12
  -4  -8  20   11.90    7.56
   4  -8 -20   12.12    6.02
   4   8 -20    4.55    3.21
   4   8 -20    8.15    5.51
  -4   8  19   21.48    7.99
  -4  -8  19   11.29    4.14
  -4  -8  19   -0.27    4.87
   4  -8 -19    3.36    2.88
   4  -8 -19   24.84    7.84
   4   8 -19   17.79    5.37
   4   8 -19   20.10    7.85
  -4   8  18   -3.72    4.39
  -4  -8  18    1.47    1.28
  -4  -8  18    3.84    4.07
   4  -8 -18    3.04    1.48
   4  -8 -18   13.78    6.93
   4   8 -18    6.25    3.15
   4   8 -18    5.09    4.39
  -4   8  17    6.40    6.37
  -4  -8  17    3.68    2.43
  -4  -8  17   16.75    5.94
   4  -8 -17   11.37    4.25
   4  -8 -17    9.09    4.55
   4   8 -17    4.89    1.99
   4   8 -17   14.69    4.87
  -4   8  16    3.39    1.99
  -4  -8  16    5.65    2.63
  -4  -8  16    0.12    4.28
   4  -8 -16   14.37    4.61
   4  -8 -16   -1.64    4.00
   4   8 -16   11.08    3.42
   4   8 -16   11.99    6.43
  -4   8  15   34.79    7.98
  -4  -8  15   40.72    9.17
   4  -8 -15    6.32    2.60
   4  -8 -15    9.35    6.03
   4   8 -15    7.25    2.83
  -4   8  14    3.72    4.52
  -4  -8  14    8.98    4.85
   4  -8 -14    7.42    2.84
   4  -8 -14    2.90    6.27
   4   8 -14    9.43    3.83
   4   8 -14   11.37    5.29
   4   8 -13   43.88    9.32
  -4   8  13   59.78   10.36
  -4  -8  13   34.32    7.82
   4  -8 -13   34.95    8.24
   4  -8 -13   44.18    8.89
   4   8 -13   55.15    7.54
   4   8 -13   59.80   14.21
   4   8 -12   17.59    5.25
  -4   8  12    2.58    4.13
  -4  -8  12   16.43    7.47
   4  -8 -12    9.28    3.15
  -4  -8  12    1.62    1.54
   4  -8 -12   10.99    6.66
   4   8 -12    9.38    4.95
   4   8 -11    3.78    2.29
  -4   8  11    2.35    3.02
  -4  -8  11    9.81    6.78
   4  -8 -11    0.10    1.99
  -4  -8  11    2.67    1.23
   4  -8 -11    8.40    4.52
   4   8 -11    3.14    2.66
   4   8 -10    5.14    3.03
  -4   8  10   15.66    6.68
  -4  -8  10    3.50    4.88
   4  -8 -10    5.67    2.94
  -4  -8  10    4.44    1.83
   4  -8 -10   -0.63    4.66
   4   8 -10   -4.58    4.05
   4   8  -9    3.42    2.84
  -4   8   9   13.42    5.91
  -4  -8   9    6.13    6.81
   4  -8  -9    8.65    3.52
  -4  -8   9   10.23    3.40
   4  -8  -9    4.03    4.89
   4   8  -9    6.92    3.57
   4   8  -8    3.68    2.26
  -4   8   8   -1.96    4.16
  -4  -8   8    3.77    4.85
   4  -8  -8    3.83    2.52
  -4  -8   8    2.43    2.11
   4  -8  -8    0.00    3.09
   4   8  -8    3.18    3.89
   4   8  -7   66.34   11.89
  -4   8   7  126.15   13.08
  -4  -8   7   95.10   10.87
   4  -8  -7   81.95    7.26
  -4  -8   7   74.58   12.60
   4  -8  -7   86.90   17.26
   4   8  -7  104.55   13.01
   4   8  -6    3.38    2.29
  -4   8   6    3.27    2.03
  -4  -8   6    0.49    4.64
   4  -8  -6    0.82    1.68
  -4  -8   6    5.33    1.55
   4  -8  -6   -3.99    5.30
   4   8  -6   -0.06    3.27
   4   8  -5   71.60   10.82
  -4   8   5   85.87   15.08
  -4  -8   5   99.96   11.88
   4  -8  -5   65.26    6.21
  -4  -8   5   54.00    9.62
   4  -8  -5   97.00   13.67
   4   8  -5   81.05    9.45
   4   8  -4    8.51    3.08
  -4   8   4    8.29    4.63
   4  -8  -4    3.67    2.07
  -4  -8   4    4.14    7.29
  -4  -8   4   10.21    3.27
   4  -8  -4   11.72    5.86
   4   8  -4    9.43    4.68
   4   8  -3    4.92    2.45
  -4   8   3    7.31    3.63
   4  -8  -3   14.99    4.19
  -4  -8   3    7.18    5.26
  -4  -8   3    1.62    0.89
   4  -8  -3    2.19    4.84
   4   8  -3   -1.58    2.88
   4   8  -2   10.79    4.13
  -4   8   2    3.11    3.19
   4  -8  -2    6.60    2.35
  -4  -8   2   10.82    5.77
  -4  -8   2    5.41    1.92
   4  -8  -2   16.74    6.34
   4   8  -2    6.03    2.82
   4   8  -1  105.73   16.80
  -4   8   1   60.40    9.27
   4  -8  -1   82.40    6.99
  -4  -8   1   79.31    9.90
  -4  -8   1   49.75    9.25
   4  -8  -1  103.08   12.86
   4   8  -1  104.71   11.00
  -4   8   1   69.57    9.78
   4   8   0   13.09    5.80
  -4   8   0    5.05    2.71
   4  -8   0    3.78    1.91
  -4  -8   0   17.78    8.19
  -4  -8   0    6.25    2.38
   4  -8   0   10.27    5.52
   4   8   0    1.89    2.60
  -4   8   0    4.89    4.58
   4   8   1  153.61   21.24
  -4   8  -1  170.55   14.47
   4  -8   1  147.38   11.26
  -4  -8  -1  123.56   12.71
  -4  -8  -1  122.42   14.88
   4  -8   1  173.59   19.13
   4   8   1  139.90   12.28
  -4   8  -1  146.57   13.79
   4   8   2    6.83    3.86
  -4   8  -2    2.62    2.79
   4  -8   2    1.46    0.99
  -4  -8  -2   11.19    5.80
   4  -8   2    2.48    4.67
  -4  -8  -2    7.16    2.34
   4   8   2    6.00    3.74
  -4   8  -2    9.57    6.17
   4   8   3    7.04    3.01
  -4   8  -3    9.59    2.81
   4  -8   3    2.22    1.79
  -4  -8  -3    8.16    7.10
   4  -8   3    4.63    4.82
  -4  -8  -3   16.66    4.45
   4   8   3   16.84    5.13
  -4   8  -3   13.54    6.19
   4   8   4    9.99    4.07
  -4   8  -4    2.11    2.61
   4  -8   4    3.86    2.21
  -4  -8  -4   15.20    9.46
   4  -8   4    2.09    3.63
  -4  -8  -4    5.31    2.64
   4   8   4    9.59    3.71
   4   8   5   75.98   12.86
  -4   8  -5   57.72    7.46
   4  -8   5   46.85    6.70
  -4  -8  -5   77.50   10.93
   4  -8   5   53.93   11.06
  -4  -8  -5   60.63    7.17
   4   8   5   67.16    7.98
  -4   8  -5   69.36   10.90
   4   8   6    6.04    3.32
  -4   8  -6    6.63    2.28
   4  -8   6    3.27    2.23
  -4  -8  -6    5.54    5.44
   4  -8   6    9.33    2.87
  -4  -8  -6    7.56    3.02
   4   8   6    0.88    1.85
  -4   8  -6    8.26    4.20
   4   8   7   54.95   11.02
  -4   8  -7   60.51   11.31
   4  -8   7   53.43    8.83
  -4  -8  -7   77.44   10.84
   4  -8   7   77.83   13.10
  -4  -8  -7   75.55    9.12
   4   8   7   45.91   11.17
  -4   8  -7   71.14   10.64
   4   8   8    8.54    3.67
  -4   8  -8   22.07    5.95
   4  -8   8    8.62    3.16
  -4  -8  -8   18.09    7.25
   4  -8   8    7.58    4.41
  -4  -8  -8   19.33    5.56
   4   8   8    5.48    1.40
  -4   8  -8   22.35    7.08
   4   8   9   17.07    4.73
  -4   8  -9    0.36    1.46
   4  -8   9    8.21    2.59
  -4  -8  -9    3.86    4.27
   4  -8   9    5.91    3.50
  -4  -8  -9    1.89    2.39
  -4   8  -9   24.00    8.54
   4  -8  10    6.51    2.60
  -4  -8 -10   21.17    7.18
   4  -8  10    7.97    3.51
  -4  -8 -10   17.01    5.61
  -4   8 -10   13.99    6.95
   4   8  11   18.68    8.47
   4  -8  11    9.19    2.20
  -4  -8 -11    8.32    4.36
   4  -8  11   12.95    5.07
  -4  -8 -11    7.19    3.66
  -4   8 -11    3.58    5.15
   4   8  12    9.39    4.82
   4  -8  12    3.05    1.33
  -4  -8 -12   21.35    8.47
   4  -8  12   19.57    4.74
  -4  -8 -12    0.01    2.40
  -4   8 -12    7.03    5.56
   4   8  13   29.88    6.43
   4  -8  13   16.96    5.90
  -4  -8 -13   39.14    9.60
   4  -8  13   36.89   13.13
  -4  -8 -13   41.35    7.96
  -4   8 -13   41.92    9.98
   4   8  14   22.71    6.99
   4  -8  14   10.04    3.22
  -4  -8 -14   -0.24    4.24
   4  -8  14    9.55    4.26
  -4  -8 -14   12.45    4.45
  -4   8 -14   20.53    7.19
   4   8  15   10.69    4.28
   4  -8  15    9.96    4.55
  -4  -8 -15    7.47    5.41
   4  -8  15    1.18    1.55
  -4  -8 -15    6.32    3.65
  -4   8 -15   13.43    7.28
   4   8  16   21.75    6.29
   4  -8  16    4.24    2.68
  -4  -8 -16    7.00    4.93
   4  -8  16   12.41    4.52
  -4  -8 -16    1.21    2.45
  -4   8 -16   31.28   10.16
   4   8  17    6.33    2.99
   4  -8  17    6.47    2.81
  -4  -8 -17    8.70    5.18
   4  -8  17    3.65    2.63
  -4  -8 -17    9.47    4.42
  -4   8 -17    5.14    5.19
   4   8  18    5.87    4.10
   4  -8  18    7.23    2.58
  -4  -8 -18   15.06    6.76
   4  -8  18   24.77   10.06
  -4  -8 -18    9.62    4.70
  -4   8 -18   12.68    6.25
   4   8  19   22.33   10.46
  -4  -8 -19   14.36    8.65
   4  -8  19   26.77   10.11
  -4  -8 -19    6.78    3.21
  -4   8 -19    6.25    5.13
   4   8  20    3.24    2.73
  -4  -8 -20    2.68    5.34
   4  -8  20    4.20    4.62
  -4  -8 -20   14.61    6.88
  -4   8 -20    2.16    5.46
   4   8  21    8.63    4.01
  -4  -8 -21   -2.96    5.52
   4  -8  21   10.22    4.89
  -4  -8 -21   -0.75    3.59
  -4   8 -21   -0.69    4.09
  -4  -9  22    2.84    5.23
   4  -9 -22   -2.57    5.24
   4   9 -22    4.71    3.30
   4   9 -22    6.27    5.38
  -4   9  21    5.61    7.46
  -4  -9  21   32.64   11.87
   4  -9 -21    6.31    5.75
   4   9 -21    5.32    3.45
   4   9 -21    6.14    5.69
  -4   9  20   10.86    6.31
  -4  -9  20   47.08   15.40
   4  -9 -20    5.21    4.31
   4  -9 -20   23.23    9.59
   4   9 -20    7.32    3.58
   4   9 -20    2.79    5.58
  -4   9  19    4.31    5.18
   4  -9 -19   12.49    6.65
   4  -9 -19   18.88    9.46
   4   9 -19    1.58    1.95
   4   9 -19    8.54    6.51
  -4   9  18   12.09    6.08
   4  -9 -18   10.19    4.35
   4  -9 -18   15.75    7.47
   4   9 -18    0.00    0.57
   4   9 -18   15.79    6.92
  -4   9  17    6.70    7.09
  -4  -9  17    8.86    4.15
   4  -9 -17    6.23    4.72
   4  -9 -17    2.57    5.55
   4   9 -17   10.61    3.89
   4   9 -17   13.93    6.78
  -4   9  16   19.51    7.95
   4  -9 -16    7.74    3.84
   4   9 -16    6.50    3.78
   4   9 -16    1.77    4.28
  -4   9  15   26.48    9.70
   4  -9 -15   12.87    5.70
   4  -9 -15   17.34    7.78
   4   9 -15    7.38    3.88
   4   9 -15    6.33    3.14
   4   9 -14   12.93    4.44
  -4   9  14    4.43    4.71
   4  -9 -14   13.74    4.97
   4  -9 -14   28.54   10.24
   4   9 -14    3.03    2.45
   4   9 -14    8.48    3.26
   4   9 -13    7.38    2.59
  -4   9  13    4.74    4.75
   4  -9 -13    9.80    4.14
  -4  -9  13    3.23    2.49
   4  -9 -13    8.40    5.33
   4   9 -13    5.02    2.46
   4   9 -12    6.40    3.15
  -4   9  12   12.77    4.93
   4  -9 -12    2.10    2.11
  -4  -9  12    4.14    2.29
   4  -9 -12    5.03    6.27
   4   9 -12   11.09    4.23
   4   9 -11   10.49    3.79
  -4   9  11    8.93    4.74
  -4  -9  11    4.00    4.82
   4  -9 -11    6.37    3.59
  -4  -9  11    4.63    2.29
   4  -9 -11   31.81    8.08
   4   9 -11   11.06    4.79
   4   9 -10   14.16    6.42
  -4   9  10    3.94    4.54
   4  -9 -10    4.37    2.46
  -4  -9  10   18.69    6.47
   4  -9 -10   10.63    7.93
   4   9 -10   12.98    6.53
   4   9  -9   32.73    9.10
  -4   9   9   32.10    8.20
  -4  -9   9   50.26   10.82
   4  -9  -9   17.06    5.49
  -4  -9   9   20.35    6.34
   4  -9  -9   44.06    9.81
   4   9  -9   27.87    7.55
   4   9  -8    9.99    3.50
  -4   9   8    6.57    6.02
   4  -9  -8    0.29    1.80
  -4  -9   8    4.81    2.44
   4  -9  -8   -1.04    4.27
   4   9  -8    6.45    3.76
  -4   9   7    7.47    6.03
  -4  -9   7    5.83    4.84
   4  -9  -7    0.48    1.96
  -4  -9   7    4.05    1.27
   4  -9  -7   12.74    6.61
   4   9  -7    3.94    2.57
  -4   9   7    8.36    3.75
   4   9  -6   37.95    7.75
  -4   9   6   18.70    5.94
  -4  -9   6   20.43    6.30
   4  -9  -6   30.95    5.08
  -4  -9   6    7.53    2.25
   4  -9  -6   13.52    6.48
   4   9  -6   20.10    7.66
  -4   9   6   22.86    6.73
   4   9  -5    4.90    3.19
  -4   9   5    9.14    3.98
  -4  -9   5   13.06    7.46
   4  -9  -5    8.60    4.04
  -4  -9   5    4.89    1.54
   4  -9  -5   19.68    7.84
   4   9  -5   13.22    4.30
  -4   9   5    4.64    4.17
   4   9  -4   16.25    6.23
  -4   9   4    3.55    3.29
   4  -9  -4   10.85    3.91
  -4  -9   4   21.92    9.02
  -4  -9   4    4.80    2.44
   4  -9  -4    1.11    4.27
   4   9  -4    6.73    3.21
  -4   9   4   15.81    6.39
   4   9  -3   44.63    9.02
  -4   9   3   24.82    7.66
   4  -9  -3   34.06    5.19
  -4  -9   3   38.95    8.16
  -4  -9   3   25.52    6.64
   4  -9  -3   54.12   10.05
   4   9  -3   27.02    5.89
  -4   9   3   15.87    5.63
   4   9  -2    4.33    3.92
  -4   9   2   -3.95    2.99
   4  -9  -2    2.55    1.61
  -4  -9   2   12.65    7.43
  -4  -9   2    3.26    2.15
   4  -9  -2    2.50    4.53
   4   9  -2    2.46    3.38
  -4   9   2    5.09    4.00
   4   9  -1   10.75    6.83
  -4   9   1    7.72    3.24
   4  -9  -1    6.99    2.13
  -4  -9   1    7.62    5.61
  -4  -9   1    3.31    1.96
   4  -9  -1   26.87    6.87
   4   9  -1   23.23    7.19
  -4   9   1    7.58    3.78
   4   9   0    4.78    3.95
  -4   9   0    4.50    2.94
   4  -9   0    4.85    1.91
  -4  -9   0   17.58    8.18
  -4  -9   0    6.17    1.77
   4  -9   0    8.50    5.95
   4   9   0    9.64    3.58
  -4   9   0    2.47    4.35
   4   9   1    7.27    3.41
  -4   9  -1   11.41    4.97
   4  -9   1    0.66    1.48
  -4  -9  -1   10.92    6.08
  -4  -9  -1    5.44    2.41
   4  -9   1    1.05    4.43
   4   9   1    2.61    2.70
  -4   9  -1   22.16    8.42
   4   9   2   19.76    9.52
  -4   9  -2   14.97    6.11
   4  -9   2    0.49    1.59
  -4  -9  -2   12.85    6.97
   4  -9   2    3.15    4.29
  -4  -9  -2    1.69    1.05
   4   9   2    0.21    2.58
  -4   9  -2    1.70    4.97
   4   9   3   19.23    7.76
  -4   9  -3   10.66    3.68
   4  -9   3    4.22    2.27
  -4  -9  -3    9.62    6.29
   4  -9   3   14.25    5.89
  -4  -9  -3   11.12    3.34
   4   9   3    4.62    2.88
  -4   9  -3   18.21    5.91
   4   9   4    6.64    3.53
  -4   9  -4   10.75    4.84
   4  -9   4    2.72    2.38
  -4  -9  -4   -6.19    4.48
   4  -9   4   -7.59    4.22
  -4  -9  -4    7.97    2.94
   4   9   4   14.29    4.59
  -4   9  -4    7.79    5.11
   4   9   5   36.24    9.98
  -4   9  -5   38.88    7.69
   4  -9   5   33.38    7.91
  -4  -9  -5   48.91    8.58
   4   9   5   44.29    8.42
  -4   9  -5   33.38    9.04
   4   9   6   12.15    5.51
  -4   9  -6    6.44    3.12
   4  -9   6    1.30    1.88
   4  -9   6   10.03    3.61
  -4  -9  -6    3.41    1.96
   4   9   6    1.44    1.24
  -4   9  -6   15.65    9.18
  -4   9  -7    7.69    3.31
  -4  -9  -7    8.41    4.69
   4  -9   7    3.34    3.03
  -4  -9  -7   13.02    4.54
   4   9   7    8.42    3.26
  -4   9  -7   -1.35    4.53
   4   9   8   -4.99    4.09
   4  -9   8    4.54    2.04
  -4  -9  -8    0.26    3.86
   4  -9   8   12.20    4.06
  -4  -9  -8    6.00    2.24
  -4   9  -8    3.80    4.55
   4   9   9   -6.20    3.96
  -4  -9  -9    8.12    4.86
   4  -9   9   16.04    4.09
  -4  -9  -9   11.43    3.02
  -4   9  -9    5.07    4.67
   4   9  10   10.99    5.55
  -4  -9 -10   11.34    6.56
   4  -9  10    8.65    3.24
  -4  -9 -10    6.12    3.09
  -4   9 -10    9.13    7.90
   4   9  11   14.16    5.80
  -4  -9 -11   44.88   11.96
   4  -9  11   13.98    4.84
  -4  -9 -11   14.06    4.97
  -4   9 -11   36.73   12.52
   4   9  12    3.12    2.85
  -4  -9 -12    0.75    4.53
   4  -9  12    8.83    5.41
  -4   9 -12    2.11    5.25
   4   9  13   19.11    5.30
  -4  -9 -13   21.62    9.48
   4  -9  13   22.59    6.27
  -4   9 -13   19.06    8.24
   4   9  14   15.16    6.06
  -4  -9 -14   13.85    7.45
   4  -9  14   14.75    7.57
  -4   9 -14   18.65    9.58
   4   9  15   10.25    4.81
  -4  -9 -15    9.55    5.70
   4  -9  15   -2.49    4.70
  -4   9 -15    1.97    5.64
   4   9  16    8.30    3.99
  -4  -9 -16   32.20   12.60
   4  -9  16   15.32    6.81
  -4   9 -16   26.66   10.47
   4   9  17   15.65    7.27
   4  -9  17    4.93    2.94
  -4   9 -17   17.52    7.23
   4   9  18   12.20    4.87
  -4  -9 -18   12.29    5.74
   4  -9  18   11.20    5.55
  -4   9 -18   15.60    6.06
  -4  10  19    8.31    7.26
  -4 -10  19    7.55    5.45
   4 -10 -19   12.66    7.69
   4  10 -19   10.03    4.30
  -4  10  18   10.26    5.24
  -4 -10  18    6.55    5.24
   4 -10 -18   10.47    8.94
   4  10 -18    1.41    5.40
  -4  10  17   22.86    7.74
  -4 -10  17   16.67    6.46
   4 -10 -17   25.89    9.41
   4  10 -17    4.37    4.84
  -4  10  16   15.88    7.83
  -4 -10  16   13.31    6.33
   4 -10 -16   -0.14    4.84
   4  10 -16    8.73    3.59
  -4  10  16    0.66    3.02
  -4  10  15    1.98    5.31
  -4 -10  15   16.48    8.32
   4 -10 -15    5.20    4.99
   4  10 -15   12.03    6.39
  -4  10  15    2.12    3.31
   4  10 -14   16.87    6.69
  -4  10  14   13.29    6.00
  -4 -10  14   23.48    9.07
   4 -10 -14   49.45    8.77
   4  10 -14   11.01    6.07
  -4  10  14   16.62    7.99
   4  10 -13    7.34    2.91
  -4 -10  13   18.04    8.35
   4 -10 -13    6.97    5.31
   4  10 -13   -1.71    4.55
  -4  10  13    3.64    3.62
   4  10 -12    8.41    2.90
  -4  10  12    3.92    4.70
  -4 -10  12   18.49    7.71
   4 -10 -12   28.68    9.03
   4  10 -12    3.43    2.64
  -4  10  12    6.46    4.89
   4  10 -11    9.75    4.39
  -4  10  11    9.94    5.66
  -4 -10  11   12.41    6.70
   4 -10 -11   15.39    5.90
   4  10 -11   10.19    4.72
  -4  10  11   18.83    6.53
   4  10 -10    8.67    2.60
  -4  10  10   24.93    8.15
  -4 -10  10   32.14    9.64
   4 -10 -10   15.41    8.10
   4  10 -10    8.73    3.70
  -4  10  10    2.27    3.48
   4  10  -9   14.70    4.80
  -4  10   9    1.05    4.03
  -4 -10   9    3.05    5.12
   4 -10  -9    6.29    5.82
   4  10  -9   10.15    5.69
  -4  10   9   13.70    6.34
   4  10  -8    8.58    3.38
  -4  10   8   19.84    7.82
  -4 -10   8   10.21    5.81
   4 -10  -8    7.45    5.80
   4  10  -8   15.25    6.43
  -4  10   8   35.68    9.23
   4  10  -7   -1.04    3.17
  -4  10   7    4.02    4.20
  -4 -10   7    9.23    6.06
   4 -10  -7    9.39    6.14
   4  10  -7   10.12    4.67
  -4  10   7    1.63    4.02
   4  10  -6   21.42    6.82
  -4  10   6   25.88    6.45
  -4 -10   6   29.20    9.68
   4 -10  -6   27.37    8.89
   4  10  -6   39.65    9.82
  -4  10   6   26.00    7.82
   4  10  -5    7.94    5.47
  -4  10   5   12.45    6.62
  -4 -10   5   14.74    7.21
   4 -10  -5    0.66    4.77
   4  10  -5    2.83    5.55
  -4  10   5   12.86    4.95
   4  10  -4    5.88    3.75
  -4  10   4   15.97    5.34
  -4 -10   4   15.13    8.53
   4 -10  -4    2.28    4.93
   4  10  -4    5.19    2.75
  -4  10   4    3.63    4.14
   4  10  -3   12.53    7.41
  -4  10   3   16.26    5.44
  -4 -10   3   27.82    9.34
   4 -10  -3   32.20    8.34
   4  10  -3   32.30    8.15
  -4  10   3   20.72    7.06
   4  10  -2    5.13    2.51
  -4  10   2   18.45    4.74
  -4 -10   2   27.83    8.84
   4 -10  -2    7.97    5.46
   4  10  -2    8.20    4.10
  -4  10   2    4.94    3.00
   4  10  -1    4.97    2.67
  -4  10   1    1.27    2.99
  -4 -10   1    2.37    5.75
   4 -10  -1   11.67    5.13
   4  10  -1    3.54    2.19
  -4  10   1    8.02    5.15
   4  10   0   34.43    9.85
  -4  10   0   27.18    5.26
  -4 -10   0   24.89    9.45
   4 -10   0   62.94   11.50
   4  10   0   31.82    6.48
  -4  10   0   36.22    8.14
   4  10   1   12.60    5.60
  -4  10  -1   19.63    5.45
  -4 -10  -1   21.74    9.03
   4 -10   1   20.74    8.11
   4  10   1    5.98    4.50
  -4  10  -1    3.41    4.62
   4  10   2    6.53    4.73
  -4  10  -2    8.53    3.64
  -4 -10  -2   22.57    8.37
   4 -10   2   10.19    5.55
   4  10   2    6.63    3.18
  -4  10  -2    5.38    6.01
   4  10   3   23.14    7.52
  -4  10  -3   18.33    5.18
  -4 -10  -3   21.74    8.31
   4 -10   3   10.88    8.04
   4  10   3    7.54    3.54
  -4  10  -3   29.29    7.99
   4  10   4    0.87    4.63
  -4  10  -4    9.89    4.05
  -4 -10  -4   11.67    5.83
   4 -10   4    7.03    4.55
   4  10   4    7.45    3.25
  -4  10  -4   15.52    6.47
   4  10   5    3.36    1.96
  -4  10  -5    2.25    2.55
  -4 -10  -5   12.98    6.09
   4 -10   5    8.10    5.19
   4  10   5    4.76    1.53
  -4  10  -5   -2.64    4.72
   4  10   6   24.01    7.82
  -4 -10  -6   15.49    7.48
   4 -10   6   10.65    5.32
  -4  10  -6   14.94    8.37
   4  10   7   11.47    5.92
  -4 -10  -7    7.40    4.83
   4 -10   7    2.40    6.51
   4  10   8    1.83    4.72
  -4 -10  -8   11.54    5.59
   4 -10   8    6.09    4.57
  -4  10  -8   12.51    5.92
   4  10   9   14.16    7.32
  -4 -10  -9    1.25    4.30
   4 -10   9   14.01    7.16
  -4  10  -9    3.63    4.54
   4  10  10   16.09    5.95
  -4 -10 -10   11.76    7.08
   4 -10  10    4.87    3.47
  -4  10 -10   29.37   10.76
   4  10  11    6.70    6.17
  -4 -10 -11    3.90    5.17
   4 -10  11    9.66    4.59
  -4  10 -11    4.64    6.27
   4  10  12   24.06    8.60
  -4 -10 -12   23.85    9.26
   4 -10  12    5.91    5.53
  -4  10 -12   32.86   11.33
   4  10  13   10.98    4.42
  -4 -10 -13    7.48    7.14
   4 -10  13   -4.35    4.72
  -4  10 -13   18.87    9.17
   4  10  14   10.68    4.58
  -4 -10 -14    8.43    5.44
   4 -10  14    7.89    4.59
  -4  10 -14    4.46    5.78
   4  10  15    7.03    4.87
  -4 -10 -15    6.21    5.47
   4 -10  15   15.90    8.44
  -4  10 -15    8.42    6.15
  -4  11  14   26.05   10.43
  -4 -11  14    2.09    4.96
   4 -11 -14    7.31    5.08
   4  11 -14   -0.79    4.87
   4  11 -13    3.03    2.44
  -4  11  13    5.93    5.24
  -4 -11  13    5.43    5.60
   4 -11 -13    7.54    4.05
   4  11 -13    6.40    5.06
  -4  11  13   -0.88    3.41
   4  11 -12    4.39    3.61
  -4  11  12   12.14    6.02
  -4 -11  12   11.32    7.59
   4 -11 -12   11.10    6.00
   4  11 -12    3.10    4.33
  -4  11  12   14.55    6.35
   4  11 -11   12.57    5.77
  -4  11  11   24.51    9.36
  -4 -11  11   41.28   13.09
   4 -11 -11   37.75   12.44
   4  11 -11   21.42   11.37
  -4  11  11   25.02    8.43
   4  11 -10    3.54    3.32
  -4  11  10    4.01    2.89
  -4 -11  10    6.03    4.94
   4 -11 -10   12.13    5.89
  -4  11  10    2.76    3.93
   4  11  -9   11.09    4.73
  -4  11   9   21.95    8.25
  -4 -11   9   40.88   12.30
   4 -11  -9    7.75    4.62
   4  11  -9   20.68    8.23
  -4  11   9    9.77    4.61
   4  11  -8   11.04    5.19
  -4  11   8   13.21    6.44
  -4 -11   8   14.27    6.44
   4 -11  -8    3.04    4.92
   4  11  -8    8.91    3.83
  -4  11   8    8.75    6.37
   4  11  -7   12.33    5.13
  -4  11   7   18.86    8.34
  -4 -11   7   13.54    7.93
   4 -11  -7   -2.91    4.42
   4  11  -7    8.41    3.72
  -4  11   7   12.08    4.84
   4  11  -6    4.63    3.71
  -4  11   6    7.82    3.93
  -4 -11   6   17.48    9.06
   4 -11  -6   15.52    7.88
   4  11  -6   -4.89    3.83
  -4  11   6    4.92    4.50
   4  11  -5   17.44    5.69
  -4  11   5   19.05    7.10
  -4 -11   5   29.59   11.34
   4 -11  -5   30.78   10.65
   4  11  -5   19.44   10.63
  -4  11   5   10.14    4.67
   4  11  -4   11.86    7.26
  -4  11   4   30.44    9.70
  -4 -11   4    8.66    6.13
   4 -11  -4   20.57    8.50
   4  11  -4    2.30    3.62
  -4  11   4   22.14    7.95
   4  11  -3   34.19   11.13
  -4  11   3    7.08    4.66
  -4 -11   3   23.01    8.49
   4 -11  -3   11.65    5.60
   4  11  -3   21.32    7.45
  -4  11   3    7.30    4.85
   4  11  -2    5.47    4.70
  -4  11   2   10.26    4.31
  -4 -11   2   19.91    9.31
   4 -11  -2    9.20    6.74
   4  11  -2   10.17    5.21
  -4  11   2    7.16    5.15
   4  11  -1   14.84    5.99
  -4  11   1   15.59    6.78
  -4 -11   1   -4.35    5.61
   4 -11  -1    3.32    5.75
   4  11  -1    3.46    2.15
  -4  11   1    1.01    4.37
   4  11   0    8.51    3.61
  -4  11   0    2.03    3.45
  -4 -11   0    8.58    5.79
   4 -11   0   11.75    5.85
   4  11   0   10.99    5.52
  -4  11   0   15.20    6.25
   4  11   1   11.45    5.44
  -4  11  -1   14.33    5.67
  -4 -11  -1    7.84    5.86
   4 -11   1   21.47    7.44
   4  11   1    8.90    4.84
  -4  11  -1   11.14    5.22
   4  11   2   11.57    4.91
  -4  11  -2    1.86    2.87
  -4 -11  -2   -5.03    5.16
   4 -11   2   17.94    6.68
   4  11   2    1.40    2.94
  -4  11  -2    0.14    4.38
   4  11   3    7.30    4.21
  -4  11  -3   12.40    4.40
  -4 -11  -3   10.95    5.84
   4 -11   3    5.20    3.56
   4  11   3   18.30    6.33
  -4  11  -3   19.28    7.08
   4  11   4   15.89    6.22
  -4 -11  -4    9.24    5.77
   4 -11   4    6.40    2.71
  -4  11  -4    8.87    6.04
   4  11   5    9.26    5.92
  -4 -11  -5    4.01    5.29
   4 -11   5   14.98    6.26
  -4  11  -5    8.38    5.62
   4  11   6    6.24    5.53
  -4 -11  -6   21.18    8.82
   4 -11   6    9.16    5.90
  -4  11  -6    1.59    5.31
   4  11   7   19.06    7.44
  -4 -11  -7    1.47    4.78
   4 -11   7    5.60    3.87
  -4  11  -7    8.67    5.94
   4  11   8   10.81    4.15
  -4 -11  -8   10.88    5.54
   4 -11   8    5.51    3.54
  -4  11  -8    1.21    5.63
   4  11   9    4.99    3.80
   4 -11   9    9.82    5.03
  -4  11  -9   -1.11    6.02
   4  11  10   13.02    7.18
  -4 -11 -10   27.18   10.75
   4 -11  10   10.17    4.79
  -4  11 -10   22.77   10.23
   4  11  11   15.65    6.41
  -4 -11 -11   15.52    7.78
   4 -11  11   13.04    4.75
  -4  11 -11    5.07    6.61
   4  12  -6   11.27    4.24
  -4  12   6    0.68    3.62
  -4 -12   6   10.78    5.36
   4 -12  -6    5.07    5.83
   4  12  -6   -2.87    3.96
  -4  12   6   -2.15    4.30
   4  12  -5    3.67    4.40
  -4  12   5    3.08    4.06
  -4 -12   5   10.01    5.65
   4 -12  -5   14.16    6.94
   4  12  -5    7.78    4.27
  -4  12   5    5.02    4.67
   4  12  -4   -3.17    3.90
  -4  12   4   15.23    7.01
  -4 -12   4    7.75    5.34
   4 -12  -4    6.15    5.90
   4  12  -4    4.25    4.08
  -4  12   4    4.94    4.77
   4  12  -3    6.15    5.27
  -4  12   3    2.80    3.55
  -4 -12   3   10.90    5.84
   4 -12  -3    2.33    5.58
   4  12  -3    3.19    3.64
  -4  12   3    7.79    4.67
   4  12  -2    3.01    4.03
  -4  12   2    4.38    3.95
  -4 -12   2    8.05    5.86
   4 -12  -2   14.53    6.87
   4  12  -2   11.24    4.96
  -4  12   2   11.31    7.47
   4  12  -1   -0.88    4.67
  -4  12   1   17.14    7.56
  -4 -12   1   12.17    6.08
   4 -12  -1   13.10    8.15
   4  12  -1    2.49    3.48
  -4  12   1    1.16    5.11
   4  12   0    7.83    7.10
  -4  12   0    3.30    2.01
  -4 -12   0    8.96    5.76
   4 -12   0    8.06    3.70
   4  12   0   -0.11    3.08
  -4  12   0   10.39    5.83
   4  12   1   15.01    9.45
  -4  12  -1   21.26    8.19
  -4 -12  -1   30.57   11.12
   4 -12   1   13.17    4.50
  -4  12  -1   12.45    8.23
   4  12   2   17.47    8.77
  -4 -12  -2   30.56   10.67
   4 -12   2   10.90    4.52
  -4  12  -2    9.08    5.61
  -5   0  31    4.70    3.25
  -5   0  31   -4.59    3.66
   5   0 -31    3.59    4.49
   5   0 -31   -1.09    2.79
  -5   0  30    7.62    3.94
  -5   0  30    6.17    2.60
   5   0 -30   14.37    6.16
   5   0 -30   10.26    3.99
  -5   0  29    2.98    3.34
  -5   0  29   11.38    6.79
   5   0 -29   -5.33    4.02
   5   0 -29    6.12    3.54
  -5   0  28   17.86    6.31
  -5   0  28   17.32    5.42
   5   0 -28   10.37    5.19
   5   0 -28   15.42    8.22
  -5   0  27    0.12    2.93
  -5   0  27   12.08    4.82
   5   0 -27   -5.55    3.63
   5   0 -27   10.45    5.18
  -5   0  26    8.13    4.89
  -5   0  26    7.34    4.59
   5   0 -26    3.58    3.86
   5   0 -26   -1.95    3.00
  -5   0  25   13.27    5.49
  -5   0  25    6.31    2.21
   5   0 -25    1.33    3.32
   5   0 -25    7.24    3.86
  -5   0  24    2.19    3.37
  -5   0  24    8.06    3.77
   5   0 -24   11.27    4.15
   5   0 -24    8.39    2.97
  -5   0  23   13.84    5.42
  -5   0  23    7.87    2.73
   5   0 -23   22.22    6.77
   5   0 -23   11.47    4.62
  -5   0  22   14.12    5.32
  -5   0  22   26.97    7.52
   5   0 -22   22.47    6.26
   5   0 -22   11.90    3.97
  -5   0  21    3.33    4.20
  -5   0  21    5.51    2.56
   5   0 -21    6.97    2.35
   5   0 -21    2.91    2.50
  -5   0  20   30.60    6.82
  -5   0  20   21.93    5.37
   5   0 -20   29.10    6.10
   5   0 -20   30.68    6.91
  -5   0  19    9.98    3.13
  -5   0  19    5.29    2.72
   5   0 -19   11.18    4.29
   5   0 -19    2.46    3.20
  -5   0  18    4.98    3.40
  -5   0  18    7.63    2.61
   5   0 -18    1.30    2.78
   5   0 -18    9.89    4.93
  -5   0  17    6.16    4.41
  -5   0  17    6.21    2.82
   5   0 -17    1.94    2.62
   5   0 -17   15.19    4.88
  -5   0  16    3.43    3.14
  -5   0  16    7.72    3.28
   5   0 -16    4.77    2.50
   5   0 -16   14.05    4.17
  -5   0  15    5.99    4.69
  -5   0  15    2.43    2.17
   5   0 -15    1.42    1.83
   5   0 -15    1.23    1.81
  -5   0  14   26.25    7.39
  -5   0  14   25.39    6.33
   5   0 -14    9.47    3.49
   5   0 -14   17.07    4.59
  -5   0  13   15.53    5.92
  -5   0  13    3.80    2.83
   5   0 -13    5.45    2.78
   5   0 -13    5.30    2.50
  -5   0  12   -2.32    3.30
  -5   0  12    3.28    2.50
   5   0 -12    0.73    2.47
   5   0 -12    1.34    2.45
  -5   0  11    5.76    3.52
  -5   0  11    7.41    3.80
   5   0 -11   -0.18    2.24
   5   0 -11    7.07    2.57
  -5   0  10  195.53    8.68
   5   0 -10  221.45   10.16
   5   0 -10  193.16   10.88
  -5   0   9    5.64    3.50
  -5   0   9    2.68    1.49
   5   0  -9    7.12    2.65
   5   0  -9    3.53    2.22
  -5   0   9   -0.25    1.24
   5   0  -9    8.05    3.90
  -5   0   8  377.61   15.58
  -5   0   8  403.00   14.75
   5   0  -8  364.90   13.34
   5   0  -8  364.15   13.76
  -5   0   8  351.51   12.69
   5   0  -8  390.08   18.87
  -5   0   7    1.16    3.52
  -5   0   7    1.21    1.26
   5   0  -7    2.46    2.08
   5   0  -7    3.10    2.01
  -5   0   7    0.12    1.24
   5   0  -7    5.38    2.62
  -5   0   6   44.30    7.06
  -5   0   6   29.98    3.47
   5   0  -6   35.68    3.87
   5   0  -6   41.29    4.52
  -5   0   6   29.31    5.26
   5   0  -6   39.88    6.20
  -5   0   5    8.93    3.51
  -5   0   5   -0.31    1.66
   5   0  -5    2.11    1.70
   5   0  -5    0.94    1.67
  -5   0   5    0.91    1.37
   5   0  -5    7.72    2.90
  -5   0   4  530.94   22.59
  -5   0   4  492.81   19.76
   5   0  -4  506.42   20.26
   5   0  -4  541.25   21.55
  -5   0   4  513.34   20.68
  -5   0   3    7.63    3.28
  -5   0   3    5.24    2.08
   5   0  -3    1.90    1.39
   5   0  -3    1.05    0.95
  -5   0   3    3.11    1.33
   5   0  -3   11.70    3.39
  -5   0   2  381.94   17.16
  -5   0   2  383.23   15.64
   5   0  -2  319.05   13.43
   5   0  -2  377.50   15.30
  -5   0   2  370.95   15.16
   5   0  -2  383.72   16.78
  -5   0   1    0.93    2.61
  -5   0   1    0.56    1.57
   5   0  -1    4.44    2.12
  -5   0   1    4.02    1.68
   5   0  -1    2.90    2.80
  -5   0   0  196.81   23.92
  -5   0   0  157.73    7.34
   5   0   0  158.68   15.77
  -5   0   0  144.88    6.69
  -5   0  -1    0.47    3.84
  -5   0  -1    8.68    2.85
   5   0   1    4.11    1.91
  -5   0  -2  254.66   12.22
  -5   0  -2  272.96   11.86
   5   0   2  254.53   20.05
  -5   0  -2  249.05   16.48
  -5   0  -3    6.03    3.07
  -5   0  -3    0.66    1.41
   5   0   3    3.25    1.27
  -5   0  -3    1.22    1.25
  -5   0  -4   84.15    8.19
  -5   0  -4   87.47    7.76
   5   0   4   89.82   10.75
  -5   0  -4   84.54    7.21
  -5   0  -5    2.47    1.79
   5   0   5    3.59    1.99
  -5   0  -5    1.44    1.31
   5   0   6    5.81    2.17
  -5   0  -6    5.23    2.32
   5   0   7    3.75    2.37
  -5   0  -9    4.52    3.21
   5   0  10  138.14   13.72
  -5   0 -10  130.38   13.91
   5   0  11    7.79    2.67
  -5   0 -11    5.10    2.66
   5   0  12  136.48   17.67
  -5   0 -12  137.91   14.94
   5   0  13    5.37    1.93
  -5   0 -13    3.65    2.02
   5   0  14   11.47    4.66
  -5   0 -14   33.19    7.35
   5   0  15   -1.50    1.35
  -5   0 -15    6.45    3.43
  -5   0 -15    3.69    2.43
   5   0  16  163.62   16.89
  -5   0 -16  147.29   11.78
  -5   0 -16  161.42   15.24
   5   0  17   -0.36    1.36
  -5   0 -17    4.04    3.45
  -5   0 -17    2.97    2.49
   5   0  18   50.03   10.10
  -5   0 -18   82.02    9.56
  -5   0 -18   80.14    8.84
   5   0  19    3.71    2.08
  -5   0 -19   10.86    4.96
  -5   0 -19    1.64    1.84
  -5   0 -20    1.72    3.23
  -5   0 -21    4.65    3.43
  -5   0 -22   21.30    6.43
  -5   0 -23    1.39    3.55
  -5   0 -24    8.29    4.44
  -5   0 -25   -0.80    3.63
  -5   0 -26    4.33    4.00
  -5   0 -27   11.27    4.80
  -5   1  31   17.80    7.37
  -5   1  31   32.71   11.41
  -5  -1  31    8.29    6.10
   5  -1 -31    7.03    4.18
   5   1 -31   17.39    7.69
   5   1 -31    6.32    3.58
  -5   1  30    2.35    3.21
  -5  -1  30    3.94    3.07
  -5   1  30   19.20    9.80
  -5  -1  30    4.67    3.36
   5  -1 -30   11.43    6.38
   5   1 -30   11.54    6.38
   5  -1 -30    5.59    2.50
   5   1 -30    4.38    3.46
  -5   1  29    6.06    4.59
  -5  -1  29    3.18    3.12
  -5   1  29   11.53    7.98
  -5  -1  29    5.14    2.03
   5  -1 -29    7.70    4.82
   5   1 -29   12.36    6.00
   5  -1 -29    8.76    5.61
   5   1 -29    3.90    3.39
  -5   1  28   20.99    6.07
  -5  -1  28    8.13    4.05
  -5   1  28   12.54    6.57
  -5  -1  28   12.62    4.73
   5  -1 -28   12.26    6.30
   5   1 -28    2.80    1.79
   5   1 -28    6.47    1.73
  -5   1  27    7.89    4.26
  -5  -1  27    3.58    4.33
  -5   1  27   10.99    3.63
  -5  -1  27    8.17    3.63
   5  -1 -27    9.65    3.62
   5   1 -27    1.18    1.78
   5  -1 -27    3.90    2.54
   5   1 -27    4.86    1.79
  -5   1  26    5.83    3.52
  -5  -1  26   14.17    5.03
  -5   1  26   13.56    4.09
  -5  -1  26    8.51    5.12
   5  -1 -26    5.32    2.96
   5   1 -26    6.57    4.45
   5  -1 -26    4.08    2.63
   5   1 -26   13.14    5.96
  -5   1  25    6.60    4.56
  -5  -1  25    3.61    3.28
  -5   1  25    7.35    3.58
  -5  -1  25   10.51    5.54
   5  -1 -25    4.52    3.29
   5   1 -25    3.18    3.39
   5  -1 -25    6.61    2.42
   5   1 -25    3.66    1.93
  -5   1  24   10.89    4.95
  -5  -1  24    5.18    3.99
  -5   1  24    3.77    2.79
  -5  -1  24    6.80    2.91
   5  -1 -24    7.58    4.33
   5   1 -24    0.21    3.16
   5  -1 -24    6.48    2.64
   5   1 -24    0.00    3.10
  -5   1  23   17.70    6.61
  -5  -1  23   13.92    5.45
  -5   1  23   11.40    4.96
  -5  -1  23    6.07    3.44
   5  -1 -23    2.55    3.76
   5   1 -23   10.24    3.76
   5  -1 -23    6.98    2.64
   5   1 -23   13.41    4.53
  -5   1  22    0.77    3.22
  -5  -1  22    5.44    3.64
  -5   1  22    7.09    2.52
  -5  -1  22    4.30    3.79
   5  -1 -22    1.41    3.61
   5   1 -22    3.26    4.02
   5  -1 -22    3.42    2.62
   5   1 -22    8.23    3.65
  -5   1  21   28.35    6.73
  -5  -1  21   31.75    7.17
  -5   1  21   29.08    7.13
  -5  -1  21   37.71    8.51
   5  -1 -21   33.03    8.28
   5   1 -21   38.44    5.97
   5  -1 -21   20.34    5.24
   5   1 -21   33.98    7.40
  -5   1  20   -0.97    3.02
  -5  -1  20    4.86    3.51
  -5   1  20    6.27    3.61
  -5  -1  20    3.19    2.64
   5  -1 -20    7.04    4.27
   5   1 -20    5.54    4.03
   5  -1 -20    2.48    1.51
   5   1 -20    4.24    4.21
  -5   1  19   40.59    7.43
  -5  -1  19   34.44    6.55
  -5   1  19   65.40    9.83
  -5  -1  19   41.93   10.94
   5  -1 -19   42.04    8.18
   5   1 -19   48.50    6.04
   5  -1 -19   57.31    9.52
   5   1 -19   32.67    8.09
  -5   1  18   12.61    3.99
  -5  -1  18    6.19    3.46
  -5   1  18   13.56    4.26
  -5  -1  18   20.15    5.90
   5  -1 -18   27.20    6.57
   5   1 -18   15.51    5.12
   5  -1 -18   21.30    8.58
   5   1 -18   20.64    7.60
  -5   1  17   17.85    5.29
  -5  -1  17   12.76    5.15
  -5   1  17   11.30    3.21
  -5  -1  17    6.49    2.56
   5  -1 -17   10.08    4.91
   5   1 -17   14.07    5.14
   5  -1 -17    8.36    3.84
   5   1 -17    7.42    3.75
  -5   1  16   23.67    5.23
  -5  -1  16   40.37    7.81
  -5   1  16   26.41    5.43
  -5  -1  16   32.58    7.91
   5  -1 -16   38.24    7.08
   5   1 -16   28.14    6.67
   5  -1 -16   37.08    7.47
   5   1 -16   34.06    7.29
  -5   1  15  125.28   10.38
  -5  -1  15  136.51   10.92
  -5   1  15  126.43   14.60
  -5  -1  15  141.14   24.73
   5  -1 -15  144.58   18.33
   5   1 -15  137.51   16.23
   5  -1 -15  119.52   15.92
   5   1 -15  145.56   16.00
  -5   1  14   64.89   10.28
  -5  -1  14   36.06    6.21
  -5   1  14   46.35    9.48
  -5  -1  14   36.60    6.68
   5  -1 -14   53.19    8.24
   5   1 -14   60.20   10.51
   5  -1 -14   44.12    8.49
   5   1 -14   55.91   11.51
  -5   1  13  120.74    9.12
  -5  -1  13  105.44    7.54
  -5   1  13  100.40   14.72
  -5  -1  13  114.38    7.41
   5  -1 -13  104.16    8.95
   5   1 -13  119.24    7.82
   5  -1 -13  107.45   17.80
   5   1 -13  105.00   12.80
  -5   1  12    3.23    3.34
  -5  -1  12    4.34    3.28
  -5   1  12    8.24    3.09
  -5  -1  12    4.16    3.50
   5  -1 -12    4.01    2.36
   5   1 -12    0.37    1.35
   5  -1 -12   10.02    3.45
   5   1 -12    5.24    2.94
  -5  -1  11   64.68   10.15
  -5   1  11   68.78    9.95
  -5  -1  11   61.00    8.73
   5  -1 -11   58.88    8.18
   5  -1 -11   60.88    9.46
   5   1 -11   56.14    8.12
  -5  -1  11   37.39    7.43
   5  -1 -11   66.11   11.41
   5   1 -11   70.59   12.84
  -5   1  10   43.78    5.96
  -5  -1  10   43.62    6.24
  -5   1  10   40.39    5.33
  -5  -1  10   36.98    5.04
   5  -1 -10   38.84    4.12
   5  -1 -10   49.27    6.25
   5   1 -10   38.93    6.25
  -5  -1  10   31.10    5.69
   5  -1 -10   39.20    5.85
   5   1 -10   51.33    7.90
  -5   1   9  161.50    9.03
  -5  -1   9  175.81    9.53
  -5   1   9  148.13   11.84
  -5  -1   9  188.75    8.68
   5  -1  -9  138.01    6.49
   5  -1  -9  173.16    8.72
   5   1  -9  198.94   17.89
  -5  -1   9  155.88    6.41
   5  -1  -9  168.11   22.78
   5   1  -9  183.97   26.13
  -5   1   8   28.26    6.47
  -5   1   8   24.14    5.49
  -5  -1   8   17.90    3.94
   5  -1  -8   12.85    2.70
   5  -1  -8   19.63    4.63
   5   1  -8   16.16    3.27
  -5  -1   8   20.46    3.74
   5  -1  -8   26.63    6.04
   5   1  -8   24.02    5.61
  -5   1   7    4.98    3.20
  -5  -1   7    1.13    3.37
  -5   1   7    1.33    1.43
  -5  -1   7    1.58    1.18
   5  -1  -7    5.44    1.77
   5  -1  -7    1.98    2.12
   5   1  -7    1.07    1.20
  -5   1   7    2.68    1.83
  -5  -1   7    1.71    0.99
   5  -1  -7    6.18    2.45
   5   1  -7   10.14    3.58
  -5   1   6    6.79    3.13
  -5  -1   6    9.42    3.50
  -5   1   6    2.85    1.81
  -5  -1   6    1.68    2.13
   5  -1  -6    3.71    1.35
   5   1  -6    1.46    1.72
   5  -1  -6    4.55    2.75
   5   1  -6   -0.08    1.30
  -5   1   6    1.14    1.01
  -5  -1   6    2.96    1.10
   5  -1  -6    0.79    2.39
   5   1  -6    3.33    1.94
  -5   1   5   50.97    6.26
  -5  -1   5   51.04    5.75
  -5   1   5   51.38    4.04
  -5  -1   5   71.25    6.46
   5  -1  -5   50.81    4.57
   5   1  -5   41.71    4.04
   5   1  -5   61.46    4.94
   5  -1  -5   56.03    5.26
  -5   1   5   45.96    4.76
  -5  -1   5   46.59    5.86
   5  -1  -5   87.25   10.35
   5   1  -5   49.04   10.12
  -5   1   4    7.20    3.02
  -5  -1   4    5.05    4.03
  -5   1   4    1.86    0.86
  -5  -1   4    3.23    2.76
   5   1  -4    2.62    1.65
   5  -1  -4    0.04    0.55
   5   1  -4    4.39    1.38
   5  -1  -4    3.25    2.06
  -5   1   4    1.33    2.43
  -5  -1   4    2.01    1.17
   5   1  -4    8.69    3.19
  -5   1   3   68.43    7.20
  -5  -1   3   51.79    5.63
  -5   1   3   47.36    3.83
  -5  -1   3   54.75    5.35
   5   1  -3   46.03    4.49
   5  -1  -3   44.90    4.95
   5   1  -3   52.49    5.88
   5  -1  -3   49.76    6.63
  -5   1   3   39.13    3.79
   5   1  -3   54.21    8.40
  -5   1   2    7.76    4.42
  -5  -1   2    5.07    2.72
  -5   1   2    3.48    1.04
  -5  -1   2    2.08    2.74
   5   1  -2    6.62    2.00
   5   1  -2    2.40    1.32
   5  -1  -2    0.98    1.75
  -5   1   2    5.66    2.54
   5   1  -2    3.81    3.01
  -5   1   1   18.43    3.76
  -5   1   1   19.83    2.20
  -5  -1   1   21.81    3.42
   5   1  -1   20.38    3.03
   5   1  -1   19.86    2.98
   5  -1  -1   21.60    3.03
  -5   1   1   21.51    2.89
   5   1  -1   24.67    3.50
  -5   1   0    2.41    2.63
  -5   1   0    3.05    1.61
  -5  -1   0    6.03    3.06
   5   1   0    3.81    1.13
   5  -1   0    1.19    1.32
  -5   1   0    4.18    2.36
  -5  -1   0    4.88    1.70
   5   1   0    4.08    1.83
  -5   1  -1   10.89    3.07
  -5   1  -1   12.35    2.34
  -5  -1  -1   16.10    3.06
   5   1   1   11.57    1.95
   5  -1   1   12.35    2.83
  -5   1  -1    4.97    1.69
  -5  -1  -1    6.25    1.73
   5   1   1   10.62    3.06
  -5   1  -2   79.20    7.72
  -5  -1  -2   74.47    7.60
  -5   1  -2   78.51    8.82
   5   1   2   67.00    9.01
   5  -1   2   71.93   12.35
  -5  -1  -2   51.60    6.53
  -5   1  -2   58.95    5.48
   5   1   2   68.10    7.13
   5   1   3    2.79    1.22
  -5   1  -3    2.14    2.23
  -5   1  -3    1.94    0.99
  -5  -1  -3    2.93    1.84
  -5   1  -3    2.93    2.23
   5   1   3    3.82    1.61
   5  -1   3    9.61    3.58
  -5  -1  -3    0.65    0.99
  -5   1  -3    1.79    1.41
   5   1   4   32.31   10.26
  -5   1  -4   39.47    5.24
  -5   1  -4   26.48    6.05
  -5  -1  -4   22.51    4.57
  -5   1  -4   29.67    5.49
   5  -1   4   32.51    9.90
  -5  -1  -4   26.54    4.62
  -5  -1  -4   29.77    5.08
   5   1   5  188.21    8.80
  -5   1  -5  154.10    7.64
  -5   1  -5  141.17   10.84
  -5  -1  -5  168.33    8.82
   5  -1   5  160.84   16.60
  -5  -1  -5  143.50    6.10
  -5  -1  -5  198.30   12.67
   5   1   6   72.65   11.03
  -5   1  -6   72.47    6.90
  -5   1  -6   70.51    8.34
  -5  -1  -6   71.80    7.56
   5  -1   6   79.44   11.51
  -5  -1  -6   53.26    7.50
  -5  -1  -6   79.62    7.34
   5   1   7  125.10   18.09
  -5   1  -7  136.07   17.55
  -5   1  -7   84.32    9.58
  -5  -1  -7  113.79    8.40
   5  -1   7  116.61   14.91
  -5  -1  -7   65.60   12.29
  -5  -1  -7  141.01   10.18
   5   1   8   98.40   12.84
  -5   1  -8  104.58    7.48
   5  -1   8   92.79    9.79
  -5  -1  -8   88.13    5.62
   5   1   9    5.96    1.95
  -5   1  -9    7.63    2.83
   5  -1   9   33.28    5.94
  -5  -1  -9   10.54    3.39
   5   1  10    2.37    1.22
  -5   1 -10   -0.88    1.54
   5  -1  10    4.83    2.21
  -5  -1 -10    3.58    3.07
   5   1  11  126.76   18.33
  -5   1 -11  121.73    8.60
   5  -1  11  112.18   14.94
  -5  -1 -11  112.79    8.45
   5   1  12   73.82   11.07
  -5   1 -12   82.20    6.39
  -5  -1 -12  118.36    9.06
  -5   1 -12  104.02    9.00
   5   1  13   49.14   11.13
  -5   1 -13   40.49    7.27
  -5  -1 -13   35.65    6.78
  -5   1 -13   43.83    8.60
   5   1  14   11.44    3.55
  -5   1 -14    8.67    2.97
  -5  -1 -14   12.75    5.67
  -5   1 -14   16.36    5.35
  -5   1 -14   11.28    3.87
   5   1  15   -1.05    2.16
  -5   1 -15    4.17    1.95
  -5  -1 -15   11.18    4.23
  -5   1 -15   13.16    4.33
  -5   1 -15    2.99    3.09
  -5  -1 -15    7.10    2.22
   5   1  16    8.23    2.69
  -5   1 -16   -0.80    1.31
  -5  -1 -16    3.46    2.74
  -5   1 -16    8.33    4.43
  -5   1 -16    2.46    2.55
  -5  -1 -16    2.13    1.53
   5   1  17    9.84    2.36
  -5   1 -17   16.66    4.93
  -5  -1 -17   16.59    5.34
  -5   1 -17   19.69    5.33
  -5  -1 -17   12.76    3.82
  -5   1 -17    7.72    3.94
   5   1  18   10.02    3.75
  -5   1 -18    5.79    2.60
  -5  -1 -18    3.19    3.03
  -5   1 -18   13.72    5.74
  -5  -1 -18    5.09    2.14
  -5   1 -18   10.97    4.11
   5   1  19   11.49    3.64
  -5  -1 -19    4.72    2.95
  -5   1 -19   12.83    5.10
  -5   1 -19   13.19    5.01
   5   1  20    4.64    1.82
  -5  -1 -20   14.55    5.55
  -5   1 -20    3.19    3.23
  -5   1 -20    4.29    2.46
   5   1  21    9.27    3.55
  -5  -1 -21   18.01    5.99
  -5   1 -21   15.24    5.21
  -5   1 -21   18.21    3.73
  -5  -1 -22    6.46    3.95
  -5   1 -22    5.25    3.77
  -5  -1 -23    4.88    3.61
  -5   1 -23    2.37    3.55
  -5  -1 -24    9.61    5.81
  -5   1 -24   12.19    4.79
  -5  -1 -25    6.04    3.31
  -5   1 -25    2.24    3.70
  -5  -1 -26   -3.14    3.46
  -5   1 -26    2.18    3.78
  -5  -1 -27    6.62    3.80
  -5   1 -27   35.97   11.52
  -5   2  31    7.16    5.06
  -5   2  31    8.21    4.37
  -5  -2  31   12.39    4.36
   5  -2 -31    5.08    5.28
   5   2 -31    4.55    3.83
   5   2 -31    8.27    3.02
  -5   2  30   -0.16    3.09
  -5   2  30    4.54    2.88
  -5  -2  30   20.40    6.35
   5  -2 -30   13.50    7.29
   5   2 -30    4.98    3.32
   5   2 -30    0.82    2.55
  -5   2  29    4.80    3.71
  -5  -2  29   12.42    5.17
  -5   2  29    3.29    3.29
  -5  -2  29    7.93    4.54
   5  -2 -29    1.53    4.51
   5   2 -29    8.17    5.35
   5  -2 -29    1.70    0.84
   5   2 -29    2.56    3.75
  -5   2  28    6.30    4.23
  -5  -2  28    8.94    3.76
  -5   2  28   16.18    5.08
  -5  -2  28   14.81    5.56
   5  -2 -28    0.44    4.30
   5   2 -28    0.68    3.74
   5  -2 -28    2.82    3.02
   5   2 -28    2.46    3.45
  -5   2  27   28.09    7.41
  -5  -2  27   27.40    7.01
  -5   2  27   15.22    8.35
  -5  -2  27   27.10    6.00
   5  -2 -27   29.16    8.10
   5   2 -27   13.79    5.38
   5  -2 -27   18.81    7.85
   5   2 -27   10.83    6.91
  -5   2  26   12.96    7.29
  -5  -2  26   12.43    5.09
  -5   2  26    9.66    5.57
  -5  -2  26    8.46    3.99
   5  -2 -26    5.43    4.60
   5   2 -26    6.74    3.88
   5  -2 -26    7.59    2.66
   5   2 -26    6.88    3.09
  -5   2  25   37.12    7.83
  -5  -2  25   45.95    8.67
  -5   2  25   38.98    9.09
  -5  -2  25   30.41    8.88
   5  -2 -25   25.39    8.35
   5   2 -25   29.52    6.60
   5  -2 -25   33.76   10.05
   5   2 -25   22.69    7.51
  -5   2  24   12.94    6.47
  -5  -2  24    5.78    4.29
  -5   2  24    6.27    2.93
  -5  -2  24   11.11    4.30
   5  -2 -24    2.65    4.34
   5   2 -24   -0.27    3.47
   5  -2 -24   12.70    4.53
   5   2 -24    4.61    3.49
  -5   2  23    8.01    3.93
  -5  -2  23    9.17    4.27
  -5   2  23   11.44    3.73
  -5  -2  23   -3.83    4.37
   5  -2 -23    3.67    4.09
   5   2 -23    6.89    3.71
   5  -2 -23    6.73    3.16
   5   2 -23   13.36    5.47
  -5   2  22    7.30    3.29
  -5  -2  22    6.22    2.90
  -5   2  22    5.75    3.24
  -5  -2  22    2.09    3.22
   5  -2 -22   15.64    6.24
   5   2 -22   25.11    7.08
   5  -2 -22    8.24    2.39
   5   2 -22   10.89    4.62
  -5   2  21   30.88    7.06
  -5  -2  21   23.26    6.09
  -5   2  21   27.62    6.82
  -5  -2  21   32.93    7.77
   5  -2 -21   34.39    7.54
   5   2 -21   42.34    7.09
   5  -2 -21   34.36    7.81
   5   2 -21   30.44    6.78
  -5   2  20    3.80    3.20
  -5  -2  20    3.07    2.98
  -5   2  20    4.87    1.86
  -5  -2  20   -0.31    3.92
   5  -2 -20    8.07    5.31
   5   2 -20   -0.37    3.06
   5  -2 -20    6.33    2.12
   5   2 -20    9.39    5.19
  -5   2  19   33.84    7.58
  -5  -2  19   46.21    5.91
  -5   2  19   35.87    8.14
  -5  -2  19   33.11    7.24
   5  -2 -19   53.15    7.53
   5   2 -19   36.13    6.82
   5  -2 -19   39.13    8.47
   5   2 -19   40.80    9.87
  -5   2  18   13.03    4.76
  -5  -2  18   10.69    4.28
  -5   2  18   10.86    3.09
  -5  -2  18    6.57    4.43
   5  -2 -18   10.15    5.76
   5   2 -18    9.33    3.25
   5  -2 -18    5.08    3.83
   5   2 -18    3.72    3.24
  -5   2  17    9.52    6.10
  -5  -2  17    2.57    2.96
  -5   2  17    7.87    2.32
  -5  -2  17    8.99    5.26
   5  -2 -17   11.51    4.30
   5   2 -17    8.85    3.60
   5  -2 -17    8.20    2.84
   5   2 -17    6.50    3.41
  -5   2  16   -0.90    3.79
  -5  -2  16   -0.63    2.84
  -5   2  16    7.28    2.29
  -5  -2  16    6.96    3.88
   5  -2 -16   17.12    4.90
   5   2 -16    5.82    2.89
   5  -2 -16    5.90    2.60
   5   2 -16    9.78    3.33
  -5   2  15   10.97    5.61
  -5  -2  15    4.23    3.12
  -5   2  15    2.90    1.17
  -5  -2  15    4.59    3.31
   5  -2 -15   -8.26    3.26
   5   2 -15    1.32    0.95
   5  -2 -15   -1.78    2.96
   5   2 -15    5.93    4.22
  -5   2  14    4.34    3.47
  -5  -2  14   -0.92    2.73
  -5   2  14    7.06    2.34
  -5  -2  14    4.72    4.41
   5  -2 -14    3.18    4.46
   5   2 -14    8.59    2.95
   5  -2 -14    7.85    3.75
   5   2 -14    2.60    4.31
  -5  -2  13    6.24    3.00
  -5   2  13    9.21    2.73
  -5  -2  13    4.90    2.93
   5  -2 -13    4.26    3.22
   5   2 -13    9.27    3.14
   5  -2 -13    7.33    4.64
   5   2 -13    6.00    4.19
  -5   2  12    5.89    3.84
  -5  -2  12    5.93    3.23
  -5   2  12   -0.80    1.50
  -5  -2  12    4.37    2.94
   5  -2 -12    1.13    1.52
   5  -2 -12    4.25    3.85
   5   2 -12   -0.73    1.63
  -5  -2  12    2.35    1.89
   5  -2 -12    7.19    2.64
   5   2 -12    2.35    2.44
  -5   2  11    3.39    3.52
  -5  -2  11    5.98    3.29
  -5   2  11    4.24    1.63
  -5  -2  11   14.10    4.65
   5  -2 -11    3.77    2.17
   5  -2 -11   18.64    5.50
   5   2 -11    4.98    2.13
  -5  -2  11    0.20    1.17
   5  -2 -11    4.99    2.34
   5   2 -11   -5.06    2.98
  -5   2  10   -2.55    3.14
  -5  -2  10    7.85    3.82
  -5   2  10   -0.20    1.31
  -5  -2  10   17.05    4.88
   5  -2 -10    8.16    2.61
   5  -2 -10   10.63    4.58
   5   2 -10    5.40    2.78
  -5  -2  10    4.98    1.98
   5  -2 -10    4.52    3.01
   5   2 -10    4.00    1.86
  -5   2   9   71.01    7.56
  -5  -2   9   49.43    6.35
  -5   2   9   48.27    6.69
  -5  -2   9   66.88    7.64
   5  -2  -9   46.05    4.31
   5  -2  -9   66.57    7.13
   5   2  -9   50.76    4.89
  -5  -2   9   52.95    4.77
   5  -2  -9   60.54    6.79
   5   2  -9   61.92    9.02
  -5   2   8   15.97    4.65
  -5  -2   8   14.17    4.35
  -5   2   8   12.47    3.11
  -5  -2   8   12.75    3.69
   5  -2  -8    9.63    2.71
   5  -2  -8   20.13    5.01
   5   2  -8   11.27    3.10
  -5  -2   8   11.30    2.29
   5   2  -8   15.79    4.71
  -5   2   7    0.04    2.80
  -5  -2   7   10.25    4.43
  -5   2   7    9.92    2.84
  -5  -2   7    7.56    4.08
   5  -2  -7    6.02    1.65
   5  -2  -7    5.84    3.69
   5   2  -7    5.18    1.83
  -5   2   6   14.53    4.82
  -5  -2   6   28.57    6.72
  -5   2   6   10.29    2.29
  -5  -2   6   11.77    3.38
   5  -2  -6   12.64    2.41
   5  -2  -6   17.55    4.51
   5   2  -6   11.21    2.17
   5   2  -6   17.47    5.32
   5  -2  -5   -0.03    0.35
   5   2  -5  127.70   20.48
  -5   2   4   67.72    7.59
  -5   2   4   58.71    5.47
  -5  -2   4   67.78    6.78
   5  -2  -4   67.03    8.41
   5   2  -4   74.57   11.51
  -5   2   3   14.33    4.51
  -5  -2   3   15.00    3.87
   5  -2  -3   22.21    4.54
   5   2  -3   23.10    5.38
  -5   2   2    3.56    2.98
  -5  -2   2    5.74    2.59
   5  -2  -2    6.22    2.51
   5   2  -2   -1.21    2.65
   5   2  -1   22.32    5.83
  -5   2   1   11.24    3.13
  -5  -2   1    8.42    3.29
   5  -2  -1   14.66    3.51
   5   2  -1   16.83    4.44
   5   2   0    1.55    1.79
  -5   2   0    1.12    2.61
  -5   2   0    1.27    0.39
  -5   2   0    1.71    0.49
  -5  -2   0   -1.36    2.28
   5  -2   0   10.02    4.11
   5   2   0    3.05    2.66
   5   2   1  267.84   11.58
  -5   2  -1  266.34   11.04
  -5   2  -1  251.25    8.61
  -5   2  -1  240.28    8.03
  -5  -2  -1  251.98   17.10
   5  -2   1  251.96   23.85
  -5  -2  -1  244.34    8.08
  -5  -2  -1  254.60    8.40
   5   2   1  247.91   10.94
   5   2   2   18.50    5.71
  -5   2  -2   11.94    3.78
  -5   2  -2   13.99    2.66
  -5  -2  -2   20.38    5.25
  -5   2  -2   11.72    2.23
   5  -2   2   24.20    5.01
  -5  -2  -2   11.35    2.31
  -5  -2  -2   14.44    2.93
   5   2   2   16.52    5.15
   5   2   3   40.52    5.68
  -5   2  -3   39.36    5.27
  -5   2  -3   30.41    6.53
  -5  -2  -3   42.75    5.43
  -5   2  -3   32.65    8.57
   5  -2   3   25.95    6.17
  -5  -2  -3   32.06    7.87
  -5  -2  -3   32.15    8.16
   5   2   3   39.27    7.09
   5   2   4   15.93    4.97
  -5   2  -4    6.53    2.40
  -5   2  -4   14.12    3.54
  -5  -2  -4   23.12    4.95
   5  -2   4   21.33    5.19
  -5  -2  -4    9.03    2.93
  -5  -2  -4   10.71    2.49
   5   2   4   22.11    4.69
   5   2   5    4.31    3.43
  -5   2  -5    3.30    2.13
  -5   2  -5    1.48    0.69
  -5  -2  -5    8.38    3.96
   5  -2   5    4.93    1.92
  -5  -2  -5    2.50    1.11
  -5  -2  -5    1.63    1.17
   5   2   6   10.15    3.44
  -5   2  -6    6.15    2.48
  -5   2  -6    4.97    1.93
  -5  -2  -6   14.01    4.46
   5  -2   6   11.04    4.92
  -5  -2  -6    8.74    2.60
  -5  -2  -6    8.95    2.38
   5   2   7   22.68    5.08
  -5   2  -7   21.60    4.52
  -5   2  -7   20.04    5.25
  -5  -2  -7   31.65    5.77
   5  -2   7   24.27    5.22
  -5  -2  -7   17.70    3.90
  -5  -2  -7   24.57    5.20
   5   2   8    3.12    2.02
  -5   2  -8    5.71    3.07
  -5   2  -8    1.94    0.91
  -5  -2  -8   -0.20    2.33
   5  -2   8   10.74    4.35
  -5  -2  -8    1.85    1.11
  -5  -2  -8    1.21    0.81
   5   2   9    2.26    1.56
  -5   2  -9    5.73    1.91
   5  -2   9    8.98    3.38
  -5  -2  -9    3.72    2.66
  -5  -2  -9    1.86    0.81
   5   2  10    3.36    1.97
  -5   2 -10    1.23    0.91
  -5   2 -10    6.82    2.61
   5  -2  10    4.15    2.37
  -5  -2 -10    3.52    2.07
  -5  -2 -10    0.76    0.76
   5   2  11   37.27    8.57
  -5   2 -11   14.61    4.30
  -5   2 -11   27.26    4.56
   5  -2  11   27.21    6.33
  -5  -2 -11   29.26    7.75
  -5  -2 -11   20.41    5.24
   5   2  12    5.61    2.69
  -5   2 -12    3.11    1.23
  -5   2 -12    7.66    2.66
   5  -2  12    4.00    2.50
  -5  -2 -12   11.38    4.40
  -5  -2 -12   -0.24    1.00
   5   2  13   10.15    3.93
  -5   2 -13    2.44    1.41
  -5   2 -13    2.24    1.49
   5  -2  13    9.72    3.55
  -5  -2 -13    7.14    3.67
  -5  -2 -13    3.98    1.63
   5   2  14   15.37    4.08
  -5  -2 -14    9.86    3.70
  -5   2 -14   12.94    4.33
   5   2  15   20.79    5.85
  -5   2 -15   17.97    4.15
  -5  -2 -15   28.10    6.15
  -5   2 -15   14.37    5.48
  -5   2 -15   17.35    4.93
  -5  -2 -15   11.51    2.87
   5   2  16    3.49    1.68
  -5   2 -16    0.23    0.96
  -5  -2 -16    0.03    2.10
  -5   2 -16    0.82    3.45
  -5   2 -16   -3.72    2.75
  -5  -2 -16   -0.08    0.99
   5   2  17   51.22    9.59
  -5  -2 -17   47.25    8.27
  -5   2 -17   52.74    7.86
  -5   2 -17   60.79    8.76
   5   2  18    2.56    2.12
  -5  -2 -18    1.83    2.80
  -5   2 -18   12.56    5.32
  -5   2 -18    1.07    3.08
   5   2  19   20.59    7.84
  -5  -2 -19   29.25    6.37
  -5   2 -19   43.47   10.21
  -5   2 -19   29.55    6.11
   5   2  20    3.95    1.62
  -5  -2 -20    7.16    2.72
  -5   2 -20   -1.48    3.26
  -5   2 -20   -1.06    3.48
   5   2  21   22.89    6.92
  -5  -2 -21   27.94    6.77
  -5   2 -21   55.69   11.11
  -5   2 -21   27.75    6.22
   5   2  22   10.79    5.06
  -5  -2 -22    6.17    4.75
  -5   2 -22   21.32    7.98
  -5   2 -22    6.29    3.41
  -5  -2 -23   23.79    7.82
  -5   2 -23   23.15    6.66
  -5  -2 -24   10.86    4.06
  -5   2 -24    7.49    4.00
  -5  -2 -25    3.53    3.78
  -5   2 -25   12.65    5.56
  -5  -2 -26    0.87    3.65
  -5   2 -26   12.36    7.07
  -5   3  30    5.30    5.11
  -5  -3  30   11.87    7.32
   5  -3 -30    6.27    5.37
   5   3 -30    6.30    5.20
   5   3 -30   12.80    4.28
  -5   3  29    4.70    5.14
  -5  -3  29    8.23    3.56
   5  -3 -29   13.48    7.50
   5   3 -29   10.71    5.36
   5   3 -29    5.31    2.90
  -5   3  28   11.38    6.14
  -5  -3  28   -1.83    4.24
   5  -3 -28    5.89    4.44
   5   3 -28    4.40    2.10
   5   3 -28    8.53    3.10
  -5   3  27    4.84    3.80
  -5  -3  27    6.50    2.94
  -5  -3  27    8.76    3.02
   5  -3 -27   12.30    7.85
   5   3 -27   12.61    5.22
   5   3 -27   13.52    4.61
  -5   3  26   15.63    6.79
  -5  -3  26    2.60    2.73
  -5  -3  26    8.30    5.76
   5  -3 -26    6.10    7.28
   5   3 -26   10.21    3.57
   5   3 -26    8.98    4.73
  -5   3  25    3.15    4.80
  -5  -3  25    5.38    2.66
  -5  -3  25   14.64    5.96
   5  -3 -25    6.16    4.82
   5   3 -25    5.09    3.32
   5  -3 -25    6.13    2.94
   5   3 -25    4.08    3.11
  -5   3  24    5.34    4.08
  -5  -3  24    1.84    2.89
  -5  -3  24    7.83    3.72
   5  -3 -24    4.65    3.83
   5   3 -24   -2.95    2.88
   5  -3 -24   10.76    4.77
   5   3 -24    4.06    2.28
  -5   3  23    9.00    5.51
  -5  -3  23    0.89    2.66
  -5  -3  23   13.57    7.95
   5  -3 -23   12.87    4.89
   5   3 -23    4.81    4.14
   5  -3 -23   -0.28    2.73
   5   3 -23    7.33    3.51
  -5   3  22    4.60    4.70
  -5  -3  22    0.30    2.68
  -5   3  22    3.58    2.56
  -5  -3  22    7.92    3.61
   5  -3 -22    7.71    4.02
   5   3 -22   -0.93    2.40
   5  -3 -22    8.37    3.55
   5   3 -22    6.69    3.20
  -5   3  21    5.91    3.58
  -5  -3  21    7.27    3.87
  -5   3  21    3.61    2.47
  -5  -3  21    4.05    2.88
   5  -3 -21   10.12    3.84
   5   3 -21   13.43    4.72
   5  -3 -21    3.92    2.95
   5   3 -21    5.11    3.27
  -5   3  20   18.36    6.12
  -5  -3  20    3.75    2.76
  -5   3  20    7.72    3.10
  -5  -3  20    4.21    2.02
   5  -3 -20    2.53    3.60
   5   3 -20   18.88    5.06
   5  -3 -20   20.98    5.71
   5   3 -20    6.51    3.13
  -5   3  19    7.35    3.99
  -5  -3  19   12.76    4.65
  -5   3  19   15.78    4.10
  -5  -3  19    6.41    4.05
   5  -3 -19    9.84    4.76
   5   3 -19   23.25    6.01
   5   3 -19   25.96    9.12
  -5   3  18    9.83    5.31
  -5  -3  18    5.45    3.10
  -5   3  18    9.56    3.70
  -5  -3  18   20.24    5.82
   5  -3 -18    6.40    3.47
   5   3 -18    3.72    3.23
   5   3 -18    8.19    3.45
  -5   3  17   17.91    6.21
  -5  -3  17   10.32    4.61
  -5   3  17   10.79    3.37
  -5  -3  17   12.96    4.89
   5  -3 -17   14.08    4.88
   5   3 -17   12.77    4.11
   5   3 -17   20.64    6.11
  -5   3  16   23.04    6.38
  -5  -3  16   26.55    6.89
  -5   3  16   17.54    5.47
  -5  -3  16   18.53    6.54
   5  -3 -16    5.40    4.08
   5   3 -16   24.57    5.51
   5   3 -16   17.47    6.41
  -5   3  15    4.23    3.81
  -5  -3  15    8.11    4.00
  -5   3  15    4.04    1.75
  -5  -3  15    5.26    4.09
   5  -3 -15    3.79    3.73
   5   3 -15    1.55    2.12
   5   3 -15   14.67    4.35
  -5  -3  14   40.67    6.99
  -5   3  14   40.87    7.77
  -5  -3  14   34.78    7.41
   5  -3 -14   44.61    8.38
   5   3 -14   41.52    7.52
   5   3 -14   69.81   12.48
  -5   3  13   48.11    7.96
  -5  -3  13   38.08    7.01
  -5   3  13   41.97    8.09
  -5  -3  13   36.22    6.57
   5  -3 -13   54.69    8.53
   5   3 -13   47.50    7.63
   5   3 -13   47.98    8.95
  -5   3  12    5.73    3.17
  -5  -3  12    5.06    3.12
   5  -3 -12    2.91    1.53
  -5  -3  12    2.72    3.14
   5   3 -12    0.96    0.68
   5  -3 -12    6.07    3.66
   5   3 -12    2.21    1.80
   5   3 -12    9.04    2.94
  -5   3  11    1.60    3.06
   5  -3 -11    1.34    1.18
  -5  -3  11    8.46    3.48
   5   3 -11    0.73    0.83
   5  -3 -11   17.41    6.11
   5   3 -11    4.61    1.67
   5   3 -11    2.95    2.70
  -5   3  10   34.34    6.05
  -5  -3  10   35.04    6.02
   5  -3 -10   39.38    5.49
  -5  -3  10   40.78    6.74
   5   3 -10   27.35    5.80
   5  -3 -10   47.09    7.43
   5   3 -10   44.98    7.43
   5   3 -10   40.74    8.37
  -5   3   9    3.69    3.25
  -5  -3   9    2.84    3.04
   5  -3  -9   -0.16    0.87
  -5  -3   9   15.43    5.67
   5   3  -9    3.22    1.41
   5  -3  -9    0.78    3.13
   5   3  -9    0.99    1.42
   5   3  -9    9.60    4.33
  -5   3   8   53.07    9.02
  -5  -3   8   49.47    8.01
   5  -3  -8   39.64    5.82
  -5  -3   8   49.91    7.73
   5   3  -8   35.00    5.89
   5  -3  -8   50.01    8.48
   5   3  -8   41.23    6.59
   5   3  -8   53.13   12.10
  -5   3   7   18.07    5.79
  -5  -3   7   18.10    5.07
   5  -3  -7    0.50    0.33
   5  -3  -7   32.43    6.28
   5   3  -7   11.27    2.81
   5   3  -7   16.44    4.10
  -5   3   6   27.04    5.97
  -5  -3   6   22.07    5.40
   5  -3  -6   25.38    4.09
   5   3  -6   23.08    3.65
   5  -3  -6   21.60    5.36
   5   3  -6   25.67    4.06
   5   3  -6   28.09    6.71
  -5   3   5   33.15    4.89
  -5  -3   5   24.20    5.39
   5  -3  -5   22.21    5.20
   5   3  -5   26.87    7.21
   5   3  -4   58.37    9.72
  -5   3   4   47.64    6.82
  -5  -3   4   42.89    5.44
   5  -3  -4   46.76    5.70
   5   3  -4   43.95    6.52
   5   3  -3    7.76    1.82
  -5   3   3   -0.78    2.55
  -5  -3   3    2.99    3.00
   5  -3  -3    5.62    2.90
   5   3  -3    5.73    1.62
   5   3  -2    4.56    2.90
  -5   3   2    4.26    2.91
  -5  -3   2   10.77    3.85
   5  -3  -2    6.65    3.95
   5   3  -2    3.88    1.53
   5   3  -1   26.98    6.26
  -5   3   1   16.82    4.40
  -5  -3   1   16.54    4.33
   5  -3  -1   14.57    4.09
   5   3  -1   32.80    9.50
   5   3   0   70.95   11.41
  -5   3   0   55.15    6.37
  -5  -3   0   56.26    6.34
   5  -3   0   50.64    6.00
   5   3   0   74.53   11.34
  -5   3  -1   40.21    5.81
  -5  -3  -1   42.37    7.00
   5  -3   1   37.60    5.42
   5   3   1   36.97    6.37
   5   3   2   62.69   12.43
  -5   3  -2   64.01    6.49
  -5  -3  -2   52.55    5.96
   5  -3   2   69.56   10.28
   5   3   2   54.14    8.99
   5   3   3   22.18    7.07
  -5   3  -3   29.67    5.34
  -5   3  -3   26.33    4.97
  -5  -3  -3   34.85    5.90
  -5   3  -3   24.04    5.03
   5  -3   3   31.06    6.79
  -5  -3  -3   22.10    4.61
  -5  -3  -3   26.20    5.46
   5   3   3   41.19    7.48
   5   3   4   15.01    5.01
  -5   3  -4   10.38    3.12
  -5   3  -4    8.94    1.83
  -5  -3  -4   10.73    3.38
   5  -3   4   16.95    3.91
  -5  -3  -4    7.63    2.28
  -5  -3  -4   12.97    3.13
   5   3   4   13.19    3.75
   5   3   5    4.23    2.77
  -5   3  -5    2.30    2.94
  -5   3  -5    0.84    0.70
  -5  -3  -5    2.16    3.56
  -5  -3  -5    1.07    0.55
   5  -3   5    4.85    3.33
  -5  -3  -5    2.10    1.25
   5   3   5    3.92    1.67
   5   3   6   97.16   10.95
  -5   3  -6  100.71    6.49
  -5   3  -6   82.68    4.69
  -5  -3  -6  101.32    8.33
  -5  -3  -6   75.49   12.18
   5  -3   6   89.71    9.17
  -5  -3  -6   82.23    7.16
   5   3   6   86.37   11.71
   5   3   7   73.52   16.82
  -5   3  -7   63.22    8.29
  -5   3  -7   58.25    7.39
  -5  -3  -7   74.74    7.22
  -5  -3  -7   46.87    9.21
   5  -3   7   75.17   13.45
  -5  -3  -7   65.88   12.86
   5   3   8  145.74   23.24
  -5   3  -8  120.88    8.21
  -5   3  -8   97.96    6.63
  -5  -3  -8  125.36   10.27
  -5  -3  -8   82.99   10.00
   5  -3   8  119.02   17.68
  -5  -3  -8  127.40   12.97
  -5  -3  -8  100.16    7.14
   5   3   9   20.61    6.22
  -5   3  -9    7.10    2.21
  -5   3  -9   17.79    4.22
  -5   3  -9    6.35    1.73
  -5  -3  -9   16.23    6.11
  -5  -3  -9    5.77    1.56
   5  -3   9   15.35    4.37
  -5  -3  -9   19.05    4.66
  -5  -3  -9   12.37    3.41
   5   3  10    9.47    3.11
  -5   3 -10   -0.20    0.71
  -5   3 -10    3.11    2.15
  -5  -3 -10    6.72    5.14
   5  -3  10    5.04    2.40
  -5  -3 -10    7.63    3.11
  -5  -3 -10    3.55    1.88
   5   3  11    8.39    2.85
  -5   3 -11    1.72    1.22
  -5   3 -11    4.92    2.22
  -5  -3 -11   -0.85    3.97
   5  -3  11    3.98    2.05
  -5  -3 -11    9.07    3.63
  -5  -3 -11    1.33    1.06
   5   3  12  129.97   20.16
  -5   3 -12   99.43    8.09
   5  -3  12  105.97   18.18
  -5  -3 -12  100.48    8.71
   5   3  13   25.53    6.93
  -5   3 -13   32.89    5.09
   5  -3  13   33.62    8.57
  -5  -3 -13   20.73    4.63
  -5   3 -13   22.78    5.56
   5   3  14  108.83   19.14
  -5   3 -14   94.69    5.53
   5  -3  14   77.06   12.62
  -5  -3 -14   84.48    9.03
  -5   3 -14   86.58    8.16
   5   3  15    2.41    1.52
   5  -3  15   -1.50    3.05
  -5  -3 -15    2.92    2.38
  -5   3 -15    2.82    3.56
   5   3  16   13.59    4.67
   5  -3  16   10.61    3.66
  -5  -3 -16    8.19    3.66
  -5   3 -16   15.98    5.76
   5   3  17    9.06    2.40
  -5  -3 -17    0.23    2.57
  -5   3 -17   -1.25    3.80
  -5   3 -17   13.48    5.50
   5   3  18   20.45    6.43
  -5  -3 -18   13.35    4.82
  -5   3 -18   19.48    6.79
  -5   3 -18    8.45    3.56
   5   3  19    5.07    2.41
  -5  -3 -19   18.10    6.60
  -5   3 -19    2.30    1.67
  -5   3 -19    5.60    3.36
   5   3  20   34.42    8.86
  -5  -3 -20   44.54    8.68
  -5   3 -20   55.20   14.52
  -5   3 -20   32.16    6.34
   5   3  21    9.83    3.66
  -5  -3 -21   11.73    6.34
  -5   3 -21    9.56    5.71
  -5   3 -21   -1.00    3.14
   5   3  22   -2.52    2.51
  -5  -3 -22    3.89    3.72
  -5   3 -22    8.11    2.58
  -5   3 -22    6.53    3.52
   5   3  23   13.17    5.13
  -5  -3 -23   10.77    4.20
  -5   3 -23   19.86    6.71
  -5   3 -23    3.30    3.34
  -5  -3 -24    6.95    3.00
  -5   3 -24    1.32    4.05
  -5  -3 -25    4.39    2.75
  -5   3 -25   13.17    5.56
  -5  -3 -26    6.24    3.77
  -5   3 -26   14.78    7.35
  -5   4  30    4.86    4.25
  -5  -4  30   21.51    8.11
   5  -4 -30   30.43   11.33
   5   4 -30   18.09    6.97
   5   4 -30   22.02    7.89
  -5   4  29    6.75    4.12
  -5  -4  29    7.31    4.57
   5  -4 -29   -0.23    5.17
   5   4 -29   10.48    5.72
   5   4 -29   17.41    8.67
  -5   4  28    8.79    5.71
  -5  -4  28    4.83    2.51
   5  -4 -28    5.84    4.68
   5   4 -28   10.93    4.38
   5   4 -28   11.79    4.09
  -5   4  27    0.97    3.91
  -5  -4  27   17.52    7.68
   5  -4 -27    2.44    4.73
   5   4 -27    3.65    3.40
   5   4 -27    3.55    6.71
  -5   4  26   18.03    6.48
  -5  -4  26   21.96    5.81
  -5  -4  26   25.12    7.48
   5  -4 -26   -5.55    4.75
   5   4 -26    6.91    5.72
   5   4 -26    3.13    2.60
  -5   4  25    0.74    3.49
  -5  -4  25    9.58    4.06
  -5  -4  25   15.41    5.74
   5  -4 -25   13.65    5.45
   5   4 -25   14.05    6.36
   5   4 -25    6.45    3.27
  -5   4  24   14.38    5.54
  -5  -4  24   12.75    3.70
  -5  -4  24   25.02    5.26
   5  -4 -24   24.55    7.49
   5   4 -24   17.72    5.52
   5   4 -24   31.56    7.36
  -5   4  23    2.58    3.34
  -5  -4  23    6.49    4.05
  -5  -4  23    8.49    3.41
   5  -4 -23   16.18    5.22
   5   4 -23    0.36    2.64
   5   4 -23   17.19    5.94
  -5   4  22    5.86    3.45
  -5  -4  22    1.65    2.41
  -5  -4  22   11.76    4.56
   5  -4 -22    0.93    3.72
   5   4 -22    7.33    2.81
   5   4 -22    2.14    3.09
  -5   4  21   11.27    6.11
  -5  -4  21   -1.42    2.52
  -5  -4  21    9.92    6.13
   5  -4 -21   13.80    5.91
   5   4 -21    8.26    4.94
   5   4 -21    9.35    4.75
  -5   4  20   19.30    7.48
  -5  -4  20    3.78    2.77
  -5  -4  20    2.98    4.39
   5  -4 -20   36.34    8.31
   5   4 -20   24.83    6.96
   5   4 -20   12.69    5.56
  -5   4  19    2.23    5.74
  -5  -4  19    7.72    3.65
  -5  -4  19   14.19    6.92
   5  -4 -19   -0.24    3.66
   5   4 -19    8.34    2.81
   5   4 -19    5.32    4.14
  -5   4  18   20.60    5.98
  -5  -4  18   23.38    5.61
  -5  -4  18   11.52    4.77
   5  -4 -18   36.93    9.23
   5   4 -18   24.86    5.64
   5   4 -18   16.28    6.52
  -5   4  17   17.58    6.32
  -5  -4  17   19.31    4.95
  -5  -4  17   10.76    5.07
   5  -4 -17   16.35    6.39
   5   4 -17   13.17    5.16
   5   4 -17   19.32    6.28
  -5  -4  16    0.89    2.80
  -5  -4  16    2.70    4.06
   5  -4 -16    1.93    3.94
   5   4 -16    0.45    1.95
   5   4 -16    9.79    5.30
  -5   4  15   16.64    5.63
  -5  -4  15   18.47    5.65
  -5  -4  15   19.93    6.55
   5  -4 -15   27.35    6.16
   5   4 -15   18.54    4.10
   5   4 -15   25.89    6.73
  -5   4  14   18.28    5.96
  -5  -4  14   12.32    4.39
  -5  -4  14   20.37    6.56
   5  -4 -14   17.75    6.78
   5   4 -14   11.99    4.19
   5   4 -14    6.57    2.85
  -5   4  13    6.43    5.28
  -5  -4  13   -0.48    2.91
  -5  -4  13    8.22    4.43
   5  -4 -13    3.95    3.09
   5   4 -13    2.19    2.08
   5   4 -13    2.76    3.73
  -5   4  12   57.22   13.10
  -5  -4  12   71.06    6.96
   5  -4 -12   42.14    6.36
  -5  -4  12   62.97    7.27
   5   4 -12   32.40    6.33
   5  -4 -12   45.45    8.00
   5   4 -12   42.75    7.81
   5   4 -12   58.29   15.21
  -5   4  11   34.64    6.87
  -5  -4  11   38.56    6.72
   5  -4 -11   21.59    4.81
  -5  -4  11   29.23    5.86
   5   4 -11   15.27    4.36
   5  -4 -11   20.23    5.69
   5   4 -11   20.87    5.74
   5   4 -11   38.49    7.64
  -5   4  10   50.28    8.92
  -5  -4  10   31.43    5.73
   5  -4 -10   29.26    3.97
  -5  -4  10   27.07    7.02
   5   4 -10   14.66    4.32
   5  -4 -10   36.24    6.49
   5   4 -10   28.74    5.16
  -5   4   9   11.95    5.10
   5  -4  -9    6.08    1.38
  -5  -4   9    6.60    3.63
   5   4  -9    5.51    1.49
   5  -4  -9    8.59    3.83
   5   4  -9   12.75    3.25
   5   4  -9    7.23    3.05
  -5   4   8   44.29    7.43
   5  -4  -8   25.61    5.21
  -5  -4   8   32.79    6.13
   5   4  -8   15.85    3.39
   5  -4  -8   52.61    8.08
   5   4  -8   21.64    5.27
   5   4  -8   26.55    7.07
  -5   4   7    7.64    3.41
   5  -4  -7    3.70    1.21
  -5  -4   7    3.32    4.93
   5  -4  -7    1.64    0.83
   5   4  -7    2.22    0.83
   5  -4  -7    6.50    3.65
   5   4  -7    2.36    1.08
   5   4  -7    8.08    3.32
   5   4  -6   74.18   15.65
  -5   4   6   83.60    8.44
  -5  -4   6   65.83    9.79
   5  -4  -6   73.89   11.87
   5   4  -6   86.33   14.79
   5   4  -5   21.19    8.43
  -5   4   5   25.73    5.96
  -5  -4   5   15.61    4.65
   5  -4  -5   19.69    5.14
   5   4  -5   23.29    5.13
   5   4  -4   56.01   11.22
  -5   4   4   63.90    9.63
  -5  -4   4   48.72    8.01
   5  -4  -4   61.08    9.74
   5   4  -4   58.13   10.94
   5   4  -3   30.63    7.41
  -5   4   3   30.85    6.19
  -5  -4   3   26.73    5.61
   5  -4  -3   33.33    6.48
   5   4  -3   18.05    4.91
   5   4  -2    8.69    3.08
  -5   4   2    4.89    3.22
  -5  -4   2    3.08    3.53
   5  -4  -2    9.49    3.56
   5   4  -2   16.05    4.16
   5   4  -1   19.35    5.31
  -5   4   1    8.92    2.75
  -5  -4   1    9.40    3.22
   5  -4  -1   21.74    5.49
   5   4  -1   11.25    4.49
   5   4   0   46.86    8.58
  -5   4   0   47.07    7.57
  -5  -4   0   29.73    6.75
   5  -4   0   27.73    6.19
   5   4   0   34.01    6.87
   5   4   1   61.39   12.53
  -5   4  -1   58.38    8.40
  -5  -4  -1   66.10   12.74
   5  -4   1   62.72    9.63
   5   4   1   68.67   14.23
   5   4   2   55.96   11.96
  -5   4  -2   60.99    9.09
  -5  -4  -2   65.47   11.02
   5  -4   2   65.81    9.90
   5   4   2   61.29   11.67
   5   4   3   78.35   12.16
  -5   4  -3   98.62    7.82
  -5  -4  -3   69.42    9.73
  -5  -4  -3   51.01    6.69
   5  -4   3   74.45   10.16
   5   4   3   72.68   13.95
   5   4   4    8.37    3.56
  -5   4  -4    6.80    2.58
  -5   4  -4    1.22    0.80
  -5  -4  -4    4.56    3.51
  -5  -4  -4    0.26    0.51
   5  -4   4   15.81    6.80
  -5  -4  -4    1.71    0.86
   5   4   4   15.79    4.64
   5   4   5    4.11    4.03
  -5   4  -5    4.50    3.07
  -5   4  -5    4.54    1.38
  -5  -4  -5    5.68    4.27
  -5  -4  -5    1.28    0.60
   5  -4   5    2.15    1.69
  -5  -4  -5    3.15    1.38
   5   4   5    4.47    1.92
   5   4   6   67.59   15.66
  -5   4  -6   69.35    9.06
  -5   4  -6   55.34    6.85
  -5  -4  -6   87.47   14.44
  -5  -4  -6   43.68    7.74
   5  -4   6   61.92   11.77
  -5  -4  -6   59.20    9.35
   5   4   6   54.25   11.39
   5   4   7   70.75   10.72
  -5   4  -7   88.25    7.25
  -5   4  -7   51.39    7.15
  -5  -4  -7   64.62    7.87
  -5  -4  -7   42.43    9.25
   5  -4   7   59.37   11.60
  -5  -4  -7   56.91   11.83
   5   4   7   51.00   10.67
   5   4   8   44.81    8.98
  -5   4  -8   30.87    5.09
  -5   4  -8   24.25    5.08
  -5  -4  -8   22.48    6.37
  -5  -4  -8   17.21    4.74
   5  -4   8   49.45   11.36
  -5  -4  -8   34.38    6.51
   5   4   8   37.45    7.03
  -5  -4  -8   15.93    5.47
  -5   4  -9   67.59   12.25
   5   4   9  134.93   25.46
  -5   4  -9  124.89    8.91
  -5   4  -9   88.80    6.43
  -5  -4  -9  118.47   10.45
  -5  -4  -9   77.40    8.59
   5  -4   9  101.19   14.55
  -5  -4  -9  114.81   11.99
  -5  -4  -9   75.36   11.05
  -5   4 -10    5.22    1.94
   5   4  10   19.92    5.28
  -5   4 -10    9.29    3.04
  -5  -4 -10    5.61    4.56
   5  -4  10    3.77    2.17
  -5  -4 -10   14.42    4.47
  -5  -4 -10    3.40    1.59
   5   4  11   10.50    7.50
  -5   4 -11    9.45    2.50
  -5  -4 -11    8.49    4.93
   5  -4  11   12.55    3.95
  -5  -4 -11    7.80    2.99
  -5   4 -11   12.12    6.19
   5   4  12    7.37    2.85
  -5   4 -12    5.06    1.61
  -5  -4 -12    2.02    3.76
   5  -4  12   12.73    3.49
  -5  -4 -12    6.65    2.69
  -5   4 -12   10.25    4.77
   5   4  13   43.64    8.73
  -5   4 -13   37.84    7.65
  -5  -4 -13   47.75    6.84
   5  -4  13   46.62    9.24
  -5  -4 -13   42.57    5.82
  -5   4 -13   38.99    6.89
   5   4  14    5.47    2.03
  -5  -4 -14   12.31    6.23
   5  -4  14    7.08    2.86
  -5  -4 -14    1.57    1.32
  -5   4 -14    0.95    3.96
   5   4  15   35.18    6.76
   5  -4  15   43.25    8.39
  -5  -4 -15   50.90    8.93
  -5   4 -15   51.09    8.90
   5   4  16    1.88    1.87
   5  -4  16   20.92    6.26
  -5  -4 -16   11.77    4.37
  -5   4 -16    4.10    3.59
   5   4  17   24.39    6.62
   5  -4  17   21.99    7.07
  -5  -4 -17   14.55    3.62
  -5   4 -17   25.65    6.11
   5  -4  18   16.20   10.87
  -5  -4 -18    2.97    1.86
  -5   4 -18    4.54    3.61
   5   4  19    9.54    4.03
  -5  -4 -19    6.40    3.02
  -5   4 -19    5.54    4.37
  -5   4 -19    6.89    5.69
   5   4  20   12.70    4.22
  -5  -4 -20   19.61    4.21
  -5   4 -20   16.69    6.92
  -5   4 -20    7.93    5.63
   5   4  21    2.07    2.10
  -5  -4 -21    9.27    3.91
  -5   4 -21   11.36    6.74
  -5   4 -21    3.99    3.57
   5   4  22   14.30    7.66
  -5  -4 -22    7.78    1.93
  -5   4 -22    5.05    4.88
  -5   4 -22   13.12    5.15
   5   4  23   22.17    8.06
  -5  -4 -23   16.77    5.43
  -5   4 -23   61.33   18.81
  -5   4 -23   32.57    9.82
   5   4  24    7.30    3.27
  -5  -4 -24    7.54    6.24
  -5   4 -24    9.01    5.04
  -5   4 -24    7.93    4.40
  -5  -4 -25    7.96    4.15
  -5   4 -25   13.99    7.86
  -5   5  29   -0.89    3.65
  -5   5  28   12.80    7.82
  -5  -5  28   11.46    7.51
   5  -5 -28   14.43    8.07
   5   5 -28   -2.93    3.27
   5   5 -28   -1.28    4.50
  -5   5  27    4.74    4.00
  -5  -5  27    6.71    3.61
   5  -5 -27   -0.28    4.91
   5   5 -27   10.57    5.19
   5   5 -27    7.87    3.44
  -5   5  26    1.41    3.83
  -5  -5  26    2.26    3.26
   5  -5 -26    5.77    5.47
   5   5 -26    1.06    3.04
   5   5 -26   11.76    6.11
  -5   5  25   -3.40    3.86
  -5  -5  25    2.48    2.45
  -5  -5  25    4.06    3.43
   5  -5 -25   14.85    7.31
   5   5 -25   13.09    4.93
   5   5 -25    0.85    4.16
  -5   5  24    7.25    4.36
  -5  -5  24    8.18    3.57
  -5  -5  24   31.23    9.80
   5  -5 -24    9.28    6.77
   5   5 -24   25.98    6.72
   5   5 -24   21.75    7.56
  -5   5  23   14.08    6.44
  -5  -5  23    4.11    1.94
  -5  -5  23   13.85    6.59
   5  -5 -23    2.64    4.18
   5   5 -23    6.77    3.45
   5   5 -23    5.21    4.43
  -5   5  22   21.82    6.58
  -5  -5  22   21.63    5.11
  -5  -5  22   34.08    8.67
   5  -5 -22   36.34    8.81
   5   5 -22   21.74    5.94
   5   5 -22   11.15    5.50
  -5   5  21   11.70    5.74
  -5  -5  21    8.64    4.30
  -5  -5  21   23.59    6.73
   5  -5 -21   23.34    6.77
   5   5 -21   16.33    5.68
   5   5 -21   11.62    7.59
  -5   5  20   -2.56    4.20
  -5  -5  20    8.44    3.03
  -5  -5  20    5.96    4.65
   5  -5 -20    7.07    5.29
   5   5 -20    9.08    3.98
   5   5 -20   16.09    7.10
  -5   5  19    6.51    4.30
  -5  -5  19   12.91    4.85
  -5  -5  19   15.07    5.74
   5  -5 -19   18.36    7.38
   5   5 -19    9.59    4.71
   5   5 -19   11.48    7.36
  -5   5  18   24.16    6.88
  -5  -5  18   31.60    4.96
  -5  -5  18   43.54    8.05
   5  -5 -18   40.62   10.37
   5   5 -18   26.50    5.92
   5   5 -18   23.49    7.92
  -5  -5  17    1.38    2.88
  -5  -5  17   12.41    6.32
   5  -5 -17    6.87    4.50
   5   5 -17    6.39    2.34
   5   5 -17    7.61    4.57
  -5   5  16   41.09    6.66
  -5  -5  16   29.52    6.65
  -5  -5  16   46.30    7.20
   5  -5 -16   39.59    7.39
   5   5 -16   35.14    8.77
   5   5 -16   50.99    8.92
  -5   5  15    9.12    4.85
  -5  -5  15   10.20    4.72
  -5  -5  15   11.43    5.12
   5  -5 -15   20.56    5.98
   5   5 -15    2.83    1.61
   5   5 -15    4.26    4.78
  -5   5  14   10.15    6.54
  -5  -5  14    5.39    3.03
  -5  -5  14    7.52    2.81
   5  -5 -14    1.77    4.01
   5   5 -14    5.92    2.45
   5   5 -14   10.75    4.83
  -5   5  13   29.31    8.72
  -5  -5  13   25.52    5.96
  -5  -5  13   10.52    5.32
   5  -5 -13    9.87    4.95
   5   5 -13   17.58    5.02
   5   5 -13   18.42    6.06
  -5   5  12   36.00    8.45
  -5  -5  12   31.48    7.05
   5  -5 -12   23.48    5.00
  -5  -5  12   45.88    9.31
   5  -5 -12   71.83    9.98
   5   5 -12   32.43    7.79
  -5   5  11    3.12    2.72
   5  -5 -11    0.12    1.13
  -5  -5  11    2.73    4.28
   5   5 -11   -0.39    0.99
   5  -5 -11    6.77    4.62
   5   5 -11    2.69    1.89
   5   5 -11    8.05    5.66
  -5   5  10   24.24    6.79
   5  -5 -10   16.68    3.74
  -5  -5  10   24.04    6.50
   5   5 -10   16.79    3.77
   5  -5 -10   24.91    7.21
   5   5 -10   23.60    5.27
   5   5 -10   13.68    5.65
  -5   5   9   34.30    7.43
   5  -5  -9   24.04    4.57
  -5  -5   9   34.15    7.76
   5  -5  -9   26.70    5.39
   5   5  -9   22.51    3.69
   5  -5  -9   24.82    6.21
   5   5  -9   19.86    5.13
   5   5  -9   31.33    7.01
   5   5  -8   13.75    5.16
  -5   5   8   10.09    6.10
   5  -5  -8   17.11    3.67
  -5  -5   8   11.35    4.08
   5  -5  -8   10.10    2.73
   5   5  -8   15.32    3.34
   5  -5  -8    6.88    4.57
   5   5  -8   13.36    3.17
   5   5  -8   30.55    8.34
   5   5  -7   18.69    5.30
  -5   5   7   16.12    5.62
   5  -5  -7    5.13    1.07
  -5  -5   7   23.01    7.06
   5  -5  -7   11.52    3.02
   5  -5  -7   18.45    6.64
   5   5  -7    1.27    0.73
   5   5  -7   12.94    3.33
   5   5  -7   12.83    4.26
   5   5  -6   12.84    3.71
  -5   5   6    4.31    3.72
  -5  -5   6    1.38    3.89
   5  -5  -6    5.24    0.99
   5  -5  -6    9.59    4.08
   5   5  -6    1.89    0.73
   5   5  -6    1.57    0.59
   5   5  -6    8.29    3.71
   5   5  -5    6.88    3.28
  -5   5   5   10.17    4.23
  -5  -5   5   14.00    5.52
   5  -5  -5   -2.78    3.53
   5   5  -5    9.06    3.51
   5   5  -4   97.02   16.49
  -5   5   4   65.01    9.09
  -5  -5   4   81.12    8.20
   5  -5  -4   82.11    8.27
   5   5  -4  102.84   16.82
   5   5  -3   54.96   10.10
  -5   5   3   52.61    7.76
  -5  -5   3   41.61    7.17
   5  -5  -3   79.81    8.11
   5   5  -3   60.18   11.79
   5   5  -2   71.63   17.83
  -5   5   2   67.81    9.88
  -5  -5   2   55.77    9.01
   5  -5  -2   71.93   13.12
   5   5  -2   60.08   10.43
   5   5  -1   48.71   12.89
  -5   5   1   46.29    7.28
  -5  -5   1   31.85    6.35
   5  -5  -1   37.49    7.08
   5   5  -1   40.37    6.91
   5   5   0    7.55    3.35
  -5   5   0   13.01    4.60
  -5  -5   0    7.37    3.92
   5  -5   0    0.54    2.45
   5   5   0    1.07    1.37
   5   5   1    9.08    3.63
  -5   5  -1   18.28    4.94
  -5  -5  -1   22.04    6.59
   5  -5   1    5.51    3.27
   5   5   1   10.43    3.04
   5   5   2   60.08   11.14
  -5   5  -2   59.28    8.16
  -5  -5  -2   58.29    9.81
   5  -5   2   35.94    6.54
   5   5   2   49.31    8.08
   5   5   3   14.06    4.39
  -5   5  -3    5.91    2.62
  -5  -5  -3   14.24    5.58
  -5  -5  -3    5.35    1.23
   5  -5   3   10.81    3.22
  -5  -5  -3    9.10    2.16
   5   5   3   16.28    4.24
  -5   5  -4   43.91    7.01
  -5  -5  -4   33.46    6.91
  -5   5  -4   34.13    4.74
  -5  -5  -4   24.08    4.73
   5  -5   4   46.15    9.39
  -5  -5  -4   37.52    5.50
   5   5   4   36.54    7.25
   5   5   5   59.50    8.74
  -5   5  -5   76.53    6.57
  -5   5  -5   59.00   11.80
  -5  -5  -5   71.06    8.90
  -5  -5  -5   34.80    7.25
   5  -5   5   54.69   14.48
  -5  -5  -5   62.66    5.00
   5   5   5   54.06   11.36
   5   5   6   21.07    4.98
  -5   5  -6   15.52    4.34
  -5   5  -6   20.55    4.48
  -5  -5  -6   29.50    6.82
  -5  -5  -6    9.36    3.57
   5  -5   6   20.71    6.35
  -5  -5  -6   16.52    3.89
   5   5   6   27.14    5.42
   5   5   7   33.74    8.84
  -5   5  -7   42.86    7.82
   5  -5   7   40.65    8.43
  -5   5  -7   29.86    5.76
  -5  -5  -7   56.51   10.46
  -5  -5  -7   26.27    6.59
   5  -5   7   48.00   11.45
  -5  -5  -7   51.92    5.04
   5   5   7   41.60    9.00
   5   5   8   63.39   10.40
  -5   5  -8   70.54    6.35
   5  -5   8   61.97   10.27
  -5  -5  -8   90.01   12.21
   5  -5   8   75.41   12.89
  -5  -5  -8   63.74    5.71
   5   5   8   55.77   10.55
   5   5   9   10.52    6.72
  -5   5  -9    0.27    1.28
   5  -5   9    8.02    1.94
  -5  -5  -9    6.44    3.79
   5  -5   9   10.57    4.90
  -5  -5  -9    3.21    1.31
   5   5  10    2.92    3.06
  -5   5 -10    1.59    1.20
   5  -5  10    1.50    0.95
  -5  -5 -10   -1.20    4.14
   5  -5  10   13.43    5.51
  -5  -5 -10   -0.02    1.46
  -5   5 -10    7.30    4.09
   5   5  11   77.18   17.01
  -5   5 -11   75.38    6.13
   5  -5  11   55.96    8.65
  -5  -5 -11   77.08    9.96
   5  -5  11   70.39   19.12
  -5  -5 -11   79.79    7.34
  -5   5 -11   61.55    9.57
   5   5  12   23.23    5.55
   5  -5  12   20.05    4.13
  -5  -5 -12   23.30    7.92
   5  -5  12   22.38    5.68
  -5  -5 -12   27.06    5.71
  -5   5 -12   21.36    5.69
   5   5  13  105.04   15.30
   5  -5  13   72.00   13.49
  -5  -5 -13   71.07    9.54
   5  -5  13   71.16   13.39
  -5  -5 -13   96.69   10.11
  -5   5 -13   60.87   10.15
   5   5  14   11.94    4.55
   5  -5  14    6.82    2.32
  -5  -5 -14   13.76    6.50
   5  -5  14    7.12    2.59
  -5  -5 -14    8.78    3.35
  -5   5 -14    7.68    5.69
   5   5  15    6.99    3.59
   5  -5  15    8.05    3.14
  -5  -5 -15   19.03    7.25
   5  -5  15   12.11    4.68
  -5  -5 -15   -0.29    2.70
  -5   5 -15    7.35    6.01
   5   5  16    5.47    3.11
   5  -5  16    9.87    3.02
  -5  -5 -16   19.85    6.22
   5  -5  16    3.54    3.33
  -5  -5 -16   12.52    5.14
  -5   5 -16   13.68    6.94
   5   5  17   23.57    7.58
   5  -5  17   14.87    5.10
  -5  -5 -17   38.55   10.60
   5  -5  17   21.03    9.38
  -5  -5 -17   27.46    6.13
  -5   5 -17   24.55    6.83
   5   5  18    8.83    4.31
   5  -5  18    5.27    1.84
  -5  -5 -18    2.63    3.77
   5  -5  18    7.98    3.25
  -5  -5 -18    2.19    2.86
  -5   5 -18    7.59    6.05
   5   5  19   30.49    7.57
   5  -5  19   42.39    9.20
   5  -5  19   37.89    9.08
  -5  -5 -19   39.83    8.42
  -5   5 -19   29.63    8.75
   5   5  20    6.69    2.39
   5  -5  20    6.01    3.30
  -5  -5 -20    4.03    3.64
  -5   5 -20    4.34    3.92
   5   5  21   19.22    6.87
  -5  -5 -21    8.70    4.59
  -5   5 -21    6.39    4.94
  -5   5 -21    5.59    5.12
   5   5  22   15.40    5.98
  -5  -5 -22    0.80    2.17
  -5   5 -22   35.83   12.61
  -5   5 -22   14.76    7.61
   5   5  23   11.19    3.92
  -5  -5 -23    4.60    2.82
  -5   5 -23    1.98    4.82
  -5   5 -23    3.04    2.31
   5   5  24   13.89    5.23
  -5  -5 -24    9.25    4.30
  -5   5 -24   19.35   10.08
  -5   5 -24    3.37    3.18
  -5   6  27   20.64    7.04
  -5  -6  27    2.75    5.69
   5  -6 -27    7.63    6.95
   5   6 -27    3.03    3.17
   5   6 -27   -2.50    4.80
  -5   6  26    6.17    5.05
  -5  -6  26   14.24    6.41
   5  -6 -26    1.70    4.44
   5   6 -26   14.18    5.82
   5   6 -26    3.43    4.74
  -5   6  25   16.09    7.23
  -5  -6  25   21.74    6.54
   5  -6 -25   14.01    8.16
   5   6 -25    6.61    2.41
   5   6 -25   11.88    7.23
  -5   6  24   11.49    6.12
  -5  -6  24    8.51    4.86
   5  -6 -24   -1.17    5.54
   5   6 -24    6.04    3.53
   5   6 -24   15.28    7.21
  -5  -6  23    9.24    4.53
  -5  -6  23    2.12    4.59
   5  -6 -23   18.42    8.21
   5   6 -23    3.41    3.47
   5   6 -23    1.50    5.10
  -5   6  22   13.33    5.36
  -5  -6  22   -2.44    2.39
  -5  -6  22   11.14    4.99
   5  -6 -22   13.00    7.34
   5   6 -22    9.75    4.54
   5   6 -22   10.81    7.58
  -5   6  21   11.61    5.74
  -5  -6  21   12.36    4.80
  -5  -6  21   -1.93    3.77
   5  -6 -21    5.08    4.76
   5   6 -21   11.17    3.45
   5   6 -21    3.08    2.24
  -5   6  20    3.20    4.56
  -5  -6  20    3.52    2.38
  -5  -6  20   16.39    5.80
   5  -6 -20   15.46    7.11
   5   6 -20    3.18    2.47
   5   6 -20    9.06    5.05
  -5  -6  19    8.54    4.31
  -5  -6  19    4.90    5.56
   5  -6 -19   22.33    7.63
   5   6 -19    2.56    2.50
   5   6 -19    1.30    4.47
  -5   6  18    7.46    4.33
  -5  -6  18   10.60    4.55
  -5  -6  18    9.43    4.51
   5  -6 -18    8.89    5.05
   5   6 -18    3.97    2.45
   5   6 -18   10.67    7.42
  -5   6  17    6.28    6.14
  -5  -6  17    4.95    2.84
  -5  -6  17    6.14    6.26
   5  -6 -17    6.70    6.52
   5   6 -17    1.34    2.48
   5   6 -17   10.16    5.09
  -5   6  16   15.91    6.94
  -5  -6  16    7.81    2.94
  -5  -6  16    8.84    4.67
   5  -6 -16   10.49    4.91
   5   6 -16    6.95    2.52
   5   6 -16    4.83    4.56
  -5   6  15   15.35    6.70
  -5  -6  15    0.07    3.05
  -5  -6  15    1.55    4.51
   5  -6 -15   13.26    6.51
   5   6 -15    2.21    2.38
   5   6 -15    6.37    4.75
  -5   6  14   13.36    6.87
  -5  -6  14    6.16    3.29
  -5  -6  14   14.75    6.46
   5  -6 -14    5.80    4.42
   5   6 -14    4.37    1.70
   5   6 -14   10.77    4.97
  -5   6  13    3.07    4.29
  -5  -6  13    6.52    4.55
   5  -6 -13   13.60    6.68
   5   6 -13    0.01    1.49
   5   6 -13    7.67    3.49
  -5   6  12   36.89    7.29
  -5  -6  12   42.34    8.99
   5  -6 -12   65.93    4.88
   5  -6 -12   49.90    6.97
   5   6 -12   28.26    6.91
   5   6 -12   43.54    9.26
  -5   6  11    1.07    3.95
  -5  -6  11    2.56    4.55
   5  -6 -11    3.66    1.66
   5  -6 -11    0.67    4.01
   5   6 -11    1.00    0.59
   5   6 -11    3.50    3.25
   5   6 -10   55.25    7.61
  -5   6  10   63.29    8.09
  -5  -6  10   60.64    7.57
   5  -6 -10   41.32    6.46
   5  -6 -10   36.24    7.70
   5   6 -10   34.22    6.46
   5   6 -10   28.21    7.97
   5   6  -9   29.55    7.84
  -5   6   9   31.72    7.43
  -5  -6   9   20.75    6.51
   5  -6  -9   33.57    6.12
   5  -6  -9   56.93   10.76
   5   6  -9   22.32    5.42
   5   6  -9   37.40    9.04
   5   6  -8    6.38    2.79
  -5   6   8    4.81    5.51
  -5  -6   8   12.19    5.89
   5  -6  -8    8.18    2.79
   5  -6  -8    9.62    4.54
   5   6  -8    0.32    0.77
   5   6  -8    1.37    0.89
   5   6  -8    5.07    4.38
   5   6  -7    5.33    2.53
  -5   6   7    9.37    6.08
  -5  -6   7    9.88    5.47
   5  -6  -7    6.24    1.91
   5  -6  -7    9.10    4.21
   5   6  -7    2.69    1.06
   5   6  -7    3.44    1.23
   5   6  -7    7.01    5.11
   5   6  -6    8.13    4.93
  -5   6   6    2.60    3.62
   5  -6  -6    1.24    0.60
  -5  -6   6   11.96    5.51
   5  -6  -6    3.92    1.30
   5  -6  -6    5.92    2.59
   5   6  -6    0.08    0.54
   5   6  -6    2.75    1.15
   5   6  -6   13.33    6.35
   5   6  -5   16.45    6.10
  -5   6   5    0.64    3.62
   5  -6  -5    2.73    0.75
   5  -6  -5    3.51    0.97
  -5  -6   5   31.46    8.34
   5  -6  -5    3.97    4.09
   5   6  -5    4.98    1.57
   5   6  -5    4.93    1.49
   5   6  -5    9.87    4.08
   5   6  -4   61.02   12.18
  -5   6   4   60.86    7.27
  -5  -6   4   82.86    9.84
   5  -6  -4   61.48    7.88
   5   6  -4   31.47    6.64
   5   6  -4   38.39    7.95
   5   6  -4   66.26    7.81
   5   6  -3   76.37   10.36
  -5   6   3   69.83    8.29
  -5  -6   3   52.37    9.98
   5  -6  -3   58.52   13.23
   5   6  -3   37.77    6.08
   5   6  -3   48.49    6.70
   5   6  -3   68.06    7.07
   5   6  -2   49.64   11.52
  -5   6   2   45.37    8.55
  -5  -6   2   48.01    9.17
   5  -6  -2   48.32    9.44
   5   6  -2   33.78    4.47
   5   6  -2   53.83    9.65
   5   6  -1    9.47    2.92
  -5   6   1    5.39    2.60
  -5  -6   1   -3.27    4.73
   5  -6  -1    3.99    3.88
   5   6  -1    0.42    0.29
   5   6  -1    5.40    3.47
   5   6   0    8.36    3.47
  -5   6   0    1.02    2.22
  -5  -6   0   -2.64    4.39
   5  -6   0    2.26    3.82
   5   6   0    0.25    0.34
   5   6   0    2.54    1.90
   5   6   1   13.01    5.73
  -5   6  -1   13.43    4.63
  -5  -6  -1    6.34    4.46
  -5  -6  -1    5.97    1.98
   5  -6   1   18.71    5.70
   5   6   1    6.23    1.66
   5   6   1    2.00    1.54
   5   6   2   23.86    6.95
  -5   6  -2   40.42    7.92
  -5  -6  -2   38.18    9.18
   5  -6   2   34.37    8.06
   5   6   2   20.64    4.62
   5   6   2   40.81    9.62
   5   6   3   27.73    7.43
  -5   6  -3   21.24    4.95
   5  -6   3   16.65    4.54
  -5  -6  -3   42.88    9.90
   5  -6   3   44.42   10.59
  -5  -6  -3   26.48    4.70
   5   6   3   22.30    5.83
   5   6   4   34.28    8.38
  -5   6  -4   56.85    5.98
   5  -6   4   26.42    6.03
  -5  -6  -4   42.14    9.48
   5  -6   4   38.07    9.00
  -5  -6  -4   29.99    6.18
   5   6   4   30.92    7.42
   5   6   5    7.68    4.01
  -5   6  -5    7.83    2.48
   5  -6   5    1.66    0.92
  -5  -6  -5   10.55    4.96
   5  -6   5   12.23    3.83
  -5  -6  -5    3.07    1.53
   5   6   5   -0.03    1.71
   5   6   6   10.13    3.68
   5  -6   6    5.01    1.45
  -5  -6  -6   19.91    6.26
   5  -6   6    5.07    2.00
  -5  -6  -6    1.62    1.50
   5   6   6    6.85    2.09
   5   6   7   -3.81    3.65
  -5   6  -7    4.87    2.04
   5  -6   7    0.41    0.96
  -5  -6  -7   10.13    5.92
   5  -6   7    5.26    3.39
  -5  -6  -7    4.32    1.71
   5   6   7    3.04    1.86
   5   6   8   41.06    7.20
  -5   6  -8   31.16    5.61
   5  -6   8   25.84    6.20
  -5  -6  -8   35.97    8.35
   5  -6   8   39.41    7.61
  -5  -6  -8   31.47    5.90
   5   6   8   18.74    5.26
  -5   6  -8   36.97    9.67
   5   6   9    7.38    3.71
  -5   6  -9    2.46    1.58
   5  -6   9    5.07    1.77
  -5  -6  -9    0.79    4.05
   5  -6   9    0.80    1.88
  -5  -6  -9    7.40    2.04
   5   6   9    3.36    1.08
  -5   6  -9    3.69    4.57
   5   6  10   54.94   13.46
  -5   6 -10   33.10    6.88
   5  -6  10   30.30    6.06
  -5  -6 -10   33.37    8.83
   5  -6  10   46.31    9.93
  -5  -6 -10   43.01    7.15
   5   6  10   25.19    6.37
  -5   6 -10   70.37   11.00
   5   6  11   28.92    6.07
   5  -6  11   16.45    4.13
  -5  -6 -11   20.51    7.46
   5  -6  11   31.30    6.70
  -5  -6 -11   24.88    6.11
  -5   6 -11   20.86    6.94
   5   6  12    2.56    3.07
   5  -6  12    1.86    1.07
  -5  -6 -12    6.48    4.59
   5  -6  12   14.62    5.98
  -5  -6 -12    2.94    2.29
  -5   6 -12   16.81    7.48
   5   6  13   16.00    5.33
   5  -6  13    4.88    1.88
  -5  -6 -13   13.21    7.21
   5  -6  13    9.38    4.10
  -5  -6 -13    8.83    4.18
  -5   6 -13   18.38    7.88
   5   6  14    5.64    3.15
   5  -6  14   -0.23    1.78
  -5  -6 -14   11.67    7.27
   5  -6  14   10.08    4.35
  -5  -6 -14   10.19    3.71
  -5   6 -14    1.85    4.35
   5   6  15   20.61    5.84
   5  -6  15    5.51    1.65
  -5  -6 -15    9.42    5.12
   5  -6  15   13.68    5.10
  -5  -6 -15    7.96    3.27
  -5   6 -15    6.58    4.82
   5   6  16    8.27    7.81
   5  -6  16   11.05    2.82
  -5  -6 -16    5.14    4.41
   5  -6  16   23.01    7.72
  -5  -6 -16    8.74    4.35
  -5   6 -16   11.40    4.95
   5   6  17   31.22    9.19
   5  -6  17   25.06    8.32
  -5  -6 -17   20.89    6.22
   5  -6  17   42.39   10.36
  -5  -6 -17   29.73    9.48
  -5   6 -17   18.06    6.20
   5   6  18   18.85    5.62
   5  -6  18    7.96    3.67
  -5  -6 -18   14.99    8.16
   5  -6  18    9.68    3.54
  -5  -6 -18   22.65    7.09
  -5   6 -18   22.29    7.77
   5   6  19   21.27    6.75
   5  -6  19   13.34    5.77
  -5  -6 -19   10.49    6.92
   5  -6  19    8.25    4.61
  -5  -6 -19    2.09    2.67
  -5   6 -19   10.88    6.13
   5   6  20   10.98    4.37
   5  -6  20    6.77    3.28
  -5  -6 -20   20.20    8.70
   5  -6  20   10.69    6.48
  -5  -6 -20   14.86    6.29
  -5   6 -20    9.57    4.82
   5   6  21   15.43    6.38
   5  -6  21    1.35    1.05
  -5  -6 -21    9.12    5.33
   5  -6  21   20.75    7.93
  -5  -6 -21    0.39    2.91
  -5   6 -21    2.29    6.30
   5   6  22    9.93    3.29
  -5  -6 -22   17.57    8.49
  -5  -6 -22   11.04    5.59
  -5   6 -22    3.97    5.29
  -5   6 -22    2.13    4.46
   5   6  23   20.22    7.70
  -5  -6 -23   27.41   12.66
  -5  -6 -23   14.77    6.44
  -5   6 -23    9.45    5.91
  -5   6 -23   15.97    6.67
  -5   7  25   17.25    7.75
  -5  -7  25    7.46    3.13
   5  -7 -25    9.57    5.99
   5   7 -25   -0.48    2.33
   5   7 -25   -5.62    4.45
  -5   7  24   18.07    7.31
  -5  -7  24    5.50    4.72
   5   7 -24    0.89    3.12
   5   7 -24   -4.01    5.01
  -5   7  23   15.91    7.06
  -5  -7  23    8.67    3.55
   5  -7 -23    4.78    5.13
   5   7 -23    7.73    5.11
   5   7 -23   13.79    6.36
  -5   7  22    6.24    4.91
  -5  -7  22   12.73    6.89
   5  -7 -22    2.81    5.03
   5   7 -22    3.00    2.07
   5   7 -22   16.58    6.94
  -5   7  21    5.35    4.29
  -5  -7  21    7.01    3.70
  -5  -7  21    9.48    5.39
   5  -7 -21   -2.31    4.33
   5   7 -21    5.46    3.60
   5   7 -21   16.94    6.22
  -5   7  20   12.33    5.67
  -5  -7  20    2.07    2.54
  -5  -7  20   11.80    5.92
   5  -7 -20   16.44    8.70
   5   7 -20    3.60    2.67
   5   7 -20    9.43    6.20
  -5   7  19   16.03    6.74
  -5  -7  19   -0.70    2.50
  -5  -7  19    4.28    6.41
   5  -7 -19    8.94    7.66
   5   7 -19   -0.36    2.27
   5   7 -19    8.55    5.07
  -5   7  18   -6.30    3.94
  -5  -7  18    1.39    2.54
  -5  -7  18   11.29    4.86
   5  -7 -18    3.85    5.41
   5   7 -18    2.63    2.28
   5   7 -18    8.94    4.99
  -5   7  17   15.01    6.44
  -5  -7  17   13.23    4.14
  -5  -7  17    3.37    4.49
   5  -7 -17   16.17    7.31
   5   7 -17    6.66    2.75
  -5   7  16    1.01    3.76
  -5  -7  16   16.30    6.20
  -5  -7  16   20.68    8.76
   5  -7 -16    1.98    4.75
   5   7 -16   -0.58    1.84
   5   7 -16    0.46    4.03
  -5   7  15   21.77    7.32
  -5  -7  15   -0.27    2.74
  -5  -7  15    1.63    4.66
   5  -7 -15    3.54    2.65
   5  -7 -15    1.28    4.54
   5   7 -15    2.84    1.91
  -5   7  14   13.46    7.23
  -5  -7  14    6.22    4.92
   5  -7 -14   14.82    4.98
   5  -7 -14   15.01    6.63
   5   7 -14   14.82    4.88
   5   7 -14   13.34    5.35
  -5   7  13    1.37    4.63
  -5  -7  13    4.69    4.96
   5  -7 -13    1.40    1.55
   5  -7 -13    2.34    3.55
   5   7 -13    0.95    1.07
   5   7 -13   18.04    6.94
  -5   7  12    4.97    4.37
  -5  -7  12    4.78    4.70
   5  -7 -12    3.04    2.27
   5  -7 -12    8.06    3.73
   5   7 -12    2.73    1.39
   5   7 -12   18.37    6.90
   5   7 -11   -0.11    2.81
  -5   7  11   10.72    5.68
  -5  -7  11   -1.05    5.03
   5  -7 -11    4.07    2.08
   5  -7 -11    4.40    3.52
   5   7 -11    3.06    1.58
   5   7 -11   12.02    6.88
   5   7 -10   -1.61    2.92
  -5   7  10   12.05    6.34
  -5  -7  10   21.62    8.07
   5  -7 -10    0.91    1.26
   5  -7 -10    0.93    3.53
   5   7 -10    2.29    1.18
   5   7 -10    4.45    4.18
   5   7  -9    5.20    2.59
  -5   7   9   -2.21    3.96
  -5  -7   9    9.27    4.98
   5  -7  -9   -0.44    1.18
   5  -7  -9   18.78    6.81
   5   7  -9   -0.29    1.09
   5   7  -9   -0.89    3.84
   5   7  -8   27.13    6.90
  -5   7   8   34.06    8.07
  -5  -7   8   23.17    8.28
   5  -7  -8   12.86    3.66
   5  -7  -8   13.75    5.73
   5   7  -8   17.62    4.56
   5   7  -8    7.73    5.09
   5   7  -7   23.41    6.53
  -5   7   7   21.44    5.88
  -5  -7   7   49.07    9.46
   5  -7  -7   17.52    4.24
   5  -7  -7   25.42    6.61
   5   7  -7   16.41    4.88
   5   7  -7    6.06    3.17
   5   7  -6   34.96    7.60
  -5   7   6   46.55    8.10
  -5  -7   6   26.55    7.96
   5  -7  -6   20.68    3.39
   5  -7  -6   31.43    8.63
   5   7  -6   24.20    4.17
   5   7  -6   21.24    5.49
   5   7  -5    8.50    3.36
  -5   7   5    8.28    3.86
   5  -7  -5    1.51    0.89
  -5  -7   5   10.17    5.29
   5  -7  -5    5.86    4.59
   5   7  -5   10.04    4.06
   5   7  -4    1.76    3.43
  -5   7   4   18.16    7.47
   5  -7  -4    3.81    1.12
  -5  -7   4   13.56    5.73
  -5  -7   4    2.09    0.79
   5  -7  -4   24.99    6.96
   5   7  -4    8.25    3.89
   5   7  -3   21.51    5.89
  -5   7   3   26.85    5.99
  -5  -7   3    9.81    5.57
  -5  -7   3    9.25    2.49
   5  -7  -3   14.14    5.33
   5   7  -3    5.58    3.06
   5   7  -2   -1.25    3.60
  -5   7   2   11.36    4.08
  -5  -7   2    6.87    5.20
  -5  -7   2    5.36    1.52
   5  -7  -2   28.10    7.56
   5   7  -2    6.11    4.05
   5   7  -1   30.68    7.64
  -5   7   1   24.11    6.09
  -5  -7   1   27.11    7.80
  -5  -7   1   12.72    4.15
   5  -7  -1   45.24    8.01
   5   7  -1   16.20    5.99
   5   7   0    7.58    2.96
  -5   7   0    5.16    2.67
  -5  -7   0   10.75    5.51
  -5  -7   0    4.11    1.23
   5  -7   0    9.55    5.62
   5   7   0   11.51    5.26
   5   7   1    4.54    3.60
  -5   7  -1   -0.06    2.32
  -5  -7  -1    0.49    4.94
  -5  -7  -1    2.84    1.40
   5  -7   1    4.31    4.37
   5   7   1   -1.07    2.28
   5   7   2   53.90    8.50
  -5   7  -2   34.45    6.60
  -5  -7  -2   33.64    8.39
  -5  -7  -2   19.86    4.14
   5  -7   2   20.45    6.54
   5   7   2   19.00    5.56
   5   7   3   19.14    7.17
  -5   7  -3    8.63    2.82
  -5  -7  -3   21.31    6.60
   5  -7   3   19.68    6.26
   5   7   3   20.99    5.86
   5   7   4   10.69    4.18
  -5   7  -4   10.82    3.90
   5  -7   4    2.20    0.79
  -5  -7  -4    4.74    4.67
   5  -7   4    8.47    2.85
  -5  -7  -4    4.06    1.69
   5   7   4    4.60    3.30
   5   7   5   44.80    9.07
  -5   7  -5   25.96    5.33
  -5  -7  -5   57.98   10.81
   5  -7   5   45.38    7.62
  -5  -7  -5   19.76    3.88
   5   7   5   25.78    5.94
  -5   7  -5   25.96    8.66
   5   7   6   18.78    5.31
  -5   7  -6    6.38    2.08
   5  -7   6    2.12    0.83
  -5  -7  -6    8.05    6.60
   5  -7   6    3.79    4.77
  -5  -7  -6    4.00    2.16
   5   7   6    3.34    1.77
  -5   7  -6    7.25    5.26
  -5   7  -7    7.19    3.61
   5  -7   7    3.14    0.83
  -5  -7  -7    1.83    4.88
   5  -7   7   -3.52    3.69
  -5  -7  -7   10.51    3.51
   5   7   7    6.39    1.71
  -5   7  -7    5.11    5.24
   5   7   8   11.93    3.85
  -5   7  -8   13.31    5.19
   5  -7   8   12.27    3.80
  -5  -7  -8   17.88    6.39
   5  -7   8   11.54    4.99
  -5  -7  -8   16.15    4.17
   5   7   8   14.36    4.21
  -5   7  -8   36.15    9.68
   5   7   9    8.39    2.31
  -5   7  -9    7.87    3.26
   5  -7   9    1.93    0.83
  -5  -7  -9   13.14    7.05
   5  -7   9   11.56    3.05
  -5  -7  -9    0.91    1.42
   5   7   9    2.49    1.38
  -5   7  -9   21.92    8.71
   5   7  10    3.60    4.17
   5  -7  10    1.56    0.93
  -5  -7 -10   16.60    7.81
   5  -7  10   11.94    5.20
  -5  -7 -10    3.58    2.32
  -5   7 -10    2.63    5.19
   5   7  11   14.99    7.13
  -5  -7 -11    7.07    4.66
   5  -7  11   16.63    8.03
  -5  -7 -11   10.98    4.12
  -5   7 -11    7.00    5.55
   5   7  12    9.17    5.44
  -5  -7 -12   25.80    8.00
   5  -7  12   32.66    8.38
  -5  -7 -12   21.47    4.41
  -5   7 -12   34.19   10.68
   5   7  13    9.31    3.67
  -5  -7 -13   29.51    6.16
   5  -7  13    9.97    3.81
  -5  -7 -13   20.47    4.82
  -5   7 -13   25.02    8.15
   5   7  14    6.90    4.79
  -5  -7 -14    5.18    4.14
   5  -7  14   12.07    4.51
  -5   7 -14   19.88    8.00
   5   7  15   16.16    7.99
  -5  -7 -15   30.51    9.47
   5  -7  15    6.07    3.04
  -5   7 -15    2.46    5.04
   5   7  16    7.71    3.64
  -5  -7 -16    3.99    4.87
   5  -7  16   13.36    5.39
  -5   7 -16   23.63    9.42
   5   7  17    8.95    3.80
  -5  -7 -17   20.46    7.90
   5  -7  17   22.58    8.24
  -5   7 -17   14.33    6.28
   5   7  18    3.15    2.40
  -5  -7 -18   12.92    7.45
   5  -7  18    8.21    4.20
  -5   7 -18   11.76    6.94
   5   7  19    9.48    3.81
  -5  -7 -19   13.04    7.74
   5  -7  19    3.56    2.43
  -5   7 -19   15.76    7.25
   5   7  20    8.78    3.17
  -5  -7 -20    7.19    5.41
   5  -7  20   -5.96    3.95
  -5   7 -20   10.32    5.88
   5   7  21   25.99   20.34
  -5  -7 -21    1.43    4.80
  -5   7 -21   15.19    6.62
  -5   8  23   21.27    9.25
  -5  -8  23   11.04    5.64
   5  -8 -23   -0.37    5.40
   5   8 -23    8.76    5.38
   5   8 -22   -4.61    5.07
  -5   8  21   23.13    8.86
  -5  -8  21    5.84    5.54
   5   8 -21    7.63    8.15
  -5   8  20    7.13    3.58
  -5  -8  20    8.15    3.80
  -5  -8  20    4.86    5.17
   5   8 -20   10.19    7.66
  -5   8  19   14.91    5.97
  -5  -8  19   13.87    5.75
  -5  -8  19   11.99    5.97
   5   8 -19   16.76    6.98
  -5   8  18    5.78    3.76
  -5  -8  18    4.39    3.50
  -5  -8  18    9.87    5.93
   5  -8 -18   22.37    8.25
   5   8 -18   -1.05    4.65
  -5  -8  17    7.13    2.99
  -5  -8  17   13.37    6.35
   5   8 -17   15.81    5.84
  -5   8  16   12.33    7.03
  -5  -8  16    0.48    2.96
  -5  -8  16    5.52    5.09
   5   8 -16   16.88    7.16
  -5   8  15    2.03    4.14
  -5  -8  15   21.91    7.59
   5   8 -15   12.61    5.85
  -5   8  14   40.93    8.20
  -5  -8  14   18.59    6.37
   5   8 -14    6.17    5.21
  -5   8  13   14.31    6.04
  -5  -8  13   10.94    5.92
   5   8 -13   10.39    7.13
   5   8 -12    9.99    4.70
  -5   8  12   11.63    7.38
  -5  -8  12    9.82    4.82
   5   8 -12   13.12    7.26
   5   8 -11   33.93    9.72
  -5   8  11   22.70    7.69
  -5  -8  11   28.93    8.57
   5  -8 -11   17.50    7.61
   5   8 -11   13.84    5.35
   5   8 -10    8.65    3.13
  -5   8  10   29.55   17.02
  -5  -8  10    4.72    4.49
   5  -8 -10    8.79    6.36
   5   8 -10    3.70    3.75
   5   8  -9   12.93    6.04
  -5   8   9   11.59    5.34
  -5  -8   9   11.91    6.89
   5  -8  -9    2.44    4.40
   5   8  -9   20.04    6.82
   5   8  -8   34.84    7.42
  -5   8   8   15.59    6.08
  -5  -8   8   28.12    7.40
   5  -8  -8   20.03    6.23
   5   8  -8   24.39    6.95
   5   8  -7   -0.04    3.70
  -5   8   7    5.21    4.23
  -5  -8   7    7.68    5.00
   5  -8  -7   20.82    7.36
   5   8  -7   23.09    7.37
   5   8  -6   22.60    7.91
  -5   8   6   15.30    6.02
  -5  -8   6   23.41    8.88
   5  -8  -6   24.15    6.41
   5   8  -6    9.47    4.31
   5   8  -5   26.03    8.16
  -5   8   5   31.14    7.91
  -5  -8   5   16.26    5.71
   5  -8  -5   18.30    6.83
   5   8  -5   28.50    6.80
   5   8  -4   15.80    9.45
  -5   8   4    6.64    3.66
  -5  -8   4    9.68    5.65
   5   8  -4    6.58    3.35
   5   8  -3    0.67    2.36
  -5   8   3    5.04    3.65
  -5  -8   3    2.26    5.07
   5  -8  -3    9.29    5.85
   5   8  -3    4.40    2.81
   5   8  -2   29.80    8.40
  -5   8   2   11.77    4.26
  -5  -8   2   18.31    8.34
   5  -8  -2   23.99    8.25
   5   8  -2   14.32    5.47
   5   8  -1   10.73    4.68
  -5   8   1   10.05    4.92
  -5  -8   1   18.33    8.83
   5  -8  -1   13.02    4.76
   5   8  -1    7.65    3.16
   5   8   0    5.70    2.79
  -5   8   0    3.19    2.58
  -5  -8   0   -4.59    5.04
   5  -8   0    8.41    4.04
   5   8   0    5.86    3.17
   5   8   1   63.57   15.46
  -5   8  -1   67.86    8.85
  -5  -8  -1   82.19   12.07
   5  -8   1   56.31   13.91
   5   8   1   60.92    8.68
   5   8   2   10.44    4.47
  -5   8  -2    8.06    3.30
  -5  -8  -2    5.91    4.99
   5  -8   2   11.33    4.82
   5   8   2    2.59    1.77
   5   8   3   17.30    7.39
  -5   8  -3   10.94    4.63
  -5  -8  -3   26.97    7.80
   5  -8   3   13.74    5.38
   5   8   3   17.83    5.80
  -5   8  -3   22.39    6.99
   5   8   4   13.46    5.67
  -5   8  -4   10.29    4.59
  -5  -8  -4   25.34    7.25
   5  -8   4   10.80    3.93
   5   8   4    6.06    2.65
  -5   8  -4    5.79    4.98
   5   8   5    5.82    4.62
  -5   8  -5    5.86    2.90
  -5  -8  -5   13.85    6.48
   5  -8   5    3.48    2.29
   5   8   5    6.00    3.04
  -5   8  -5   12.13    5.76
   5   8   6   17.49    6.37
  -5   8  -6    7.30    2.66
  -5  -8  -6   10.23    3.80
   5  -8   6    6.13    3.00
   5   8   6    1.44    1.73
  -5   8  -6    9.06    5.17
   5   8   7   33.25    9.13
  -5   8  -7   29.34    5.93
  -5  -8  -7   15.86    6.30
   5  -8   7   11.47    3.94
   5   8   7   20.17    5.52
  -5   8  -7   17.88    7.69
   5   8   8   14.27    6.33
  -5  -8  -8    8.04    5.10
   5  -8   8   10.14    5.00
  -5   8  -8   12.90    7.01
   5   8   9   43.94   11.62
  -5  -8  -9   57.72   11.45
   5  -8   9   43.39    9.19
  -5   8  -9   35.35    7.85
   5   8  10   14.25    4.41
  -5  -8 -10   29.26    9.68
   5  -8  10    3.18    5.11
   5   8  11    9.42    5.00
  -5  -8 -11   15.00    7.42
   5  -8  11   15.54    6.79
  -5   8 -11   23.43    9.99
   5   8  12    8.24    3.48
  -5  -8 -12    6.96    5.33
   5  -8  12    5.73    3.41
  -5   8 -12    1.14    4.98
   5   8  13    3.78    2.30
  -5  -8 -13   10.43    7.47
   5  -8  13    8.42    3.40
  -5   8 -13   26.07    9.88
  -5  -8 -14   14.07    6.48
   5  -8  14   17.07    6.49
  -5   8 -14   -0.05    5.03
   5   8  15   14.55    5.72
  -5  -8 -15    8.72    5.18
   5  -8  15    7.21    3.61
  -5   8 -15    0.72    5.38
   5   8  16   12.04    5.80
  -5  -8 -16    0.53    4.99
   5  -8  16   16.68    5.51
  -5   8 -16    5.87    5.46
   5   8  17   23.05    7.10
  -5  -8 -17    3.45    2.91
   5  -8  17    4.20    3.37
  -5   8 -17   10.44    6.12
   5   8  18    6.55    5.53
  -5  -8 -18    3.32    6.89
   5  -8  18    7.81    3.38
  -5   8 -18   11.89    4.64
   5   8  19    3.48    5.99
  -5  -8 -19    2.82    4.49
   5  -8  19    4.12    5.38
  -5   8 -19   23.18   10.47
  -5   9  21    6.62    5.59
  -5   9  20   21.87    9.81
  -5  -9  20    4.95    5.68
   5  -9 -20   16.61    7.23
   5   9 -20    5.10    6.06
  -5   9  19   11.51    7.45
  -5  -9  19   27.47   10.01
   5  -9 -19   24.51    9.82
   5   9 -19   26.54    9.29
  -5   9  18    4.64    5.17
  -5  -9  18    6.16    2.85
  -5  -9  18   15.52    6.99
   5  -9 -18    4.79    5.32
  -5   9  17   20.77    7.25
  -5  -9  17    3.42    2.91
  -5  -9  17    6.31    5.14
   5  -9 -17   11.85    8.25
   5   9 -17   23.14    9.38
  -5   9  16    5.67    3.48
  -5  -9  16    5.83    4.90
   5  -9 -16   14.44    7.95
   5   9 -16    4.45    5.36
  -5   9  15   10.18    4.59
  -5  -9  15   17.55    7.71
   5  -9 -15    6.29    6.88
   5   9 -15   11.30    6.20
  -5   9  14   18.16    7.36
  -5  -9  14    7.38    4.82
   5  -9 -14   -5.51    4.99
   5   9 -14   19.76    7.39
   5   9 -13   19.96    6.42
  -5   9  13   51.32   10.69
  -5  -9  13   32.20    9.43
   5  -9 -13   19.04    7.89
   5   9 -13   17.61    6.58
   5   9 -12    3.68    3.73
  -5   9  12    7.75    5.09
  -5  -9  12   14.12    5.85
   5  -9 -12    7.26    5.40
   5   9 -12    8.43    5.00
   5   9 -11   10.71    5.41
  -5   9  11   11.49    6.18
  -5  -9  11   11.90    7.39
   5  -9 -11    4.93    4.08
   5   9 -11    2.94    4.90
   5   9 -10    8.46    3.32
  -5   9  10    7.06    3.69
  -5  -9  10    4.43    4.54
   5  -9 -10   14.33    5.55
   5   9 -10   19.75    7.73
   5   9  -9    5.94    2.41
  -5   9   9    7.31    3.56
  -5  -9   9   -0.06    4.40
   5  -9  -9    4.05    3.05
   5   9  -9   10.23    5.95
   5   9  -8   21.22    5.72
  -5   9   8   15.91    6.06
  -5  -9   8    4.63    4.36
   5  -9  -8    7.06    4.72
   5   9  -8    3.40    4.29
   5   9  -7   21.47    6.73
  -5   9   7   27.45    7.30
  -5  -9   7   15.18    4.68
   5  -9  -7   41.07    8.34
   5   9  -7   31.58    6.75
   5   9  -6   19.38    6.83
  -5   9   6   18.67    5.36
  -5  -9   6   14.14    6.24
   5  -9  -6   47.43   10.32
   5   9  -6    5.43    3.63
   5   9  -5    6.68    3.58
  -5   9   5   10.75    4.68
  -5  -9   5   10.57    5.21
   5  -9  -5   23.27    7.80
   5   9  -5    7.88    4.28
   5   9  -4    4.22    1.93
  -5   9   4    3.24    3.19
  -5  -9   4    6.23    4.79
   5  -9  -4   25.17    8.21
   5   9  -4   14.83    6.79
   5   9  -3   17.77    5.68
  -5   9   3   21.67    9.86
  -5  -9   3   23.05    7.76
   5  -9  -3    5.57    4.56
   5   9  -3   -1.76    3.06
   5   9  -2   45.75   10.28
  -5   9   2   43.76    9.04
  -5  -9   2   51.12   10.58
   5  -9  -2   54.76   11.13
  -5   9   2   46.11    9.81
   5   9  -1   11.02    4.29
  -5   9   1   19.30    6.43
  -5  -9   1   26.93    7.68
   5  -9  -1   14.82    7.09
   5   9  -1    7.11    4.17
  -5   9   1   32.61    9.44
   5   9   0   14.78    7.54
  -5   9   0   24.30    6.14
  -5  -9   0   45.25    9.33
   5  -9   0   29.57    7.88
   5   9   0   30.46    7.17
  -5   9   0   20.68    8.58
   5   9   1   16.61    8.89
  -5   9  -1   30.86    6.80
  -5  -9  -1   22.40    7.29
   5  -9   1   23.63    6.97
   5   9   1   31.58    6.35
  -5   9  -1   39.29    9.19
   5   9   2    9.14    5.22
  -5   9  -2   18.81    4.68
  -5  -9  -2   -1.18    4.18
   5  -9   2    8.37    3.74
   5   9   2    3.00    2.77
  -5   9  -2    2.72    4.90
   5   9   3   15.22    4.99
  -5   9  -3    1.13    2.79
  -5  -9  -3   11.27    4.64
   5  -9   3    3.69    2.55
   5   9   3    7.25    4.95
  -5   9  -3   26.71    8.82
   5   9   4   13.78    6.05
  -5   9  -4    6.00    3.86
  -5  -9  -4   17.13    6.39
   5  -9   4   19.45    4.88
   5   9   4    9.94    3.14
   5   9   5   32.01    9.50
  -5   9  -5   28.04    5.46
  -5  -9  -5   45.19    9.65
   5  -9   5   26.32    7.19
   5   9   5   13.03    3.88
  -5   9  -5   24.23    8.38
   5   9   6   33.23    9.60
  -5  -9  -6   18.54    8.68
   5  -9   6   25.91    8.13
  -5   9  -6    9.83    5.57
   5   9   7   27.90    7.47
  -5  -9  -7   62.02   12.96
   5  -9   7   49.45   12.49
  -5   9  -7   37.09   10.30
   5   9   8   13.98    5.88
  -5  -9  -8    8.58    5.52
   5  -9   8    7.56    3.92
  -5   9  -8   23.84    9.36
   5   9   9    8.05    3.68
  -5  -9  -9    3.81    5.41
  -5   9  -9    8.65    8.62
  -5  -9 -10   10.05    5.87
   5  -9  10   -1.01    4.26
  -5   9 -10    4.16    5.82
   5   9  11   11.46    5.33
  -5  -9 -11    2.08    4.99
   5  -9  11   20.29    9.57
  -5   9 -11   14.52    7.93
   5   9  12    9.50    3.89
  -5  -9 -12    8.10    7.38
   5  -9  12   13.96    6.03
  -5   9 -12   -0.17    5.39
   5   9  13   37.87   12.68
  -5  -9 -13   47.83   16.97
   5  -9  13   34.54   11.08
  -5   9 -13   49.58   16.62
   5   9  14   18.03    6.48
  -5  -9 -14   10.96    7.99
   5  -9  14   -0.77    4.48
  -5   9 -14   15.21    6.86
   5   9  15    6.20    4.42
  -5  -9 -15   22.22    8.99
  -5   9 -15   10.53    7.67
   5   9  16   -1.83    4.21
  -5  -9 -16    9.86    5.98
   5  -9  16   16.20    7.20
  -5   9 -16    6.10    6.07
  -5  10  17    5.34    4.83
  -5 -10  17    7.33    5.98
   5 -10 -17    8.02    5.99
   5  10 -17    9.15    4.57
  -5  10  16   30.65   11.28
  -5 -10  16    7.49    8.37
   5 -10 -16    7.96    6.12
   5  10 -16    9.70    7.39
  -5  10  15    2.62    4.84
  -5 -10  15   19.99    8.94
   5 -10 -15    2.63    5.51
   5  10 -15   17.39    8.33
  -5  10  14    8.91    5.05
  -5 -10  14    4.25    6.06
   5 -10 -14   12.12    6.53
   5  10 -14   10.96    8.15
   5  10 -13   13.50    5.19
  -5  10  13    8.09    5.34
  -5 -10  13   14.50    8.68
   5 -10 -13   14.32    6.67
   5  10 -13    4.11    5.02
   5  10 -12    6.67    3.78
  -5  10  12    2.69    4.81
  -5 -10  12   16.09    6.95
   5 -10 -12   16.05    7.08
   5  10 -12   10.63    5.62
   5  10 -11    5.15    2.17
  -5  10  11    2.30    4.57
  -5 -10  11    5.54    5.28
   5 -10 -11   12.03    6.17
   5  10 -11    7.42    4.66
   5  10 -10    3.53    3.40
  -5  10  10    6.78    4.94
  -5 -10  10   14.24    6.11
   5 -10 -10   19.89    8.49
   5  10 -10   28.89   10.09
  -5  10  10   11.49    5.14
   5  10  -9    1.19    2.80
  -5  10   9   -2.45    4.66
  -5 -10   9   14.69    7.60
   5 -10  -9    3.87    5.00
   5  10  -9    8.39    7.00
  -5  10   9    9.31    4.51
   5  10  -8    4.77    2.79
  -5  10   8   14.59    5.95
  -5 -10   8   -0.73    4.70
   5 -10  -8    9.59    5.42
   5  10  -8    1.66    4.52
  -5  10   8    4.28    3.91
   5  10  -7    5.97    2.80
  -5  10   7   11.37    5.02
  -5 -10   7   10.52    5.83
   5 -10  -7   31.35    9.01
   5  10  -7    8.63    4.84
  -5  10   7   12.90    6.94
   5  10  -6   -1.64    3.54
  -5  10   6    8.59    3.94
  -5 -10   6    5.71    5.16
   5 -10  -6    2.27    5.04
   5  10  -6    8.74    5.13
  -5  10   6    5.47    4.40
   5  10  -5   14.30    6.14
  -5  10   5    8.28    3.52
  -5 -10   5    1.61    5.13
   5 -10  -5   10.11    7.70
   5  10  -5    9.67    5.45
  -5  10   5   12.78    6.82
   5  10  -4    9.65    4.34
  -5  10   4   15.13    6.35
  -5 -10   4    9.05    5.85
   5 -10  -4   16.96    6.09
   5  10  -4   29.65    8.61
  -5  10   4   28.55    8.43
   5  10  -3    2.32    4.46
  -5  10   3    5.13    3.56
  -5 -10   3   12.92    7.87
   5 -10  -3   18.65    7.84
   5  10  -3   14.07    5.01
  -5  10   3    6.90    4.89
   5  10  -2   16.68    4.98
  -5  10   2   17.57    5.90
  -5 -10   2   13.19    6.58
   5 -10  -2   34.34   10.73
   5  10  -2   14.92    7.35
  -5  10   2    8.55    5.68
   5  10  -1   15.71    7.18
  -5  10   1    4.75    2.65
  -5 -10   1    6.07    6.93
   5 -10  -1    7.85    5.37
   5  10  -1    7.43    3.61
  -5  10   1    7.41    5.15
   5  10   0    6.61    2.79
  -5 -10   0    5.80    4.92
   5 -10   0    4.34    5.26
   5  10   0    9.29    5.66
   5  10   1    6.43    3.31
  -5  10  -1    3.18    2.21
  -5 -10  -1   17.59    9.02
   5 -10   1    5.40    5.14
   5  10   1    2.47    3.01
  -5  10  -1   16.99    6.88
   5  10   2   14.20    5.44
  -5  10  -2    1.32    3.01
  -5 -10  -2    9.49    5.77
   5 -10   2   18.21    6.98
   5  10   2    4.20    3.11
  -5  10  -2   17.98    7.01
   5  10   3   11.05    4.41
  -5  10  -3   15.62    6.25
  -5 -10  -3    7.17    5.08
   5 -10   3    0.67    3.68
   5  10   3    8.80    3.93
  -5  10  -3    8.37    5.95
   5  10   4   23.89    8.38
  -5 -10  -4   17.33    7.99
   5 -10   4   13.13    5.24
  -5  10  -4   22.17    8.87
   5  10   5    2.51    3.54
  -5 -10  -5   -0.47    4.73
   5 -10   5    9.53    4.50
  -5  10  -5    6.14    5.39
   5  10   6   10.22    4.40
  -5 -10  -6   15.56    8.20
   5 -10   6    7.88    5.55
  -5  10  -6   -5.11    4.95
   5  10   7   -1.05    5.68
  -5 -10  -7   -2.80    5.17
   5 -10   7    7.91    5.09
  -5  10  -7    1.62    5.80
   5  10   8    2.96    4.73
  -5 -10  -8   16.19    6.97
   5 -10   8   -0.40    5.48
  -5  10  -8    4.71    6.57
   5  10   9   11.53    6.15
  -5 -10  -9    9.57    4.50
   5 -10   9    7.38    3.08
  -5  10  -9    3.51    6.55
   5  10  10   25.83    8.19
  -5 -10 -10   28.69   10.21
   5 -10  10    6.70    3.41
  -5  10 -10    3.02    6.40
   5  10  11    5.39    4.70
  -5 -10 -11    3.41    4.58
   5 -10  11   10.40    8.58
  -5  10 -11  -10.82    6.00
   5  10  12   19.82    8.55
  -5 -10 -12   12.16    6.43
   5 -10  12   15.64    5.52
  -5  10 -12   13.66    8.56
  -5  11  12   17.04    6.79
  -5  11  12   11.91    6.29
   5  11 -11    3.53    1.96
  -5  11  11   -1.91    4.27
   5 -11 -11    7.44    6.20
   5  11 -11    3.96    5.17
  -5  11  11    3.31    5.34
   5  11 -10    6.88    2.48
  -5  11  10   22.01   10.10
   5 -11 -10   15.23    8.99
   5  11 -10    6.40    4.88
  -5  11  10    6.33    4.39
   5  11  -9    7.88    4.89
  -5  11   9    9.46    6.05
   5 -11  -9    8.03    5.83
   5  11  -9   18.70    8.16
  -5  11   9    6.00    4.60
   5  11  -8    3.59    2.56
  -5  11   8   10.09    5.11
  -5 -11   8   -2.89    5.48
   5 -11  -8    5.04    5.59
   5  11  -8    5.68    4.75
  -5  11   8    0.08    4.13
   5  11  -7   11.30    4.56
  -5  11   7    6.68    5.21
  -5 -11   7   20.38   10.27
   5 -11  -7    0.69    5.74
   5  11  -7   20.45    7.15
  -5  11   7    1.17    4.20
   5  11  -6    0.87    4.35
  -5  11   6   12.16    6.22
  -5 -11   6    5.78    5.89
   5 -11  -6    4.99    5.85
   5  11  -6    8.12    6.33
  -5  11   6   10.12    5.33
   5  11  -5   11.88    4.37
  -5  11   5    2.55    4.10
  -5 -11   5    7.64    5.90
   5 -11  -5    1.24    5.71
   5  11  -5    4.89    5.35
  -5  11   5   23.64    9.48
   5  11  -4    3.07    3.39
  -5  11   4    7.84    4.98
   5 -11  -4   14.71    9.03
   5  11  -4    5.12    4.92
  -5  11   4    4.48    4.39
   5  11  -3    5.79    4.00
  -5  11   3    2.74    2.57
  -5 -11   3   26.25   10.57
   5 -11  -3    8.18    6.03
   5  11  -3   16.52    6.35
  -5  11   3   18.33    6.17
   5  11  -2   -0.44    4.21
  -5  11   2    6.18    2.89
  -5 -11   2   20.21    9.39
   5 -11  -2    3.51    3.59
   5  11  -2   -2.28    3.45
  -5  11   2    9.33    7.04
   5  11  -1   19.17    8.49
  -5  11   1   13.46    5.64
  -5 -11   1   14.05    7.08
   5 -11  -1    9.70    8.19
   5  11  -1   21.16    8.31
  -5  11   1   10.13    5.71
   5  11   0    7.84    4.83
  -5  11   0    9.13    4.08
  -5 -11   0    2.05    5.92
   5 -11   0    7.11    6.13
   5  11   0   11.97    4.95
  -5  11   0    1.22    5.43
   5  11   1    9.00    3.86
  -5  11  -1   15.30    6.79
  -5 -11  -1   18.04    9.39
   5 -11   1    9.27    3.76
   5  11   1    1.34    3.18
  -5  11  -1    3.79    5.93
   5  11   2   13.23    6.98
  -5 -11  -2    6.57    7.99
   5 -11   2   22.39    9.95
  -5  11  -2    5.65    5.99
   5  11   3    3.50    6.40
  -5 -11  -3    7.23    8.04
   5 -11   3   17.55    7.77
  -5  11  -3    4.71    5.38
   5  11   4    9.42    4.90
  -5 -11  -4   -2.97    5.94
   5 -11   4   11.02    7.35
  -5  11  -4   17.40    7.18
   5  11   5   15.66    8.33
  -5 -11  -5    8.63    8.59
   5 -11   5    9.73    5.13
  -5  11  -5    9.96    7.82
   5  11   6   13.47    5.10
  -5 -11  -6   24.15   10.38
   5 -11   6   -1.67    5.19
  -5  11  -6    9.71    8.48
   5  11   7   14.31    5.84
  -5 -11  -7    5.10    6.05
   5 -11   7    9.62    5.75
  -5  11  -7    1.03    6.03
  -6   0  30    3.12    3.44
  -6   0  30    4.18    3.06
   6   0 -30    5.09    4.17
   6   0 -30    4.23    2.77
  -6   0  29    7.70    3.72
  -6   0  29    5.64    3.10
   6   0 -29    5.20    4.08
   6   0 -29   -0.26    3.19
  -6   0  28   -2.39    3.25
  -6   0  28    4.33    1.54
   6   0 -28   12.36    5.22
   6   0 -28   15.36    5.85
  -6   0  27    2.95    3.47
  -6   0  27    5.93    4.79
   6   0 -27    1.58    3.97
   6   0 -27   13.94    4.82
  -6   0  26   24.71    6.84
  -6   0  26   19.82    5.72
   6   0 -26   18.75    6.04
   6   0 -26   38.07   10.84
  -6   0  25    4.97    5.13
  -6   0  25    2.77    1.92
   6   0 -25    0.73    3.63
   6   0 -25   10.06    3.72
  -6   0  24    9.90    5.37
  -6   0  24    9.79    5.00
   6   0 -24    8.46    4.34
   6   0 -24    5.54    3.56
  -6   0  23    9.64    3.57
  -6   0  23   13.14    5.52
   6   0 -23    0.82    3.75
   6   0 -23    7.84    2.92
  -6   0  22   99.04   13.02
  -6   0  22   55.92   10.44
   6   0 -22   75.07   10.39
   6   0 -22   76.77   13.69
  -6   0  21    1.70    3.52
  -6   0  21    4.87    1.61
   6   0 -21    9.99    3.82
   6   0 -21    9.99    4.78
  -6   0  20   29.33    5.94
  -6   0  20   29.00    6.45
   6   0 -20   32.40    5.86
   6   0 -20   21.54    5.62
  -6   0  19    0.41    3.33
  -6   0  19   -0.97    2.79
   6   0 -19    0.72    3.33
   6   0 -19    7.84    4.18
  -6   0  18  201.19   13.27
  -6   0  18  163.34   20.61
   6   0 -18  191.17   12.52
   6   0 -18  161.25   21.56
  -6   0  17    5.70    3.79
  -6   0  17   -1.01    2.66
   6   0 -17    5.33    3.03
   6   0 -17    9.92    4.55
  -6   0  16   93.64   10.55
  -6   0  16   80.73   10.53
   6   0 -16   82.31   11.52
   6   0 -16   80.87   10.52
  -6   0  15   11.46    6.68
  -6   0  15   13.85    4.34
   6   0 -15    2.73    1.40
   6   0 -15   13.81    5.32
  -6   0  14   12.61    4.86
  -6   0  14    7.80    2.78
   6   0 -14    2.62    2.50
   6   0 -14    4.02    2.50
  -6   0  13    5.45    3.68
  -6   0  13    1.06    1.03
   6   0 -13   -3.98    2.28
   6   0 -13    6.32    2.58
  -6   0  12   11.06    5.02
  -6   0  12   10.75    3.54
   6   0 -12    2.19    2.08
   6   0 -12   12.93    4.23
  -6   0  11    8.44    3.56
   6   0 -11    0.90    1.55
   6   0 -11    7.49    2.80
  -6   0  10   12.02    4.36
  -6   0  10    6.20    2.42
   6   0 -10   12.18    3.48
   6   0 -10   14.80    4.35
  -6   0   9   -0.83    3.18
  -6   0   9   27.70    6.05
   6   0  -9    5.27    2.21
   6   0  -9   -3.32    3.20
  -6   0   8   29.83    5.79
  -6   0   8   45.08    6.47
   6   0  -8   30.55    4.73
   6   0  -8   39.15    6.03
  -6   0   8   23.19    4.77
   6   0  -8   28.48    6.01
  -6   0   7   -1.80    2.99
  -6   0   7    2.81    1.87
   6   0  -7    2.23    1.57
   6   0  -7    3.45    2.72
  -6   0   7    2.52    2.00
   6   0  -7   15.91    4.90
  -6   0   6   24.60    6.74
  -6   0   6   25.93    4.98
   6   0  -6   24.40    4.90
   6   0  -6   36.78    6.15
  -6   0   6   20.40    4.10
   6   0  -6   43.33    9.50
  -6   0   5    0.92    2.87
  -6   0   5    5.82    2.67
   6   0  -5   -0.48    1.29
   6   0  -5    0.75    1.59
  -6   0   5    1.06    1.21
  -6   0   4   62.22    9.15
  -6   0   4   78.74   11.91
   6   0  -4   58.82    7.88
   6   0  -4   73.60    9.74
  -6   0   4   61.07   10.03
   6   0  -4   87.18   13.91
  -6   0   3   15.60    4.69
  -6   0   3    2.37    1.66
   6   0  -3    0.81    1.13
   6   0  -3    3.11    1.94
  -6   0   3   -0.31    1.04
   6   0  -3    4.23    1.75
  -6   0   2   56.47    8.51
  -6   0   2   52.02    7.30
   6   0  -2   52.04    9.29
  -6   0   2   46.74    6.37
   6   0  -2   67.69   10.24
  -6   0   1   -1.20    2.83
  -6   0   1    4.75    2.96
   6   0  -1    0.34    1.22
  -6   0   1    3.42    1.87
  -6   0   0  221.87   12.22
  -6   0   0  222.74   11.03
   6   0   0  217.90   11.99
  -6   0   0  198.13    9.89
  -6   0  -1    1.73    2.73
  -6   0  -1    4.72    2.39
   6   0   1    0.26    1.04
  -6   0  -1    5.84    2.41
  -6   0  -2   24.06    6.18
  -6   0  -2   14.73    3.66
   6   0   2   26.55    6.33
  -6   0  -2   16.88    3.61
  -6   0  -3    2.02    2.47
  -6   0  -3    3.56    1.78
   6   0   3    1.47    0.86
  -6   0  -3    0.39    1.20
  -6   0  -4  204.53   13.58
  -6   0  -4  212.51   16.31
   6   0   4  211.40   13.94
  -6   0  -4  157.03   15.28
  -6   0  -5   11.72    4.19
  -6   0  -5    3.00    2.26
   6   0   5   -0.37    1.53
  -6   0  -6   14.52    4.55
  -6   0  -6   12.43    3.79
   6   0   6   16.83    4.68
  -6   0  -7   -0.69    2.35
  -6   0  -7    7.01    3.42
   6   0   7   -0.30    1.61
  -6   0  -8   13.00    4.13
  -6   0  -8   17.84    4.56
  -6   0  -8   15.22    4.33
  -6   0  -9    6.65    3.16
  -6   0 -10   93.55   15.34
  -6   0 -11    7.10    2.57
  -6   0 -12    5.95    2.10
  -6   0 -13    7.61    2.88
  -6   0 -14    7.88    3.26
  -6   0 -15    3.17    2.16
  -6   0 -16    5.29    2.37
  -6   0 -16   -0.02    2.58
  -6   0 -17    7.61    3.59
  -6   0 -17    7.31    3.29
  -6   0 -18    9.66    4.26
  -6   0 -18    6.06    2.64
  -6   0 -19   11.79    4.40
  -6   0 -20   37.81    8.27
  -6   0 -21    6.06    3.11
  -6   0 -22    2.57    3.33
  -6   0 -23   -1.54    3.23
  -6   0 -24   14.02    5.72
  -6   0 -25    4.47    4.54
  -6   1  30    8.03    4.98
  -6  -1  30   12.62    6.70
  -6   1  30   10.33    4.46
  -6  -1  30    5.50    5.01
   6  -1 -30   10.36    6.15
   6   1 -30    1.33    3.70
   6  -1 -30    1.82    3.50
   6   1 -30    1.53    1.41
  -6   1  29   20.20    7.90
  -6  -1  29    3.63    3.30
  -6   1  29    5.21    4.63
  -6  -1  29    8.92    4.33
   6  -1 -29   15.72    7.38
   6   1 -29    3.50    4.22
   6  -1 -29    8.98    3.90
   6   1 -29    6.98    4.38
  -6   1  28    5.92    3.55
  -6  -1  28    3.04    3.17
  -6   1  28   10.12    4.32
  -6  -1  28   -1.76    3.84
   6  -1 -28    8.30    4.73
   6   1 -28    5.15    3.56
   6  -1 -28    5.68    3.69
   6   1 -28    5.47    3.40
  -6   1  27   16.73    7.07
  -6  -1  27    8.06    4.91
  -6   1  27    3.57    2.59
  -6  -1  27    9.82    5.13
   6  -1 -27   18.75    7.71
   6   1 -27    9.02    5.13
   6  -1 -27    2.72    2.00
   6   1 -27    3.88    3.28
  -6   1  26   10.75    5.54
  -6  -1  26    9.14    5.31
  -6   1  26    2.91    1.73
  -6  -1  26    4.48    3.60
   6  -1 -26   11.18    4.74
   6   1 -26    8.51    3.65
   6  -1 -26   11.74    5.14
   6   1 -26    9.86    3.54
  -6   1  25   15.67    5.94
  -6  -1  25   19.57    6.05
  -6   1  25    5.38    3.46
  -6  -1  25   19.85    5.41
   6  -1 -25    1.45    4.19
   6   1 -25    7.66    4.22
   6  -1 -25    5.66    3.06
   6   1 -25   21.04    7.37
  -6   1  24   18.97    4.75
  -6  -1  24    3.17    2.98
  -6   1  24    4.44    2.39
  -6  -1  24    4.98    2.34
   6  -1 -24    3.08    3.95
   6   1 -24   16.49    5.05
   6  -1 -24    4.02    2.73
   6   1 -24    7.15    3.49
  -6   1  23   21.75    6.60
  -6  -1  23    8.34    4.35
  -6   1  23   17.00    6.12
  -6  -1  23   12.58    5.90
   6  -1 -23   17.02    5.92
   6   1 -23   20.73    4.81
   6  -1 -23   18.82    5.80
   6   1 -23   11.59    4.78
  -6   1  22    5.44    3.67
  -6  -1  22   14.69    5.64
  -6   1  22    3.71    2.20
  -6  -1  22    5.64    2.46
   6  -1 -22    8.82    5.07
   6   1 -22    2.33    2.67
   6  -1 -22    9.34    2.79
   6   1 -22    4.59    2.61
  -6   1  21    8.66    3.73
  -6  -1  21    4.18    3.16
  -6   1  21    5.20    1.95
  -6  -1  21    0.75    2.86
   6  -1 -21    4.55    3.58
   6   1 -21    2.30    2.69
   6  -1 -21   13.06    5.40
   6   1 -21    7.01    3.88
  -6   1  20    8.28    3.90
  -6  -1  20   31.39    5.35
  -6   1  20   25.86    7.21
  -6  -1  20   30.30    7.61
   6  -1 -20   16.08    5.40
   6   1 -20   42.68    8.33
   6  -1 -20   23.02    6.27
   6   1 -20   21.27    6.10
  -6   1  19   38.47    5.66
  -6  -1  19   65.55    8.24
  -6   1  19   31.04    6.87
  -6  -1  19   39.98    6.20
   6  -1 -19   45.05    6.74
   6   1 -19   44.10    7.57
   6  -1 -19   43.77    8.36
   6   1 -19   37.59    9.16
  -6   1  18   55.26    7.52
  -6  -1  18   23.35    5.57
  -6   1  18   27.66    6.08
  -6  -1  18   25.79    6.96
   6  -1 -18   23.80    6.34
   6   1 -18   34.60    7.43
   6  -1 -18   29.99    6.89
   6   1 -18   17.66    6.74
  -6   1  17   18.51    6.64
  -6  -1  17    9.23    4.30
  -6   1  17    4.11    2.43
  -6  -1  17    4.78    3.05
   6  -1 -17    3.03    3.27
   6   1 -17    0.31    2.61
   6  -1 -17    4.57    2.33
   6   1 -17   11.15    3.98
  -6   1  16   90.63   10.06
  -6  -1  16  114.77   10.70
  -6   1  16   91.41   14.17
  -6  -1  16  110.84   15.25
   6  -1 -16   86.20    9.50
   6   1 -16   89.73    9.12
   6  -1 -16   87.52   13.23
   6   1 -16   94.81   14.14
  -6   1  15   23.84    6.70
  -6  -1  15   22.50    6.64
  -6   1  15   22.54    5.91
  -6  -1  15   21.24    4.89
   6  -1 -15   13.03    4.87
   6   1 -15   18.55    4.09
   6  -1 -15   14.57    6.42
   6   1 -15   31.18    8.80
  -6   1  14   15.10    7.40
  -6  -1  14    6.15    3.93
  -6   1  14    2.08    1.66
  -6  -1  14    1.47    2.60
   6  -1 -14    0.15    2.61
   6   1 -14    8.24    3.77
   6  -1 -14   10.36    4.93
   6   1 -14    6.71    3.60
  -6   1  13    8.07    5.63
  -6  -1  13    3.54    3.82
  -6   1  13    5.75    1.98
  -6  -1  13    5.95    2.77
   6  -1 -13   12.37    4.63
   6   1 -13    6.79    2.39
   6  -1 -13   12.79    4.76
   6   1 -13   12.29    3.79
  -6   1  12   82.51    8.23
  -6  -1  12   86.37    8.27
  -6   1  12  109.57   11.27
  -6  -1  12  102.62    8.81
   6  -1 -12  101.64    9.00
   6   1 -12   81.06    7.36
   6  -1 -12  116.89   14.12
   6   1 -12  113.58   17.71
  -6   1  11   50.31    7.81
  -6  -1  11   53.08    8.11
  -6   1  11   49.47    9.05
  -6  -1  11   54.99    7.95
   6  -1 -11   55.30    8.41
   6   1 -11   56.37    7.63
  -6  -1  11   30.34    6.29
   6  -1 -11   79.93   12.42
   6   1 -11   66.78   12.44
  -6   1  10  129.64   10.80
  -6  -1  10  133.50   10.28
  -6   1  10  146.93   13.47
  -6  -1  10  138.24    9.97
   6  -1 -10  107.91    7.50
   6  -1 -10  152.80   11.09
   6   1 -10  123.31    8.76
  -6  -1  10   99.98    6.82
   6  -1 -10  138.02   19.44
   6   1 -10  116.24   18.09
  -6   1   9    8.79    4.95
  -6  -1   9   17.76    5.73
  -6   1   9   16.31    4.26
  -6  -1   9   14.08    3.95
   6  -1  -9    9.39    2.68
   6  -1  -9   18.09    4.73
   6   1  -9   21.18    5.13
  -6  -1   9   10.56    3.12
   6  -1  -9   20.28    6.30
   6   1  -9   30.95    6.69
  -6   1   8   12.69    5.05
  -6  -1   8   12.29    3.77
  -6   1   8    8.07    3.02
  -6  -1   8   15.23    4.47
   6  -1  -8    8.67    2.63
   6  -1  -8   17.79    4.57
   6   1  -8    4.53    2.05
  -6  -1   8    1.86    0.88
   6  -1  -8   18.65    4.87
   6   1  -8   10.40    3.16
  -6   1   7   72.04   10.65
  -6  -1   7   85.31    8.30
  -6   1   7   59.81   10.39
  -6  -1   7   63.44    9.30
   6  -1  -7   61.49    8.44
   6   1  -7   68.72    9.00
  -6  -1   7   42.18    8.26
   6  -1  -7   86.31   12.77
  -6   1   6  125.99    8.75
  -6  -1   6  125.90    8.46
  -6   1   6  124.72    6.69
  -6  -1   6  139.42    8.44
   6  -1  -6  119.70    6.45
   6   1  -6  109.02    7.68
   6  -1  -6  109.49    6.94
  -6  -1   6   89.82   10.10
   6  -1  -6  120.54    8.81
   6   1  -6  114.27   17.66
  -6   1   5   86.22    7.05
  -6  -1   5   78.49   12.56
  -6   1   5   83.57    4.99
  -6  -1   5   99.80    6.65
   6  -1  -5   84.16    4.89
   6   1  -5   77.48   11.48
   6  -1  -5   94.86    8.16
  -6  -1   5   55.81    9.72
   6   1  -5   74.91   13.30
  -6   1   4   54.78    8.47
  -6  -1   4   47.33    7.81
  -6   1   4   52.54    7.02
  -6  -1   4   50.84    7.20
   6  -1  -4   36.66    5.57
   6   1  -4   36.28    6.31
   6  -1  -4   56.81    7.96
  -6  -1   4   29.62    5.48
   6   1  -4   41.73   11.01
  -6   1   3    6.83    3.47
  -6  -1   3    2.59    2.82
  -6   1   3    3.32    1.62
  -6  -1   3    6.44    2.66
   6   1  -3    5.47    2.05
   6  -1  -3    4.53    2.16
  -6   1   3   10.36    2.93
  -6  -1   3    2.67    1.17
   6   1  -3    3.87    2.18
  -6   1   2    6.77    3.02
  -6  -1   2   17.50    4.68
  -6   1   2   15.91    3.13
  -6  -1   2   14.27    3.52
   6   1  -2   12.29    2.81
   6  -1  -2   26.72    5.33
  -6   1   2   11.65    2.61
  -6  -1   2   12.85    3.07
   6   1  -2   18.92    6.45
  -6   1   1    4.08    3.02
  -6  -1   1   11.82    4.70
  -6   1   1    0.05    1.00
  -6  -1   1    7.74    2.97
   6   1  -1    4.58    1.46
   6  -1  -1    3.26    1.76
  -6  -1   1    3.17    1.35
   6   1  -1   14.70    4.42
  -6   1   0   10.08    3.99
  -6  -1   0    8.69    3.90
  -6   1   0    0.78    1.09
  -6  -1   0    4.44    2.23
   6   1   0    3.30    1.17
   6  -1   0    8.15    2.31
  -6  -1   0    5.10    1.86
   6   1   0    2.06    2.39
  -6   1  -1    8.78    2.61
  -6  -1  -1   21.19    5.60
  -6   1  -1   14.30    3.00
  -6  -1  -1   12.49    3.39
   6   1   1   10.31    2.43
   6  -1   1   13.48    3.82
  -6  -1  -1    5.38    1.71
   6   1   1   18.42    5.43
  -6   1  -2    1.61    2.40
  -6   1  -2    1.41    0.96
  -6   1  -2    1.87    0.93
  -6  -1  -2    5.97    3.29
   6   1   2    1.38    0.90
   6  -1   2    3.13    1.17
  -6  -1  -2    3.63    1.77
  -6   1  -3    8.39    2.92
  -6   1  -3    4.45    1.97
  -6  -1  -3    7.43    3.48
  -6   1  -3   11.11    3.00
   6  -1   3   12.79    3.62
  -6  -1  -3    8.26    2.40
  -6   1  -4   31.93    5.24
  -6   1  -4   26.14    6.15
  -6  -1  -4   36.83    5.92
  -6   1  -4   23.70    7.27
   6  -1   4   35.14    6.57
  -6  -1  -4   30.55    4.33
  -6  -1  -4   30.93    4.43
  -6   1  -5   82.72    6.94
  -6   1  -5   59.58    9.12
  -6  -1  -5   85.31    9.68
  -6   1  -5   83.15    6.40
   6  -1   5   77.83   11.58
  -6  -1  -5   67.59    8.39
  -6  -1  -5   93.32    8.08
  -6   1  -6    8.87    2.77
  -6   1  -6    3.66    1.57
  -6  -1  -6    7.37    3.59
  -6   1  -6   15.77    4.12
   6  -1   6    4.97    2.41
  -6  -1  -6   10.12    3.17
  -6  -1  -6    3.58    1.48
   6   1   7    3.02    2.39
  -6   1  -7    7.19    2.85
  -6  -1  -7    3.70    2.04
  -6   1  -7    9.33    3.09
   6  -1   7    9.93    3.21
  -6  -1  -7    3.94    1.50
   6   1   8   20.15    5.40
  -6   1  -8   13.50    3.77
  -6  -1  -8    8.43    3.42
   6  -1   8   23.48    5.52
  -6  -1  -8    8.57    3.02
   6   1   9   63.57   13.63
  -6   1  -9   71.72    7.01
  -6  -1  -9   60.80    6.67
   6  -1   9   58.37   10.45
  -6  -1  -9   70.69    6.53
   6   1  10   46.65   11.91
  -6   1 -10   36.24    7.19
   6  -1  10   40.35    8.61
  -6  -1 -10   48.75    8.72
   6   1  11   59.45   11.55
  -6   1 -11   59.79    5.13
   6  -1  11   55.21    8.24
  -6  -1 -11   79.16    6.26
   6   1  12   17.94    4.73
  -6   1 -12   20.04    4.45
  -6  -1 -12    7.70    2.97
  -6   1 -12    8.35    3.63
   6   1  13   -0.83    2.06
  -6   1 -13    0.52    1.56
  -6  -1 -13    5.59    2.06
  -6   1 -13    1.91    2.72
   6   1  14   29.51    6.30
  -6   1 -14   34.77    6.70
  -6  -1 -14   33.17    6.47
  -6   1 -14   23.46    5.33
   6   1  15   45.33    9.94
  -6   1 -15   62.75    7.31
  -6  -1 -15   64.33    7.99
  -6   1 -15   53.61    9.22
   6   1  16   90.87   20.41
  -6   1 -16  100.90   13.15
  -6  -1 -16  119.54   14.14
  -6   1 -16  104.36   22.09
  -6   1 -16  117.96   14.27
  -6  -1 -16  111.97   12.94
   6   1  17   21.42    5.75
  -6  -1 -17   48.07    9.51
  -6   1 -17   30.97    6.88
  -6   1 -17   36.18    8.57
   6   1  18    2.74    1.64
  -6  -1 -18    7.00    5.02
  -6   1 -18    3.33    3.29
  -6   1 -18    2.91    1.42
   6   1  19    5.39    1.92
  -6  -1 -19    4.66    2.33
  -6   1 -19    8.74    4.22
  -6   1 -19    3.90    2.39
  -6  -1 -20   15.11    6.25
  -6   1 -20   17.92    6.07
  -6  -1 -21    6.76    4.78
  -6   1 -21    6.32    3.73
  -6  -1 -22    3.59    2.16
  -6   1 -22    2.64    3.35
  -6  -1 -23    2.62    3.66
  -6   1 -23    5.44    3.87
  -6  -1 -24    3.72    3.48
  -6   1 -24    3.30    3.93
  -6  -1 -25   -0.71    3.14
  -6   1 -25    8.91    5.63
  -6   2  30   10.96    5.95
  -6  -2  30    2.69    2.55
  -6   2  30    4.56    2.36
  -6  -2  30    9.12    3.51
   6  -2 -30    6.76    4.32
   6   2 -30   -0.50    3.34
   6  -2 -30    7.89    3.17
   6   2 -30    7.33    2.30
  -6   2  29    4.56    3.90
  -6  -2  29    4.91    3.22
  -6   2  29    8.15    2.87
  -6  -2  29    9.31    4.96
   6  -2 -29    1.67    4.68
   6   2 -29    3.63    3.70
   6  -2 -29    9.16    4.87
   6   2 -29   16.08    5.35
  -6   2  28   12.03    6.11
  -6  -2  28    5.22    3.64
  -6   2  28    6.65    2.39
  -6  -2  28    5.68    2.97
   6   2 -28    4.18    3.38
   6  -2 -28    7.15    2.24
   6   2 -28   -0.51    3.85
  -6   2  27   13.05    5.06
  -6  -2  27    8.15    3.55
  -6   2  27   21.21    6.96
  -6  -2  27    1.90    2.93
   6  -2 -27    8.56    7.31
   6   2 -27    6.85    5.26
   6  -2 -27    8.62    4.23
   6   2 -27   11.40    6.17
  -6   2  26    5.97    3.37
  -6  -2  26    5.71    3.36
  -6   2  26    9.62    3.99
  -6  -2  26    2.71    2.48
   6  -2 -26    8.81    4.77
   6   2 -26    4.61    3.78
   6  -2 -26   13.89    5.32
   6   2 -26    8.01    2.75
  -6   2  25   17.87    6.17
  -6  -2  25    2.83    3.11
  -6   2  25    6.69    4.65
  -6  -2  25    6.39    3.87
   6  -2 -25    4.04    5.89
   6   2 -25    6.06    4.77
   6  -2 -25    8.36    4.66
   6   2 -25   13.00    4.83
  -6   2  24    2.36    3.72
  -6  -2  24    9.05    4.92
  -6   2  24    6.02    2.78
  -6  -2  24   -0.41    3.66
   6  -2 -24    0.12    3.79
   6   2 -24   -2.39    2.86
   6  -2 -24    8.62    4.51
   6   2 -24    8.93    3.66
  -6   2  23   -1.27    3.89
  -6  -2  23    1.49    2.96
  -6   2  23    4.23    1.70
  -6  -2  23   20.64    4.95
   6  -2 -23    9.43    5.56
   6   2 -23   16.22    4.65
   6  -2 -23    5.65    2.49
   6   2 -23   21.67    5.44
  -6   2  22    3.22    3.55
  -6  -2  22    3.34    3.46
  -6   2  22    1.54    1.84
  -6  -2  22   -0.53    3.37
   6  -2 -22    8.01    2.69
   6   2 -22    6.24    2.94
   6  -2 -22   13.12    6.28
   6   2 -22   15.83   11.80
  -6   2  21    7.99    3.74
  -6  -2  21   17.77    6.33
  -6   2  21   18.00    5.50
  -6  -2  21   12.66    3.54
   6  -2 -21   12.86    4.36
   6   2 -21    5.29    3.08
   6  -2 -21   18.16    7.01
   6   2 -21    9.24    3.25
  -6   2  20    6.30    3.65
  -6  -2  20    4.72    4.76
  -6   2  20    6.69    2.37
  -6  -2  20    9.60    2.98
   6  -2 -20    9.00    4.78
   6   2 -20    9.49    4.45
   6  -2 -20   21.55    6.69
   6   2 -20   16.06    4.64
  -6   2  19   45.09    8.79
  -6  -2  19   10.41    4.32
  -6   2  19   12.10    6.98
  -6  -2  19   24.24    6.10
   6  -2 -19   27.21    5.21
   6   2 -19   31.67    6.53
   6  -2 -19   50.90   10.02
   6   2 -19   25.70    7.00
  -6   2  18   15.26    5.87
  -6  -2  18    7.53    3.87
  -6   2  18   11.77    4.02
  -6  -2  18   10.59    5.49
   6  -2 -18   22.93    6.04
   6   2 -18   19.03    4.95
   6  -2 -18   19.22    4.31
   6   2 -18   16.46    4.95
  -6   2  17   61.36    7.36
  -6  -2  17   60.78    6.61
  -6   2  17   45.29    9.66
  -6  -2  17   44.51    7.41
   6  -2 -17   49.50    6.35
   6   2 -17   55.78   10.35
   6  -2 -17   42.92   10.18
   6   2 -17   70.77   10.99
  -6   2  16    5.69    3.75
  -6  -2  16    9.31    3.20
  -6   2  16   13.14    3.54
  -6  -2  16   10.56    6.33
   6  -2 -16   14.26    4.93
   6   2 -16   10.10    3.13
   6  -2 -16    5.02    3.26
   6   2 -16    7.28    2.71
  -6   2  15   17.03    6.10
  -6  -2  15   16.05    5.38
  -6   2  15   15.80    4.26
  -6  -2  15   17.00    6.11
   6  -2 -15    6.69    3.24
   6   2 -15   11.66    3.26
   6  -2 -15   11.84    4.29
   6   2 -15    2.02    3.59
  -6  -2  14   18.05    5.67
  -6   2  14   14.79    4.02
  -6  -2  14   31.74    7.40
   6  -2 -14    3.41    3.02
   6   2 -14    8.68    3.07
   6  -2 -14   29.04    7.28
   6   2 -14   20.59    9.02
  -6   2  13   47.02    8.55
  -6  -2  13   31.23    6.68
  -6   2  13   38.77    7.92
  -6  -2  13   38.36    7.10
   6  -2 -13   39.78    7.95
   6   2 -13   40.37    7.07
   6  -2 -13   53.23   10.74
   6   2 -13   38.48   13.85
  -6   2  12    2.58    3.20
  -6  -2  12   14.34    6.21
  -6   2  12    1.38    1.32
  -6  -2  12    0.59    2.69
   6  -2 -12    3.87    2.19
   6  -2 -12   12.23    5.02
   6   2 -12    3.47    1.62
  -6  -2  12    1.36    1.28
   6  -2 -12    4.16    3.65
   6   2 -12    9.46    5.43
  -6   2  11   21.58    5.29
  -6  -2  11   30.88    6.47
  -6   2  11   21.08    4.78
  -6  -2  11   24.85    5.22
   6  -2 -11   13.43    3.38
   6  -2 -11   17.25    4.91
   6   2 -11   16.62    3.92
  -6  -2  11   16.81    4.06
   6  -2 -11   13.45    5.35
   6   2 -11   25.51    6.46
  -6   2  10   11.46    5.03
  -6  -2  10    6.79    3.65
  -6   2  10    6.16    1.63
  -6  -2  10   10.15    4.48
   6  -2 -10    1.68    1.77
   6  -2 -10    5.90    4.39
   6   2 -10    8.02    2.39
  -6  -2  10    1.24    0.96
   6   2 -10    9.56    4.46
  -6   2   9    9.43    5.48
  -6  -2   9    7.13    3.51
  -6   2   9    0.54    1.18
  -6  -2   9    2.48    2.53
   6  -2  -9   -0.23    1.03
   6  -2  -9   16.10    4.98
   6   2  -9    2.69    1.54
  -6  -2   9    1.67    0.95
   6   2  -9    7.92    2.25
  -6   2   8    7.42    4.62
  -6   2   8   12.91    3.84
  -6  -2   8   18.31    5.09
   6  -2  -8   18.77    4.36
   6  -2  -8   13.73    4.99
   6   2  -8   16.18    3.61
  -6  -2   8   13.19    2.97
   6   2  -8   23.24    6.69
  -6   2   7    9.40    5.10
  -6  -2   7    4.63    3.27
  -6   2   7    1.29    1.08
  -6  -2   7    1.92    1.97
   6  -2  -7    3.98    1.38
   6   2  -7   -0.16    0.60
   6  -2  -7    3.65    2.16
  -6  -2   7    3.26    1.28
   6   2  -7    4.62    2.51
  -6   2   6    9.15    4.26
  -6  -2   6    5.42    3.34
  -6   2   6    4.56    1.45
  -6  -2   6    4.83    2.84
   6  -2  -6    0.04    0.46
   6   2  -6    2.19    1.05
   6  -2  -6    6.21    2.37
   6   2  -6    6.53    2.89
  -6   2   5   58.55    9.18
  -6  -2   5   64.21    9.61
  -6   2   5   47.56    7.48
  -6  -2   5   69.72    9.82
   6   2  -5   40.95    5.72
   6   2  -5   41.93    5.87
   6  -2  -5   75.00   12.55
   6   2  -5   69.53   13.42
  -6   2   4   -1.36    2.77
  -6  -2   4    0.96    2.43
  -6   2   4    0.23    0.33
  -6  -2   4   12.79    4.38
   6  -2  -4    0.03    2.27
   6   2  -4    2.59    2.71
  -6   2   3   10.90    4.54
  -6  -2   3    1.30    2.90
  -6   2   3    2.28    0.67
  -6  -2   3    9.40    3.39
   6  -2  -3    4.26    2.08
   6   2  -3   12.57    3.68
  -6   2   2   23.87    5.33
  -6  -2   2   35.26    6.40
   6  -2  -2   34.02    5.98
   6   2  -2   32.45    6.56
  -6   2   1  117.17    8.79
  -6   2   1  115.59    5.25
  -6  -2   1  123.44    8.43
   6  -2  -1  127.39    8.07
   6   2  -1  133.21   16.33
  -6   2   0    6.35    2.81
  -6   2   0    0.64    0.41
  -6   2   0    0.02    0.34
  -6  -2   0    6.21    3.05
   6  -2   0   -3.03    1.95
   6   2   0    8.38    2.83
  -6   2  -1  109.54   16.58
  -6   2  -1   82.32    6.74
  -6   2  -1   99.71    6.08
  -6  -2  -1  112.15    9.11
   6  -2   1   95.62   12.73
  -6  -2  -1   80.01    6.13
  -6  -2  -1  100.25    6.37
   6   2   1   92.28   15.45
   6   2   2    5.62    2.63
  -6   2  -2    1.59    2.27
  -6   2  -2    2.81    0.97
  -6   2  -2    6.58    1.57
  -6  -2  -2    5.64    3.80
   6  -2   2    5.97    3.45
  -6  -2  -2    1.71    0.71
  -6  -2  -2    2.17    0.91
   6   2   2    7.78    4.49
   6   2   3   21.68    5.79
  -6   2  -3   30.47    5.45
  -6   2  -3   22.35    5.31
  -6   2  -3   17.16    3.80
  -6  -2  -3   21.26    5.40
   6  -2   3   20.56    6.28
  -6  -2  -3   29.96    3.99
  -6  -2  -3   25.34    5.60
   6   2   3   22.92    7.58
   6   2   4   14.61    3.99
  -6   2  -4    8.15    3.88
  -6   2  -4    6.32    2.29
  -6  -2  -4   15.25    4.59
  -6   2  -4   17.66    4.02
   6  -2   4   11.41    3.19
  -6  -2  -4   11.34    2.77
  -6  -2  -4   14.45    3.29
   6   2   5   44.84    7.32
  -6   2  -5   47.83    7.12
  -6   2  -5   29.76    6.56
  -6  -2  -5   36.46    6.17
  -6   2  -5   38.10    7.99
   6  -2   5   37.73    8.36
  -6  -2  -5   39.88    5.26
  -6  -2  -5   48.60    6.30
   6   2   6   42.54    8.65
  -6   2  -6   24.43    4.66
  -6   2  -6   16.10    4.69
  -6  -2  -6   28.15    5.59
  -6   2  -6   29.51    5.40
   6  -2   6   19.41    5.85
  -6  -2  -6   25.35    3.96
  -6  -2  -6   31.20    4.75
   6   2   7   12.69    4.10
  -6   2  -7    3.96    2.36
  -6   2  -7    4.93    1.85
  -6  -2  -7    9.58    3.96
   6  -2   7   10.15    3.62
  -6  -2  -7    3.60    1.58
  -6  -2  -7   11.12    3.40
   6   2   8    7.43    2.84
  -6   2  -8    2.65    2.02
  -6   2  -8    0.59    0.68
  -6  -2  -8    5.53    2.76
   6  -2   8    4.10    1.89
  -6  -2  -8    0.77    1.10
  -6  -2  -8    3.63    1.69
   6   2   9    6.47    4.30
  -6   2  -9   14.66    4.09
  -6  -2  -9    3.67    2.88
   6  -2   9    3.37    2.06
  -6  -2  -9   11.58    4.09
   6   2  10   10.05    3.24
  -6   2 -10    1.71    1.46
  -6  -2 -10   -0.05    2.60
   6  -2  10   -0.58    2.41
  -6  -2 -10    0.81    1.67
   6   2  11   20.98    4.20
  -6   2 -11    8.50    2.49
  -6  -2 -11   14.08    5.01
   6  -2  11   14.72    3.88
  -6  -2 -11   19.87    6.22
   6   2  12   12.20    3.65
  -6   2 -12    6.94    2.20
  -6  -2 -12    6.48    3.21
   6  -2  12    8.50    3.57
  -6  -2 -12    4.24    3.05
   6   2  13    5.29    2.66
  -6   2 -13    5.28    2.42
   6  -2  13    1.59    1.85
  -6  -2 -13    2.37    1.94
   6   2  14   14.30    4.30
  -6   2 -14   14.12    3.81
   6  -2  14   15.39    4.61
  -6  -2 -14   13.30    4.56
   6   2  15    7.91    3.28
  -6   2 -15    6.30    2.11
  -6  -2 -15   12.91    4.59
  -6   2 -15   10.70    5.31
  -6   2 -15    2.71    2.72
   6   2  16    1.06    2.16
  -6  -2 -16   13.62    4.85
  -6   2 -16   11.64    5.37
  -6   2 -16    4.75    3.30
   6   2  17   14.15    5.51
  -6  -2 -17   16.20    7.95
  -6   2 -17   24.69    5.96
  -6   2 -17   21.10    5.72
   6   2  18   19.68    6.96
  -6  -2 -18   24.64    5.20
  -6   2 -18   18.97    4.83
  -6   2 -18   15.95    4.65
   6   2  19    3.00    2.17
  -6  -2 -19    6.78    3.10
  -6   2 -19   12.13    5.89
  -6   2 -19    1.97    3.16
   6   2  20    4.21    2.45
  -6  -2 -20   -3.07    3.00
  -6   2 -20    2.45    3.85
  -6   2 -20    7.17    2.89
   6   2  21   39.35   13.12
  -6  -2 -21   28.39    9.17
  -6   2 -21   51.38    7.42
  -6  -2 -22    6.85    3.79
  -6   2 -22    1.02    3.50
  -6  -2 -23    3.25    2.85
  -6   2 -23   18.58    7.10
  -6  -2 -24    5.37    4.86
  -6   2 -24   11.70    6.03
  -6   3  29    2.39    3.80
  -6  -3  29    5.54    4.48
   6  -3 -29    2.53    5.12
   6   3 -29    3.49    4.82
   6   3 -29   16.74    6.64
  -6   3  28   14.22    6.57
  -6  -3  28   14.96    5.79
  -6  -3  28   -0.10    3.77
   6  -3 -28    6.53    5.94
   6   3 -28    5.01    2.42
   6   3 -28   11.27    7.83
  -6   3  27    2.28    3.81
  -6  -3  27    6.12    4.04
  -6  -3  27    6.61    4.17
   6  -3 -27    6.38    5.06
   6   3 -27   22.24    7.19
   6   3 -27   11.19    4.03
  -6   3  26    9.91    4.68
  -6  -3  26    4.71    3.35
  -6  -3  26   12.34    5.69
   6  -3 -26    3.04    4.98
   6   3 -26    1.71    1.69
   6   3 -26    2.96    2.75
  -6   3  25    0.26    3.49
  -6  -3  25    2.79    3.16
  -6  -3  25   -0.81    3.85
   6  -3 -25   -3.08    4.29
   6   3 -25    9.52    3.49
   6   3 -25   -4.03    4.03
  -6   3  24    3.70    3.81
  -6  -3  24   -0.59    2.78
  -6  -3  24    7.25    3.62
   6  -3 -24    2.73    4.06
   6   3 -24    8.35    3.01
   6   3 -24    5.12    1.93
  -6   3  23    6.52    3.99
  -6  -3  23    1.54    3.99
  -6   3  23    0.30    2.11
  -6  -3  23    6.30    3.23
   6  -3 -23   16.81    6.93
   6   3 -23    2.88    2.77
   6   3 -23   -3.98    3.80
  -6   3  22   10.02    4.62
  -6  -3  22    2.79    2.88
  -6   3  22    6.77    2.41
  -6  -3  22    5.42    4.24
   6  -3 -22    6.24    5.93
   6   3 -22    9.35    5.29
   6   3 -22   13.37    5.88
  -6   3  21   10.57    4.61
  -6  -3  21    2.92    3.34
  -6   3  21   -0.46    2.13
  -6  -3  21   13.34    5.49
   6  -3 -21   13.40    6.87
   6   3 -21    5.92    3.10
   6   3 -21   10.39    5.18
  -6   3  20    4.58    4.63
  -6  -3  20   22.08    6.59
  -6   3  20   21.37    5.73
  -6  -3  20    9.49    5.12
   6  -3 -20    8.84    4.28
   6   3 -20   24.59    8.37
   6   3 -20   25.35    7.53
  -6   3  19   12.11    4.72
  -6  -3  19    4.45    3.25
  -6   3  19   15.81    4.99
  -6  -3  19   15.02    6.41
   6  -3 -19   14.34    5.92
   6   3 -19    7.21    3.34
   6   3 -19   17.54    5.57
  -6   3  18    2.68    3.71
  -6  -3  18    6.29    3.49
  -6   3  18   11.27    4.22
  -6  -3  18   15.88    6.86
   6  -3 -18    7.99    4.11
   6   3 -18    8.03    3.62
   6   3 -18    3.61    4.35
  -6   3  17   19.62    6.05
  -6  -3  17   19.19    6.05
  -6   3  17   22.79    5.84
  -6  -3  17   18.75    5.79
   6  -3 -17   23.79    6.97
   6   3 -17   26.11    5.71
   6   3 -17   17.24    6.51
  -6   3  16   45.07    7.96
  -6  -3  16   39.49    7.50
  -6   3  16   19.20    4.83
  -6  -3  16   39.48    7.63
   6  -3 -16   39.66    9.11
   6   3 -16   42.48    7.22
   6   3 -16   31.82    7.26
  -6   3  15    9.63    3.99
  -6  -3  15    8.79    4.51
  -6   3  15    4.80    1.87
  -6  -3  15    5.80    3.66
   6  -3 -15    9.53    5.29
   6   3 -15    2.06    1.65
   6   3 -15    5.38    3.21
  -6   3  14    9.38    4.60
  -6  -3  14    1.40    2.95
  -6   3  14    7.66    1.81
  -6  -3  14   10.85    5.06
   6  -3 -14    3.05    3.40
   6   3 -14    8.96    3.21
   6   3 -14    9.70    3.94
  -6   3  13   48.96    9.94
  -6  -3  13   29.12    6.48
  -6   3  13   21.19    5.25
  -6  -3  13   20.39    5.77
   6   3 -13   12.73    4.10
   6  -3 -13   22.24    5.91
   6   3 -13   21.79    4.77
   6   3 -13   32.87    7.53
  -6   3  12   24.77    6.98
  -6  -3  12   44.38    9.03
  -6   3  12   25.86    6.48
  -6  -3  12   29.59    7.25
   6  -3 -12   24.68    4.81
   6   3 -12   17.59    5.38
   6  -3 -12   26.72    6.27
   6   3 -12   36.43    6.89
   6   3 -12   37.42    9.52
  -6   3  11   37.39    7.92
  -6  -3  11   40.07    8.55
  -6  -3  11   19.40    6.53
   6  -3 -11   20.62    3.50
   6   3 -11   12.89    3.21
   6  -3 -11   16.60    5.81
   6   3 -11   17.13    4.20
   6   3 -11   30.39    6.19
  -6   3  10   45.19    9.21
  -6  -3  10   28.48    6.65
  -6  -3  10   34.90    7.07
   6  -3 -10   25.19    4.01
   6   3 -10   28.58    5.53
   6  -3 -10   41.15    8.68
   6   3 -10   34.65    7.05
  -6   3   9   10.01    5.56
  -6  -3   9    2.92    3.47
  -6  -3   9    4.06    3.27
   6  -3  -9    5.38    1.40
   6   3  -9    0.86    0.33
   6  -3  -9    8.47    3.38
   6   3  -9    3.44    1.38
   6   3  -9    5.07    2.10
  -6   3   8   26.22    7.06
  -6  -3   8   26.55    7.56
  -6  -3   8   25.26    6.43
   6  -3  -8    0.27    0.41
   6   3  -8   19.62    4.57
   6  -3  -8   33.99    6.07
   6   3  -8   25.97    5.34
   6   3  -8   24.82    6.98
  -6   3   7   49.04    8.22
  -6  -3   7   63.00   12.18
  -6  -3   7   49.03    7.94
   6  -3  -7   42.26    4.97
   6  -3  -7   54.01    7.93
   6   3  -7   63.93   14.28
  -6   3   6   64.31    9.58
  -6  -3   6   59.43    8.91
  -6  -3   6   55.49    7.97
   6  -3  -6   53.52    7.88
   6   3  -6   59.26   14.41
  -6   3   5   60.06    8.85
  -6  -3   5   66.13    9.29
   6  -3  -5   54.96    7.99
   6   3  -5   49.16    9.75
  -6   3   4    2.47    2.87
  -6  -3   4    3.14    2.89
   6  -3  -4    6.44    2.87
   6   3  -4   -1.86    2.95
  -6   3   3    0.22    2.81
  -6  -3   3    5.35    2.33
   6  -3  -3    2.14    2.84
   6   3  -3   13.18    4.07
   6   3  -2   47.65    9.19
  -6   3   2   44.05    6.89
  -6  -3   2   29.95    5.63
   6  -3  -2   34.41    6.22
   6   3  -2   50.64    9.47
   6   3  -1   45.72    8.98
  -6   3   1   42.71    7.59
  -6  -3   1   46.31    7.20
   6  -3  -1   46.32    7.12
   6   3  -1   55.58   13.13
  -6   3   0   43.59    6.64
  -6  -3   0   41.55    6.45
   6  -3   0   32.98    5.46
   6   3   0   36.96    7.61
   6   3   1   35.59    7.03
  -6   3  -1   21.62    5.68
  -6  -3  -1   15.82    4.79
   6  -3   1   13.03    3.69
   6   3   1   18.31    5.88
   6   3   2   20.19    5.31
  -6   3  -2   15.36    4.29
  -6  -3  -2   27.24    6.89
   6  -3   2   10.43    4.35
   6   3   2   15.77    5.49
   6   3   3   12.73    4.53
  -6   3  -3    3.26    2.58
  -6   3  -3    3.86    0.67
  -6   3  -3    4.79    0.84
  -6  -3  -3    7.96    3.43
   6  -3   3    5.44    2.28
   6   3   3    6.56    1.89
   6   3   4    7.72    3.46
  -6   3  -4    1.81    2.56
  -6   3  -4    3.28    0.95
  -6  -3  -4    6.36    3.46
  -6   3  -4    0.76    0.50
   6  -3   4    4.03    1.93
  -6  -3  -4    2.32    0.94
  -6  -3  -4    2.96    0.95
   6   3   4   10.25    3.82
   6   3   5    3.21    2.34
  -6   3  -5    2.91    2.40
  -6   3  -5    0.93    0.60
  -6  -3  -5   21.42    6.23
  -6   3  -5    1.67    1.18
   6  -3   5    5.42    2.07
  -6  -3  -5    1.46    1.01
  -6  -3  -5    2.18    1.25
   6   3   5    1.46    0.70
   6   3   6    5.88    1.97
  -6   3  -6    3.67    2.37
  -6   3  -6    1.93    1.25
  -6  -3  -6    6.68    4.17
   6  -3   6    5.83    2.46
  -6  -3  -6    3.70    1.62
  -6  -3  -6    2.42    1.24
   6   3   7    9.98    3.21
  -6   3  -7    4.46    2.40
  -6   3  -7    2.54    1.35
  -6  -3  -7    8.14    4.29
   6  -3   7    5.62    2.75
  -6  -3  -7    2.13    0.96
  -6  -3  -7    2.63    1.63
   6   3   8   11.91    4.51
  -6   3  -8    5.62    2.08
  -6  -3  -8   20.56    7.45
   6  -3   8    7.57    2.46
  -6  -3  -8    8.00    2.90
   6   3   9    3.95    3.54
  -6   3  -9    3.21    2.06
  -6  -3  -9    3.07    4.05
   6  -3   9   10.86    3.73
  -6  -3  -9    7.05    2.55
   6   3  10   30.44    6.87
  -6   3 -10   26.44    4.85
  -6  -3 -10   34.53    7.96
   6  -3  10   25.50    5.64
  -6  -3 -10   24.26    4.43
   6   3  11   21.87    5.68
  -6   3 -11   17.58    4.55
  -6  -3 -11   35.19    9.00
   6  -3  11   18.10    4.88
  -6  -3 -11   16.37    4.38
   6   3  12   19.79    5.78
  -6   3 -12    4.70    1.69
  -6  -3 -12    9.09    4.93
   6  -3  12    0.40    2.71
  -6  -3 -12    1.36    1.82
   6   3  13   10.26    4.40
  -6   3 -13   10.42    3.08
  -6  -3 -13    2.86    3.59
   6  -3  13   16.20    5.38
  -6  -3 -13   11.90    3.91
   6   3  14    4.36    1.82
  -6  -3 -14    7.36    3.77
   6  -3  14    6.00    3.29
  -6  -3 -14   22.66    6.36
  -6   3 -14    6.76    3.26
   6   3  15   25.38    6.21
   6  -3  15   23.13    6.29
  -6  -3 -15   22.88    6.34
  -6   3 -15   30.00    6.34
   6   3  16   10.04    4.61
   6  -3  16   13.65    5.36
  -6  -3 -16   11.72    5.40
  -6   3 -16   31.60    7.90
   6   3  17    9.29    4.46
  -6  -3 -17   10.00    4.87
  -6   3 -17   11.99    4.93
  -6   3 -17    6.04    3.79
   6   3  18    4.92    2.75
  -6  -3 -18    4.54    2.88
  -6   3 -18    7.12    4.29
  -6   3 -18    5.12    3.52
   6   3  19    4.79    1.68
  -6  -3 -19    7.02    4.38
  -6   3 -19   14.07    6.17
  -6   3 -19    7.60    5.89
   6   3  20    5.92    2.43
  -6  -3 -20   14.12    4.91
  -6   3 -20    5.27    3.73
  -6   3 -20    9.21    4.73
   6   3  21   13.35    4.84
  -6  -3 -21    9.83    4.23
  -6   3 -21    4.11    4.33
  -6   3 -21    2.85    3.27
   6   3  22   16.11    7.26
  -6  -3 -22   14.67    4.46
  -6   3 -22   24.20    9.24
  -6   3 -22   19.79    6.40
  -6  -3 -23    2.67    2.14
  -6   3 -23    8.84    4.54
  -6  -3 -24   -0.08    2.90
  -6   3 -24    8.56    5.52
  -6   4  28    2.94    4.44
  -6  -4  28    1.69    2.07
   6  -4 -28    7.50    5.20
   6   4 -28    3.24    3.34
   6   4 -28    0.72    2.18
  -6   4  27    3.45    1.81
  -6  -4  27    5.97    3.29
  -6  -4  27   14.75    6.67
   6  -4 -27    5.86    4.98
   6   4 -27   -0.54    3.01
   6   4 -27    5.67    3.10
  -6   4  26    4.48    4.13
  -6  -4  26    6.19    2.95
  -6  -4  26    9.46    4.36
   6  -4 -26    5.18    4.57
   6   4 -26   -0.14    2.88
   6   4 -26   17.55    6.36
  -6   4  25   26.28    8.65
  -6  -4  25    3.45    2.90
  -6  -4  25    5.28    3.29
   6  -4 -25   18.08    8.76
   6   4 -25    7.14    2.98
   6   4 -25   10.08    3.20
  -6   4  24   10.10    6.64
  -6  -4  24    3.30    3.01
  -6  -4  24   10.49    5.07
   6  -4 -24   -0.74    4.13
   6   4 -24   11.67    4.66
   6   4 -24    1.51    3.76
  -6   4  23   11.81    4.98
  -6  -4  23   14.75    5.33
  -6  -4  23   50.92   12.12
   6  -4 -23    8.01    4.99
   6   4 -23   14.44    7.23
   6   4 -23    5.47    3.22
  -6   4  22   20.49    6.78
  -6  -4  22   10.29    4.75
  -6  -4  22   12.19    3.43
   6  -4 -22    3.11    4.38
   6   4 -22   -0.27    2.47
   6   4 -22   -0.03    3.93
  -6   4  21   -3.17    4.26
  -6  -4  21    2.85    2.79
  -6  -4  21    3.30    3.98
   6  -4 -21   13.60    4.84
   6   4 -21   -3.23    2.27
   6   4 -21    1.64    2.77
  -6   4  20   13.41    5.32
  -6  -4  20   10.03    4.98
  -6  -4  20    6.17    4.20
   6  -4 -20    5.97    5.15
   6   4 -20    3.34    1.74
   6   4 -20    3.76    3.28
  -6   4  19   15.41    6.18
  -6  -4  19   11.44    5.13
  -6  -4  19    4.43    4.24
   6  -4 -19   25.12    7.19
   6   4 -19   14.61    4.16
   6   4 -19   19.32    5.54
  -6   4  18    0.65    3.55
  -6  -4  18    5.34    2.81
  -6  -4  18   22.70    7.37
   6  -4 -18   10.57    5.54
   6   4 -18    2.03    1.90
   6   4 -18    7.02    4.18
  -6  -4  17    9.69    4.89
  -6  -4  17    7.12    4.04
   6  -4 -17    7.79    3.38
   6   4 -17   16.18    4.61
   6   4 -17   23.47    6.70
  -6   4  16   12.75    6.84
  -6  -4  16   21.48    5.83
  -6  -4  16   15.84    5.92
   6  -4 -16   12.47    4.34
   6   4 -16    6.50    2.51
   6   4 -16   18.20    4.90
  -6   4  15   48.13    7.57
  -6  -4  15   32.05    7.28
  -6  -4  15   35.16   10.02
   6  -4 -15   34.30    8.10
   6   4 -15   24.30    6.29
   6   4 -15   40.80   10.29
  -6   4  14    3.70    4.71
  -6  -4  14    4.97    3.38
  -6  -4  14   13.70    5.90
   6  -4 -14    5.37    3.44
   6   4 -14   -0.06    1.19
   6   4 -14    2.29    2.27
  -6   4  13    7.85    4.90
  -6  -4  13   -0.70    2.82
  -6  -4  13    6.95    4.01
   6  -4 -13    2.08    3.42
   6   4 -13   -0.17    1.09
   6   4 -13   11.48    3.99
  -6   4  12   18.97    6.06
  -6  -4  12   33.88    7.74
  -6  -4  12   40.63    8.68
   6  -4 -12   48.11    7.11
   6   4 -12   25.43    4.92
   6   4 -12   39.11   10.31
  -6   4  11   15.09    6.20
  -6  -4  11   26.01    6.42
  -6  -4  11   10.80    4.81
   6  -4 -11   14.80    6.52
   6   4 -11   16.77    4.80
   6   4 -11   37.00    8.24
   6  -4 -10   44.71    7.50
   6   4 -10    1.51    0.63
   6  -4 -10   59.22    8.16
   6   4 -10   67.84   11.57
  -6   4   9   52.86    7.37
  -6  -4   9   53.04    7.20
  -6  -4   9   58.81    7.68
   6  -4  -9   43.99    7.37
   6   4  -9   40.91    6.78
   6  -4  -9   54.59    6.97
   6   4  -9   49.56    8.21
   6   4  -9   52.79   10.30
  -6   4   8   13.56    6.17
  -6  -4   8    6.01    4.05
   6  -4  -8    2.60    3.66
   6   4  -8    2.72    2.47
  -6   4   7   36.91    6.60
  -6  -4   7   37.13    7.20
   6  -4  -7   25.31    5.60
   6   4  -7   41.86    8.71
  -6   4   6   86.55    8.25
  -6  -4   6  110.56   10.80
   6  -4  -6   96.28    8.59
   6   4  -6  124.16   16.41
  -6   4   5   21.83    6.29
  -6  -4   5   51.67    9.06
   6  -4  -5   25.86    5.87
   6   4  -5   32.79    7.29
   6   4  -4  152.21   22.79
  -6   4   4  145.22   11.29
  -6  -4   4  185.64   15.94
   6  -4  -4  160.83   12.57
   6   4  -4  144.49   22.66
   6   4  -3  128.41   20.25
  -6   4   3  124.27   12.74
  -6  -4   3  111.47    9.79
   6  -4  -3  115.38    9.70
   6   4  -3  120.09   14.85
   6   4  -2    8.78    2.77
  -6   4   2   15.47    5.06
  -6  -4   2    9.83    4.59
   6  -4  -2   21.01    5.41
   6   4  -2    7.98    3.19
   6   4  -1    6.08    2.22
  -6   4   1    8.31    3.58
  -6  -4   1    4.06    2.91
   6  -4  -1   12.67    5.19
   6   4  -1   10.53    4.15
   6   4   0  226.38   34.04
  -6   4   0  215.79   20.65
  -6  -4   0  239.14   17.98
   6  -4   0  189.71   13.82
   6   4   0  224.21   30.72
  -6   4  -1   12.64    3.93
  -6  -4  -1   10.82    5.75
   6  -4   1    4.25    3.28
   6   4   1    3.71    1.97
   6   4   2  108.56   17.74
  -6   4  -2  137.49   10.51
  -6  -4  -2  135.36   19.10
   6  -4   2  103.41   14.37
   6   4   2  105.42   15.90
   6   4   3    4.21    2.33
  -6   4  -3    3.94    3.13
  -6  -4  -3    3.05    3.92
   6  -4   3    2.63    3.31
   6   4   3   -0.39    2.80
   6   4   4   24.51    6.89
  -6   4  -4   27.55    5.56
  -6  -4  -4   32.49    7.79
   6  -4   4   37.39    8.01
   6   4   4   29.02    7.04
   6   4   5    9.38    4.47
  -6   4  -5   25.07    5.69
  -6   4  -5    6.16    1.42
  -6  -4  -5   19.39    6.62
  -6   4  -5    8.72    2.14
   6  -4   5   15.09    4.95
  -6  -4  -5    6.52    1.73
  -6  -4  -5   10.87    3.01
   6   4   5   13.04    4.19
   6   4   6  156.26   21.95
  -6   4  -6  191.18   14.95
  -6  -4  -6  162.23   14.43
   6  -4   6  165.02   23.30
  -6  -4  -6  130.23   10.97
   6   4   6  140.91   26.80
   6   4   7   10.77    4.06
  -6   4  -7    6.43    2.67
  -6  -4  -7    1.36    4.01
   6  -4   7    3.44    2.26
  -6  -4  -7    6.89    1.86
   6   4   8   57.16   11.05
  -6   4  -8   50.23    4.87
  -6  -4  -8   36.01    7.19
   6  -4   8   34.54    7.98
  -6  -4  -8   40.05    6.03
   6   4   9   12.98    4.12
  -6   4  -9    7.05    2.29
  -6  -4  -9    4.00    3.59
   6  -4   9    7.22    2.60
  -6  -4  -9    8.57    2.22
   6   4  10   15.35    5.47
  -6   4 -10   15.08    4.13
  -6  -4 -10   11.04    5.90
   6  -4  10   23.20    7.34
  -6  -4 -10   21.18    4.56
   6   4  11    1.77    1.53
  -6   4 -11    1.94    1.12
  -6  -4 -11   20.01    8.35
   6  -4  11   15.30    4.97
  -6  -4 -11    3.74    1.81
   6   4  12   17.99    4.92
  -6   4 -12   16.83    4.21
  -6  -4 -12   -0.18    3.93
   6  -4  12   12.16    4.18
  -6  -4 -12   12.45    4.31
   6   4  13   11.17    4.06
  -6  -4 -13    6.17    4.42
   6  -4  13    7.42    2.87
  -6  -4 -13    3.56    1.90
  -6   4 -13    9.52    4.54
   6   4  14   12.51    3.70
  -6  -4 -14   15.39    5.30
   6  -4  14   18.85    6.84
  -6  -4 -14    6.84    2.61
  -6   4 -14   26.49    6.80
   6   4  15   24.17    6.87
  -6  -4 -15   14.61    5.70
   6  -4  15    6.33    2.60
  -6  -4 -15   21.42    5.11
  -6   4 -15   32.14    8.14
   6   4  16    6.87    2.87
  -6  -4 -16    4.97    3.89
   6  -4  16    6.95    4.83
  -6  -4 -16   -0.02    2.30
  -6   4 -16   16.42    4.62
   6   4  17   18.34    5.29
  -6  -4 -17   12.29    5.84
   6  -4  17   19.27    6.00
  -6  -4 -17   20.59    4.77
  -6   4 -17    9.95    4.82
   6   4  18    4.48    1.66
  -6  -4 -18   10.64    6.32
   6  -4  18    2.27    1.91
  -6  -4 -18    2.85    1.84
  -6   4 -18    8.75    6.41
   6   4  19   11.27    4.94
  -6  -4 -19    7.02    2.34
  -6   4 -19   18.81    7.50
  -6   4 -19    6.58    5.14
   6   4  20   10.83    3.26
  -6  -4 -20   12.77    9.33
  -6   4 -20   24.12    8.62
  -6   4 -20   45.07   12.87
   6   4  21   19.71    7.75
  -6  -4 -21    5.05    4.18
  -6   4 -21    9.03    4.97
  -6   4 -21   17.70    6.83
   6   4  22   14.06    5.83
  -6  -4 -22   14.65    6.99
  -6   4 -22   14.52    6.12
  -6   4 -22   22.12    8.27
   6   4  23   -2.11    2.97
  -6   4 -23    9.81    5.18
  -6   5  27    8.74    5.35
   6  -5 -27    7.51    5.28
   6   5 -27    5.26    3.90
  -6   5  26    0.27    4.17
  -6  -5  26   19.95    6.63
   6  -5 -26   16.88    8.46
   6   5 -26    9.32    3.47
   6   5 -26    7.09    3.35
  -6   5  25    0.56    3.96
  -6  -5  25    4.44    3.71
  -6  -5  25    5.92    4.20
   6  -5 -25   20.83    7.11
   6   5 -25    3.85    3.85
   6   5 -25   10.49    6.01
  -6   5  24    6.02    3.21
  -6  -5  24   -1.00    2.60
  -6  -5  24   11.44    4.67
   6  -5 -24   -0.69    4.08
   6   5 -24    3.82    2.08
   6   5 -24   28.50    8.76
  -6   5  23    1.08    4.10
  -6  -5  23    1.42    2.97
  -6  -5  23   12.91    6.81
   6  -5 -23    2.77    4.90
   6   5 -23    0.01    2.41
   6   5 -23    9.36    6.73
  -6   5  22   15.85    6.95
  -6  -5  22    9.97    4.85
  -6  -5  22    6.46    5.06
   6  -5 -22   22.21    8.76
   6   5 -22    4.85    2.93
   6   5 -22   -0.49    5.18
  -6   5  21   -2.03    4.50
  -6  -5  21   30.52    7.24
  -6  -5  21   20.64    6.85
   6  -5 -21   12.69    5.49
   6   5 -21   -0.33    2.10
   6   5 -21   -2.83    3.98
  -6   5  20   14.26    5.39
  -6  -5  20    3.95    2.89
  -6  -5  20   11.13    4.34
   6  -5 -20    9.04    6.14
   6   5 -20    1.99    2.08
   6   5 -20    7.08    4.13
  -6   5  19    7.01    4.88
  -6  -5  19    2.02    4.23
   6  -5 -19   -2.83    3.57
   6   5 -19    5.81    2.88
   6   5 -19    7.40    7.74
  -6   5  18    3.01    4.42
  -6  -5  18    8.69    4.81
  -6  -5  18    3.55    4.23
   6  -5 -18    6.14    3.98
   6   5 -18    3.24    2.80
   6   5 -18    6.49    3.21
  -6   5  17    6.47    4.58
  -6  -5  17    1.39    3.36
  -6  -5  17    9.55    5.16
   6  -5 -17   23.27    7.34
   6   5 -17    0.99    1.66
   6   5 -17    9.41    4.04
  -6   5  16   12.13    5.22
  -6  -5  16   10.99    3.96
  -6  -5  16   11.34    4.20
   6  -5 -16   23.56    8.10
   6   5 -16    7.79    3.11
   6   5 -16   18.30    7.03
  -6   5  15   10.04    4.99
  -6  -5  15    4.69    3.46
  -6  -5  15    6.03    4.21
   6  -5 -15   13.92    6.10
   6   5 -15    2.38    1.47
   6   5 -15   10.44    6.02
  -6   5  14    8.13    4.48
  -6  -5  14    6.42    3.70
  -6  -5  14   11.40    5.84
   6  -5 -14   24.53    7.59
   6   5 -14    9.35    2.99
   6   5 -14   25.22    9.04
  -6   5  13   12.05    5.34
  -6  -5  13    4.42    3.57
  -6  -5  13    0.75    3.83
   6  -5 -13   14.14    6.31
   6   5 -13    9.09    2.28
  -6   5  12   24.74    6.86
  -6  -5  12   16.46    4.88
  -6  -5  12    3.67    3.91
   6  -5 -12   23.54    6.03
   6   5 -12    8.37    2.67
   6   5 -12   16.22    5.43
  -6   5  11   48.21    6.67
  -6  -5  11   37.16    7.15
  -6  -5  11   37.05    7.91
   6  -5 -11   65.60    7.94
   6   5 -11   24.12    5.62
   6   5 -11   34.60   10.18
  -6   5  10   19.69    6.19
  -6  -5  10   10.75    4.71
   6  -5 -10    4.70    1.17
   6  -5 -10   15.16    5.68
   6   5 -10    6.37    1.53
   6   5 -10   19.08    5.11
  -6   5   9   10.47    5.68
  -6  -5   9    6.13    3.93
   6  -5  -9    5.00    1.04
   6  -5  -9    5.13    3.09
   6   5  -9    0.08    0.31
   6   5  -9   -1.09    3.38
  -6   5   8   19.85    5.75
  -6  -5   8   26.03    6.93
   6  -5  -8   26.01    6.65
   6   5  -8   33.65    8.61
   6   5  -7   16.80    4.82
  -6   5   7   18.53    6.97
  -6  -5   7   16.83    5.94
   6  -5  -7   11.09    3.64
   6   5  -7   14.96    4.40
   6   5  -6   86.11   14.20
  -6   5   6   74.52    8.37
  -6  -5   6   81.45   10.20
   6  -5  -6   86.91    9.34
   6   5  -6   80.90   15.61
   6   5  -5   39.35    9.44
  -6   5   5   22.62    6.47
  -6  -5   5   26.35    7.25
   6  -5  -5   21.37    5.97
   6   5  -5   33.06    8.18
   6   5  -4   22.00    7.53
  -6   5   4   17.85    5.94
  -6  -5   4   24.83    6.87
   6  -5  -4    7.14    4.07
   6   5  -4   20.34    6.55
   6   5  -3   34.60    8.78
  -6   5   3   45.35    9.21
  -6  -5   3   34.79    8.02
   6  -5  -3   31.78    7.36
   6   5  -3   35.58    7.70
   6   5  -2   63.62   10.04
  -6   5   2   64.73    7.93
  -6  -5   2   67.55    8.96
   6  -5  -2   60.63    8.23
   6   5  -2   56.69    9.23
   6   5  -1    7.46    3.68
  -6   5   1    4.69    2.80
  -6  -5   1   10.94    4.67
   6  -5  -1   14.40    5.95
   6   5  -1    4.80    2.14
   6   5   0    8.49    3.49
  -6   5   0   15.31    4.85
  -6  -5   0    1.85    4.46
   6  -5   0   18.89    5.25
   6   5   0    8.77    3.98
   6   5   1   36.96    9.50
  -6   5  -1   42.01    8.28
  -6  -5  -1   33.81    8.20
   6  -5   1   28.07    6.31
   6   5   1   39.88   12.41
   6   5   2   69.04   12.19
  -6   5  -2   54.44    6.60
  -6  -5  -2   93.10   11.64
   6  -5   2   66.38   10.15
   6   5   2   54.98   10.19
  -6   5  -3   -2.51    2.53
  -6  -5  -3    7.13    4.24
   6  -5   3   -1.28    3.12
   6   5   3    3.35    2.25
   6   5   4   15.00    6.38
  -6   5  -4    4.51    2.57
  -6  -5  -4   -1.28    3.71
   6  -5   4    5.01    2.17
   6   5   4   13.74    4.72
   6   5   5   15.10    4.84
  -6   5  -5    7.48    3.09
  -6  -5  -5    5.75    4.02
   6  -5   5    1.86    2.13
   6   5   5    9.45    2.93
   6   5   6    5.78    2.55
  -6   5  -6    6.21    2.72
  -6  -5  -6   18.33    6.68
   6  -5   6    5.80    2.13
  -6  -5  -6    6.12    1.44
   6   5   6    5.18    2.38
   6   5   7    8.63    3.09
  -6   5  -7    8.62    3.39
  -6  -5  -7   14.51    6.88
   6  -5   7    8.20    3.30
   6   5   7    2.60    1.88
   6   5   8   53.88    9.39
  -6   5  -8   39.89    4.66
  -6  -5  -8   57.53    9.00
   6  -5   8   54.68   10.69
  -6  -5  -8   38.77    5.15
   6   5   8   28.32    7.10
   6   5   9   18.92    5.39
  -6   5  -9   26.05    6.22
  -6  -5  -9    8.74    5.30
   6  -5   9    5.83    3.01
  -6  -5  -9    2.97    1.21
   6   5  10    9.99    4.51
  -6   5 -10    0.90    1.55
  -6  -5 -10    3.60    4.44
   6  -5  10   11.52    3.72
  -6  -5 -10    2.87    1.42
   6   5  11   16.11    8.73
  -6  -5 -11   10.62    6.57
   6  -5  11    8.89    3.55
  -6  -5 -11    7.61    2.75
  -6   5 -11   23.84    7.94
   6   5  12   11.49    4.37
  -6  -5 -12    8.93    6.25
   6  -5  12    6.35    2.52
  -6  -5 -12    2.59    1.76
  -6   5 -12    1.59    4.71
   6   5  13   14.10    4.73
  -6  -5 -13    8.14    5.46
   6  -5  13    5.24    2.60
  -6  -5 -13    7.13    2.75
  -6   5 -13    7.53    4.37
   6   5  14   19.56    6.15
  -6  -5 -14    5.63    3.74
   6  -5  14    3.03    1.64
  -6   5 -14   -0.03    3.54
   6   5  15    8.14    3.63
  -6  -5 -15   13.96    5.05
   6  -5  15    8.90    3.64
  -6   5 -15   13.63    7.17
   6   5  16    9.56    4.77
  -6  -5 -16    8.02    4.71
   6  -5  16    8.76    6.03
  -6   5 -16   -3.16    4.22
   6   5  17   20.06    6.27
  -6  -5 -17   12.00    5.36
   6  -5  17    9.21    3.64
  -6   5 -17   19.23    7.11
   6   5  18   14.79    7.23
  -6  -5 -18   19.29    7.67
   6  -5  18    3.44    2.12
  -6   5 -18   11.64    6.64
  -6  -5 -19   14.24    6.74
   6  -5  19    7.60    3.40
  -6   5 -19    8.13    4.39
   6   5  20    5.07    2.41
  -6  -5 -20    6.72    4.33
  -6   5 -20    4.81    4.36
   6   5  21   17.50    5.23
  -6  -5 -21    7.95    4.89
  -6   5 -21   23.43    8.51
  -6   5 -21   25.02    8.81
   6   5  22    9.26    3.60
  -6  -5 -22   19.08    8.58
  -6   5 -22   20.77    7.61
  -6   5 -22   12.88    6.88
  -6   6  26    4.39    4.67
  -6  -6  26    4.76    3.63
   6  -6 -26   -1.26    4.38
   6   6 -26   -0.32    4.20
  -6   6  25   23.51    8.82
  -6  -6  25    3.76    3.79
   6  -6 -25   -5.07    5.01
   6   6 -25    3.51    5.92
  -6   6  24   14.57    7.22
  -6  -6  24    6.33    3.15
  -6  -6  24    1.56    4.26
   6  -6 -24   -0.72    5.09
   6   6 -24    2.43    4.60
  -6   6  23    9.13    5.44
  -6  -6  23    3.15    2.88
  -6  -6  23    2.68    4.69
   6  -6 -23   12.83    7.11
   6   6 -23   15.47    6.98
  -6   6  22   -0.91    4.30
  -6  -6  22   10.77    3.62
  -6  -6  22   17.97    7.36
   6  -6 -22    5.73    5.01
   6   6 -22    2.37    5.07
  -6   6  21    5.47    4.21
  -6  -6  21    4.02    4.33
  -6  -6  21   22.94    8.48
   6  -6 -21    3.45    4.66
   6   6 -21   19.68    7.47
  -6  -6  20    4.77    3.03
  -6  -6  20    9.10    6.27
   6  -6 -20   17.55    8.35
   6   6 -20    4.67    5.97
  -6   6  19    0.28    3.54
  -6  -6  19    3.63    3.77
  -6  -6  19    1.87    3.88
   6  -6 -19   -0.18    4.33
   6   6 -19   17.50    6.63
  -6   6  18    1.05    3.85
  -6  -6  18    5.35    4.18
  -6  -6  18   20.12    6.29
   6  -6 -18    0.96    4.31
   6   6 -18   10.62    4.11
  -6   6  17    5.23    3.84
  -6  -6  17    0.60    2.76
  -6  -6  17   18.37    6.74
   6  -6 -17   -0.37    3.93
   6   6 -17    9.37    4.30
  -6   6  16    4.03    4.01
  -6  -6  16   -2.03    3.18
  -6  -6  16    7.65    4.43
   6  -6 -16   12.40    5.11
  -6   6  15    8.24    4.68
  -6  -6  15    7.33    2.97
  -6  -6  15   13.09    6.28
   6  -6 -15    7.06    4.52
   6   6 -15    7.83    4.18
  -6   6  14    3.79    4.74
  -6  -6  14    7.29    5.24
  -6  -6  14   13.56    6.67
   6  -6 -14   23.22    7.66
   6   6 -14    8.58    3.41
  -6   6  13    7.83    4.86
  -6  -6  13    4.85    4.76
  -6  -6  13    5.04    4.10
   6  -6 -13   18.77    7.36
   6   6 -13    3.70    1.97
  -6   6  12    5.68    5.73
  -6  -6  12    8.79    5.11
  -6  -6  12   -0.35    4.03
   6  -6 -12    2.72    3.75
   6   6 -12    5.36    2.80
  -6   6  11    6.28    3.89
  -6  -6  11    7.43    5.69
   6  -6 -11    4.83    3.77
   6   6 -11    5.55    2.20
  -6   6  10   26.37    8.26
  -6  -6  10   14.12    5.99
   6  -6 -10   17.28    6.93
   6   6 -10    8.64    2.99
  -6   6   9   17.11    7.00
  -6  -6   9   14.28    6.20
   6  -6  -9   24.45    7.68
   6   6  -9   15.37    4.63
   6   6  -8   15.77    5.84
  -6   6   8   18.02    5.70
  -6  -6   8    7.75    4.41
   6  -6  -8   29.15    7.95
   6   6  -8   19.26    4.44
   6   6  -7    8.97    2.52
  -6   6   7    9.39    5.17
  -6  -6   7    5.71    4.15
   6  -6  -7    8.86    5.36
   6   6  -7   15.26    4.92
   6   6  -6   16.27    5.07
  -6   6   6   14.67    6.03
  -6  -6   6    5.18    4.39
   6  -6  -6    2.22    3.90
   6   6  -6   18.06    5.91
   6   6  -5   51.93    8.67
  -6   6   5   59.10    7.06
  -6  -6   5   53.26    8.17
   6  -6  -5   45.17    8.24
   6   6  -5   60.93    9.27
   6   6  -4   21.01    8.12
  -6   6   4   25.99    6.54
  -6  -6   4   29.31    7.58
   6  -6  -4   23.10    5.98
   6   6  -4   33.22    9.76
   6   6  -3   10.20    5.57
  -6   6   3    2.43    3.78
  -6  -6   3    3.16    4.39
   6  -6  -3    3.79    3.88
   6   6  -3    7.44    2.07
   6   6  -2    9.44    3.89
  -6   6   2    8.99    4.39
  -6  -6   2    4.43    4.20
   6  -6  -2    6.97    5.33
   6   6  -2    9.26    2.94
   6   6  -1   12.74    4.68
  -6   6   1    0.73    2.75
  -6  -6   1    9.12    4.64
   6  -6  -1    7.58    4.18
   6   6  -1   12.72    4.44
   6   6   0   12.90    7.49
  -6   6   0    2.20    2.51
  -6  -6   0   11.98    5.73
   6  -6   0   13.44    4.94
   6   6   0    6.50    1.97
   6   6   1   71.36   12.31
  -6   6  -1   69.95    7.59
  -6  -6  -1   50.96    7.24
   6  -6   1   76.49   10.02
   6   6   1   58.06   11.61
   6   6   2    7.75    2.64
  -6   6  -2    7.34    2.94
  -6  -6  -2    3.11    4.14
   6  -6   2    4.31    3.93
   6   6   2    7.42    2.26
   6   6   3    3.69    1.72
  -6   6  -3   -0.53    2.14
  -6  -6  -3    9.85    3.28
   6  -6   3    9.37    3.32
   6   6   3    6.65    2.81
  -6   6  -4    7.35    3.29
  -6  -6  -4    3.82    4.08
   6  -6   4    8.52    3.74
   6   6   4    9.25    2.84
   6   6   5   15.57    4.07
  -6   6  -5   22.07    6.05
  -6  -6  -5   23.57    6.59
   6  -6   5   22.41    6.80
   6   6   5   19.36    6.22
   6   6   6    6.66    3.74
  -6   6  -6    8.16    2.33
  -6  -6  -6   16.44    5.45
   6  -6   6   25.46    7.48
   6   6   6   17.77    6.05
   6   6   7   14.51    4.64
  -6   6  -7    5.52    3.20
  -6  -6  -7    1.53    4.08
   6  -6   7    8.99    3.56
   6   6   7    2.65    1.83
   6   6   8   11.04    4.22
  -6   6  -8    4.32    2.66
  -6  -6  -8    4.17    4.14
   6   6   8    3.57    1.37
   6   6   9   12.67    4.29
  -6   6  -9    9.83    2.88
  -6  -6  -9    7.78    4.76
   6  -6   9    4.40    2.22
   6   6   9    3.85    1.34
  -6   6  -9   14.09    7.83
   6   6  10    8.77    2.85
  -6  -6 -10    7.92    4.80
   6  -6  10    8.39    3.64
  -6   6 -10    5.83    5.00
   6   6  11   12.31    4.27
  -6  -6 -11    1.70    4.32
   6  -6  11    6.84    3.45
  -6   6 -11    5.28    4.97
   6   6  12   10.62    4.02
  -6  -6 -12   16.10    5.39
   6  -6  12   28.04    7.39
  -6   6 -12   16.91    5.85
   6   6  13    1.05    3.10
  -6  -6 -13   12.72    5.19
   6  -6  13    3.45    3.69
  -6   6 -13    8.28    5.08
   6   6  14   -1.14    3.28
  -6  -6 -14    1.42    4.47
   6  -6  14    4.40    3.51
  -6   6 -14   10.56    7.80
   6   6  15    4.48    3.00
  -6  -6 -15    3.05    4.99
   6  -6  15    6.31    3.90
  -6   6 -15    3.37    4.69
   6   6  16   -3.21    4.20
   6  -6  16    2.71    2.96
  -6   6 -16   12.40    7.41
   6   6  17   15.65    5.42
  -6  -6 -17   11.96    5.64
   6  -6  17    8.29    3.76
  -6   6 -17    4.91    7.06
   6   6  18   17.73    5.57
  -6  -6 -18   15.10    8.15
   6  -6  18    5.43    6.07
  -6   6 -18   25.09   10.06
   6   6  19   -0.10    3.72
  -6  -6 -19    7.25    5.35
   6  -6  19   15.50    7.77
  -6   6 -19    5.74    4.99
   6   6  20   14.05    4.94
  -6  -6 -20    6.97    5.36
   6  -6  20   11.82    6.94
  -6   6 -20   12.86    9.18
  -6   7  24    5.58    4.63
  -6  -7  24   15.87    8.23
   6  -7 -24   23.69   10.27
   6   7 -24    9.42    4.74
  -6   7  23    0.65    4.37
  -6  -7  23   11.10    5.95
   6  -7 -23   10.55    5.80
   6   7 -23    2.66    2.85
  -6   7  22   13.24    5.77
  -6  -7  22   11.22    5.57
  -6  -7  22    3.82    5.22
   6  -7 -22    3.29    4.97
   6   7 -22    6.95    5.41
  -6   7  21   20.12    8.85
  -6  -7  21    9.53    3.89
  -6  -7  21   12.72    7.53
   6  -7 -21    7.82    5.44
   6   7 -21    7.94    5.89
  -6   7  20    9.68    4.77
  -6  -7  20    5.39    3.39
  -6  -7  20    2.15    4.59
   6  -7 -20    1.23    5.08
   6   7 -20    3.54    5.23
  -6   7  19    9.86    4.82
  -6  -7  19   18.20    5.88
  -6  -7  19    6.23    5.51
   6  -7 -19   26.66    9.42
   6   7 -19   35.58   12.15
  -6   7  18    0.61    4.44
  -6  -7  18    6.05    3.48
  -6  -7  18   21.24    7.91
   6  -7 -18   -3.47    4.11
   6   7 -18   -1.49    4.83
  -6   7  17   18.14    7.96
  -6  -7  17    7.28    4.73
  -6  -7  17    9.73    6.18
   6  -7 -17    5.52    4.19
   6   7 -17   -2.37    4.30
  -6   7  16   17.60    5.55
  -6  -7  16    4.74    2.15
  -6  -7  16   -0.01    4.41
   6  -7 -16   13.55    6.17
   6   7 -16    9.28    5.77
  -6   7  15   21.76    6.20
  -6  -7  15   17.19    5.44
  -6  -7  15   28.52    8.80
   6  -7 -15   37.85    8.73
   6   7 -15   18.55    7.49
  -6   7  14    8.78    4.61
  -6  -7  14    6.09    3.96
  -6  -7  14   -0.69    4.09
   6  -7 -14   -1.23    4.60
   6   7 -14   -0.20    4.73
  -6   7  13   27.23    7.46
  -6  -7  13   15.89    6.29
   6  -7 -13   44.82   11.36
   6   7 -13   31.64    9.46
  -6   7  12   24.67    8.16
  -6  -7  12   12.65    7.78
   6  -7 -12    3.00    7.01
   6   7 -12   10.22    7.42
  -6   7  11   13.99    7.24
  -6  -7  11   14.27    7.88
   6  -7 -11    9.28    7.86
   6   7 -11   13.65    7.02
   6   7 -10   19.30    7.33
  -6   7  10   17.07    7.18
  -6  -7  10   28.21    7.91
   6  -7 -10   34.99    8.57
   6   7 -10   24.99    6.65
   6   7  -9    8.95    4.34
  -6   7   9    9.68    4.96
  -6  -7   9    9.68    5.32
   6  -7  -9   24.40    7.77
   6   7  -9    4.47    3.83
   6   7  -8    5.13    3.60
  -6   7   8    3.53    4.19
  -6  -7   8   11.99    5.49
   6  -7  -8    4.16    1.98
   6   7  -8    4.87    3.90
   6   7  -7    3.51    3.21
  -6   7   7   -3.51    3.91
  -6  -7   7   19.75    7.85
   6  -7  -7    4.62    6.77
   6   7  -7    8.48    4.68
   6   7  -6    8.92    3.43
  -6   7   6    8.54    4.18
  -6  -7   6   17.09    7.95
   6  -7  -6    7.86    5.36
   6   7  -6   13.90    4.99
   6   7  -5   21.86    6.66
  -6   7   5   15.42    5.55
  -6  -7   5   12.48    7.70
   6  -7  -5   25.71    8.16
   6   7  -5   19.04    7.51
   6   7  -4   23.32    8.52
  -6   7   4   27.95    5.12
  -6  -7   4   25.65    7.64
   6  -7  -4   16.09    6.33
   6   7  -4   28.95    6.02
   6   7  -3    7.38    3.52
  -6   7   3    3.33    3.36
  -6  -7   3   18.40    8.30
   6  -7  -3    3.46    4.27
   6   7  -3   12.55    4.46
   6   7  -2   -4.07    4.38
  -6   7   2   11.82    5.18
  -6  -7   2   11.54    5.60
   6  -7  -2    5.14    4.28
   6   7  -2   11.75    4.22
   6   7  -1    6.20    5.62
  -6   7   1    4.73    2.92
  -6  -7   1   12.69    5.57
   6  -7  -1    7.34    4.48
   6   7  -1    3.83    2.01
   6   7   0   20.06    8.27
  -6   7   0    8.68    3.70
  -6  -7   0   23.96    8.48
   6  -7   0    9.35    4.78
   6   7   0   12.16    4.09
   6   7   1   41.42    9.84
  -6   7  -1   21.01    6.36
  -6  -7  -1   28.65    6.59
   6  -7   1   13.24    6.64
   6   7   1   22.95    8.60
   6   7   2   42.80    8.78
  -6   7  -2   36.68    6.86
  -6  -7  -2   27.90    7.92
   6  -7   2   22.40    6.96
   6   7   2   26.16    6.27
   6   7   3   26.16    7.32
  -6   7  -3   10.42    4.01
  -6  -7  -3   20.78    8.24
   6  -7   3   19.19    7.24
   6   7   3   24.81    7.79
   6   7   4   14.98    5.99
  -6   7  -4    7.72    4.76
  -6  -7  -4   -0.65    4.89
   6  -7   4    7.36    4.07
   6   7   4    1.20    1.42
   6   7   5   18.87    5.26
  -6   7  -5   23.83    6.68
  -6  -7  -5   14.28    5.70
   6  -7   5   39.86   10.23
   6   7   5   12.37    3.93
   6   7   6   10.49    4.26
  -6   7  -6    8.77    3.23
  -6  -7  -6   10.38    4.56
   6  -7   6   17.39    6.05
   6   7   6    6.41    3.72
   6   7   7   21.03    5.71
  -6   7  -7   11.91    4.51
  -6  -7  -7   29.46    9.06
   6  -7   7   25.48    8.53
   6   7   7   21.14    5.76
  -6   7  -7   18.90    8.16
   6   7   8    9.77    4.49
  -6  -7  -8   11.10    5.26
   6  -7   8   11.06    5.36
  -6   7  -8   24.02    6.73
   6   7   9    2.96    3.08
  -6  -7  -9   18.61    5.84
   6  -7   9   -1.27    4.05
  -6   7  -9    3.74    5.19
   6   7  10   11.46    5.19
  -6  -7 -10   35.99    9.26
   6  -7  10    4.03    3.01
  -6   7 -10    9.87    5.75
   6   7  11   -0.90    4.19
  -6  -7 -11   11.08    5.14
   6  -7  11    7.48    3.84
   6   7  12   10.94    5.25
  -6  -7 -12   12.81    5.81
   6  -7  12   24.93    7.71
  -6   7 -12   14.34    7.02
   6   7  13   11.19    4.17
  -6  -7 -13   36.94   10.96
  -6   7 -13   28.76    9.24
   6   7  14   13.17    7.48
  -6  -7 -14   16.61    7.68
   6  -7  14    3.69    3.52
  -6   7 -14   10.33    7.23
   6   7  15    6.86    3.29
  -6  -7 -15   10.12    4.38
   6  -7  15    9.25    3.93
  -6   7 -15   -3.03    5.35
   6   7  16   26.28    9.07
  -6  -7 -16   10.33    5.30
   6  -7  16    8.04    3.60
  -6   7 -16   15.16    8.39
   6   7  17   -0.72    3.76
  -6  -7 -17    3.99    4.63
   6  -7  17   10.89    5.84
  -6   7 -17   10.65    5.68
   6   7  18   12.36    4.89
  -6  -7 -18   10.06    5.03
   6  -7  18    7.25    4.72
  -6   7 -18   10.10    5.62
  -6   8  21   12.34    8.48
  -6  -8  21    4.00    3.44
  -6  -8  21    2.67    4.92
   6  -8 -21   -2.85    4.61
   6   8 -21    7.56    6.13
  -6   8  20   19.09    8.76
  -6  -8  20    6.29    3.35
  -6  -8  20    4.03    4.67
   6  -8 -20   12.98    5.65
   6   8 -20   15.20    8.54
  -6   8  19    2.06    5.15
  -6  -8  19    5.09    3.23
  -6  -8  19    6.51    4.73
   6  -8 -19    3.70    4.62
   6   8 -19    4.86    5.41
  -6   8  18    6.30    4.39
  -6  -8  18    6.46    3.39
  -6  -8  18   11.54    6.50
   6  -8 -18    1.80    5.14
  -6   8  17   19.73    7.81
  -6  -8  17    9.93    4.14
  -6  -8  17    7.48    4.42
   6  -8 -17    1.86    5.56
   6   8 -17   13.74    7.37
  -6   8  16   21.93    7.77
  -6  -8  16    8.57    5.10
  -6  -8  16    3.91    4.61
   6  -8 -16   27.82   11.77
   6   8 -16   25.69   11.07
  -6   8  15    8.57    5.08
  -6  -8  15    9.79    4.36
  -6  -8  15   23.30    8.17
   6  -8 -15   14.03    7.73
   6   8 -15    3.62    5.06
  -6   8  14    2.34    4.79
  -6  -8  14    7.76    5.10
   6  -8 -14    9.68    5.50
   6   8 -14    8.48    4.48
  -6   8  13    1.32    4.00
  -6  -8  13   20.23    8.05
   6  -8 -13   23.11    7.69
   6   8 -13   27.16    7.45
  -6   8  12    5.53    3.82
  -6  -8  12    7.86    6.67
   6  -8 -12   15.34    7.57
   6   8 -12    5.62    4.69
   6   8 -11    7.15    3.14
  -6   8  11   24.59    6.93
  -6  -8  11    2.17    4.59
   6  -8 -11    2.88    4.44
   6   8 -11    0.33    4.44
   6   8 -10   12.98    4.77
  -6   8  10    4.63    3.75
  -6  -8  10   11.50    6.34
   6  -8 -10    7.33    3.56
   6   8 -10   14.09    4.60
   6   8  -9   17.80    8.01
  -6   8   9   26.74    7.58
  -6  -8   9    8.96    5.11
   6  -8  -9   11.78    5.12
   6   8  -9   29.63    8.09
   6   8  -8    9.84    3.78
  -6   8   8   -1.74    3.42
  -6  -8   8   10.98    4.72
   6  -8  -8   -4.98    4.87
   6   8  -8   27.30    8.64
   6   8  -7   16.04    5.91
  -6   8   7   46.36   10.19
  -6  -8   7   38.46    8.95
   6  -8  -7   36.77    9.50
   6   8  -7   34.58    8.63
   6   8  -6    7.44    2.87
  -6   8   6   11.84    5.71
  -6  -8   6   11.85    6.98
   6  -8  -6    0.41    4.83
   6   8  -6   -2.80    3.44
   6   8  -5   12.54    5.87
  -6   8   5    9.31    4.94
  -6  -8   5   22.20    7.82
   6  -8  -5   24.16    8.08
   6   8  -5   12.79    4.18
   6   8  -4    4.48    3.42
  -6   8   4   11.09    4.91
  -6  -8   4   26.08    8.96
   6  -8  -4    2.66    4.84
   6   8  -4    2.81    2.96
   6   8  -3    9.94    5.26
  -6   8   3   19.43    7.18
  -6  -8   3    8.34    5.13
   6  -8  -3   20.34    7.58
   6   8  -3    5.52    4.03
   6   8  -2   -0.96    4.09
  -6   8   2   -1.52    2.83
  -6  -8   2    0.50    4.74
   6  -8  -2   15.42    7.43
   6   8  -2   11.34    4.82
   6   8  -1   40.80   12.07
  -6   8   1   13.00    4.53
  -6  -8   1   15.06    7.22
   6  -8  -1   26.98    7.03
   6   8  -1   17.09    6.59
   6   8   0   18.25    6.28
  -6   8   0   11.73    4.14
  -6  -8   0   14.23    7.36
   6  -8   0   14.69    6.13
   6   8   0    8.92    4.01
   6   8   1   27.35    7.00
  -6   8  -1    1.63    2.80
  -6  -8  -1   14.08    5.99
   6  -8   1   10.97    5.39
   6   8   1   27.53    6.69
   6   8   2   19.09    4.83
  -6   8  -2   18.92    4.48
  -6  -8  -2   38.58   10.21
   6  -8   2   15.87    6.61
   6   8   2   10.04    4.89
   6   8   3    9.64    3.99
  -6   8  -3    1.51    2.82
  -6  -8  -3    4.63    4.57
   6  -8   3   11.02    5.73
   6   8   3    5.34    2.59
   6   8   4    7.78    3.62
  -6   8  -4    9.40    4.82
  -6  -8  -4    6.67    4.91
   6  -8   4    5.98    4.94
   6   8   4    1.47    2.98
  -6   8  -4   13.33    4.74
   6   8   5   14.63    4.67
  -6   8  -5   13.22    4.43
  -6  -8  -5   13.45    6.41
   6  -8   5   26.40    6.14
   6   8   5   13.76    4.24
  -6   8  -5   50.11   11.35
   6   8   6   22.78    6.57
  -6  -8  -6    2.17    4.59
   6  -8   6   19.64    7.93
  -6   8  -6   16.97    8.54
  -6  -8  -7   17.78    7.55
   6  -8   7   35.60    9.18
  -6   8  -7   22.80    8.97
   6   8   8   15.53    6.65
  -6  -8  -8   16.02    6.77
   6  -8   8   10.04    3.75
  -6   8  -8   -3.07    5.27
   6   8   9    2.74    2.24
  -6  -8  -9    1.83    5.17
   6  -8   9    6.18    3.05
  -6   8  -9   30.54    9.57
   6   8  10    0.99    3.17
  -6  -8 -10    9.50    5.77
   6  -8  10    2.88    3.75
  -6   8 -10   -3.64    5.85
   6   8  11   18.08    8.25
  -6  -8 -11    7.87    5.17
   6  -8  11   13.85    5.19
  -6   8 -11   20.09    8.04
   6   8  12    6.95    3.14
  -6  -8 -12   15.33    9.76
   6  -8  12    6.74    3.60
  -6   8 -12    6.74    5.84
   6   8  13   19.95    7.05
  -6  -8 -13   12.92    8.32
   6  -8  13    9.38    5.24
  -6   8 -13   22.21    9.96
   6   8  14    9.35    4.58
  -6  -8 -14    0.89    5.18
   6  -8  14    5.35    3.12
  -6   8 -14    4.04    5.89
   6   8  15   14.93    6.47
  -6  -8 -15   30.91   12.35
   6  -8  15    3.35    4.41
  -6   8 -15   38.21   12.88
   6   8  16   19.05    6.98
  -6  -8 -16    3.23    5.39
   6  -8  16    9.85    3.91
  -6   8 -16    9.15    5.64
  -6   9  18   16.22    7.36
  -6  -9  18   12.38    5.25
  -6  -9  18   -0.76    4.21
   6  -9 -18    8.39    5.58
   6   9 -18   -0.47    5.21
  -6   9  17   28.98    9.51
  -6  -9  17    8.59    4.75
  -6  -9  17    4.46    4.91
   6  -9 -17    8.55    5.49
   6   9 -17   -2.11    4.90
  -6   9  16    3.39    5.08
  -6  -9  16    5.72    3.65
  -6  -9  16    2.67    4.78
   6  -9 -16    7.75    5.29
   6   9 -16    5.17    5.45
  -6   9  15    4.64    4.97
  -6  -9  15    0.83    5.00
   6  -9 -15    2.77    4.99
   6   9 -15   11.02    5.94
  -6   9  14    7.17    5.08
  -6  -9  14    1.70    4.65
   6  -9 -14    9.82    5.73
   6   9 -14   -0.43    4.86
  -6   9  13    3.73    4.66
  -6  -9  13   34.61   10.98
   6  -9 -13    3.06    5.84
   6   9 -13    9.73    4.00
  -6   9  12    3.56    4.32
  -6  -9  12    8.31    5.09
   6  -9 -12   18.79    8.17
   6   9 -12   14.73    7.62
   6   9 -11    5.63    3.12
  -6   9  11    4.79    4.07
  -6  -9  11    2.13    4.74
   6  -9 -11    4.34    5.10
   6   9 -11    7.41    4.74
  -6   9  10    4.92    4.16
  -6  -9  10   11.59    7.20
   6  -9 -10    5.33    5.15
   6   9 -10    5.69    4.34
   6   9  -9    2.27    1.59
  -6   9   9    2.58    4.01
  -6  -9   9   -0.12    4.80
   6  -9  -9   40.17   10.87
   6   9  -9    8.40    4.37
   6   9  -8   11.67    3.89
  -6   9   8    7.92    3.70
  -6  -9   8   -3.51    4.46
   6  -9  -8    9.75    7.50
   6   9  -8    5.97    4.18
   6   9  -7    0.12    2.60
  -6   9   7   22.50    7.15
  -6  -9   7   17.90    7.98
   6  -9  -7    7.30    5.01
   6   9  -7   -1.86    3.81
   6   9  -6    4.27    3.30
  -6   9   6   20.17    6.48
  -6  -9   6   11.41    5.94
   6  -9  -6   14.99    8.26
   6   9  -6   24.10    8.44
   6   9  -5    7.43    3.30
  -6   9   5   17.37    5.97
  -6  -9   5    6.38    5.25
   6  -9  -5    0.74    4.80
   6   9  -5   11.96    6.71
   6   9  -4    6.22    3.05
  -6   9   4    3.49    3.66
  -6  -9   4   15.69    6.72
   6  -9  -4   -0.33    5.13
   6   9  -4   -1.91    3.59
   6   9  -3   13.31    5.12
  -6   9   3   12.55    4.66
  -6  -9   3    3.20    4.76
   6  -9  -3   40.43   11.07
   6   9  -3    5.68    3.28
   6   9  -2   21.14    7.24
  -6   9   2    8.27    4.22
  -6  -9   2   14.57    6.20
   6  -9  -2    8.47    5.29
   6   9  -2    3.69    2.56
   6   9  -1    5.46    3.58
  -6   9   1    4.32    2.18
  -6  -9   1    1.27    5.06
   6  -9  -1    2.57    4.89
   6   9  -1   10.06    4.42
   6   9   0   12.12    6.42
  -6   9   0   10.22    4.18
  -6  -9   0   31.44   10.19
   6  -9   0   24.18    8.43
   6   9   0   10.38    4.22
   6   9   1   17.96    6.95
  -6   9  -1    4.33    3.11
  -6  -9  -1   18.75    9.15
   6  -9   1    4.29    2.93
   6   9   1    1.16    3.72
  -6   9  -1    4.00    4.97
   6   9   2    9.06    3.77
  -6   9  -2   10.47    5.67
  -6  -9  -2    0.84    4.89
   6  -9   2   20.35    6.33
   6   9   2    9.40    3.34
  -6   9  -2   31.59    8.90
   6   9   3   10.22    4.98
  -6   9  -3   -1.79    2.38
  -6  -9  -3   -5.64    5.00
   6  -9   3   15.79    6.99
   6   9   3    4.48    3.04
  -6   9  -3    6.31    5.11
  -6   9  -4    2.61    2.60
  -6  -9  -4   10.28    5.76
   6  -9   4   11.36    4.89
  -6   9  -4    7.31    7.22
   6   9   5   13.74    7.77
  -6  -9  -5   15.39    7.58
   6  -9   5    6.51    4.69
  -6   9  -5    3.68    5.39
   6   9   6   27.61    9.12
  -6  -9  -6   27.48    9.67
   6  -9   6   15.96    8.67
  -6   9  -6   16.25    6.77
   6   9   7    8.84    5.87
  -6  -9  -7    1.54    4.39
   6  -9   7    7.77    4.96
  -6   9  -7   17.55    9.43
   6   9   8   27.33   10.50
   6  -9   8   33.00   11.42
  -6   9  -8    3.96    5.54
   6   9   9   11.14    8.73
   6  -9   9    3.55    4.12
  -6   9  -9    6.90    6.07
   6   9  10   14.99    7.54
  -6  -9 -10   24.76   10.64
   6  -9  10    6.32    3.40
  -6   9 -10    5.16    6.19
   6   9  11   11.27    8.02
  -6  -9 -11   -1.69    4.86
   6  -9  11    3.53    4.41
  -6   9 -11   11.50    6.90
   6   9  12    5.16    3.61
  -6  -9 -12    1.49    4.70
   6  -9  12   14.25    6.36
  -6   9 -12   10.65    7.59
   6   9  13   -0.34    4.21
  -6  -9 -13    5.91    5.03
   6  -9  13    4.97    2.65
  -6   9 -13    2.50    5.71
  -6  10  14   16.13    7.06
  -6 -10  14    1.71    5.35
   6 -10 -14   31.57   12.67
   6  10 -14    8.61    5.41
  -6  10  13    3.09    5.21
  -6 -10  13   -3.71    4.88
   6 -10 -13    6.02    5.95
   6  10 -13    7.86    5.60
   6  10 -12    7.00    3.31
  -6  10  12   18.27    7.20
  -6 -10  12   -7.28    5.21
   6 -10 -12   15.88    6.87
   6  10 -12   12.72    6.30
   6  10 -11    6.86    3.80
  -6  10  11   11.77    4.97
  -6 -10  11    5.36    5.51
   6 -10 -11    9.69    5.68
   6  10 -11   10.99    7.30
   6  10 -10    5.78    3.11
  -6  10  10   13.06    8.10
  -6 -10  10   12.36    6.44
   6 -10 -10   10.64    4.52
   6  10 -10   21.79    7.37
   6  10  -9    5.03    3.39
  -6  10   9   -0.12    3.92
  -6 -10   9   -2.14    5.46
   6 -10  -9   19.79    7.38
   6  10  -9   11.18    6.58
   6  10  -8    4.89    3.01
  -6  10   8   32.94   11.16
  -6 -10   8   27.07    9.13
   6 -10  -8   12.39    6.51
   6  10  -8   10.81    5.41
   6  10  -7   12.21    7.27
  -6  10   7    6.79    4.73
  -6 -10   7    5.39    6.03
   6 -10  -7   10.63    6.08
   6  10  -7   12.27    7.19
   6  10  -6    9.96    3.83
  -6  10   6   21.86    8.53
  -6 -10   6   44.60   15.72
   6 -10  -6   21.42    9.16
   6  10  -6    2.09    3.37
   6  10  -5   10.93    7.17
  -6  10   5    3.66    3.61
  -6 -10   5    2.57    5.15
   6 -10  -5   -2.89    5.11
   6  10  -5    5.58    3.97
  -6  10   5    3.56    4.85
   6  10  -4   19.71    6.58
  -6  10   4   -0.63    3.20
  -6 -10   4    1.06    5.80
   6 -10  -4    2.42    4.96
   6  10  -4    9.16    5.66
  -6  10   4   15.19    6.36
   6  10  -3    0.65    4.80
  -6  10   3    4.54    3.69
  -6 -10   3   17.37    8.74
   6 -10  -3    4.52    5.09
   6  10  -3    0.24    3.10
   6  10  -2    7.92    5.85
  -6  10   2   10.39    4.54
  -6 -10   2   10.03    6.57
   6 -10  -2    7.35    5.68
   6  10  -2    5.26    3.16
  -6  10   2   11.07    5.49
   6  10  -1    7.36    3.76
  -6  10   1    0.16    3.04
  -6 -10   1    2.86    5.37
   6 -10  -1   15.14    8.33
   6  10  -1    5.66    1.82
  -6  10   1   10.93    5.82
   6  10   0    4.07    3.54
  -6  10   0    1.68    3.41
  -6 -10   0    4.91    5.81
   6 -10   0    3.84    4.79
   6  10   0   -1.88    3.04
  -6  10   0    9.64    8.40
   6  10   1    5.71    4.40
  -6  10  -1   15.40    6.70
  -6 -10  -1    7.97    8.06
   6 -10   1   32.25   11.06
   6  10   1    1.94    1.89
  -6  10  -1    7.54    5.74
   6  10   2    3.95    2.57
  -6  10  -2    1.73    2.55
  -6 -10  -2   26.42   10.97
   6 -10   2    4.19    3.22
  -6  10  -2   10.26    6.05
   6  10   3   15.92    6.66
  -6 -10  -3    6.36    5.53
   6 -10   3    8.72    6.32
  -6  10  -3   19.68    7.34
   6  10   4   13.43    4.34
  -6 -10  -4   23.18    9.56
   6 -10   4    9.33    4.07
   6  10   5   14.63    6.63
  -6 -10  -5   21.74    9.48
   6 -10   5   17.92    7.15
  -6  10  -5    8.56    4.96
  -6 -10  -6   14.81    7.98
   6 -10   6   -2.33    4.55
  -6  10  -6    9.49    6.63
   6  10   7   15.21    6.70
  -6 -10  -7   26.11   10.20
   6 -10   7   12.31    6.14
  -6  10  -7   -4.07    6.11
   6  10   8   16.28   11.18
  -6 -10  -8   17.75    7.44
   6 -10   8    6.35    4.24
  -6  10  -8    1.82    6.50
   6  10   9    7.46    3.96
   6 -10   9    5.77    3.73
   6  11  -3    2.44    3.33
  -6  11   3    4.96    3.88
  -6  11   3   13.80    8.20
   6  11  -2    8.92    4.42
  -6  11   2   31.21   10.24
  -7   0  29    2.36    3.49
  -7   0  29    2.34    2.10
   7   0 -29    6.03    5.11
   7   0 -29    4.42    3.12
  -7   0  28    3.46    3.62
  -7   0  28    2.66    2.89
   7   0 -28   13.24    6.22
   7   0 -28    2.69    2.82
  -7   0  27    9.42    4.26
  -7   0  27    7.64    4.09
   7   0 -27    6.39    3.70
   7   0 -27    1.43    3.13
  -7   0  26    8.47    4.10
  -7   0  26    8.94    3.76
   7   0 -26    1.89    3.36
   7   0 -26    8.43    3.56
  -7   0  25   -0.30    3.51
  -7   0  25    5.94    2.85
   7   0 -25    1.12    2.73
   7   0 -25   19.53    6.80
  -7   0  24    9.65    4.65
  -7   0  24    3.30    2.23
   7   0 -24    8.35    3.76
   7   0 -24    5.35    2.69
  -7   0  23   10.60    6.53
  -7   0  23   13.22    4.97
   7   0 -23    4.07    3.42
   7   0 -23    3.29    2.85
  -7   0  22    3.99    4.04
  -7   0  22   14.99    3.84
   7   0 -22   17.17    6.31
   7   0 -22   11.60    3.11
  -7   0  21    2.48    3.73
  -7   0  21   -2.57    2.69
   7   0 -21    4.05    3.18
   7   0 -21   10.48    5.06
  -7   0  20    4.04    3.38
  -7   0  20    5.84    3.06
   7   0 -20    4.60    4.18
   7   0 -20    8.68    2.83
  -7   0  19    6.00    5.16
  -7   0  19    6.35    2.27
   7   0 -19    3.05    2.84
   7   0 -19   11.22    7.75
  -7   0  18   30.98    6.63
  -7   0  18   23.82    5.49
   7   0 -18   32.77    6.50
   7   0 -18   33.34    7.81
  -7   0  17    3.87    3.84
  -7   0  17    1.57    1.08
   7   0 -17    4.57    3.29
   7   0 -17    6.10    4.05
  -7   0  16   16.54    5.26
  -7   0  16   12.96    4.06
   7   0 -16   24.89    5.82
   7   0 -16   16.92    6.29
  -7   0  15    6.89    4.04
  -7   0  15    5.98    2.05
   7   0 -15    3.28    3.62
   7   0 -15    7.75    3.64
  -7   0  14   63.67    7.01
  -7   0  14   71.37    9.65
   7   0 -14  109.39    8.20
   7   0 -14   58.39   14.03
  -7   0  13    5.78    3.45
  -7   0  13   -0.25    1.85
   7   0 -13    0.62    1.92
   7   0 -13   -2.08    4.07
  -7   0  12    9.58    5.14
  -7   0  12    2.49    2.53
   7   0 -12    7.47    2.78
   7   0 -12    3.30    1.86
  -7   0  11    2.06    3.44
  -7   0  11    7.92    2.96
   7   0 -11    2.11    1.92
   7   0 -11    6.80    4.23
  -7   0  10  147.24   16.54
  -7   0  10  109.33    9.10
   7   0 -10  132.34   17.29
   7   0 -10  154.33   21.67
  -7   0   9    7.89    4.16
  -7   0   9    1.22    1.73
   7   0  -9    5.92    3.23
   7   0  -9   10.76    4.76
  -7   0   8   89.71    9.00
  -7   0   8   75.05    6.03
   7   0  -8   76.86    8.69
   7   0  -8   67.21   10.48
  -7   0   7    7.40    5.57
  -7   0   7   10.65    3.18
   7   0  -7    0.33    1.40
  -7   0   7    0.45    1.13
   7   0  -7    6.43    2.26
  -7   0   6    2.04    3.65
  -7   0   6    2.21    1.27
   7   0  -6   -0.64    1.54
   7   0  -6    1.75    1.28
  -7   0   6    0.19    0.96
   7   0  -6    9.54    2.96
  -7   0   5    1.75    3.48
  -7   0   5    5.93    2.85
   7   0  -5    6.02    2.78
   7   0  -5   -0.01    1.21
  -7   0   5    1.89    0.60
   7   0  -5   -0.41    3.43
  -7   0   4   27.95    6.59
  -7   0   4   26.11    4.46
   7   0  -4   24.50    4.33
  -7   0   4   14.51    3.54
   7   0  -4   34.41    6.77
  -7   0   3    6.26    3.77
  -7   0   3    2.25    1.40
   7   0  -3   -0.93    1.17
  -7   0   3    0.08    1.07
  -7   0   2    4.20    3.53
  -7   0   2    5.96    2.43
   7   0  -2    3.30    1.25
  -7   0   2    0.63    0.87
  -7   0   1    5.23    3.62
  -7   0   1    2.24    1.70
   7   0  -1    1.98    1.11
  -7   0   1    3.67    1.96
  -7   0   0    8.10    3.91
  -7   0   0   21.26    4.03
   7   0   0   17.04    4.46
  -7   0   0   14.85    4.13
  -7   0  -1    4.77    3.31
  -7   0  -1   -0.28    1.75
   7   0   1    5.50    1.48
  -7   0  -1   -0.17    1.15
  -7   0  -2   62.39    7.48
  -7   0  -2   58.84   12.28
   7   0   2   44.59    8.51
  -7   0  -2   33.01    5.10
  -7   0  -3   11.44    4.81
  -7   0  -3    2.79    1.11
   7   0   3    3.53    1.68
  -7   0  -4   23.78    8.95
  -7   0  -4   26.65    5.44
   7   0   4   25.10    5.45
  -7   0  -5    2.37    2.96
  -7   0  -5   -1.10    1.68
   7   0   5   -0.04    1.42
  -7   0  -6    5.79    3.06
  -7   0  -6    4.77    2.54
   7   0   6    6.36    2.75
  -7   0  -7    4.68    3.93
  -7   0  -7    1.75    1.90
  -7   0  -8    8.70    2.99
  -7   0  -8   10.40    3.95
  -7   0  -8   18.93    4.03
  -7   0  -9   -3.08    2.43
  -7   0  -9    5.88    3.75
  -7   0  -9    5.09    2.74
  -7   0 -10    2.42    2.27
  -7   0 -10    9.20    5.08
  -7   0 -10    6.19    2.52
  -7   0 -11    4.74    3.03
  -7   0 -11    3.17    2.29
  -7   0 -11    8.59    3.56
  -7   0 -12    6.95    3.47
  -7   0 -12    4.52    2.05
  -7   0 -13    1.42    2.01
  -7   0 -13    4.33    3.26
  -7   0 -14    4.50    2.84
  -7   0 -14    6.41    3.69
  -7   0 -15    2.96    2.47
  -7   0 -15    4.58    2.59
  -7   0 -16    3.64    2.17
  -7   0 -16    4.29    2.53
  -7   0 -17    0.83    2.98
  -7   0 -19    3.89    3.12
  -7   0 -20    8.54    3.76
  -7   0 -21    1.18    2.94
  -7   0 -22    8.85    5.24
  -7   1  29   20.82    8.22
  -7  -1  29   -0.59    3.16
   7  -1 -29    3.75    3.68
   7   1 -29    8.89    6.81
  -7   1  28    7.27    5.55
  -7  -1  28    2.34    3.47
  -7   1  28    7.22    3.44
  -7  -1  28    4.77    3.20
   7  -1 -28    8.23    6.66
   7   1 -28    5.73    3.88
   7  -1 -28   19.55    6.65
   7   1 -28    5.41    2.81
  -7   1  27    4.76    3.79
  -7  -1  27    9.94    4.44
  -7   1  27    4.20    2.13
  -7  -1  27    2.88    2.79
   7  -1 -27    1.81    3.85
   7   1 -27    4.68    4.72
   7  -1 -27    8.59    3.85
   7   1 -27    4.90    4.65
  -7   1  26    6.03    3.83
  -7  -1  26   23.20    7.50
  -7   1  26    9.69    3.66
  -7  -1  26    8.43    2.97
   7  -1 -26    2.49    2.88
   7  -1 -26    8.39    4.13
   7   1 -26    3.40    2.10
  -7   1  25   12.12    5.10
  -7  -1  25    0.71    3.62
  -7   1  25    3.77    2.37
  -7  -1  25    7.35    2.43
   7  -1 -25    5.12    4.93
   7   1 -25    5.19    3.74
   7  -1 -25   10.73    5.39
   7   1 -25   12.59    5.43
  -7   1  24    0.90    3.46
  -7  -1  24    1.68    1.86
  -7   1  24    6.66    2.30
  -7  -1  24   12.30    4.77
   7  -1 -24    8.03    3.69
   7   1 -24    7.79    3.53
   7  -1 -24    7.69    4.10
   7   1 -24    6.72    6.73
  -7   1  23    2.86    3.67
  -7  -1  23   -0.05    3.61
  -7   1  23   -0.55    2.44
  -7  -1  23    8.25    3.68
   7  -1 -23   21.03    6.39
   7   1 -23    6.79    4.54
   7  -1 -23   21.26    5.97
   7   1 -23    8.84    3.38
  -7   1  22   10.02    5.96
  -7  -1  22    4.88    4.75
  -7   1  22    4.12    1.75
  -7  -1  22    5.69    2.82
   7  -1 -22    9.49    5.51
   7   1 -22    5.25    2.32
   7  -1 -22   11.39    4.02
   7   1 -22    5.14    3.39
  -7   1  21   10.99    4.69
  -7  -1  21   10.80    6.16
  -7   1  21    9.72    3.69
  -7  -1  21   20.21    4.67
   7  -1 -21   16.70    5.42
   7   1 -21    7.70    4.33
   7  -1 -21    7.99    4.11
   7   1 -21   -1.89    3.78
  -7   1  20    1.79    3.03
  -7  -1  20    8.39    4.54
  -7   1  20    1.14    1.90
  -7  -1  20   22.08    5.78
   7  -1 -20    5.41    3.60
   7   1 -20    1.59    2.59
   7  -1 -20    7.78    3.75
   7   1 -20    7.92    3.28
  -7   1  19   24.33    8.41
  -7  -1  19    2.74    3.64
  -7   1  19    5.91    2.55
  -7  -1  19   -1.15    2.72
   7  -1 -19    6.57    4.41
   7   1 -19   -0.34    2.53
   7  -1 -19    5.71    2.45
   7   1 -19    7.73    5.32
  -7   1  18    2.66    4.30
  -7  -1  18    3.40    3.54
  -7   1  18    5.31    1.54
  -7  -1  18    1.86    1.80
   7  -1 -18    7.82    3.35
   7   1 -18    7.07    3.33
   7  -1 -18   10.96    6.75
   7   1 -18    7.22    3.27
  -7   1  17    5.69    3.60
  -7  -1  17    8.56    3.84
  -7  -1  17   -1.56    2.44
   7  -1 -17    0.84    3.29
   7   1 -17    6.88    3.59
   7  -1 -17    5.99    3.76
   7   1 -17   10.98    4.60
  -7   1  16   15.86    6.07
  -7  -1  16   23.42    6.22
  -7   1  16    8.04    3.40
  -7  -1  16   14.66    4.14
   7  -1 -16    8.56    3.19
   7   1 -16   15.09    4.98
   7  -1 -16   30.57    7.31
   7   1 -16   33.49    7.96
  -7   1  15    5.15    3.37
  -7  -1  15    0.95    3.67
  -7   1  15    3.10    1.84
  -7  -1  15    4.09    2.65
   7  -1 -15    4.93    2.90
   7   1 -15    6.99    3.28
   7  -1 -15    3.65    1.96
   7   1 -15    9.58    5.08
  -7  -1  14    6.87    3.64
  -7   1  14   11.76    3.00
  -7  -1  14    6.59    3.27
   7  -1 -14   -0.97    2.62
   7   1 -14    2.51    2.09
   7  -1 -14   15.45    5.04
   7   1 -14    3.35    2.62
  -7   1  13   19.57    5.35
  -7  -1  13   25.79    6.27
  -7   1  13   23.20    5.46
  -7  -1  13   22.31    4.66
   7  -1 -13   24.75    5.98
   7   1 -13   27.53    5.53
   7  -1 -13   26.34    6.33
   7   1 -13   27.64    6.16
  -7   1  12    7.03    5.14
  -7  -1  12    9.91    4.91
  -7   1  12   15.22    4.27
  -7  -1  12    3.50    2.44
   7  -1 -12    2.76    3.37
   7   1 -12    5.19    2.36
   7  -1 -12    4.93    2.76
   7   1 -12   13.94    5.60
  -7   1  11   14.19    6.22
  -7   1  11   17.01    4.49
  -7  -1  11   13.94    4.13
   7  -1 -11   15.67    5.64
   7   1 -11   20.00    4.52
   7  -1 -11   13.20    4.74
   7   1 -11   21.80    5.31
  -7   1  10    4.35    4.06
  -7  -1  10    8.86    3.87
  -7   1  10    4.26    1.72
  -7  -1  10    6.90    2.96
   7  -1 -10    6.66    2.79
   7   1 -10   11.19    3.90
  -7  -1  10    7.59    1.97
   7  -1 -10   12.03    5.69
   7   1 -10    8.12    3.02
  -7   1   9   26.45    7.60
  -7  -1   9   36.59    8.33
  -7   1   9   15.28    4.26
  -7  -1   9   18.51    5.57
   7  -1  -9   19.83    4.23
   7   1  -9   21.67    4.63
   7  -1  -9   18.60    4.38
  -7  -1   9   18.03    4.22
   7  -1  -9   39.58   10.47
   7   1  -9   18.86    4.62
  -7   1   8   43.13    8.87
  -7  -1   8   22.57    5.66
  -7   1   8   23.01    5.61
  -7  -1   8   33.61    6.09
   7  -1  -8   10.79    3.10
   7   1  -8   25.83    5.02
   7  -1  -8   25.88    5.08
  -7  -1   8   13.20    3.54
   7  -1  -8   17.47    5.87
  -7   1   7   80.77    8.16
  -7  -1   7   68.82    7.61
  -7   1   7   82.73    9.87
  -7  -1   7   87.20    7.24
   7  -1  -7   53.52    7.66
   7   1  -7   80.11    5.95
   7  -1  -7   75.81    6.69
  -7  -1   7   46.60    9.63
   7   1  -7   93.93   12.49
  -7   1   6    9.68    4.47
  -7  -1   6    5.47    3.97
  -7   1   6    8.29    2.57
  -7  -1   6   10.00    3.85
   7  -1  -6    3.68    1.46
   7   1  -6    7.92    2.42
   7  -1  -6    4.85    2.58
  -7  -1   6    0.57    0.52
   7   1  -6    7.49    2.78
  -7   1   5   10.24    4.37
  -7  -1   5    6.08    3.78
  -7   1   5    5.61    2.05
  -7  -1   5    7.26    2.84
   7   1  -5    3.53    1.25
   7  -1  -5    0.28    1.97
  -7  -1   5    4.42    1.55
   7   1  -5   10.69    3.54
  -7   1   4   34.52    6.92
  -7  -1   4   14.94    5.36
  -7   1   4   34.14    5.24
  -7  -1   4   20.35    5.13
   7   1  -4   23.50    4.27
   7  -1  -4   18.72    4.83
  -7  -1   4   18.16    4.82
   7   1  -4   31.61    9.00
  -7   1   3   19.96    6.08
  -7  -1   3   36.63    7.41
  -7   1   3   31.30    4.91
  -7  -1   3   19.82    5.10
   7   1  -3   21.17    4.66
   7  -1  -3   35.19    6.32
  -7  -1   3   14.68    3.41
   7   1  -3   41.31    9.38
  -7   1   2  115.08    9.96
  -7  -1   2  110.91    9.91
  -7   1   2  120.70    8.04
  -7  -1   2  113.82    8.67
   7   1  -2  102.82   11.28
   7  -1  -2  123.46   16.52
  -7  -1   2   83.56    8.58
   7   1  -2  100.35   15.26
  -7   1   1   16.55    5.44
  -7  -1   1    6.47    2.62
  -7   1   1   20.08    4.74
  -7  -1   1   19.92    5.25
   7   1  -1   12.89    3.51
   7  -1  -1   13.53    3.43
  -7  -1   1   16.59    3.73
   7   1  -1   20.87    4.96
  -7   1   0    8.25    5.01
  -7  -1   0   11.44    4.55
  -7   1   0    8.65    2.51
  -7  -1   0   17.64    5.03
   7   1   0    3.81    1.35
   7  -1   0    2.82    1.58
  -7  -1   0    2.58    1.21
  -7   1  -1   17.28    5.25
  -7  -1  -1   18.43    6.33
  -7   1  -1   15.54    3.76
  -7  -1  -1   32.46    6.00
   7   1   1   11.86    3.54
   7  -1   1   18.68    5.59
  -7  -1  -1   10.94    3.28
  -7   1  -2    9.11    4.25
  -7  -1  -2   10.57    4.42
  -7   1  -2    4.16    1.46
  -7   1  -2    3.30    1.52
  -7  -1  -2   10.43    4.20
   7  -1   2    6.90    2.53
  -7  -1  -2    3.47    1.48
  -7   1  -3   18.23    5.70
  -7  -1  -3    6.60    3.87
  -7   1  -3    9.95    2.79
  -7   1  -3   13.11    3.69
  -7  -1  -3    8.92    3.02
   7  -1   3   13.33    3.97
  -7  -1  -3    8.70    2.52
  -7  -1  -3   10.00    2.78
  -7   1  -4    9.21    4.01
  -7  -1  -4   20.78    6.17
  -7   1  -4   15.53    3.98
  -7   1  -4   17.96    4.65
  -7  -1  -4   25.90    5.74
   7  -1   4   20.23    4.49
  -7  -1  -4   15.09    4.40
  -7   1  -5    5.37    2.85
  -7  -1  -5   -1.45    3.12
  -7  -1  -5   10.54    4.20
  -7   1  -5    1.11    0.89
   7  -1   5    4.71    2.28
  -7  -1  -5    2.62    1.88
  -7   1  -6    3.52    2.59
  -7  -1  -6    8.13    3.14
  -7   1  -6    8.02    2.33
   7  -1   6   10.80    4.51
  -7  -1  -6   10.60    2.92
  -7   1  -7    3.45    2.45
  -7  -1  -7   -0.30    1.80
  -7   1  -7    2.67    1.80
   7  -1   7    4.86    2.76
  -7  -1  -7    8.45    2.70
  -7   1  -8    4.27    2.50
  -7  -1  -8    4.64    3.39
  -7   1  -8    1.48    1.40
   7  -1   8    6.60    2.74
  -7  -1  -8    5.64    2.10
  -7   1  -9    3.91    1.96
  -7  -1  -9    3.41    2.39
  -7   1  -9    0.53    1.08
   7  -1   9    5.51    2.19
  -7  -1  -9    0.71    1.70
  -7   1 -10    1.70    2.06
  -7   1 -10    4.24    1.76
   7  -1  10    4.96    1.47
  -7  -1 -10    2.99    1.76
  -7   1 -11    0.47    2.15
  -7  -1 -11    8.53    3.75
  -7  -1 -11    7.81    2.84
  -7   1 -11    6.97    2.37
  -7   1 -12    5.51    3.13
  -7  -1 -12    7.01    3.10
  -7  -1 -12   13.55    4.39
  -7   1 -12   13.55    4.67
  -7   1 -13    7.77    2.83
  -7  -1 -13   22.63    5.65
  -7  -1 -13   11.33    3.69
  -7   1 -13   12.24    3.70
  -7   1 -14   19.69    5.96
  -7  -1 -14   16.47    5.68
  -7   1 -14    5.44    3.07
  -7   1 -15    3.39    2.28
  -7  -1 -15    5.33    3.78
  -7   1 -15   13.02    4.86
  -7  -1 -16   16.82    4.69
  -7   1 -16   -0.29    2.99
  -7   1 -16    5.84    3.11
  -7  -1 -17    2.99    2.73
  -7   1 -17    7.98    4.12
  -7   1 -17   -0.26    2.54
  -7  -1 -18   10.73    4.99
  -7   1 -18   20.01    6.63
  -7  -1 -19   14.01    5.82
  -7   1 -19   14.51    6.07
  -7  -1 -20   10.71    5.38
  -7   1 -20    4.06    3.65
  -7  -1 -21   10.53    4.93
  -7   1 -21    9.90    5.22
  -7  -1 -22   -1.62    2.03
  -7   1 -22    6.25    3.63
  -7   2  28    3.39    3.86
  -7  -2  28    0.96    3.10
  -7   2  28    5.58    2.24
  -7  -2  28    3.73    4.32
   7  -2 -28    5.44    6.04
   7   2 -28    4.10    3.54
   7  -2 -28   14.36    6.45
   7   2 -28   -1.15    3.53
  -7   2  27    7.79    4.21
  -7  -2  27    4.22    3.68
  -7   2  27   -1.25    2.67
  -7  -2  27   12.16    5.72
   7  -2 -27    8.70    6.28
   7   2 -27    6.94    3.92
   7  -2 -27    8.35    2.88
   7   2 -27   13.16    4.99
  -7   2  26    2.52    3.57
  -7  -2  26    3.20    3.40
  -7   2  26   12.27    4.81
  -7  -2  26    5.17    3.92
   7  -2 -26    2.78    3.79
   7   2 -26   -2.96    3.22
   7  -2 -26    3.10    1.70
   7   2 -26    5.73    3.72
  -7   2  25    9.08    4.49
  -7  -2  25    8.80    3.84
  -7   2  25    4.40    2.74
  -7  -2  25    7.93    3.60
   7   2 -25   -3.03    2.93
   7  -2 -25    9.47    4.16
   7   2 -25   14.35    6.01
  -7   2  24    4.62    4.07
  -7  -2  24   13.61    5.94
  -7   2  24    7.86    2.59
  -7  -2  24    5.36    2.76
   7  -2 -24    0.63    4.05
   7   2 -24    5.25    3.03
   7  -2 -24    9.60    5.73
   7   2 -24   10.88    4.16
  -7   2  23   10.86    7.03
  -7  -2  23    7.52    4.71
  -7   2  23    8.76    3.47
  -7  -2  23    1.14    2.44
   7  -2 -23    7.34    5.35
   7   2 -23    1.16    2.82
   7  -2 -23   11.53    4.92
   7   2 -23   -2.14    4.40
  -7   2  22   11.22    4.83
  -7  -2  22    1.41    3.64
  -7   2  22    7.95    2.81
  -7  -2  22    1.76    2.79
   7  -2 -22    0.76    3.68
   7   2 -22    7.52    4.28
   7  -2 -22    6.59    4.33
   7   2 -22    2.50    2.43
  -7   2  21   10.85    4.66
  -7  -2  21   -0.45    3.29
  -7   2  21    1.79    2.16
  -7  -2  21    7.54    2.73
   7  -2 -21    5.27    4.78
   7   2 -21    0.00    2.57
   7  -2 -21    4.35    2.28
   7   2 -21    6.06    3.79
  -7   2  20    6.62    4.73
  -7  -2  20    7.87    3.93
  -7   2  20    6.02    2.71
  -7  -2  20    4.05    2.42
   7  -2 -20   12.43    5.55
   7   2 -20    2.24    3.43
   7  -2 -20   12.84    4.91
   7   2 -20    6.39    4.52
  -7   2  19   11.94    7.37
  -7  -2  19   13.64    5.51
  -7   2  19    6.24    3.28
  -7  -2  19    6.55    5.50
   7  -2 -19   20.22    6.71
   7   2 -19    1.93    3.30
   7  -2 -19    4.55    1.82
   7   2 -19   18.63    7.08
  -7   2  18    4.30    4.39
  -7  -2  18   11.36    4.28
  -7   2  18    4.01    2.07
  -7  -2  18    6.69    2.74
   7  -2 -18   14.02    6.16
   7   2 -18    7.28    3.19
   7  -2 -18   -0.03    4.00
   7   2 -18    5.31    2.45
  -7   2  17   31.17    6.52
  -7  -2  17   21.87    6.53
  -7   2  17    5.41    2.13
  -7  -2  17   12.92    4.81
   7  -2 -17   14.14    4.99
   7   2 -17   22.50    5.98
   7  -2 -17   15.88    6.21
   7   2 -17   11.18    5.50
  -7   2  16    7.20    3.70
  -7   2  16    3.73    1.17
  -7  -2  16    5.47    3.12
   7  -2 -16    7.71    4.34
   7   2 -16    2.49    1.52
   7  -2 -16   -6.22    3.50
   7   2 -16   11.04    4.52
  -7   2  15    8.16    3.77
  -7  -2  15    1.45    3.41
  -7   2  15    1.99    1.42
  -7  -2  15    7.85    3.13
   7  -2 -15   -1.34    3.18
   7   2 -15    2.34    1.78
   7  -2 -15   12.43    5.47
   7   2 -15    4.54    4.90
  -7   2  14    3.62    3.93
  -7  -2  14    7.54    4.00
  -7   2  14    4.01    2.54
  -7  -2  14   11.64    4.55
   7  -2 -14   10.68    5.15
   7   2 -14    5.06    1.65
   7  -2 -14    4.59    3.79
   7   2 -14   11.28    5.13
  -7   2  13   15.85    6.54
  -7  -2  13   23.94    5.70
  -7   2  13   18.30    4.97
  -7  -2  13   15.10    5.14
   7  -2 -13   32.71    6.95
   7   2 -13   27.12    5.07
   7   2 -13   15.33    5.26
  -7   2  12   13.82    6.71
  -7  -2  12    9.35    4.68
  -7   2  12    0.58    0.68
  -7  -2  12   10.70    3.93
   7  -2 -12    6.93    2.88
   7   2 -12    1.47    1.16
   7   2 -12    1.89    4.36
  -7   2  11    4.33    4.12
  -7  -2  11    1.73    3.35
  -7   2  11    2.05    0.83
  -7  -2  11   -3.28    2.26
   7  -2 -11    6.81    3.05
   7   2 -11    1.11    0.96
   7   2 -11    9.89    3.99
  -7   2  10   11.31    4.56
  -7  -2  10    5.97    4.66
  -7  -2  10    1.52    2.31
   7  -2 -10   -0.81    2.22
   7   2 -10    1.45    1.34
  -7   2   9    5.65    3.97
  -7  -2   9   -3.67    2.96
  -7   2   9    2.49    1.18
  -7  -2   9    5.33    3.04
   7  -2  -9    2.44    1.39
   7   2  -9    1.06    1.12
   7  -2  -9   21.17    6.07
   7   2  -9    8.20    3.28
  -7   2   8    4.53    4.03
  -7  -2   8    9.26    5.01
  -7   2   8   15.07    3.50
  -7  -2   8    1.84    2.15
   7   2  -8    4.88    1.54
   7  -2  -8    2.43    2.34
   7   2  -8    2.72    3.22
  -7   2   7    7.16    5.80
  -7  -2   7    4.12    3.24
  -7   2   7    4.52    1.28
  -7  -2   7    8.59    3.16
   7   2  -7    4.24    1.06
   7  -2  -7    2.91    2.39
   7   2  -7   19.66    8.73
  -7   2   6    2.85    4.13
  -7  -2   6    5.37    4.86
  -7   2   6   -0.09    0.51
  -7  -2   6   11.12    4.05
   7   2  -6    1.81    0.50
   7  -2  -6   -0.59    2.15
   7   2  -6   12.15    3.85
  -7   2   5    7.08    3.78
  -7  -2   5    7.29    2.72
  -7   2   5    5.51    1.48
  -7  -2   5    0.46    1.77
   7  -2  -5   12.76    4.48
   7   2  -5   10.29    7.25
  -7   2   4    8.62    4.48
  -7  -2   4   10.56    5.37
  -7   2   4    2.69    0.69
  -7  -2   4    2.61    1.94
   7  -2  -4   10.13    4.29
   7   2  -4    8.34    3.57
  -7   2   3    8.01    4.50
  -7  -2   3   13.30    5.75
  -7  -2   3    3.90    2.07
   7  -2  -3    4.47    2.75
   7   2  -3    2.04    1.80
  -7   2   2   17.81    6.87
  -7  -2   2   11.02    4.27
  -7  -2   2   11.57    4.08
   7  -2  -2   19.89    5.39
   7   2  -2   12.79    4.25
  -7   2   1    5.65    3.70
  -7  -2   1    5.59    3.99
  -7   2   1    2.52    0.68
  -7  -2   1    8.55    3.21
   7  -2  -1    8.27    3.10
   7   2  -1    9.01    2.97
  -7   2   0    2.93    3.07
  -7   2   0    3.89    1.06
  -7   2   0    2.29    0.78
  -7  -2   0    1.27    2.35
   7  -2   0    4.02    1.81
   7   2   0    6.44    3.87
  -7   2  -1    2.97    3.03
  -7   2  -1    0.82    0.58
  -7   2  -1    4.25    1.27
  -7  -2  -1   -0.09    2.12
   7  -2   1    0.93    0.73
  -7  -2  -1    0.21    0.25
  -7  -2  -1    0.56    0.36
   7   2   1    3.50    2.30
  -7   2  -2   12.62    5.44
  -7   2  -2    0.93    0.61
  -7   2  -2    2.92    1.26
  -7  -2  -2   11.53    4.31
   7  -2   2    7.73    2.49
  -7  -2  -2    2.43    1.04
  -7  -2  -2    2.96    1.08
   7   2   2    8.51    4.64
  -7   2  -3   45.44    8.56
  -7   2  -3   36.85    6.33
  -7  -2  -3   44.55   11.71
   7  -2   3   31.47    8.39
  -7  -2  -3   32.79    7.42
  -7   2  -4   22.34    5.07
  -7   2  -4   12.62    3.03
  -7  -2  -4   10.30    3.17
   7  -2   4   20.38    5.67
  -7  -2  -4   10.12    2.62
  -7   2  -5   12.05    4.64
  -7  -2  -5   12.21    4.10
  -7   2  -5    1.36    1.26
   7  -2   5    4.92    3.02
  -7  -2  -5    6.73    2.02
  -7   2  -6   12.71    4.18
  -7  -2  -6    8.63    2.39
  -7   2  -6    2.17    0.85
   7  -2   6    8.38    2.94
  -7  -2  -6    0.38    0.81
   7   2   7   15.54    6.51
  -7   2  -7   26.89    5.05
  -7  -2  -7   37.59    7.43
  -7   2  -7   20.12    3.79
   7  -2   7   18.57    4.28
  -7  -2  -7   21.23    4.04
   7   2   8    9.52    3.08
  -7   2  -8    6.86    3.23
  -7  -2  -8    9.15    4.16
  -7   2  -8    5.26    2.18
   7  -2   8    4.53    1.96
  -7  -2  -8    7.42    2.73
   7   2   9   20.88    5.90
  -7   2  -9   32.51    6.12
  -7  -2  -9   26.49    5.85
  -7   2  -9   13.26    4.24
   7  -2   9   24.06    5.36
  -7  -2  -9   16.79    5.27
   7   2  10    8.88    2.36
  -7   2 -10    1.75    1.87
  -7  -2 -10    7.82    4.09
   7  -2  10   26.78    9.68
  -7  -2 -10    7.88    1.86
   7   2  11    6.90    1.71
  -7   2 -11    4.75    2.10
  -7  -2 -11   22.29    7.59
   7  -2  11    8.50    2.57
  -7  -2 -11    4.43    2.13
   7   2  12    4.35    1.61
  -7   2 -12    3.30    1.89
  -7  -2 -12    8.62    3.65
   7  -2  12   -0.72    2.40
  -7  -2 -12   -0.08    1.79
   7   2  13    8.38    2.24
  -7   2 -13   11.01    3.73
  -7  -2 -13   10.54    5.18
   7  -2  13    9.86    4.08
  -7  -2 -13    6.15    1.57
   7   2  14    9.50    5.55
  -7   2 -14   -1.16    1.25
  -7  -2 -14    4.85    3.15
  -7  -2 -14    7.91    3.32
  -7   2 -14    0.90    2.68
   7   2  15    9.49    4.18
  -7  -2 -15    8.15    4.98
  -7  -2 -15    5.11    2.40
  -7   2 -15    9.24    4.92
   7   2  16   -2.28    2.59
  -7  -2 -16   19.30    7.78
  -7  -2 -16    3.90    2.36
  -7   2 -16   11.38    5.44
  -7   2 -16    7.15    3.83
   7   2  17   12.03    4.59
  -7  -2 -17    2.46    2.18
  -7   2 -17    6.58    3.34
  -7   2 -17   -0.46    3.62
   7   2  18    4.24    2.30
  -7  -2 -18    5.29    2.37
  -7   2 -18    9.50    5.29
  -7   2 -18   10.80    6.60
   7   2  19    2.18    1.38
  -7  -2 -19    9.18    3.89
  -7   2 -19    2.54    1.95
  -7   2 -19    0.73    2.93
  -7  -2 -20    0.21    1.88
  -7   2 -20   12.33    5.68
  -7  -2 -21    2.29    2.83
  -7   2 -21    2.83    3.82
  -7   2 -22    6.69    4.10
  -7   3  27    3.60    4.34
  -7  -3  27   -0.58    3.14
  -7  -3  27   13.53    5.22
   7  -3 -27    3.31    4.23
   7   3 -27    1.78    2.95
   7   3 -27    4.55    2.30
  -7   3  26    5.64    4.26
  -7  -3  26   18.98    7.20
  -7  -3  26   16.30    8.55
   7  -3 -26   11.70    6.71
   7   3 -26    4.85    4.51
   7   3 -26    5.64    2.83
  -7   3  25   16.91    6.97
  -7  -3  25    5.03    3.68
  -7  -3  25   18.16    6.28
   7  -3 -25    9.41    6.07
   7   3 -25    4.85    4.38
   7   3 -25   11.95    5.24
  -7   3  24    0.07    3.66
  -7  -3  24    3.66    3.36
  -7  -3  24    2.26    3.95
   7  -3 -24    4.20    4.16
   7   3 -24    7.80    3.84
   7   3 -24    8.05    4.36
  -7   3  23   11.63    6.60
  -7  -3  23    8.09    3.80
  -7  -3  23    6.57    2.72
   7  -3 -23   -0.33    3.82
   7   3 -23   23.31    5.41
   7   3 -23    4.14    2.92
  -7   3  22    8.84    3.99
  -7  -3  22    3.49    3.18
  -7   3  22    1.14    1.10
  -7  -3  22    0.01    5.39
   7  -3 -22   12.02    6.49
   7   3 -22    9.25    4.18
   7   3 -22   -0.62    4.10
  -7   3  21    7.73    4.70
  -7  -3  21    7.16    4.31
  -7   3  21    4.69    1.46
  -7  -3  21    1.41    1.72
   7  -3 -21    4.33    4.46
   7   3 -21    6.20    2.82
   7   3 -21    8.80    4.06
  -7   3  20   16.21    5.22
  -7  -3  20    4.73    3.22
  -7   3  20    2.37    1.21
  -7  -3  20   -0.45    3.08
   7  -3 -20    2.97    3.98
   7   3 -20   11.50    3.74
  -7   3  19    4.27    4.53
  -7  -3  19   -0.97    3.23
  -7   3  19    2.54    1.43
  -7  -3  19    8.35    3.76
   7  -3 -19   -0.19    3.37
   7   3 -19    7.26    3.44
   7   3 -19    3.96    3.36
  -7   3  18   -1.98    4.23
  -7  -3  18   21.32    6.85
  -7   3  18    8.54    2.51
  -7  -3  18    6.52    4.83
   7  -3 -18   17.56    6.40
   7   3 -18    4.79    2.81
   7   3 -18    6.72    3.23
  -7  -3  17   14.66    5.66
  -7   3  17   17.64    4.97
  -7  -3  17    7.58    3.76
   7  -3 -17    3.82    3.64
   7   3 -17   13.57    4.41
   7   3 -17   19.61    8.69
  -7   3  16    3.96    4.32
  -7  -3  16    9.06    5.11
  -7   3  16   -0.50    1.30
  -7  -3  16    0.17    3.09
   7  -3 -16    5.85    4.70
   7   3 -16    3.03    1.60
   7   3 -16    8.76    2.65
  -7   3  15   13.78    7.10
  -7  -3  15   15.42    5.93
  -7   3  15   12.30    3.45
  -7  -3  15    5.80    3.32
   7  -3 -15    7.94    3.38
   7   3 -15   10.21    3.04
   7   3 -15   12.39    4.73
  -7   3  14    9.27    6.55
  -7  -3  14   10.48    4.26
  -7   3  14    3.26    1.43
  -7  -3  14    9.41    3.86
   7  -3 -14    7.92    3.37
   7   3 -14    0.92    1.41
   7   3 -14    5.31    2.93
  -7   3  13    9.33    4.85
  -7  -3  13    7.59    3.92
  -7  -3  13   14.47    5.53
   7  -3 -13   12.55    5.17
   7   3 -13    6.61    2.45
   7   3 -13   17.31    5.78
  -7   3  12    1.62    4.00
  -7  -3  12    9.35    3.90
  -7  -3  12    5.38    3.32
   7  -3 -12    6.36    2.60
   7   3 -12    0.64    1.16
   7   3 -12    6.65    2.68
  -7   3  11   43.49    8.96
  -7  -3  11   46.17    5.92
  -7  -3  11   52.53    7.10
   7  -3 -11   39.94    8.39
   7   3 -11   44.02    6.51
   7   3 -11   30.22    6.93
  -7   3  10    9.39    5.43
  -7  -3  10    3.84    5.15
  -7  -3  10    0.41    3.11
   7  -3 -10    6.27    3.43
   7   3 -10    5.16    1.44
   7   3 -10    8.60    4.84
  -7   3   9    8.36    4.11
  -7  -3   9    6.69    4.85
  -7  -3   9    8.18    3.74
   7  -3  -9    5.05    3.01
   7   3  -9   21.87    5.85
  -7   3   8   45.59    6.63
  -7  -3   8   40.49    7.47
   7  -3  -8   40.39    7.53
   7   3  -8   55.64   10.38
  -7   3   7   13.36    4.72
  -7  -3   7   23.34    6.91
  -7  -3   7   24.16    5.87
   7  -3  -7   30.24    7.05
   7   3  -7    8.92    3.37
  -7   3   6   -0.27    3.63
  -7  -3   6   11.94    5.85
  -7  -3   6    4.02    2.70
   7  -3  -6   19.24    5.09
   7   3  -6   14.89    6.16
  -7   3   5    7.76    3.99
  -7  -3   5   15.16    6.23
  -7  -3   5   22.62    5.01
   7  -3  -5   24.96    5.92
   7   3  -5   16.99    4.48
  -7   3   4   29.04    7.08
  -7  -3   4   21.99    6.50
  -7  -3   4   24.54    5.56
   7  -3  -4   29.96    7.07
   7   3  -4   34.55    7.51
  -7   3   3   15.28    5.91
  -7  -3   3    9.60    3.73
   7  -3  -3    9.71    4.26
   7   3  -3   13.94    4.35
  -7   3   2   15.09    5.67
  -7  -3   2   41.34    8.72
   7  -3  -2   40.05    9.97
   7   3  -2   27.06    5.67
  -7   3   1   16.17    6.21
  -7  -3   1    4.24    3.32
   7  -3  -1   14.11    4.55
   7   3  -1   10.26    4.08
  -7   3   0   29.40    7.13
  -7  -3   0   26.27    6.20
   7  -3   0   23.89    6.03
   7   3   0   22.75    5.53
  -7   3  -1   15.79    5.06
  -7  -3  -1   19.30    6.11
   7  -3   1   24.96    7.18
   7   3   1   16.95    5.48
   7   3   2   10.18    3.94
  -7   3  -2    3.92    2.91
  -7  -3  -2    8.76    4.25
   7  -3   2    5.33    3.20
   7   3   2    0.00    2.53
   7   3   3    7.08    2.82
  -7   3  -3    3.65    2.74
  -7  -3  -3    6.27    4.43
   7  -3   3    4.17    2.44
   7   3   3    5.50    2.50
   7   3   4   22.89    5.61
  -7   3  -4    2.35    2.41
  -7  -3  -4   27.91    5.31
   7  -3   4   29.32    8.26
   7   3   4    7.37    3.15
   7   3   5    7.25    2.51
  -7   3  -5   11.51    4.40
  -7  -3  -5    2.20    2.85
   7  -3   5    3.53    2.24
   7   3   6    2.62    2.89
  -7   3  -6    2.74    3.00
  -7  -3  -6   12.57    5.04
  -7   3  -6    3.47    1.69
   7  -3   6    7.93    2.58
  -7  -3  -6    2.58    0.95
   7   3   7   15.71    5.22
  -7   3  -7    8.60    2.45
  -7  -3  -7   14.97    5.52
  -7   3  -7   14.82    3.69
   7  -3   7    9.74    4.05
  -7  -3  -7   14.69    3.62
   7   3   8   10.40    2.83
  -7   3  -8    2.93    1.88
  -7  -3  -8    2.97    3.27
  -7   3  -8    3.14    1.45
   7  -3   8    5.40    3.23
  -7  -3  -8    3.18    1.35
   7   3   9   28.43    7.37
  -7   3  -9   23.78    6.09
  -7  -3  -9   20.95    6.28
   7  -3   9   31.02    7.08
  -7  -3  -9   28.99    4.75
   7   3  10    4.62    1.93
  -7   3 -10    9.97    3.57
  -7  -3 -10    7.92    4.62
   7  -3  10   -0.82    2.69
  -7  -3 -10    1.34    1.36
   7   3  11    5.41    2.82
  -7   3 -11    6.62    2.76
  -7  -3 -11    8.65    3.62
   7  -3  11    6.10    3.06
  -7  -3 -11    2.09    1.59
   7   3  12   16.18    6.61
  -7   3 -12   18.57    5.24
  -7  -3 -12   14.62    5.96
   7  -3  12   18.90    7.02
  -7  -3 -12    7.52    2.87
   7   3  13   20.23    4.92
  -7  -3 -13   37.34    8.07
   7  -3  13   22.89    5.76
   7   3  14    4.29    1.71
  -7  -3 -14   15.96    4.69
   7  -3  14   20.29    4.99
   7   3  15   23.62    6.27
  -7  -3 -15   11.97    6.39
   7  -3  15   24.62    7.08
  -7   3 -15    4.98    4.27
   7   3  16    1.69    1.46
  -7  -3 -16   -0.08    2.13
  -7   3 -16    5.26    3.90
  -7   3 -16   14.20    6.74
   7   3  17    5.29    2.50
  -7  -3 -17    7.12    5.47
  -7   3 -17   14.11    7.07
   7   3  18   10.90    3.84
  -7  -3 -18    8.94    4.39
  -7   3 -18   14.95    6.65
  -7   3 -18   14.18    6.63
   7   3  19   14.97    6.49
  -7  -3 -19   23.41    7.19
  -7   3 -19   32.57    9.67
  -7   3 -19   42.08   12.47
   7   3  20   12.86    7.06
  -7  -3 -20   16.43    7.01
  -7   3 -20   11.48    4.99
  -7   3 -20    3.25    3.80
  -7  -3 -21    2.28    3.86
  -7   3 -21   11.24    5.93
  -7   4  27    1.03    4.21
  -7  -4  27    2.16    3.36
  -7  -4  27   15.53    9.61
  -7   4  26    2.16    4.41
  -7  -4  26    1.62    3.33
  -7  -4  26   -3.32    3.88
   7  -4 -26   11.76    7.25
   7   4 -26    9.15    4.82
  -7   4  25    0.50    4.36
  -7  -4  25    9.75    5.52
  -7  -4  25    3.67    2.37
   7  -4 -25    6.13    4.71
   7   4 -25    7.02    2.91
  -7   4  24    5.09    4.41
  -7  -4  24   -2.95    3.06
  -7  -4  24   -0.74    3.66
   7  -4 -24    4.35    1.89
   7   4 -24    7.26    3.99
  -7   4  23    7.49    4.77
  -7  -4  23    5.95    4.74
  -7  -4  23    9.80    3.98
   7  -4 -23   17.44    7.52
   7   4 -23    9.40    4.41
  -7   4  22   14.44    6.52
  -7  -4  22    8.04    4.63
  -7  -4  22    6.35    4.37
   7  -4 -22    4.91    4.38
   7   4 -22   -1.13    5.01
  -7   4  21   10.65    5.25
  -7  -4  21    9.11    3.92
  -7  -4  21    1.74    3.90
   7  -4 -21    4.54    4.16
   7   4 -21    4.51    3.77
  -7   4  20   11.35    5.88
  -7  -4  20   22.33    5.93
  -7  -4  20   14.08    6.11
   7  -4 -20    3.36    4.21
   7   4 -20    7.96    4.50
  -7   4  19    7.97    5.03
  -7  -4  19    4.88    4.90
  -7  -4  19    7.98    4.01
   7  -4 -19    2.10    5.06
   7   4 -19   10.64    5.12
  -7   4  18   19.13    6.19
  -7  -4  18    8.32    4.00
  -7  -4  18   22.92    6.11
   7  -4 -18   24.02    6.45
   7   4 -18   10.71    4.40
  -7   4  17    4.83    4.18
  -7  -4  17    1.38    3.40
  -7  -4  17    0.12    3.05
   7  -4 -17   10.98    5.25
   7   4 -17    1.97    4.73
  -7   4  16   11.98    5.07
  -7  -4  16   12.18    5.99
  -7  -4  16   11.08    5.52
   7  -4 -16    2.28    3.18
   7   4 -16    5.23    2.44
  -7   4  15    8.79    6.15
  -7  -4  15    1.77    3.57
  -7  -4  15    1.69    2.38
   7  -4 -15    0.88    3.31
   7   4 -15    4.38    2.49
  -7   4  14   51.58    8.97
  -7  -4  14   46.13    8.52
  -7  -4  14   51.44    8.16
   7  -4 -14   30.73    6.24
   7   4 -14   56.73   10.43
  -7   4  13   10.38    5.04
  -7  -4  13    8.17    4.45
  -7  -4  13    0.90    3.42
   7  -4 -13   10.85    6.33
  -7   4  12   16.74    5.91
  -7  -4  12   20.04    6.22
  -7  -4  12   28.22    5.74
   7  -4 -12   24.79    7.92
   7   4 -12   26.09    7.78
  -7   4  11    4.70    4.65
  -7  -4  11    9.66    4.10
  -7  -4  11   -1.92    3.40
   7  -4 -11   12.68    4.97
   7   4 -11   15.07    5.54
  -7   4  10   18.98    6.24
  -7  -4  10   11.70    6.17
  -7  -4  10   16.16    6.03
   7  -4 -10   33.71    7.99
   7   4 -10   20.12    6.87
  -7   4   9    4.10    3.95
  -7  -4   9   17.14    7.14
  -7  -4   9    9.87    3.91
   7  -4  -9    5.64    3.25
   7   4  -9   20.47    5.57
  -7   4   8   57.84    7.08
  -7  -4   8   93.39    9.17
  -7  -4   8   66.96    7.50
   7  -4  -8   69.97   10.11
   7   4  -8   76.44   10.42
  -7   4   7   -0.23    3.64
  -7  -4   7   -1.61    3.20
  -7  -4   7   -2.92    3.75
   7  -4  -7    6.46    3.78
   7   4  -7    7.87    5.02
  -7   4   6   16.83    4.71
  -7  -4   6   16.03    5.74
   7  -4  -6   13.40    3.69
   7   4  -6    8.19    3.63
  -7   4   5   12.60    5.05
  -7  -4   5   12.54    5.69
   7  -4  -5    7.04    3.51
   7   4  -5    2.86    1.81
  -7   4   4    5.44    5.08
  -7  -4   4    3.35    3.39
   7  -4  -4    4.36    2.59
   7   4  -4    9.82    4.17
  -7   4   3   12.57    4.55
  -7  -4   3    2.46    3.43
   7  -4  -3    7.46    3.99
   7   4  -3   25.33    6.09
   7   4  -2    8.89    3.94
  -7   4   2    7.40    5.17
  -7  -4   2    0.56    3.48
   7  -4  -2    6.32    3.75
   7   4  -2    4.00    2.99
   7   4  -1   17.69    6.02
  -7   4   1    3.91    3.24
  -7  -4   1    0.24    3.78
   7  -4  -1    4.13    2.84
   7   4  -1   12.07    3.26
   7   4   0   12.00    4.60
  -7   4   0   13.58    4.54
  -7  -4   0   11.02    5.53
   7  -4   0    9.91    2.93
   7   4   0    3.00    3.35
   7   4   1    8.21    2.56
  -7   4  -1    0.54    2.71
  -7  -4  -1    3.72    3.13
   7  -4   1    4.82    1.87
   7   4   1   11.03    3.68
   7   4   2    8.69    2.79
  -7   4  -2    3.23    2.63
  -7  -4  -2    5.27    3.50
   7  -4   2   11.09    4.06
   7   4   2    8.03    2.93
   7   4   3   16.95    5.50
  -7   4  -3    6.42    2.79
  -7  -4  -3    8.15    4.84
   7  -4   3   10.86    3.32
   7   4   3   10.78    5.51
   7   4   4    5.94    3.21
  -7   4  -4    3.97    2.42
  -7  -4  -4    3.61    3.52
   7  -4   4   12.51    5.45
   7   4   4    5.82    2.54
   7   4   5    6.61    2.51
  -7   4  -5    4.31    2.35
  -7  -4  -5    8.88    3.82
   7  -4   5    6.20    2.99
   7   4   5    7.35    2.92
   7   4   6    4.42    2.00
  -7   4  -6    9.44    3.95
  -7  -4  -6    6.73    3.73
   7  -4   6    0.72    2.42
   7   4   7   10.20    4.19
  -7   4  -7    1.91    2.16
  -7  -4  -7   13.31    6.21
   7  -4   7    4.54    2.24
   7   4   8   18.32    5.33
  -7   4  -8   14.63    4.71
  -7  -4  -8   23.50    6.89
   7  -4   8    6.67    2.71
   7   4   9   30.70    6.21
  -7   4  -9   23.02    6.19
  -7  -4  -9   33.23    7.70
   7  -4   9   19.51    5.39
   7   4  10    8.08    3.11
  -7   4 -10    1.16    1.55
  -7  -4 -10    1.72    2.87
   7  -4  10    5.76    2.59
   7   4  11   15.88    6.37
  -7  -4 -11   30.79    7.73
   7  -4  11   20.66    5.19
   7   4  12   20.99    4.53
  -7  -4 -12    7.96    3.83
   7  -4  12   38.04    7.21
   7   4  13    7.03    3.51
  -7  -4 -13    7.60    4.17
   7  -4  13    1.04    3.15
   7   4  14   17.95    4.83
  -7  -4 -14   16.03    6.99
   7  -4  14    5.12    3.40
  -7   4 -14   15.08    7.23
   7   4  15   15.60    4.14
  -7  -4 -15   26.13    7.70
   7  -4  15   11.63    5.33
  -7   4 -15   34.41    8.84
   7   4  16    6.49    3.02
  -7  -4 -16   10.55    5.46
   7  -4  16   -2.76    3.29
  -7   4 -16   10.80    6.06
   7   4  17    4.86    2.07
  -7  -4 -17    9.53    6.02
   7  -4  17   10.63    4.41
  -7   4 -17    2.23    4.13
   7   4  18    9.17    3.08
  -7  -4 -18   20.00    8.47
  -7   4 -18   10.96    6.26
  -7   4 -18    4.53    3.98
   7   4  19    0.86    3.09
  -7  -4 -19   -0.91    4.36
  -7   4 -19   12.11    6.70
  -7   4 -19    9.79    5.83
   7   4  20   11.80    4.05
  -7  -4 -20   13.90    8.48
  -7   4 -20    6.97    4.66
  -7   4 -20   12.66    7.34
  -7   5  25    8.43    6.64
  -7  -5  25    1.62    3.06
  -7  -5  25   -1.72    4.00
   7  -5 -25    2.54    5.32
   7   5 -25    3.68    4.91
  -7   5  24    7.57    4.93
  -7  -5  24    2.42    3.21
  -7  -5  24    4.55    3.91
   7  -5 -24    0.91    4.24
  -7   5  23    3.13    4.91
  -7  -5  23    8.18    5.16
  -7  -5  23   -5.90    4.47
   7  -5 -23    7.09    4.33
   7   5 -23   -1.69    5.17
  -7   5  22    0.99    4.58
  -7  -5  22    3.36    3.35
  -7  -5  22    3.77    4.52
   7  -5 -22   11.90    7.77
   7   5 -22   14.47    6.32
  -7   5  21    9.23    4.68
  -7  -5  21    7.26    4.62
  -7  -5  21    7.71    4.60
   7  -5 -21   10.99    5.76
   7   5 -21    8.74    4.21
  -7  -5  20    5.95    3.50
  -7  -5  20    6.39    5.89
   7  -5 -20    5.44    3.85
   7   5 -20    3.16    5.28
  -7   5  19    6.90    6.43
  -7  -5  19    2.85    3.10
  -7  -5  19    4.70    4.58
   7  -5 -19   11.38    4.50
   7   5 -19   11.34    4.83
  -7   5  18    7.95    5.01
  -7  -5  18    6.39    5.53
  -7  -5  18    2.31    4.27
   7  -5 -18   16.44    6.56
   7   5 -18   15.26    7.07
  -7   5  17    8.97    5.70
  -7  -5  17   21.90    6.55
  -7  -5  17    7.77    4.71
   7  -5 -17   18.45    6.36
   7   5 -17    3.68    1.92
  -7   5  16   36.68    8.10
  -7  -5  16   29.35    6.81
  -7  -5  16   16.27    4.19
   7  -5 -16   21.39    7.13
   7   5 -16   37.14    8.21
  -7   5  15    0.46    4.06
  -7  -5  15    2.20    3.84
  -7  -5  15    0.88    3.79
   7  -5 -15    8.27    5.84
  -7   5  14   20.61    7.37
  -7  -5  14   -0.46    3.96
  -7  -5  14   16.69    7.54
   7  -5 -14   21.03    6.97
   7   5 -14    9.38    6.16
  -7   5  13   12.98    6.66
  -7  -5  13   18.04    6.29
  -7  -5  13   -5.11    4.03
   7  -5 -13    7.23    3.99
   7   5 -13    3.79    2.75
  -7   5  12    9.53    5.13
  -7  -5  12   24.57    7.83
  -7  -5  12   26.58    6.74
   7  -5 -12   15.19    6.34
   7   5 -12    6.84    3.34
  -7   5  11    6.72    4.31
  -7  -5  11    1.61    3.53
  -7  -5  11    3.55    4.17
   7  -5 -11   -0.04    3.44
   7   5 -11    8.36    5.01
  -7   5  10   28.76    6.97
  -7  -5  10   30.52    6.42
  -7  -5  10   28.37    6.68
   7  -5 -10   23.62    7.31
   7   5 -10   43.06    9.77
  -7   5   9    7.93    4.28
  -7  -5   9    8.16    4.09
  -7  -5   9   14.13    6.19
   7  -5  -9   10.91    4.62
   7   5  -9   11.26    4.88
  -7   5   8   14.52    5.22
  -7  -5   8   23.49    7.72
   7  -5  -8   24.38    8.22
   7   5  -8   19.97    5.83
  -7   5   7    5.44    4.36
  -7  -5   7    1.53    3.82
   7  -5  -7    4.97    3.88
   7   5  -7    7.04    4.57
  -7   5   6   20.84    6.15
  -7  -5   6   16.01    6.80
   7  -5  -6    6.69    3.95
   7   5  -6   34.15    8.07
  -7   5   5    7.58    4.03
  -7  -5   5   18.74    6.17
   7  -5  -5    1.34    3.86
   7   5  -5   16.78    5.38
   7   5  -4    6.71    2.97
  -7   5   4    5.32    5.57
  -7  -5   4    9.52    4.10
   7  -5  -4    9.55    5.58
   7   5  -4   20.00    6.51
   7   5  -3   12.32    5.27
  -7   5   3   13.01    6.24
  -7  -5   3    5.72    4.06
   7  -5  -3   11.87    5.76
   7   5  -3    7.28    2.61
   7   5  -2    3.28    2.94
  -7   5   2    1.25    3.11
  -7  -5   2    4.28    4.12
   7  -5  -2    1.22    3.66
   7   5  -2    0.09    1.48
   7   5  -1    9.54    4.10
  -7   5   1    8.32    4.90
  -7  -5   1   17.10    7.97
   7  -5  -1    7.47    3.70
   7   5  -1   17.30    6.81
   7   5   0   12.31    5.73
  -7   5   0    8.96    4.60
  -7  -5   0   12.53    6.02
   7  -5   0   10.91    5.23
   7   5   0   16.93    5.56
   7   5   1    0.01    3.42
  -7   5  -1    1.74    2.53
  -7  -5  -1    8.25    5.90
   7  -5   1    9.49    5.09
   7   5   1    6.96    2.29
   7   5   2   12.37    4.28
  -7   5  -2    8.87    3.46
  -7  -5  -2   17.12    7.59
   7  -5   2   16.38    5.40
   7   5   2    9.54    2.85
   7   5   3   17.73    5.17
  -7   5  -3   13.10    4.61
  -7  -5  -3   14.65    6.76
   7  -5   3   10.49    3.64
   7   5   3    4.41    2.05
   7   5   4    9.26    2.33
  -7   5  -4    6.65    3.87
  -7  -5  -4    5.15    3.05
   7  -5   4    3.07    1.76
   7   5   5    8.66    3.57
  -7   5  -5    8.33    3.57
  -7  -5  -5    5.37    3.83
   7  -5   5    9.42    3.07
   7   5   5   11.02    4.61
   7   5   6    8.74    6.05
  -7   5  -6    7.99    3.63
  -7  -5  -6    1.46    3.94
   7  -5   6   11.36    4.18
   7   5   6    4.71    2.59
   7   5   7   -1.33    3.58
  -7   5  -7    8.76    3.96
  -7  -5  -7   -1.03    3.82
   7  -5   7    4.12    3.13
   7   5   7    7.98    3.47
   7   5   8   12.65    7.51
  -7   5  -8   12.46    4.44
  -7  -5  -8   15.70    6.46
   7  -5   8   12.93    5.64
   7   5   9   14.34    4.98
  -7   5  -9    9.95    3.27
  -7  -5  -9   -8.84    4.03
   7  -5   9    8.91    4.11
   7   5  10   20.89    6.27
  -7  -5 -10   16.52    5.44
   7  -5  10   15.90    3.44
   7   5  11    9.10    4.63
  -7  -5 -11    5.75    5.38
   7  -5  11   15.40    4.29
   7   5  12   18.70    5.51
  -7  -5 -12   18.25    7.32
   7  -5  12   18.53    4.65
  -7   5 -12   11.57    5.48
   7   5  13    6.40    2.40
  -7  -5 -13   11.11    5.35
   7  -5  13    6.86    3.21
  -7   5 -13    3.75    4.90
   7   5  14   11.90    4.29
  -7  -5 -14   11.49    5.92
   7  -5  14    7.66    2.96
  -7   5 -14   15.80    6.47
   7   5  15   21.59    6.86
  -7  -5 -15   17.70    7.92
   7  -5  15   18.90    7.16
  -7   5 -15   36.22   11.97
   7   5  16    8.18    2.94
  -7  -5 -16   28.04    9.49
   7  -5  16   -1.78    3.72
  -7   5 -16   -0.91    4.62
   7   5  17    8.68    3.21
  -7  -5 -17   18.96    8.22
   7  -5  17    5.36    1.97
  -7   5 -17    1.82    4.13
   7   5  18    4.84    2.69
  -7  -5 -18    3.50    4.52
   7  -5  18   11.44    4.91
  -7   5 -18   24.31    9.55
   7   5  19   15.10    5.55
  -7  -5 -19    8.11    5.07
   7  -5  19    8.00    4.62
  -7   5 -19   18.09    7.81
  -7   6  24    8.13    6.04
  -7  -6  24    0.85    3.12
  -7  -6  24    9.95    6.72
   7  -6 -24    8.10    5.15
   7   6 -24    7.43    3.64
  -7   6  23    6.75    4.84
  -7  -6  23    1.55    3.33
  -7  -6  23    1.69    4.22
   7  -6 -23   13.33    6.29
   7   6 -23   10.16    4.15
  -7   6  22   10.32    6.46
  -7  -6  22    2.13    3.17
  -7  -6  22    8.43    5.08
   7  -6 -22   -5.54    4.36
   7   6 -22   -0.37    4.70
  -7   6  21    6.11    4.83
  -7  -6  21    8.28    5.13
  -7  -6  21   -0.80    3.79
   7  -6 -21   23.87    8.91
   7   6 -21    7.48    5.17
  -7   6  20   11.85    5.61
  -7  -6  20    2.35    3.18
  -7  -6  20    7.56    5.86
   7  -6 -20    8.90    4.89
   7   6 -20    6.29    4.64
  -7   6  19   -2.58    4.18
  -7  -6  19    3.24    3.56
  -7  -6  19   13.55    6.82
   7  -6 -19    2.77    4.75
   7   6 -19    7.61    5.38
  -7   6  18   17.54    7.54
  -7  -6  18   11.05    5.65
  -7  -6  18   -1.13    3.95
   7  -6 -18   12.31    5.64
   7   6 -18   -1.59    4.69
  -7   6  17    5.95    5.30
  -7  -6  17   23.28    6.89
  -7  -6  17    7.21    4.37
   7  -6 -17   19.30    7.01
   7   6 -17   15.17    6.44
  -7   6  16    2.86    4.59
  -7  -6  16    4.63    3.91
  -7  -6  16    9.17    6.17
   7  -6 -16   14.09    6.45
   7   6 -16    3.47    3.78
  -7   6  15    1.04    4.10
  -7  -6  15    0.56    3.65
  -7  -6  15   20.52    6.08
   7  -6 -15   37.10    9.81
   7   6 -15   -0.42    5.40
  -7   6  14   15.26    5.81
  -7  -6  14    6.09    3.70
  -7  -6  14    8.97    4.70
   7  -6 -14   11.23    4.81
   7   6 -14    8.53    3.70
  -7   6  13   11.15    4.25
  -7  -6  13   10.55    6.48
  -7  -6  13    6.67    4.17
   7  -6 -13    1.41    4.48
   7   6 -13    1.06    3.02
  -7   6  12    0.01    4.22
  -7  -6  12   -0.78    3.65
  -7  -6  12   15.79    7.43
   7  -6 -12    4.17    4.70
   7   6 -12   12.36    4.90
  -7   6  11    7.66    4.90
  -7  -6  11   15.64    6.01
  -7  -6  11    4.79    4.11
   7  -6 -11    2.13    4.21
   7   6 -11    9.73    3.53
  -7   6  10   11.88    6.65
  -7  -6  10   33.68    8.73
   7  -6 -10   24.24    8.08
   7   6 -10   19.19    7.69
  -7   6   9    1.60    4.61
  -7  -6   9    4.98    3.97
   7  -6  -9    6.25    3.17
   7   6  -9    6.27    2.45
  -7   6   8    7.09    4.78
  -7  -6   8   10.54    5.07
   7  -6  -8   12.54    4.85
   7   6  -8    4.46    2.40
  -7   6   7    3.77    4.26
  -7  -6   7    6.14    3.87
   7  -6  -7    5.53    2.52
   7   6  -7    2.45    4.09
   7   6  -6   16.12    5.31
  -7   6   6   41.77    8.58
  -7  -6   6   24.77    7.97
   7  -6  -6   10.94    4.51
   7   6  -6   27.06    9.15
   7   6  -5    9.07    3.99
  -7   6   5    4.32    4.19
  -7  -6   5    3.09    4.32
   7  -6  -5    6.01    5.51
   7   6  -5    4.26    2.22
   7   6  -4    4.30    3.25
  -7   6   4   13.72    5.22
  -7  -6   4    4.15    4.25
   7  -6  -4   11.19    4.40
   7   6  -4    5.57    2.62
   7   6  -3    2.12    3.76
  -7   6   3    1.22    3.29
  -7  -6   3   10.65    6.29
   7  -6  -3    1.91    3.51
   7   6  -3    5.93    3.35
   7   6  -2   11.23    4.61
  -7   6   2   10.12    4.67
  -7  -6   2    4.33    4.31
   7  -6  -2    4.58    5.28
   7   6  -2   10.22    4.04
   7   6  -1   10.09    4.40
  -7   6   1   14.46    5.17
  -7  -6   1    9.36    4.83
   7  -6  -1   18.02    6.57
   7   6  -1   13.19    3.67
   7   6   0    3.00    3.18
  -7   6   0    6.45    3.57
  -7  -6   0    9.00    4.75
   7  -6   0    5.16    3.71
   7   6   0    3.56    1.80
   7   6   1   -3.84    3.74
  -7   6  -1    5.59    2.95
  -7  -6  -1    3.60    4.00
   7  -6   1    3.59    2.40
   7   6   1    8.41    4.80
   7   6   2   29.70    6.93
  -7   6  -2   23.77    6.32
  -7  -6  -2   31.62    7.10
   7  -6   2   13.49    4.03
   7   6   2   17.72    5.13
  -7   6  -3   17.31    5.11
  -7  -6  -3    1.29    4.03
   7  -6   3   23.67    9.11
   7   6   3   12.00    4.20
   7   6   4   14.60    5.96
  -7   6  -4    2.82    2.69
  -7  -6  -4   30.24    8.28
   7  -6   4   -1.67    3.93
   7   6   4    5.43    2.33
   7   6   5   17.08    5.81
  -7   6  -5   12.49    5.81
  -7  -6  -5    7.52    2.12
   7  -6   5   10.29    4.86
   7   6   5    3.50    1.46
   7   6   6   22.12    7.43
  -7   6  -6    8.73    3.29
  -7  -6  -6    1.69    3.62
   7  -6   6    8.04    5.14
   7   6   7   19.45    5.45
  -7   6  -7    5.29    2.06
  -7  -6  -7   12.51    5.49
   7  -6   7    7.21    3.98
   7   6   7   -0.02    1.86
   7   6   8    9.18    4.33
  -7  -6  -8   28.10    8.52
   7  -6   8   10.96    5.55
   7   6   9    9.14    3.63
  -7  -6  -9    6.16    4.69
   7  -6   9    7.27    4.36
   7   6  10   39.40   12.18
  -7  -6 -10   29.29    8.34
   7  -6  10   10.97    3.90
  -7   6 -10    7.34    5.63
   7   6  11    1.19    1.88
  -7  -6 -11    4.87    4.85
   7  -6  11   11.16    4.41
  -7   6 -11   14.86    7.98
   7   6  12    8.83    6.24
  -7  -6 -12    3.71    4.40
   7  -6  12    6.42    3.22
  -7   6 -12    3.71    5.15
   7   6  13    4.27    3.60
  -7  -6 -13    9.11    6.62
   7  -6  13    8.24    2.51
  -7   6 -13    3.28    4.90
   7   6  14   27.84    9.52
  -7  -6 -14   48.88   16.35
   7  -6  14   16.88    6.30
  -7   6 -14   22.58    8.99
   7   6  15    9.77    5.10
  -7  -6 -15   -1.65    4.39
   7  -6  15    4.44    2.51
  -7   6 -15    6.62    5.02
   7   6  16    6.27    2.92
  -7  -6 -16   17.76    7.04
   7  -6  16    5.97    2.65
  -7   6 -16    5.77    5.12
   7   6  17    4.45    2.67
  -7  -6 -17   15.37    7.95
   7  -6  17    2.94    3.06
  -7   6 -17    8.73    5.07
  -7   7  22   11.71    6.18
  -7   7  21   -1.14    4.99
  -7  -7  21   -1.96    3.12
  -7  -7  21    9.26    6.38
   7  -7 -21    4.05    5.17
   7   7 -21    0.71    4.38
  -7   7  20   16.22    8.41
  -7  -7  20   12.85    5.56
  -7  -7  20   22.97    9.86
   7  -7 -20   12.66    6.44
   7   7 -20   -4.54    5.23
  -7   7  19   14.71    8.08
  -7  -7  19    2.98    3.31
  -7  -7  19   11.38    5.84
   7  -7 -19    7.77    5.36
   7   7 -19   -0.53    5.26
  -7   7  18   10.01    6.08
  -7  -7  18    0.29    3.22
  -7  -7  18   23.56    9.84
   7  -7 -18    5.01    4.41
  -7   7  17    7.76    4.53
  -7  -7  17    3.57    4.84
   7  -7 -17    2.45    4.42
   7   7 -17   10.22    5.50
  -7   7  16   15.95    6.04
  -7  -7  16   10.30    5.61
  -7  -7  16   -0.45    4.76
   7  -7 -16    0.05    4.53
   7   7 -16   16.52    7.71
  -7   7  15   -0.26    4.46
  -7  -7  15    2.18    2.09
  -7  -7  15   11.51    5.96
   7  -7 -15    7.80    5.26
   7   7 -15    3.78    3.29
  -7   7  14   18.45    7.68
  -7  -7  14   -0.26    3.56
  -7  -7  14    7.00    6.67
   7  -7 -14   11.54    8.16
   7   7 -14    8.60    3.10
  -7   7  13    5.49    4.34
  -7  -7  13    6.96    4.46
  -7  -7  13   -7.16    4.67
   7  -7 -13    9.11    5.42
   7   7 -13   22.20    6.62
  -7   7  12   11.22    4.58
  -7  -7  12    4.28    3.34
  -7  -7  12    3.78    4.35
   7  -7 -12   16.06    7.44
   7   7 -12    9.65    3.25
  -7   7  11    9.09    4.89
  -7  -7  11   -0.63    4.53
   7  -7 -11   12.70    6.37
   7   7 -11   13.10    4.50
  -7   7  10    4.61    4.10
  -7  -7  10    1.98    4.26
   7  -7 -10   15.12    6.33
   7   7 -10   11.47    3.97
  -7   7   9    8.97    4.46
  -7  -7   9   11.66    4.54
   7  -7  -9    6.08    4.55
   7   7  -9    8.66    5.14
  -7   7   8   -6.07    3.53
  -7  -7   8    3.92    4.17
   7  -7  -8   -1.61    3.90
   7   7  -8    4.16    2.67
   7   7  -7   13.35    5.07
  -7   7   7    6.45    4.11
  -7  -7   7    3.40    4.33
   7  -7  -7   11.33    4.64
   7   7  -7    1.46    2.55
   7   7  -6   39.09    8.22
  -7   7   6   39.45    8.94
  -7  -7   6   14.85    6.38
   7  -7  -6   13.74    5.87
   7   7  -6   21.28    6.94
   7   7  -5    8.43    4.04
  -7   7   5    0.64    3.23
  -7  -7   5    3.92    4.27
   7  -7  -5   18.23    7.93
   7   7  -5    0.76    1.72
   7   7  -4    7.51    3.80
  -7   7   4    7.92    4.82
  -7  -7   4    8.82    4.77
   7  -7  -4    2.56    3.94
   7   7  -4    4.50    2.86
   7   7  -3   13.32    7.59
  -7   7   3    6.78    3.16
  -7  -7   3    7.59    4.65
   7  -7  -3   13.61    5.53
   7   7  -3    7.23    2.89
   7   7  -2   20.98    7.32
  -7   7   2   25.46    6.40
  -7  -7   2   12.82    7.13
   7  -7  -2   24.92    7.79
   7   7  -1    5.74    2.89
  -7   7   1   24.37    6.16
  -7  -7   1   18.94    7.58
   7  -7  -1   11.93    6.56
   7   7  -1    9.08    4.20
   7   7   0    7.12    3.48
  -7   7   0   14.33    4.53
  -7  -7   0    5.13    4.09
   7  -7   0   11.08    4.05
   7   7   0    4.70    3.55
   7   7   1    0.57    2.43
  -7   7  -1    4.54    2.83
  -7  -7  -1   10.43    5.15
   7  -7   1    7.09    3.11
   7   7   1    2.38    2.94
   7   7   2   11.03    3.64
  -7   7  -2    6.81    4.57
  -7  -7  -2   10.70    6.55
   7  -7   2    6.77    3.12
   7   7   2    9.87    4.03
   7   7   3    6.36    2.83
  -7   7  -3    6.52    3.30
  -7  -7  -3    6.86    4.73
   7  -7   3    4.96    2.45
   7   7   3    1.37    2.08
   7   7   4    8.21    3.17
  -7   7  -4    6.08    3.17
  -7  -7  -4   17.38    6.40
   7  -7   4    4.19    1.89
   7   7   4   -0.77    1.60
   7   7   5   18.42    5.99
  -7   7  -5    3.06    2.55
  -7  -7  -5    4.56    4.56
   7  -7   5    7.22    4.08
   7   7   5    5.99    2.10
   7   7   6   18.66    6.30
  -7   7  -6   12.98    4.69
  -7  -7  -6   14.52    7.10
   7  -7   6   20.88    6.17
   7   7   7    5.57    2.57
  -7  -7  -7    6.45    3.79
   7  -7   7    4.64    2.98
   7   7   8   15.18    7.27
  -7  -7  -8    5.30    4.57
   7  -7   8    2.49    2.39
  -7   7  -8    4.90    5.56
   7   7   9    6.05    2.26
  -7  -7  -9    4.21    5.27
   7  -7   9    5.06    4.48
  -7   7  -9   11.95    7.41
   7   7  10   -0.84    3.91
  -7  -7 -10   -1.46    3.98
   7  -7  10    6.80    3.29
   7   7  11    2.01    2.94
  -7  -7 -11   14.29    7.15
   7  -7  11    5.61    3.09
  -7   7 -11   17.57    8.99
   7   7  12    9.79    4.19
  -7  -7 -12    7.27    6.97
   7  -7  12    5.85    3.20
  -7   7 -12    4.46    3.42
   7   7  13   -5.10    4.10
  -7  -7 -13   15.44    7.28
   7  -7  13   -0.14    2.67
  -7   7 -13    3.20    5.04
   7   7  14   10.35    6.92
  -7  -7 -14    8.63    7.79
   7  -7  14   14.78    6.78
  -7   7 -14    7.41    5.53
   7   7  15    5.76    4.38
  -7  -7 -15   10.56    7.20
   7  -7  15    8.26    3.80
  -7   7 -15    8.96    5.83
  -7   8  19   10.67    5.45
  -7  -8  19    2.84    3.48
  -7  -8  19   -0.50    4.24
   7  -8 -19   22.17   10.44
   7   8 -19    6.94    4.94
  -7   8  18   25.41    9.14
  -7  -8  18    1.64    3.33
  -7  -8  18    4.76    4.75
   7  -8 -18   18.46    8.96
   7   8 -18    9.08    4.34
  -7   8  17   -6.41    4.84
  -7  -8  17   -0.75    3.63
  -7  -8  17    0.69    4.37
   7  -8 -17   12.94    6.45
  -7   8  16    6.62    5.40
  -7  -8  16    3.17    3.71
  -7  -8  16   14.42    5.95
   7  -8 -16   -2.52    5.09
   7   8 -16    7.17    4.07
  -7   8  15   10.07    7.44
  -7  -8  15    3.13    4.55
  -7  -8  15   10.52    7.40
   7  -8 -15   29.02   10.17
   7   8 -15   10.84    5.63
  -7   8  14    7.49    4.87
  -7  -8  14   -0.55    3.63
  -7  -8  14    2.45    4.64
   7  -8 -14    9.98    5.47
   7   8 -14    8.18    2.96
  -7   8  13   19.43    7.53
  -7  -8  13   14.57    6.49
  -7  -8  13   10.42    4.82
   7  -8 -13    4.35    4.90
   7   8 -13   11.64    5.74
  -7   8  12   11.93    5.28
  -7  -8  12    0.99    4.30
   7  -8 -12    5.38    4.97
   7   8 -12   15.38    5.38
  -7   8  11   10.78    4.44
  -7  -8  11   -1.67    4.32
   7  -8 -11   16.75    8.78
   7   8 -11   14.35    4.45
  -7   8  10    8.01    3.96
  -7  -8  10    8.73    4.38
   7  -8 -10    1.10    5.21
   7   8 -10    6.05    3.51
   7   8  -9    5.15    5.01
  -7   8   9    7.59    5.64
  -7  -8   9   -1.18    4.33
   7  -8  -9   12.83    6.57
   7   8  -9   15.17    5.79
   7   8  -8   10.99    5.49
  -7   8   8   15.52    6.33
  -7  -8   8    7.32    4.69
   7  -8  -8    9.45    8.10
   7   8  -8   12.19    6.08
   7   8  -7   18.28    4.80
  -7   8   7   22.20    6.66
  -7  -8   7   30.22    8.29
   7  -8  -7    9.66    5.80
   7   8  -7   16.40    4.54
   7   8  -6    9.07    2.72
  -7   8   6    6.89    4.24
  -7  -8   6    4.61    4.43
   7  -8  -6    6.52    6.71
   7   8  -6   -4.25    3.73
   7   8  -5   14.19    4.31
  -7   8   5    3.06    3.37
  -7  -8   5   -4.76    4.81
   7  -8  -5   -0.32    4.96
   7   8  -5   13.35    5.36
   7   8  -4   19.70    6.12
  -7   8   4    9.86    4.48
  -7  -8   4    1.50    4.38
   7  -8  -4    5.40    5.16
   7   8  -4    7.63    3.05
   7   8  -3   14.22    5.74
  -7   8   3    1.42    3.37
  -7  -8   3   -0.81    4.97
   7  -8  -3    6.49    5.06
   7   8  -3    2.48    2.01
   7   8  -2   28.58    7.68
  -7   8   2   25.27    7.50
  -7  -8   2   11.84    8.07
   7  -8  -2   10.01    6.87
   7   8  -2   10.33    7.71
   7   8  -1    7.28    3.81
  -7   8   1   10.22    4.89
  -7  -8   1    4.88    5.30
   7  -8  -1   11.28    7.43
   7   8  -1    9.68    4.75
   7   8   0   16.44   10.27
  -7   8   0   11.62    4.78
  -7  -8   0    8.79    4.86
   7  -8   0   14.56    5.89
   7   8   0    4.55    2.14
   7   8   1   14.42    7.28
  -7   8  -1   13.87    7.12
  -7  -8  -1   23.97    7.87
   7  -8   1    5.11    3.80
   7   8   1   21.67    6.39
   7   8   2   15.95    5.71
  -7   8  -2  103.91   29.06
  -7  -8  -2    1.30    4.68
   7  -8   2    6.34    5.36
   7   8   2   -0.29    2.70
   7   8   3   14.60    6.23
  -7   8  -3   11.72    5.61
  -7  -8  -3    6.09    4.92
   7  -8   3   10.06    4.98
   7   8   3    9.25    3.87
   7   8   4    3.19    4.15
  -7   8  -4    2.18    3.29
  -7  -8  -4    2.12    4.93
   7  -8   4    2.19    2.95
   7   8   5    5.79    2.96
  -7  -8  -5   14.16    6.93
   7  -8   5    2.98    3.98
   7   8   6   -6.40    3.89
   7  -8   6    6.00    3.59
  -7   8  -6   16.06    9.76
   7   8   7   12.43    5.85
  -7  -8  -7    3.39    5.56
   7  -8   7   11.96    5.32
  -7   8  -7   21.52    7.75
   7   8   8    9.01    4.59
  -7  -8  -8   27.81   12.28
   7  -8   8    9.34    5.37
  -7   8  -8   23.39   10.40
   7   8   9   23.38    8.52
  -7  -8  -9    7.69    6.12
   7  -8   9    5.45    3.44
  -7   8  -9   14.42    7.32
   7   8  10    8.76    5.57
  -7  -8 -10    3.46    5.05
   7  -8  10   -0.73    4.76
  -7   8 -10    3.26    5.35
   7   8  11   14.43    6.53
  -7  -8 -11    6.79    5.29
   7  -8  11   11.59    8.82
  -7   8 -11   14.82    6.43
   7   8  12    2.71    2.32
  -7  -8 -12    7.09    5.33
   7  -8  12   -2.11    4.39
  -7   8 -12    5.39    5.90
  -7   9  15   11.03    5.15
  -7  -9  15    1.70    3.58
  -7  -9  15    8.20    5.85
   7  -9 -15   14.28    8.05
   7   9 -15   11.81    5.03
  -7   9  14    7.10    4.99
  -7  -9  14    5.33    3.74
  -7  -9  14    9.45    7.89
   7  -9 -14    2.00    4.82
  -7   9  13    3.76    4.76
  -7  -9  13   -7.13    5.25
   7  -9 -13    8.97    7.19
   7   9 -13    2.71    3.50
  -7   9  12   22.60    8.30
  -7  -9  12   19.14    8.54
   7  -9 -12    2.84    5.70
   7   9 -12    0.07    2.78
  -7   9  11   -0.35    4.06
  -7  -9  11    2.92    4.97
   7  -9 -11   -3.95    5.17
   7   9 -11    9.99    3.74
  -7   9  10    6.41    4.61
  -7  -9  10    5.92    5.14
   7  -9 -10   21.75    9.81
   7   9 -10    8.52    4.17
   7   9  -9    6.04    3.56
  -7   9   9    8.35    4.17
  -7  -9   9    8.70    5.80
   7  -9  -9   11.91    6.29
   7   9  -9   24.20    8.38
   7   9  -8   19.77    6.78
  -7   9   8    6.52    4.50
  -7  -9   8   -0.21    4.98
   7  -9  -8   -4.38    4.87
   7   9  -8   -2.11    3.79
   7   9  -7   10.73    6.44
  -7   9   7    7.61    4.58
  -7  -9   7    5.72    4.87
   7  -9  -7    2.84    5.10
   7   9  -7   18.31    7.45
   7   9  -6    3.11    3.74
  -7   9   6    3.16    3.91
  -7  -9   6   12.94    6.16
   7  -9  -6    4.15    5.24
   7   9  -6    4.69    2.64
   7   9  -5   14.75    6.63
  -7   9   5    7.54    4.39
  -7  -9   5   11.20    6.11
   7  -9  -5   15.90    8.08
   7   9  -5    5.38    2.25
   7   9  -4   -4.25    4.29
  -7   9   4   -3.96    3.19
  -7  -9   4   11.71    5.92
   7  -9  -4   13.85    9.30
   7   9  -4   12.33    4.80
   7   9  -3    8.80    4.34
  -7   9   3    3.51    3.42
  -7  -9   3    6.74    5.64
   7  -9  -3    7.75    5.09
   7   9  -3   11.91    4.28
   7   9  -2    9.05    5.48
  -7   9   2    3.82    3.59
  -7  -9   2   21.86    9.17
   7  -9  -2   18.24    8.56
   7   9  -2   10.95    2.94
   7   9  -1    6.69    3.32
  -7   9   1    5.42    3.17
  -7  -9   1    6.14    5.11
   7  -9  -1    9.58    5.35
   7   9   0    7.02    3.08
  -7   9   0    5.21    3.16
  -7  -9   0   22.17    9.62
   7  -9   0   -4.80    4.46
   7   9   0   -2.25    3.08
   7   9   1    8.71    4.88
  -7   9  -1    4.05    3.16
  -7  -9  -1   12.71    7.29
   7  -9   1    8.84    4.89
   7   9   1    0.89    1.61
   7   9   2   11.34    4.10
  -7   9  -2    3.00    2.67
  -7  -9  -2   17.29    7.46
   7  -9   2    1.29    3.75
   7   9   2    4.72    2.59
   7   9   3    5.78    5.10
  -7  -9  -3   -1.16    4.72
   7  -9   3    6.20    4.42
  -7   9  -3   23.82   10.51
   7   9   4    6.16    4.85
  -7  -9  -4   15.11    8.14
   7  -9   4    7.44    3.84
  -7   9  -4   12.50    8.27
   7   9   5   14.32    5.94
  -7  -9  -5    8.85    6.24
   7  -9   5    6.06    3.45
  -7   9  -5   12.66    7.33
   7   9   6   12.96    6.37
  -7  -9  -6    3.52    5.20
   7  -9   6    9.20    4.99
  -7   9  -6    9.20    6.53
  -7  -9  -7    7.13    5.07
   7  -9   7    8.26    5.47
  -7   9  -7    9.65    6.09
   7   9   8   11.01    5.66
  -7  -9  -8   -2.31    4.81
   7  -9   8   26.85    9.16
  -7   9  -8   19.38    9.51
   7   9   9    3.35    3.95
  -7  -9  -9    1.39    4.92
   7  -9   9    6.73    4.02
  -7   9  -9   18.00    7.73
   7  10  -8   25.32    8.13
  -7  10   8    4.45    4.52
  -7 -10   8   11.95    7.83
   7  10  -7   16.75    6.52
  -7  10   7    6.99    4.23
  -7 -10   7    1.49    5.15
   7 -10  -7    0.07    4.41
   7  10  -7    1.74    2.62
   7  10  -6    9.09    4.37
  -7  10   6   17.85    8.06
  -7 -10   6   21.47   10.60
   7 -10  -6    8.71    5.41
   7  10  -6   12.02    5.03
   7  10  -5    5.05    2.96
  -7  10   5    7.33    4.53
  -7 -10   5   24.38    9.78
   7 -10  -5   25.09   10.64
   7  10  -5    5.18    2.59
   7  10  -4    7.64    5.12
  -7  10   4   11.14    6.26
  -7 -10   4    2.44    5.07
   7 -10  -4   -0.20    4.69
   7  10  -4   10.71    4.97
   7  10  -3    6.94    3.82
  -7  10   3   -2.20    3.71
  -7 -10   3   14.60    8.33
   7 -10  -3   19.97    8.83
   7  10  -3    6.64    3.16
   7  10  -2   13.72    6.42
  -7  10   2   23.54    8.59
  -7 -10   2    0.25    5.66
   7 -10  -2    1.88    4.73
   7  10  -2    8.33    2.66
  -7  10   2   20.64    9.65
   7  10  -1   13.17    6.31
  -7  10   1    6.46    2.77
  -7 -10   1    3.65    5.70
   7 -10  -1   20.27    7.67
   7  10  -1    3.98    2.60
   7  10   0    7.73    4.58
  -7  10   0    6.67    3.49
  -7 -10   0   -0.43    5.39
   7 -10   0    6.42    3.15
   7  10   0    2.35    2.32
  -7  10   0   14.16    6.97
   7  10   1    1.99    2.55
  -7 -10  -1    6.17    5.46
   7 -10   1    3.01    3.08
  -7  10  -1    2.75    5.63
   7  10   2    7.28    3.13
  -8   0  27   24.39    9.68
   8   0 -27    3.91    2.14
  -8   0  26    9.95    6.52
  -8   0  26    5.46    2.79
   8   0 -26   -0.34    3.44
   8   0 -26   15.11    5.76
  -8   0  25    3.31    3.83
  -8   0  25    7.61    2.36
   8   0 -25    0.31    3.08
   8   0 -25   10.98    5.66
  -8   0  24   10.23    6.10
  -8   0  24    5.79    2.67
   8   0 -24    3.10    3.27
   8   0 -24   -0.23    4.20
  -8   0  23   -0.25    3.63
  -8   0  23   -0.22    2.69
   8   0 -23    7.94    4.58
   8   0 -23    3.57    2.87
  -8   0  22   -0.77    3.84
  -8   0  22   14.29    6.18
   8   0 -22    2.53    2.95
   8   0 -22   18.73    5.27
  -8   0  21   11.17    6.79
  -8   0  21    9.38    3.68
   8   0 -21   -0.26    2.92
   8   0 -21   11.84    5.89
  -8   0  20   41.68    9.79
  -8   0  20   23.94    7.66
   8   0 -20    6.08    3.38
  -8   0  19   -0.63    3.75
  -8   0  19    4.28    3.58
   8   0 -19    4.76    2.90
   8   0 -19    5.96    3.04
  -8   0  18    9.05    4.83
  -8   0  18   -0.29    2.48
   8   0 -18    1.81    2.53
   8   0 -18   22.47    5.96
  -8   0  17    2.45    5.52
  -8   0  17    5.98    3.23
   8   0 -17    2.44    2.80
   8   0 -17   20.26    6.22
  -8   0  16   46.65   10.08
  -8   0  16   47.71   12.45
   8   0 -16   32.30    6.74
   8   0 -16   55.45   12.38
  -8   0  15    6.55    3.97
  -8   0  15    2.51    2.07
   8   0 -15    0.37    2.31
   8   0 -15   17.59    9.35
  -8   0  14   41.50    7.41
  -8   0  14   40.83    7.87
   8   0 -14   47.16    6.71
   8   0 -14   62.07   12.48
  -8   0  13    4.32    3.92
  -8   0  13    4.27    2.69
   8   0 -13    5.90    2.06
   8   0 -13   10.88    4.72
  -8   0  12    8.87    6.03
  -8   0  12    9.16    3.17
   8   0 -12    3.84    2.01
   8   0 -12   10.06    5.10
  -8   0  11    1.96    3.85
  -8   0  11    0.87    1.73
   8   0 -11    4.67    2.79
   8   0 -11    5.36    2.22
  -8   0  10   72.32   10.26
  -8   0  10   75.18    7.34
   8   0 -10   69.96    8.67
   8   0 -10   50.62   10.57
  -8   0   9   21.48    7.79
  -8   0   9    2.99    1.86
   8   0  -9    3.20    2.29
   8   0  -9   -1.74    3.89
  -8   0   8   26.86    7.36
  -8   0   8   23.71    4.60
   8   0  -8   27.52    5.28
  -8   0   7    5.45    3.80
  -8   0   7    0.12    1.23
   8   0  -7    2.11    1.32
   8   0  -7    7.89    2.81
  -8   0   6   38.01    8.67
  -8   0   6   37.78    6.56
   8   0  -6   38.37    6.02
   8   0  -6   44.38    6.93
  -8   0   5   -2.70    3.48
  -8   0   5    4.25    2.21
   8   0  -5    4.00    2.41
  -8   0   4   34.48    6.81
  -8   0   4   22.32    4.23
   8   0  -4   20.58    4.74
  -8   0   3    3.82    3.56
  -8   0   3    0.49    1.28
   8   0  -3    1.69    0.99
  -8   0   2   59.29    6.50
  -8   0   2   43.00    6.65
   8   0  -2   34.04    7.75
  -8   0   1    4.23    4.68
  -8   0   1    2.36    1.35
   8   0  -1    7.27    1.72
  -8   0   0   14.03    5.93
  -8   0   0   11.09    3.33
   8   0   0    9.07    2.64
  -8   0  -1    5.78    3.82
  -8   0  -1    4.54    2.26
   8   0   1    2.73    1.01
  -8   0  -2    8.15    3.59
  -8   0  -2    7.42    2.58
   8   0   2    4.52    1.86
  -8   0  -3    7.86    5.93
  -8   0  -3    2.21    1.62
   8   0   3    4.30    1.72
  -8   0  -4   12.51    6.14
  -8   0  -4    2.99    1.86
   8   0   4    1.88    1.22
  -8   0  -5    0.15    3.09
  -8   0  -5    9.54    3.52
   8   0   5    2.16    1.56
  -8   0  -6    4.12    3.08
  -8   0  -6    4.78    2.18
  -8   0  -7    3.90    2.88
  -8   0  -7    2.98    2.30
  -8   0  -7    5.36    2.78
  -8   0  -8    5.35    3.75
  -8   0  -8    0.73    2.16
  -8   0  -8    8.58    3.31
  -8   0  -9    7.51    3.86
  -8   0  -9    5.47    3.24
  -8   0  -9   10.58    3.81
  -8   0 -10   34.82    7.43
  -8   0 -10   25.07    5.89
  -8   0 -10   21.50    5.80
  -8   0 -11    5.32    3.45
  -8   0 -11    2.94    2.35
  -8   0 -11    6.53    2.78
  -8   0 -12   24.89    6.20
  -8   0 -12   25.14    5.99
  -8   0 -12   31.74    5.73
  -8   0 -13    4.99    2.58
  -8   0 -13    2.47    2.44
  -8   0 -13    3.80    3.03
  -8   0 -14    9.91    3.65
  -8   0 -14    3.04    2.45
  -8   0 -14    5.24    2.73
  -8   0 -15    4.47    1.85
  -8   0 -15   11.23    4.23
  -8   0 -15    1.56    2.28
  -8   0 -16   24.30    8.54
  -8   0 -16   27.44    8.13
  -8   0 -17    4.19    1.60
  -8   0 -17    1.96    1.41
  -8   0 -18    3.58    3.95
  -8   1  26    4.22    4.58
  -8  -1  26   14.59    6.90
  -8   1  26    0.44    1.53
  -8  -1  26    5.50    3.84
   8  -1 -26    3.41    3.67
   8  -1 -26   21.68    9.80
   8   1 -26    3.55    1.73
  -8   1  25   -2.09    3.68
  -8  -1  25    2.64    3.91
  -8   1  25   18.16    5.90
  -8  -1  25   12.61    5.08
   8  -1 -25    1.99    4.88
   8   1 -25    7.79    4.67
   8  -1 -25    3.68    3.11
   8   1 -25   13.28    5.98
  -8   1  24    2.50    4.13
  -8  -1  24    4.48    3.77
  -8   1  24    6.98    3.38
  -8  -1  24    5.28    2.15
   8  -1 -24    9.24    6.49
   8   1 -24    8.71    3.79
   8  -1 -24   -2.57    3.62
   8   1 -24    9.97    5.40
  -8   1  23    3.09    3.72
  -8  -1  23    5.37    4.63
  -8   1  23    5.73    3.52
  -8  -1  23   12.71    4.74
   8  -1 -23    6.30    3.91
   8   1 -23   -2.59    2.75
   8  -1 -23    9.46    4.43
   8   1 -23    4.65    2.60
  -8   1  22   10.11    5.00
  -8  -1  22    9.98    5.02
  -8   1  22    8.28    4.29
  -8  -1  22    4.21    2.18
   8  -1 -22    6.16    3.32
   8   1 -22    3.99    3.10
   8  -1 -22   13.92    6.14
   8   1 -22    1.97    3.75
  -8   1  21   10.66    4.57
  -8  -1  21   13.39    6.37
  -8   1  21   12.97    3.79
  -8  -1  21   16.94    6.30
   8  -1 -21   16.42    5.58
   8   1 -21    6.04    2.73
   8  -1 -21    9.18    3.86
   8   1 -21   38.63   14.75
  -8   1  20    8.09    5.12
  -8  -1  20   10.30    5.89
  -8   1  20    8.98    3.74
  -8  -1  20    1.68    1.46
   8  -1 -20   -1.65    2.97
   8   1 -20   12.76    4.75
   8  -1 -20   11.60    4.54
   8   1 -20    4.24    2.57
  -8   1  19    4.82    3.87
  -8  -1  19   -2.11    3.65
  -8   1  19    2.03    2.11
  -8  -1  19    2.79    2.11
   8   1 -19    7.46    3.92
   8  -1 -19    4.37    2.47
   8   1 -19   13.54    7.57
  -8   1  18   51.40   10.36
  -8  -1  18   49.87    9.91
  -8   1  18   27.34    7.73
  -8  -1  18   20.74    6.19
   8  -1 -18   48.69    8.69
   8   1 -18   31.44    6.04
   8  -1 -18   38.49   10.08
   8   1 -18   36.28    7.62
  -8   1  17   15.19    7.12
  -8  -1  17    5.78    4.24
  -8   1  17   12.72    4.32
  -8  -1  17   16.75    5.10
   8  -1 -17   14.83    5.05
   8   1 -17   19.55    6.10
   8  -1 -17   15.51    6.49
   8   1 -17   13.56    5.31
  -8   1  16   18.63    7.05
  -8  -1  16   -0.60    4.01
  -8   1  16    7.72    2.71
  -8  -1  16   12.61    3.90
   8  -1 -16    5.01    3.88
   8   1 -16    4.25    2.30
   8  -1 -16    9.16    3.53
   8   1 -16   14.26    6.08
  -8  -1  15    5.28    3.95
  -8   1  15    2.63    1.41
  -8  -1  15    2.71    2.50
   8  -1 -15    1.41    2.98
   8   1 -15    3.82    2.60
   8  -1 -15    8.80    3.14
   8   1 -15    3.43    2.52
  -8   1  14   31.71    8.00
  -8  -1  14   28.17    6.59
  -8   1  14   19.87    6.17
  -8  -1  14   16.79    6.29
   8  -1 -14   14.84    5.11
   8   1 -14   20.83    5.33
   8  -1 -14   17.94    5.75
   8   1 -14   29.39   10.46
  -8   1  13   15.19    6.58
  -8  -1  13   13.21    4.97
  -8   1  13    7.36    3.16
  -8  -1  13    5.29    2.29
   8  -1 -13   15.03    4.36
   8   1 -13    8.84    2.86
   8  -1 -13    5.74    2.07
   8   1 -13    4.67    2.95
  -8   1  12   13.61    6.31
  -8   1  12    2.33    1.42
  -8  -1  12   26.83    6.98
   8  -1 -12   17.72    5.36
   8   1 -12   17.09    4.23
   8  -1 -12   16.36    5.25
   8   1 -12    9.63    4.37
  -8   1  11   23.64    7.42
  -8  -1  11    5.83    5.29
  -8   1  11    7.43    1.90
  -8  -1  11    9.26    3.07
   8   1 -11    2.02    1.42
   8  -1 -11    6.78    4.30
   8  -1 -11   15.97    6.68
   8   1 -11    5.36    1.84
  -8   1  10   -3.80    3.99
  -8  -1  10   16.33    6.13
  -8   1  10    2.70    1.50
  -8  -1  10    4.56    1.96
   8   1 -10    1.64    1.20
   8  -1 -10    5.01    3.49
  -8   1   9    7.16    4.27
  -8  -1   9   20.65    8.40
  -8   1   9    8.14    3.34
  -8  -1   9    8.22    3.71
   8   1  -9    0.17    1.05
   8  -1  -9    4.36    3.15
   8   1  -9   11.02    3.71
  -8   1   8   63.90    9.65
  -8  -1   8   49.24    7.67
  -8   1   8   35.82    8.41
  -8  -1   8   42.61    5.01
   8   1  -8   48.04    4.45
   8  -1  -8   53.48    5.82
   8   1  -8   65.96   11.39
  -8   1   7    5.93    3.82
  -8  -1   7    6.09    3.89
  -8   1   7    3.25    1.50
  -8  -1   7    8.46    3.24
   8   1  -7    7.05    2.12
   8  -1  -7    6.07    2.40
   8   1  -7   15.32    5.83
  -8   1   6   48.76    6.93
  -8  -1   6   35.40    8.24
  -8   1   6   28.22    5.24
  -8  -1   6   45.78    5.37
   8   1  -6   27.73    5.75
   8  -1  -6   40.67    4.92
   8   1  -6   37.74   10.61
  -8   1   5    9.13    4.03
  -8  -1   5   15.88    6.73
  -8   1   5    6.22    1.77
  -8  -1   5   18.60    4.44
   8   1  -5    8.66    2.13
   8  -1  -5   31.61    6.32
   8   1  -5    8.64    4.02
  -8   1   4   33.21    8.05
  -8  -1   4    3.07    3.75
  -8   1   4   15.35    4.66
  -8  -1   4   13.02    4.11
   8   1  -4    9.71    2.09
   8  -1  -4   24.73    5.47
   8   1  -4   30.40    7.69
  -8   1   3   40.67    6.31
  -8  -1   3   16.19    5.73
  -8   1   3   17.64    4.32
  -8  -1   3   19.37    4.45
   8   1  -3   14.48    4.10
   8  -1  -3   22.24    5.61
   8   1  -3   17.96    5.04
  -8   1   2   30.15    7.43
  -8  -1   2   22.49    6.70
  -8   1   2   18.41    3.92
  -8  -1   2   27.21    5.46
   8   1  -2   14.02    4.04
   8  -1  -2   26.91    5.68
  -8   1   1    2.88    3.58
  -8  -1   1    8.45    5.18
  -8   1   1   12.76    3.17
  -8  -1   1   17.96    3.82
   8   1  -1    7.02    1.60
   8  -1  -1   10.93    3.52
  -8   1   0   11.85    5.50
  -8  -1   0    4.14    3.62
  -8   1   0    1.48    1.25
  -8  -1   0    5.39    2.05
   8   1   0    1.21    0.91
   8  -1   0    6.08    2.34
  -8   1  -1   60.36    8.55
  -8  -1  -1   54.61   10.23
  -8   1  -1   45.95    4.32
  -8  -1  -1   54.12    5.44
   8  -1   1   33.21    7.40
  -8   1  -2    3.06    3.42
  -8  -1  -2    7.73    3.89
  -8   1  -2    1.29    1.64
  -8  -1  -2    2.57    2.10
   8  -1   2    6.09    2.72
  -8  -1  -2    2.55    1.02
  -8   1  -3   16.24    6.11
  -8  -1  -3   11.04    3.92
  -8   1  -3    2.89    1.66
  -8  -1  -3   12.09    4.88
   8  -1   3    9.24    2.23
  -8  -1  -3    2.69    1.44
  -8   1  -4    0.32    3.11
  -8  -1  -4   12.39    5.79
  -8   1  -4    5.95    2.22
  -8  -1  -4    0.02    2.10
   8  -1   4    3.78    2.94
  -8  -1  -4    3.16    1.49
  -8   1  -5    2.96    2.79
  -8  -1  -5    5.98    3.50
  -8   1  -5    2.72    1.47
  -8  -1  -5    2.64    2.32
   8  -1   5    7.09    2.33
  -8  -1  -5    4.64    2.06
  -8   1  -6    2.59    2.69
  -8  -1  -6   17.39    6.68
  -8   1  -6   -0.62    1.20
  -8  -1  -6    1.38    2.38
   8  -1   6    2.29    1.60
  -8  -1  -6    0.44    1.36
  -8   1  -7    1.65    2.66
  -8  -1  -7    3.15    3.20
  -8  -1  -7    8.82    4.03
  -8   1  -7    5.23    2.03
   8  -1   7    2.46    1.42
  -8  -1  -7   -1.20    1.47
  -8   1  -8    5.30    3.44
  -8  -1  -8    6.50    4.46
  -8  -1  -8    1.60    2.61
  -8   1  -8    3.72    2.07
   8  -1   8    6.68    2.23
  -8   1  -9    5.44    3.37
  -8  -1  -9    7.17    3.54
  -8  -1  -9    8.48    3.35
  -8   1  -9    4.25    1.98
   8  -1   9    3.34    1.34
  -8  -1  -9    1.01    1.68
  -8   1 -10   10.36    4.50
  -8  -1 -10   11.69    4.71
  -8  -1 -10    6.89    3.16
  -8   1 -10    2.58    1.64
  -8  -1 -10   -2.33    1.45
  -8   1 -10    5.71    3.08
  -8   1 -11    9.62    4.37
  -8  -1 -11    5.67    2.93
  -8  -1 -11    9.33    4.62
  -8   1 -11   -2.27    1.44
  -8   1 -11   64.19    9.84
  -8   1 -12    6.17    2.77
  -8  -1 -12    1.52    2.82
  -8   1 -12   13.57    5.30
  -8   1 -13   12.83    5.31
  -8  -1 -13   14.23    5.33
  -8  -1 -13    6.56    3.26
  -8   1 -13    0.53    2.43
  -8  -1 -14   10.80    5.06
  -8  -1 -14   17.30    5.67
  -8   1 -14   13.59    6.41
  -8  -1 -15    4.37    2.98
  -8  -1 -15    4.01    3.07
  -8   1 -15   11.39    4.12
  -8  -1 -16    5.88    3.89
  -8  -1 -16    2.98    3.39
  -8   1 -16    6.39    4.55
  -8  -1 -17   16.57    5.93
  -8   1 -17   19.09    6.55
  -8  -1 -18   20.71    7.56
  -8   1 -18   17.84    6.94
  -8  -1 -19    9.64    3.93
  -8   1 -19   15.59    6.93
  -8   2  26    3.79    4.77
  -8  -2  26    8.75    5.55
  -8  -2  26   -1.50    3.73
   8  -2 -26   12.21    6.25
   8  -2 -26   24.03    9.42
   8   2 -26    2.96    2.44
  -8   2  25    7.31    6.47
  -8  -2  25   12.73    6.15
  -8  -2  25    5.88    3.20
   8  -2 -25    3.22    3.81
   8  -2 -25    6.73    4.07
   8   2 -25    9.04    6.29
  -8   2  24   18.02    7.47
  -8  -2  24    9.29    5.83
  -8  -2  24   11.02    4.13
   8  -2 -24   17.50    7.78
   8  -2 -24    3.26    4.17
   8   2 -24   11.68    5.26
  -8   2  23    5.47    4.18
  -8  -2  23    9.08    6.08
  -8  -2  23   14.95    9.51
   8  -2 -23    8.24    5.41
   8  -2 -23    8.89    4.33
   8   2 -23    0.08    4.39
  -8   2  22    3.83    4.36
  -8  -2  22   -2.75    4.21
  -8  -2  22    7.20    2.77
   8  -2 -22    6.08    3.86
   8  -2 -22   -1.50    3.72
   8   2 -22    8.82    3.23
  -8   2  21   11.33    6.30
  -8  -2  21    5.57    3.77
  -8  -2  21    5.23    3.43
   8  -2 -21    2.22    3.32
   8  -2 -21    1.51    3.88
   8   2 -21   16.11    5.69
  -8   2  20    3.62    4.15
  -8  -2  20    4.52    3.24
  -8  -2  20    4.11    1.77
   8  -2 -20   -0.73    3.09
   8  -2 -20    7.35    6.01
   8   2 -20    2.68    4.93
  -8   2  19   25.71    7.94
  -8  -2  19    8.57    4.23
  -8  -2  19    8.63    4.21
   8  -2 -19    6.68    3.85
   8  -2 -19    7.34    4.14
   8   2 -19   -3.39    3.74
  -8   2  18    0.98    4.50
  -8  -2  18    3.97    3.54
  -8  -2  18    2.66    2.27
   8  -2 -18    6.95    4.69
   8   2 -18    4.84    3.17
  -8  -2  17   11.82    4.80
  -8  -2  17    4.31    3.00
   8  -2 -17    1.08    3.10
   8   2 -17    8.66    4.32
  -8   2  16    7.13    4.06
  -8  -2  16    6.97    3.84
  -8  -2  16    7.29    3.11
   8  -2 -16    5.73    3.07
   8   2 -16    5.76    2.46
  -8   2  15   44.87   10.43
  -8  -2  15   24.80    7.04
  -8  -2  15   39.80    8.13
   8  -2 -15   42.53    8.66
   8   2 -15   43.08   10.03
  -8   2  14    6.37    4.16
  -8  -2  14    8.23    4.57
  -8  -2  14   -0.33    2.60
   8  -2 -14    9.65    3.46
   8   2 -14    3.78    2.66
  -8   2  13    0.78    3.94
  -8  -2  13    4.17    3.67
  -8  -2  13    2.16    2.62
   8  -2 -13    4.35    2.91
   8   2 -13   -2.61    4.05
  -8   2  12    5.72    4.36
  -8  -2  12    1.24    3.26
  -8  -2  12   10.88    4.71
   8  -2 -12    9.29    3.80
   8   2 -12    3.71    2.33
  -8   2  11   71.21   10.37
  -8  -2  11   11.54    5.07
  -8  -2  11   27.56    4.61
   8  -2 -11   22.45    5.77
   8   2 -11   12.72    4.38
  -8   2  10   13.49    5.25
  -8  -2  10    8.09    4.35
  -8  -2  10    4.91    2.58
   8  -2 -10    4.43    2.23
   8   2 -10   13.88    5.10
  -8   2   9   52.20    8.64
  -8  -2   9   37.90    7.05
  -8  -2   9   31.29    4.83
   8  -2  -9   57.37    7.61
   8   2  -9   35.88    7.18
  -8   2   8    5.66    3.75
  -8  -2   8   11.18    6.23
  -8  -2   8   -0.17    2.18
   8  -2  -8    5.07    2.22
   8   2  -8   -4.71    3.55
  -8   2   7   30.57    7.53
  -8  -2   7   28.80    7.57
  -8  -2   7   12.81    4.20
   8  -2  -7   19.79    5.59
   8   2  -7   17.96    4.42
  -8   2   6   15.08    6.19
  -8  -2   6    9.40    4.23
  -8  -2   6    9.62    3.47
   8  -2  -6   13.60    4.78
   8   2  -6   24.63    5.57
  -8   2   5   68.77    8.50
  -8  -2   5   52.03    7.92
  -8  -2   5   62.01    6.97
   8  -2  -5   62.62    6.84
   8   2  -5   65.10   13.83
  -8   2   4    6.52    3.75
  -8  -2   4    6.61    5.69
  -8  -2   4    6.82    4.09
   8  -2  -4    1.37    2.13
   8   2  -4    1.51    1.98
  -8   2   3   28.06    7.43
  -8  -2   3   17.63    6.56
  -8  -2   3   10.93    4.52
   8  -2  -3    6.40    3.46
   8   2  -3   10.59    3.16
  -8   2   2    8.33    3.63
  -8  -2   2    5.36    3.78
  -8  -2   2   15.74    5.20
   8  -2  -2   13.10    4.71
   8   2  -2    7.27    3.79
  -8   2   1    4.68    4.82
  -8  -2   1   13.42    5.74
  -8  -2   1   21.42    5.01
   8  -2  -1   20.34    4.73
   8   2  -1   14.50    6.02
  -8   2   0    5.55    3.70
  -8  -2   0   17.67    6.46
  -8  -2   0   21.16    5.55
   8  -2   0    6.31    1.95
   8   2   0   13.60    5.51
  -8   2  -1    4.16    3.29
  -8  -2  -1    8.42    5.13
  -8  -2  -1    3.83    2.53
   8  -2   1    8.49    3.78
  -8   2  -2    2.40    3.12
  -8  -2  -2    7.37    3.83
  -8  -2  -2    1.80    3.49
   8  -2   2    3.66    1.44
  -8   2  -3    1.51    2.84
  -8  -2  -3   12.45    5.75
  -8  -2  -3    3.47    2.89
   8  -2   3    3.83    1.42
  -8   2  -4    7.64    3.62
  -8  -2  -4    4.21    3.63
  -8  -2  -4    2.23    2.63
   8  -2   4    8.40    2.21
  -8   2  -5   30.36    5.19
  -8  -2  -5   27.66    4.97
   8  -2   5   15.26    3.89
  -8   2  -6   15.50    5.16
  -8  -2  -6   11.03    4.37
   8  -2   6    3.09    1.42
  -8   2  -7   25.61    4.98
  -8  -2  -7   42.00    7.66
   8  -2   7   31.80    6.97
  -8   2  -8   10.48    4.57
  -8  -2  -8    2.01    2.97
   8  -2   8    2.70    1.24
  -8   2  -9    5.75    3.34
  -8  -2  -9   20.11    6.00
   8  -2   9    4.64    3.15
  -8   2 -10    4.31    2.65
  -8  -2 -10   15.00    4.06
   8  -2  10    1.69    3.60
  -8   2 -11   28.09    5.62
  -8  -2 -11   22.05    5.68
   8  -2  11    8.28    4.85
  -8   2 -12    1.35    1.94
  -8  -2 -12   -1.54    3.16
   8  -2  12    9.78    3.81
  -8  -2 -13   11.81    5.46
  -8   2 -13   14.74    5.69
  -8  -2 -14    4.85    3.44
  -8  -2 -15    6.48    4.36
  -8   2 -15    7.48    2.85
  -8  -2 -16    4.81    3.23
  -8   2 -16    0.79    2.21
  -8   2 -16   -1.22    3.57
  -8  -2 -17   11.34    5.52
  -8   2 -17   14.67    6.79
  -8   2 -17   26.05    8.83
  -8  -2 -18    4.20    3.82
  -8   2 -18   -0.30    1.97
  -8  -2 -19   10.00    4.03
  -8   2 -19   -1.89    3.61
  -8   3  25    1.10    4.01
  -8  -3  25    6.02    4.00
  -8  -3  25    5.47    3.53
   8  -3 -25   27.69    9.86
   8   3 -25    5.68    3.30
  -8   3  24    6.04    5.42
  -8  -3  24   10.68    5.70
  -8  -3  24   16.02    5.11
   8  -3 -24   12.33    7.34
   8   3 -24    2.09    2.40
  -8   3  23   23.31    8.78
  -8  -3  23    6.36    3.68
  -8  -3  23    9.68    5.09
   8  -3 -23   10.34    6.31
   8   3 -23    8.48    5.11
  -8   3  22    3.71    5.37
  -8  -3  22   -0.44    3.46
  -8  -3  22   10.86    4.43
   8  -3 -22   20.63    7.29
   8   3 -22    6.88    4.41
  -8   3  21   20.70    8.30
  -8  -3  21    3.96    4.07
  -8  -3  21    5.72    2.65
   8  -3 -21   25.17    8.14
   8   3 -21   -0.08    4.36
  -8   3  20    3.97    4.50
  -8  -3  20    0.84    3.40
  -8  -3  20    2.80    2.19
   8  -3 -20    2.56    3.42
   8   3 -20   28.37    7.49
  -8   3  19    7.15    4.97
  -8  -3  19    2.11    3.12
  -8  -3  19    6.62    3.84
   8  -3 -19   -0.08    3.17
   8   3 -19    4.12    2.81
  -8  -3  18    2.07    2.53
  -8  -3  18    6.65    5.42
   8  -3 -18    9.47    5.57
   8   3 -18   13.68    5.44
  -8   3  17    0.86    3.98
  -8  -3  17    5.23    3.72
  -8  -3  17   12.76    5.25
   8  -3 -17    7.90    4.01
   8   3 -17    9.77    4.58
  -8   3  16    9.79    5.92
  -8  -3  16    2.31    3.40
  -8  -3  16    1.10    2.89
   8  -3 -16   10.03    4.52
   8   3 -16    4.07    3.24
  -8   3  15    5.45    5.84
  -8  -3  15    9.10    5.25
  -8  -3  15    4.33    3.93
   8  -3 -15    7.95    4.19
   8   3 -15    2.47    2.25
  -8   3  14   -1.49    3.78
  -8  -3  14   17.68    7.08
  -8  -3  14    1.10    2.85
   8  -3 -14    7.44    4.99
  -8   3  13   13.63    5.28
  -8  -3  13    7.84    4.74
  -8  -3  13    4.34    2.94
   8  -3 -13   16.54    6.30
  -8   3  12   -0.17    4.60
  -8  -3  12    5.46    3.99
  -8  -3  12    4.21    3.39
   8  -3 -12    4.52    3.13
   8   3 -12    9.88    3.02
  -8   3  11    5.82    4.79
  -8  -3  11   18.90    5.98
  -8  -3  11    1.71    2.87
   8  -3 -11    3.50    4.11
   8   3 -11    5.23    2.53
  -8   3  10   16.78    6.45
  -8  -3  10   12.14    5.61
  -8  -3  10    7.45    4.19
   8  -3 -10   11.52    4.92
   8   3 -10   -1.87    3.90
  -8   3   9   11.97    5.01
  -8  -3   9    6.17    2.87
   8  -3  -9   12.59    4.80
   8   3  -9   13.55    5.41
  -8   3   8    6.66    4.32
  -8  -3   8   12.35    4.83
  -8  -3   8   18.18    5.59
   8  -3  -8    4.16    2.93
   8   3  -8    8.32    3.70
  -8   3   7   13.02    4.72
  -8  -3   7   12.60    5.82
  -8  -3   7    0.81    2.57
   8  -3  -7   14.40    5.01
   8   3  -7   -0.04    3.13
  -8   3   6    1.55    3.65
  -8  -3   6    2.80    3.92
  -8  -3   6    2.21    2.50
   8  -3  -6    2.36    2.77
   8   3  -6    6.99    2.74
  -8   3   5   13.97    5.03
  -8  -3   5    6.39    4.60
  -8  -3   5   19.26    5.77
   8  -3  -5   10.48    3.66
   8   3  -5    9.00    2.63
  -8   3   4    4.13    5.30
  -8  -3   4    7.36    4.16
  -8  -3   4    4.19    3.54
   8  -3  -4    7.38    2.98
   8   3  -4    5.82    2.76
  -8   3   3   17.93    6.12
  -8  -3   3   38.13    7.43
  -8  -3   3   20.18    5.30
   8  -3  -3   19.89    6.25
   8   3  -3   32.71    6.81
  -8   3   2    0.22    3.64
  -8  -3   2   10.24    4.86
  -8  -3   2    6.92    3.17
   8  -3  -2    9.18    2.83
   8   3  -2    7.64    3.59
  -8   3   1    7.57    3.29
  -8  -3   1    5.79    4.18
  -8  -3   1    3.82    2.50
   8  -3  -1   -0.40    2.39
   8   3  -1   11.86    4.94
  -8   3   0    7.11    4.59
  -8  -3   0    5.19    2.50
   8  -3   0    5.50    1.49
   8   3   0    7.72    4.49
  -8   3  -1   27.52    5.08
  -8  -3  -1   62.95    8.39
   8  -3   1   43.65    9.78
   8   3   1   36.78    8.33
  -8   3  -2    6.28    2.77
  -8  -3  -2    6.94    2.79
   8  -3   2    9.34    4.05
   8   3   2    2.46    2.47
  -8   3  -3   12.31    5.35
  -8  -3  -3    5.17    2.98
   8  -3   3    2.46    1.50
  -8   3  -4    2.86    2.58
  -8  -3  -4    7.22    4.00
   8  -3   4    2.41    1.79
  -8   3  -5   14.61    5.53
  -8  -3  -5    9.81    4.69
   8  -3   5   12.81    5.01
  -8   3  -6    6.07    2.79
  -8  -3  -6    9.43    3.71
   8  -3   6   11.23    4.43
  -8   3  -7    1.29    2.33
  -8  -3  -7   17.37    6.61
   8  -3   7    9.62    3.46
   8   3   8    4.61    2.64
  -8   3  -8    7.87    4.21
  -8  -3  -8    3.44    3.04
   8  -3   8    0.95    2.86
   8   3   9   17.08    4.53
  -8   3  -9    1.18    2.36
  -8  -3  -9    5.29    2.92
   8  -3   9    6.83    4.37
   8   3  10    4.44    2.51
  -8   3 -10   10.01    4.64
  -8  -3 -10   16.17    5.55
   8  -3  10    3.45    1.65
   8   3  11    5.14    2.62
  -8   3 -11    5.20    2.77
  -8  -3 -11   16.14    6.39
   8  -3  11    1.55    2.81
   8   3  12    3.93    2.55
  -8  -3 -12   12.86    5.87
   8  -3  12    2.09    3.29
   8   3  13   16.54    4.91
  -8  -3 -13    3.88    3.24
   8  -3  13   14.73    5.91
   8   3  14    2.41    2.25
  -8  -3 -14    4.07    4.03
   8  -3  14    6.00    3.58
   8   3  15   13.67    6.46
  -8  -3 -15    6.51    3.79
  -8   3 -15   17.06    6.87
   8   3  16    8.74    3.13
  -8  -3 -16    6.56    3.85
  -8   3 -16   12.82    6.97
  -8   3 -16    8.83    6.28
   8   3  17    4.76    2.02
  -8  -3 -17   11.69    6.09
  -8   3 -17    6.14    3.21
  -8   3 -17   11.68    4.77
   8   3  18   13.24    5.05
  -8  -3 -18    5.70    5.28
  -8   3 -18    9.85    5.38
  -8   3 -18    8.72    5.52
  -8   4  24    6.48    3.22
  -8  -4  24    9.10    4.54
  -8  -4  24   19.64    9.98
   8  -4 -24   11.57    5.27
   8   4 -24   31.22   11.73
  -8   4  23   -4.78    4.38
  -8  -4  23    5.67    3.35
  -8  -4  23    5.02    3.35
   8  -4 -23    6.77    4.55
   8   4 -23    9.06    3.88
  -8   4  22    4.49    4.32
  -8  -4  22    5.18    3.61
  -8  -4  22    8.42    4.07
   8  -4 -22    2.20    3.84
   8   4 -22    7.60    3.45
  -8   4  21    1.27    4.37
  -8  -4  21    4.01    3.72
  -8  -4  21    7.48    4.12
   8  -4 -21   22.99    7.98
   8   4 -21   10.86    5.26
  -8  -4  20   -0.27    3.69
  -8  -4  20    5.04    5.55
   8   4 -20   12.94    5.28
  -8   4  19    0.54    4.26
  -8  -4  19    6.00    4.18
  -8  -4  19    3.58    3.88
   8  -4 -19    6.53    5.94
   8   4 -19    2.03    4.24
  -8   4  18   14.66    7.14
  -8  -4  18   27.23    7.04
  -8  -4  18   19.31    6.15
   8  -4 -18   16.27    6.42
   8   4 -18    9.75    5.59
  -8   4  17   19.62    7.68
  -8  -4  17   12.03    5.88
  -8  -4  17   20.74    7.40
   8  -4 -17    9.42    4.43
   8   4 -17    9.80    5.00
  -8   4  16    2.01    4.37
  -8  -4  16    6.06    3.98
  -8  -4  16    4.19    4.11
   8  -4 -16    5.77    3.80
   8   4 -16    9.32    4.47
  -8   4  15    8.81    4.86
  -8  -4  15    0.13    3.33
  -8  -4  15   -1.79    3.55
   8  -4 -15    6.22    3.91
   8   4 -15    2.48    2.51
  -8   4  14   29.54    8.51
  -8  -4  14    5.56    3.56
  -8  -4  14    7.44    4.79
   8  -4 -14    6.63    3.73
   8   4 -14    8.00    4.64
  -8   4  13   -0.67    4.45
  -8  -4  13   10.94    5.81
  -8  -4  13    5.71    3.37
   8  -4 -13   -0.11    3.21
   8   4 -13    3.43    3.03
  -8   4  12   12.68    6.76
  -8  -4  12    0.23    4.00
  -8  -4  12    9.53    4.75
   8  -4 -12   20.10    6.15
   8   4 -12    6.52    3.42
  -8   4  11    7.87    4.82
  -8  -4  11    8.41    4.64
  -8  -4  11    4.36    3.44
   8  -4 -11    1.14    3.44
   8   4 -11   11.69    4.62
  -8   4  10   20.65    7.84
  -8  -4  10    9.71    4.47
  -8  -4  10    2.56    2.93
   8  -4 -10   17.28    5.53
   8   4 -10    8.51    5.68
  -8   4   9    8.72    4.73
  -8  -4   9   -4.36    3.78
  -8  -4   9    2.30    3.06
   8  -4  -9    9.58    4.76
   8   4  -9    4.66    2.51
  -8   4   8   10.91    4.88
  -8  -4   8   23.26    7.76
  -8  -4   8   10.01    3.75
   8  -4  -8    1.39    2.96
   8   4  -8   12.17    4.83
  -8   4   7    1.41    4.64
  -8  -4   7    8.88    5.81
  -8  -4   7    2.92    3.14
   8  -4  -7    8.68    3.26
   8   4  -7    4.50    2.79
  -8   4   6   -0.51    4.00
  -8  -4   6    3.26    5.87
  -8  -4   6    4.87    3.26
   8  -4  -6    6.64    3.15
   8   4  -6   -1.85    3.57
  -8   4   5    2.95    3.74
  -8  -4   5    7.68    5.69
  -8  -4   5   -0.60    2.99
   8  -4  -5    4.68    2.79
   8   4  -5    4.04    3.62
  -8   4   4   11.25    5.96
  -8  -4   4    4.35    6.32
  -8  -4   4   13.57    5.26
   8  -4  -4    1.46    2.66
   8   4  -4    9.08    3.59
  -8   4   3   14.49    5.67
  -8  -4   3   13.60    4.69
   8  -4  -3    9.50    3.40
   8   4  -3   13.13    5.20
  -8   4   2   -4.16    3.13
  -8  -4   2    0.92    3.08
   8  -4  -2    5.44    3.67
   8   4  -2    5.25    2.29
  -8   4   1   20.85    6.26
  -8  -4   1   16.09    5.17
   8  -4  -1   16.90    4.77
   8   4  -1   21.97    6.71
  -8   4   0    6.15    3.28
  -8  -4   0    5.54    3.96
   8  -4   0    3.45    1.27
   8   4   0    1.56    1.92
  -8   4  -1   21.40    6.50
  -8  -4  -1   23.12    6.65
   8  -4   1   11.03    3.37
   8   4   1   13.60    4.47
  -8   4  -2   12.50    4.36
  -8  -4  -2   38.55    7.77
   8  -4   2   13.80    4.09
   8   4   2   20.18    6.33
   8   4   3   24.07    8.57
  -8   4  -3    6.81    2.94
  -8  -4  -3   14.18    4.79
   8  -4   3    6.39    2.31
   8   4   3    6.82    4.05
   8   4   4   16.55    5.34
  -8   4  -4   11.24    4.75
  -8  -4  -4    3.97    3.28
   8  -4   4   12.11    5.51
   8   4   4    3.63    2.74
   8   4   5    6.33    3.15
  -8   4  -5    6.10    3.36
  -8  -4  -5    8.13    4.42
   8  -4   5    8.54    3.78
   8   4   6   30.92    7.69
  -8   4  -6   15.20    5.78
  -8  -4  -6   17.20    6.19
   8   4   7   -1.13    2.66
  -8   4  -7    4.80    2.88
  -8  -4  -7    8.33    5.18
   8  -4   7    5.01    1.79
   8   4   8   10.96    3.35
  -8   4  -8   17.52    3.74
  -8  -4  -8   21.75    5.67
   8  -4   8   24.71    7.01
   8   4   9    5.74    2.56
  -8   4  -9    4.87    2.32
  -8  -4  -9    5.96    4.56
   8  -4   9    0.61    2.92
   8   4  10    9.03    3.53
  -8  -4 -10    4.98    4.05
   8  -4  10    4.22    3.00
   8   4  11    8.98    4.88
  -8  -4 -11    6.35    3.82
   8  -4  11   -2.50    3.12
   8   4  12   16.02    5.72
  -8  -4 -12   26.35    8.66
   8  -4  12    7.80    3.20
   8   4  13   10.21    4.55
  -8  -4 -13    7.30    4.49
   8  -4  13    4.07    3.53
   8   4  14    8.66    2.96
  -8  -4 -14   -5.33    3.96
   8  -4  14    4.14    1.91
  -8   4 -14    7.90    4.74
   8   4  15   18.22    6.83
  -8  -4 -15    7.48    3.98
   8  -4  15    5.04    3.18
  -8   4 -15   33.29   11.19
   8   4  16   -1.23    3.22
  -8  -4 -16   10.17    6.49
   8  -4  16    4.09    2.45
  -8   4 -16    4.68    4.48
   8   4  17   16.98    7.41
  -8  -4 -17    8.31    6.35
  -8   4 -17   10.09    5.46
  -8   4 -17   10.59    7.87
  -8   5  23    7.89    5.32
  -8  -5  23   15.25    6.66
  -8  -5  23   -1.19    4.14
   8  -5 -23    3.98    4.56
   8   5 -23    7.98    5.40
  -8   5  22   11.12    7.11
  -8  -5  22    8.27    4.22
  -8  -5  22    9.18    4.83
   8  -5 -22    2.75    4.21
   8   5 -22   16.25    6.69
  -8  -5  21    0.60    3.63
  -8  -5  21   15.98    6.25
   8  -5 -21    5.96    4.59
   8   5 -21   24.53    7.16
  -8   5  20    9.34    7.16
  -8  -5  20   -2.10    3.57
  -8  -5  20   34.54   10.68
   8  -5 -20    1.96    4.22
   8   5 -20    7.58    5.18
  -8   5  19   10.47    6.72
  -8  -5  19    3.15    3.79
  -8  -5  19    6.76    6.49
   8  -5 -19    2.20    4.19
   8   5 -19    7.66    4.70
  -8   5  18    6.63    6.81
  -8  -5  18   15.28    6.41
  -8  -5  18    8.66    6.34
   8  -5 -18   12.67    6.76
   8   5 -18   12.92    6.06
  -8   5  17    7.63    5.15
  -8  -5  17   10.55    4.87
  -8  -5  17    6.27    4.16
   8  -5 -17   13.80    7.72
   8   5 -17   13.52    5.50
  -8   5  16    9.39    5.94
  -8  -5  16   11.94    6.14
  -8  -5  16   14.55    6.60
   8  -5 -16   12.88    6.44
  -8   5  15   16.39    7.95
  -8  -5  15    1.86    3.32
  -8  -5  15    6.69    4.59
   8  -5 -15   10.47    5.16
   8   5 -15    9.26    6.26
  -8  -5  14    7.12    4.29
  -8  -5  14    6.97    4.36
   8  -5 -14    3.42    4.19
   8   5 -14   20.58    6.06
  -8  -5  13   -5.53    3.86
  -8  -5  13    7.73    5.70
   8  -5 -13   10.33    6.55
   8   5 -13    3.94    4.15
  -8   5  12   20.68    8.56
  -8  -5  12    6.40    4.42
  -8  -5  12   14.49    5.30
   8  -5 -12    6.11    3.56
   8   5 -12   17.67    6.54
  -8   5  11    5.55    4.39
  -8  -5  11    6.32    3.07
  -8  -5  11    6.16    4.24
   8  -5 -11    5.75    2.38
   8   5 -11   12.28    6.32
  -8   5  10   12.24    5.21
  -8  -5  10    6.59    5.62
  -8  -5  10   10.75    5.57
   8  -5 -10    6.79    4.01
   8   5 -10    1.41    1.94
  -8   5   9    0.79    3.77
  -8  -5   9    0.58    3.88
  -8  -5   9    7.11    3.73
   8  -5  -9    6.50    4.07
   8   5  -9    3.29    4.08
  -8   5   8   15.67    6.14
  -8  -5   8   10.02    6.29
  -8  -5   8   31.26    8.46
   8  -5  -8   22.13    7.09
   8   5  -8   25.70    5.51
  -8   5   7    6.97    5.50
  -8  -5   7   17.95    7.26
  -8  -5   7    5.04    3.79
   8  -5  -7    4.19    3.87
   8   5  -7   14.62    5.97
  -8   5   6    7.52    3.88
  -8  -5   6    9.55    4.13
   8  -5  -6    7.55    4.03
   8   5  -6    4.27    2.72
  -8   5   5    5.80    3.79
  -8  -5   5    7.10    5.01
   8  -5  -5    1.52    3.72
   8   5  -5   11.57    5.40
  -8   5   4    5.25    3.54
  -8  -5   4    5.45    3.68
   8  -5  -4   -0.95    3.58
   8   5  -4    8.55    3.51
  -8   5   3    6.05    4.66
  -8  -5   3    3.10    3.46
   8  -5  -3    4.65    3.76
   8   5  -3    3.50    1.49
  -8   5   2   -1.75    3.33
  -8  -5   2    4.31    3.71
   8  -5  -2    1.89    3.67
   8   5  -2    6.02    2.92
  -8   5   1    7.09    4.69
  -8  -5   1    0.19    3.25
   8  -5  -1    7.99    3.30
   8   5  -1    5.84    2.18
  -8   5   0    5.32    4.37
  -8  -5   0    7.97    5.76
   8  -5   0    7.64    4.25
   8   5   0    7.50    2.91
   8   5   1   35.70    7.71
  -8   5  -1   47.21    9.81
  -8  -5  -1   24.87    6.40
   8  -5   1   23.07    7.86
   8   5   1   18.38    6.52
   8   5   2    8.10    4.04
  -8   5  -2   -3.39    2.79
  -8  -5  -2    3.72    4.85
   8  -5   2   10.33    5.30
   8   5   2    9.73    3.54
   8   5   3   23.23    6.25
  -8   5  -3   36.74    7.74
  -8  -5  -3   23.93    6.26
   8  -5   3   21.63    5.53
   8   5   3   18.22    6.80
   8   5   4   24.39    6.90
  -8   5  -4   18.48    4.37
  -8  -5  -4   11.24    5.36
   8  -5   4    4.71    2.09
   8   5   4   17.16    2.24
   8   5   5   27.36   12.75
  -8   5  -5    8.61    3.63
  -8  -5  -5   -0.18    3.31
   8  -5   5    6.94    3.33
   8   5   5    4.09    2.49
   8   5   6   17.65    4.94
  -8   5  -6   -0.31    2.24
  -8  -5  -6    3.08    3.92
   8  -5   6    4.70    1.90
   8   5   7   26.98   10.04
  -8   5  -7    9.80    4.09
  -8  -5  -7   -0.05    3.95
   8  -5   7    6.74    3.72
   8   5   8    7.83    3.13
  -8  -5  -8   20.48    7.27
   8  -5   8    4.12    2.22
   8   5   9    4.20    2.72
  -8  -5  -9    3.88    3.97
   8  -5   9    8.54    4.07
   8   5  10    2.00    3.28
  -8  -5 -10   13.03    5.41
   8  -5  10   15.00    5.56
   8   5  11   12.53    5.90
  -8  -5 -11   -1.24    4.37
   8  -5  11    2.34    1.30
   8   5  12   21.41    6.24
  -8  -5 -12    6.52    4.04
   8  -5  12    3.16    3.44
   8   5  13   18.89    6.04
  -8  -5 -13   52.01   16.51
   8  -5  13    4.54    2.08
  -8   5 -13    8.86    5.04
   8   5  14   13.19    7.41
  -8  -5 -14   26.57    9.60
   8  -5  14   11.56    5.81
  -8   5 -14   20.21    8.03
   8   5  15   -5.97    3.23
  -8  -5 -15    5.58    3.44
   8  -5  15   11.88    4.28
  -8   5 -15   10.15    6.54
   8   5  16    2.55    2.12
   8  -5  16   13.06    4.80
  -8   6  21    6.83    5.59
  -8  -6  21    6.65    5.31
  -8  -6  21    0.70    4.31
   8  -6 -21    4.22    5.98
   8   6 -21    8.32    4.19
  -8   6  20    9.85    5.98
  -8  -6  20   11.18    5.83
  -8  -6  20   10.31    5.31
   8  -6 -20   10.50    6.74
   8   6 -20   11.12    4.11
  -8   6  19   11.28    5.95
  -8  -6  19    4.42    3.84
  -8  -6  19    6.93    4.34
   8  -6 -19   -5.80    4.35
   8   6 -19    5.11    4.13
  -8   6  18    9.14    5.76
  -8  -6  18    6.40    3.78
  -8  -6  18    4.70    4.09
   8  -6 -18   -0.72    3.91
  -8   6  17   15.14    7.14
  -8  -6  17   -2.09    3.66
  -8  -6  17   12.10    5.53
   8  -6 -17    0.81    3.92
   8   6 -17    2.79    3.33
  -8   6  16   11.05    6.72
  -8  -6  16    4.96    4.30
  -8  -6  16   13.13    6.60
   8  -6 -16    4.01    4.33
   8   6 -16   11.23    4.74
  -8   6  15   10.06    4.85
  -8  -6  15    0.53    4.26
  -8  -6  15    0.54    3.84
   8  -6 -15   -0.93    4.34
   8   6 -15    6.10    5.18
  -8   6  14   14.16    7.70
  -8  -6  14   12.72    5.29
  -8  -6  14   12.04    6.10
   8  -6 -14   18.12    7.18
   8   6 -14   -3.47    4.60
  -8   6  13    6.73    4.44
  -8  -6  13   10.72    6.11
  -8  -6  13   10.02    6.61
   8  -6 -13    6.65    3.73
   8   6 -13    2.67    2.63
  -8   6  12   10.22    5.74
  -8  -6  12   -2.51    4.19
  -8  -6  12    1.85    4.15
   8  -6 -12   11.74    5.46
   8   6 -12    6.02    5.12
  -8   6  11    8.13    6.44
  -8  -6  11   -2.04    4.30
  -8  -6  11   13.12    5.75
   8  -6 -11    9.60    4.87
   8   6 -11   10.30    5.72
  -8   6  10    8.93    4.84
  -8  -6  10    0.30    3.80
  -8  -6  10    3.39    4.28
   8  -6 -10   10.43    6.76
   8   6 -10    7.70    4.95
  -8   6   9    1.65    3.41
  -8  -6   9    2.15    3.61
  -8  -6   9   12.80    6.68
   8  -6  -9    6.39    6.25
   8   6  -9    9.88    6.10
  -8   6   8    6.70    5.17
  -8  -6   8    5.95    5.56
   8  -6  -8    9.91    5.15
   8   6  -8   12.05    5.76
  -8   6   7   -0.91    4.08
  -8  -6   7    1.88    3.94
   8  -6  -7    9.29    5.17
   8   6  -7   17.92    4.36
  -8   6   6    7.52    5.56
  -8  -6   6   13.80    5.48
   8  -6  -6   23.27    6.91
   8   6  -6   10.51    4.11
  -8   6   5    0.53    3.61
  -8  -6   5    5.27    5.32
   8  -6  -5   11.92    5.98
   8   6  -5    1.22    4.33
  -8   6   4   13.96    5.36
  -8  -6   4   21.90    6.73
   8  -6  -4    4.42    4.11
   8   6  -4    5.53    3.80
   8   6  -3    2.93    2.23
  -8   6   3   12.95    4.68
  -8  -6   3    8.90    5.96
   8  -6  -3   23.07    6.78
   8   6  -3   -0.59    2.24
   8   6  -2   14.13    4.49
  -8   6   2   11.32    4.59
  -8  -6   2   16.79    6.94
   8  -6  -2    0.31    3.98
   8   6  -2   14.23    3.56
   8   6  -1   12.70    3.48
  -8   6   1   10.61    5.46
  -8  -6   1    5.46    3.60
   8  -6  -1    6.84    3.41
   8   6  -1    0.57    2.82
   8   6   0    4.55    2.99
  -8   6   0    8.23    3.03
  -8  -6   0    4.66    4.01
   8  -6   0    4.96    4.64
   8   6   0   19.73    5.26
   8   6   1   11.17    4.65
  -8   6  -1    9.54    5.09
  -8  -6  -1   15.14    7.86
   8  -6   1   -1.41    4.15
   8   6   1   -0.24    2.94
   8   6   2   13.14    6.86
  -8   6  -2   15.14    5.38
  -8  -6  -2   10.31    5.28
   8  -6   2   16.99    5.83
   8   6   2    5.07    1.58
   8   6   3   23.88    9.42
  -8   6  -3   25.21    6.69
  -8  -6  -3    5.63    4.69
   8  -6   3   18.44    8.49
   8   6   3    5.79    1.74
   8   6   4   -0.12    4.41
  -8   6  -4   -1.71    2.30
  -8  -6  -4   13.10    7.02
   8  -6   4    5.20    4.05
   8   6   4   10.89    3.85
   8   6   5    5.57    3.41
  -8   6  -5    3.34    2.45
  -8  -6  -5   10.17    6.97
   8  -6   5   -3.29    3.64
   8   6   5    6.74    2.20
   8   6   6    5.07    2.48
  -8   6  -6    4.51    3.14
  -8  -6  -6   14.74    4.88
   8  -6   6    8.91    4.49
   8   6   7   31.54    9.85
  -8  -6  -7   31.50   10.15
   8  -6   7   29.37   10.67
   8   6   8   12.85    5.43
  -8  -6  -8    4.81    4.83
   8  -6   8    7.87    3.22
   8   6   9    8.11    3.82
  -8  -6  -9    4.40    4.66
   8  -6   9    6.23    3.14
   8   6  10   12.63    4.17
  -8  -6 -10    7.58    4.66
   8  -6  10    0.89    2.83
   8   6  11   10.14    4.63
  -8  -6 -11    9.97    5.23
   8  -6  11    3.38    3.05
  -8   6 -11   16.29    8.71
   8   6  12    6.86    4.16
  -8  -6 -12   13.80    7.06
   8  -6  12    4.82    3.13
  -8   6 -12   10.00    5.57
   8   6  13    2.39    3.71
  -8  -6 -13    0.08    4.26
   8  -6  13   20.42    8.31
  -8   6 -13   11.31    5.37
   8   6  14   16.49    8.89
  -8  -6 -14    3.07    4.49
   8  -6  14    1.17    2.21
  -8   6 -14   18.29    8.59
  -8   7  18   12.08    6.91
  -8  -7  18    1.50    3.86
  -8  -7  18    5.69    4.63
   8  -7 -18   10.17    5.63
   8   7 -18   19.21    8.23
  -8   7  17    7.22    5.13
  -8  -7  17   12.46    6.17
  -8  -7  17   11.11    6.55
   8  -7 -17   10.33    5.88
  -8   7  16    7.66    5.27
  -8  -7  16   -3.28    3.65
  -8  -7  16    4.32    4.58
   8  -7 -16    8.17    4.96
   8   7 -16    6.66    3.33
  -8   7  15    2.68    4.94
  -8  -7  15   -2.97    3.94
  -8  -7  15    7.42    4.57
   8  -7 -15    8.34    6.19
   8   7 -15    6.70    3.95
  -8   7  14    8.36    5.09
  -8  -7  14    6.95    3.77
  -8  -7  14    5.04    4.81
   8  -7 -14   11.77    6.39
   8   7 -14   -1.74    4.92
  -8   7  13   16.61    7.92
  -8  -7  13   14.51    5.58
  -8  -7  13    8.92    6.84
   8  -7 -13    9.79    6.69
   8   7 -13    6.67    3.89
  -8   7  12    3.70    4.71
  -8  -7  12   -0.25    3.72
  -8  -7  12    6.22    5.15
   8  -7 -12    8.86    6.31
   8   7 -12    7.39    3.87
  -8   7  11    2.15    4.06
  -8  -7  11   12.10    5.48
  -8  -7  11    7.16    4.64
   8  -7 -11    1.53    5.05
   8   7 -11   20.58    9.37
  -8   7  10    4.36    3.91
  -8  -7  10    1.65    4.23
  -8  -7  10    5.55    4.68
   8  -7 -10   -3.62    4.49
   8   7 -10   12.49    4.92
  -8   7   9   12.06    5.07
  -8  -7   9   11.76    5.31
   8  -7  -9    9.51    5.12
   8   7  -9    9.68    2.95
  -8   7   8    2.71    5.02
  -8  -7   8   -4.00    3.85
   8  -7  -8   10.39    6.93
   8   7  -8    9.35    4.22
  -8   7   7   10.05    4.52
  -8  -7   7   10.73    5.43
   8  -7  -7    4.72    4.56
   8   7  -7    8.81    3.71
  -8   7   6    3.12    3.56
  -8  -7   6   18.22    6.81
   8  -7  -6    8.28    4.23
   8   7  -5    7.04    3.79
  -8   7   5    6.13    3.23
  -8  -7   5    6.29    4.17
   8  -7  -5   20.12    5.72
   8   7  -5    4.79    2.81
   8   7  -4    5.17    4.50
  -8   7   4    2.76    3.43
  -8  -7   4    9.98    5.09
   8  -7  -4    5.77    4.20
   8   7  -4   14.58    5.37
   8   7  -3   11.95    5.69
  -8   7   3    5.42    3.45
  -8  -7   3    4.71    4.49
   8  -7  -3    2.80    4.05
   8   7  -3    5.61    2.16
   8   7  -2    1.62    2.95
  -8   7   2   12.02    5.47
  -8  -7   2   14.47    7.20
   8  -7  -2   10.94    5.16
   8   7  -2    9.25    3.46
   8   7  -1    9.22    4.48
  -8   7   1    2.81    3.14
  -8  -7   1   13.55    5.55
   8  -7  -1    8.67    4.44
   8   7  -1    7.69    4.14
   8   7   0    6.13    3.52
  -8   7   0    4.06    3.24
  -8  -7   0    6.32    4.32
   8  -7   0    2.47    3.96
   8   7   0    0.01    2.90
   8   7   1    4.22    3.53
  -8   7  -1    6.49    3.96
  -8  -7  -1   21.55    7.18
   8  -7   1    3.49    3.38
   8   7   1    8.77    4.45
   8   7   2   16.41    6.59
  -8   7  -2   16.10    5.91
  -8  -7  -2   18.65    7.80
   8  -7   2   10.61    4.76
   8   7   2   11.00    3.84
  -8   7  -3   17.86    6.39
  -8  -7  -3    5.51    4.62
   8  -7   3    8.33    4.27
   8   7   3    4.69    3.77
   8   7   4   10.59    3.83
  -8   7  -4    3.88    2.77
  -8  -7  -4   10.00    4.75
   8  -7   4    6.18    3.20
   8   7   4    2.33    2.93
   8   7   5    8.73    4.42
  -8  -7  -5    3.38    4.80
   8  -7   5    5.50    3.23
   8   7   6   -0.42    4.59
  -8  -7  -6    5.89    4.73
   8  -7   6   16.41    5.56
   8   7   7   20.10   10.16
  -8  -7  -7    5.67    4.60
   8  -7   7   16.78    6.17
   8   7   8    1.22    5.03
  -8  -7  -8    9.43    5.42
   8  -7   8    3.48    2.37
   8   7   9    7.46    4.86
  -8  -7  -9    3.39    5.15
   8  -7   9    8.36    3.47
  -8   7  -9   11.71    7.10
   8   7  10   13.81    5.47
  -8  -7 -10   16.29    7.59
   8  -7  10   12.50    5.53
  -8   7 -10    3.24    5.48
   8   7  11    9.57    5.52
  -8  -7 -11   15.39    6.70
   8  -7  11   10.71    3.52
  -8   7 -11    0.88    4.81
  -8   8  15    1.97    4.27
  -8  -8  15   -0.04    2.39
  -8   8  14   13.00    6.07
  -8  -8  14   11.73    5.87
  -8  -8  14    7.72    5.06
   8  -8 -14    7.77    5.78
   8   8 -14    9.03    3.88
  -8   8  13    2.22    4.87
  -8  -8  13   17.88    7.78
  -8  -8  13   -2.02    4.21
   8  -8 -13    3.53    5.34
   8   8 -13    7.15    3.99
  -8   8  12    4.09    4.23
  -8  -8  12    5.87    4.67
  -8  -8  12    5.88    4.74
   8  -8 -12    7.61    4.84
   8   8 -12    6.20    3.08
  -8   8  11    3.52    4.21
  -8  -8  11   16.12    7.28
   8  -8 -11   -2.49    4.50
   8   8 -11    4.46    3.56
  -8   8  10   13.88    7.17
  -8  -8  10   -1.82    4.18
   8  -8 -10    4.02    6.01
   8   8 -10    4.16    2.49
  -8   8   9   -2.52    3.79
  -8  -8   9    2.98    4.37
   8  -8  -9    6.27    5.98
   8   8  -9   10.04    3.78
  -8   8   8    3.25    4.12
  -8  -8   8    7.67    6.67
   8   8  -8   22.91    7.49
  -8   8   7    9.24    4.87
  -8  -8   7    1.82    4.48
   8  -8  -7   -0.24    4.67
   8   8  -7    4.65    3.87
   8   8  -6   23.50    7.65
  -8   8   6    1.15    3.71
  -8  -8   6   12.88    7.81
   8  -8  -6    4.58    4.91
   8   8  -6    5.88    4.01
   8   8  -5    6.72    4.82
  -8   8   5   10.61    6.13
  -8  -8   5   27.40   10.66
   8  -8  -5    7.04    5.43
   8   8  -5    3.51    2.23
   8   8  -4    5.87    3.55
  -8   8   4    7.83    4.09
  -8  -8   4    4.12    4.66
   8  -8  -4    8.22    2.78
   8   8  -4    1.23    3.81
   8   8  -3    2.96    4.35
  -8   8   3    7.68    4.94
  -8  -8   3    4.01    4.52
   8  -8  -3    6.92    5.08
   8   8  -3    2.14    2.28
   8   8  -2   11.93    4.40
  -8   8   2    1.14    3.32
  -8  -8   2   13.83    7.50
   8  -8  -2    4.34    4.40
   8   8  -2    2.67    2.22
   8   8  -1   10.23    8.11
  -8   8   1    5.00    3.18
  -8  -8   1    8.49    5.46
   8  -8  -1    5.58    3.02
   8   8  -1   -1.68    3.20
   8   8   0    8.98    5.56
  -8   8   0    4.33    3.10
  -8  -8   0   11.34    6.92
   8  -8   0    2.84    3.53
   8   8   0    8.71    3.56
   8   8   1    7.41    3.66
  -8   8  -1    1.70    3.05
  -8  -8  -1    3.72    4.54
   8  -8   1    1.73    3.47
   8   8   1   -3.38    2.85
   8   8   2    7.52    3.29
  -8   8  -2    0.68    2.61
  -8  -8  -2   18.76    8.96
   8  -8   2   -1.49    3.98
   8   8   2    5.26    1.89
   8   8   3    9.93    7.14
  -8  -8  -3   20.44    9.16
   8  -8   3   -0.45    3.82
   8   8   4   -0.40    4.07
  -8  -8  -4   16.71    7.35
   8  -8   4   -1.74    4.00
   8   8   5    3.95    5.06
  -8  -8  -5    1.78    4.58
   8  -8   5    5.10    3.54
   8   8   6    3.16    3.18
  -8  -8  -6    4.84    4.84
   8  -8   6   21.35    9.06
   8   8   7   -0.74    4.23
  -8  -8  -7    5.17    4.85
   8  -8   7    5.19    4.60
  -8   8  -7    4.04    8.69
  -8   9   8    8.16    4.82
  -8  -9   8    1.42    5.30
   8   9  -7    2.10    2.47
  -8   9   7    9.34    4.60
  -8  -9   7    7.40    5.58
   8  -9  -7   11.17    6.14
   8   9  -7   11.20    4.76
   8   9  -6   19.03    6.92
  -8   9   6    8.35    4.60
  -8  -9   6   12.27    6.41
   8  -9  -6    4.84    5.35
   8   9  -6    1.42    1.47
   8   9  -5   14.80    5.69
  -8   9   5    4.13    3.88
  -8  -9   5    4.56    5.61
   8  -9  -5   12.25    7.72
   8   9  -5   11.09    4.17
   8   9  -4    3.39    3.62
  -8   9   4   11.91    6.05
  -8  -9   4   -2.79    5.20
   8  -9  -4   18.97    9.31
   8   9  -4    4.59    5.66
   8   9  -3    5.92    4.70
  -8   9   3   17.17    7.15
  -8  -9   3   -4.60    5.42
   8  -9  -3   11.05    5.78
   8   9  -3    0.59    3.00
   8   9  -2    6.86    3.78
  -8   9   2    5.32    4.54
  -8  -9   2    1.84    5.28
   8  -9  -2    2.46    2.92
   8   9  -2    5.15    2.77
   8   9  -1   14.13    5.34
  -8   9   1    4.58    4.41
  -8  -9   1   14.26    7.30
   8  -9  -1    3.50    2.86
   8   9  -1    0.22    2.17
   8   9   0   13.23    5.48
  -8   9   0    9.93    4.72
  -8  -9   0   18.84    9.18
   8  -9   0    9.82    5.80
   8   9   0    3.52    2.26
   8   9   1   14.64    6.55
  -8  -9  -1   15.16    8.38
   8  -9   1    8.71    4.38
  -9   0  24    7.58    4.99
   9   0 -24   24.15   10.14
  -9   0  23    2.61    4.51
   9   0 -23    6.68    3.62
  -9   0  22    0.52    4.53
   9   0 -22    9.45    4.09
  -9   0  21    1.36    3.72
   9   0 -21   -0.24    3.02
  -9   0  20    4.58    4.48
   9   0 -20    9.27    4.94
  -9   0  19    8.95    4.64
   9   0 -19   17.38    6.20
  -9   0  18   21.68    8.56
   9   0 -18   18.60    9.45
  -9   0  17    1.82    3.84
   9   0 -17    7.08    3.64
  -9   0  16    8.77    4.75
   9   0 -16   -1.48    4.52
  -9   0  15    7.58    4.55
   9   0 -15    4.41    3.07
  -9   0  14    5.20    3.65
   9   0 -14    5.44    4.80
  -9   0  13    2.95    3.72
   9   0 -13   -1.36    3.76
  -9   0  12    7.45    6.46
   9   0 -12    8.43    5.03
  -9   0  11    9.52    4.36
   9   0 -11    0.76    2.35
  -9   0  10    7.45    5.60
   9   0 -10   12.73    6.21
  -9   0   9   11.96    5.37
   9   0  -9   10.46    6.20
  -9   0   8    6.10    4.40
  -9   0   7   12.55    5.99
  -9   0   6   19.95    7.45
  -9   0   5    8.87    6.17
  -9   0   4   10.68    4.35
  -9   0   3   -3.22    3.72
  -9   0   2   21.05    7.19
  -9   0   1    3.09    3.53
  -9   0   0    2.35    3.39
  -9   0  -1    4.10    3.58
  -9   0  -2    6.63    4.64
  -9   0  -3    3.67    3.18
  -9   0  -4    8.47    4.85
  -9   0  -5    1.73    2.91
  -9   0  -6    5.92    4.19
  -9   0  -7   17.99    6.04
  -9   0  -8    1.90    3.03
  -9   0  -9    3.82    3.28
  -9   0 -10   13.91    5.22
  -9   0 -11   11.87    4.90
  -9   0 -12    7.49    4.48
  -9   0 -13   10.50    4.89
  -9   1  23   17.41    8.06
  -9  -1  23    0.94    4.32
  -9  -1  23    4.67    2.87
   9  -1 -23    8.51    4.19
   9   1 -23   -2.29    4.38
  -9   1  22   23.09    9.54
  -9  -1  22   12.67    7.16
  -9  -1  22    1.42    2.00
   9  -1 -22    6.58    3.50
   9   1 -22   -0.06    3.20
  -9   1  21   -0.02    4.38
  -9  -1  21    2.08    3.88
  -9  -1  21    1.74    1.94
   9  -1 -21    9.77    4.56
   9   1 -21   11.51    5.31
  -9   1  20    7.77    6.78
  -9  -1  20   16.20    6.99
  -9  -1  20   11.72    4.95
   9  -1 -20    3.90    2.82
   9  -1 -20   20.36    7.02
   9   1 -20    3.84    3.52
  -9   1  19    1.47    4.18
  -9  -1  19    5.74    4.33
  -9  -1  19   -0.32    2.48
   9  -1 -19    8.99    3.98
   9  -1 -19    1.31    2.63
   9   1 -19    8.91    4.13
  -9   1  18    1.18    3.80
  -9  -1  18    9.74    5.86
  -9  -1  18    1.04    1.73
   9  -1 -18    4.09    3.83
   9  -1 -18    7.50    3.14
   9   1 -18   13.17    8.78
  -9   1  17   11.00    6.22
  -9  -1  17    7.49    3.96
   9  -1 -17    1.83    2.52
   9  -1 -17   15.39    7.13
   9   1 -17   12.02    7.09
  -9   1  16   12.41    6.43
  -9  -1  16    3.02    4.16
   9  -1 -16    1.67    2.40
   9  -1 -16   16.42    6.61
   9   1 -16   21.99    6.78
  -9   1  15   26.42    8.68
  -9  -1  15    2.60    4.32
  -9  -1  15    6.81    2.80
   9  -1 -15    2.32    2.23
   9  -1 -15   19.06    6.82
   9   1 -15    5.26    2.47
  -9   1  14    3.00    3.79
  -9  -1  14    1.26    4.23
  -9  -1  14    0.37    2.16
   9  -1 -14    9.43    4.40
   9   1 -14   17.46    6.94
  -9   1  13    8.88    6.35
  -9  -1  13   -2.38    3.53
  -9  -1  13   14.85    3.63
   9  -1 -13    8.81    3.93
   9   1 -13   19.49    7.20
  -9   1  12   16.63    5.65
  -9  -1  12   -1.27    3.15
  -9  -1  12    2.64    2.01
   9  -1 -12    4.04    2.43
   9   1 -12    7.87    2.99
  -9   1  11    2.58    4.06
  -9  -1  11    4.87    4.88
  -9  -1  11    2.48    2.41
   9  -1 -11    3.96    2.27
   9   1 -11    9.52    4.70
  -9   1  10   16.56    5.66
  -9  -1  10    8.03    5.74
  -9  -1  10   13.27    4.42
   9  -1 -10   11.25    4.73
   9   1 -10   11.80    6.15
  -9   1   9    7.58    4.12
  -9  -1   9    4.62    3.91
  -9  -1   9    3.71    2.10
   9  -1  -9    8.76    3.94
   9   1  -9   16.15    5.47
  -9   1   8   -0.67    3.71
  -9  -1   8    3.00    3.82
  -9  -1   8    3.43    1.89
   9  -1  -8    1.99    2.02
   9   1  -8   12.40    5.64
  -9   1   7    0.37    3.85
  -9  -1   7    4.70    4.56
  -9  -1   7   -0.13    1.59
   9  -1  -7   -0.99    1.74
   9   1  -7   13.77    6.02
  -9   1   6    8.13    6.07
  -9  -1   6    4.09    3.99
  -9  -1   6    9.14    3.21
   9  -1  -6    3.62    1.92
   9   1  -6   -1.18    4.13
  -9   1   5    0.42    3.91
  -9  -1   5    7.58    4.52
  -9  -1   5    3.08    1.95
   9  -1  -5    4.46    2.11
   9   1  -5   11.27    5.79
  -9   1   4   11.77    4.41
  -9  -1   4   -2.14    4.21
  -9  -1   4    4.24    2.55
   9  -1  -4    2.91    1.39
  -9   1   3    0.73    3.06
  -9  -1   3    1.87    4.00
  -9  -1   3    1.77    1.81
   9  -1  -3    6.90    2.68
  -9   1   2    4.59    3.36
  -9  -1   2    4.36    3.95
  -9  -1   2    5.27    3.17
   9  -1  -2    0.41    0.92
  -9   1   1   12.41    4.78
  -9  -1   1    7.79    5.55
  -9  -1   1    6.99    2.69
   9  -1  -1    6.43    2.20
  -9   1   0   16.12    6.12
  -9  -1   0   11.08    6.18
  -9  -1   0    6.74    2.56
   9  -1   0    6.18    2.48
  -9   1  -1    6.61    4.52
  -9  -1  -1    0.40    3.31
  -9  -1  -1    0.90    1.66
   9  -1   1    8.64    2.69
  -9   1  -2    8.14    3.57
  -9  -1  -2    6.97    3.67
  -9  -1  -2    2.65    1.84
   9  -1   2    0.50    1.60
  -9   1  -3   14.71    4.18
  -9  -1  -3   10.29    5.38
  -9  -1  -3    1.08    1.74
   9  -1   3    5.43    2.65
  -9   1  -4    2.28    2.76
  -9  -1  -4   23.19    6.95
  -9  -1  -4    4.64    1.94
  -9   1  -5   11.88    5.28
  -9  -1  -5   10.36    5.82
  -9  -1  -5    8.93    3.90
   9  -1   5    5.84    3.31
  -9   1  -6    3.66    2.78
  -9  -1  -6    5.80    3.37
  -9  -1  -6    2.31    2.62
  -9   1  -7    7.28    3.44
  -9  -1  -7   10.04    4.43
  -9  -1  -7    1.99    2.02
  -9   1  -8   11.53    5.37
  -9  -1  -8    6.75    2.33
  -9  -1  -8    7.68    3.25
  -9   1  -9   17.16    5.40
  -9  -1  -9   10.43    3.74
  -9   1 -10   12.21    5.66
  -9  -1 -10    7.15    3.89
  -9   1 -11    5.04    3.78
  -9  -1 -11    0.96    3.10
  -9   1 -12    0.13    2.09
  -9  -1 -12    9.08    3.80
  -9  -1 -13   13.14    5.58
  -9  -1 -14    6.77    3.61
  -9   2  23    6.49    4.51
  -9  -2  23    4.49    4.46
  -9  -2  23    4.85    3.01
   9  -2 -23   -2.03    3.38
   9   2 -23    5.26    2.68
  -9   2  22   12.84    5.53
  -9  -2  22   10.48    6.55
  -9  -2  22    5.75    2.78
   9  -2 -22   -2.58    3.11
   9   2 -22    0.61    5.09
  -9   2  21   17.06    6.13
  -9  -2  21   11.59    6.15
  -9  -2  21    5.55    3.30
   9  -2 -21   -0.14    2.89
   9   2 -21   -1.60    3.47
  -9   2  20   17.10    7.66
  -9  -2  20    4.07    3.87
  -9  -2  20    3.13    2.62
   9  -2 -20    8.19    4.71
   9   2 -20    4.20    4.26
  -9   2  19    8.53    7.04
  -9  -2  19   12.89    5.99
  -9  -2  19    2.53    2.07
   9  -2 -19    4.16    3.46
   9   2 -19   15.58    5.50
  -9  -2  18    4.48    3.98
  -9  -2  18   12.31    4.19
   9  -2 -18    3.37    3.07
   9   2 -18   22.15    7.85
  -9   2  17   16.71    6.68
  -9  -2  17   12.75    5.38
   9  -2 -17   10.05    5.48
   9   2 -17    4.90    2.83
  -9   2  16    8.16    4.49
  -9  -2  16    4.99    3.22
   9  -2 -16   11.29    5.71
   9   2 -16   16.53    5.05
  -9   2  15    5.53    4.40
  -9  -2  15   17.46    5.22
  -9  -2  15    2.85    2.61
   9  -2 -15    9.82    4.39
   9   2 -15   10.54    4.44
  -9   2  14    1.23    4.16
  -9  -2  14   13.31    6.80
  -9  -2  14   12.10    4.57
   9  -2 -14    2.89    2.59
   9   2 -14    9.67    5.22
  -9   2  13    4.54    4.21
  -9  -2  13    0.91    4.45
  -9  -2  13    2.51    2.66
   9  -2 -13    3.62    1.67
  -9   2  12    5.75    4.21
  -9  -2  12   18.14    4.07
   9  -2 -12   11.73    3.63
   9   2 -12    8.59    4.54
  -9   2  11   17.83    5.15
  -9  -2  11   39.23    8.84
  -9  -2  11    7.65    4.59
   9  -2 -11    0.87    2.47
   9   2 -11   10.54    4.79
  -9   2  10   11.74    4.08
  -9  -2  10    4.52    5.03
   9  -2 -10   -1.15    2.16
   9   2 -10   17.20    4.74
  -9   2   9    5.65    4.37
  -9  -2   9    3.51    3.57
  -9  -2   9    6.40    4.38
   9  -2  -9    0.57    2.13
   9   2  -9    6.68    5.03
  -9   2   8    2.69    4.14
  -9  -2   8    8.02    3.93
  -9  -2   8    8.59    4.41
   9  -2  -8    8.58    3.51
   9   2  -8   -1.71    4.24
  -9   2   7    0.41    3.86
  -9  -2   7    7.76    4.40
  -9  -2   7   15.56    5.80
   9  -2  -7    6.00    2.53
   9   2  -7    6.18    3.97
  -9   2   6    1.80    3.68
  -9  -2   6    8.87    5.49
  -9  -2   6    2.65    2.94
   9  -2  -6    4.28    2.46
   9   2  -6    8.29    3.10
  -9   2   5    1.93    3.89
  -9  -2   5    6.29    5.82
  -9  -2   5    3.37    2.97
   9  -2  -5    3.20    2.71
   9   2  -5   13.85    4.74
  -9   2   4    3.61    2.40
  -9  -2   4    2.51    2.97
   9  -2  -4    5.43    2.48
   9   2  -4    4.88    2.89
  -9   2   3    6.98    3.71
  -9  -2   3   18.33    7.35
  -9  -2   3    1.01    2.76
   9  -2  -3   -0.28    2.03
   9   2  -3   10.46    4.94
  -9   2   2   -0.49    3.24
  -9  -2   2   10.35    4.89
  -9  -2   2    7.72    3.32
   9  -2  -2    8.26    2.82
   9   2  -2    3.33    3.82
  -9   2   1    7.52    3.26
  -9  -2   1    6.40    4.25
  -9  -2   1    1.87    2.77
   9  -2  -1    4.06    2.65
  -9   2   0    4.57    3.27
  -9  -2   0    3.15    4.06
  -9  -2   0    5.93    3.00
   9  -2   0   -1.70    1.86
  -9   2  -1    9.46    4.33
  -9  -2  -1    8.54    3.23
  -9  -2  -1   12.52    5.72
   9  -2   1   10.44    3.43
  -9   2  -2    2.41    2.78
  -9  -2  -2    9.24    4.76
  -9  -2  -2    1.49    2.69
   9  -2   2    3.20    1.92
  -9   2  -3   30.61    7.45
  -9  -2  -3   18.91    5.18
  -9  -2  -3   12.48    4.74
   9  -2   3   11.64    3.57
  -9   2  -4   11.89    4.27
  -9  -2  -4    4.88    3.67
  -9  -2  -4    6.50    3.33
   9  -2   4    6.42    2.27
  -9   2  -5    8.14    4.76
  -9  -2  -5    7.62    5.34
  -9  -2  -5    2.21    2.68
   9  -2   5    2.81    1.39
  -9   2  -6    0.54    2.80
  -9  -2  -6    3.63    5.23
  -9  -2  -6    9.25    4.47
   9  -2   6    8.18    4.19
  -9   2  -7   17.99    6.21
  -9  -2  -7    8.96    4.33
  -9  -2  -7    7.66    3.13
   9  -2   7    3.13    1.97
  -9   2  -8    6.61    4.48
  -9  -2  -8    6.89    3.34
  -9  -2  -8   -0.91    2.37
   9  -2   8    5.88    3.00
  -9   2  -9    4.85    3.41
  -9  -2  -9    5.64    3.43
  -9  -2  -9    1.24    2.68
   9  -2   9    3.94    1.96
  -9   2 -10   -1.30    2.22
  -9  -2 -10    6.58    4.42
  -9  -2 -10    0.92    3.65
   9  -2  10    2.44    1.71
  -9  -2 -11   14.02    5.55
  -9  -2 -11    2.27    2.80
  -9  -2 -12    1.52    3.23
  -9  -2 -12   -0.45    3.15
  -9   2 -12    3.50    2.55
  -9  -2 -13    0.77    3.24
  -9  -2 -13   14.86    6.17
  -9   2 -13    0.66    2.62
  -9  -2 -14    6.30    3.49
  -9  -2 -14    2.58    3.12
  -9   2 -14    5.99    3.49
  -9  -2 -15   -0.36    2.74
  -9  -2 -15    1.32    3.13
  -9   3  22   14.51    5.10
  -9  -3  22   18.23    7.67
  -9  -3  22   10.70    4.71
   9  -3 -22    5.05    5.42
   9   3 -22    9.79    4.70
  -9   3  21   15.29    7.61
  -9  -3  21    4.64    4.38
  -9  -3  21   10.39    5.00
   9  -3 -21   18.16    7.62
   9   3 -21    2.30    2.99
  -9   3  20   -4.08    4.71
  -9  -3  20   -2.88    3.49
  -9  -3  20    3.37    3.24
   9  -3 -20    0.58    3.29
   9   3 -20    4.68    3.35
  -9   3  19   16.06    8.10
  -9  -3  19   18.74    7.28
  -9  -3  19    9.27    4.98
   9  -3 -19    2.64    3.44
   9   3 -19   -1.11    4.92
  -9   3  18   12.46    5.75
  -9  -3  18    1.52    3.55
  -9  -3  18    5.54    2.47
   9  -3 -18   10.01    5.85
   9   3 -18    5.55    4.99
  -9   3  17    0.62    4.48
  -9  -3  17    9.28    4.40
  -9  -3  17    2.52    4.07
   9  -3 -17    8.76    4.64
   9   3 -17    2.50    2.07
  -9   3  16   17.54    8.10
  -9  -3  16    7.70    4.11
  -9  -3  16   19.13    6.71
   9  -3 -16    6.72    4.73
   9   3 -16    8.68    3.25
  -9  -3  15   15.25    5.98
  -9  -3  15    5.58    3.99
   9  -3 -15   -1.79    2.80
   9   3 -15   -2.16    4.53
  -9   3  14    5.37    4.71
  -9  -3  14    2.55    3.63
  -9  -3  14    4.38    3.36
   9  -3 -14   -0.76    2.73
   9   3 -14    8.99    3.89
  -9   3  13    4.64    4.29
  -9  -3  13   16.62    5.11
  -9  -3  13    7.12    5.14
   9  -3 -13    4.74    2.03
   9   3 -13    6.46    4.85
  -9   3  12    5.82    3.69
  -9  -3  12    5.05    4.29
  -9  -3  12    7.37    3.46
   9  -3 -12    9.04    3.34
   9   3 -12    3.98    3.34
  -9   3  11   17.78    7.22
  -9  -3  11    9.31    6.30
  -9  -3  11   11.42    4.16
   9  -3 -11   -2.61    2.43
   9   3 -11    1.48    3.17
  -9   3  10    6.09    4.53
  -9  -3  10    8.66    4.69
  -9  -3  10    1.66    2.45
   9  -3 -10   20.55    5.67
   9   3 -10    2.66    3.18
  -9   3   9    0.60    3.70
  -9  -3   9    8.13    4.53
  -9  -3   9   -1.35    2.31
   9  -3  -9   12.76    4.48
   9   3  -9   -2.05    4.35
  -9   3   8    0.58    3.73
  -9  -3   8   11.98    5.13
  -9  -3   8    5.79    3.48
   9  -3  -8   13.78    3.96
   9   3  -8    3.19    2.81
  -9   3   7    0.82    3.64
  -9  -3   7    1.82    3.73
  -9  -3   7    1.80    2.35
   9  -3  -7    7.63    4.35
   9   3  -7    6.81    3.46
  -9   3   6    6.75    3.98
  -9  -3   6    6.03    4.26
  -9  -3   6    8.47    4.18
   9  -3  -6    9.71    4.95
   9   3  -6    9.26    4.67
  -9   3   5    3.60    3.40
  -9  -3   5   10.78    6.98
  -9  -3   5    5.49    3.64
   9  -3  -5    1.77    2.27
   9   3  -5    9.96    4.68
  -9   3   4    4.75    4.90
  -9  -3   4   15.66    6.26
  -9  -3   4   11.36    4.29
   9  -3  -4    1.61    1.80
   9   3  -4    5.02    3.15
  -9   3   3    4.03    3.30
  -9  -3   3   11.44    5.11
  -9  -3   3   15.43    4.46
   9  -3  -3    4.28    2.21
  -9   3   2    8.24    3.74
  -9  -3   2   14.23    5.66
  -9  -3   2   12.90    3.45
   9  -3  -2    5.05    2.44
   9   3  -2   10.20    4.74
  -9   3   1    3.32    3.27
  -9  -3   1   23.09    6.82
  -9  -3   1    9.60    4.39
   9  -3  -1    6.31    2.98
   9   3  -1    7.69    2.83
  -9   3   0   16.32    5.41
  -9  -3   0    7.73    4.52
  -9  -3   0    6.87    3.69
   9  -3   0    6.05    3.07
   9   3   0    1.15    3.25
  -9   3  -1    3.76    3.24
  -9  -3  -1    8.02    4.47
  -9  -3  -1    0.70    2.46
   9  -3   1    2.20    2.12
  -9   3  -2    0.07    2.98
  -9  -3  -2   26.39    7.14
  -9  -3  -2    8.61    4.20
   9  -3   2    1.73    1.45
  -9   3  -3    4.83    3.16
  -9  -3  -3   18.39    6.36
  -9  -3  -3    3.81    2.83
   9  -3   3    5.92    3.67
  -9   3  -4   14.83    5.65
  -9  -3  -4   33.84    8.67
  -9  -3  -4   34.92    7.87
   9  -3   4   21.81    5.43
  -9   3  -5   11.00    5.62
  -9  -3  -5    5.30    4.21
   9  -3   5    0.85    1.89
  -9   3  -6    5.42    3.25
  -9  -3  -6   13.69    5.30
   9  -3   6   30.16   12.46
  -9   3  -7    7.03    3.18
  -9  -3  -7    0.01    3.45
   9  -3   7    2.67    2.18
  -9   3  -8   15.16    5.81
  -9  -3  -8    7.13    4.43
   9  -3   8   16.58    6.34
  -9   3  -9    5.80    2.89
  -9  -3  -9    8.74    4.67
   9  -3   9    2.47    2.15
  -9  -3 -10    0.99    3.16
   9  -3  10   14.14    4.40
  -9  -3 -11   12.06    5.71
   9  -3  11   13.31    5.10
  -9  -3 -12    3.51    4.37
   9  -3  12    4.80    2.68
  -9  -3 -13    0.80    3.14
   9  -3  13    4.19    3.30
  -9  -3 -14    5.26    3.73
  -9   3 -14   11.41    5.19
  -9  -4  21    2.83    4.95
  -9  -4  21    8.49    5.76
   9  -4 -21    2.11    3.84
   9   4 -21   -5.95    4.76
  -9   4  20    3.60    5.31
  -9  -4  20    1.23    4.24
  -9  -4  20   14.61    6.21
   9  -4 -20   -1.00    3.60
   9   4 -20   14.81    7.61
  -9  -4  19   12.13    6.48
  -9  -4  19   -2.11    3.53
   9  -4 -19    4.32    6.29
   9   4 -19   11.41    5.63
  -9   4  18    7.56    5.68
  -9  -4  18   14.08    6.44
  -9  -4  18    9.68    5.66
   9  -4 -18    7.87    5.46
   9   4 -18   19.34    8.15
  -9   4  17   11.86    6.06
  -9  -4  17    6.93    4.36
  -9  -4  17    6.00    3.67
   9  -4 -17   17.49    7.26
   9   4 -17    0.40    3.88
  -9   4  16   13.70    7.89
  -9  -4  16    4.20    3.66
  -9  -4  16   -3.56    3.54
   9  -4 -16    1.65    3.33
  -9   4  15    5.88    4.64
  -9  -4  15   -2.42    4.02
  -9  -4  15    6.32    3.79
   9  -4 -15    4.35    3.41
   9   4 -15   -0.35    4.05
  -9   4  14   28.38   10.78
  -9  -4  14   19.74    7.27
  -9  -4  14   -0.07    3.31
   9  -4 -14    6.84    2.93
   9   4 -14    7.52    2.98
  -9   4  13    2.00    4.63
  -9  -4  13    5.60    4.10
  -9  -4  13    1.47    3.10
   9  -4 -13   11.07    6.38
   9   4 -13    5.31    2.74
  -9   4  12    4.76    5.07
  -9  -4  12    2.27    3.88
  -9  -4  12    4.84    3.63
   9  -4 -12    2.36    3.28
   9   4 -12    6.12    3.56
  -9   4  11    2.99    4.39
  -9  -4  11    1.73    4.17
  -9  -4  11   10.58    5.69
   9  -4 -11   -0.73    3.33
   9   4 -11   11.18    3.37
  -9   4  10   15.65    7.57
  -9  -4  10    6.94    4.68
  -9  -4  10    2.26    3.41
   9  -4 -10    5.51    3.53
   9   4 -10   25.34    8.55
  -9   4   9    9.35    4.74
  -9  -4   9   -1.70    4.17
  -9  -4   9    3.95    3.53
   9  -4  -9   -0.31    3.18
   9   4  -9    5.86    3.35
  -9   4   8   13.81    5.21
  -9  -4   8    3.52    4.07
  -9  -4   8    8.04    5.26
   9  -4  -8   17.81    6.02
   9   4  -8    7.32    2.87
  -9   4   7    2.33    3.52
  -9  -4   7    5.01    3.57
  -9  -4   7    5.92    5.08
   9  -4  -7    7.57    3.70
   9   4  -7   11.15    3.89
  -9   4   6    6.25    3.00
  -9  -4   6    7.20    4.25
  -9  -4   6    5.69    4.43
   9  -4  -6    8.97    4.90
   9   4  -6   -2.96    3.53
  -9   4   5    9.30    6.62
  -9  -4   5    3.34    4.41
  -9  -4   5    6.22    3.66
   9  -4  -5    0.93    2.84
   9   4  -5    5.08    1.89
  -9   4   4   11.74    6.87
  -9  -4   4   11.95    6.31
  -9  -4   4    9.61    4.86
   9  -4  -4    6.24    3.42
   9   4  -4    4.88    2.73
  -9   4   3    7.94    5.68
  -9  -4   3    7.18    5.24
  -9  -4   3    2.44    3.17
   9  -4  -3    8.87    4.28
   9   4  -3   14.59    6.17
  -9   4   2    9.83    5.37
  -9  -4   2    4.68    3.18
  -9  -4   2   12.67    4.51
   9  -4  -2    4.00    3.55
   9   4  -2    3.25    2.49
  -9   4   1    1.64    3.17
  -9  -4   1   23.15    6.92
  -9  -4   1    3.08    3.28
   9  -4  -1    4.73    2.94
   9   4  -1    9.20    3.29
  -9   4   0    0.75    3.29
  -9  -4   0    7.52    3.82
   9  -4   0   13.09    4.82
   9   4   0    5.75    3.93
  -9   4  -1    2.82    3.04
  -9  -4  -1    9.29    5.35
   9  -4   1    8.49    3.09
   9   4   1   11.46    4.99
  -9   4  -2    5.53    4.51
  -9  -4  -2    0.88    3.20
   9  -4   2   -0.22    2.86
   9   4   2    0.62    3.17
  -9   4  -3    1.13    2.69
  -9  -4  -3   10.23    5.47
   9  -4   3    2.11    1.79
  -9   4  -4    1.26    2.94
  -9  -4  -4    1.68    3.43
   9  -4   4    7.71    3.33
  -9   4  -5   11.76    5.26
  -9  -4  -5   13.88    6.15
   9  -4   5   11.06    4.02
  -9   4  -6    3.47    3.02
  -9  -4  -6   22.55    7.37
   9  -4   6    5.53    2.49
  -9   4  -7    3.74    2.76
  -9  -4  -7   18.44    8.00
   9  -4   7    9.74    3.15
  -9  -4  -8    9.67    5.50
   9  -4   8    3.07    1.68
  -9  -4  -9    2.49    1.51
   9  -4   9    8.07    3.15
  -9  -4 -10   18.64    8.09
   9  -4  10   17.66    5.75
  -9  -4 -11    3.88    3.87
   9  -4  11    7.18    2.40
   9   4  12    9.79    3.19
  -9  -4 -12   -0.60    3.65
   9  -4  12   10.76    4.95
   9   4  13    5.08    3.02
  -9  -4 -13   19.05    8.88
   9  -4  13    0.57    2.08
  -9   5  19    5.71    5.60
  -9  -5  19    7.93    5.79
  -9  -5  19    6.56    4.53
   9  -5 -19    3.91    4.21
   9   5 -19    8.65    5.86
  -9   5  18    9.18    5.53
  -9  -5  18   16.30    7.77
  -9  -5  18    2.51    4.27
   9  -5 -18   -0.27    3.71
   9   5 -18    9.66    5.58
  -9   5  17    8.73    5.30
  -9  -5  17   11.74    5.20
  -9  -5  17   15.31    8.28
   9  -5 -17    9.43    4.43
   9   5 -17   -1.52    4.42
  -9   5  16   16.69    7.43
  -9  -5  16   21.57    7.84
  -9  -5  16    8.89    4.67
   9  -5 -16    2.05    3.53
   9   5 -16    5.63    3.11
  -9   5  15    1.93    4.92
  -9  -5  15   -0.59    4.10
  -9  -5  15   10.37    5.92
   9  -5 -15    5.87    3.84
   9   5 -15   -0.53    4.56
  -9   5  14   28.10   10.78
  -9  -5  14   10.37    5.75
  -9  -5  14    7.40    4.13
   9  -5 -14   11.67    4.93
   9   5 -14   13.52    5.48
  -9   5  13    0.13    4.19
  -9  -5  13    4.32    4.04
  -9  -5  13    2.85    3.42
   9  -5 -13    4.98    5.08
   9   5 -13    1.48    3.12
  -9   5  12    6.08    6.05
  -9  -5  12   14.53    7.02
  -9  -5  12    6.47    4.43
   9  -5 -12    5.09    3.72
   9   5 -12   10.38    5.53
  -9   5  11   12.22    6.24
  -9  -5  11   22.80    8.81
  -9  -5  11   10.17    5.32
   9  -5 -11    6.20    4.21
   9   5 -11    3.44    2.93
  -9   5  10    6.88    4.49
  -9  -5  10   15.99    7.06
  -9  -5  10   10.80    5.45
   9  -5 -10    5.57    3.70
   9   5 -10    4.64    4.05
  -9   5   9    2.41    4.05
  -9  -5   9    5.64    2.46
  -9  -5   9   -3.10    3.24
   9  -5  -9    7.72    3.68
   9   5  -9    5.13    3.21
  -9   5   8    4.60    4.24
  -9  -5   8    0.22    3.65
  -9  -5   8    1.15    3.29
   9  -5  -8   13.45    5.90
   9   5  -8    6.74    2.67
  -9   5   7    3.75    4.48
  -9  -5   7    0.48    3.22
   9  -5  -7    0.66    3.16
   9   5  -7   11.15    4.69
  -9   5   6    3.20    3.70
  -9  -5   6   17.13    6.92
  -9  -5   6    4.93    3.62
   9  -5  -6    2.70    3.34
   9   5  -6    6.85    2.68
  -9   5   5   26.72    8.02
  -9  -5   5   11.86    7.26
  -9  -5   5   -1.57    3.24
   9  -5  -5    5.38    3.44
   9   5  -5   10.64    4.49
  -9   5   4    4.02    3.92
  -9  -5   4    5.65    4.63
  -9  -5   4   10.84    4.45
   9  -5  -4    6.95    3.41
   9   5  -4    7.98    2.97
  -9   5   3   11.14    4.27
  -9  -5   3    2.23    3.31
   9  -5  -3    2.98    1.74
   9   5  -3    5.28    2.32
  -9   5   2    7.42    3.56
  -9  -5   2    8.75    4.78
   9  -5  -2   -1.61    3.23
   9   5  -2    8.48    3.01
  -9   5   1    0.02    3.14
  -9  -5   1    6.24    3.52
   9  -5  -1   11.74    3.68
   9   5  -1   10.26    3.38
  -9   5   0    8.49    3.20
  -9  -5   0    4.59    3.62
   9  -5   0    2.42    2.10
   9   5   0    4.54    2.50
  -9   5  -1   12.91    4.77
  -9  -5  -1    5.82    3.38
   9  -5   1    2.85    2.28
   9   5   1    8.67    3.13
  -9   5  -2    5.23    3.77
  -9  -5  -2    1.39    3.29
   9  -5   2   -2.46    3.11
   9   5   2    5.11    3.86
  -9   5  -3   -2.76    2.67
  -9  -5  -3   10.00    5.60
   9  -5   3    6.23    2.70
   9   5   3    3.75    1.87
  -9   5  -4    5.24    3.14
  -9  -5  -4    0.39    3.51
   9  -5   4    7.07    2.80
   9   5   5   13.47    6.59
  -9   5  -5    0.15    2.42
  -9  -5  -5    5.84    4.02
   9  -5   5   10.43    4.34
   9   5   6    4.43    2.40
  -9  -5  -6    7.15    4.09
   9  -5   6   12.88    4.94
   9   5   7    4.26    3.85
  -9  -5  -7   11.95    6.00
   9  -5   7    1.73    2.10
   9   5   8   12.27    5.52
  -9  -5  -8    2.88    3.80
   9  -5   8    7.17    2.89
   9   5   9    5.67    3.17
  -9  -5  -9    1.73    3.82
   9  -5   9   -1.24    3.49
   9   5  10    3.13    4.09
  -9  -5 -10   -4.12    3.66
   9  -5  10   10.04    4.37
   9   5  11   13.74    4.67
  -9  -5 -11   -3.63    4.01
   9  -5  11   -2.57    3.24
  -9   6  17    0.97    4.29
   9   6 -17   15.38    6.83
  -9   6  16    9.09    6.78
  -9  -6  16   -2.57    4.43
  -9  -6  16    5.41    4.31
   9  -6 -16    3.42    4.38
   9   6 -16    7.16    3.63
  -9   6  15    7.80    3.80
  -9  -6  15    0.78    4.02
  -9  -6  15    9.25    5.47
   9  -6 -15    4.28    3.05
   9   6 -15    4.88    3.39
  -9   6  14    9.24    4.78
  -9  -6  14    0.05    4.11
  -9  -6  14   18.83    6.99
   9  -6 -14    6.01    5.74
   9   6 -14   -6.72    4.95
  -9   6  13   29.30    9.41
  -9  -6  13    4.00    4.42
  -9  -6  13   15.81    6.87
   9  -6 -13    8.24    5.90
   9   6 -13    7.41    4.67
  -9   6  12    8.92    5.40
  -9  -6  12   -1.15    4.16
  -9  -6  12    4.28    3.82
   9  -6 -12   11.61    5.01
   9   6 -12   14.48    8.72
  -9   6  11    2.03    4.39
  -9  -6  11    0.01    4.31
  -9  -6  11    3.46    3.78
   9  -6 -11    0.75    3.90
   9   6 -11   10.10    3.74
  -9   6  10   15.38    6.94
  -9  -6  10    9.59    6.89
  -9  -6  10    9.80    4.51
   9  -6 -10   -6.61    3.63
   9   6 -10   11.78    6.46
  -9   6   9    0.55    5.82
  -9  -6   9    2.90    4.78
  -9  -6   9    8.86    4.57
   9  -6  -9    2.23    3.57
   9   6  -9    6.59    3.93
  -9   6   8   15.46    7.34
  -9  -6   8    1.36    4.19
  -9  -6   8   -1.49    3.67
   9  -6  -8   -1.65    3.35
   9   6  -8   11.32    6.25
  -9   6   7    7.08    5.07
  -9  -6   7    3.53    4.70
  -9  -6   7   11.10    6.35
   9  -6  -7   -3.10    3.61
   9   6  -7    5.57    3.34
  -9   6   6    5.94    4.84
  -9  -6   6   18.85    7.57
  -9  -6   6    5.50    4.20
   9  -6  -6    2.42    3.82
   9   6  -6    8.79    4.42
  -9   6   5    1.73    3.88
  -9  -6   5   13.50    7.50
   9  -6  -5   18.62    6.94
   9   6  -5   15.55    5.95
  -9   6   4   20.40    7.39
  -9  -6   4    3.70    4.30
   9  -6  -4    7.86    3.96
   9   6  -4    2.49    3.87
  -9   6   3    4.54    3.93
  -9  -6   3    3.49    4.15
   9  -6  -3   15.63    6.71
   9   6  -3   11.46    4.75
  -9   6   2   24.91    7.90
  -9  -6   2    8.11    5.86
   9  -6  -2    5.32    3.95
   9   6  -2    6.02    2.12
  -9   6   1    7.53    5.29
  -9  -6   1    6.77    4.67
   9  -6  -1   -2.09    3.32
   9   6  -1    9.56    3.01
  -9   6   0   24.97    9.31
   9  -6   0   11.79    3.54
   9   6   0   -2.50    3.28
  -9   6  -1    6.75    3.07
  -9  -6  -1   -0.58    3.79
   9  -6   1    8.33    3.70
   9   6   1    1.47    3.29
   9   6   2   -1.46    4.03
  -9   6  -2   -0.09    2.94
  -9  -6  -2    8.61    6.20
   9  -6   2    3.54    3.89
   9   6   2    2.74    2.72
   9   6   3    6.48    4.82
  -9   6  -3   12.56    5.57
  -9  -6  -3   13.14    7.02
   9  -6   3   14.59    5.43
   9   6   3    5.06    2.30
   9   6   4    4.46    2.95
  -9   6  -4   19.47    6.29
  -9  -6  -4   24.04    9.17
   9  -6   4    5.64    2.22
   9   6   5   10.58    4.18
  -9  -6  -5    3.35    4.24
   9  -6   5    7.83    3.68
   9   6   6   11.82    7.26
  -9  -6  -6   20.46    8.15
   9  -6   6   16.98    6.02
   9   6   7    4.33    2.20
   9  -6   7   10.04    3.89
   9   6   8    9.62    5.65
  -9  -6  -8    7.11    4.38
   9  -6   8    2.05    2.14
  -9   7  13    2.23    4.58
  -9  -7  13   13.20    6.41
  -9  -7  13    6.06    4.70
   9   7 -13   -0.38    4.82
  -9   7  12    3.78    4.62
  -9  -7  12   13.32    6.72
  -9  -7  12    4.86    4.38
   9  -7 -12   23.08   11.36
   9   7 -12   -1.49    5.09
  -9   7  11    6.20    5.39
  -9  -7  11   17.38    9.58
  -9  -7  11    9.23    6.15
   9  -7 -11   30.60   10.41
   9   7 -11   13.00    6.01
  -9   7  10   -2.99    4.24
  -9  -7  10    4.68    4.98
  -9  -7  10    3.40    4.34
   9  -7 -10   13.00    6.67
   9   7 -10   14.43    6.33
  -9   7   9   11.63    5.42
  -9  -7   9    5.47    4.95
  -9  -7   9    2.99    4.79
   9  -7  -9    0.55    3.88
   9   7  -9   11.41    5.01
  -9   7   8   13.26    5.73
  -9  -7   8   19.29    7.49
  -9  -7   8   -0.83    4.28
   9  -7  -8    0.31    4.04
   9   7  -8    6.83    2.73
  -9   7   7    7.62    3.69
  -9  -7   7    1.35    4.26
   9  -7  -7   11.89    5.24
   9   7  -7   19.26    6.77
  -9   7   6    5.30    4.26
  -9  -7   6    2.52    4.21
   9  -7  -6   17.73    6.91
   9   7  -6    6.23    2.93
  -9   7   5   11.29    6.74
  -9  -7   5    0.38    4.11
   9  -7  -5    8.04    4.46
   9   7  -5    6.47    3.12
  -9   7   4    8.66    4.96
  -9  -7   4    5.67    4.60
   9  -7  -4   11.41    6.30
   9   7  -4   -1.00    3.58
  -9   7   3   19.97    7.18
  -9  -7   3   19.64    8.21
   9  -7  -3    9.06    4.07
   9   7  -3    4.53    3.11
  -9   7   2   10.49    5.29
  -9  -7   2   13.12    5.49
   9  -7  -2   10.39    4.88
   9   7  -2   10.85    5.46
   9   7  -1    9.32    4.06
  -9   7   1    4.87    5.07
  -9  -7   1    5.10    4.59
   9  -7  -1    5.05    4.64
   9   7  -1   14.00    5.35
   9   7   0   13.22    6.54
  -9   7   0    2.66    3.12
  -9  -7   0   15.49    7.47
   9  -7   0   12.37    5.94
   9   7   0   -3.52    3.22
   9   7   1   12.97    4.60
  -9   7  -1    3.51    2.86
  -9  -7  -1    7.59    4.79
   9  -7   1   22.27    7.54
   9   7   1   -0.55    2.99
   9   7   2   15.05    5.98
  -9   7  -2    0.42    2.87
  -9  -7  -2    4.52    4.63
   9  -7   2    2.43    2.58
   9   7   2    7.11    2.33
   9   7   3    5.42    3.11
  -9  -7  -3    7.22    4.77
   9  -7   3    1.78    4.29
   9   7   4   11.85    6.57
  -9  -7  -4    5.20    6.45
   9  -7   4   -0.29    3.86
   9   7   5   11.39    4.38
  -9  -7  -5    6.52    4.94
   9  -7   5    3.66    2.64
 -10   0  20    1.94    4.12
  10   0 -20   19.91    8.00
 -10   0  19    6.12    6.20
  10   0 -19   10.32    5.82
 -10   0  18    0.24    4.32
  10   0 -18   20.57    7.23
 -10   0  17   24.38    8.94
  10   0 -17   16.93    6.07
  10   0 -16   21.11    9.45
 -10   0  15   13.84    7.47
  10   0 -15    0.71    4.73
 -10   0  14    5.02    4.72
  10   0 -14    4.52    4.94
 -10   0  13    4.57    4.37
  10   0 -13   11.20    5.39
 -10   0  12   -2.57    3.91
 -10   0  11    3.97    4.81
 -10   0  10    4.21    4.57
 -10   0   9    6.63    4.40
 -10   0   8    6.02    4.64
 -10   0   7    5.33    4.26
 -10   0   6    2.36    4.37
 -10   0   5    6.10    4.38
 -10   0   4   24.87    7.69
 -10   0   3    6.61    4.18
 -10   0   2    9.05    4.70
 -10   0   1    5.42    3.87
 -10   0   0   30.56    7.41
 -10   0  -1    0.78    3.64
 -10   0  -2   12.61    5.84
 -10   0  -3    9.75    5.35
 -10   0  -4    4.34    3.81
 -10   0  -5    8.71    4.13
 -10   0  -6   18.15    6.59
 -10   0  -7    4.46    3.53
 -10   0  -8   14.43    6.78
 -10   0  -9    2.42    3.29
 -10   0 -10    4.11    3.15
 -10   0 -11    3.85    2.95
 -10   1  19   14.40    7.49
 -10  -1  19    8.79    6.12
  10   1 -19    9.29    4.27
 -10   1  18    3.57    4.48
 -10  -1  18   23.53    8.86
  10   1 -18    6.98    2.76
 -10   1  17   15.61    5.88
 -10  -1  17    6.57    4.30
  10   1 -17   11.60    6.57
 -10   1  16    5.59    4.86
 -10  -1  16   16.08    6.86
  10   1 -16   -5.47    4.87
 -10   1  15    9.82    5.49
 -10  -1  15   11.01    7.00
  10   1 -15    4.90    4.59
 -10   1  14    8.08    6.71
 -10  -1  14   -0.64    4.11
  10   1 -14    1.78    2.68
 -10   1  13   17.34    8.02
 -10  -1  13   16.86    7.42
 -10   1  12    3.74    4.34
 -10  -1  12    3.76    3.97
  10   1 -12    5.30    2.57
 -10   1  11    3.17    4.29
 -10  -1  11    3.85    4.25
  10   1 -11    0.26    2.20
 -10   1  10    6.07    4.18
 -10  -1  10    4.96    4.87
  10   1 -10    0.38    3.73
 -10   1   9   15.32    5.87
 -10  -1   9   15.36    8.07
  10   1  -9    2.36    4.16
 -10   1   8   13.90    5.88
 -10  -1   8   -0.34    4.15
 -10   1   7    9.05    4.63
 -10  -1   7   11.93    5.45
 -10   1   6    0.93    4.47
 -10  -1   6   11.74    5.59
 -10   1   5   12.53    5.34
 -10  -1   5   11.99    5.63
 -10   1   4    1.38    3.98
 -10  -1   4   30.72    7.34
 -10   1   3    3.48    4.01
 -10  -1   3    5.20    4.69
 -10   1   2    2.18    3.87
 -10  -1   2   22.88    7.05
 -10   1   1   20.57    5.99
 -10  -1   1   13.89    6.49
 -10   1   0    3.70    4.00
 -10  -1   0    3.52    3.93
 -10   1  -1    7.90    3.43
 -10  -1  -1    1.36    4.02
 -10   1  -2    7.68    3.67
 -10  -1  -2    1.78    3.64
 -10   1  -3    3.74    4.98
 -10  -1  -3    4.89    3.17
 -10   1  -4    2.46    3.33
 -10  -1  -4    9.67    4.64
 -10   1  -5    7.84    3.98
 -10  -1  -5   14.28    5.99
 -10   1  -6    1.09    3.35
 -10  -1  -6    5.46    3.87
 -10   1  -7    7.43    4.55
 -10  -1  -7    4.85    3.97
 -10   1  -8   22.51    7.32
 -10  -1  -8   17.00    6.82
 -10   1  -9   15.64    5.82
 -10  -1  -9    7.89    3.78
 -10   1 -10   11.82    5.34
 -10  -1 -10    1.98    3.47
 -10  -2  19    4.89    4.78
  10   2 -19    5.33    2.33
 -10   2  18   10.22    7.55
 -10  -2  18   14.23    7.21
  10   2 -18   10.61    4.69
 -10   2  17   20.61    8.29
 -10  -2  17    4.34    4.29
  10   2 -17   12.91    4.88
 -10   2  16    8.50    5.58
 -10  -2  16    9.72    4.55
  10   2 -16   11.04    4.91
 -10   2  15    9.47    5.65
 -10  -2  15   18.31    6.64
  10   2 -15    8.74    4.55
 -10   2  14    6.90    4.92
 -10  -2  14    7.59    4.58
  10   2 -14    7.03    3.95
 -10   2  13    3.85    4.25
  10   2 -13    5.86    3.32
 -10   2  12    4.81    4.71
 -10  -2  12   15.81    6.56
  10   2 -12   -1.10    4.76
 -10   2  11    8.11    4.45
 -10  -2  11   -2.50    3.89
  10   2 -11    7.08    6.50
 -10   2  10    4.15    3.96
 -10  -2  10   -3.34    3.87
  10   2 -10    0.05    2.83
 -10   2   9   10.59    6.09
 -10  -2   9   11.41    5.08
  10   2  -9    7.66    2.51
 -10   2   8    9.38    6.26
 -10  -2   8    3.97    6.07
  10   2  -8    7.92    3.62
 -10   2   7   17.38    7.18
 -10  -2   7    8.55    4.28
  10   2  -7   12.50    5.12
 -10   2   6   24.38    8.56
 -10  -2   6   10.09    5.03
  10   2  -6    3.61    4.41
 -10   2   5    8.05    3.74
 -10  -2   5    5.39    4.55
  10   2  -5    3.13    4.01
 -10   2   4    4.80    4.30
 -10  -2   4   -3.34    4.48
 -10   2   3   15.42    4.89
 -10  -2   3   34.91    8.88
 -10   2   2   -5.81    3.29
 -10  -2   2   12.12    5.67
 -10   2   1    1.53    2.47
 -10  -2   1    1.66    4.37
 -10   2   0    8.11    4.18
 -10  -2   0   -0.86    3.76
 -10   2  -1   41.12   12.28
 -10  -2  -1   32.21   10.38
 -10   2  -2    6.60    4.24
 -10  -2  -2    3.00    4.20
 -10   2  -3    5.76    3.61
 -10  -2  -3   27.38    8.96
 -10   2  -4    3.18    3.52
 -10  -2  -4    7.43    4.23
 -10   2  -5    0.90    3.14
 -10  -2  -5   20.55    7.40
 -10   2  -6   -4.40    2.91
 -10  -2  -6    9.51    4.43
 -10   2  -7    0.25    3.09
 -10  -2  -7    7.01    5.63
 -10   2  -8    1.21    3.08
 -10  -2  -8    7.16    5.18
 -10  -2  -9    6.60    4.34
 -10  -2 -10    8.69    4.96
 -10   3  18    2.13    5.12
 -10  -3  18    4.20    4.39
  10   3 -18    4.22    3.22
 -10   3  17    4.81    5.34
 -10  -3  17    3.54    4.24
 -10  -3  17    3.64    4.57
  10   3 -17    3.84    5.66
 -10   3  16    9.02    4.94
 -10  -3  16    8.56    6.66
 -10  -3  16    8.20    4.06
 -10   3  15   13.27    6.84
 -10  -3  15   11.94    6.76
 -10  -3  15   11.79    5.64
  10   3 -15    6.31    4.97
 -10   3  14    6.62    6.38
 -10  -3  14    5.50    4.36
 -10  -3  14    6.45    4.13
  10   3 -14   21.74    8.75
 -10   3  13   -0.60    4.39
 -10  -3  13   -1.18    4.39
 -10  -3  13    2.81    2.78
  10   3 -13   30.12    8.34
 -10   3  12    4.77    4.62
 -10  -3  12    9.59    4.31
  10   3 -12    4.01    4.76
 -10   3  11   10.82    5.28
 -10  -3  11    3.98    4.55
 -10  -3  11    4.61    2.71
  10   3 -11   17.67    8.86
 -10   3  10   -6.62    3.93
 -10  -3  10    7.70    4.76
 -10  -3  10   11.12    4.51
  10   3 -10   13.80    4.67
 -10   3   9    3.23    4.56
 -10  -3   9   14.84    6.92
 -10  -3   9   18.58    6.32
  10   3  -9    6.96    4.40
 -10   3   8    6.01    4.33
 -10  -3   8    8.08    4.87
 -10  -3   8   -2.16    2.44
  10   3  -8    6.97    2.52
 -10   3   7    1.26    3.72
 -10  -3   7   12.07    5.47
 -10  -3   7    3.10    2.78
  10   3  -7   12.79    5.42
 -10   3   6   -0.14    3.58
 -10  -3   6    5.92    4.65
 -10  -3   6    8.19    3.22
  10   3  -6    7.81    4.50
 -10   3   5    9.43    4.56
 -10  -3   5   24.99    9.45
 -10  -3   5   12.84    5.63
  10   3  -5   14.29    5.27
 -10   3   4   -0.16    3.33
 -10  -3   4    8.78    5.76
 -10  -3   4    2.98    2.65
  10   3  -4   -5.30    4.16
 -10   3   3   18.67    7.22
 -10  -3   3    6.82    4.38
 -10  -3   3    4.16    2.79
  10   3  -3    4.06    3.75
 -10   3   2    1.85    4.03
 -10  -3   2   10.84    4.67
 -10  -3   2   10.72    5.06
 -10   3   1   43.62   12.70
 -10  -3   1   13.24    7.29
 -10  -3   1   13.63    5.35
 -10   3   0   17.34    7.06
 -10  -3   0    9.39    4.02
 -10   3  -1    4.54    3.62
 -10  -3  -1   -0.96    4.64
 -10  -3  -1    1.91    2.67
 -10   3  -2   -1.52    3.12
 -10  -3  -2   13.75    6.01
 -10   3  -3    1.92    3.41
 -10  -3  -3   13.86    6.58
 -10   3  -4    0.60    3.02
 -10  -3  -4   15.31    7.43
 -10   3  -5   -4.31    2.96
 -10  -3  -5    2.49    4.01
 -10   3  -6    4.71    3.49
 -10  -3  -6   11.36    6.09
 -10   3  -7    3.32    3.40
 -10  -3  -7    4.35    4.20
 -10  -3  -8    9.03    4.63
 -10  -3  -9    0.91    3.56
 -10   4  16    5.70    4.64
 -10  -4  16    8.52    6.21
 -10  -4  16    1.00    2.93
  10  -4 -16   13.54    6.41
  10   4 -16    3.11    3.50
 -10   4  15    8.23    4.75
 -10  -4  15   10.22    5.23
 -10  -4  15   13.60    5.39
  10  -4 -15    3.70    3.49
  10   4 -15    0.00    3.11
 -10   4  14    8.88    5.54
 -10  -4  14   -0.51    4.07
 -10  -4  14   15.49    6.27
  10  -4 -14   -2.95    3.12
  10   4 -14    4.08    3.50
 -10   4  13   14.44    6.03
 -10  -4  13   15.76    6.83
 -10  -4  13    7.85    3.58
  10  -4 -13    4.93    4.64
  10   4 -13    6.86    4.94
 -10   4  12    5.07    4.67
 -10  -4  12    8.45    5.84
 -10  -4  12    5.93    4.76
  10  -4 -12   -2.40    3.01
  10   4 -12   -1.43    4.51
 -10   4  11    6.10    4.87
 -10  -4  11   14.76    6.71
 -10  -4  11    8.17    5.38
  10  -4 -11   -0.05    3.02
  10   4 -11    8.52    4.49
 -10   4  10    7.35    5.41
 -10  -4  10    5.21    4.40
  10  -4 -10    3.42    3.12
  10   4 -10   20.87    7.60
 -10   4   9    3.67    4.18
 -10  -4   9   12.79    7.29
 -10  -4   9    1.85    3.24
  10  -4  -9   -0.47    2.85
  10   4  -9    4.74    2.98
 -10   4   8    6.03    4.30
 -10  -4   8   11.74    7.37
 -10  -4   8    5.98    4.69
  10  -4  -8   17.70    6.57
  10   4  -8   16.98    6.55
 -10   4   7   -0.72    4.04
 -10  -4   7   12.67    5.91
 -10  -4   7   15.44    6.17
  10  -4  -7    2.26    2.85
  10   4  -7   10.59    4.49
 -10   4   6    4.06    3.97
 -10  -4   6   -2.19    5.06
 -10  -4   6    5.52    3.38
  10  -4  -6    1.50    2.83
  10   4  -6   15.83    6.30
 -10   4   5    0.92    3.88
 -10  -4   5    9.83    7.00
 -10  -4   5   17.80    7.15
  10  -4  -5    7.57    4.14
  10   4  -5    5.03    2.95
 -10   4   4   20.55    8.10
 -10  -4   4   17.14    6.63
 -10  -4   4    6.56    3.48
  10  -4  -4    7.68    2.92
  10   4  -4   17.26    6.75
 -10   4   3    3.56    3.84
 -10  -4   3   16.47    7.79
 -10  -4   3    6.91    3.85
  10  -4  -3    2.39    1.52
  10   4  -3   -4.03    3.55
 -10   4   2    3.36    3.81
 -10  -4   2    0.48    4.84
 -10  -4   2   13.84    6.77
  10  -4  -2   -0.37    2.75
  10   4  -2   18.86    5.70
 -10   4   1   11.54    6.28
 -10  -4   1    6.21    4.61
 -10  -4   1    9.03    6.12
  10  -4  -1    4.84    1.57
  10   4  -1    1.13    4.55
 -10   4   0    2.34    3.38
 -10  -4   0    6.02    4.56
 -10  -4   0    4.11    3.49
  10  -4   0    3.45    3.03
 -10   4  -1    9.17    5.34
 -10  -4  -1    3.31    4.51
 -10  -4  -1    2.20    3.30
  10  -4   1    5.12    1.72
 -10   4  -2   14.32    5.81
 -10  -4  -2   13.11    5.83
 -10  -4  -2    5.24    4.80
  10  -4   2    8.93    3.76
 -10   4  -3    0.98    3.02
 -10  -4  -3    8.18    6.24
 -10  -4  -3    0.84    3.22
  10  -4   3    5.32    2.63
 -10   4  -4    3.14    4.34
 -10  -4  -4    2.07    4.19
 -10  -4  -4    6.40    4.91
  10  -4   4    5.34    2.73
 -10   4  -5    6.79    3.77
 -10  -4  -5    1.50    4.10
 -10  -4  -5    3.90    3.43
  10  -4   5    2.03    1.98
 -10  -4  -6   15.78    8.05
 -10  -4  -6    8.44    4.95
 -10  -4  -7    2.99    2.98
  10  -4   7   -0.12    2.89
 -10   5  13   12.44    7.00
 -10  -5  13   -3.55    3.61
 -10  -5  13   -1.42    3.59
  10  -5 -13    8.68    4.16
  10   5 -13    4.74    3.21
 -10   5  12   25.26   10.62
 -10  -5  12   -0.97    4.03
 -10  -5  12    6.56    3.89
  10  -5 -12    3.43    3.48
  10   5 -12    5.73    2.65
 -10   5  11    5.87    4.98
 -10  -5  11    2.03    4.01
 -10  -5  11    4.82    3.74
  10  -5 -11    3.28    3.83
  10   5 -11   -4.74    4.34
 -10   5  10    4.10    4.26
 -10  -5  10   10.09    5.07
 -10  -5  10    3.82    3.57
  10  -5 -10    1.85    3.54
  10   5 -10   -1.22    4.25
 -10   5   9    4.23    4.62
 -10  -5   9   -1.46    4.32
 -10  -5   9   15.45    5.48
  10  -5  -9    1.66    3.37
  10   5  -9    2.83    4.34
 -10   5   8   10.44    5.45
 -10  -5   8   12.44    7.02
 -10  -5   8    0.40    3.27
  10  -5  -8    4.39    3.65
  10   5  -8    8.00    3.44
 -10   5   7    4.75    4.04
 -10  -5   7   12.07    6.72
 -10  -5   7    6.52    3.72
  10  -5  -7    1.24    3.23
  10   5  -7    7.20    5.49
 -10   5   6    5.00    4.20
 -10  -5   6   31.33    9.63
 -10  -5   6   14.72    5.81
  10  -5  -6   21.43    7.46
  10   5  -6    2.41    2.67
 -10   5   5   -0.81    4.04
 -10  -5   5    9.50    5.39
 -10  -5   5    4.31    3.56
  10  -5  -5   -1.49    3.04
  10   5  -5    6.21    3.52
 -10   5   4   10.85    5.96
 -10  -5   4   22.54    9.22
 -10  -5   4    7.61    3.79
  10  -5  -4    7.14    3.49
  10   5  -4   -0.35    3.35
 -10   5   3   15.64    6.42
 -10  -5   3    8.30    4.80
 -10  -5   3   16.68    6.18
  10  -5  -3    9.64    3.83
  10   5  -3    7.70    3.06
 -10   5   2   17.33    7.81
 -10  -5   2   48.25   15.25
 -10  -5   2   32.50    9.69
  10  -5  -2    8.49    3.68
  10   5  -2   15.12    7.58
 -10   5   1    9.17    3.94
 -10  -5   1   -0.81    4.18
 -10  -5   1    2.14    3.36
  10  -5  -1    7.82    3.42
  10   5  -1    2.61    2.62
 -10   5   0   13.44    5.69
 -10  -5   0   33.09   10.75
 -10  -5   0   16.66    6.42
  10  -5   0    4.81    2.32
  10   5   0    9.79    3.79
 -10   5  -1   13.47    5.72
 -10  -5  -1    7.37    4.61
 -10  -5  -1    5.82    3.73
  10  -5   1    0.91    3.31
  10   5   1   10.81    5.46
 -10   5  -2    0.61    2.83
 -10  -5  -2    3.73    3.67
  10  -5   2    6.94    2.96
 -10   5  -3    8.41    4.57
 -10  -5  -3    4.82    3.73
  10  -5   3    4.37    2.48
 -10  -5  -4   11.86    6.07
  10  -5   4    4.26    2.03
 -10   6   7   -4.60    3.61
 -10  -6   7    5.77    4.11
  10   6  -7    7.44    5.95
 -10   6   6    3.20    4.13
 -10  -6   6    4.29    4.98
 -10  -6   6    0.17    3.74
  10  -6  -6    6.97    4.16
  10   6  -6    1.70    4.95
 -10   6   5   10.75    5.66
 -10  -6   5    8.19    5.60
 -10  -6   5    1.14    3.47
  10  -6  -5    7.22    2.36
  10   6  -5   -0.27    3.53
 -10   6   4    0.96    3.54
 -10  -6   4    6.87    5.42
 -10  -6   4   -4.40    3.50
  10  -6  -4    5.55    3.47
  10   6  -4   17.11    7.25
 -10   6   3   -4.14    3.61
 -10  -6   3    1.75    3.65
  10  -6  -3    5.29    4.21
  10   6  -3    8.02    3.04
 -10   6   2    1.14    3.44
 -10  -6   2    6.17    4.67
 -10  -6   2    3.86    3.79
  10  -6  -2   -0.61    3.31
  10   6  -2    1.52    1.75
 -11   0  12    9.15    5.02
 -11   0  11    4.48    4.57
 -11   0  10    8.07    4.88
 -11   0   9    9.59    6.63
 -11   0   8    1.20    4.65
 -11   0   7   14.29    6.70
 -11   0   6   10.16    6.38
 -11   0   5    4.74    4.80
 -11   0   4   10.30    4.96
 -11   0   3   -1.36    3.93
 -11   0   2   10.30    5.04
 -11   0   1    1.86    4.19
 -11   0   0   14.22    6.31
 -11   0  -1    3.43    3.88
 -11   0  -2    1.82    4.09
 -11   1  12    4.25    4.49
 -11  -1  12    1.45    4.94
 -11   1  11    6.47    4.93
 -11  -1  11    2.83    4.46
 -11   1  10    2.90    4.66
 -11  -1  10    7.56    6.08
 -11   1   9   16.48    7.49
 -11  -1   9    7.98    5.11
 -11   1   8    3.99    3.74
 -11  -1   8   13.08    7.19
 -11   1   7   -0.25    4.24
 -11  -1   7    1.09    4.62
 -11   1   6   15.65    6.37
 -11  -1   6    1.32    4.02
 -11   1   5    9.46    5.80
 -11  -1   5    0.40    4.03
 -11   1   4   -1.24    4.13
 -11  -1   4    6.37    4.60
 -11   1   3   14.92    7.04
 -11  -1   3   15.26    6.99
 -11   1   2    1.59    3.78
 -11  -1   2    5.85    4.41
 -11   1   1    5.49    4.28
 -11  -1   1    2.86    4.34
 -11   1   0    7.44    4.44
 -11  -1   0    2.92    4.57
 -11   1  -1    7.12    4.27
 -11  -1  -1    4.99    4.29
 -11   1  -2   13.40    6.44
 -11  -1  -2    8.31    5.78
 -11  -2  11    7.85    5.39
  11   2 -11    9.61    4.29
 -11   2  10   13.21    7.08
 -11  -2  10   26.60   10.69
  11   2 -10    8.72    4.90
 -11   2   9    3.44    4.60
 -11  -2   9   10.45    6.58
  11   2  -9    9.19    5.08
 -11   2   8    1.72    4.50
 -11  -2   8    7.94    6.22
 -11   2   7    7.99    6.30
 -11  -2   7   18.17    8.33
 -11   2   6   13.12    6.59
 -11  -2   6    6.25    4.68
 -11   2   5   -2.27    4.21
 -11  -2   5   10.17    5.23
 -11   2   4    2.40    4.23
 -11  -2   4    8.46    6.42
 -11   2   3    6.32    4.10
 -11  -2   3    1.04    4.28
 -11   2   2    0.71    3.69
 -11  -2   2   -0.69    4.36
 -11   2   1   -0.77    3.91
 -11  -2   1   15.22    8.25
 -11   2   0    0.71    3.62
 -11  -2   0   13.56    6.86
 -11   2  -1   24.72    8.58
 -11  -2  -1    6.88    4.59
  11   3  -7    6.94    4.75
 -11   3   6   13.52    8.09
 -11  -3   6    1.89    4.49
  11   3  -6    0.68    3.90
 -11   3   5    9.82    4.81
 -11  -3   5    7.20    4.84
 -11   3   4   -2.76    3.60
 -11  -3   4    7.94    5.17

_computing_structure_solution     'SHELXT 2014/4 (Sheldrick, 2014)'
;
_shelx_hkl_checksum              40632
_shelx_shelxl_version_number     2014/7
_olex2_submission_special_instructions 'No special instructions were received'
loop_
_space_group_symop_operation_xyz
'x, y, z'
'-x, y+1/2, -z+1/2'
'-x, -y, -z'
'x, -y-1/2, z-1/2'
loop_
_atom_site_label
_atom_site_type_symbol
_atom_site_fract_x
_atom_site_fract_y
_atom_site_fract_z
_atom_site_U_iso_or_equiv
_atom_site_adp_type
_atom_site_occupancy
_atom_site_site_symmetry_order
_atom_site_calc_flag
_atom_site_refinement_flags_posn
_atom_site_refinement_flags_adp
_atom_site_refinement_flags_occupancy
_atom_site_disorder_assembly
_atom_site_disorder_group
Br1 Br 0.26100(16) 0.40225(10) 0.32335(4) 0.0795(5) Uani 1 1 d . . . . .
S1 S 1.0834(3) -0.1336(3) 0.36520(8) 0.0652(8) Uani 1 1 d D . . . .
O1 O 0.8978(7) -0.3706(7) 0.3363(2) 0.0556(17) Uani 1 1 d . . . . .
O2 O 1.1044(8) 0.0044(9) 0.3768(2) 0.079(2) Uani 1 1 d . . . . .
O3 O 1.1776(7) -0.1973(11) 0.3324(2) 0.110(4) Uani 1 1 d . . . . .
N1 N 0.8340(9) 0.0870(8) 0.3041(2) 0.0520(19) Uani 1 1 d . . . . .
N2 N 0.8949(7) -0.1420(8) 0.3338(2) 0.0428(17) Uani 1 1 d . . . . .
C1 C 0.5942(10) 0.1039(8) 0.3263(3) 0.0398(19) Uani 1 1 d . . . . .
C2 C 0.4551(10) 0.1713(8) 0.3314(3) 0.042(2) Uani 1 1 d . . . . .
H2 H 0.3757 0.1288 0.3454 0.051 Uiso 1 1 calc R . . . .
C3 C 0.4418(12) 0.3023(8) 0.3150(3) 0.053(2) Uani 1 1 d . . . . .
C4 C 0.5563(15) 0.3688(9) 0.2920(3) 0.068(3) Uani 1 1 d . . . . .
H4 H 0.5416 0.4573 0.2813 0.081 Uiso 1 1 calc R . . . .
C5 C 0.6907(14) 0.3027(9) 0.2854(3) 0.063(3) Uani 1 1 d . . . . .
H5 H 0.7662 0.3444 0.2692 0.076 Uiso 1 1 calc R . . . .
C6 C 0.7100(11) 0.1720(8) 0.3037(3) 0.048(2) Uani 1 1 d . . . . .
C7 C 0.7998(9) -0.0282(8) 0.3281(3) 0.0382(19) Uani 1 1 d . . . . .
C8 C 0.6528(9) -0.0261(8) 0.3408(3) 0.0332(17) Uani 1 1 d . . . . .
C9 C 0.9657(10) 0.1127(12) 0.2753(3) 0.068(3) Uani 1 1 d . . . . .
H0AA H 0.9292 0.1589 0.2431 0.102 Uiso 1 1 calc GR . . . .
H0AB H 1.0116 0.0292 0.2675 0.102 Uiso 1 1 calc GR . . . .
H0AC H 1.0417 0.1667 0.2966 0.102 Uiso 1 1 calc GR . . . .
C10 C 0.5805(9) -0.1506(7) 0.3579(3) 0.0330(16) Uani 1 1 d . . . . .
H10 H 0.4691 -0.1459 0.3450 0.040 Uiso 1 1 calc R . . . .
C11 C 0.6484(9) -0.2655(7) 0.3281(3) 0.0357(18) Uani 1 1 d . . . . .
H11A H 0.6136 -0.3499 0.3408 0.043 Uiso 1 1 calc R . . . .
H11B H 0.6054 -0.2587 0.2911 0.043 Uiso 1 1 calc R . . . .
C12 C 0.8210(9) -0.2696(9) 0.3326(3) 0.0395(19) Uani 1 1 d . . . . .
C13 C 1.096(3) -0.2295(14) 0.4233(4) 0.042(4) Uani 0.672(11) 1 d D U P A 1
C14 C 1.0719(16) -0.1606(15) 0.4708(5) 0.040(3) Uani 0.672(11) 1 d . U P A 1
H14 H 1.0419 -0.0713 0.4688 0.048 Uiso 0.672(11) 1 calc R . P A 1
C15 C 1.092(2) -0.2236(19) 0.5185(7) 0.052(4) Uani 0.672(11) 1 d . U P A 1
H15 H 1.0859 -0.1732 0.5485 0.063 Uiso 0.672(11) 1 calc R . P A 1
C16 C 1.121(2) -0.3542(19) 0.5239(7) 0.072(4) Uani 0.672(11) 1 d . U P A 1
C17 C 1.143(2) -0.4262(17) 0.4799(6) 0.077(4) Uani 0.672(11) 1 d . U P A 1
H17 H 1.1677 -0.5165 0.4836 0.093 Uiso 0.672(11) 1 calc R . P A 1
C18 C 1.1290(16) -0.3695(14) 0.4313(5) 0.056(3) Uani 0.672(11) 1 d . U P A 1
H18 H 1.1414 -0.4226 0.4025 0.067 Uiso 0.672(11) 1 calc R . P A 1
C19 C 1.141(3) -0.419(2) 0.5784(8) 0.112(7) Uani 0.672(11) 1 d . U P A 1
H19A H 1.1524 -0.3505 0.6049 0.168 Uiso 0.672(11) 1 calc GR . P A 1
H19B H 1.2309 -0.4751 0.5829 0.168 Uiso 0.672(11) 1 calc GR . P A 1
H19C H 1.0509 -0.4720 0.5817 0.168 Uiso 0.672(11) 1 calc GR . P A 1
C20 C 0.6007(9) -0.1726(7) 0.4175(3) 0.0359(18) Uani 1 1 d D U . . .
C21 C 0.603(3) -0.0608(16) 0.4504(6) 0.036(5) Uani 0.376(11) 1 d D U P B 1
H21 H 0.5945 0.0254 0.4366 0.043 Uiso 0.376(11) 1 calc R . P B 1
C22 C 0.619(3) -0.0826(16) 0.5045(7) 0.050(5) Uani 0.376(11) 1 d D U P B 1
H22 H 0.6227 -0.0101 0.5273 0.059 Uiso 0.376(11) 1 calc R . P B 1
C23 C 0.6284(13) -0.2136(11) 0.5249(4) 0.069(3) Uani 1 1 d D U . . .
H23 H 0.6077 -0.2291 0.5588 0.083 Uiso 0.376(11) 1 calc R . P B 1
H23A H 0.6407 -0.2283 0.5610 0.083 Uiso 0.624(11) 1 calc R . P B 2
C24 C 0.668(3) -0.3192(19) 0.4951(7) 0.069(5) Uani 0.376(11) 1 d D U P B 1
H24 H 0.7107 -0.3984 0.5098 0.083 Uiso 0.376(11) 1 calc R . P B 1
C25 C 0.639(3) -0.2967(15) 0.4410(7) 0.056(5) Uani 0.376(11) 1 d D U P B 1
H25 H 0.6454 -0.3695 0.4189 0.067 Uiso 0.376(11) 1 calc R . P B 1
C21A C 0.677(2) -0.0908(18) 0.4521(6) 0.055(4) Uani 0.624(11) 1 d . U P B 2
H21A H 0.7209 -0.0140 0.4403 0.066 Uiso 0.624(11) 1 calc R . P B 2
C18A C 1.214(3) -0.283(3) 0.4296(11) 0.052(5) Uani 0.328(11) 1 d . U P A 2
H18A H 1.2621 -0.3064 0.4010 0.062 Uiso 0.328(11) 1 calc R . P A 2
C13A C 1.088(6) -0.198(4) 0.4289(7) 0.042(6) Uani 0.328(11) 1 d D U P A 2
C24A C 0.5329(19) -0.3041(15) 0.4886(5) 0.053(3) Uani 0.624(11) 1 d . U P B 2
H24A H 0.4814 -0.3757 0.5013 0.063 Uiso 0.624(11) 1 calc R . P B 2
C14A C 1.006(4) -0.153(3) 0.4582(11) 0.040(5) Uani 0.328(11) 1 d . U P A 2
H14A H 0.9317 -0.0878 0.4484 0.048 Uiso 0.328(11) 1 calc R . P A 2
C19A C 1.224(4) -0.361(4) 0.5735(14) 0.080(9) Uani 0.328(11) 1 d . U P A 2
H19D H 1.3146 -0.3161 0.5906 0.119 Uiso 0.328(11) 1 calc GR . P A 2
H19E H 1.2466 -0.4544 0.5696 0.119 Uiso 0.328(11) 1 calc GR . P A 2
H19F H 1.1418 -0.3523 0.5943 0.119 Uiso 0.328(11) 1 calc GR . P A 2
C15A C 1.035(4) -0.211(4) 0.5093(15) 0.049(5) Uani 0.328(11) 1 d . U P A 2
H15A H 0.9710 -0.1935 0.5345 0.059 Uiso 0.328(11) 1 calc R . P A 2
C22A C 0.693(2) -0.116(2) 0.5066(6) 0.066(4) Uani 0.624(11) 1 d . U P B 2
H22A H 0.7539 -0.0591 0.5296 0.079 Uiso 0.624(11) 1 calc R . P B 2
C16A C 1.174(4) -0.301(4) 0.5203(14) 0.062(5) Uani 0.328(11) 1 d . U P A 2
C17A C 1.256(4) -0.327(3) 0.4812(12) 0.066(5) Uani 0.328(11) 1 d . U P A 2
H17A H 1.3460 -0.3774 0.4891 0.079 Uiso 0.328(11) 1 calc R . P A 2
C25A C 0.5211(17) -0.2804(12) 0.4346(5) 0.046(3) Uani 0.624(11) 1 d D U P B 2
H25A H 0.4611 -0.3358 0.4106 0.055 Uiso 0.624(11) 1 calc R . P B 2
loop_
_atom_site_aniso_label
_atom_site_aniso_U_11
_atom_site_aniso_U_22
_atom_site_aniso_U_33
_atom_site_aniso_U_23
_atom_site_aniso_U_13
_atom_site_aniso_U_12
Br1 0.1314(11) 0.0453(5) 0.0541(6) -0.0052(5) -0.0107(6) 0.0335(6)
S1 0.0343(12) 0.133(3) 0.0292(11) -0.0198(14) 0.0061(9) -0.0169(15)
O1 0.054(4) 0.076(4) 0.036(3) -0.002(3) 0.006(3) 0.033(3)
O2 0.063(5) 0.131(7) 0.038(4) 0.005(4) -0.005(3) -0.048(5)
O3 0.034(4) 0.261(11) 0.036(3) -0.048(5) 0.011(3) 0.007(5)
N1 0.060(5) 0.070(5) 0.028(3) 0.002(4) 0.011(3) -0.025(4)
N2 0.032(4) 0.073(5) 0.022(3) -0.009(3) 0.003(3) -0.006(4)
C1 0.061(6) 0.036(4) 0.023(4) 0.003(3) 0.008(4) -0.013(4)
C2 0.066(6) 0.036(4) 0.024(4) -0.002(3) 0.006(4) -0.008(4)
C3 0.097(8) 0.032(4) 0.027(4) -0.003(4) -0.003(4) 0.009(5)
C4 0.145(11) 0.029(5) 0.023(4) -0.001(4) -0.011(5) -0.017(6)
C5 0.118(9) 0.049(6) 0.021(4) 0.002(4) 0.007(5) -0.041(6)
C6 0.076(7) 0.041(5) 0.024(4) -0.001(4) 0.001(4) -0.026(5)
C7 0.047(5) 0.047(5) 0.022(4) -0.002(3) 0.008(3) -0.012(4)
C8 0.039(4) 0.043(4) 0.019(3) -0.003(3) 0.009(3) -0.007(4)
C9 0.055(6) 0.120(9) 0.034(5) 0.003(5) 0.022(4) -0.042(6)
C10 0.032(4) 0.035(4) 0.032(4) 0.001(3) 0.005(3) -0.004(3)
C11 0.048(5) 0.034(4) 0.023(4) -0.002(3) -0.004(3) -0.003(4)
C12 0.034(5) 0.063(6) 0.020(4) -0.011(4) 0.002(3) 0.003(4)
C13 0.039(6) 0.054(7) 0.031(5) -0.018(5) -0.001(5) 0.007(6)
C14 0.044(6) 0.043(5) 0.035(5) -0.012(5) 0.009(5) 0.005(5)
C15 0.059(7) 0.059(6) 0.039(6) -0.004(5) 0.008(6) -0.005(6)
C16 0.082(7) 0.076(7) 0.053(6) 0.008(6) -0.005(6) -0.004(6)
C17 0.088(7) 0.065(7) 0.072(6) 0.002(6) -0.009(6) 0.013(6)
C18 0.065(6) 0.049(6) 0.051(6) -0.009(5) -0.001(5) 0.010(5)
C19 0.141(14) 0.116(13) 0.067(10) 0.025(10) -0.027(10) -0.020(11)
C20 0.041(4) 0.039(4) 0.031(4) -0.002(3) 0.016(3) -0.004(3)
C21 0.035(8) 0.045(7) 0.030(7) 0.002(6) 0.012(7) 0.000(7)
C22 0.049(8) 0.058(8) 0.043(7) -0.007(6) 0.012(7) 0.004(7)
C23 0.084(6) 0.080(5) 0.049(4) 0.003(4) 0.025(4) 0.003(5)
C24 0.082(9) 0.069(8) 0.059(8) 0.002(7) 0.020(7) 0.001(7)
C25 0.071(8) 0.053(8) 0.046(7) -0.004(7) 0.020(7) 0.000(7)
C21A 0.058(7) 0.065(7) 0.042(6) 0.002(6) 0.006(6) -0.014(6)
C18A 0.050(8) 0.056(8) 0.050(7) 0.007(7) 0.010(7) 0.005(7)
C13A 0.043(8) 0.048(8) 0.035(8) -0.013(7) 0.005(7) 0.007(7)
C24A 0.065(7) 0.053(6) 0.043(6) 0.003(5) 0.017(5) -0.007(5)
C14A 0.041(8) 0.044(7) 0.036(8) -0.004(6) 0.009(7) 0.003(7)
C19A 0.080(15) 0.100(15) 0.056(13) 0.017(13) 0.002(12) -0.020(13)
C15A 0.052(8) 0.051(7) 0.045(7) -0.003(6) 0.009(7) 0.003(7)
C22A 0.071(7) 0.077(7) 0.048(6) -0.007(6) 0.006(6) -0.019(6)
C16A 0.064(8) 0.065(8) 0.054(7) 0.004(7) -0.001(7) -0.004(7)
C17A 0.064(8) 0.067(8) 0.065(8) 0.008(7) 0.003(7) 0.010(7)
C25A 0.057(7) 0.045(6) 0.036(6) -0.005(5) 0.005(5) -0.008(6)
loop_
_atom_type_symbol
_atom_type_description
_atom_type_scat_dispersion_real
_atom_type_scat_dispersion_imag
_atom_type_scat_source
C C 0.0033 0.0016 'International Tables Vol C Tables 4.2.6.8 and 6.1.1.4'
H H 0.0000 0.0000 'International Tables Vol C Tables 4.2.6.8 and 6.1.1.4'
Br Br -0.2901 2.4595 'International Tables Vol C Tables 4.2.6.8 and 6.1.1.4'
N N 0.0061 0.0033 'International Tables Vol C Tables 4.2.6.8 and 6.1.1.4'
O O 0.0106 0.0060 'International Tables Vol C Tables 4.2.6.8 and 6.1.1.4'
S S 0.1246 0.1234 'International Tables Vol C Tables 4.2.6.8 and 6.1.1.4'
loop_
_geom_angle_atom_site_label_1
_geom_angle_atom_site_label_2
_geom_angle_atom_site_label_3
_geom_angle
O2 S1 N2 103.3(4)
O2 S1 C13 111.1(6)
O2 S1 C13A 100.0(13)
O3 S1 O2 119.7(6)
O3 S1 N2 107.4(4)
O3 S1 C13 107.1(8)
O3 S1 C13A 117.4(15)
N2 S1 C13 107.6(8)
N2 S1 C13A 107.8(18)
C6 N1 C9 124.0(8)
C7 N1 C6 107.4(7)
C7 N1 C9 127.9(9)
C7 N2 S1 121.2(6)
C7 N2 C12 117.6(6)
C12 N2 S1 116.8(6)
C2 C1 C6 119.2(8)
C2 C1 C8 133.6(7)
C6 C1 C8 107.2(8)
C1 C2 H2 121.3
C3 C2 C1 117.3(8)
C3 C2 H2 121.3
C2 C3 Br1 119.8(8)
C2 C3 C4 123.2(9)
C4 C3 Br1 117.0(7)
C3 C4 H4 120.0
C5 C4 C3 119.9(8)
C5 C4 H4 120.0
C4 C5 H5 121.0
C4 C5 C6 118.1(9)
C6 C5 H5 121.0
N1 C6 C1 108.1(7)
N1 C6 C5 129.6(9)
C5 C6 C1 122.2(10)
N1 C7 N2 124.5(7)
N1 C7 C8 111.9(8)
C8 C7 N2 123.2(7)
C1 C8 C10 133.4(7)
C7 C8 C1 105.3(7)
C7 C8 C10 120.7(7)
N1 C9 H0AA 109.5
N1 C9 H0AB 109.5
N1 C9 H0AC 109.5
H0AA C9 H0AB 109.5
H0AA C9 H0AC 109.5
H0AB C9 H0AC 109.5
C8 C10 H10 107.6
C8 C10 C11 105.2(6)
C8 C10 C20 115.2(6)
C11 C10 H10 107.6
C20 C10 H10 107.6
C20 C10 C11 113.3(6)
C10 C11 H11A 108.3
C10 C11 H11B 108.3
H11A C11 H11B 107.4
C12 C11 C10 116.0(6)
C12 C11 H11A 108.3
C12 C11 H11B 108.3
O1 C12 N2 120.1(7)
O1 C12 C11 124.8(8)
N2 C12 C11 115.1(7)
C14 C13 S1 117.3(11)
C18 C13 S1 129.4(11)
C18 C13 C14 113.3(10)
C13 C14 H14 119.2
C15 C14 C13 121.6(14)
C15 C14 H14 119.2
C14 C15 H15 118.6
C16 C15 C14 122.8(17)
C16 C15 H15 118.6
C15 C16 C17 118.2(17)
C15 C16 C19 120.2(18)
C17 C16 C19 121.4(18)
C16 C17 H17 118.9
C18 C17 C16 122.2(16)
C18 C17 H17 118.9
C13 C18 H18 119.2
C17 C18 C13 121.6(13)
C17 C18 H18 119.2
C16 C19 H19A 109.5
C16 C19 H19B 109.5
C16 C19 H19C 109.5
H19A C19 H19B 109.5
H19A C19 H19C 109.5
H19B C19 H19C 109.5
C21 C20 C10 118.6(9)
C25 C20 C10 122.9(10)
C25 C20 C21 117.8(13)
C21A C20 C10 123.9(9)
C21A C20 C25A 119.7(10)
C25A C20 C10 116.1(8)
C20 C21 H21 121.1
C22 C21 C20 117.9(16)
C22 C21 H21 121.1
C21 C22 H22 119.7
C21 C22 C23 120.6(17)
C23 C22 H22 119.7
C22 C23 H23 119.6
C24 C23 C22 120.7(14)
C24 C23 H23 119.6
C24A C23 H23A 120.4
C22A C23 H23A 120.4
C22A C23 C24A 119.1(12)
C23 C24 H24 123.0
C23 C24 C25 114.0(18)
C25 C24 H24 123.0
C20 C25 H25 117.6
C24 C25 C20 124.8(18)
C24 C25 H25 117.6
C20 C21A H21A 119.2
C20 C21A C22A 121.7(15)
C22A C21A H21A 119.2
C13A C18A H18A 126.3
C17A C18A H18A 126.3
C17A C18A C13A 107(2)
C18A C13A S1 98(2)
C14A C13A S1 121(3)
C14A C13A C18A 140(2)
C23 C24A H24A 120.8
C25A C24A C23 118.5(12)
C25A C24A H24A 120.8
C13A C14A H14A 123.4
C13A C14A C15A 113(3)
C15A C14A H14A 123.4
H19D C19A H19E 109.5
H19D C19A H19F 109.5
H19E C19A H19F 109.5
C16A C19A H19D 109.5
C16A C19A H19E 109.5
C16A C19A H19F 109.5
C14A C15A H15A 122.0
C14A C15A C16A 116(3)
C16A C15A H15A 122.0
C23 C22A C21A 122.0(16)
C23 C22A H22A 119.0
C21A C22A H22A 119.0
C19A C16A C15A 122(3)
C17A C16A C19A 119(3)
C17A C16A C15A 119(3)
C18A C17A H17A 118.0
C16A C17A C18A 124(3)
C16A C17A H17A 118.0
C20 C25A C24A 118.8(11)
C20 C25A H25A 120.6
C24A C25A H25A 120.6
loop_
_geom_bond_atom_site_label_1
_geom_bond_atom_site_label_2
_geom_bond_distance
Br1 C3 1.907(10)
S1 O2 1.418(8)
S1 O3 1.416(7)
S1 N2 1.721(6)
S1 C13 1.765(8)
S1 C13A 1.753(10)
O1 C12 1.208(9)
N1 C6 1.375(11)
N1 C7 1.361(10)
N1 C9 1.480(10)
N2 C7 1.403(10)
N2 C12 1.428(11)
C1 C2 1.412(11)
C1 C6 1.415(11)
C1 C8 1.425(11)
C2 H2 0.9300
C2 C3 1.376(11)
C3 C4 1.403(14)
C4 H4 0.9300
C4 C5 1.379(14)
C5 H5 0.9300
C5 C6 1.390(12)
C7 C8 1.372(10)
C8 C10 1.492(10)
C9 H0AA 0.9600
C9 H0AB 0.9600
C9 H0AC 0.9600
C10 H10 0.9800
C10 C11 1.548(10)
C10 C20 1.532(10)
C11 H11A 0.9700
C11 H11B 0.9700
C11 C12 1.494(11)
C13 C14 1.444(19)
C13 C18 1.437(19)
C14 H14 0.9300
C14 C15 1.37(2)
C15 H15 0.9300
C15 C16 1.33(3)
C16 C17 1.38(2)
C16 C19 1.53(2)
C17 H17 0.9300
C17 C18 1.36(2)
C18 H18 0.9300
C19 H19A 0.9600
C19 H19B 0.9600
C19 H19C 0.9600
C20 C21 1.400(10)
C20 C25 1.398(10)
C20 C21A 1.311(17)
C20 C25A 1.390(9)
C21 H21 0.9300
C21 C22 1.393(10)
C22 H22 0.9300
C22 C23 1.408(10)
C23 H23 0.9300
C23 H23A 0.9300
C23 C24 1.379(10)
C23 C24A 1.465(18)
C23 C22A 1.252(19)
C24 H24 0.9300
C24 C25 1.393(10)
C25 H25 0.9300
C21A H21A 0.9300
C21A C22A 1.41(2)
C18A H18A 0.9300
C18A C13A 1.39(5)
C18A C17A 1.39(4)
C13A C14A 1.20(5)
C24A H24A 0.9300
C24A C25A 1.396(18)
C14A H14A 0.9300
C14A C15A 1.42(5)
C19A H19D 0.9600
C19A H19E 0.9600
C19A H19F 0.9600
C19A C16A 1.50(5)
C15A H15A 0.9300
C15A C16A 1.51(5)
C22A H22A 0.9300
C16A C17A 1.34(5)
C17A H17A 0.9300
C25A H25A 0.9300
loop_
_geom_torsion_atom_site_label_1
_geom_torsion_atom_site_label_2
_geom_torsion_atom_site_label_3
_geom_torsion_atom_site_label_4
_geom_torsion
Br1 C3 C4 C5 179.2(6)
S1 N2 C7 N1 57.2(9)
S1 N2 C7 C8 -130.6(7)
S1 N2 C12 O1 -24.8(9)
S1 N2 C12 C11 153.7(5)
S1 C13 C14 C15 -174.3(14)
S1 C13 C18 C17 176.2(16)
S1 C13A C14A C15A -175(3)
O2 S1 N2 C7 -3.6(7)
O2 S1 N2 C12 -159.5(5)
O2 S1 C13 C14 20.4(19)
O2 S1 C13 C18 -158.7(18)
O2 S1 C13A C18A -120(2)
O2 S1 C13A C14A 52(4)
O3 S1 N2 C7 -131.0(7)
O3 S1 N2 C12 73.2(7)
O3 S1 C13 C14 152.7(15)
O3 S1 C13 C18 -26(2)
O3 S1 C13A C18A 11(3)
O3 S1 C13A C14A -177(3)
N1 C7 C8 C1 -3.5(8)
N1 C7 C8 C10 168.3(6)
N2 S1 C13 C14 -92.1(16)
N2 S1 C13 C18 89(2)
N2 S1 C13A C18A 132(2)
N2 S1 C13A C14A -55(4)
N2 C7 C8 C1 -176.6(6)
N2 C7 C8 C10 -4.8(11)
C1 C2 C3 Br1 -177.4(5)
C1 C2 C3 C4 2.3(12)
C1 C8 C10 C11 137.3(8)
C1 C8 C10 C20 -97.2(9)
C2 C1 C6 N1 178.7(7)
C2 C1 C6 C5 -1.2(11)
C2 C1 C8 C7 -176.2(8)
C2 C1 C8 C10 13.5(14)
C2 C3 C4 C5 -0.4(13)
C3 C4 C5 C6 -2.2(12)
C4 C5 C6 N1 -176.9(8)
C4 C5 C6 C1 3.0(12)
C6 N1 C7 N2 176.8(7)
C6 N1 C7 C8 3.8(9)
C6 C1 C2 C3 -1.4(11)
C6 C1 C8 C7 1.9(8)
C6 C1 C8 C10 -168.4(7)
C7 N1 C6 C1 -2.4(8)
C7 N1 C6 C5 177.5(8)
C7 N2 C12 O1 178.5(7)
C7 N2 C12 C11 -3.0(9)
C7 C8 C10 C11 -31.8(9)
C7 C8 C10 C20 93.7(8)
C8 C1 C2 C3 176.5(8)
C8 C1 C6 N1 0.3(8)
C8 C1 C6 C5 -179.6(7)
C8 C10 C11 C12 51.8(8)
C8 C10 C20 C21 33.8(15)
C8 C10 C20 C25 -136.7(16)
C8 C10 C20 C21A -0.8(15)
C8 C10 C20 C25A 173.6(9)
C9 N1 C6 C1 168.5(7)
C9 N1 C6 C5 -11.6(13)
C9 N1 C7 N2 6.3(12)
C9 N1 C7 C8 -166.7(7)
C10 C11 C12 O1 141.9(7)
C10 C11 C12 N2 -36.5(9)
C10 C20 C21 C22 178.9(16)
C10 C20 C25 C24 176(2)
C10 C20 C21A C22A -179.4(13)
C10 C20 C25A C24A -178.9(11)
C11 C10 C20 C21 155.0(13)
C11 C10 C20 C25 -15.5(17)
C11 C10 C20 C21A 120.4(12)
C11 C10 C20 C25A -65.2(11)
C12 N2 C7 N1 -147.1(7)
C12 N2 C7 C8 25.1(10)
C13 S1 N2 C7 114.0(8)
C13 S1 N2 C12 -41.9(8)
C13 C14 C15 C16 -6(3)
C14 C13 C18 C17 -3(3)
C14 C15 C16 C17 5(3)
C14 C15 C16 C19 -179.2(16)
C15 C16 C17 C18 -3(3)
C16 C17 C18 C13 2(3)
C18 C13 C14 C15 5(3)
C19 C16 C17 C18 -178.6(17)
C20 C10 C11 C12 -74.8(8)
C20 C21 C22 C23 -1(3)
C20 C21A C22A C23 -4(3)
C21 C20 C25 C24 5(3)
C21 C22 C23 C24 19(3)
C22 C23 C24 C25 -23(3)
C23 C24 C25 C20 12(4)
C23 C24A C25A C20 0(2)
C25 C20 C21 C22 -10(3)
C21A C20 C25A C24A -4(2)
C18A C13A C14A C15A -7(8)
C13A S1 N2 C7 101.7(14)
C13A S1 N2 C12 -54.2(14)
C13A C18A C17A C16A 7(5)
C13A C14A C15A C16A 8(5)
C24A C23 C22A C21A 0(3)
C14A C15A C16A C19A 176(3)
C14A C15A C16A C17A -4(5)
C19A C16A C17A C18A 176(3)
C15A C16A C17A C18A -5(6)
C22A C23 C24A C25A 2(2)
C17A C18A C13A S1 169(2)
C17A C18A C13A C14A -1(8)
C25A C20 C21A C22A 6(2)
